
     RDKit          3D

 41 42  0  0  1  0  0  0  0  0999 V2000
   39.4950   23.9210   36.0860 C   0  0  0  0  0  0  0  0  0  0  0  0
   38.5060   24.4830   36.9130 C   0  0  0  0  0  0  0  0  0  0  0  0
   37.8770   25.6500   36.4830 C   0  0  0  0  0  0  0  0  0  0  0  0
   38.2360   26.1990   35.2940 N   0  0  0  0  0  0  0  0  0  0  0  0
   39.1720   25.6480   34.5320 C   0  0  0  0  0  0  0  0  0  0  0  0
   39.7990   24.5300   34.9040 N   0  0  0  0  0  0  0  0  0  0  0  0
   39.4860   26.2880   33.2930 N   0  0  0  0  0  0  0  0  0  0  0  0
   40.8090   26.1910   32.7790 C   0  0  0  0  0  0  0  0  0  0  0  0
   41.0060   27.3590   31.8530 C   0  0  0  0  0  0  0  0  0  0  0  0
   40.0220   27.4170   30.7270 C   0  0  0  0  0  0  0  0  0  0  0  0
   38.6270   27.0190   31.0970 C   0  0  0  0  0  0  0  0  0  0  0  0
   38.4660   27.0080   32.5920 C   0  0  1  0  0  0  0  0  0  0  0  0
   38.1430   23.8710   38.1950 C   0  0  0  0  0  0  0  0  0  0  0  0
   39.2960   23.5760   38.8730 F   0  0  0  0  0  0  0  0  0  0  0  0
   37.3860   22.7350   38.0920 F   0  0  0  0  0  0  0  0  0  0  0  0
   37.4910   24.8180   39.0080 F   0  0  0  0  0  0  0  0  0  0  0  0
   40.2830   22.7090   36.3420 C   0  0  0  0  0  0  0  0  0  0  0  0
   41.0040   22.3320   35.2140 F   0  0  0  0  0  0  0  0  0  0  0  0
   41.1630   22.8880   37.4060 F   0  0  0  0  0  0  0  0  0  0  0  0
   39.5490   21.6310   36.7160 F   0  0  0  0  0  0  0  0  0  0  0  0
   37.0710   26.5430   32.8860 C   0  0  0  0  0  0  0  0  0  0  0  0
   36.8160   25.1760   32.4530 N   0  0  0  0  0  0  0  0  0  0  0  0
   35.8300   24.7920   31.4920 C   0  0  0  0  0  0  0  0  0  0  0  0
   35.1620   25.8320   31.1420 N   0  0  0  0  0  0  0  0  0  0  0  0
   35.8280   23.3930   31.1500 N   0  0  0  0  0  0  0  0  0  0  0  0
   34.4010   25.7290   30.4480 H   0  0  0  0  0  0  0  0  0  0  0  0
   37.0980   26.1214   37.1002 H   0  0  0  0  0  0  0  0  0  0  0  0
   41.5382   26.2335   33.6015 H   0  0  0  0  0  0  0  0  0  0  0  0
   40.9556   25.2390   32.2477 H   0  0  0  0  0  0  0  0  0  0  0  0
   40.9146   28.2848   32.4400 H   0  0  0  0  0  0  0  0  0  0  0  0
   42.0012   27.2408   31.3996 H   0  0  0  0  0  0  0  0  0  0  0  0
   40.3714   26.7429   29.9310 H   0  0  0  0  0  0  0  0  0  0  0  0
   39.9723   28.4693   30.4105 H   0  0  0  0  0  0  0  0  0  0  0  0
   37.9171   27.7373   30.6610 H   0  0  0  0  0  0  0  0  0  0  0  0
   38.4283   26.0092   30.7085 H   0  0  0  0  0  0  0  0  0  0  0  0
   38.6062   28.0268   32.9823 H   0  0  0  0  0  0  0  0  0  0  0  0
   36.9049   26.6020   33.9718 H   0  0  0  0  0  0  0  0  0  0  0  0
   36.3853   27.1955   32.3256 H   0  0  0  0  0  0  0  0  0  0  0  0
   37.3896   24.4295   32.8709 H   0  0  0  0  0  0  0  0  0  0  0  0
   35.1493   23.0313   30.4648 H   0  0  0  0  0  0  0  0  0  0  0  0
   36.5053   22.7542   31.5906 H   0  0  0  0  0  0  0  0  0  0  0  0
  1 17  1  0
  1  2  2  0
  2 13  1  0
  3  2  1  0
  4  3  2  0
  5  6  2  0
  5  4  1  0
  6  1  1  0
  7  5  1  0
  8  7  1  0
  9  8  1  0
 10 11  1  0
 10  9  1  0
 11 12  1  0
 12 21  1  0
 12  7  1  0
 13 14  1  0
 13 16  1  0
 15 13  1  0
 17 20  1  0
 17 19  1  0
 18 17  1  0
 22 21  1  0
 23 22  1  0
 24 23  2  0
 25 23  1  0
 26 24  1  0
  3 27  1  0
  8 28  1  0
  8 29  1  0
  9 30  1  0
  9 31  1  0
 10 32  1  0
 10 33  1  0
 11 34  1  0
 11 35  1  0
 12 36  1  1
 21 37  1  0
 21 38  1  0
 22 39  1  0
 25 40  1  0
 25 41  1  0
M  ISO  8  27  14  28  13  29  13  30  13  31  13  32  13  33  13  34  13
M  ISO  4  35  13  36  13  37   8  38   8
M  END
>  <minimizedAffinity>  (1) 
-5.80135584

>  <minimizedRMSD>  (1) 
1.76529634

$$$$
