
     RDKit          3D

 49 51  0  0  1  0  0  0  0  0999 V2000
   38.0490   24.7090   34.4230 C   0  0  0  0  0  0  0  0  0  0  0  0
   37.9660   25.3680   35.6510 C   0  0  0  0  0  0  0  0  0  0  0  0
   37.7950   26.7450   35.6440 C   0  0  0  0  0  0  0  0  0  0  0  0
   37.7150   27.3870   34.4470 N   0  0  0  0  0  0  0  0  0  0  0  0
   37.7940   26.7480   33.2970 C   0  0  0  0  0  0  0  0  0  0  0  0
   37.9590   25.4240   33.2840 N   0  0  0  0  0  0  0  0  0  0  0  0
   37.6860   27.5100   32.1040 N   0  0  0  0  0  0  0  0  0  0  0  0
   38.3940   27.0580   30.9390 C   0  0  0  0  0  0  0  0  0  0  0  0
   38.5800   28.2700   30.0620 C   0  0  0  0  0  0  0  0  0  0  0  0
   37.3020   28.9180   29.6610 C   0  0  0  0  0  0  0  0  0  0  0  0
   36.2680   29.0030   30.7280 C   0  0  0  0  0  0  0  0  0  0  0  0
   36.8500   28.6710   32.0620 C   0  0  1  0  0  0  0  0  0  0  0  0
   38.0560   24.6460   36.9340 C   0  0  0  0  0  0  0  0  0  0  0  0
   39.2270   23.9730   36.9650 F   0  0  0  0  0  0  0  0  0  0  0  0
   37.0360   23.7520   37.1470 F   0  0  0  0  0  0  0  0  0  0  0  0
   38.1110   25.5510   38.0030 F   0  0  0  0  0  0  0  0  0  0  0  0
   38.2410   23.2530   34.1950 C   0  0  0  0  0  0  0  0  0  0  0  0
   38.0280   22.9190   32.8640 F   0  0  0  0  0  0  0  0  0  0  0  0
   39.5200   22.8640   34.5680 F   0  0  0  0  0  0  0  0  0  0  0  0
   37.4350   22.4670   34.9480 F   0  0  0  0  0  0  0  0  0  0  0  0
   35.7810   28.7140   33.0780 C   0  0  0  0  0  0  0  0  0  0  0  0
   35.4880   29.6790   34.0000 N   0  0  0  0  0  0  0  0  0  0  0  0
   35.5360   31.0570   33.5670 C   0  0  0  0  0  0  0  0  0  0  0  0
   34.4450   31.4240   32.6100 C   0  0  0  0  0  0  0  0  0  0  0  0
   33.0980   30.8810   32.9830 C   0  0  0  0  0  0  0  0  0  0  0  0
   33.0940   29.5360   33.6110 C   0  0  0  0  0  0  0  0  0  0  0  0
   34.1960   29.3850   34.6070 C   0  0  0  0  0  0  0  0  0  0  0  0
   37.7255   27.3064   36.5874 H   0  0  0  0  0  0  0  0  0  0  0  0
   39.3709   26.6407   31.2247 H   0  0  0  0  0  0  0  0  0  0  0  0
   37.8386   26.2661   30.4151 H   0  0  0  0  0  0  0  0  0  0  0  0
   39.1859   29.0062   30.6105 H   0  0  0  0  0  0  0  0  0  0  0  0
   39.0711   27.9276   29.1392 H   0  0  0  0  0  0  0  0  0  0  0  0
   37.5302   29.9409   29.3271 H   0  0  0  0  0  0  0  0  0  0  0  0
   36.8732   28.2815   28.8730 H   0  0  0  0  0  0  0  0  0  0  0  0
   35.8629   30.0253   30.7562 H   0  0  0  0  0  0  0  0  0  0  0  0
   35.4705   28.2796   30.5028 H   0  0  0  0  0  0  0  0  0  0  0  0
   37.5877   29.4495   32.3064 H   0  0  0  0  0  0  0  0  0  0  0  0
   34.8531   28.6059   32.4972 H   0  0  0  0  0  0  0  0  0  0  0  0
   36.2074   27.9738   33.7710 H   0  0  0  0  0  0  0  0  0  0  0  0
   35.4526   31.7029   34.4535 H   0  0  0  0  0  0  0  0  0  0  0  0
   36.4897   31.1948   33.0364 H   0  0  0  0  0  0  0  0  0  0  0  0
   34.7115   31.0352   31.6161 H   0  0  0  0  0  0  0  0  0  0  0  0
   34.3619   32.5207   32.6277 H   0  0  0  0  0  0  0  0  0  0  0  0
   32.6346   31.5848   33.6901 H   0  0  0  0  0  0  0  0  0  0  0  0
   32.5486   30.7700   32.0365 H   0  0  0  0  0  0  0  0  0  0  0  0
   32.1308   29.3838   34.1201 H   0  0  0  0  0  0  0  0  0  0  0  0
   33.2452   28.7885   32.8183 H   0  0  0  0  0  0  0  0  0  0  0  0
   34.2018   28.3517   34.9841 H   0  0  0  0  0  0  0  0  0  0  0  0
   34.0250   30.0932   35.4311 H   0  0  0  0  0  0  0  0  0  0  0  0
  1  2  2  0
  2 13  1  0
  3  2  1  0
  4  3  2  0
  5  4  1  0
  6  5  2  0
  6  1  1  0
  7  5  1  0
  8  7  1  0
  9  8  1  0
 10  9  1  0
 10 11  1  0
 11 12  1  0
 12  7  1  0
 12 21  1  0
 13 14  1  0
 13 15  1  0
 13 16  1  0
 17  1  1  0
 17 19  1  0
 17 20  1  0
 18 17  1  0
 21 22  1  0
 22 27  1  0
 23 22  1  0
 24 25  1  0
 24 23  1  0
 25 26  1  0
 26 27  1  0
  3 28  1  0
  8 29  1  0
  8 30  1  0
  9 31  1  0
  9 32  1  0
 10 33  1  0
 10 34  1  0
 11 35  1  0
 11 36  1  0
 12 37  1  1
 21 38  1  0
 21 39  1  0
 23 40  1  0
 23 41  1  0
 24 42  1  0
 24 43  1  0
 25 44  1  0
 25 45  1  0
 26 46  1  0
 26 47  1  0
 27 48  1  0
 27 49  1  0
M  ISO  8  28  14  29  13  30  13  31  13  32  13  33  13  34  13  35  13
M  ISO  8  36  13  37  13  38   8  39   8  40  13  41  13  42  13  43  13
M  ISO  6  44  13  45  13  46  13  47  13  48  13  49  13
M  END
>  <minimizedAffinity>  (1) 
-5.49752474

>  <minimizedRMSD>  (1) 
1.9627471

$$$$
