
     RDKit          3D

 41 43  0  0  1  0  0  0  0  0999 V2000
   38.1600   23.8180   35.6370 C   0  0  0  0  0  0  0  0  0  0  0  0
   38.1520   24.5480   36.8280 C   0  0  0  0  0  0  0  0  0  0  0  0
   38.0850   25.9440   36.7380 C   0  0  0  0  0  0  0  0  0  0  0  0
   38.0310   26.5150   35.5120 N   0  0  0  0  0  0  0  0  0  0  0  0
   38.0400   25.7990   34.3970 C   0  0  0  0  0  0  0  0  0  0  0  0
   38.1020   24.4750   34.4590 N   0  0  0  0  0  0  0  0  0  0  0  0
   37.9680   26.4790   33.1500 N   0  0  0  0  0  0  0  0  0  0  0  0
   38.5960   25.9040   32.0050 C   0  0  0  0  0  0  0  0  0  0  0  0
   38.8950   27.0290   31.0490 C   0  0  0  0  0  0  0  0  0  0  0  0
   37.7030   27.8110   30.6440 C   0  0  0  0  0  0  0  0  0  0  0  0
   36.6910   28.0430   31.7140 C   0  0  0  0  0  0  0  0  0  0  0  0
   37.2520   27.7260   33.0600 C   0  0  1  0  0  0  0  0  0  0  0  0
   38.2110   23.8960   38.1480 C   0  0  0  0  0  0  0  0  0  0  0  0
   39.4340   23.3410   38.2950 F   0  0  0  0  0  0  0  0  0  0  0  0
   37.2590   22.9250   38.3320 F   0  0  0  0  0  0  0  0  0  0  0  0
   38.1140   24.8560   39.1640 F   0  0  0  0  0  0  0  0  0  0  0  0
   38.2290   22.3400   35.4900 C   0  0  0  0  0  0  0  0  0  0  0  0
   38.3440   21.9690   34.1590 F   0  0  0  0  0  0  0  0  0  0  0  0
   39.3030   21.8280   36.2090 F   0  0  0  0  0  0  0  0  0  0  0  0
   37.1600   21.6850   36.0000 F   0  0  0  0  0  0  0  0  0  0  0  0
   36.1780   27.8850   34.0950 C   0  0  0  0  0  0  0  0  0  0  0  0
   35.4320   29.1510   33.8240 N   0  0  0  0  0  0  0  0  0  0  0  0
   35.7420   30.3680   34.2970 C   0  0  0  0  0  0  0  0  0  0  0  0
   34.8200   31.2620   33.8230 C   0  0  0  0  0  0  0  0  0  0  0  0
   33.9610   30.5720   33.0670 N   0  0  0  0  0  0  0  0  0  0  0  0
   34.3220   29.2800   33.0580 C   0  0  0  0  0  0  0  0  0  0  0  0
   38.0764   26.5645   37.6462 H   0  0  0  0  0  0  0  0  0  0  0  0
   39.5292   25.4016   32.2995 H   0  0  0  0  0  0  0  0  0  0  0  0
   37.9410   25.1557   31.5349 H   0  0  0  0  0  0  0  0  0  0  0  0
   39.6089   27.7124   31.5320 H   0  0  0  0  0  0  0  0  0  0  0  0
   39.2991   26.5698   30.1348 H   0  0  0  0  0  0  0  0  0  0  0  0
   38.0477   28.7922   30.2856 H   0  0  0  0  0  0  0  0  0  0  0  0
   37.1957   27.2099   29.8751 H   0  0  0  0  0  0  0  0  0  0  0  0
   36.3811   29.0982   31.6931 H   0  0  0  0  0  0  0  0  0  0  0  0
   35.8296   27.3841   31.5298 H   0  0  0  0  0  0  0  0  0  0  0  0
   38.0482   28.4581   33.2601 H   0  0  0  0  0  0  0  0  0  0  0  0
   35.4869   27.0307   34.0450 H   0  0  0  0  0  0  0  0  0  0  0  0
   36.6281   27.9237   35.0979 H   0  0  0  0  0  0  0  0  0  0  0  0
   36.5918   30.6065   34.9535 H   0  0  0  0  0  0  0  0  0  0  0  0
   34.7917   32.3428   34.0259 H   0  0  0  0  0  0  0  0  0  0  0  0
   33.8074   28.4683   32.5229 H   0  0  0  0  0  0  0  0  0  0  0  0
  1  2  2  0
  2 13  1  0
  3  2  1  0
  4  3  2  0
  5  6  2  0
  5  4  1  0
  6  1  1  0
  7  5  1  0
  8  7  1  0
  9  8  1  0
 10  9  1  0
 10 11  1  0
 11 12  1  0
 12  7  1  0
 12 21  1  0
 13 14  1  0
 13 15  1  0
 13 16  1  0
 17  1  1  0
 17 20  1  0
 17 19  1  0
 18 17  1  0
 22 21  1  0
 22 23  1  0
 24 23  2  0
 25 24  1  0
 26 25  2  0
 26 22  1  0
  3 27  1  0
  8 28  1  0
  8 29  1  0
  9 30  1  0
  9 31  1  0
 10 32  1  0
 10 33  1  0
 11 34  1  0
 11 35  1  0
 12 36  1  1
 21 37  1  0
 21 38  1  0
 23 39  1  0
 24 40  1  0
 26 41  1  0
M  ISO  8  27  14  28  13  29  13  30  13  31  13  32  13  33  13  34  13
M  ISO  7  35  13  36  13  37   8  38   8  39  14  40  14  41  14
M  END
>  <minimizedAffinity>  (1) 
-5.91052294

>  <minimizedRMSD>  (1) 
0.443649322

$$$$
