
     RDKit          3D

 26 28  0  0  0  0  0  0  0  0999 V2000
   38.5500   23.0590   35.8990 C   0  0  0  0  0  0  0  0  0  0  0  0
   39.8470   22.4930   35.8450 C   0  0  0  0  0  0  0  0  0  0  0  0
   40.5430   22.3320   37.0460 C   0  0  0  0  0  0  0  0  0  0  0  0
   39.9280   22.7310   38.2060 N   0  0  0  0  0  0  0  0  0  0  0  0
   38.6950   23.2640   38.2100 C   0  0  0  0  0  0  0  0  0  0  0  0
   38.0260   23.4210   37.0660 N   0  0  0  0  0  0  0  0  0  0  0  0
   37.9990   23.1450   34.5870 N   0  0  0  0  0  0  0  0  0  0  0  0
   37.6260   22.1840   33.6920 C   0  0  0  0  0  0  0  0  0  0  0  0
   37.1560   22.7690   32.5770 N   0  0  0  0  0  0  0  0  0  0  0  0
   37.2350   24.1070   32.7760 C   0  0  0  0  0  0  0  0  0  0  0  0
   36.9010   25.1880   31.9890 C   0  0  0  0  0  0  0  0  0  0  0  0
   37.0790   26.4530   32.4230 N   0  0  0  0  0  0  0  0  0  0  0  0
   37.5960   26.6900   33.6550 C   0  0  0  0  0  0  0  0  0  0  0  0
   37.9130   25.6130   34.4020 N   0  0  0  0  0  0  0  0  0  0  0  0
   37.7540   24.3420   34.0140 C   0  0  0  0  0  0  0  0  0  0  0  0
   36.3560   25.0150   30.6910 N   0  0  0  0  0  0  0  0  0  0  0  0
   41.9190   21.7380   37.0500 C   0  0  0  0  0  0  0  0  0  0  0  0
   40.2931   22.1892   34.8865 H   0  0  0  0  0  0  0  0  0  0  0  0
   38.2348   23.5724   39.1603 H   0  0  0  0  0  0  0  0  0  0  0  0
   37.6988   21.0990   33.8577 H   0  0  0  0  0  0  0  0  0  0  0  0
   37.7495   27.7136   34.0273 H   0  0  0  0  0  0  0  0  0  0  0  0
   36.2029   24.0668   30.3189 H   0  0  0  0  0  0  0  0  0  0  0  0
   36.1133   25.8375   30.1205 H   0  0  0  0  0  0  0  0  0  0  0  0
   42.2531   21.5938   38.0881 H   0  0  0  0  0  0  0  0  0  0  0  0
   41.9009   20.7675   36.5324 H   0  0  0  0  0  0  0  0  0  0  0  0
   42.6129   22.4167   36.5324 H   0  0  0  0  0  0  0  0  0  0  0  0
  1  6  1  0
  2  1  2  0
  2  3  1  0
  3 17  1  0
  3  4  2  0
  4  5  1  0
  6  5  2  0
  7  1  1  0
  8  7  1  0
  9 10  1  0
  9  8  2  0
 10 15  2  0
 11 12  2  0
 11 10  1  0
 12 13  1  0
 13 14  2  0
 15 14  1  0
 15  7  1  0
 16 11  1  0
  2 18  1  0
  5 19  1  0
  8 20  1  0
 13 21  1  0
 16 22  1  0
 16 23  1  0
 17 24  1  0
 17 25  1  0
 17 26  1  0
M  ISO  7  18  14  19  14  20  14  21  14  24   8  25   8  26   8
M  END
>  <minimizedAffinity>  (1) 
-4.58958483

>  <minimizedRMSD>  (1) 
7.7218008

$$$$
