
     RDKit          3D

 25 25  0  0  0  0  0  0  0  0999 V2000
   38.5110   25.2030   35.2210 C   0  0  0  0  0  0  0  0  0  0  0  0
   38.3390   24.9880   36.5910 C   0  0  0  0  0  0  0  0  0  0  0  0
   38.0270   23.6970   37.0190 C   0  0  0  0  0  0  0  0  0  0  0  0
   37.9040   22.7160   36.0830 N   0  0  0  0  0  0  0  0  0  0  0  0
   38.0760   22.9560   34.7600 C   0  0  0  0  0  0  0  0  0  0  0  0
   38.3750   24.1880   34.3450 N   0  0  0  0  0  0  0  0  0  0  0  0
   37.8320   23.4080   38.4830 C   0  0  0  0  0  0  0  0  0  0  0  0
   38.8400   26.5620   34.7670 C   0  0  0  0  0  0  0  0  0  0  0  0
   38.2090   27.5390   35.7520 C   0  0  0  0  0  0  0  0  0  0  0  0
   40.3260   26.8230   34.7260 C   0  0  0  0  0  0  0  0  0  0  0  0
   38.2660   26.8350   33.4050 C   0  0  0  0  0  0  0  0  0  0  0  0
   38.4464   25.8125   37.3112 H   0  0  0  0  0  0  0  0  0  0  0  0
   37.9695   22.1384   34.0318 H   0  0  0  0  0  0  0  0  0  0  0  0
   38.3488   24.1739   39.0799 H   0  0  0  0  0  0  0  0  0  0  0  0
   36.7578   23.4218   38.7196 H   0  0  0  0  0  0  0  0  0  0  0  0
   38.2469   22.4171   38.7196 H   0  0  0  0  0  0  0  0  0  0  0  0
   38.4208   27.2110   36.7804 H   0  0  0  0  0  0  0  0  0  0  0  0
   38.6298   28.5428   35.5933 H   0  0  0  0  0  0  0  0  0  0  0  0
   37.1209   27.5683   35.5933 H   0  0  0  0  0  0  0  0  0  0  0  0
   40.7147   26.8913   35.7527 H   0  0  0  0  0  0  0  0  0  0  0  0
   40.8285   25.9994   34.1977 H   0  0  0  0  0  0  0  0  0  0  0  0
   40.5178   27.7686   34.1977 H   0  0  0  0  0  0  0  0  0  0  0  0
   37.2773   27.3052   33.5113 H   0  0  0  0  0  0  0  0  0  0  0  0
   38.9361   27.5109   32.8534 H   0  0  0  0  0  0  0  0  0  0  0  0
   38.1646   25.8887   32.8534 H   0  0  0  0  0  0  0  0  0  0  0  0
  1  2  2  0
  2  3  1  0
  3  7  1  0
  4  3  2  0
  5  4  1  0
  6  5  2  0
  6  1  1  0
  8  1  1  0
  8  9  1  0
 10  8  1  0
 11  8  1  0
  2 12  1  0
  5 13  1  0
  7 14  1  0
  7 15  1  0
  7 16  1  0
  9 17  1  0
  9 18  1  0
  9 19  1  0
 10 20  1  0
 10 21  1  0
 10 22  1  0
 11 23  1  0
 11 24  1  0
 11 25  1  0
M  ISO  8  12  14  13  14  14   8  15   8  16   8  17   8  18   8  19   8
M  ISO  6  20   8  21   8  22   8  23   8  24   8  25   8
M  END
>  <minimizedAffinity>  (1) 
-3.82277751

>  <minimizedRMSD>  (1) 
4.81782532

$$$$
