
     RDKit          3D

 24 26  0  0  0  0  0  0  0  0999 V2000
   37.5400   22.4760   34.1520 C   0  0  0  0  0  0  0  0  0  0  0  0
   36.7770   21.3020   34.0860 C   0  0  0  0  0  0  0  0  0  0  0  0
   36.0690   21.0340   32.9040 C   0  0  0  0  0  0  0  0  0  0  0  0
   36.1670   21.9440   31.8790 N   0  0  0  0  0  0  0  0  0  0  0  0
   36.9110   23.0560   31.9860 C   0  0  0  0  0  0  0  0  0  0  0  0
   37.5880   23.3180   33.1100 N   0  0  0  0  0  0  0  0  0  0  0  0
   38.2070   22.6290   35.3990 N   0  0  0  0  0  0  0  0  0  0  0  0
   37.6310   23.0870   36.5260 C   0  0  0  0  0  0  0  0  0  0  0  0
   38.4800   23.1350   37.5620 N   0  0  0  0  0  0  0  0  0  0  0  0
   39.6580   22.6930   37.1090 C   0  0  0  0  0  0  0  0  0  0  0  0
   40.9220   22.4860   37.6130 C   0  0  0  0  0  0  0  0  0  0  0  0
   41.9640   22.0120   36.9020 N   0  0  0  0  0  0  0  0  0  0  0  0
   41.7330   21.7260   35.5970 C   0  0  0  0  0  0  0  0  0  0  0  0
   40.5050   21.9060   35.0290 N   0  0  0  0  0  0  0  0  0  0  0  0
   39.4750   22.3860   35.7760 C   0  0  0  0  0  0  0  0  0  0  0  0
   35.2300   19.8020   32.7500 C   0  0  0  0  0  0  0  0  0  0  0  0
   36.7342   20.6084   34.9387 H   0  0  0  0  0  0  0  0  0  0  0  0
   36.9647   23.7588   31.1415 H   0  0  0  0  0  0  0  0  0  0  0  0
   36.5754   23.3898   36.5900 H   0  0  0  0  0  0  0  0  0  0  0  0
   41.0940   22.7248   38.6729 H   0  0  0  0  0  0  0  0  0  0  0  0
   42.5570   21.3387   34.9797 H   0  0  0  0  0  0  0  0  0  0  0  0
   34.9647   19.4124   33.7439 H   0  0  0  0  0  0  0  0  0  0  0  0
   34.3123   20.0501   32.1965 H   0  0  0  0  0  0  0  0  0  0  0  0
   35.7971   19.0390   32.1965 H   0  0  0  0  0  0  0  0  0  0  0  0
  1  7  1  0
  2  1  2  0
  3  2  1  0
  4  5  1  0
  4  3  2  0
  5  6  2  0
  6  1  1  0
  7 15  1  0
  7  8  1  0
  8  9  2  0
 10  9  1  0
 10 11  2  0
 12 11  1  0
 13 12  2  0
 14 13  1  0
 14 15  2  0
 15 10  1  0
 16  3  1  0
  2 17  1  0
  5 18  1  0
  8 19  1  0
 11 20  1  0
 13 21  1  0
 16 22  1  0
 16 23  1  0
 16 24  1  0
M  ISO  8  17  14  18  14  19  14  20  14  21  14  22   8  23   8  24   8
M  END
>  <minimizedAffinity>  (1) 
-4.02801275

>  <minimizedRMSD>  (1) 
4.94765043

$$$$
