
     RDKit          3D

 20 21  0  0  0  0  0  0  0  0999 V2000
   38.0700   24.9120   35.1490 C   0  0  0  0  0  0  0  0  0  0  0  0
   37.5380   26.1840   35.3570 C   0  0  0  0  0  0  0  0  0  0  0  0
   37.0480   26.8790   34.2540 C   0  0  0  0  0  0  0  0  0  0  0  0
   37.1240   26.2660   33.0460 N   0  0  0  0  0  0  0  0  0  0  0  0
   37.6390   25.0450   32.8740 C   0  0  0  0  0  0  0  0  0  0  0  0
   38.1160   24.3690   33.9400 N   0  0  0  0  0  0  0  0  0  0  0  0
   38.5750   24.2060   36.3090 C   0  0  0  0  0  0  0  0  0  0  0  0
   39.6040   23.3580   36.4530 C   0  0  0  0  0  0  0  0  0  0  0  0
   39.9170   22.7930   37.6500 C   0  0  0  0  0  0  0  0  0  0  0  0
   39.0010   23.2290   38.7200 C   0  0  0  0  0  0  0  0  0  0  0  0
   37.8670   24.3410   37.8930 S   0  0  0  0  0  0  0  0  0  0  0  0
   36.4600   28.2590   34.4150 C   0  0  0  0  0  0  0  0  0  0  0  0
   37.5062   26.6260   36.3638 H   0  0  0  0  0  0  0  0  0  0  0  0
   37.6738   24.5944   31.8711 H   0  0  0  0  0  0  0  0  0  0  0  0
   40.2158   23.1109   35.5729 H   0  0  0  0  0  0  0  0  0  0  0  0
   40.7532   22.0946   37.8016 H   0  0  0  0  0  0  0  0  0  0  0  0
   39.0118   22.9384   39.7809 H   0  0  0  0  0  0  0  0  0  0  0  0
   36.3605   28.4926   35.4853 H   0  0  0  0  0  0  0  0  0  0  0  0
   37.1217   28.9974   33.9385 H   0  0  0  0  0  0  0  0  0  0  0  0
   35.4691   28.2932   33.9385 H   0  0  0  0  0  0  0  0  0  0  0  0
  1  2  2  0
  1  7  1  0
  3 12  1  0
  3  2  1  0
  4  3  2  0
  5  4  1  0
  5  6  2  0
  6  1  1  0
  7  8  2  0
  7 11  1  0
  8  9  1  0
  9 10  2  0
 11 10  1  0
  2 13  1  0
  5 14  1  0
  8 15  1  0
  9 16  1  0
 10 17  1  0
 12 18  1  0
 12 19  1  0
 12 20  1  0
M  ISO  8  13  14  14  14  15  14  16  14  17  14  18   8  19   8  20   8
M  END
>  <minimizedAffinity>  (1) 
-3.74480391

>  <minimizedRMSD>  (1) 
4.80804396

$$$$
