
     RDKit          3D

 20 21  0  0  0  0  0  0  0  0999 V2000
   37.7780   22.3350   36.0760 C   0  0  0  0  0  0  0  0  0  0  0  0
   39.1660   22.1680   36.0440 C   0  0  0  0  0  0  0  0  0  0  0  0
   39.9100   22.6460   37.1430 C   0  0  0  0  0  0  0  0  0  0  0  0
   39.2220   23.2350   38.1520 N   0  0  0  0  0  0  0  0  0  0  0  0
   37.8890   23.3780   38.1490 C   0  0  0  0  0  0  0  0  0  0  0  0
   37.1760   22.9250   37.1060 N   0  0  0  0  0  0  0  0  0  0  0  0
   37.1830   21.7950   34.8900 N   0  0  0  0  0  0  0  0  0  0  0  0
   36.0830   21.0320   35.1590 C   0  0  0  0  0  0  0  0  0  0  0  0
   35.5780   20.5560   33.9720 C   0  0  0  0  0  0  0  0  0  0  0  0
   36.3910   21.0450   32.9960 N   0  0  0  0  0  0  0  0  0  0  0  0
   37.3660   21.7980   33.5650 C   0  0  0  0  0  0  0  0  0  0  0  0
   41.3990   22.4960   37.1660 C   0  0  0  0  0  0  0  0  0  0  0  0
   39.6607   21.6806   35.1910 H   0  0  0  0  0  0  0  0  0  0  0  0
   37.3827   23.8637   38.9962 H   0  0  0  0  0  0  0  0  0  0  0  0
   35.6698   20.8316   36.1586 H   0  0  0  0  0  0  0  0  0  0  0  0
   34.6967   19.9115   33.8384 H   0  0  0  0  0  0  0  0  0  0  0  0
   38.1703   22.3219   33.0278 H   0  0  0  0  0  0  0  0  0  0  0  0
   41.7479   22.4609   38.2086 H   0  0  0  0  0  0  0  0  0  0  0  0
   41.6817   21.5648   36.6532 H   0  0  0  0  0  0  0  0  0  0  0  0
   41.8617   23.3521   36.6532 H   0  0  0  0  0  0  0  0  0  0  0  0
  1  6  1  0
  2  1  2  0
  2  3  1  0
  3 12  1  0
  3  4  2  0
  5  4  1  0
  6  5  2  0
  7  8  1  0
  7  1  1  0
  9  8  2  0
 10 11  2  0
 10  9  1  0
 11  7  1  0
  2 13  1  0
  5 14  1  0
  8 15  1  0
  9 16  1  0
 11 17  1  0
 12 18  1  0
 12 19  1  0
 12 20  1  0
M  ISO  8  13  14  14  14  15  14  16  14  17  14  18   8  19   8  20   8
M  END
>  <minimizedAffinity>  (1) 
-3.74638081

>  <minimizedRMSD>  (1) 
5.42566156

$$$$
