
     RDKit          3D

 28 29  0  0  0  0  0  0  0  0999 V2000
   38.1170   22.1730   34.5130 C   0  0  0  0  0  0  0  0  0  0  0  0
   37.8020   22.6340   35.7930 C   0  0  0  0  0  0  0  0  0  0  0  0
   38.8340   22.8690   36.6970 C   0  0  0  0  0  0  0  0  0  0  0  0
   40.1140   22.6260   36.2580 N   0  0  0  0  0  0  0  0  0  0  0  0
   40.3800   22.1850   35.0240 C   0  0  0  0  0  0  0  0  0  0  0  0
   39.3830   21.9570   34.1460 N   0  0  0  0  0  0  0  0  0  0  0  0
   37.0530   21.9360   33.5990 N   0  0  0  0  0  0  0  0  0  0  0  0
   36.0830   20.9000   33.8800 C   0  0  0  0  0  0  0  0  0  0  0  0
   35.1190   20.7530   32.7460 C   0  0  0  0  0  0  0  0  0  0  0  0
   35.7640   20.7150   31.3850 C   0  0  0  0  0  0  0  0  0  0  0  0
   36.7380   21.8420   31.1690 C   0  0  0  0  0  0  0  0  0  0  0  0
   36.9120   22.7040   32.3950 C   0  0  0  0  0  0  0  0  0  0  0  0
   38.5760   23.3620   38.0840 C   0  0  0  0  0  0  0  0  0  0  0  0
   36.7552   22.8086   36.0822 H   0  0  0  0  0  0  0  0  0  0  0  0
   41.4227   22.0065   34.7224 H   0  0  0  0  0  0  0  0  0  0  0  0
   36.6085   19.9458   34.0325 H   0  0  0  0  0  0  0  0  0  0  0  0
   35.5229   21.1777   34.7851 H   0  0  0  0  0  0  0  0  0  0  0  0
   34.5597   19.8166   32.8885 H   0  0  0  0  0  0  0  0  0  0  0  0
   34.4734   21.6434   32.7639 H   0  0  0  0  0  0  0  0  0  0  0  0
   36.3009   19.7610   31.2771 H   0  0  0  0  0  0  0  0  0  0  0  0
   34.9646   20.8204   30.6368 H   0  0  0  0  0  0  0  0  0  0  0  0
   37.7149   21.4157   30.8970 H   0  0  0  0  0  0  0  0  0  0  0  0
   36.3356   22.4801   30.3685 H   0  0  0  0  0  0  0  0  0  0  0  0
   37.8124   23.3223   32.2650 H   0  0  0  0  0  0  0  0  0  0  0  0
   36.0061   23.3193   32.4987 H   0  0  0  0  0  0  0  0  0  0  0  0
   38.9590   22.6302   38.8104 H   0  0  0  0  0  0  0  0  0  0  0  0
   39.0853   24.3258   38.2312 H   0  0  0  0  0  0  0  0  0  0  0  0
   37.4938   23.4929   38.2312 H   0  0  0  0  0  0  0  0  0  0  0  0
  1  2  2  0
  2  3  1  0
  3 13  1  0
  4  3  2  0
  5  4  1  0
  6  1  1  0
  6  5  2  0
  7  8  1  0
  7  1  1  0
  9  8  1  0
 10  9  1  0
 11 10  1  0
 11 12  1  0
 12  7  1  0
  2 14  1  0
  5 15  1  0
  8 16  1  0
  8 17  1  0
  9 18  1  0
  9 19  1  0
 10 20  1  0
 10 21  1  0
 11 22  1  0
 11 23  1  0
 12 24  1  0
 12 25  1  0
 13 26  1  0
 13 27  1  0
 13 28  1  0
M  ISO  8  14  14  15  14  16  13  17  13  18  13  19  13  20  13  21  13
M  ISO  7  22  13  23  13  24  13  25  13  26   8  27   8  28   8
M  END
>  <minimizedAffinity>  (1) 
-3.74556637

>  <minimizedRMSD>  (1) 
6.31576586

$$$$
