
     RDKit          3D

 20 21  0  0  0  0  0  0  0  0999 V2000
   37.6440   22.2830   36.3000 C   0  0  0  0  0  0  0  0  0  0  0  0
   39.0170   22.0910   36.1010 C   0  0  0  0  0  0  0  0  0  0  0  0
   39.8900   22.6640   37.0540 C   0  0  0  0  0  0  0  0  0  0  0  0
   39.3420   23.3550   38.0870 N   0  0  0  0  0  0  0  0  0  0  0  0
   38.0130   23.5110   38.2330 C   0  0  0  0  0  0  0  0  0  0  0  0
   37.1690   22.9720   37.3350 N   0  0  0  0  0  0  0  0  0  0  0  0
   36.8970   21.6430   35.2520 N   0  0  0  0  0  0  0  0  0  0  0  0
   37.4000   21.8690   34.0500 N   0  0  0  0  0  0  0  0  0  0  0  0
   36.6750   21.2550   33.0980 C   0  0  0  0  0  0  0  0  0  0  0  0
   35.6440   20.5980   33.7670 C   0  0  0  0  0  0  0  0  0  0  0  0
   35.7940   20.8500   35.1250 C   0  0  0  0  0  0  0  0  0  0  0  0
   41.3720   22.4980   36.9020 C   0  0  0  0  0  0  0  0  0  0  0  0
   39.3989   21.5200   35.2418 H   0  0  0  0  0  0  0  0  0  0  0  0
   37.6169   24.0796   39.0873 H   0  0  0  0  0  0  0  0  0  0  0  0
   36.8583   21.2686   32.0135 H   0  0  0  0  0  0  0  0  0  0  0  0
   34.8537   19.9894   33.3033 H   0  0  0  0  0  0  0  0  0  0  0  0
   35.1503   20.4826   35.9378 H   0  0  0  0  0  0  0  0  0  0  0  0
   41.8390   22.4457   37.8966 H   0  0  0  0  0  0  0  0  0  0  0  0
   41.5823   21.5707   36.3489 H   0  0  0  0  0  0  0  0  0  0  0  0
   41.7822   23.3558   36.3489 H   0  0  0  0  0  0  0  0  0  0  0  0
  1  6  1  0
  2  1  2  0
  2  3  1  0
  3  4  2  0
  4  5  1  0
  6  5  2  0
  7  1  1  0
  8  7  1  0
  9 10  1  0
  9  8  2  0
 10 11  2  0
 11  7  1  0
 12  3  1  0
  2 13  1  0
  5 14  1  0
  9 15  1  0
 10 16  1  0
 11 17  1  0
 12 18  1  0
 12 19  1  0
 12 20  1  0
M  ISO  8  13  14  14  14  15  14  16  14  17  14  18   8  19   8  20   8
M  END
>  <minimizedAffinity>  (1) 
-3.7588985

>  <minimizedRMSD>  (1) 
5.4857831

$$$$
