
     RDKit          3D

 25 26  0  0  0  0  0  0  0  0999 V2000
   37.8640   22.7240   34.8540 C   0  0  0  0  0  0  0  0  0  0  0  0
   37.0300   21.5950   34.8330 C   0  0  0  0  0  0  0  0  0  0  0  0
   36.4440   21.2260   33.6060 C   0  0  0  0  0  0  0  0  0  0  0  0
   36.7360   22.0020   32.5180 N   0  0  0  0  0  0  0  0  0  0  0  0
   37.5360   23.0720   32.5740 C   0  0  0  0  0  0  0  0  0  0  0  0
   38.1000   23.4310   33.7480 N   0  0  0  0  0  0  0  0  0  0  0  0
   38.4560   23.0980   36.0990 N   0  0  0  0  0  0  0  0  0  0  0  0
   39.8580   23.0350   36.4390 C   0  0  0  0  0  0  0  0  0  0  0  0
   39.9160   22.8350   37.9400 C   0  0  0  0  0  0  0  0  0  0  0  0
   38.6250   23.3940   38.4410 C   0  0  0  0  0  0  0  0  0  0  0  0
   37.7480   23.6100   37.2440 C   0  0  0  0  0  0  0  0  0  0  0  0
   35.5460   20.0380   33.5040 C   0  0  0  0  0  0  0  0  0  0  0  0
   36.8395   21.0151   35.7481 H   0  0  0  0  0  0  0  0  0  0  0  0
   37.7347   23.6592   31.6653 H   0  0  0  0  0  0  0  0  0  0  0  0
   40.3389   22.1914   35.9223 H   0  0  0  0  0  0  0  0  0  0  0  0
   40.3877   23.9495   36.1339 H   0  0  0  0  0  0  0  0  0  0  0  0
   39.9991   21.7663   38.1871 H   0  0  0  0  0  0  0  0  0  0  0  0
   40.7892   23.3261   38.3943 H   0  0  0  0  0  0  0  0  0  0  0  0
   38.1498   22.6847   39.1346 H   0  0  0  0  0  0  0  0  0  0  0  0
   38.7891   24.3369   38.9832 H   0  0  0  0  0  0  0  0  0  0  0  0
   37.5464   24.6834   37.1133 H   0  0  0  0  0  0  0  0  0  0  0  0
   36.7837   23.0957   37.3687 H   0  0  0  0  0  0  0  0  0  0  0  0
   35.2827   19.6896   34.5136 H   0  0  0  0  0  0  0  0  0  0  0  0
   34.6303   20.3160   32.9616 H   0  0  0  0  0  0  0  0  0  0  0  0
   36.0633   19.2329   32.9616 H   0  0  0  0  0  0  0  0  0  0  0  0
  1  7  1  0
  2  1  2  0
  3  2  1  0
  4  5  1  0
  4  3  2  0
  5  6  2  0
  6  1  1  0
  7  8  1  0
  7 11  1  0
  8  9  1  0
  9 10  1  0
 11 10  1  0
 12  3  1  0
  2 13  1  0
  5 14  1  0
  8 15  1  0
  8 16  1  0
  9 17  1  0
  9 18  1  0
 10 19  1  0
 10 20  1  0
 11 21  1  0
 11 22  1  0
 12 23  1  0
 12 24  1  0
 12 25  1  0
M  ISO  8  13  14  14  14  15  13  16  13  17  13  18  13  19  13  20  13
M  ISO  5  21  13  22  13  23   8  24   8  25   8
M  END
>  <minimizedAffinity>  (1) 
-3.72809672

>  <minimizedRMSD>  (1) 
4.76741934

$$$$
