
     RDKit          3D

 15 15  0  0  0  0  0  0  0  0999 V2000
   39.9870   22.1820   37.2060 C   0  0  0  0  0  0  0  0  0  0  0  0
   39.4330   23.0660   38.1570 C   0  0  0  0  0  0  0  0  0  0  0  0
   38.3870   23.9020   37.7700 C   0  0  0  0  0  0  0  0  0  0  0  0
   37.9550   23.8160   36.4730 N   0  0  0  0  0  0  0  0  0  0  0  0
   38.5020   22.9660   35.5920 C   0  0  0  0  0  0  0  0  0  0  0  0
   39.5160   22.1520   35.9630 N   0  0  0  0  0  0  0  0  0  0  0  0
   37.7620   24.8560   38.7320 C   0  0  0  0  0  0  0  0  0  0  0  0
   41.0440   21.3860   37.7290 N   0  0  0  0  0  0  0  0  0  0  0  0
   39.8203   23.0946   39.1862 H   0  0  0  0  0  0  0  0  0  0  0  0
   38.1231   22.9306   34.5599 H   0  0  0  0  0  0  0  0  0  0  0  0
   37.9748   24.5311   39.7611 H   0  0  0  0  0  0  0  0  0  0  0  0
   38.1765   25.8623   38.5720 H   0  0  0  0  0  0  0  0  0  0  0  0
   36.6739   24.8779   38.5720 H   0  0  0  0  0  0  0  0  0  0  0  0
   41.5232   20.7041   37.1238 H   0  0  0  0  0  0  0  0  0  0  0  0
   41.3300   21.4916   38.7129 H   0  0  0  0  0  0  0  0  0  0  0  0
  1  8  1  0
  1  2  2  0
  3  2  1  0
  3  7  1  0
  4  3  2  0
  5  6  2  0
  5  4  1  0
  6  1  1  0
  2  9  1  0
  5 10  1  0
  7 11  1  0
  7 12  1  0
  7 13  1  0
  8 14  1  0
  8 15  1  0
M  ISO  5   9  14  10  14  11   8  12   8  13   8
M  END
>  <minimizedAffinity>  (1) 
-3.29960585

>  <minimizedRMSD>  (1) 
0.673590422

$$$$
