
     RDKit          3D

 26 27  0  0  0  0  0  0  0  0999 V2000
   39.9380   22.2140   36.5090 C   0  0  0  0  0  0  0  0  0  0  0  0
   39.6650   23.0090   37.6240 C   0  0  0  0  0  0  0  0  0  0  0  0
   38.3770   23.5130   37.7830 C   0  0  0  0  0  0  0  0  0  0  0  0
   37.4520   23.1870   36.8180 N   0  0  0  0  0  0  0  0  0  0  0  0
   37.7520   22.4190   35.7610 C   0  0  0  0  0  0  0  0  0  0  0  0
   38.9930   21.9370   35.6120 N   0  0  0  0  0  0  0  0  0  0  0  0
   41.2560   21.7030   36.3540 N   0  0  0  0  0  0  0  0  0  0  0  0
   41.9140   21.7470   35.0680 C   0  0  0  0  0  0  0  0  0  0  0  0
   43.1800   20.9460   35.0740 C   0  0  0  0  0  0  0  0  0  0  0  0
   42.9110   19.7600   35.7500 O   0  0  0  0  0  0  0  0  0  0  0  0
   42.9280   20.0730   37.1090 C   0  0  0  0  0  0  0  0  0  0  0  0
   41.9490   21.1340   37.4950 C   0  0  0  0  0  0  0  0  0  0  0  0
   38.0010   24.3690   38.9430 C   0  0  0  0  0  0  0  0  0  0  0  0
   40.4506   23.2322   38.3608 H   0  0  0  0  0  0  0  0  0  0  0  0
   36.9783   22.1843   35.0152 H   0  0  0  0  0  0  0  0  0  0  0  0
   42.1532   22.7926   34.8240 H   0  0  0  0  0  0  0  0  0  0  0  0
   41.2354   21.3163   34.3170 H   0  0  0  0  0  0  0  0  0  0  0  0
   43.4942   20.7293   34.0423 H   0  0  0  0  0  0  0  0  0  0  0  0
   43.9921   21.5013   35.5660 H   0  0  0  0  0  0  0  0  0  0  0  0
   42.6938   19.1612   37.6780 H   0  0  0  0  0  0  0  0  0  0  0  0
   43.9308   20.4642   37.3355 H   0  0  0  0  0  0  0  0  0  0  0  0
   42.4898   21.9387   38.0146 H   0  0  0  0  0  0  0  0  0  0  0  0
   41.1923   20.6663   38.1420 H   0  0  0  0  0  0  0  0  0  0  0  0
   38.2332   23.8404   39.8793 H   0  0  0  0  0  0  0  0  0  0  0  0
   38.5684   25.3105   38.9031 H   0  0  0  0  0  0  0  0  0  0  0  0
   36.9238   24.5881   38.9031 H   0  0  0  0  0  0  0  0  0  0  0  0
  1  2  2  0
  2  3  1  0
  3 13  1  0
  4  3  2  0
  5  4  1  0
  6  5  2  0
  6  1  1  0
  7  1  1  0
  7 12  1  0
  8  9  1  0
  8  7  1  0
  9 10  1  0
 10 11  1  0
 11 12  1  0
  2 14  1  0
  5 15  1  0
  8 16  1  0
  8 17  1  0
  9 18  1  0
  9 19  1  0
 11 20  1  0
 11 21  1  0
 12 22  1  0
 12 23  1  0
 13 24  1  0
 13 25  1  0
 13 26  1  0
M  ISO  8  14  14  15  14  16  13  17  13  18  13  19  13  20  13  21  13
M  ISO  5  22  13  23  13  24   8  25   8  26   8
M  END
>  <minimizedAffinity>  (1) 
-3.63826728

>  <minimizedRMSD>  (1) 
1.5233773

$$$$
