
     RDKit          3D

 34 37  0  0  0  0  0  0  0  0999 V2000
   44.0010   23.0680   35.0670 C   0  0  0  0  0  0  0  0  0  0  0  0
   45.2400   23.3210   35.7350 N   0  0  0  0  0  0  0  0  0  0  0  0
   46.3680   22.6750   35.3870 C   0  0  0  0  0  0  0  0  0  0  0  0
   47.3850   23.1090   36.1830 N   0  0  0  0  0  0  0  0  0  0  0  0
   46.8670   24.0380   37.0330 C   0  0  0  0  0  0  0  0  0  0  0  0
   47.3900   24.8150   38.0490 C   0  0  0  0  0  0  0  0  0  0  0  0
   48.6130   24.6810   38.2890 O   0  0  0  0  0  0  0  0  0  0  0  0
   46.5920   25.6650   38.7240 N   0  0  0  0  0  0  0  0  0  0  0  0
   45.2710   25.7850   38.4360 C   0  0  0  0  0  0  0  0  0  0  0  0
   44.5410   26.7110   39.2180 N   0  0  0  0  0  0  0  0  0  0  0  0
   44.7470   25.0190   37.4340 N   0  0  0  0  0  0  0  0  0  0  0  0
   45.5270   24.1630   36.7460 C   0  0  0  0  0  0  0  0  0  0  0  0
   40.8680   22.4420   37.1060 C   0  0  0  0  0  0  0  0  0  0  0  0
   41.7790   23.0740   36.2420 C   0  0  0  0  0  0  0  0  0  0  0  0
   42.9970   22.4590   35.9660 C   0  0  0  0  0  0  0  0  0  0  0  0
   43.2490   21.2520   36.5590 N   0  0  0  0  0  0  0  0  0  0  0  0
   42.3560   20.6630   37.3870 C   0  0  0  0  0  0  0  0  0  0  0  0
   41.1660   21.2750   37.6500 N   0  0  0  0  0  0  0  0  0  0  0  0
   39.6050   23.1180   37.3690 C   0  0  0  0  0  0  0  0  0  0  0  0
   38.7760   23.6540   36.3990 C   0  0  0  0  0  0  0  0  0  0  0  0
   37.7190   24.1810   37.1030 C   0  0  0  0  0  0  0  0  0  0  0  0
   37.9290   23.9580   38.4400 C   0  0  0  0  0  0  0  0  0  0  0  0
   39.0720   23.3170   38.5520 O   0  0  0  0  0  0  0  0  0  0  0  0
   43.6035   24.0198   34.6849 H   0  0  0  0  0  0  0  0  0  0  0  0
   44.1965   22.3591   34.2489 H   0  0  0  0  0  0  0  0  0  0  0  0
   46.4547   21.9208   34.5910 H   0  0  0  0  0  0  0  0  0  0  0  0
   46.9949   26.2389   39.4785 H   0  0  0  0  0  0  0  0  0  0  0  0
   43.5343   26.8478   39.0481 H   0  0  0  0  0  0  0  0  0  0  0  0
   45.0162   27.2483   39.9571 H   0  0  0  0  0  0  0  0  0  0  0  0
   41.5319   24.0451   35.7883 H   0  0  0  0  0  0  0  0  0  0  0  0
   42.5894   19.6917   37.8475 H   0  0  0  0  0  0  0  0  0  0  0  0
   38.9285   23.6576   35.3096 H   0  0  0  0  0  0  0  0  0  0  0  0
   36.8501   24.6955   36.6668 H   0  0  0  0  0  0  0  0  0  0  0  0
   37.2656   24.2589   39.2643 H   0  0  0  0  0  0  0  0  0  0  0  0
  1  2  1  0
  1 15  1  0
  2 12  1  0
  3  2  1  0
  3  4  2  0
  4  5  1  0
  5  6  1  0
  6  7  2  0
  6  8  1  0
  9  8  1  0
  9 10  1  0
 11  9  2  0
 12  5  2  0
 12 11  1  0
 13 19  1  0
 13 18  1  0
 14 13  2  0
 15 14  1  0
 15 16  2  0
 16 17  1  0
 17 18  2  0
 19 23  1  0
 20 21  1  0
 20 19  2  0
 21 22  2  0
 22 23  1  0
  1 24  1  0
  1 25  1  0
  3 26  1  0
  8 27  1  0
 10 28  1  0
 10 29  1  0
 14 30  1  0
 17 31  1  0
 20 32  1  0
 21 33  1  0
 22 34  1  0
M  ISO  8  24   8  25   8  26  14  27   9  30  14  31  14  32  14  33  14
M  ISO  1  34  14
M  END
>  <minimizedAffinity>  (1) 
-5.60703754

>  <minimizedRMSD>  (1) 
1.50056601

$$$$
