
     RDKit          3D

 33 35  0  0  0  0  0  0  0  0999 V2000
   40.8560   22.5140   37.1010 C   0  0  0  0  0  0  0  0  0  0  0  0
   41.7600   23.2570   36.3220 C   0  0  0  0  0  0  0  0  0  0  0  0
   43.0170   22.6950   36.0420 C   0  0  0  0  0  0  0  0  0  0  0  0
   43.2880   21.4520   36.5450 N   0  0  0  0  0  0  0  0  0  0  0  0
   42.3850   20.7620   37.2960 C   0  0  0  0  0  0  0  0  0  0  0  0
   41.1920   21.3210   37.5500 N   0  0  0  0  0  0  0  0  0  0  0  0
   39.5690   23.1140   37.3830 C   0  0  0  0  0  0  0  0  0  0  0  0
   38.6710   23.5730   36.4380 C   0  0  0  0  0  0  0  0  0  0  0  0
   37.6060   24.0550   37.1370 C   0  0  0  0  0  0  0  0  0  0  0  0
   37.8720   23.8800   38.4900 C   0  0  0  0  0  0  0  0  0  0  0  0
   39.0550   23.3160   38.5820 O   0  0  0  0  0  0  0  0  0  0  0  0
   44.0100   23.4440   35.2190 C   0  0  0  0  0  0  0  0  0  0  0  0
   45.1390   23.6940   36.0930 N   0  0  0  0  0  0  0  0  0  0  0  0
   44.9200   24.6380   37.0520 C   0  0  0  0  0  0  0  0  0  0  0  0
   45.8940   24.9910   37.9640 C   0  0  0  0  0  0  0  0  0  0  0  0
   45.5920   26.0400   38.9980 C   0  0  0  0  0  0  0  0  0  0  0  0
   47.1180   24.3670   37.8940 C   0  0  0  0  0  0  0  0  0  0  0  0
   48.0300   24.6680   38.7130 O   0  0  0  0  0  0  0  0  0  0  0  0
   47.3070   23.4360   36.9340 N   0  0  0  0  0  0  0  0  0  0  0  0
   46.3450   23.1060   36.0550 C   0  0  0  0  0  0  0  0  0  0  0  0
   46.4830   22.2430   35.1450 O   0  0  0  0  0  0  0  0  0  0  0  0
   41.4902   24.2531   35.9413 H   0  0  0  0  0  0  0  0  0  0  0  0
   42.6297   19.7636   37.6875 H   0  0  0  0  0  0  0  0  0  0  0  0
   38.7917   23.5531   35.3448 H   0  0  0  0  0  0  0  0  0  0  0  0
   36.6977   24.5028   36.7075 H   0  0  0  0  0  0  0  0  0  0  0  0
   37.2154   24.1610   39.3266 H   0  0  0  0  0  0  0  0  0  0  0  0
   44.3220   22.8416   34.3531 H   0  0  0  0  0  0  0  0  0  0  0  0
   43.5866   24.3804   34.8267 H   0  0  0  0  0  0  0  0  0  0  0  0
   43.9387   25.1326   37.1003 H   0  0  0  0  0  0  0  0  0  0  0  0
   45.7157   25.6104   40.0031 H   0  0  0  0  0  0  0  0  0  0  0  0
   46.2828   26.8870   38.8737 H   0  0  0  0  0  0  0  0  0  0  0  0
   44.5566   26.3900   38.8737 H   0  0  0  0  0  0  0  0  0  0  0  0
   48.2197   22.9625   36.8733 H   0  0  0  0  0  0  0  0  0  0  0  0
  1  7  1  0
  1  6  1  0
  2  1  2  0
  3  2  1  0
  3  4  2  0
  4  5  1  0
  5  6  2  0
  7 11  1  0
  8  9  1  0
  8  7  2  0
  9 10  2  0
 10 11  1  0
 12  3  1  0
 12 13  1  0
 13 14  1  0
 14 15  2  0
 15 16  1  0
 17 15  1  0
 17 18  2  0
 19 17  1  0
 20 13  1  0
 20 19  1  0
 21 20  2  0
  2 22  1  0
  5 23  1  0
  8 24  1  0
  9 25  1  0
 10 26  1  0
 12 27  1  0
 12 28  1  0
 14 29  1  0
 16 30  1  0
 16 31  1  0
 16 32  1  0
 19 33  1  0
M  ISO  8  22  14  23  14  24  14  25  14  26  14  27   8  28   8  29  14
M  ISO  4  30   8  31   8  32   8  33   9
M  END
>  <minimizedAffinity>  (1) 
-5.35051441

>  <minimizedRMSD>  (1) 
1.21160293

$$$$
