
     RDKit          3D

 34 37  0  0  0  0  0  0  0  0999 V2000
   40.8430   22.4840   37.0810 C   0  0  0  0  0  0  0  0  0  0  0  0
   41.7680   23.1820   36.2960 C   0  0  0  0  0  0  0  0  0  0  0  0
   43.0120   22.5720   36.0330 C   0  0  0  0  0  0  0  0  0  0  0  0
   43.2320   21.3270   36.5660 N   0  0  0  0  0  0  0  0  0  0  0  0
   42.3220   20.6840   37.3170 C   0  0  0  0  0  0  0  0  0  0  0  0
   41.1320   21.2790   37.5640 N   0  0  0  0  0  0  0  0  0  0  0  0
   39.5650   23.1330   37.3470 C   0  0  0  0  0  0  0  0  0  0  0  0
   38.7400   23.6870   36.3850 C   0  0  0  0  0  0  0  0  0  0  0  0
   37.6670   24.1740   37.1040 C   0  0  0  0  0  0  0  0  0  0  0  0
   37.8700   23.9050   38.4510 C   0  0  0  0  0  0  0  0  0  0  0  0
   39.0180   23.2830   38.5380 O   0  0  0  0  0  0  0  0  0  0  0  0
   44.0280   23.2830   35.2010 C   0  0  0  0  0  0  0  0  0  0  0  0
   45.2740   23.5500   35.9300 C   0  0  0  0  0  0  0  0  0  0  0  0
   46.5230   22.9700   35.6800 C   0  0  0  0  0  0  0  0  0  0  0  0
   47.3540   23.4960   36.5730 N   0  0  0  0  0  0  0  0  0  0  0  0
   46.7130   24.3730   37.3770 C   0  0  0  0  0  0  0  0  0  0  0  0
   47.2340   25.1310   38.4320 C   0  0  0  0  0  0  0  0  0  0  0  0
   46.2740   25.9320   39.0340 C   0  0  0  0  0  0  0  0  0  0  0  0
   44.9390   26.0560   38.7250 C   0  0  0  0  0  0  0  0  0  0  0  0
   44.5080   25.2660   37.6620 C   0  0  0  0  0  0  0  0  0  0  0  0
   45.3940   24.4350   37.0000 C   0  0  0  0  0  0  0  0  0  0  0  0
   41.5312   24.1787   35.8953 H   0  0  0  0  0  0  0  0  0  0  0  0
   42.5416   19.6867   37.7258 H   0  0  0  0  0  0  0  0  0  0  0  0
   38.9016   23.7297   35.2978 H   0  0  0  0  0  0  0  0  0  0  0  0
   36.7938   24.6908   36.6792 H   0  0  0  0  0  0  0  0  0  0  0  0
   37.1976   24.1640   39.2821 H   0  0  0  0  0  0  0  0  0  0  0  0
   43.6024   24.2416   34.8696 H   0  0  0  0  0  0  0  0  0  0  0  0
   44.2751   22.6305   34.3505 H   0  0  0  0  0  0  0  0  0  0  0  0
   46.7666   22.2302   34.9032 H   0  0  0  0  0  0  0  0  0  0  0  0
   48.3554   23.2657   36.6434 H   0  0  0  0  0  0  0  0  0  0  0  0
   48.2869   25.0957   38.7486 H   0  0  0  0  0  0  0  0  0  0  0  0
   46.6281   26.5514   39.8712 H   0  0  0  0  0  0  0  0  0  0  0  0
   44.2638   26.7277   39.2754 H   0  0  0  0  0  0  0  0  0  0  0  0
   43.4549   25.3031   37.3464 H   0  0  0  0  0  0  0  0  0  0  0  0
  1  7  1  0
  1  6  1  0
  2  1  2  0
  3  2  1  0
  3  4  2  0
  4  5  1  0
  5  6  2  0
  7 11  1  0
  8  9  1  0
  8  7  2  0
  9 10  2  0
 10 11  1  0
 12 13  1  0
 12  3  1  0
 13 21  1  0
 14 13  2  0
 14 15  1  0
 15 16  1  0
 16 17  2  0
 17 18  1  0
 19 18  2  0
 20 19  1  0
 21 16  1  0
 21 20  2  0
  2 22  1  0
  5 23  1  0
  8 24  1  0
  9 25  1  0
 10 26  1  0
 12 27  1  0
 12 28  1  0
 14 29  1  0
 15 30  1  0
 17 31  1  0
 18 32  1  0
 19 33  1  0
 20 34  1  0
M  ISO  8  22  14  23  14  24  14  25  14  26  14  27   8  28   8  29  14
M  ISO  5  30   9  31  14  32  14  33  14  34  14
M  END
>  <minimizedAffinity>  (1) 
-5.82641649

>  <minimizedRMSD>  (1) 
4.05373001

$$$$
