
     RDKit          3D

 30 32  0  0  0  0  0  0  0  0999 V2000
   41.0070   22.4680   37.0530 C   0  0  0  0  0  0  0  0  0  0  0  0
   41.9530   23.3790   36.5750 C   0  0  0  0  0  0  0  0  0  0  0  0
   43.2430   22.8940   36.3160 C   0  0  0  0  0  0  0  0  0  0  0  0
   43.5000   21.5770   36.5440 N   0  0  0  0  0  0  0  0  0  0  0  0
   42.5450   20.7210   37.0120 C   0  0  0  0  0  0  0  0  0  0  0  0
   41.3070   21.1880   37.2590 N   0  0  0  0  0  0  0  0  0  0  0  0
   39.6560   22.9710   37.3240 C   0  0  0  0  0  0  0  0  0  0  0  0
   38.7380   23.3180   36.3210 C   0  0  0  0  0  0  0  0  0  0  0  0
   37.6230   23.7310   37.0010 C   0  0  0  0  0  0  0  0  0  0  0  0
   37.8800   23.6310   38.3590 C   0  0  0  0  0  0  0  0  0  0  0  0
   39.1110   23.1710   38.4860 O   0  0  0  0  0  0  0  0  0  0  0  0
   44.3050   23.7920   35.8100 C   0  0  0  0  0  0  0  0  0  0  0  0
   45.0780   24.4190   36.9070 C   0  0  0  0  0  0  0  0  0  0  0  0
   44.4370   25.3640   37.6840 C   0  0  0  0  0  0  0  0  0  0  0  0
   44.9830   26.0530   38.7440 C   0  0  0  0  0  0  0  0  0  0  0  0
   46.3160   25.7220   39.0100 C   0  0  0  0  0  0  0  0  0  0  0  0
   47.0020   24.7910   38.2730 C   0  0  0  0  0  0  0  0  0  0  0  0
   46.3820   24.1380   37.2200 C   0  0  0  0  0  0  0  0  0  0  0  0
   41.6956   24.4354   36.4084 H   0  0  0  0  0  0  0  0  0  0  0  0
   42.7846   19.6615   37.1853 H   0  0  0  0  0  0  0  0  0  0  0  0
   38.8818   23.2692   35.2315 H   0  0  0  0  0  0  0  0  0  0  0  0
   36.6845   24.0819   36.5470 H   0  0  0  0  0  0  0  0  0  0  0  0
   37.1894   23.8864   39.1762 H   0  0  0  0  0  0  0  0  0  0  0  0
   44.9928   23.2078   35.1810 H   0  0  0  0  0  0  0  0  0  0  0  0
   43.8217   24.5959   35.2354 H   0  0  0  0  0  0  0  0  0  0  0  0
   43.3899   25.5877   37.4319 H   0  0  0  0  0  0  0  0  0  0  0  0
   44.4216   26.7966   39.3288 H   0  0  0  0  0  0  0  0  0  0  0  0
   46.8323   26.2266   39.8400 H   0  0  0  0  0  0  0  0  0  0  0  0
   48.0493   24.5616   38.5190 H   0  0  0  0  0  0  0  0  0  0  0  0
   46.9382   23.3918   36.6336 H   0  0  0  0  0  0  0  0  0  0  0  0
  1  6  1  0
  1  7  1  0
  2  1  2  0
  3  4  2  0
  3  2  1  0
  4  5  1  0
  5  6  2  0
  7 11  1  0
  8  9  1  0
  8  7  2  0
  9 10  2  0
 10 11  1  0
 12  3  1  0
 12 13  1  0
 13 18  1  0
 13 14  2  0
 14 15  1  0
 15 16  2  0
 17 16  1  0
 18 17  2  0
  2 19  1  0
  5 20  1  0
  8 21  1  0
  9 22  1  0
 10 23  1  0
 12 24  1  0
 12 25  1  0
 14 26  1  0
 15 27  1  0
 16 28  1  0
 17 29  1  0
 18 30  1  0
M  ISO  8  19  14  20  14  21  14  22  14  23  14  24   8  25   8  26  14
M  ISO  4  27  14  28  14  29  14  30  14
M  END
>  <minimizedAffinity>  (1) 
-5.5907979

>  <minimizedRMSD>  (1) 
0.86146003

$$$$
