
     RDKit          3D

 33 36  0  0  0  0  0  0  0  0999 V2000
   40.8420   22.5040   37.0810 C   0  0  0  0  0  0  0  0  0  0  0  0
   41.7080   23.1980   36.2370 C   0  0  0  0  0  0  0  0  0  0  0  0
   42.9500   22.5960   35.9350 C   0  0  0  0  0  0  0  0  0  0  0  0
   43.2220   21.3810   36.4850 N   0  0  0  0  0  0  0  0  0  0  0  0
   42.3480   20.7330   37.3070 C   0  0  0  0  0  0  0  0  0  0  0  0
   41.1600   21.3090   37.5950 N   0  0  0  0  0  0  0  0  0  0  0  0
   39.5510   23.1300   37.3940 C   0  0  0  0  0  0  0  0  0  0  0  0
   38.6590   23.5990   36.4180 C   0  0  0  0  0  0  0  0  0  0  0  0
   37.6030   24.0970   37.1420 C   0  0  0  0  0  0  0  0  0  0  0  0
   37.8740   23.9220   38.4860 C   0  0  0  0  0  0  0  0  0  0  0  0
   39.0590   23.3350   38.5830 O   0  0  0  0  0  0  0  0  0  0  0  0
   43.9230   23.2790   35.0420 C   0  0  0  0  0  0  0  0  0  0  0  0
   45.1730   23.5310   35.7290 N   0  0  0  0  0  0  0  0  0  0  0  0
   46.3280   22.9820   35.3090 C   0  0  0  0  0  0  0  0  0  0  0  0
   47.3370   23.3860   36.1360 N   0  0  0  0  0  0  0  0  0  0  0  0
   46.8010   24.1920   37.0740 C   0  0  0  0  0  0  0  0  0  0  0  0
   47.4200   24.8470   38.1300 C   0  0  0  0  0  0  0  0  0  0  0  0
   46.5860   25.5900   38.8990 N   0  0  0  0  0  0  0  0  0  0  0  0
   45.2570   25.6520   38.6150 C   0  0  0  0  0  0  0  0  0  0  0  0
   44.6660   25.0080   37.5820 N   0  0  0  0  0  0  0  0  0  0  0  0
   45.4710   24.2690   36.8080 C   0  0  0  0  0  0  0  0  0  0  0  0
   48.8150   24.7250   38.3520 N   0  0  0  0  0  0  0  0  0  0  0  0
   41.4341   24.1789   35.8212 H   0  0  0  0  0  0  0  0  0  0  0  0
   42.6073   19.7518   37.7312 H   0  0  0  0  0  0  0  0  0  0  0  0
   38.7778   23.5738   35.3247 H   0  0  0  0  0  0  0  0  0  0  0  0
   36.6958   24.5569   36.7232 H   0  0  0  0  0  0  0  0  0  0  0  0
   37.2243   24.2164   39.3234 H   0  0  0  0  0  0  0  0  0  0  0  0
   43.4956   24.2369   34.7107 H   0  0  0  0  0  0  0  0  0  0  0  0
   44.1236   22.6264   34.1795 H   0  0  0  0  0  0  0  0  0  0  0  0
   46.4409   22.3161   34.4407 H   0  0  0  0  0  0  0  0  0  0  0  0
   44.6205   26.2665   39.2686 H   0  0  0  0  0  0  0  0  0  0  0  0
   49.2560   25.2188   39.1410 H   0  0  0  0  0  0  0  0  0  0  0  0
   49.3874   24.1426   37.7243 H   0  0  0  0  0  0  0  0  0  0  0  0
  1  7  1  0
  1  6  1  0
  2  1  2  0
  3  2  1  0
  3  4  2  0
  4  5  1  0
  5  6  2  0
  7 11  1  0
  8  9  1  0
  8  7  2  0
  9 10  2  0
 10 11  1  0
 12 13  1  0
 12  3  1  0
 13 21  1  0
 14 13  1  0
 14 15  2  0
 15 16  1  0
 16 17  2  0
 17 22  1  0
 17 18  1  0
 19 18  2  0
 20 19  1  0
 21 16  1  0
 21 20  2  0
  2 23  1  0
  5 24  1  0
  8 25  1  0
  9 26  1  0
 10 27  1  0
 12 28  1  0
 12 29  1  0
 14 30  1  0
 19 31  1  0
 22 32  1  0
 22 33  1  0
M  ISO  8  23  14  24  14  25  14  26  14  27  14  28   8  29   8  30  14
M  ISO  1  31  14
M  END
>  <minimizedAffinity>  (1) 
-5.07582998

>  <minimizedRMSD>  (1) 
1.40093267

$$$$
