
     RDKit          3D

 32 34  0  0  0  0  0  0  0  0999 V2000
   41.0300   22.4380   36.9880 C   0  0  0  0  0  0  0  0  0  0  0  0
   41.9470   23.4390   36.7090 C   0  0  0  0  0  0  0  0  0  0  0  0
   43.2740   23.1120   36.4240 C   0  0  0  0  0  0  0  0  0  0  0  0
   43.5950   21.7720   36.4400 N   0  0  0  0  0  0  0  0  0  0  0  0
   42.6700   20.8130   36.7180 C   0  0  0  0  0  0  0  0  0  0  0  0
   41.3960   21.1680   36.9880 N   0  0  0  0  0  0  0  0  0  0  0  0
   39.6610   22.8460   37.2780 C   0  0  0  0  0  0  0  0  0  0  0  0
   38.6240   22.8890   36.3610 C   0  0  0  0  0  0  0  0  0  0  0  0
   37.5310   23.3270   37.0740 C   0  0  0  0  0  0  0  0  0  0  0  0
   37.9200   23.5350   38.3750 C   0  0  0  0  0  0  0  0  0  0  0  0
   39.1980   23.2340   38.4500 O   0  0  0  0  0  0  0  0  0  0  0  0
   44.3000   24.1400   36.1230 C   0  0  0  0  0  0  0  0  0  0  0  0
   45.0630   24.3780   37.3040 N   0  0  0  0  0  0  0  0  0  0  0  0
   44.7380   25.5510   38.0330 C   0  0  0  0  0  0  0  0  0  0  0  0
   45.9460   25.9280   38.8580 C   0  0  0  0  0  0  0  0  0  0  0  0
   47.0940   25.1780   38.2260 C   0  0  0  0  0  0  0  0  0  0  0  0
   46.4910   24.3120   37.1510 C   0  0  0  0  0  0  0  0  0  0  0  0
   41.6290   24.4920   36.7121 H   0  0  0  0  0  0  0  0  0  0  0  0
   42.9598   19.7519   36.7226 H   0  0  0  0  0  0  0  0  0  0  0  0
   38.6650   22.6291   35.2929 H   0  0  0  0  0  0  0  0  0  0  0  0
   36.5195   23.4836   36.6711 H   0  0  0  0  0  0  0  0  0  0  0  0
   37.2823   23.8872   39.1992 H   0  0  0  0  0  0  0  0  0  0  0  0
   44.9609   23.7806   35.3205 H   0  0  0  0  0  0  0  0  0  0  0  0
   43.8152   25.0709   35.7938 H   0  0  0  0  0  0  0  0  0  0  0  0
   44.4891   26.3669   37.3385 H   0  0  0  0  0  0  0  0  0  0  0  0
   43.8682   25.3727   38.6823 H   0  0  0  0  0  0  0  0  0  0  0  0
   46.1214   27.0131   38.8148 H   0  0  0  0  0  0  0  0  0  0  0  0
   45.8188   25.6738   39.9207 H   0  0  0  0  0  0  0  0  0  0  0  0
   47.8147   25.8837   37.7872 H   0  0  0  0  0  0  0  0  0  0  0  0
   47.6354   24.5745   38.9694 H   0  0  0  0  0  0  0  0  0  0  0  0
   46.8349   23.2735   37.2664 H   0  0  0  0  0  0  0  0  0  0  0  0
   46.7936   24.6609   36.1526 H   0  0  0  0  0  0  0  0  0  0  0  0
  1  7  1  0
  2  1  2  0
  3  4  2  0
  3  2  1  0
  4  5  1  0
  5  6  2  0
  6  1  1  0
  7 11  1  0
  8  9  1  0
  8  7  2  0
  9 10  2  0
 10 11  1  0
 12  3  1  0
 12 13  1  0
 13 14  1  0
 14 15  1  0
 16 15  1  0
 17 13  1  0
 17 16  1  0
  2 18  1  0
  5 19  1  0
  8 20  1  0
  9 21  1  0
 10 22  1  0
 12 23  1  0
 12 24  1  0
 14 25  1  0
 14 26  1  0
 15 27  1  0
 15 28  1  0
 16 29  1  0
 16 30  1  0
 17 31  1  0
 17 32  1  0
M  ISO  8  18  14  19  14  20  14  21  14  22  14  23   8  24   8  25  13
M  ISO  7  26  13  27  13  28  13  29  13  30  13  31  13  32  13
M  END
>  <minimizedAffinity>  (1) 
-4.70131731

>  <minimizedRMSD>  (1) 
1.01695728

$$$$
