
     RDKit          3D

 27 29  0  0  0  0  0  0  0  0999 V2000
   41.0880   22.5650   37.0210 C   0  0  0  0  0  0  0  0  0  0  0  0
   41.9330   23.5910   36.6250 C   0  0  0  0  0  0  0  0  0  0  0  0
   43.2720   23.2920   36.3440 C   0  0  0  0  0  0  0  0  0  0  0  0
   43.6730   21.9910   36.4780 N   0  0  0  0  0  0  0  0  0  0  0  0
   42.8230   20.9980   36.8690 C   0  0  0  0  0  0  0  0  0  0  0  0
   41.5390   21.3150   37.1330 N   0  0  0  0  0  0  0  0  0  0  0  0
   39.7000   22.8860   37.3120 C   0  0  0  0  0  0  0  0  0  0  0  0
   38.6730   22.8520   36.3850 C   0  0  0  0  0  0  0  0  0  0  0  0
   37.5480   23.2180   37.0710 C   0  0  0  0  0  0  0  0  0  0  0  0
   37.9090   23.4650   38.3920 C   0  0  0  0  0  0  0  0  0  0  0  0
   39.1970   23.2480   38.4550 O   0  0  0  0  0  0  0  0  0  0  0  0
   44.2160   24.3550   35.9210 C   0  0  0  0  0  0  0  0  0  0  0  0
   44.9720   24.7750   37.1420 C   0  0  0  0  0  0  0  0  0  0  0  0
   44.6670   25.5850   38.2080 C   0  0  0  0  0  0  0  0  0  0  0  0
   45.7940   25.5700   39.0060 C   0  0  0  0  0  0  0  0  0  0  0  0
   46.7370   24.7960   38.4580 N   0  0  0  0  0  0  0  0  0  0  0  0
   46.2400   24.3230   37.3420 N   0  0  0  0  0  0  0  0  0  0  0  0
   41.5582   24.6211   36.5333 H   0  0  0  0  0  0  0  0  0  0  0  0
   43.1773   19.9612   36.9668 H   0  0  0  0  0  0  0  0  0  0  0  0
   38.7462   22.5864   35.3201 H   0  0  0  0  0  0  0  0  0  0  0  0
   36.5346   23.3024   36.6517 H   0  0  0  0  0  0  0  0  0  0  0  0
   37.2477   23.7780   39.2134 H   0  0  0  0  0  0  0  0  0  0  0  0
   44.9099   23.9647   35.1619 H   0  0  0  0  0  0  0  0  0  0  0  0
   43.6781   25.2063   35.4784 H   0  0  0  0  0  0  0  0  0  0  0  0
   43.7277   26.1285   38.3876 H   0  0  0  0  0  0  0  0  0  0  0  0
   45.9006   26.1157   39.9551 H   0  0  0  0  0  0  0  0  0  0  0  0
   47.6747   24.6078   38.8403 H   0  0  0  0  0  0  0  0  0  0  0  0
  1  6  1  0
  1  7  1  0
  2  1  2  0
  3  4  2  0
  3  2  1  0
  4  5  1  0
  5  6  2  0
  7 11  1  0
  8  9  1  0
  8  7  2  0
  9 10  2  0
 10 11  1  0
 12  3  1  0
 12 13  1  0
 13 17  2  0
 13 14  1  0
 14 15  2  0
 16 15  1  0
 17 16  1  0
  2 18  1  0
  5 19  1  0
  8 20  1  0
  9 21  1  0
 10 22  1  0
 12 23  1  0
 12 24  1  0
 14 25  1  0
 15 26  1  0
 16 27  1  0
M  ISO  8  18  14  19  14  20  14  21  14  22  14  23   8  24   8  25  14
M  ISO  2  26  14  27   9
M  END
>  <minimizedAffinity>  (1) 
-4.71623182

>  <minimizedRMSD>  (1) 
0.732397854

$$$$
