
     RDKit          3D

 35 37  0  0  0  0  0  0  0  0999 V2000
   41.0150   22.5730   37.0320 C   0  0  0  0  0  0  0  0  0  0  0  0
   41.9390   23.4570   36.4960 C   0  0  0  0  0  0  0  0  0  0  0  0
   43.2370   22.9980   36.2120 C   0  0  0  0  0  0  0  0  0  0  0  0
   43.5020   21.6750   36.4940 N   0  0  0  0  0  0  0  0  0  0  0  0
   42.5810   20.8450   37.0150 C   0  0  0  0  0  0  0  0  0  0  0  0
   41.3350   21.2990   37.2840 N   0  0  0  0  0  0  0  0  0  0  0  0
   39.6710   23.0620   37.3230 C   0  0  0  0  0  0  0  0  0  0  0  0
   38.7770   23.5200   36.3440 C   0  0  0  0  0  0  0  0  0  0  0  0
   37.6480   23.8800   37.0380 C   0  0  0  0  0  0  0  0  0  0  0  0
   37.8760   23.6420   38.3690 C   0  0  0  0  0  0  0  0  0  0  0  0
   39.0920   23.1570   38.4830 O   0  0  0  0  0  0  0  0  0  0  0  0
   44.2550   23.9090   35.6380 C   0  0  0  0  0  0  0  0  0  0  0  0
   44.3510   25.1260   36.3840 N   0  0  0  0  0  0  0  0  0  0  0  0
   44.8370   24.8770   37.7220 C   0  0  0  0  0  0  0  0  0  0  0  0
   45.9790   25.7750   38.1000 C   0  0  0  0  0  0  0  0  0  0  0  0
   47.0660   25.8550   37.0820 C   0  0  0  0  0  0  0  0  0  0  0  0
   46.5460   25.7870   35.6650 C   0  0  0  0  0  0  0  0  0  0  0  0
   45.0840   26.1770   35.7170 C   0  0  0  0  0  0  0  0  0  0  0  0
   41.6604   24.5022   36.2959 H   0  0  0  0  0  0  0  0  0  0  0  0
   42.8407   19.7965   37.2226 H   0  0  0  0  0  0  0  0  0  0  0  0
   38.9437   23.5781   35.2583 H   0  0  0  0  0  0  0  0  0  0  0  0
   36.7236   24.2875   36.6028 H   0  0  0  0  0  0  0  0  0  0  0  0
   37.1692   23.8240   39.1920 H   0  0  0  0  0  0  0  0  0  0  0  0
   45.2326   23.4049   35.6494 H   0  0  0  0  0  0  0  0  0  0  0  0
   43.9542   24.1579   34.6096 H   0  0  0  0  0  0  0  0  0  0  0  0
   44.0123   25.0387   38.4317 H   0  0  0  0  0  0  0  0  0  0  0  0
   45.2044   23.8407   37.7546 H   0  0  0  0  0  0  0  0  0  0  0  0
   45.5814   26.7883   38.2584 H   0  0  0  0  0  0  0  0  0  0  0  0
   46.4298   25.3434   39.0058 H   0  0  0  0  0  0  0  0  0  0  0  0
   47.6025   26.8061   37.2144 H   0  0  0  0  0  0  0  0  0  0  0  0
   47.7274   24.9894   37.2344 H   0  0  0  0  0  0  0  0  0  0  0  0
   46.6517   24.7653   35.2713 H   0  0  0  0  0  0  0  0  0  0  0  0
   47.1112   26.4607   35.0041 H   0  0  0  0  0  0  0  0  0  0  0  0
   44.9711   27.1188   36.2740 H   0  0  0  0  0  0  0  0  0  0  0  0
   44.6957   26.3178   34.6975 H   0  0  0  0  0  0  0  0  0  0  0  0
  1  6  1  0
  1  7  1  0
  2  1  2  0
  3  4  2  0
  3  2  1  0
  4  5  1  0
  5  6  2  0
  7 11  1  0
  8  9  1  0
  8  7  2  0
  9 10  2  0
 10 11  1  0
 12  3  1  0
 12 13  1  0
 13 14  1  0
 14 15  1  0
 16 15  1  0
 17 18  1  0
 17 16  1  0
 18 13  1  0
  2 19  1  0
  5 20  1  0
  8 21  1  0
  9 22  1  0
 10 23  1  0
 12 24  1  0
 12 25  1  0
 14 26  1  0
 14 27  1  0
 15 28  1  0
 15 29  1  0
 16 30  1  0
 16 31  1  0
 17 32  1  0
 17 33  1  0
 18 34  1  0
 18 35  1  0
M  ISO  8  19  14  20  14  21  14  22  14  23  14  24   8  25   8  26  13
M  ISO  8  27  13  28  13  29  13  30  13  31  13  32  13  33  13  34  13
M  ISO  1  35  13
M  END
>  <minimizedAffinity>  (1) 
-4.57473469

>  <minimizedRMSD>  (1) 
3.16605997

$$$$
