
     RDKit          3D

 33 35  0  0  0  0  0  0  0  0999 V2000
   38.1990   26.7150   34.3540 C   0  0  0  0  0  0  0  0  0  0  0  0
   37.0830   27.6120   34.8010 C   0  0  0  0  0  0  0  0  0  0  0  0
   38.6680   27.1890   32.9900 C   0  0  0  0  0  0  0  0  0  0  0  0
   39.4080   27.0190   35.2690 C   0  0  0  0  0  0  0  0  0  0  0  0
   40.6990   26.8190   34.5530 C   0  0  0  0  0  0  0  0  0  0  0  0
   41.5020   25.7530   34.7320 N   0  0  0  0  0  0  0  0  0  0  0  0
   42.5420   25.8900   33.9580 O   0  0  0  0  0  0  0  0  0  0  0  0
   42.4720   26.9860   33.2750 C   0  0  0  0  0  0  0  0  0  0  0  0
   41.3170   27.5800   33.6410 N   0  0  0  0  0  0  0  0  0  0  0  0
   37.9060   24.9690   34.4430 S   0  0  0  0  0  0  0  0  0  0  0  0
   38.2500   23.7590   38.3220 C   0  0  0  0  0  0  0  0  0  0  0  0
   37.7840   24.3720   37.1450 C   0  0  0  0  0  0  0  0  0  0  0  0
   38.4660   24.2090   35.9550 C   0  0  0  0  0  0  0  0  0  0  0  0
   39.5830   23.4440   35.9860 N   0  0  0  0  0  0  0  0  0  0  0  0
   40.0260   22.8600   37.1070 C   0  0  0  0  0  0  0  0  0  0  0  0
   39.3850   23.0030   38.2660 N   0  0  0  0  0  0  0  0  0  0  0  0
   41.2470   22.0540   37.0270 C   0  0  0  0  0  0  0  0  0  0  0  0
   41.6090   21.0390   37.8300 N   0  0  0  0  0  0  0  0  0  0  0  0
   42.7520   20.5510   37.4700 O   0  0  0  0  0  0  0  0  0  0  0  0
   43.1610   21.2340   36.4280 C   0  0  0  0  0  0  0  0  0  0  0  0
   42.2390   22.1840   36.1250 N   0  0  0  0  0  0  0  0  0  0  0  0
   37.0511   27.6376   35.9002 H   0  0  0  0  0  0  0  0  0  0  0  0
   37.2524   28.6281   34.4153 H   0  0  0  0  0  0  0  0  0  0  0  0
   36.1271   27.2280   34.4153 H   0  0  0  0  0  0  0  0  0  0  0  0
   39.4366   27.9658   33.1161 H   0  0  0  0  0  0  0  0  0  0  0  0
   39.0920   26.3406   32.4328 H   0  0  0  0  0  0  0  0  0  0  0  0
   37.8152   27.6040   32.4328 H   0  0  0  0  0  0  0  0  0  0  0  0
   39.3456   28.0635   35.6083 H   0  0  0  0  0  0  0  0  0  0  0  0
   39.3766   26.3269   36.1234 H   0  0  0  0  0  0  0  0  0  0  0  0
   43.2050   27.3583   32.5442 H   0  0  0  0  0  0  0  0  0  0  0  0
   37.7091   23.8867   39.2713 H   0  0  0  0  0  0  0  0  0  0  0  0
   36.8710   24.9849   37.1724 H   0  0  0  0  0  0  0  0  0  0  0  0
   44.1024   21.0642   35.8850 H   0  0  0  0  0  0  0  0  0  0  0  0
  1 10  1  0
  1  2  1  0
  1  4  1  0
  3  1  1  0
  5  6  2  0
  5  4  1  0
  7  6  1  0
  8  9  2  0
  8  7  1  0
  9  5  1  0
 10 13  1  0
 12 11  2  0
 13 14  2  0
 13 12  1  0
 14 15  1  0
 15 16  2  0
 16 11  1  0
 17 15  1  0
 17 18  2  0
 19 18  1  0
 20 19  1  0
 21 20  2  0
 21 17  1  0
  2 22  1  0
  2 23  1  0
  2 24  1  0
  3 25  1  0
  3 26  1  0
  3 27  1  0
  4 28  1  0
  4 29  1  0
  8 30  1  0
 11 31  1  0
 12 32  1  0
 20 33  1  0
M  ISO  8  22   8  23   8  24   8  25   8  26   8  27   8  28   8  29   8
M  ISO  4  30  14  31  14  32  14  33  14
M  END
>  <minimizedAffinity>  (1) 
-4.76256084

>  <minimizedRMSD>  (1) 
0.647993147

$$$$
