
     RDKit          3D

 31 33  0  0  0  0  0  0  0  0999 V2000
   40.9320   22.5550   37.1290 C   0  0  0  0  0  0  0  0  0  0  0  0
   41.8670   23.3540   36.4880 C   0  0  0  0  0  0  0  0  0  0  0  0
   43.1350   22.8420   36.2000 C   0  0  0  0  0  0  0  0  0  0  0  0
   43.3860   21.5370   36.5820 N   0  0  0  0  0  0  0  0  0  0  0  0
   42.4620   20.7820   37.2040 C   0  0  0  0  0  0  0  0  0  0  0  0
   41.2380   21.3080   37.4710 N   0  0  0  0  0  0  0  0  0  0  0  0
   39.6150   23.1150   37.4170 C   0  0  0  0  0  0  0  0  0  0  0  0
   38.7240   23.5400   36.4170 C   0  0  0  0  0  0  0  0  0  0  0  0
   37.6350   23.9850   37.1420 C   0  0  0  0  0  0  0  0  0  0  0  0
   37.8900   23.8230   38.4930 C   0  0  0  0  0  0  0  0  0  0  0  0
   39.0930   23.2970   38.5930 O   0  0  0  0  0  0  0  0  0  0  0  0
   44.1770   23.6460   35.5150 C   0  0  0  0  0  0  0  0  0  0  0  0
   45.3640   23.7880   36.3130 N   0  0  0  0  0  0  0  0  0  0  0  0
   46.4570   23.0110   36.1470 C   0  0  0  0  0  0  0  0  0  0  0  0
   47.5950   23.1480   36.9130 C   0  0  0  0  0  0  0  0  0  0  0  0
   47.6580   24.1100   37.9000 C   0  0  0  0  0  0  0  0  0  0  0  0
   48.7950   24.3120   38.7270 N   0  0  0  0  0  0  0  0  0  0  0  0
   46.5540   24.8650   38.0370 N   0  0  0  0  0  0  0  0  0  0  0  0
   45.4540   24.7200   37.2840 C   0  0  0  0  0  0  0  0  0  0  0  0
   44.5150   25.5000   37.5370 O   0  0  0  0  0  0  0  0  0  0  0  0
   41.6115   24.3865   36.2075 H   0  0  0  0  0  0  0  0  0  0  0  0
   42.6958   19.7470   37.4941 H   0  0  0  0  0  0  0  0  0  0  0  0
   38.8599   23.5227   35.3256 H   0  0  0  0  0  0  0  0  0  0  0  0
   36.7117   24.4019   36.7135 H   0  0  0  0  0  0  0  0  0  0  0  0
   37.2171   24.0836   39.3232 H   0  0  0  0  0  0  0  0  0  0  0  0
   44.4427   23.1503   34.5697 H   0  0  0  0  0  0  0  0  0  0  0  0
   43.7665   24.6510   35.3379 H   0  0  0  0  0  0  0  0  0  0  0  0
   46.4379   22.2357   35.3670 H   0  0  0  0  0  0  0  0  0  0  0  0
   48.4566   22.4874   36.7365 H   0  0  0  0  0  0  0  0  0  0  0  0
   48.7831   25.0472   39.4482 H   0  0  0  0  0  0  0  0  0  0  0  0
   49.6314   23.7232   38.6055 H   0  0  0  0  0  0  0  0  0  0  0  0
  1  7  1  0
  1  6  1  0
  2  1  2  0
  3  2  1  0
  3  4  2  0
  4  5  1  0
  5  6  2  0
  7 11  1  0
  8  9  1  0
  8  7  2  0
  9 10  2  0
 10 11  1  0
 12  3  1  0
 12 13  1  0
 13 19  1  0
 14 13  1  0
 14 15  2  0
 15 16  1  0
 16 18  2  0
 16 17  1  0
 19 20  2  0
 19 18  1  0
  2 21  1  0
  5 22  1  0
  8 23  1  0
  9 24  1  0
 10 25  1  0
 12 26  1  0
 12 27  1  0
 14 28  1  0
 15 29  1  0
 17 30  1  0
 17 31  1  0
M  ISO  8  21  14  22  14  23  14  24  14  25  14  26   8  27   8  28  14
M  ISO  1  29  14
M  END
>  <minimizedAffinity>  (1) 
-4.83630276

>  <minimizedRMSD>  (1) 
1.22992468

$$$$
