
     RDKit          3D

 27 29  0  0  0  0  0  0  0  0999 V2000
   41.0110   22.4800   37.0370 C   0  0  0  0  0  0  0  0  0  0  0  0
   41.8860   23.4370   36.5010 C   0  0  0  0  0  0  0  0  0  0  0  0
   43.2050   23.0400   36.2170 C   0  0  0  0  0  0  0  0  0  0  0  0
   43.5520   21.7480   36.4830 N   0  0  0  0  0  0  0  0  0  0  0  0
   42.6770   20.8620   36.9990 C   0  0  0  0  0  0  0  0  0  0  0  0
   41.4090   21.2370   37.2730 N   0  0  0  0  0  0  0  0  0  0  0  0
   39.6480   22.9100   37.3240 C   0  0  0  0  0  0  0  0  0  0  0  0
   38.6310   23.0220   36.3900 C   0  0  0  0  0  0  0  0  0  0  0  0
   37.5430   23.4510   37.0900 C   0  0  0  0  0  0  0  0  0  0  0  0
   37.9100   23.5930   38.4220 C   0  0  0  0  0  0  0  0  0  0  0  0
   39.1780   23.2570   38.5050 O   0  0  0  0  0  0  0  0  0  0  0  0
   44.1720   24.0260   35.6440 C   0  0  0  0  0  0  0  0  0  0  0  0
   45.0620   24.4340   36.7290 N   0  0  0  0  0  0  0  0  0  0  0  0
   44.7490   25.2380   37.7440 C   0  0  0  0  0  0  0  0  0  0  0  0
   45.8520   25.3980   38.5770 C   0  0  0  0  0  0  0  0  0  0  0  0
   46.8260   24.6600   38.0160 N   0  0  0  0  0  0  0  0  0  0  0  0
   46.3500   24.0730   36.8920 C   0  0  0  0  0  0  0  0  0  0  0  0
   41.5504   24.4668   36.3087 H   0  0  0  0  0  0  0  0  0  0  0  0
   42.9973   19.8286   37.1978 H   0  0  0  0  0  0  0  0  0  0  0  0
   38.6892   22.8098   35.3122 H   0  0  0  0  0  0  0  0  0  0  0  0
   36.5454   23.6505   36.6717 H   0  0  0  0  0  0  0  0  0  0  0  0
   37.2637   23.9232   39.2486 H   0  0  0  0  0  0  0  0  0  0  0  0
   44.7527   23.5588   34.8350 H   0  0  0  0  0  0  0  0  0  0  0  0
   43.6435   24.8941   35.2233 H   0  0  0  0  0  0  0  0  0  0  0  0
   43.7656   25.7055   37.9002 H   0  0  0  0  0  0  0  0  0  0  0  0
   45.9139   25.9988   39.4964 H   0  0  0  0  0  0  0  0  0  0  0  0
   46.9202   23.4114   36.2232 H   0  0  0  0  0  0  0  0  0  0  0  0
  1  6  1  0
  1  7  1  0
  2  1  2  0
  3  4  2  0
  3  2  1  0
  4  5  1  0
  5  6  2  0
  7 11  1  0
  8  9  1  0
  8  7  2  0
  9 10  2  0
 10 11  1  0
 12  3  1  0
 12 13  1  0
 13 17  1  0
 13 14  1  0
 14 15  2  0
 16 15  1  0
 17 16  2  0
  2 18  1  0
  5 19  1  0
  8 20  1  0
  9 21  1  0
 10 22  1  0
 12 23  1  0
 12 24  1  0
 14 25  1  0
 15 26  1  0
 17 27  1  0
M  ISO  8  18  14  19  14  20  14  21  14  22  14  23   8  24   8  25  14
M  ISO  2  26  14  27  14
M  END
>  <minimizedAffinity>  (1) 
-4.41225147

>  <minimizedRMSD>  (1) 
0.461047977

$$$$
