
     RDKit          3D

 36 38  0  0  0  0  0  0  0  0999 V2000
   40.8360   22.5300   37.0790 C   0  0  0  0  0  0  0  0  0  0  0  0
   41.6560   23.2980   36.2480 C   0  0  0  0  0  0  0  0  0  0  0  0
   42.9340   22.8190   35.9170 C   0  0  0  0  0  0  0  0  0  0  0  0
   43.2870   21.5960   36.4520 N   0  0  0  0  0  0  0  0  0  0  0  0
   42.4700   20.8870   37.2480 C   0  0  0  0  0  0  0  0  0  0  0  0
   41.2540   21.3660   37.5490 N   0  0  0  0  0  0  0  0  0  0  0  0
   39.5200   23.0690   37.3940 C   0  0  0  0  0  0  0  0  0  0  0  0
   38.5420   23.4070   36.4770 C   0  0  0  0  0  0  0  0  0  0  0  0
   37.4880   23.8650   37.2120 C   0  0  0  0  0  0  0  0  0  0  0  0
   37.8370   23.8020   38.5510 C   0  0  0  0  0  0  0  0  0  0  0  0
   39.0630   23.3190   38.6070 O   0  0  0  0  0  0  0  0  0  0  0  0
   43.8490   23.5890   35.0360 C   0  0  0  0  0  0  0  0  0  0  0  0
   43.0220   24.5930   34.2790 C   0  0  0  0  0  0  0  0  0  0  0  0
   42.9160   24.3160   32.8060 C   0  0  0  0  0  0  0  0  0  0  0  0
   41.7330   25.1460   32.2990 C   0  0  0  0  0  0  0  0  0  0  0  0
   42.0300   26.6040   32.4980 C   0  0  0  0  0  0  0  0  0  0  0  0
   42.4490   26.9250   33.9130 C   0  0  0  0  0  0  0  0  0  0  0  0
   43.5420   26.0000   34.4040 C   0  0  0  0  0  0  0  0  0  0  0  0
   41.3051   24.2649   35.8583 H   0  0  0  0  0  0  0  0  0  0  0  0
   42.7969   19.9173   37.6515 H   0  0  0  0  0  0  0  0  0  0  0  0
   38.6015   23.3238   35.3818 H   0  0  0  0  0  0  0  0  0  0  0  0
   36.5280   24.2222   36.8111 H   0  0  0  0  0  0  0  0  0  0  0  0
   37.2107   24.0985   39.4053 H   0  0  0  0  0  0  0  0  0  0  0  0
   44.6044   24.1086   35.6438 H   0  0  0  0  0  0  0  0  0  0  0  0
   44.3684   22.9152   34.3388 H   0  0  0  0  0  0  0  0  0  0  0  0
   42.0337   24.4932   34.7516 H   0  0  0  0  0  0  0  0  0  0  0  0
   43.8413   24.6183   32.2936 H   0  0  0  0  0  0  0  0  0  0  0  0
   42.7669   23.2440   32.6095 H   0  0  0  0  0  0  0  0  0  0  0  0
   40.8266   24.8754   32.8604 H   0  0  0  0  0  0  0  0  0  0  0  0
   41.5724   24.9447   31.2296 H   0  0  0  0  0  0  0  0  0  0  0  0
   42.8427   26.8940   31.8158 H   0  0  0  0  0  0  0  0  0  0  0  0
   41.1058   27.1630   32.2900 H   0  0  0  0  0  0  0  0  0  0  0  0
   42.8179   27.9607   33.9479 H   0  0  0  0  0  0  0  0  0  0  0  0
   41.5732   26.7926   34.5652 H   0  0  0  0  0  0  0  0  0  0  0  0
   43.7802   26.2221   35.4547 H   0  0  0  0  0  0  0  0  0  0  0  0
   44.4603   26.1314   33.8129 H   0  0  0  0  0  0  0  0  0  0  0  0
  1  7  1  0
  1  6  1  0
  2  1  2  0
  3  2  1  0
  3  4  2  0
  4  5  1  0
  5  6  2  0
  7 11  1  0
  8  9  1  0
  8  7  2  0
  9 10  2  0
 10 11  1  0
 12  3  1  0
 13 18  1  0
 13 12  1  0
 14 13  1  0
 15 16  1  0
 15 14  1  0
 16 17  1  0
 17 18  1  0
  2 19  1  0
  5 20  1  0
  8 21  1  0
  9 22  1  0
 10 23  1  0
 12 24  1  0
 12 25  1  0
 13 26  1  0
 14 27  1  0
 14 28  1  0
 15 29  1  0
 15 30  1  0
 16 31  1  0
 16 32  1  0
 17 33  1  0
 17 34  1  0
 18 35  1  0
 18 36  1  0
M  ISO  8  19  14  20  14  21  14  22  14  23  14  24   8  25   8  26  13
M  ISO  8  27  13  28  13  29  13  30  13  31  13  32  13  33  13  34  13
M  ISO  2  35  13  36  13
M  END
>  <minimizedAffinity>  (1) 
-4.02161121

>  <minimizedRMSD>  (1) 
2.02709579

$$$$
