
     RDKit          3D

 26 28  0  0  0  0  0  0  0  0999 V2000
   41.1000   22.5000   37.0010 C   0  0  0  0  0  0  0  0  0  0  0  0
   41.9540   23.5020   36.5720 C   0  0  0  0  0  0  0  0  0  0  0  0
   43.2820   23.1750   36.2830 C   0  0  0  0  0  0  0  0  0  0  0  0
   43.6550   21.8620   36.4480 N   0  0  0  0  0  0  0  0  0  0  0  0
   42.7940   20.9060   36.8690 C   0  0  0  0  0  0  0  0  0  0  0  0
   41.5150   21.2370   37.1450 N   0  0  0  0  0  0  0  0  0  0  0  0
   39.7120   22.8630   37.2980 C   0  0  0  0  0  0  0  0  0  0  0  0
   38.6830   22.8580   36.3460 C   0  0  0  0  0  0  0  0  0  0  0  0
   37.5710   23.2620   37.0610 C   0  0  0  0  0  0  0  0  0  0  0  0
   37.9400   23.4910   38.3700 C   0  0  0  0  0  0  0  0  0  0  0  0
   39.2210   23.2380   38.4450 O   0  0  0  0  0  0  0  0  0  0  0  0
   44.2510   24.1980   35.8200 C   0  0  0  0  0  0  0  0  0  0  0  0
   44.9720   24.6570   36.9980 N   0  0  0  0  0  0  0  0  0  0  0  0
   46.2720   24.3300   37.2520 C   0  0  0  0  0  0  0  0  0  0  0  0
   46.6620   24.8980   38.4060 N   0  0  0  0  0  0  0  0  0  0  0  0
   45.6010   25.5870   38.8770 C   0  0  0  0  0  0  0  0  0  0  0  0
   44.5750   25.4310   38.0040 N   0  0  0  0  0  0  0  0  0  0  0  0
   41.5943   24.5355   36.4607 H   0  0  0  0  0  0  0  0  0  0  0  0
   43.1344   19.8665   36.9854 H   0  0  0  0  0  0  0  0  0  0  0  0
   38.7457   22.5944   35.2799 H   0  0  0  0  0  0  0  0  0  0  0  0
   36.5567   23.3814   36.6523 H   0  0  0  0  0  0  0  0  0  0  0  0
   37.2855   23.8215   39.1900 H   0  0  0  0  0  0  0  0  0  0  0  0
   44.9511   23.7562   35.0956 H   0  0  0  0  0  0  0  0  0  0  0  0
   43.7362   25.0328   35.3219 H   0  0  0  0  0  0  0  0  0  0  0  0
   46.9041   23.6983   36.6106 H   0  0  0  0  0  0  0  0  0  0  0  0
   45.5734   26.1732   39.8074 H   0  0  0  0  0  0  0  0  0  0  0  0
  1  6  1  0
  1  7  1  0
  2  1  2  0
  3  4  2  0
  3  2  1  0
  4  5  1  0
  5  6  2  0
  7 11  1  0
  8  9  1  0
  8  7  2  0
  9 10  2  0
 10 11  1  0
 12  3  1  0
 12 13  1  0
 13 14  1  0
 13 17  1  0
 14 15  2  0
 15 16  1  0
 17 16  2  0
  2 18  1  0
  5 19  1  0
  8 20  1  0
  9 21  1  0
 10 22  1  0
 12 23  1  0
 12 24  1  0
 14 25  1  0
 16 26  1  0
M  ISO  8  18  14  19  14  20  14  21  14  22  14  23   8  24   8  25  14
M  ISO  1  26  14
M  END
>  <minimizedAffinity>  (1) 
-4.47237921

>  <minimizedRMSD>  (1) 
0.709291458

$$$$
