
     RDKit          3D

 27 28  0  0  0  0  0  0  0  0999 V2000
   41.0540   22.4560   37.1070 C   0  0  0  0  0  0  0  0  0  0  0  0
   42.0210   23.3880   36.7230 C   0  0  0  0  0  0  0  0  0  0  0  0
   43.3180   22.9140   36.4590 C   0  0  0  0  0  0  0  0  0  0  0  0
   43.5520   21.5760   36.5930 N   0  0  0  0  0  0  0  0  0  0  0  0
   42.5910   20.7130   36.9650 C   0  0  0  0  0  0  0  0  0  0  0  0
   41.3440   21.1660   37.2200 N   0  0  0  0  0  0  0  0  0  0  0  0
   39.7040   22.9450   37.3830 C   0  0  0  0  0  0  0  0  0  0  0  0
   38.7370   23.1600   36.3890 C   0  0  0  0  0  0  0  0  0  0  0  0
   37.6320   23.6090   37.0620 C   0  0  0  0  0  0  0  0  0  0  0  0
   37.9480   23.6550   38.4050 C   0  0  0  0  0  0  0  0  0  0  0  0
   39.1950   23.2470   38.5390 O   0  0  0  0  0  0  0  0  0  0  0  0
   44.3910   23.8770   36.0440 C   0  0  0  0  0  0  0  0  0  0  0  0
   44.2020   25.0720   36.8380 N   0  0  0  0  0  0  0  0  0  0  0  0
   45.1440   25.4010   37.8790 C   0  0  0  0  0  0  0  0  0  0  0  0
   46.3900   25.0960   37.6800 N   0  0  0  0  0  0  0  0  0  0  0  0
   44.6420   26.0450   39.0680 N   0  0  0  0  0  0  0  0  0  0  0  0
   47.1270   25.2980   38.3790 H   0  0  0  0  0  0  0  0  0  0  0  0
   41.7761   24.4564   36.6303 H   0  0  0  0  0  0  0  0  0  0  0  0
   42.8191   19.6413   37.0615 H   0  0  0  0  0  0  0  0  0  0  0  0
   38.8434   23.0023   35.3056 H   0  0  0  0  0  0  0  0  0  0  0  0
   36.6661   23.8837   36.6130 H   0  0  0  0  0  0  0  0  0  0  0  0
   37.2794   23.9747   39.2179 H   0  0  0  0  0  0  0  0  0  0  0  0
   45.3841   23.4455   36.2376 H   0  0  0  0  0  0  0  0  0  0  0  0
   44.3297   24.1007   34.9687 H   0  0  0  0  0  0  0  0  0  0  0  0
   43.3953   25.6870   36.6597 H   0  0  0  0  0  0  0  0  0  0  0  0
   45.2879   26.2936   39.8308 H   0  0  0  0  0  0  0  0  0  0  0  0
   43.6376   26.2563   39.1543 H   0  0  0  0  0  0  0  0  0  0  0  0
  1  6  1  0
  1  7  1  0
  2  1  2  0
  3  4  2  0
  3  2  1  0
  4  5  1  0
  5  6  2  0
  7 11  1  0
  8  9  1  0
  8  7  2  0
  9 10  2  0
 10 11  1  0
 12  3  1  0
 12 13  1  0
 13 14  1  0
 14 16  1  0
 15 14  2  0
 15 17  1  0
  2 18  1  0
  5 19  1  0
  8 20  1  0
  9 21  1  0
 10 22  1  0
 12 23  1  0
 12 24  1  0
 13 25  1  0
 16 26  1  0
 16 27  1  0
M  ISO  7  18  14  19  14  20  14  21  14  22  14  23   8  24   8
M  END
>  <minimizedAffinity>  (1) 
-4.44377613

>  <minimizedRMSD>  (1) 
3.05219102

$$$$
