
     RDKit          3D

 21 22  0  0  0  0  0  0  0  0999 V2000
   40.9280   22.5510   37.1120 C   0  0  0  0  0  0  0  0  0  0  0  0
   41.8380   23.3370   36.4150 C   0  0  0  0  0  0  0  0  0  0  0  0
   43.1080   22.7790   36.1410 C   0  0  0  0  0  0  0  0  0  0  0  0
   43.3640   21.5140   36.5700 N   0  0  0  0  0  0  0  0  0  0  0  0
   42.4490   20.7780   37.2480 C   0  0  0  0  0  0  0  0  0  0  0  0
   41.2390   21.3140   37.5090 N   0  0  0  0  0  0  0  0  0  0  0  0
   39.6220   23.1180   37.3990 C   0  0  0  0  0  0  0  0  0  0  0  0
   38.7140   23.5590   36.4270 C   0  0  0  0  0  0  0  0  0  0  0  0
   37.6330   24.0070   37.1390 C   0  0  0  0  0  0  0  0  0  0  0  0
   37.8940   23.8360   38.4930 C   0  0  0  0  0  0  0  0  0  0  0  0
   39.0880   23.3050   38.5700 O   0  0  0  0  0  0  0  0  0  0  0  0
   44.1270   23.5750   35.3940 C   0  0  0  0  0  0  0  0  0  0  0  0
   43.9380   23.3040   34.0450 O   0  0  0  0  0  0  0  0  0  0  0  0
   41.5798   24.3553   36.0887 H   0  0  0  0  0  0  0  0  0  0  0  0
   42.6902   19.7576   37.5807 H   0  0  0  0  0  0  0  0  0  0  0  0
   38.8412   23.5479   35.3344 H   0  0  0  0  0  0  0  0  0  0  0  0
   36.7127   24.4310   36.7108 H   0  0  0  0  0  0  0  0  0  0  0  0
   37.2307   24.0948   39.3315 H   0  0  0  0  0  0  0  0  0  0  0  0
   43.9856   24.6485   35.5880 H   0  0  0  0  0  0  0  0  0  0  0  0
   45.1460   23.3084   35.7111 H   0  0  0  0  0  0  0  0  0  0  0  0
   43.3745   22.4960   33.9465 H   0  0  0  0  0  0  0  0  0  0  0  0
  1  7  1  0
  1  6  1  0
  2  1  2  0
  3  2  1  0
  3  4  2  0
  4  5  1  0
  5  6  2  0
  7 11  1  0
  8  9  1  0
  8  7  2  0
  9 10  2  0
 10 11  1  0
 12  3  1  0
 13 12  1  0
  2 14  1  0
  5 15  1  0
  8 16  1  0
  9 17  1  0
 10 18  1  0
 12 19  1  0
 12 20  1  0
 13 21  1  0
M  ISO  8  14  14  15  14  16  14  17  14  18  14  19   8  20   8  21   3
M  END
>  <minimizedAffinity>  (1) 
-3.47075534

>  <minimizedRMSD>  (1) 
0.018187236

$$$$
