
     RDKit          3D

 27 29  0  0  0  0  0  0  0  0999 V2000
   41.0750   22.4510   36.9980 C   0  0  0  0  0  0  0  0  0  0  0  0
   41.9690   23.4580   36.6250 C   0  0  0  0  0  0  0  0  0  0  0  0
   43.3060   23.1080   36.3580 C   0  0  0  0  0  0  0  0  0  0  0  0
   43.6470   21.7780   36.4840 N   0  0  0  0  0  0  0  0  0  0  0  0
   42.7520   20.8300   36.8480 C   0  0  0  0  0  0  0  0  0  0  0  0
   41.4870   21.2020   37.0960 N   0  0  0  0  0  0  0  0  0  0  0  0
   39.6940   22.8430   37.2720 C   0  0  0  0  0  0  0  0  0  0  0  0
   38.6780   22.8700   36.3330 C   0  0  0  0  0  0  0  0  0  0  0  0
   37.5790   23.2950   37.0430 C   0  0  0  0  0  0  0  0  0  0  0  0
   37.9530   23.5100   38.3640 C   0  0  0  0  0  0  0  0  0  0  0  0
   39.2370   23.2240   38.4480 O   0  0  0  0  0  0  0  0  0  0  0  0
   44.3040   24.1410   35.9560 C   0  0  0  0  0  0  0  0  0  0  0  0
   45.0060   24.6720   37.1090 N   0  0  0  0  0  0  0  0  0  0  0  0
   44.6330   25.4600   38.1080 N   0  0  0  0  0  0  0  0  0  0  0  0
   45.6290   25.6890   38.9530 C   0  0  0  0  0  0  0  0  0  0  0  0
   46.7590   25.0150   38.5070 C   0  0  0  0  0  0  0  0  0  0  0  0
   46.3090   24.3970   37.3500 C   0  0  0  0  0  0  0  0  0  0  0  0
   41.6349   24.5027   36.5417 H   0  0  0  0  0  0  0  0  0  0  0  0
   43.0555   19.7766   36.9386 H   0  0  0  0  0  0  0  0  0  0  0  0
   38.7357   22.6114   35.2654 H   0  0  0  0  0  0  0  0  0  0  0  0
   36.5691   23.4408   36.6321 H   0  0  0  0  0  0  0  0  0  0  0  0
   37.3026   23.8529   39.1822 H   0  0  0  0  0  0  0  0  0  0  0  0
   45.0339   23.6863   35.2701 H   0  0  0  0  0  0  0  0  0  0  0  0
   43.7698   24.9671   35.4638 H   0  0  0  0  0  0  0  0  0  0  0  0
   45.5701   26.3107   39.8586 H   0  0  0  0  0  0  0  0  0  0  0  0
   47.7612   24.9802   38.9591 H   0  0  0  0  0  0  0  0  0  0  0  0
   46.9347   23.7609   36.7067 H   0  0  0  0  0  0  0  0  0  0  0  0
  1  6  1  0
  1  7  1  0
  2  1  2  0
  3  4  2  0
  3  2  1  0
  4  5  1  0
  5  6  2  0
  7 11  1  0
  8  9  1  0
  8  7  2  0
  9 10  2  0
 10 11  1  0
 12  3  1  0
 12 13  1  0
 13 17  1  0
 13 14  1  0
 14 15  2  0
 16 15  1  0
 17 16  2  0
  2 18  1  0
  5 19  1  0
  8 20  1  0
  9 21  1  0
 10 22  1  0
 12 23  1  0
 12 24  1  0
 15 25  1  0
 16 26  1  0
 17 27  1  0
M  ISO  8  18  14  19  14  20  14  21  14  22  14  23   8  24   8  25  14
M  ISO  2  26  14  27  14
M  END
>  <minimizedAffinity>  (1) 
-4.6978507

>  <minimizedRMSD>  (1) 
3.37607884

$$$$
