
     RDKit          3D

 40 44  0  0  0  0  0  0  0  0999 V2000
   44.5130   23.9090   36.0560 C   0  0  0  0  0  0  0  0  0  0  0  0
   41.1760   22.4070   37.0310 C   0  0  0  0  0  0  0  0  0  0  0  0
   42.1350   23.3470   36.6810 C   0  0  0  0  0  0  0  0  0  0  0  0
   43.4610   22.9240   36.4330 C   0  0  0  0  0  0  0  0  0  0  0  0
   43.7220   21.5790   36.5580 N   0  0  0  0  0  0  0  0  0  0  0  0
   42.7680   20.6900   36.9000 C   0  0  0  0  0  0  0  0  0  0  0  0
   41.5200   21.1300   37.1280 N   0  0  0  0  0  0  0  0  0  0  0  0
   39.8200   22.8780   37.2780 C   0  0  0  0  0  0  0  0  0  0  0  0
   38.8590   23.0880   36.3040 C   0  0  0  0  0  0  0  0  0  0  0  0
   37.7620   23.5240   37.0200 C   0  0  0  0  0  0  0  0  0  0  0  0
   38.0820   23.5650   38.3810 C   0  0  0  0  0  0  0  0  0  0  0  0
   39.3310   23.1660   38.4770 O   0  0  0  0  0  0  0  0  0  0  0  0
   44.8970   24.7400   37.1680 N   0  0  0  0  0  0  0  0  0  0  0  0
   44.2110   25.5570   37.9350 N   0  0  0  0  0  0  0  0  0  0  0  0
   44.9500   26.1430   38.8650 C   0  0  0  0  0  0  0  0  0  0  0  0
   46.2510   25.6820   38.7150 C   0  0  0  0  0  0  0  0  0  0  0  0
   46.1640   24.8070   37.6400 C   0  0  0  0  0  0  0  0  0  0  0  0
   47.3680   24.1360   37.2090 N   0  0  0  0  0  0  0  0  0  0  0  0
   47.8240   23.7210   36.0130 C   0  0  0  0  0  0  0  0  0  0  0  0
   49.0410   23.1440   36.2160 N   0  0  0  0  0  0  0  0  0  0  0  0
   49.3270   23.2080   37.5420 C   0  0  0  0  0  0  0  0  0  0  0  0
   50.4540   22.7450   38.1910 C   0  0  0  0  0  0  0  0  0  0  0  0
   50.4540   22.9540   39.5330 N   0  0  0  0  0  0  0  0  0  0  0  0
   49.4670   23.5500   40.1870 C   0  0  0  0  0  0  0  0  0  0  0  0
   48.3880   23.9870   39.5200 N   0  0  0  0  0  0  0  0  0  0  0  0
   48.2810   23.8300   38.1740 C   0  0  0  0  0  0  0  0  0  0  0  0
   51.5380   22.1000   37.5330 N   0  0  0  0  0  0  0  0  0  0  0  0
   45.3985   23.3634   35.6979 H   0  0  0  0  0  0  0  0  0  0  0  0
   44.1027   24.5606   35.2705 H   0  0  0  0  0  0  0  0  0  0  0  0
   41.8662   24.4104   36.5974 H   0  0  0  0  0  0  0  0  0  0  0  0
   43.0083   19.6204   36.9909 H   0  0  0  0  0  0  0  0  0  0  0  0
   38.9482   22.9421   35.2174 H   0  0  0  0  0  0  0  0  0  0  0  0
   36.7880   23.7967   36.5875 H   0  0  0  0  0  0  0  0  0  0  0  0
   37.4211   23.8700   39.2057 H   0  0  0  0  0  0  0  0  0  0  0  0
   44.5975   26.8630   39.6182 H   0  0  0  0  0  0  0  0  0  0  0  0
   47.1395   25.9469   39.3069 H   0  0  0  0  0  0  0  0  0  0  0  0
   47.3080   23.8282   35.0474 H   0  0  0  0  0  0  0  0  0  0  0  0
   49.5326   23.6863   41.2766 H   0  0  0  0  0  0  0  0  0  0  0  0
   52.3516   21.7774   38.0761 H   0  0  0  0  0  0  0  0  0  0  0  0
   51.5092   21.9557   36.5136 H   0  0  0  0  0  0  0  0  0  0  0  0
  1  4  1  0
  1 13  1  0
  2  7  1  0
  2  8  1  0
  3  2  2  0
  4  5  2  0
  4  3  1  0
  5  6  1  0
  6  7  2  0
  8 12  1  0
  9 10  1  0
  9  8  2  0
 10 11  2  0
 11 12  1  0
 13 17  1  0
 13 14  1  0
 14 15  2  0
 16 15  1  0
 17 16  2  0
 18 17  1  0
 18 26  1  0
 19 20  2  0
 19 18  1  0
 20 21  1  0
 21 26  2  0
 21 22  1  0
 22 23  2  0
 23 24  1  0
 25 24  2  0
 26 25  1  0
 27 22  1  0
  1 28  1  0
  1 29  1  0
  3 30  1  0
  6 31  1  0
  9 32  1  0
 10 33  1  0
 11 34  1  0
 15 35  1  0
 16 36  1  0
 19 37  1  0
 24 38  1  0
 27 39  1  0
 27 40  1  0
M  ISO  8  28   8  29   8  30  14  31  14  32  14  33  14  34  14  35  14
M  ISO  3  36  14  37  14  38  14
M  END
>  <minimizedAffinity>  (1) 
-5.38380861

>  <minimizedRMSD>  (1) 
0.93896848

$$$$
