
     RDKit          3D

 36 39  0  0  0  0  0  0  0  0999 V2000
   44.4050   24.0820   36.0070 C   0  0  0  0  0  0  0  0  0  0  0  0
   41.1270   22.4540   37.0060 C   0  0  0  0  0  0  0  0  0  0  0  0
   42.0680   23.4070   36.6560 C   0  0  0  0  0  0  0  0  0  0  0  0
   43.3950   23.0460   36.3850 C   0  0  0  0  0  0  0  0  0  0  0  0
   43.6700   21.7090   36.4960 N   0  0  0  0  0  0  0  0  0  0  0  0
   42.7480   20.7940   36.8370 C   0  0  0  0  0  0  0  0  0  0  0  0
   41.4940   21.2010   37.0840 N   0  0  0  0  0  0  0  0  0  0  0  0
   39.7620   22.9010   37.2720 C   0  0  0  0  0  0  0  0  0  0  0  0
   38.7900   23.1040   36.3220 C   0  0  0  0  0  0  0  0  0  0  0  0
   37.6890   23.5120   37.0210 C   0  0  0  0  0  0  0  0  0  0  0  0
   38.0080   23.5470   38.3630 C   0  0  0  0  0  0  0  0  0  0  0  0
   39.2740   23.1680   38.4560 O   0  0  0  0  0  0  0  0  0  0  0  0
   44.9270   24.7490   37.1630 N   0  0  0  0  0  0  0  0  0  0  0  0
   44.3600   25.6670   37.9440 N   0  0  0  0  0  0  0  0  0  0  0  0
   45.1680   26.0650   38.9200 C   0  0  0  0  0  0  0  0  0  0  0  0
   46.3620   25.3850   38.8110 C   0  0  0  0  0  0  0  0  0  0  0  0
   46.1660   24.5690   37.6940 C   0  0  0  0  0  0  0  0  0  0  0  0
   47.2240   23.6720   37.2420 C   0  0  0  0  0  0  0  0  0  0  0  0
   48.5380   23.8310   37.6230 C   0  0  0  0  0  0  0  0  0  0  0  0
   49.5960   23.0340   37.2460 C   0  0  0  0  0  0  0  0  0  0  0  0
   49.3380   21.9710   36.4080 C   0  0  0  0  0  0  0  0  0  0  0  0
   48.0280   21.7980   36.0170 C   0  0  0  0  0  0  0  0  0  0  0  0
   47.0490   22.6190   36.4270 N   0  0  0  0  0  0  0  0  0  0  0  0
   45.2328   23.5958   35.4700 H   0  0  0  0  0  0  0  0  0  0  0  0
   43.9118   24.8299   35.3687 H   0  0  0  0  0  0  0  0  0  0  0  0
   41.7698   24.4637   36.5895 H   0  0  0  0  0  0  0  0  0  0  0  0
   43.0164   19.7299   36.9124 H   0  0  0  0  0  0  0  0  0  0  0  0
   38.8790   22.9676   35.2341 H   0  0  0  0  0  0  0  0  0  0  0  0
   36.7118   23.7695   36.5865 H   0  0  0  0  0  0  0  0  0  0  0  0
   37.3430   23.8329   39.1913 H   0  0  0  0  0  0  0  0  0  0  0  0
   44.9246   26.8136   39.6884 H   0  0  0  0  0  0  0  0  0  0  0  0
   47.2541   25.4654   39.4495 H   0  0  0  0  0  0  0  0  0  0  0  0
   48.7638   24.6746   38.2919 H   0  0  0  0  0  0  0  0  0  0  0  0
   50.6159   23.2397   37.6030 H   0  0  0  0  0  0  0  0  0  0  0  0
   50.1368   21.2952   36.0686 H   0  0  0  0  0  0  0  0  0  0  0  0
   47.7772   20.9613   35.3484 H   0  0  0  0  0  0  0  0  0  0  0  0
  1  4  1  0
  1 13  1  0
  2  7  1  0
  2  8  1  0
  3  2  2  0
  4  5  2  0
  4  3  1  0
  5  6  1  0
  6  7  2  0
  8 12  1  0
  9 10  1  0
  9  8  2  0
 10 11  2  0
 11 12  1  0
 13 17  1  0
 13 14  1  0
 14 15  2  0
 16 15  1  0
 17 16  2  0
 18 19  2  0
 18 17  1  0
 20 19  1  0
 21 20  2  0
 22 21  1  0
 22 23  2  0
 23 18  1  0
  1 24  1  0
  1 25  1  0
  3 26  1  0
  6 27  1  0
  9 28  1  0
 10 29  1  0
 11 30  1  0
 15 31  1  0
 16 32  1  0
 19 33  1  0
 20 34  1  0
 21 35  1  0
 22 36  1  0
M  ISO  8  24   8  25   8  26  14  27  14  28  14  29  14  30  14  31  14
M  ISO  5  32  14  33  14  34  14  35  14  36  14
M  END
>  <minimizedAffinity>  (1) 
-5.06899166

>  <minimizedRMSD>  (1) 
0.546340525

$$$$
