
     RDKit          3D

 40 43  0  0  0  0  0  0  0  0999 V2000
   41.0860   22.4770   37.0080 C   0  0  0  0  0  0  0  0  0  0  0  0
   42.0120   23.4670   36.6500 C   0  0  0  0  0  0  0  0  0  0  0  0
   43.3340   23.0770   36.3950 C   0  0  0  0  0  0  0  0  0  0  0  0
   43.6500   21.7430   36.5100 N   0  0  0  0  0  0  0  0  0  0  0  0
   42.7320   20.8190   36.8580 C   0  0  0  0  0  0  0  0  0  0  0  0
   41.4710   21.2170   37.0980 N   0  0  0  0  0  0  0  0  0  0  0  0
   39.7100   22.9030   37.2650 C   0  0  0  0  0  0  0  0  0  0  0  0
   38.7360   23.0840   36.3140 C   0  0  0  0  0  0  0  0  0  0  0  0
   37.6280   23.4810   37.0150 C   0  0  0  0  0  0  0  0  0  0  0  0
   37.9600   23.5290   38.3690 C   0  0  0  0  0  0  0  0  0  0  0  0
   39.2260   23.1720   38.4720 O   0  0  0  0  0  0  0  0  0  0  0  0
   44.3670   24.0930   36.0070 C   0  0  0  0  0  0  0  0  0  0  0  0
   44.9350   24.7510   37.1660 N   0  0  0  0  0  0  0  0  0  0  0  0
   44.4460   25.6340   38.0030 N   0  0  0  0  0  0  0  0  0  0  0  0
   45.2970   26.0030   38.9440 C   0  0  0  0  0  0  0  0  0  0  0  0
   46.4730   25.2950   38.7140 C   0  0  0  0  0  0  0  0  0  0  0  0
   46.1890   24.5270   37.5890 C   0  0  0  0  0  0  0  0  0  0  0  0
   47.2370   23.6770   37.1260 N   0  0  0  0  0  0  0  0  0  0  0  0
   48.5620   23.4560   37.7330 C   0  0  0  0  0  0  0  0  0  0  0  0
   49.5420   23.1060   36.6100 C   0  0  0  0  0  0  0  0  0  0  0  0
   49.2490   23.8610   35.4790 O   0  0  0  0  0  0  0  0  0  0  0  0
   48.0360   23.4960   34.9010 C   0  0  0  0  0  0  0  0  0  0  0  0
   47.1010   22.8690   35.9100 C   0  0  0  0  0  0  0  0  0  0  0  0
   41.7092   24.5216   36.5713 H   0  0  0  0  0  0  0  0  0  0  0  0
   43.0102   19.7582   36.9440 H   0  0  0  0  0  0  0  0  0  0  0  0
   38.8259   22.9414   35.2270 H   0  0  0  0  0  0  0  0  0  0  0  0
   36.6448   23.7209   36.5839 H   0  0  0  0  0  0  0  0  0  0  0  0
   37.2917   23.8115   39.1958 H   0  0  0  0  0  0  0  0  0  0  0  0
   45.1726   23.5885   35.4534 H   0  0  0  0  0  0  0  0  0  0  0  0
   43.8786   24.8572   35.3845 H   0  0  0  0  0  0  0  0  0  0  0  0
   45.1123   26.7275   39.7508 H   0  0  0  0  0  0  0  0  0  0  0  0
   47.4102   25.3336   39.2887 H   0  0  0  0  0  0  0  0  0  0  0  0
   48.8943   24.3696   38.2477 H   0  0  0  0  0  0  0  0  0  0  0  0
   48.5149   22.6395   38.4686 H   0  0  0  0  0  0  0  0  0  0  0  0
   50.5685   23.3244   36.9394 H   0  0  0  0  0  0  0  0  0  0  0  0
   49.4511   22.0369   36.3676 H   0  0  0  0  0  0  0  0  0  0  0  0
   47.5573   24.3929   34.4809 H   0  0  0  0  0  0  0  0  0  0  0  0
   48.2405   22.7533   34.1158 H   0  0  0  0  0  0  0  0  0  0  0  0
   46.0644   22.8980   35.5432 H   0  0  0  0  0  0  0  0  0  0  0  0
   47.3471   21.8126   36.0927 H   0  0  0  0  0  0  0  0  0  0  0  0
  1  6  1  0
  1  7  1  0
  2  1  2  0
  3  4  2  0
  3  2  1  0
  4  5  1  0
  5  6  2  0
  7 11  1  0
  8  9  1  0
  8  7  2  0
  9 10  2  0
 10 11  1  0
 12  3  1  0
 12 13  1  0
 13 17  1  0
 13 14  1  0
 14 15  2  0
 16 15  1  0
 17 16  2  0
 18 17  1  0
 18 19  1  0
 20 19  1  0
 21 20  1  0
 22 21  1  0
 22 23  1  0
 23 18  1  0
  2 24  1  0
  5 25  1  0
  8 26  1  0
  9 27  1  0
 10 28  1  0
 12 29  1  0
 12 30  1  0
 15 31  1  0
 16 32  1  0
 19 33  1  0
 19 34  1  0
 20 35  1  0
 20 36  1  0
 22 37  1  0
 22 38  1  0
 23 39  1  0
 23 40  1  0
M  ISO  8  24  14  25  14  26  14  27  14  28  14  29   8  30   8  31  14
M  ISO  8  32  14  33  13  34  13  35  13  36  13  37  13  38  13  39  13
M  ISO  1  40  13
M  END
>  <minimizedAffinity>  (1) 
-4.98666573

>  <minimizedRMSD>  (1) 
0.465950936

$$$$
