
     RDKit          3D

 38 41  0  0  0  0  0  0  0  0999 V2000
   44.1430   24.4790   36.0720 C   0  0  0  0  0  0  0  0  0  0  0  0
   41.0090   22.5580   37.0150 C   0  0  0  0  0  0  0  0  0  0  0  0
   41.8580   23.6100   36.7010 C   0  0  0  0  0  0  0  0  0  0  0  0
   43.2110   23.3670   36.4120 C   0  0  0  0  0  0  0  0  0  0  0  0
   43.6220   22.0490   36.4590 N   0  0  0  0  0  0  0  0  0  0  0  0
   42.7790   21.0420   36.7660 C   0  0  0  0  0  0  0  0  0  0  0  0
   41.4950   21.3240   37.0360 N   0  0  0  0  0  0  0  0  0  0  0  0
   39.6140   22.8560   37.3090 C   0  0  0  0  0  0  0  0  0  0  0  0
   38.5810   22.8020   36.3870 C   0  0  0  0  0  0  0  0  0  0  0  0
   37.4710   23.1560   37.1050 C   0  0  0  0  0  0  0  0  0  0  0  0
   37.8530   23.4130   38.4270 C   0  0  0  0  0  0  0  0  0  0  0  0
   39.1560   23.2140   38.4810 O   0  0  0  0  0  0  0  0  0  0  0  0
   44.9560   24.8580   37.2080 N   0  0  0  0  0  0  0  0  0  0  0  0
   44.6720   25.4800   38.3290 N   0  0  0  0  0  0  0  0  0  0  0  0
   45.7170   25.6360   39.1260 C   0  0  0  0  0  0  0  0  0  0  0  0
   46.8120   25.0600   38.4720 C   0  0  0  0  0  0  0  0  0  0  0  0
   46.2740   24.5950   37.2880 C   0  0  0  0  0  0  0  0  0  0  0  0
   47.1700   23.9330   36.3690 N   0  0  0  0  0  0  0  0  0  0  0  0
   47.3610   22.6060   36.6300 C   0  0  0  0  0  0  0  0  0  0  0  0
   48.1860   21.8370   35.8440 C   0  0  0  0  0  0  0  0  0  0  0  0
   48.8110   22.4670   34.7820 C   0  0  0  0  0  0  0  0  0  0  0  0
   49.6810   21.7580   33.9160 N   0  0  0  0  0  0  0  0  0  0  0  0
   48.6070   23.7720   34.5480 N   0  0  0  0  0  0  0  0  0  0  0  0
   47.7980   24.5200   35.3200 C   0  0  0  0  0  0  0  0  0  0  0  0
   47.5420   25.7420   35.1850 O   0  0  0  0  0  0  0  0  0  0  0  0
   44.8023   24.1547   35.2533 H   0  0  0  0  0  0  0  0  0  0  0  0
   43.5436   25.3509   35.7712 H   0  0  0  0  0  0  0  0  0  0  0  0
   41.4696   24.6389   36.6783 H   0  0  0  0  0  0  0  0  0  0  0  0
   43.1392   20.0030   36.7947 H   0  0  0  0  0  0  0  0  0  0  0  0
   38.6397   22.5355   35.3214 H   0  0  0  0  0  0  0  0  0  0  0  0
   36.4473   23.2269   36.7086 H   0  0  0  0  0  0  0  0  0  0  0  0
   37.1975   23.7197   39.2554 H   0  0  0  0  0  0  0  0  0  0  0  0
   45.7236   26.1240   40.1118 H   0  0  0  0  0  0  0  0  0  0  0  0
   47.8538   24.9934   38.8186 H   0  0  0  0  0  0  0  0  0  0  0  0
   46.8452   22.1442   37.4848 H   0  0  0  0  0  0  0  0  0  0  0  0
   48.3425   20.7679   36.0501 H   0  0  0  0  0  0  0  0  0  0  0  0
   50.1363   22.2456   33.1312 H   0  0  0  0  0  0  0  0  0  0  0  0
   49.8578   20.7553   34.0715 H   0  0  0  0  0  0  0  0  0  0  0  0
  1  4  1  0
  1 13  1  0
  2  7  1  0
  2  8  1  0
  3  2  2  0
  4  5  2  0
  4  3  1  0
  5  6  1  0
  6  7  2  0
  8 12  1  0
  9 10  1  0
  9  8  2  0
 10 11  2  0
 11 12  1  0
 13 17  1  0
 13 14  1  0
 14 15  2  0
 16 15  1  0
 17 16  2  0
 18 19  1  0
 18 17  1  0
 20 19  2  0
 21 20  1  0
 22 21  1  0
 23 21  2  0
 23 24  1  0
 24 18  1  0
 25 24  2  0
  1 26  1  0
  1 27  1  0
  3 28  1  0
  6 29  1  0
  9 30  1  0
 10 31  1  0
 11 32  1  0
 15 33  1  0
 16 34  1  0
 19 35  1  0
 20 36  1  0
 22 37  1  0
 22 38  1  0
M  ISO  8  26   8  27   8  28  14  29  14  30  14  31  14  32  14  33  14
M  ISO  3  34  14  35  14  36  14
M  END
>  <minimizedAffinity>  (1) 
-4.98478413

>  <minimizedRMSD>  (1) 
0.57909745

$$$$
