
     RDKit          3D

 33 36  0  0  0  0  0  0  0  0999 V2000
   41.0910   22.4260   37.0080 C   0  0  0  0  0  0  0  0  0  0  0  0
   42.0030   23.4260   36.6530 C   0  0  0  0  0  0  0  0  0  0  0  0
   43.3370   23.0720   36.3890 C   0  0  0  0  0  0  0  0  0  0  0  0
   43.6630   21.7350   36.4990 N   0  0  0  0  0  0  0  0  0  0  0  0
   42.7590   20.7970   36.8440 C   0  0  0  0  0  0  0  0  0  0  0  0
   41.4940   21.1810   37.0890 N   0  0  0  0  0  0  0  0  0  0  0  0
   39.7130   22.8340   37.2760 C   0  0  0  0  0  0  0  0  0  0  0  0
   38.7040   22.8630   36.3160 C   0  0  0  0  0  0  0  0  0  0  0  0
   37.6050   23.3050   37.0250 C   0  0  0  0  0  0  0  0  0  0  0  0
   37.9780   23.5210   38.3460 C   0  0  0  0  0  0  0  0  0  0  0  0
   39.2540   23.2220   38.4390 O   0  0  0  0  0  0  0  0  0  0  0  0
   44.3350   24.1210   36.0060 C   0  0  0  0  0  0  0  0  0  0  0  0
   44.8810   24.7790   37.1620 N   0  0  0  0  0  0  0  0  0  0  0  0
   44.3980   25.6990   37.9670 N   0  0  0  0  0  0  0  0  0  0  0  0
   45.2270   26.0490   38.9320 C   0  0  0  0  0  0  0  0  0  0  0  0
   46.3890   25.2970   38.7710 C   0  0  0  0  0  0  0  0  0  0  0  0
   46.1110   24.5210   37.6460 C   0  0  0  0  0  0  0  0  0  0  0  0
   47.1390   23.6060   37.2000 N   0  0  0  0  0  0  0  0  0  0  0  0
   47.1690   22.6540   36.2760 C   0  0  0  0  0  0  0  0  0  0  0  0
   48.4200   22.1460   36.3290 N   0  0  0  0  0  0  0  0  0  0  0  0
   49.1260   22.7880   37.2740 C   0  0  0  0  0  0  0  0  0  0  0  0
   48.3200   23.7110   37.8260 N   0  0  0  0  0  0  0  0  0  0  0  0
   41.6801   24.4751   36.5815 H   0  0  0  0  0  0  0  0  0  0  0  0
   43.0500   19.7392   36.9235 H   0  0  0  0  0  0  0  0  0  0  0  0
   38.7676   22.5978   35.2504 H   0  0  0  0  0  0  0  0  0  0  0  0
   36.5977   23.4609   36.6114 H   0  0  0  0  0  0  0  0  0  0  0  0
   37.3281   23.8752   39.1597 H   0  0  0  0  0  0  0  0  0  0  0  0
   45.1539   23.6469   35.4451 H   0  0  0  0  0  0  0  0  0  0  0  0
   43.8226   24.8752   35.3907 H   0  0  0  0  0  0  0  0  0  0  0  0
   45.0363   26.7953   39.7173 H   0  0  0  0  0  0  0  0  0  0  0  0
   47.3032   25.3118   39.3825 H   0  0  0  0  0  0  0  0  0  0  0  0
   46.3505   22.3446   35.6094 H   0  0  0  0  0  0  0  0  0  0  0  0
   50.1738   22.5937   37.5467 H   0  0  0  0  0  0  0  0  0  0  0  0
  1  6  1  0
  1  7  1  0
  2  1  2  0
  3  4  2  0
  3  2  1  0
  4  5  1  0
  5  6  2  0
  7 11  1  0
  8  9  1  0
  8  7  2  0
  9 10  2  0
 10 11  1  0
 12  3  1  0
 12 13  1  0
 13 17  1  0
 13 14  1  0
 14 15  2  0
 16 15  1  0
 17 16  2  0
 18 17  1  0
 18 22  1  0
 19 20  2  0
 19 18  1  0
 20 21  1  0
 21 22  2  0
  2 23  1  0
  5 24  1  0
  8 25  1  0
  9 26  1  0
 10 27  1  0
 12 28  1  0
 12 29  1  0
 15 30  1  0
 16 31  1  0
 19 32  1  0
 21 33  1  0
M  ISO  8  23  14  24  14  25  14  26  14  27  14  28   8  29   8  30  14
M  ISO  3  31  14  32  14  33  14
M  END
>  <minimizedAffinity>  (1) 
-4.99939346

>  <minimizedRMSD>  (1) 
0.458268583

$$$$
