
     RDKit          3D

 32 35  0  0  0  0  0  0  0  0999 V2000
   41.0860   22.4510   37.0060 C   0  0  0  0  0  0  0  0  0  0  0  0
   41.9740   23.4580   36.6520 C   0  0  0  0  0  0  0  0  0  0  0  0
   43.3120   23.1240   36.3810 C   0  0  0  0  0  0  0  0  0  0  0  0
   43.6670   21.8040   36.4830 N   0  0  0  0  0  0  0  0  0  0  0  0
   42.7710   20.8430   36.8320 C   0  0  0  0  0  0  0  0  0  0  0  0
   41.5060   21.2070   37.0820 N   0  0  0  0  0  0  0  0  0  0  0  0
   39.7010   22.8380   37.2810 C   0  0  0  0  0  0  0  0  0  0  0  0
   38.6810   22.8520   36.3320 C   0  0  0  0  0  0  0  0  0  0  0  0
   37.5820   23.2730   37.0290 C   0  0  0  0  0  0  0  0  0  0  0  0
   37.9550   23.5010   38.3580 C   0  0  0  0  0  0  0  0  0  0  0  0
   39.2460   23.2210   38.4460 O   0  0  0  0  0  0  0  0  0  0  0  0
   44.2980   24.1760   35.9970 C   0  0  0  0  0  0  0  0  0  0  0  0
   44.9290   24.7730   37.1540 N   0  0  0  0  0  0  0  0  0  0  0  0
   44.5000   25.6570   38.0260 N   0  0  0  0  0  0  0  0  0  0  0  0
   45.3950   25.9480   38.9520 C   0  0  0  0  0  0  0  0  0  0  0  0
   46.5340   25.1910   38.6800 C   0  0  0  0  0  0  0  0  0  0  0  0
   46.1900   24.4710   37.5430 C   0  0  0  0  0  0  0  0  0  0  0  0
   47.1470   23.5470   36.9450 C   0  0  0  0  0  0  0  0  0  0  0  0
   47.1370   22.7880   35.8350 N   0  0  0  0  0  0  0  0  0  0  0  0
   48.2530   22.1220   35.7360 O   0  0  0  0  0  0  0  0  0  0  0  0
   49.0110   22.4270   36.7700 C   0  0  0  0  0  0  0  0  0  0  0  0
   48.3300   23.3190   37.5370 N   0  0  0  0  0  0  0  0  0  0  0  0
   41.6351   24.5023   36.5846 H   0  0  0  0  0  0  0  0  0  0  0  0
   43.0779   19.7894   36.9075 H   0  0  0  0  0  0  0  0  0  0  0  0
   38.7449   22.5856   35.2667 H   0  0  0  0  0  0  0  0  0  0  0  0
   36.5726   23.4096   36.6136 H   0  0  0  0  0  0  0  0  0  0  0  0
   37.3016   23.8463   39.1727 H   0  0  0  0  0  0  0  0  0  0  0  0
   45.0741   23.7216   35.3636 H   0  0  0  0  0  0  0  0  0  0  0  0
   43.7583   24.9678   35.4569 H   0  0  0  0  0  0  0  0  0  0  0  0
   45.2661   26.6562   39.7837 H   0  0  0  0  0  0  0  0  0  0  0  0
   47.4830   25.1691   39.2358 H   0  0  0  0  0  0  0  0  0  0  0  0
   50.0161   22.0303   36.9758 H   0  0  0  0  0  0  0  0  0  0  0  0
  1  6  1  0
  1  7  1  0
  2  1  2  0
  3  4  2  0
  3  2  1  0
  4  5  1  0
  5  6  2  0
  7 11  1  0
  8  9  1  0
  8  7  2  0
  9 10  2  0
 10 11  1  0
 12  3  1  0
 12 13  1  0
 13 17  1  0
 13 14  1  0
 14 15  2  0
 16 15  1  0
 17 16  2  0
 18 22  1  0
 18 17  1  0
 19 18  2  0
 20 19  1  0
 20 21  1  0
 21 22  2  0
  2 23  1  0
  5 24  1  0
  8 25  1  0
  9 26  1  0
 10 27  1  0
 12 28  1  0
 12 29  1  0
 15 30  1  0
 16 31  1  0
 21 32  1  0
M  ISO  8  23  14  24  14  25  14  26  14  27  14  28   8  29   8  30  14
M  ISO  2  31  14  32  14
M  END
>  <minimizedAffinity>  (1) 
-4.91222191

>  <minimizedRMSD>  (1) 
0.295201778

$$$$
