
     RDKit          3D

 34 37  0  0  0  0  0  0  0  0999 V2000
   44.3110   24.1540   36.0100 C   0  0  0  0  0  0  0  0  0  0  0  0
   41.0990   22.4350   37.0100 C   0  0  0  0  0  0  0  0  0  0  0  0
   41.9930   23.4310   36.6590 C   0  0  0  0  0  0  0  0  0  0  0  0
   43.3260   23.1030   36.3890 C   0  0  0  0  0  0  0  0  0  0  0  0
   43.6640   21.7820   36.4930 N   0  0  0  0  0  0  0  0  0  0  0  0
   42.7760   20.8260   36.8370 C   0  0  0  0  0  0  0  0  0  0  0  0
   41.5090   21.1940   37.0860 N   0  0  0  0  0  0  0  0  0  0  0  0
   39.7140   22.8330   37.2820 C   0  0  0  0  0  0  0  0  0  0  0  0
   38.7020   22.8520   36.3360 C   0  0  0  0  0  0  0  0  0  0  0  0
   37.6040   23.2820   37.0320 C   0  0  0  0  0  0  0  0  0  0  0  0
   37.9660   23.5070   38.3450 C   0  0  0  0  0  0  0  0  0  0  0  0
   39.2460   23.2210   38.4390 O   0  0  0  0  0  0  0  0  0  0  0  0
   44.9120   24.7720   37.1570 N   0  0  0  0  0  0  0  0  0  0  0  0
   44.4170   25.6640   37.9960 N   0  0  0  0  0  0  0  0  0  0  0  0
   45.2860   26.0030   38.9350 C   0  0  0  0  0  0  0  0  0  0  0  0
   46.4520   25.3040   38.7360 C   0  0  0  0  0  0  0  0  0  0  0  0
   46.1680   24.5380   37.6000 C   0  0  0  0  0  0  0  0  0  0  0  0
   47.1250   23.6130   36.9940 C   0  0  0  0  0  0  0  0  0  0  0  0
   48.3980   23.3240   37.4430 C   0  0  0  0  0  0  0  0  0  0  0  0
   49.0230   22.4060   36.6270 C   0  0  0  0  0  0  0  0  0  0  0  0
   48.1190   22.1440   35.6830 N   0  0  0  0  0  0  0  0  0  0  0  0
   47.0470   22.8430   35.9130 N   0  0  0  0  0  0  0  0  0  0  0  0
   45.1024   23.6944   35.3998 H   0  0  0  0  0  0  0  0  0  0  0  0
   43.7745   24.9332   35.4487 H   0  0  0  0  0  0  0  0  0  0  0  0
   41.6571   24.4763   36.5925 H   0  0  0  0  0  0  0  0  0  0  0  0
   43.0823   19.7721   36.9115 H   0  0  0  0  0  0  0  0  0  0  0  0
   38.7659   22.5835   35.2712 H   0  0  0  0  0  0  0  0  0  0  0  0
   36.5970   23.4249   36.6129 H   0  0  0  0  0  0  0  0  0  0  0  0
   37.3105   23.8577   39.1558 H   0  0  0  0  0  0  0  0  0  0  0  0
   45.1043   26.7267   39.7433 H   0  0  0  0  0  0  0  0  0  0  0  0
   47.3805   25.3382   39.3249 H   0  0  0  0  0  0  0  0  0  0  0  0
   48.8555   23.7699   38.3385 H   0  0  0  0  0  0  0  0  0  0  0  0
   50.0345   21.9863   36.7307 H   0  0  0  0  0  0  0  0  0  0  0  0
   48.2490   21.4917   34.8966 H   0  0  0  0  0  0  0  0  0  0  0  0
  1  4  1  0
  1 13  1  0
  2  7  1  0
  2  8  1  0
  3  2  2  0
  4  5  2  0
  4  3  1  0
  5  6  1  0
  6  7  2  0
  8 12  1  0
  9 10  1  0
  9  8  2  0
 10 11  2  0
 11 12  1  0
 13 17  1  0
 13 14  1  0
 14 15  2  0
 16 15  1  0
 17 16  2  0
 18 19  1  0
 18 17  1  0
 20 19  2  0
 21 22  1  0
 21 20  1  0
 22 18  2  0
  1 23  1  0
  1 24  1  0
  3 25  1  0
  6 26  1  0
  9 27  1  0
 10 28  1  0
 11 29  1  0
 15 30  1  0
 16 31  1  0
 19 32  1  0
 20 33  1  0
 21 34  1  0
M  ISO  8  23   8  24   8  25  14  26  14  27  14  28  14  29  14  30  14
M  ISO  4  31  14  32  14  33  14  34   9
M  END
>  <minimizedAffinity>  (1) 
-4.94003963

>  <minimizedRMSD>  (1) 
0.341872782

$$$$
