
     RDKit          3D

 34 37  0  0  0  0  0  0  0  0999 V2000
   41.0160   22.5250   37.0380 C   0  0  0  0  0  0  0  0  0  0  0  0
   41.8770   23.5520   36.7100 C   0  0  0  0  0  0  0  0  0  0  0  0
   43.2240   23.3280   36.4110 C   0  0  0  0  0  0  0  0  0  0  0  0
   43.6070   22.0180   36.4690 N   0  0  0  0  0  0  0  0  0  0  0  0
   42.7670   21.0170   36.7890 C   0  0  0  0  0  0  0  0  0  0  0  0
   41.4940   21.3080   37.0640 N   0  0  0  0  0  0  0  0  0  0  0  0
   39.6260   22.8480   37.3320 C   0  0  0  0  0  0  0  0  0  0  0  0
   38.5930   22.8060   36.4110 C   0  0  0  0  0  0  0  0  0  0  0  0
   37.4800   23.1820   37.1230 C   0  0  0  0  0  0  0  0  0  0  0  0
   37.8620   23.4350   38.4260 C   0  0  0  0  0  0  0  0  0  0  0  0
   39.1560   23.2200   38.4940 O   0  0  0  0  0  0  0  0  0  0  0  0
   44.1230   24.4710   36.0700 C   0  0  0  0  0  0  0  0  0  0  0  0
   44.9310   24.8520   37.1900 N   0  0  0  0  0  0  0  0  0  0  0  0
   44.6180   25.6790   38.1900 N   0  0  0  0  0  0  0  0  0  0  0  0
   45.6250   25.8320   39.0390 C   0  0  0  0  0  0  0  0  0  0  0  0
   46.6920   25.0730   38.6080 C   0  0  0  0  0  0  0  0  0  0  0  0
   46.2170   24.4650   37.4360 C   0  0  0  0  0  0  0  0  0  0  0  0
   47.1130   23.5720   36.7180 C   0  0  0  0  0  0  0  0  0  0  0  0
   48.3010   23.0240   37.1870 C   0  0  0  0  0  0  0  0  0  0  0  0
   48.8890   22.2600   36.2520 N   0  0  0  0  0  0  0  0  0  0  0  0
   48.1100   22.2840   35.1490 C   0  0  0  0  0  0  0  0  0  0  0  0
   47.0770   23.0710   35.4790 N   0  0  0  0  0  0  0  0  0  0  0  0
   41.4905   24.5815   36.6829 H   0  0  0  0  0  0  0  0  0  0  0  0
   43.1233   19.9769   36.8234 H   0  0  0  0  0  0  0  0  0  0  0  0
   38.6507   22.5327   35.3471 H   0  0  0  0  0  0  0  0  0  0  0  0
   36.4586   23.2671   36.7235 H   0  0  0  0  0  0  0  0  0  0  0  0
   37.2073   23.7555   39.2498 H   0  0  0  0  0  0  0  0  0  0  0  0
   44.7799   24.1742   35.2391 H   0  0  0  0  0  0  0  0  0  0  0  0
   43.4981   25.3303   35.7854 H   0  0  0  0  0  0  0  0  0  0  0  0
   45.6112   26.4621   39.9406 H   0  0  0  0  0  0  0  0  0  0  0  0
   47.6831   24.9685   39.0736 H   0  0  0  0  0  0  0  0  0  0  0  0
   48.7075   23.1942   38.1948 H   0  0  0  0  0  0  0  0  0  0  0  0
   48.2848   21.7711   34.1917 H   0  0  0  0  0  0  0  0  0  0  0  0
   46.3089   23.2757   34.8240 H   0  0  0  0  0  0  0  0  0  0  0  0
  1  6  1  0
  1  7  1  0
  2  1  2  0
  3  4  2  0
  3  2  1  0
  4  5  1  0
  5  6  2  0
  7 11  1  0
  8  9  1  0
  8  7  2  0
  9 10  2  0
 10 11  1  0
 12  3  1  0
 12 13  1  0
 13 17  1  0
 13 14  1  0
 14 15  2  0
 16 15  1  0
 17 16  2  0
 18 19  2  0
 18 17  1  0
 20 19  1  0
 21 22  1  0
 21 20  2  0
 22 18  1  0
  2 23  1  0
  5 24  1  0
  8 25  1  0
  9 26  1  0
 10 27  1  0
 12 28  1  0
 12 29  1  0
 15 30  1  0
 16 31  1  0
 19 32  1  0
 21 33  1  0
 22 34  1  0
M  ISO  8  23  14  24  14  25  14  26  14  27  14  28   8  29   8  30  14
M  ISO  4  31  14  32  14  33  14  34   9
M  END
>  <minimizedAffinity>  (1) 
-4.9209156

>  <minimizedRMSD>  (1) 
0.204727098

$$$$
