
     RDKit          3D

 34 37  0  0  0  0  0  0  0  0999 V2000
   41.0860   22.4470   37.0610 C   0  0  0  0  0  0  0  0  0  0  0  0
   42.0750   23.3380   36.6820 C   0  0  0  0  0  0  0  0  0  0  0  0
   43.3870   22.9100   36.4510 C   0  0  0  0  0  0  0  0  0  0  0  0
   43.6100   21.5720   36.6250 N   0  0  0  0  0  0  0  0  0  0  0  0
   42.6360   20.7140   36.9950 C   0  0  0  0  0  0  0  0  0  0  0  0
   41.3970   21.1840   37.2020 N   0  0  0  0  0  0  0  0  0  0  0  0
   39.7350   22.9680   37.2810 C   0  0  0  0  0  0  0  0  0  0  0  0
   38.8420   23.2860   36.2750 C   0  0  0  0  0  0  0  0  0  0  0  0
   37.7230   23.7290   36.9460 C   0  0  0  0  0  0  0  0  0  0  0  0
   37.9690   23.6650   38.3050 C   0  0  0  0  0  0  0  0  0  0  0  0
   39.1890   23.2020   38.4450 O   0  0  0  0  0  0  0  0  0  0  0  0
   44.4410   23.8930   36.0450 C   0  0  0  0  0  0  0  0  0  0  0  0
   44.9470   24.6100   37.1790 N   0  0  0  0  0  0  0  0  0  0  0  0
   44.3280   25.4800   37.9570 N   0  0  0  0  0  0  0  0  0  0  0  0
   45.1200   25.9760   38.9010 C   0  0  0  0  0  0  0  0  0  0  0  0
   46.3700   25.4130   38.7700 C   0  0  0  0  0  0  0  0  0  0  0  0
   46.2150   24.5620   37.6790 C   0  0  0  0  0  0  0  0  0  0  0  0
   47.2680   23.6660   37.0780 C   0  0  0  0  0  0  0  0  0  0  0  0
   48.5440   23.9930   37.1700 C   0  0  0  0  0  0  0  0  0  0  0  0
   49.5880   23.3140   36.6950 C   0  0  0  0  0  0  0  0  0  0  0  0
   49.1380   22.1160   36.0320 C   0  0  0  0  0  0  0  0  0  0  0  0
   47.2510   22.1870   36.2170 S   0  0  0  0  0  0  0  0  0  0  0  0
   41.8250   24.4023   36.5601 H   0  0  0  0  0  0  0  0  0  0  0  0
   42.8554   19.6440   37.1250 H   0  0  0  0  0  0  0  0  0  0  0  0
   38.9906   23.2042   35.1882 H   0  0  0  0  0  0  0  0  0  0  0  0
   36.7897   24.0757   36.4784 H   0  0  0  0  0  0  0  0  0  0  0  0
   37.2768   23.9473   39.1120 H   0  0  0  0  0  0  0  0  0  0  0  0
   45.2693   23.3524   35.5637 H   0  0  0  0  0  0  0  0  0  0  0  0
   43.9924   24.6161   35.3480 H   0  0  0  0  0  0  0  0  0  0  0  0
   44.8261   26.7143   39.6616 H   0  0  0  0  0  0  0  0  0  0  0  0
   47.2694   25.5917   39.3777 H   0  0  0  0  0  0  0  0  0  0  0  0
   48.7708   24.9310   37.6979 H   0  0  0  0  0  0  0  0  0  0  0  0
   50.6391   23.6227   36.7944 H   0  0  0  0  0  0  0  0  0  0  0  0
   49.7446   21.3438   35.5363 H   0  0  0  0  0  0  0  0  0  0  0  0
  1  6  1  0
  1  7  1  0
  2  1  2  0
  3  4  2  0
  3  2  1  0
  4  5  1  0
  5  6  2  0
  7 11  1  0
  8  9  1  0
  8  7  2  0
  9 10  2  0
 10 11  1  0
 12  3  1  0
 12 13  1  0
 13 17  1  0
 13 14  1  0
 14 15  2  0
 16 15  1  0
 17 16  2  0
 18 19  2  0
 18 17  1  0
 20 19  1  0
 21 22  1  0
 21 20  2  0
 22 18  1  0
  2 23  1  0
  5 24  1  0
  8 25  1  0
  9 26  1  0
 10 27  1  0
 12 28  1  0
 12 29  1  0
 15 30  1  0
 16 31  1  0
 19 32  1  0
 20 33  1  0
 21 34  1  0
M  ISO  8  23  14  24  14  25  14  26  14  27  14  28   8  29   8  30  14
M  ISO  4  31  14  32  14  33  14  34  14
M  END
>  <minimizedAffinity>  (1) 
-4.93064785

>  <minimizedRMSD>  (1) 
0.530018926

$$$$
