
     RDKit          3D

 28 30  0  0  0  0  0  0  0  0999 V2000
   41.0690   22.4600   37.0000 C   0  0  0  0  0  0  0  0  0  0  0  0
   41.9640   23.4740   36.6320 C   0  0  0  0  0  0  0  0  0  0  0  0
   43.2950   23.1230   36.3630 C   0  0  0  0  0  0  0  0  0  0  0  0
   43.6460   21.7980   36.4780 N   0  0  0  0  0  0  0  0  0  0  0  0
   42.7560   20.8480   36.8350 C   0  0  0  0  0  0  0  0  0  0  0  0
   41.4860   21.2160   37.0850 N   0  0  0  0  0  0  0  0  0  0  0  0
   39.6850   22.8460   37.2760 C   0  0  0  0  0  0  0  0  0  0  0  0
   38.6650   22.8650   36.3400 C   0  0  0  0  0  0  0  0  0  0  0  0
   37.5690   23.2850   37.0420 C   0  0  0  0  0  0  0  0  0  0  0  0
   37.9410   23.5090   38.3700 C   0  0  0  0  0  0  0  0  0  0  0  0
   39.2340   23.2290   38.4650 O   0  0  0  0  0  0  0  0  0  0  0  0
   44.2830   24.1770   35.9670 C   0  0  0  0  0  0  0  0  0  0  0  0
   44.9710   24.7220   37.1100 N   0  0  0  0  0  0  0  0  0  0  0  0
   44.6020   25.5710   38.0420 N   0  0  0  0  0  0  0  0  0  0  0  0
   45.5520   25.8100   38.9280 C   0  0  0  0  0  0  0  0  0  0  0  0
   46.6670   25.0620   38.5740 C   0  0  0  0  0  0  0  0  0  0  0  0
   46.2390   24.4100   37.4390 C   0  0  0  0  0  0  0  0  0  0  0  0
   47.3060   23.2710   36.5300 S   0  0  0  0  0  0  0  0  0  0  0  0
   41.6306   24.5195   36.5560 H   0  0  0  0  0  0  0  0  0  0  0  0
   43.0625   19.7950   36.9198 H   0  0  0  0  0  0  0  0  0  0  0  0
   38.7230   22.6019   35.2735 H   0  0  0  0  0  0  0  0  0  0  0  0
   36.5592   23.4238   36.6285 H   0  0  0  0  0  0  0  0  0  0  0  0
   37.2852   23.8528   39.1834 H   0  0  0  0  0  0  0  0  0  0  0  0
   45.0227   23.7332   35.2844 H   0  0  0  0  0  0  0  0  0  0  0  0
   43.7333   24.9942   35.4771 H   0  0  0  0  0  0  0  0  0  0  0  0
   45.4736   26.4834   39.7942 H   0  0  0  0  0  0  0  0  0  0  0  0
   47.6452   25.0047   39.0739 H   0  0  0  0  0  0  0  0  0  0  0  0
   48.0202   22.5086   37.4163 H   0  0  0  0  0  0  0  0  0  0  0  0
  1  6  1  0
  1  7  1  0
  2  1  2  0
  3  4  2  0
  3  2  1  0
  4  5  1  0
  5  6  2  0
  7 11  1  0
  8  9  1  0
  8  7  2  0
  9 10  2  0
 10 11  1  0
 12  3  1  0
 12 13  1  0
 13 17  1  0
 13 14  1  0
 14 15  2  0
 16 15  1  0
 17 16  2  0
 18 17  1  0
  2 19  1  0
  5 20  1  0
  8 21  1  0
  9 22  1  0
 10 23  1  0
 12 24  1  0
 12 25  1  0
 15 26  1  0
 16 27  1  0
 18 28  1  0
M  ISO  8  19  14  20  14  21  14  22  14  23  14  24   8  25   8  26  14
M  ISO  2  27  14  28  11
M  END
>  <minimizedAffinity>  (1) 
-4.83960676

>  <minimizedRMSD>  (1) 
0.0849704668

$$$$
