
     RDKit          3D

 33 36  0  0  0  0  0  0  0  0999 V2000
   41.0590   22.4890   37.0150 C   0  0  0  0  0  0  0  0  0  0  0  0
   41.9350   23.5050   36.6760 C   0  0  0  0  0  0  0  0  0  0  0  0
   43.2760   23.2330   36.3870 C   0  0  0  0  0  0  0  0  0  0  0  0
   43.6470   21.9200   36.4630 N   0  0  0  0  0  0  0  0  0  0  0  0
   42.7760   20.9380   36.7970 C   0  0  0  0  0  0  0  0  0  0  0  0
   41.5000   21.2610   37.0630 N   0  0  0  0  0  0  0  0  0  0  0  0
   39.6650   22.8540   37.3020 C   0  0  0  0  0  0  0  0  0  0  0  0
   38.6460   22.8390   36.3670 C   0  0  0  0  0  0  0  0  0  0  0  0
   37.5460   23.2440   37.0730 C   0  0  0  0  0  0  0  0  0  0  0  0
   37.9110   23.4890   38.3810 C   0  0  0  0  0  0  0  0  0  0  0  0
   39.2020   23.2360   38.4610 O   0  0  0  0  0  0  0  0  0  0  0  0
   44.2040   24.3480   36.0260 C   0  0  0  0  0  0  0  0  0  0  0  0
   44.9680   24.7820   37.1630 N   0  0  0  0  0  0  0  0  0  0  0  0
   44.6110   25.5460   38.1890 N   0  0  0  0  0  0  0  0  0  0  0  0
   45.5890   25.7500   39.0450 C   0  0  0  0  0  0  0  0  0  0  0  0
   46.7080   25.0830   38.5880 C   0  0  0  0  0  0  0  0  0  0  0  0
   46.2770   24.4820   37.3970 C   0  0  0  0  0  0  0  0  0  0  0  0
   47.1490   23.6400   36.5350 C   0  0  0  0  0  0  0  0  0  0  0  0
   48.0270   24.2530   35.5760 C   0  0  0  0  0  0  0  0  0  0  0  0
   48.8500   22.8190   34.8020 S   0  0  0  0  0  0  0  0  0  0  0  0
   47.8720   21.6170   35.8990 C   0  0  0  0  0  0  0  0  0  0  0  0
   47.2360   22.3040   36.5240 N   0  0  0  0  0  0  0  0  0  0  0  0
   41.5712   24.5422   36.6332 H   0  0  0  0  0  0  0  0  0  0  0  0
   43.1091   19.8910   36.8496 H   0  0  0  0  0  0  0  0  0  0  0  0
   38.7059   22.5652   35.3033 H   0  0  0  0  0  0  0  0  0  0  0  0
   36.5315   23.3564   36.6628 H   0  0  0  0  0  0  0  0  0  0  0  0
   37.2544   23.8283   39.1957 H   0  0  0  0  0  0  0  0  0  0  0  0
   44.8937   24.0004   35.2427 H   0  0  0  0  0  0  0  0  0  0  0  0
   43.6031   25.1968   35.6678 H   0  0  0  0  0  0  0  0  0  0  0  0
   45.5260   26.3486   39.9657 H   0  0  0  0  0  0  0  0  0  0  0  0
   47.7049   25.0344   39.0504 H   0  0  0  0  0  0  0  0  0  0  0  0
   48.1682   25.3226   35.3614 H   0  0  0  0  0  0  0  0  0  0  0  0
   47.9161   20.5181   35.9189 H   0  0  0  0  0  0  0  0  0  0  0  0
  1  6  1  0
  1  7  1  0
  2  1  2  0
  3  4  2  0
  3  2  1  0
  4  5  1  0
  5  6  2  0
  7 11  1  0
  8  9  1  0
  8  7  2  0
  9 10  2  0
 10 11  1  0
 12  3  1  0
 12 13  1  0
 13 17  1  0
 13 14  1  0
 14 15  2  0
 16 15  1  0
 17 16  2  0
 18 17  1  0
 19 18  2  0
 20 19  1  0
 20 21  1  0
 21 22  2  0
 22 18  1  0
  2 23  1  0
  5 24  1  0
  8 25  1  0
  9 26  1  0
 10 27  1  0
 12 28  1  0
 12 29  1  0
 15 30  1  0
 16 31  1  0
 19 32  1  0
 21 33  1  0
M  ISO  8  23  14  24  14  25  14  26  14  27  14  28   8  29   8  30  14
M  ISO  3  31  14  32  14  33  14
M  END
>  <minimizedAffinity>  (1) 
-4.91851521

>  <minimizedRMSD>  (1) 
0.133233041

$$$$
