
     RDKit          3D

 45 49  0  0  0  0  0  0  0  0999 V2000
   44.1640   24.3760   36.0260 C   0  0  0  0  0  0  0  0  0  0  0  0
   41.0400   22.4900   37.0320 C   0  0  0  0  0  0  0  0  0  0  0  0
   41.9060   23.5040   36.6920 C   0  0  0  0  0  0  0  0  0  0  0  0
   43.2440   23.2550   36.3920 C   0  0  0  0  0  0  0  0  0  0  0  0
   43.6250   21.9400   36.4600 N   0  0  0  0  0  0  0  0  0  0  0  0
   42.7660   20.9540   36.7950 C   0  0  0  0  0  0  0  0  0  0  0  0
   41.4890   21.2650   37.0730 N   0  0  0  0  0  0  0  0  0  0  0  0
   39.6430   22.8530   37.3330 C   0  0  0  0  0  0  0  0  0  0  0  0
   38.6130   22.8150   36.4180 C   0  0  0  0  0  0  0  0  0  0  0  0
   37.5180   23.2250   37.1210 C   0  0  0  0  0  0  0  0  0  0  0  0
   37.8970   23.4940   38.4090 C   0  0  0  0  0  0  0  0  0  0  0  0
   39.1890   23.2510   38.4800 O   0  0  0  0  0  0  0  0  0  0  0  0
   44.9480   24.8040   37.1440 N   0  0  0  0  0  0  0  0  0  0  0  0
   44.6260   25.5870   38.1580 N   0  0  0  0  0  0  0  0  0  0  0  0
   45.6080   25.7680   39.0130 C   0  0  0  0  0  0  0  0  0  0  0  0
   46.7030   25.0530   38.5570 C   0  0  0  0  0  0  0  0  0  0  0  0
   46.2400   24.4580   37.3710 C   0  0  0  0  0  0  0  0  0  0  0  0
   47.0860   23.5770   36.5150 C   0  0  0  0  0  0  0  0  0  0  0  0
   48.1330   24.1310   35.7230 C   0  0  0  0  0  0  0  0  0  0  0  0
   48.8360   22.6700   34.8950 S   0  0  0  0  0  0  0  0  0  0  0  0
   47.5890   21.5290   35.7580 C   0  0  0  0  0  0  0  0  0  0  0  0
   46.9950   22.2590   36.3780 N   0  0  0  0  0  0  0  0  0  0  0  0
   47.4440   20.1020   35.6500 N   0  0  0  0  0  0  0  0  0  0  0  0
   47.1680   19.2020   34.5740 C   0  0  0  0  0  0  0  0  0  0  0  0
   45.9880   18.4160   35.1560 C   0  0  0  0  0  0  0  0  0  0  0  0
   46.2030   18.4850   36.6720 C   0  0  0  0  0  0  0  0  0  0  0  0
   47.5680   19.1780   36.7690 C   0  0  0  0  0  0  0  0  0  0  0  0
   44.8389   24.0366   35.2264 H   0  0  0  0  0  0  0  0  0  0  0  0
   43.5519   25.2263   35.6909 H   0  0  0  0  0  0  0  0  0  0  0  0
   41.5324   24.5380   36.6561 H   0  0  0  0  0  0  0  0  0  0  0  0
   43.1073   19.9092   36.8398 H   0  0  0  0  0  0  0  0  0  0  0  0
   38.6626   22.5204   35.3593 H   0  0  0  0  0  0  0  0  0  0  0  0
   36.4987   23.3233   36.7193 H   0  0  0  0  0  0  0  0  0  0  0  0
   37.2484   23.8448   39.2253 H   0  0  0  0  0  0  0  0  0  0  0  0
   45.5673   26.3783   39.9273 H   0  0  0  0  0  0  0  0  0  0  0  0
   47.6997   24.9704   39.0150 H   0  0  0  0  0  0  0  0  0  0  0  0
   48.4409   25.1832   35.6338 H   0  0  0  0  0  0  0  0  0  0  0  0
   48.0264   18.5473   34.3630 H   0  0  0  0  0  0  0  0  0  0  0  0
   46.9597   19.6918   33.6113 H   0  0  0  0  0  0  0  0  0  0  0  0
   45.0321   18.8825   34.8757 H   0  0  0  0  0  0  0  0  0  0  0  0
   45.9447   17.3822   34.7827 H   0  0  0  0  0  0  0  0  0  0  0  0
   45.4171   19.0798   37.1605 H   0  0  0  0  0  0  0  0  0  0  0  0
   46.1666   17.5050   37.1703 H   0  0  0  0  0  0  0  0  0  0  0  0
   48.3988   18.4710   36.6281 H   0  0  0  0  0  0  0  0  0  0  0  0
   47.7904   19.6438   37.7404 H   0  0  0  0  0  0  0  0  0  0  0  0
  1  4  1  0
  1 13  1  0
  2  7  1  0
  2  8  1  0
  3  2  2  0
  4  5  2  0
  4  3  1  0
  5  6  1  0
  6  7  2  0
  8 12  1  0
  9 10  1  0
  9  8  2  0
 10 11  2  0
 11 12  1  0
 13 17  1  0
 13 14  1  0
 14 15  2  0
 16 15  1  0
 17 16  2  0
 18 17  1  0
 19 18  2  0
 20 19  1  0
 20 21  1  0
 21 22  2  0
 22 18  1  0
 23 21  1  0
 23 27  1  0
 24 25  1  0
 24 23  1  0
 25 26  1  0
 26 27  1  0
  1 28  1  0
  1 29  1  0
  3 30  1  0
  6 31  1  0
  9 32  1  0
 10 33  1  0
 11 34  1  0
 15 35  1  0
 16 36  1  0
 19 37  1  0
 24 38  1  0
 24 39  1  0
 25 40  1  0
 25 41  1  0
 26 42  1  0
 26 43  1  0
 27 44  1  0
 27 45  1  0
M  ISO  8  28   8  29   8  30  14  31  14  32  14  33  14  34  14  35  14
M  ISO  8  36  14  37  14  38  13  39  13  40  13  41  13  42  13  43  13
M  ISO  2  44  13  45  13
M  END
>  <minimizedAffinity>  (1) 
-5.23919773

>  <minimizedRMSD>  (1) 
0.370237678

$$$$
