
     RDKit          3D

 41 45  0  0  0  0  0  0  0  0999 V2000
   44.9500   24.7850   37.1050 N   0  0  0  0  0  0  0  0  0  0  0  0
   44.5610   25.5990   38.0710 N   0  0  0  0  0  0  0  0  0  0  0  0
   45.5160   25.8420   38.9540 C   0  0  0  0  0  0  0  0  0  0  0  0
   46.6370   25.1440   38.5670 C   0  0  0  0  0  0  0  0  0  0  0  0
   46.2470   24.4880   37.3980 C   0  0  0  0  0  0  0  0  0  0  0  0
   47.1410   23.5990   36.6050 C   0  0  0  0  0  0  0  0  0  0  0  0
   48.1380   24.1770   35.7340 C   0  0  0  0  0  0  0  0  0  0  0  0
   48.9390   22.6900   35.0170 S   0  0  0  0  0  0  0  0  0  0  0  0
   47.8020   21.5560   36.0060 C   0  0  0  0  0  0  0  0  0  0  0  0
   47.1610   22.2720   36.5750 N   0  0  0  0  0  0  0  0  0  0  0  0
   47.9010   20.0640   35.9050 C   0  0  0  0  0  0  0  0  0  0  0  0
   46.9470   19.3000   36.5450 C   0  0  0  0  0  0  0  0  0  0  0  0
   47.0980   17.9360   36.4100 C   0  0  0  0  0  0  0  0  0  0  0  0
   48.1030   17.3840   35.7070 N   0  0  0  0  0  0  0  0  0  0  0  0
   49.0070   18.1690   35.1030 C   0  0  0  0  0  0  0  0  0  0  0  0
   48.9080   19.5180   35.1990 N   0  0  0  0  0  0  0  0  0  0  0  0
   44.2170   24.2860   35.9740 C   0  0  0  0  0  0  0  0  0  0  0  0
   41.0620   22.4800   37.0080 C   0  0  0  0  0  0  0  0  0  0  0  0
   41.9480   23.4730   36.6490 C   0  0  0  0  0  0  0  0  0  0  0  0
   43.2840   23.1880   36.3590 C   0  0  0  0  0  0  0  0  0  0  0  0
   43.6470   21.8750   36.4530 N   0  0  0  0  0  0  0  0  0  0  0  0
   42.7670   20.9110   36.8050 C   0  0  0  0  0  0  0  0  0  0  0  0
   41.4950   21.2470   37.0730 N   0  0  0  0  0  0  0  0  0  0  0  0
   39.6780   22.8530   37.2980 C   0  0  0  0  0  0  0  0  0  0  0  0
   38.6600   22.8520   36.3480 C   0  0  0  0  0  0  0  0  0  0  0  0
   37.5620   23.2660   37.0730 C   0  0  0  0  0  0  0  0  0  0  0  0
   37.9330   23.4970   38.3890 C   0  0  0  0  0  0  0  0  0  0  0  0
   39.2140   23.2280   38.4490 O   0  0  0  0  0  0  0  0  0  0  0  0
   45.4292   26.4876   39.8404 H   0  0  0  0  0  0  0  0  0  0  0  0
   47.6171   25.1105   39.0652 H   0  0  0  0  0  0  0  0  0  0  0  0
   48.3603   25.2381   35.5480 H   0  0  0  0  0  0  0  0  0  0  0  0
   46.1242   19.7472   37.1221 H   0  0  0  0  0  0  0  0  0  0  0  0
   46.3675   17.2730   36.8966 H   0  0  0  0  0  0  0  0  0  0  0  0
   49.8299   17.7181   34.5290 H   0  0  0  0  0  0  0  0  0  0  0  0
   44.9296   23.9027   35.2289 H   0  0  0  0  0  0  0  0  0  0  0  0
   43.6201   25.1129   35.5617 H   0  0  0  0  0  0  0  0  0  0  0  0
   41.5949   24.5131   36.5896 H   0  0  0  0  0  0  0  0  0  0  0  0
   43.0899   19.8616   36.8712 H   0  0  0  0  0  0  0  0  0  0  0  0
   38.7173   22.5865   35.2821 H   0  0  0  0  0  0  0  0  0  0  0  0
   36.5469   23.3935   36.6689 H   0  0  0  0  0  0  0  0  0  0  0  0
   37.2862   23.8357   39.2117 H   0  0  0  0  0  0  0  0  0  0  0  0
  1  5  1  0
  1  2  1  0
  2  3  2  0
  4  3  1  0
  5  4  2  0
  6  5  1  0
  7  6  2  0
  8  7  1  0
  8  9  1  0
  9 10  2  0
 10  6  1  0
 11  9  1  0
 11 12  2  0
 13 12  1  0
 14 13  2  0
 15 16  2  0
 15 14  1  0
 16 11  1  0
 17 20  1  0
 17  1  1  0
 18 23  1  0
 18 24  1  0
 19 18  2  0
 20 21  2  0
 20 19  1  0
 21 22  1  0
 22 23  2  0
 24 28  1  0
 25 26  1  0
 25 24  2  0
 26 27  2  0
 27 28  1  0
  3 29  1  0
  4 30  1  0
  7 31  1  0
 12 32  1  0
 13 33  1  0
 15 34  1  0
 17 35  1  0
 17 36  1  0
 19 37  1  0
 22 38  1  0
 25 39  1  0
 26 40  1  0
 27 41  1  0
M  ISO  8  29  14  30  14  31  14  32  14  33  14  34  14  35   8  36   8
M  ISO  5  37  14  38  14  39  14  40  14  41  14
M  END
>  <minimizedAffinity>  (1) 
-4.94694233

>  <minimizedRMSD>  (1) 
0.20207338

$$$$
