
     RDKit          3D

 30 31  0  0  0  0  0  0  0  0999 V2000
   38.2460   26.5920   34.3020 C   0  0  0  0  0  0  0  0  0  0  0  0
   37.0260   27.3420   34.7430 C   0  0  0  0  0  0  0  0  0  0  0  0
   38.6340   27.0880   32.9250 C   0  0  0  0  0  0  0  0  0  0  0  0
   39.3980   27.0450   35.2040 C   0  0  0  0  0  0  0  0  0  0  0  0
   40.7230   26.8220   34.5420 C   0  0  0  0  0  0  0  0  0  0  0  0
   41.5330   25.7580   34.8060 N   0  0  0  0  0  0  0  0  0  0  0  0
   42.5920   25.8680   34.0700 O   0  0  0  0  0  0  0  0  0  0  0  0
   42.5470   26.9360   33.3290 C   0  0  0  0  0  0  0  0  0  0  0  0
   41.3870   27.5310   33.6220 N   0  0  0  0  0  0  0  0  0  0  0  0
   38.1600   24.8180   34.4140 S   0  0  0  0  0  0  0  0  0  0  0  0
   38.0360   23.9830   38.4040 C   0  0  0  0  0  0  0  0  0  0  0  0
   37.7420   24.5080   37.1340 C   0  0  0  0  0  0  0  0  0  0  0  0
   38.5080   24.1690   36.0380 C   0  0  0  0  0  0  0  0  0  0  0  0
   39.5490   23.3150   36.2480 N   0  0  0  0  0  0  0  0  0  0  0  0
   39.8200   22.8250   37.4570 C   0  0  0  0  0  0  0  0  0  0  0  0
   39.0980   23.1320   38.5330 N   0  0  0  0  0  0  0  0  0  0  0  0
   40.9650   21.9220   37.5340 C   0  0  0  0  0  0  0  0  0  0  0  0
   42.0320   22.2170   36.9400 O   0  0  0  0  0  0  0  0  0  0  0  0
   36.9875   27.3657   35.8421 H   0  0  0  0  0  0  0  0  0  0  0  0
   37.0678   28.3706   34.3553 H   0  0  0  0  0  0  0  0  0  0  0  0
   36.1271   26.8403   34.3553 H   0  0  0  0  0  0  0  0  0  0  0  0
   39.3091   27.9510   33.0229 H   0  0  0  0  0  0  0  0  0  0  0  0
   39.1448   26.2833   32.3759 H   0  0  0  0  0  0  0  0  0  0  0  0
   37.7300   27.3901   32.3759 H   0  0  0  0  0  0  0  0  0  0  0  0
   39.2821   28.1167   35.4233 H   0  0  0  0  0  0  0  0  0  0  0  0
   39.3677   26.4543   36.1314 H   0  0  0  0  0  0  0  0  0  0  0  0
   43.3062   27.2783   32.6104 H   0  0  0  0  0  0  0  0  0  0  0  0
   37.4235   24.2516   39.2773 H   0  0  0  0  0  0  0  0  0  0  0  0
   36.8925   25.1962   37.0127 H   0  0  0  0  0  0  0  0  0  0  0  0
   40.8936   20.9874   38.1097 H   0  0  0  0  0  0  0  0  0  0  0  0
  1 10  1  0
  1  2  1  0
  1  4  1  0
  3  1  1  0
  5  6  2  0
  5  4  1  0
  7  6  1  0
  8  9  2  0
  8  7  1  0
  9  5  1  0
 10 13  1  0
 11 16  2  0
 12 11  1  0
 13 14  1  0
 13 12  2  0
 14 15  2  0
 15 17  1  0
 15 16  1  0
 18 17  2  0
  2 19  1  0
  2 20  1  0
  2 21  1  0
  3 22  1  0
  3 23  1  0
  3 24  1  0
  4 25  1  0
  4 26  1  0
  8 27  1  0
 11 28  1  0
 12 29  1  0
 17 30  1  0
M  ISO  8  19   8  20   8  21   8  22   8  23   8  24   8  25   8  26   8
M  ISO  4  27  14  28  14  29  14  30   6
M  END
>  <minimizedAffinity>  (1) 
-4.51900959

>  <minimizedRMSD>  (1) 
0.305230618

$$$$
