
     RDKit          3D

 40 44  0  0  0  0  0  0  0  0999 V2000
   44.2140   24.2870   35.9720 C   0  0  0  0  0  0  0  0  0  0  0  0
   41.0630   22.4680   37.0150 C   0  0  0  0  0  0  0  0  0  0  0  0
   41.9430   23.4760   36.6550 C   0  0  0  0  0  0  0  0  0  0  0  0
   43.2800   23.1920   36.3580 C   0  0  0  0  0  0  0  0  0  0  0  0
   43.6390   21.8800   36.4510 N   0  0  0  0  0  0  0  0  0  0  0  0
   42.7630   20.9090   36.8060 C   0  0  0  0  0  0  0  0  0  0  0  0
   41.4910   21.2480   37.0770 N   0  0  0  0  0  0  0  0  0  0  0  0
   39.6730   22.8530   37.3100 C   0  0  0  0  0  0  0  0  0  0  0  0
   38.6590   22.8550   36.3540 C   0  0  0  0  0  0  0  0  0  0  0  0
   37.5590   23.2720   37.0580 C   0  0  0  0  0  0  0  0  0  0  0  0
   37.9210   23.5030   38.3730 C   0  0  0  0  0  0  0  0  0  0  0  0
   39.2100   23.2340   38.4710 O   0  0  0  0  0  0  0  0  0  0  0  0
   44.9560   24.7730   37.1050 N   0  0  0  0  0  0  0  0  0  0  0  0
   44.5790   25.5740   38.0920 N   0  0  0  0  0  0  0  0  0  0  0  0
   45.5320   25.8060   38.9620 C   0  0  0  0  0  0  0  0  0  0  0  0
   46.6650   25.1160   38.5580 C   0  0  0  0  0  0  0  0  0  0  0  0
   46.2550   24.4710   37.3710 C   0  0  0  0  0  0  0  0  0  0  0  0
   47.1520   23.5960   36.5630 C   0  0  0  0  0  0  0  0  0  0  0  0
   48.0860   24.1960   35.6490 C   0  0  0  0  0  0  0  0  0  0  0  0
   48.9050   22.7150   34.9490 S   0  0  0  0  0  0  0  0  0  0  0  0
   47.8530   21.5570   36.0020 C   0  0  0  0  0  0  0  0  0  0  0  0
   47.2100   22.2710   36.5750 N   0  0  0  0  0  0  0  0  0  0  0  0
   48.1030   20.1190   35.8380 C   0  0  0  0  0  0  0  0  0  0  0  0
   48.7940   19.4290   34.8820 C   0  0  0  0  0  0  0  0  0  0  0  0
   48.7170   18.1090   35.2030 N   0  0  0  0  0  0  0  0  0  0  0  0
   47.9770   18.0530   36.3480 C   0  0  0  0  0  0  0  0  0  0  0  0
   47.5890   19.2950   36.7550 N   0  0  0  0  0  0  0  0  0  0  0  0
   44.9200   23.9056   35.2196 H   0  0  0  0  0  0  0  0  0  0  0  0
   43.6201   25.1193   35.5664 H   0  0  0  0  0  0  0  0  0  0  0  0
   41.5849   24.5147   36.6020 H   0  0  0  0  0  0  0  0  0  0  0  0
   43.0878   19.8601   36.8713 H   0  0  0  0  0  0  0  0  0  0  0  0
   38.7253   22.5863   35.2894 H   0  0  0  0  0  0  0  0  0  0  0  0
   36.5487   23.4023   36.6430 H   0  0  0  0  0  0  0  0  0  0  0  0
   37.2605   23.8457   39.1831 H   0  0  0  0  0  0  0  0  0  0  0  0
   45.4474   26.4388   39.8578 H   0  0  0  0  0  0  0  0  0  0  0  0
   47.6499   25.0798   39.0466 H   0  0  0  0  0  0  0  0  0  0  0  0
   48.2615   25.2594   35.4292 H   0  0  0  0  0  0  0  0  0  0  0  0
   49.3153   19.8603   34.0147 H   0  0  0  0  0  0  0  0  0  0  0  0
   47.7249   17.1219   36.8767 H   0  0  0  0  0  0  0  0  0  0  0  0
   47.0270   19.5419   37.5821 H   0  0  0  0  0  0  0  0  0  0  0  0
  1  4  1  0
  1 13  1  0
  2  7  1  0
  2  8  1  0
  3  2  2  0
  4  5  2  0
  4  3  1  0
  5  6  1  0
  6  7  2  0
  8 12  1  0
  9 10  1  0
  9  8  2  0
 10 11  2  0
 11 12  1  0
 13 17  1  0
 13 14  1  0
 14 15  2  0
 16 15  1  0
 17 16  2  0
 18 22  1  0
 18 17  1  0
 19 18  2  0
 20 19  1  0
 20 21  1  0
 21 22  2  0
 23 21  1  0
 23 27  1  0
 24 25  1  0
 24 23  2  0
 25 26  2  0
 26 27  1  0
  1 28  1  0
  1 29  1  0
  3 30  1  0
  6 31  1  0
  9 32  1  0
 10 33  1  0
 11 34  1  0
 15 35  1  0
 16 36  1  0
 19 37  1  0
 24 38  1  0
 26 39  1  0
 27 40  1  0
M  ISO  8  28   8  29   8  30  14  31  14  32  14  33  14  34  14  35  14
M  ISO  5  36  14  37  14  38  14  39  14  40   9
M  END
>  <minimizedAffinity>  (1) 
-4.8586874

>  <minimizedRMSD>  (1) 
0.105751216

$$$$
