
     RDKit          3D

 37 38  0  0  0  0  0  0  0  0999 V2000
   38.2800   26.5140   34.3860 C   0  0  0  0  0  0  0  0  0  0  0  0
   37.0780   27.2500   34.8930 C   0  0  0  0  0  0  0  0  0  0  0  0
   38.6420   27.0770   33.0170 C   0  0  0  0  0  0  0  0  0  0  0  0
   39.4650   26.9050   35.2840 C   0  0  0  0  0  0  0  0  0  0  0  0
   40.7570   26.8220   34.5320 C   0  0  0  0  0  0  0  0  0  0  0  0
   41.6950   25.8770   34.7590 N   0  0  0  0  0  0  0  0  0  0  0  0
   42.6850   26.0870   33.9430 O   0  0  0  0  0  0  0  0  0  0  0  0
   42.4590   27.1130   33.1910 C   0  0  0  0  0  0  0  0  0  0  0  0
   41.2590   27.5830   33.5450 N   0  0  0  0  0  0  0  0  0  0  0  0
   38.1710   24.7340   34.4090 S   0  0  0  0  0  0  0  0  0  0  0  0
   38.7020   23.3540   38.1960 C   0  0  0  0  0  0  0  0  0  0  0  0
   38.1520   23.9630   37.0540 C   0  0  0  0  0  0  0  0  0  0  0  0
   38.8410   23.9740   35.8640 C   0  0  0  0  0  0  0  0  0  0  0  0
   40.0640   23.3730   35.8490 N   0  0  0  0  0  0  0  0  0  0  0  0
   40.5860   22.7920   36.9430 C   0  0  0  0  0  0  0  0  0  0  0  0
   39.9210   22.7790   38.1030 N   0  0  0  0  0  0  0  0  0  0  0  0
   41.9270   22.1520   36.8650 C   0  0  0  0  0  0  0  0  0  0  0  0
   42.1450   21.7520   35.4050 C   0  0  0  0  0  0  0  0  0  0  0  0
   41.9900   20.8580   37.6640 C   0  0  0  0  0  0  0  0  0  0  0  0
   37.0831   27.2469   35.9930 H   0  0  0  0  0  0  0  0  0  0  0  0
   37.1031   28.2878   34.5292 H   0  0  0  0  0  0  0  0  0  0  0  0
   36.1651   26.7559   34.5292 H   0  0  0  0  0  0  0  0  0  0  0  0
   39.2330   27.9961   33.1431 H   0  0  0  0  0  0  0  0  0  0  0  0
   39.2326   26.3349   32.4598 H   0  0  0  0  0  0  0  0  0  0  0  0
   37.7217   27.3064   32.4598 H   0  0  0  0  0  0  0  0  0  0  0  0
   39.3217   27.9357   35.6405 H   0  0  0  0  0  0  0  0  0  0  0  0
   39.5075   26.2066   36.1328 H   0  0  0  0  0  0  0  0  0  0  0  0
   43.1227   27.5192   32.4135 H   0  0  0  0  0  0  0  0  0  0  0  0
   38.1499   23.3459   39.1474 H   0  0  0  0  0  0  0  0  0  0  0  0
   37.1604   24.4354   37.1132 H   0  0  0  0  0  0  0  0  0  0  0  0
   42.6721   22.8600   37.2569 H   0  0  0  0  0  0  0  0  0  0  0  0
   42.6710   20.7868   35.3639 H   0  0  0  0  0  0  0  0  0  0  0  0
   41.1718   21.6609   34.9005 H   0  0  0  0  0  0  0  0  0  0  0  0
   42.7490   22.5206   34.9005 H   0  0  0  0  0  0  0  0  0  0  0  0
   41.9787   21.0900   38.7392 H   0  0  0  0  0  0  0  0  0  0  0  0
   41.1213   20.2307   37.4151 H   0  0  0  0  0  0  0  0  0  0  0  0
   42.9155   20.3181   37.4151 H   0  0  0  0  0  0  0  0  0  0  0  0
  1 10  1  0
  1  2  1  0
  1  4  1  0
  3  1  1  0
  5  6  2  0
  5  4  1  0
  7  6  1  0
  8  9  2  0
  8  7  1  0
  9  5  1  0
 10 13  1  0
 12 11  2  0
 13 12  1  0
 14 13  2  0
 14 15  1  0
 15 16  2  0
 16 11  1  0
 17 15  1  0
 17 19  1  0
 18 17  1  0
  2 20  1  0
  2 21  1  0
  2 22  1  0
  3 23  1  0
  3 24  1  0
  3 25  1  0
  4 26  1  0
  4 27  1  0
  8 28  1  0
 11 29  1  0
 12 30  1  0
 17 31  1  0
 18 32  1  0
 18 33  1  0
 18 34  1  0
 19 35  1  0
 19 36  1  0
 19 37  1  0
M  ISO  8  20   8  21   8  22   8  23   8  24   8  25   8  26   8  27   8
M  ISO  8  28  14  29  14  30  14  31   8  32   8  33   8  34   8  35   8
M  ISO  2  36   8  37   8
M  END
>  <minimizedAffinity>  (1) 
-4.48299313

>  <minimizedRMSD>  (1) 
0.945194423

$$$$
