
     RDKit          3D

 34 36  0  0  0  0  0  0  0  0999 V2000
   38.2850   26.7860   34.3590 C   0  0  0  0  0  0  0  0  0  0  0  0
   37.3300   27.7330   35.0060 C   0  0  0  0  0  0  0  0  0  0  0  0
   38.5650   27.2790   32.9530 C   0  0  0  0  0  0  0  0  0  0  0  0
   39.6450   26.9360   35.0870 C   0  0  0  0  0  0  0  0  0  0  0  0
   40.7800   26.7140   34.1470 C   0  0  0  0  0  0  0  0  0  0  0  0
   41.2950   25.5050   33.8540 N   0  0  0  0  0  0  0  0  0  0  0  0
   42.2660   25.6590   33.0090 O   0  0  0  0  0  0  0  0  0  0  0  0
   42.4370   26.9110   32.7140 C   0  0  0  0  0  0  0  0  0  0  0  0
   41.5090   27.5890   33.4230 N   0  0  0  0  0  0  0  0  0  0  0  0
   37.8470   25.0620   34.4490 S   0  0  0  0  0  0  0  0  0  0  0  0
   38.4420   23.7160   38.2550 C   0  0  0  0  0  0  0  0  0  0  0  0
   37.9350   24.3890   37.1300 C   0  0  0  0  0  0  0  0  0  0  0  0
   38.4760   24.2200   35.8750 C   0  0  0  0  0  0  0  0  0  0  0  0
   39.5350   23.3610   35.7900 N   0  0  0  0  0  0  0  0  0  0  0  0
   40.0220   22.7200   36.8530 C   0  0  0  0  0  0  0  0  0  0  0  0
   39.4910   22.8840   38.0840 N   0  0  0  0  0  0  0  0  0  0  0  0
   41.1770   21.7940   36.7070 C   0  0  0  0  0  0  0  0  0  0  0  0
   41.9220   21.0020   37.7480 C   0  0  0  0  0  0  0  0  0  0  0  0
   43.1310   20.1820   36.7400 S   0  0  0  0  0  0  0  0  0  0  0  0
   42.5230   20.9620   35.1240 C   0  0  0  0  0  0  0  0  0  0  0  0
   41.4350   21.8100   35.3930 N   0  0  0  0  0  0  0  0  0  0  0  0
   37.4146   27.6491   36.0995 H   0  0  0  0  0  0  0  0  0  0  0  0
   37.5682   28.7617   34.6977 H   0  0  0  0  0  0  0  0  0  0  0  0
   36.3033   27.4862   34.6977 H   0  0  0  0  0  0  0  0  0  0  0  0
   39.1077   28.2346   33.0008 H   0  0  0  0  0  0  0  0  0  0  0  0
   39.1762   26.5365   32.4190 H   0  0  0  0  0  0  0  0  0  0  0  0
   37.6142   27.4236   32.4190 H   0  0  0  0  0  0  0  0  0  0  0  0
   39.7185   27.9500   35.5070 H   0  0  0  0  0  0  0  0  0  0  0  0
   39.6996   26.1832   35.8872 H   0  0  0  0  0  0  0  0  0  0  0  0
   43.1849   27.3336   32.0269 H   0  0  0  0  0  0  0  0  0  0  0  0
   37.9953   23.8636   39.2493 H   0  0  0  0  0  0  0  0  0  0  0  0
   37.0809   25.0707   37.2558 H   0  0  0  0  0  0  0  0  0  0  0  0
   41.7613   20.9467   38.8348 H   0  0  0  0  0  0  0  0  0  0  0  0
   42.9548   20.7794   34.1289 H   0  0  0  0  0  0  0  0  0  0  0  0
  1 10  1  0
  1  2  1  0
  1  4  1  0
  3  1  1  0
  5  4  1  0
  6  5  2  0
  7  6  1  0
  8  7  1  0
  8  9  2  0
  9  5  1  0
 10 13  1  0
 12 11  2  0
 13 12  1  0
 14 13  2  0
 14 15  1  0
 15 16  2  0
 16 11  1  0
 17 15  1  0
 17 18  2  0
 19 18  1  0
 20 21  2  0
 20 19  1  0
 21 17  1  0
  2 22  1  0
  2 23  1  0
  2 24  1  0
  3 25  1  0
  3 26  1  0
  3 27  1  0
  4 28  1  0
  4 29  1  0
  8 30  1  0
 11 31  1  0
 12 32  1  0
 18 33  1  0
 20 34  1  0
M  ISO  8  22   8  23   8  24   8  25   8  26   8  27   8  28   8  29   8
M  ISO  5  30  14  31  14  32  14  33  14  34  14
M  END
>  <minimizedAffinity>  (1) 
-4.42528582

>  <minimizedRMSD>  (1) 
1.040048

$$$$
