
     RDKit          3D

 47 51  0  0  0  0  0  0  0  0999 V2000
   44.8930   24.8270   37.1840 N   0  0  0  0  0  0  0  0  0  0  0  0
   44.3810   25.5910   38.1440 N   0  0  0  0  0  0  0  0  0  0  0  0
   45.2600   25.9180   39.0730 C   0  0  0  0  0  0  0  0  0  0  0  0
   46.4600   25.3410   38.7330 C   0  0  0  0  0  0  0  0  0  0  0  0
   46.1860   24.6600   37.5320 C   0  0  0  0  0  0  0  0  0  0  0  0
   47.2130   23.8700   36.7750 C   0  0  0  0  0  0  0  0  0  0  0  0
   48.2110   24.5500   36.0010 C   0  0  0  0  0  0  0  0  0  0  0  0
   49.1640   23.1470   35.3170 S   0  0  0  0  0  0  0  0  0  0  0  0
   48.0580   21.8870   36.1870 C   0  0  0  0  0  0  0  0  0  0  0  0
   47.3410   22.5610   36.7130 N   0  0  0  0  0  0  0  0  0  0  0  0
   48.3440   25.9520   35.8640 N   0  0  0  0  0  0  0  0  0  0  0  0
   49.2390   26.4830   36.7440 C   0  0  0  0  0  0  0  0  0  0  0  0
   49.4900   27.8600   36.7410 C   0  0  0  0  0  0  0  0  0  0  0  0
   48.7800   28.5900   35.8120 C   0  0  0  0  0  0  0  0  0  0  0  0
   49.0250   29.9910   35.7980 N   0  0  0  0  0  0  0  0  0  0  0  0
   47.9050   28.0230   34.9620 N   0  0  0  0  0  0  0  0  0  0  0  0
   47.6800   26.6930   34.9820 C   0  0  0  0  0  0  0  0  0  0  0  0
   46.8850   26.0730   34.2320 O   0  0  0  0  0  0  0  0  0  0  0  0
   48.2720   20.4150   36.0630 C   0  0  0  0  0  0  0  0  0  0  0  0
   48.1050   19.9870   34.7640 F   0  0  0  0  0  0  0  0  0  0  0  0
   47.3140   19.8360   36.8820 F   0  0  0  0  0  0  0  0  0  0  0  0
   49.5150   20.0450   36.5690 F   0  0  0  0  0  0  0  0  0  0  0  0
   44.2640   24.2690   36.0090 C   0  0  0  0  0  0  0  0  0  0  0  0
   41.0820   22.4630   36.9860 C   0  0  0  0  0  0  0  0  0  0  0  0
   41.9750   23.4530   36.6540 C   0  0  0  0  0  0  0  0  0  0  0  0
   43.3120   23.1700   36.3700 C   0  0  0  0  0  0  0  0  0  0  0  0
   43.6710   21.8400   36.4460 N   0  0  0  0  0  0  0  0  0  0  0  0
   42.7840   20.8790   36.7750 C   0  0  0  0  0  0  0  0  0  0  0  0
   41.5090   21.2250   37.0350 N   0  0  0  0  0  0  0  0  0  0  0  0
   39.6950   22.8410   37.2700 C   0  0  0  0  0  0  0  0  0  0  0  0
   38.6810   22.8500   36.3340 C   0  0  0  0  0  0  0  0  0  0  0  0
   37.5890   23.2620   37.0420 C   0  0  0  0  0  0  0  0  0  0  0  0
   37.9500   23.4850   38.3390 C   0  0  0  0  0  0  0  0  0  0  0  0
   39.2390   23.2180   38.4330 O   0  0  0  0  0  0  0  0  0  0  0  0
   45.0668   26.5401   39.9594 H   0  0  0  0  0  0  0  0  0  0  0  0
   47.4155   25.3982   39.2751 H   0  0  0  0  0  0  0  0  0  0  0  0
   49.7640   25.8296   37.4564 H   0  0  0  0  0  0  0  0  0  0  0  0
   50.2055   28.3280   37.4332 H   0  0  0  0  0  0  0  0  0  0  0  0
   48.5270   30.5942   35.1279 H   0  0  0  0  0  0  0  0  0  0  0  0
   49.7004   30.4023   36.4579 H   0  0  0  0  0  0  0  0  0  0  0  0
   45.0417   23.8651   35.3441 H   0  0  0  0  0  0  0  0  0  0  0  0
   43.6978   25.0672   35.5066 H   0  0  0  0  0  0  0  0  0  0  0  0
   41.6273   24.4957   36.6109 H   0  0  0  0  0  0  0  0  0  0  0  0
   43.0980   19.8262   36.8302 H   0  0  0  0  0  0  0  0  0  0  0  0
   38.7391   22.5869   35.2675 H   0  0  0  0  0  0  0  0  0  0  0  0
   36.5770   23.3936   36.6315 H   0  0  0  0  0  0  0  0  0  0  0  0
   37.2912   23.8233   39.1523 H   0  0  0  0  0  0  0  0  0  0  0  0
  1  5  1  0
  1  2  1  0
  2  3  2  0
  4  3  1  0
  5  4  2  0
  6  5  1  0
  7  6  2  0
  8  7  1  0
  8  9  1  0
  9 10  2  0
 10  6  1  0
 11  7  1  0
 11 12  1  0
 13 12  2  0
 14 13  1  0
 15 14  1  0
 16 17  1  0
 16 14  2  0
 17 11  1  0
 18 17  2  0
 19  9  1  0
 19 22  1  0
 19 21  1  0
 20 19  1  0
 23 26  1  0
 23  1  1  0
 24 29  1  0
 24 30  1  0
 25 24  2  0
 26 27  2  0
 26 25  1  0
 27 28  1  0
 28 29  2  0
 30 34  1  0
 31 32  1  0
 31 30  2  0
 32 33  2  0
 33 34  1  0
  3 35  1  0
  4 36  1  0
 12 37  1  0
 13 38  1  0
 15 39  1  0
 15 40  1  0
 23 41  1  0
 23 42  1  0
 25 43  1  0
 28 44  1  0
 31 45  1  0
 32 46  1  0
 33 47  1  0
M  ISO  8  35  14  36  14  37  14  38  14  41   8  42   8  43  14  44  14
M  ISO  3  45  14  46  14  47  14
M  END
>  <minimizedAffinity>  (1) 
-5.88284302

>  <minimizedRMSD>  (1) 
0.479451746

$$$$
