
     RDKit          3D

 48 52  0  0  0  0  0  0  0  0999 V2000
   44.8980   24.7940   37.1310 N   0  0  0  0  0  0  0  0  0  0  0  0
   44.4100   25.6160   38.0430 N   0  0  0  0  0  0  0  0  0  0  0  0
   45.2780   25.9450   38.9750 C   0  0  0  0  0  0  0  0  0  0  0  0
   46.4530   25.3000   38.6840 C   0  0  0  0  0  0  0  0  0  0  0  0
   46.1890   24.5790   37.5140 C   0  0  0  0  0  0  0  0  0  0  0  0
   47.1920   23.7150   36.8180 C   0  0  0  0  0  0  0  0  0  0  0  0
   48.3540   24.2750   36.2520 C   0  0  0  0  0  0  0  0  0  0  0  0
   49.1910   22.8240   35.5580 S   0  0  0  0  0  0  0  0  0  0  0  0
   47.8100   21.6590   36.1520 C   0  0  0  0  0  0  0  0  0  0  0  0
   47.1300   22.4030   36.6490 N   0  0  0  0  0  0  0  0  0  0  0  0
   48.8490   25.5770   36.1760 N   0  0  0  0  0  0  0  0  0  0  0  0
   49.7480   26.1840   37.0870 C   0  0  0  0  0  0  0  0  0  0  0  0
   49.7170   27.6790   36.8490 C   0  0  0  0  0  0  0  0  0  0  0  0
   48.6220   27.8900   35.8480 C   0  0  0  0  0  0  0  0  0  0  0  0
   48.5410   26.5380   35.1660 C   0  0  0  0  0  0  0  0  0  0  0  0
   47.8290   20.1990   35.9150 C   0  0  0  0  0  0  0  0  0  0  0  0
   47.4070   19.8940   34.6240 F   0  0  0  0  0  0  0  0  0  0  0  0
   46.9350   19.6660   36.8180 F   0  0  0  0  0  0  0  0  0  0  0  0
   49.0800   19.6540   36.1870 F   0  0  0  0  0  0  0  0  0  0  0  0
   44.2720   24.2100   35.9640 C   0  0  0  0  0  0  0  0  0  0  0  0
   41.0870   22.4390   36.9930 C   0  0  0  0  0  0  0  0  0  0  0  0
   41.9860   23.4100   36.6350 C   0  0  0  0  0  0  0  0  0  0  0  0
   43.3160   23.1180   36.3530 C   0  0  0  0  0  0  0  0  0  0  0  0
   43.6630   21.7960   36.4580 N   0  0  0  0  0  0  0  0  0  0  0  0
   42.7700   20.8490   36.8120 C   0  0  0  0  0  0  0  0  0  0  0  0
   41.5000   21.2060   37.0690 N   0  0  0  0  0  0  0  0  0  0  0  0
   39.7010   22.8350   37.2740 C   0  0  0  0  0  0  0  0  0  0  0  0
   38.6890   22.8530   36.3340 C   0  0  0  0  0  0  0  0  0  0  0  0
   37.5940   23.2790   37.0350 C   0  0  0  0  0  0  0  0  0  0  0  0
   37.9570   23.5040   38.3510 C   0  0  0  0  0  0  0  0  0  0  0  0
   39.2500   23.2170   38.4350 O   0  0  0  0  0  0  0  0  0  0  0  0
   45.0954   26.6134   39.8293 H   0  0  0  0  0  0  0  0  0  0  0  0
   47.3969   25.3406   39.2474 H   0  0  0  0  0  0  0  0  0  0  0  0
   49.4387   25.9639   38.1194 H   0  0  0  0  0  0  0  0  0  0  0  0
   50.7656   25.7942   36.9368 H   0  0  0  0  0  0  0  0  0  0  0  0
   49.4948   28.2147   37.7837 H   0  0  0  0  0  0  0  0  0  0  0  0
   50.6842   28.0602   36.4897 H   0  0  0  0  0  0  0  0  0  0  0  0
   47.6731   28.1436   36.3434 H   0  0  0  0  0  0  0  0  0  0  0  0
   48.8142   28.7219   35.1544 H   0  0  0  0  0  0  0  0  0  0  0  0
   47.5287   26.3679   34.7706 H   0  0  0  0  0  0  0  0  0  0  0  0
   49.2352   26.4700   34.3155 H   0  0  0  0  0  0  0  0  0  0  0  0
   45.0509   23.7898   35.3108 H   0  0  0  0  0  0  0  0  0  0  0  0
   43.7098   24.9961   35.4386 H   0  0  0  0  0  0  0  0  0  0  0  0
   41.6444   24.4535   36.5687 H   0  0  0  0  0  0  0  0  0  0  0  0
   43.0779   19.7958   36.8895 H   0  0  0  0  0  0  0  0  0  0  0  0
   38.7495   22.5865   35.2685 H   0  0  0  0  0  0  0  0  0  0  0  0
   36.5857   23.4201   36.6186 H   0  0  0  0  0  0  0  0  0  0  0  0
   37.3041   23.8515   39.1653 H   0  0  0  0  0  0  0  0  0  0  0  0
  1  5  1  0
  1  2  1  0
  2  3  2  0
  4  3  1  0
  5  4  2  0
  6  5  1  0
  7  6  2  0
  8  9  1  0
  8  7  1  0
  9 10  2  0
 10  6  1  0
 11  7  1  0
 11 12  1  0
 13 12  1  0
 14 13  1  0
 15 14  1  0
 15 11  1  0
 16  9  1  0
 16 19  1  0
 16 18  1  0
 17 16  1  0
 20 23  1  0
 20  1  1  0
 21 26  1  0
 21 27  1  0
 22 21  2  0
 23 24  2  0
 23 22  1  0
 24 25  1  0
 25 26  2  0
 27 31  1  0
 28 29  1  0
 28 27  2  0
 29 30  2  0
 30 31  1  0
  3 32  1  0
  4 33  1  0
 12 34  1  0
 12 35  1  0
 13 36  1  0
 13 37  1  0
 14 38  1  0
 14 39  1  0
 15 40  1  0
 15 41  1  0
 20 42  1  0
 20 43  1  0
 22 44  1  0
 25 45  1  0
 28 46  1  0
 29 47  1  0
 30 48  1  0
M  ISO  8  32  14  33  14  34  13  35  13  36  13  37  13  38  13  39  13
M  ISO  8  40  13  41  13  42   8  43   8  44  14  45  14  46  14  47  14
M  ISO  1  48  14
M  END
>  <minimizedAffinity>  (1) 
-5.32693768

>  <minimizedRMSD>  (1) 
0.610693812

$$$$
