
     RDKit          3D

 42 46  0  0  0  0  0  0  0  0999 V2000
   44.8440   24.8550   37.1800 N   0  0  0  0  0  0  0  0  0  0  0  0
   44.3110   25.6240   38.1170 N   0  0  0  0  0  0  0  0  0  0  0  0
   45.1630   25.9870   39.0410 C   0  0  0  0  0  0  0  0  0  0  0  0
   46.3790   25.4410   38.7420 C   0  0  0  0  0  0  0  0  0  0  0  0
   46.1440   24.7210   37.5430 C   0  0  0  0  0  0  0  0  0  0  0  0
   47.2000   23.9480   36.8280 C   0  0  0  0  0  0  0  0  0  0  0  0
   48.2330   24.6220   36.1280 C   0  0  0  0  0  0  0  0  0  0  0  0
   49.2180   23.2250   35.4610 S   0  0  0  0  0  0  0  0  0  0  0  0
   48.0620   21.9620   36.2430 C   0  0  0  0  0  0  0  0  0  0  0  0
   47.3230   22.6380   36.7450 N   0  0  0  0  0  0  0  0  0  0  0  0
   48.4720   26.0040   35.9660 N   0  0  0  0  0  0  0  0  0  0  0  0
   49.1360   26.9410   36.6790 C   0  0  0  0  0  0  0  0  0  0  0  0
   49.0320   28.1320   36.0340 N   0  0  0  0  0  0  0  0  0  0  0  0
   48.2920   27.9180   34.9100 C   0  0  0  0  0  0  0  0  0  0  0  0
   47.9600   26.6070   34.8890 N   0  0  0  0  0  0  0  0  0  0  0  0
   48.2660   20.5000   36.1050 C   0  0  0  0  0  0  0  0  0  0  0  0
   48.1750   20.0970   34.7970 F   0  0  0  0  0  0  0  0  0  0  0  0
   47.2510   19.9110   36.8430 F   0  0  0  0  0  0  0  0  0  0  0  0
   49.4740   20.0970   36.6820 F   0  0  0  0  0  0  0  0  0  0  0  0
   44.2500   24.2590   36.0140 C   0  0  0  0  0  0  0  0  0  0  0  0
   41.0720   22.4640   36.9940 C   0  0  0  0  0  0  0  0  0  0  0  0
   41.9680   23.4480   36.6600 C   0  0  0  0  0  0  0  0  0  0  0  0
   43.3090   23.1680   36.3730 C   0  0  0  0  0  0  0  0  0  0  0  0
   43.6630   21.8470   36.4490 N   0  0  0  0  0  0  0  0  0  0  0  0
   42.7750   20.8760   36.7790 C   0  0  0  0  0  0  0  0  0  0  0  0
   41.4990   21.2180   37.0440 N   0  0  0  0  0  0  0  0  0  0  0  0
   39.6840   22.8420   37.2810 C   0  0  0  0  0  0  0  0  0  0  0  0
   38.6700   22.8420   36.3300 C   0  0  0  0  0  0  0  0  0  0  0  0
   37.5740   23.2580   37.0470 C   0  0  0  0  0  0  0  0  0  0  0  0
   37.9390   23.4880   38.3610 C   0  0  0  0  0  0  0  0  0  0  0  0
   39.2250   23.2170   38.4250 O   0  0  0  0  0  0  0  0  0  0  0  0
   44.9386   26.6230   39.9100 H   0  0  0  0  0  0  0  0  0  0  0  0
   47.3213   25.5374   39.3012 H   0  0  0  0  0  0  0  0  0  0  0  0
   49.6714   26.7679   37.6242 H   0  0  0  0  0  0  0  0  0  0  0  0
   48.0157   28.6722   34.1585 H   0  0  0  0  0  0  0  0  0  0  0  0
   45.0479   23.8468   35.3788 H   0  0  0  0  0  0  0  0  0  0  0  0
   43.6845   25.0378   35.4815 H   0  0  0  0  0  0  0  0  0  0  0  0
   41.6211   24.4910   36.6164 H   0  0  0  0  0  0  0  0  0  0  0  0
   43.0923   19.8240   36.8295 H   0  0  0  0  0  0  0  0  0  0  0  0
   38.7302   22.5746   35.2647 H   0  0  0  0  0  0  0  0  0  0  0  0
   36.5611   23.3882   36.6383 H   0  0  0  0  0  0  0  0  0  0  0  0
   37.2896   23.8269   39.1816 H   0  0  0  0  0  0  0  0  0  0  0  0
  1  5  1  0
  1  2  1  0
  2  3  2  0
  4  3  1  0
  5  4  2  0
  6  5  1  0
  7  6  2  0
  8  7  1  0
  8  9  1  0
  9 10  2  0
 10  6  1  0
 11  7  1  0
 11 12  1  0
 13 12  2  0
 14 13  1  0
 15 14  2  0
 15 11  1  0
 16  9  1  0
 16 19  1  0
 16 18  1  0
 17 16  1  0
 20 23  1  0
 20  1  1  0
 21 26  1  0
 21 27  1  0
 22 21  2  0
 23 24  2  0
 23 22  1  0
 24 25  1  0
 25 26  2  0
 27 31  1  0
 28 29  1  0
 28 27  2  0
 29 30  2  0
 30 31  1  0
  3 32  1  0
  4 33  1  0
 12 34  1  0
 14 35  1  0
 20 36  1  0
 20 37  1  0
 22 38  1  0
 25 39  1  0
 28 40  1  0
 29 41  1  0
 30 42  1  0
M  ISO  8  32  14  33  14  34  14  35  14  36   8  37   8  38  14  39  14
M  ISO  3  40  14  41  14  42  14
M  END
>  <minimizedAffinity>  (1) 
-5.22678137

>  <minimizedRMSD>  (1) 
0.568390608

$$$$
