
     RDKit          3D

 48 51  0  0  0  0  0  0  0  0999 V2000
   44.8790   24.8560   37.1480 N   0  0  0  0  0  0  0  0  0  0  0  0
   44.4260   25.6420   38.1130 N   0  0  0  0  0  0  0  0  0  0  0  0
   45.3240   25.9300   39.0260 C   0  0  0  0  0  0  0  0  0  0  0  0
   46.4860   25.3040   38.6750 C   0  0  0  0  0  0  0  0  0  0  0  0
   46.1800   24.6280   37.4820 C   0  0  0  0  0  0  0  0  0  0  0  0
   47.1630   23.7950   36.7220 C   0  0  0  0  0  0  0  0  0  0  0  0
   48.1500   24.4200   35.8990 C   0  0  0  0  0  0  0  0  0  0  0  0
   49.0430   22.9600   35.2400 S   0  0  0  0  0  0  0  0  0  0  0  0
   47.9310   21.7580   36.1900 C   0  0  0  0  0  0  0  0  0  0  0  0
   47.2570   22.4800   36.7020 N   0  0  0  0  0  0  0  0  0  0  0  0
   48.1170   20.2970   36.1010 C   0  0  0  0  0  0  0  0  0  0  0  0
   48.0110   19.8380   34.8050 F   0  0  0  0  0  0  0  0  0  0  0  0
   47.0700   19.7600   36.8420 F   0  0  0  0  0  0  0  0  0  0  0  0
   49.2910   19.8770   36.7190 F   0  0  0  0  0  0  0  0  0  0  0  0
   48.4420   25.8150   35.6040 C   0  0  0  0  0  0  0  0  0  0  0  0
   47.1400   26.4650   35.1750 C   0  0  0  0  0  0  0  0  0  0  0  0
   48.8700   26.5270   36.8580 C   0  0  0  0  0  0  0  0  0  0  0  0
   49.4400   26.0410   34.4920 C   0  0  0  0  0  0  0  0  0  0  0  0
   44.2230   24.3150   35.9780 C   0  0  0  0  0  0  0  0  0  0  0  0
   41.0700   22.4920   36.9890 C   0  0  0  0  0  0  0  0  0  0  0  0
   41.9540   23.4740   36.6410 C   0  0  0  0  0  0  0  0  0  0  0  0
   43.2890   23.2050   36.3550 C   0  0  0  0  0  0  0  0  0  0  0  0
   43.6580   21.8920   36.4450 N   0  0  0  0  0  0  0  0  0  0  0  0
   42.7860   20.9160   36.7890 C   0  0  0  0  0  0  0  0  0  0  0  0
   41.5100   21.2500   37.0510 N   0  0  0  0  0  0  0  0  0  0  0  0
   39.6800   22.8490   37.2760 C   0  0  0  0  0  0  0  0  0  0  0  0
   38.6640   22.8330   36.3400 C   0  0  0  0  0  0  0  0  0  0  0  0
   37.5620   23.2340   37.0570 C   0  0  0  0  0  0  0  0  0  0  0  0
   37.9340   23.4730   38.3670 C   0  0  0  0  0  0  0  0  0  0  0  0
   39.2270   23.2220   38.4410 O   0  0  0  0  0  0  0  0  0  0  0  0
   45.1688   26.5613   39.9133 H   0  0  0  0  0  0  0  0  0  0  0  0
   47.4480   25.3245   39.2081 H   0  0  0  0  0  0  0  0  0  0  0  0
   46.5630   26.7531   36.0661 H   0  0  0  0  0  0  0  0  0  0  0  0
   47.3577   27.3602   34.5739 H   0  0  0  0  0  0  0  0  0  0  0  0
   46.5553   25.7530   34.5739 H   0  0  0  0  0  0  0  0  0  0  0  0
   48.5289   25.9595   37.7364 H   0  0  0  0  0  0  0  0  0  0  0  0
   49.9668   26.6083   36.8773 H   0  0  0  0  0  0  0  0  0  0  0  0
   48.4273   27.5338   36.8773 H   0  0  0  0  0  0  0  0  0  0  0  0
   50.4265   26.2644   34.9244 H   0  0  0  0  0  0  0  0  0  0  0  0
   49.5084   25.1356   33.8711 H   0  0  0  0  0  0  0  0  0  0  0  0
   49.1116   26.8875   33.8711 H   0  0  0  0  0  0  0  0  0  0  0  0
   44.9841   23.9260   35.2857 H   0  0  0  0  0  0  0  0  0  0  0  0
   43.6418   25.1163   35.4984 H   0  0  0  0  0  0  0  0  0  0  0  0
   41.5980   24.5133   36.5850 H   0  0  0  0  0  0  0  0  0  0  0  0
   43.1150   19.8683   36.8532 H   0  0  0  0  0  0  0  0  0  0  0  0
   38.7229   22.5636   35.2751 H   0  0  0  0  0  0  0  0  0  0  0  0
   36.5453   23.3469   36.6527 H   0  0  0  0  0  0  0  0  0  0  0  0
   37.2804   23.8068   39.1864 H   0  0  0  0  0  0  0  0  0  0  0  0
  1  5  1  0
  1  2  1  0
  2  3  2  0
  4  3  1  0
  5  4  2  0
  6  5  1  0
  7  6  2  0
  8  7  1  0
  8  9  1  0
  9 10  2  0
 10  6  1  0
 11  9  1  0
 11 14  1  0
 11 13  1  0
 12 11  1  0
 15  7  1  0
 15 17  1  0
 16 15  1  0
 18 15  1  0
 19 22  1  0
 19  1  1  0
 20 25  1  0
 20 26  1  0
 21 20  2  0
 22 23  2  0
 22 21  1  0
 23 24  1  0
 24 25  2  0
 26 30  1  0
 27 28  1  0
 27 26  2  0
 28 29  2  0
 29 30  1  0
  3 31  1  0
  4 32  1  0
 16 33  1  0
 16 34  1  0
 16 35  1  0
 17 36  1  0
 17 37  1  0
 17 38  1  0
 18 39  1  0
 18 40  1  0
 18 41  1  0
 19 42  1  0
 19 43  1  0
 21 44  1  0
 24 45  1  0
 27 46  1  0
 28 47  1  0
 29 48  1  0
M  ISO  8  31  14  32  14  33   8  34   8  35   8  36   8  37   8  38   8
M  ISO  8  39   8  40   8  41   8  42   8  43   8  44  14  45  14  46  14
M  ISO  2  47  14  48  14
M  END
>  <minimizedAffinity>  (1) 
-5.15783644

>  <minimizedRMSD>  (1) 
0.307258666

$$$$
