
     RDKit          3D

 43 47  0  0  0  0  0  0  0  0999 V2000
   44.1420   24.4470   36.0550 C   0  0  0  0  0  0  0  0  0  0  0  0
   41.0290   22.5280   37.0260 C   0  0  0  0  0  0  0  0  0  0  0  0
   41.8900   23.5570   36.7000 C   0  0  0  0  0  0  0  0  0  0  0  0
   43.2300   23.3130   36.4050 C   0  0  0  0  0  0  0  0  0  0  0  0
   43.6240   22.0100   36.4600 N   0  0  0  0  0  0  0  0  0  0  0  0
   42.7710   21.0080   36.7820 C   0  0  0  0  0  0  0  0  0  0  0  0
   41.4900   21.3050   37.0560 N   0  0  0  0  0  0  0  0  0  0  0  0
   39.6290   22.8630   37.3250 C   0  0  0  0  0  0  0  0  0  0  0  0
   38.6040   22.8070   36.3970 C   0  0  0  0  0  0  0  0  0  0  0  0
   37.5030   23.1980   37.1140 C   0  0  0  0  0  0  0  0  0  0  0  0
   37.8760   23.4680   38.4040 C   0  0  0  0  0  0  0  0  0  0  0  0
   39.1810   23.2500   38.4880 O   0  0  0  0  0  0  0  0  0  0  0  0
   44.9290   24.8620   37.2000 N   0  0  0  0  0  0  0  0  0  0  0  0
   44.5960   25.6340   38.2280 N   0  0  0  0  0  0  0  0  0  0  0  0
   45.5800   25.7930   39.0890 C   0  0  0  0  0  0  0  0  0  0  0  0
   46.6680   25.0900   38.6350 C   0  0  0  0  0  0  0  0  0  0  0  0
   46.2130   24.5080   37.4250 C   0  0  0  0  0  0  0  0  0  0  0  0
   47.0690   23.6360   36.5600 C   0  0  0  0  0  0  0  0  0  0  0  0
   47.9330   24.2160   35.5990 C   0  0  0  0  0  0  0  0  0  0  0  0
   48.7170   22.7530   34.8490 S   0  0  0  0  0  0  0  0  0  0  0  0
   47.7380   21.5830   35.9670 C   0  0  0  0  0  0  0  0  0  0  0  0
   47.1440   22.3210   36.5590 N   0  0  0  0  0  0  0  0  0  0  0  0
   47.8750   20.1030   35.9090 C   0  0  0  0  0  0  0  0  0  0  0  0
   47.4990   19.6080   34.6850 F   0  0  0  0  0  0  0  0  0  0  0  0
   47.0310   19.6160   36.8990 F   0  0  0  0  0  0  0  0  0  0  0  0
   49.1710   19.6990   36.2570 F   0  0  0  0  0  0  0  0  0  0  0  0
   48.1310   25.6630   35.3010 C   0  0  0  0  0  0  0  0  0  0  0  0
   48.0360   26.5500   36.4670 C   0  0  0  0  0  0  0  0  0  0  0  0
   46.9280   26.5120   35.4460 C   0  0  0  0  0  0  0  0  0  0  0  0
   44.8206   24.1262   35.2509 H   0  0  0  0  0  0  0  0  0  0  0  0
   43.5276   25.2990   35.7285 H   0  0  0  0  0  0  0  0  0  0  0  0
   41.5110   24.5893   36.6726 H   0  0  0  0  0  0  0  0  0  0  0  0
   43.1224   19.9663   36.8185 H   0  0  0  0  0  0  0  0  0  0  0  0
   38.6595   22.5178   35.3371 H   0  0  0  0  0  0  0  0  0  0  0  0
   36.4809   23.2817   36.7160 H   0  0  0  0  0  0  0  0  0  0  0  0
   37.2162   23.8030   39.2179 H   0  0  0  0  0  0  0  0  0  0  0  0
   45.5372   26.3874   40.0136 H   0  0  0  0  0  0  0  0  0  0  0  0
   47.6604   24.9994   39.1008 H   0  0  0  0  0  0  0  0  0  0  0  0
   48.8710   25.5113   34.5014 H   0  0  0  0  0  0  0  0  0  0  0  0
   47.8761   26.1269   37.4697 H   0  0  0  0  0  0  0  0  0  0  0  0
   48.6693   27.3373   36.9018 H   0  0  0  0  0  0  0  0  0  0  0  0
   46.7687   27.3655   34.7706 H   0  0  0  0  0  0  0  0  0  0  0  0
   45.8425   26.3362   35.4727 H   0  0  0  0  0  0  0  0  0  0  0  0
  1  4  1  0
  1 13  1  0
  2  7  1  0
  2  8  1  0
  3  2  2  0
  4  5  2  0
  4  3  1  0
  5  6  1  0
  6  7  2  0
  8 12  1  0
  9 10  1  0
  9  8  2  0
 10 11  2  0
 11 12  1  0
 13 17  1  0
 13 14  1  0
 14 15  2  0
 16 15  1  0
 17 16  2  0
 18 17  1  0
 19 18  2  0
 20 19  1  0
 20 21  1  0
 21 22  2  0
 22 18  1  0
 23 21  1  0
 23 26  1  0
 23 25  1  0
 24 23  1  0
 27 29  1  0
 27 19  1  0
 27 28  1  0
 29 28  1  0
  1 30  1  0
  1 31  1  0
  3 32  1  0
  6 33  1  0
  9 34  1  0
 10 35  1  0
 11 36  1  0
 15 37  1  0
 16 38  1  0
 27 39  1  0
 28 40  1  0
 28 41  1  0
 29 42  1  0
 29 43  1  0
M  ISO  8  30   8  31   8  32  14  33  14  34  14  35  14  36  14  37  14
M  ISO  6  38  14  39  13  40  13  41  13  42  13  43  13
M  END
>  <minimizedAffinity>  (1) 
-5.12151384

>  <minimizedRMSD>  (1) 
0.124109648

$$$$
