
     RDKit          3D

 39 42  0  0  0  0  0  0  0  0999 V2000
   44.9230   24.8680   37.1710 N   0  0  0  0  0  0  0  0  0  0  0  0
   44.6200   25.6450   38.2020 N   0  0  0  0  0  0  0  0  0  0  0  0
   45.6080   25.7940   39.0480 C   0  0  0  0  0  0  0  0  0  0  0  0
   46.6820   25.0710   38.5810 C   0  0  0  0  0  0  0  0  0  0  0  0
   46.2160   24.4970   37.3920 C   0  0  0  0  0  0  0  0  0  0  0  0
   47.0430   23.6080   36.5130 C   0  0  0  0  0  0  0  0  0  0  0  0
   47.8000   24.1650   35.4560 C   0  0  0  0  0  0  0  0  0  0  0  0
   48.5880   22.7000   34.7350 S   0  0  0  0  0  0  0  0  0  0  0  0
   47.7570   21.5430   35.9930 C   0  0  0  0  0  0  0  0  0  0  0  0
   47.1800   22.3010   36.5810 N   0  0  0  0  0  0  0  0  0  0  0  0
   47.9650   20.0800   36.0010 C   0  0  0  0  0  0  0  0  0  0  0  0
   47.7370   19.5250   34.7670 F   0  0  0  0  0  0  0  0  0  0  0  0
   47.0470   19.5940   36.9230 F   0  0  0  0  0  0  0  0  0  0  0  0
   49.2350   19.7540   36.4870 F   0  0  0  0  0  0  0  0  0  0  0  0
   47.9820   25.5090   34.9810 C   0  0  0  0  0  0  0  0  0  0  0  0
   47.4290   25.9870   33.9650 O   0  0  0  0  0  0  0  0  0  0  0  0
   48.8330   26.2550   35.7460 O   0  0  0  0  0  0  0  0  0  0  0  0
   44.1200   24.4570   36.0300 C   0  0  0  0  0  0  0  0  0  0  0  0
   41.0200   22.5280   37.0310 C   0  0  0  0  0  0  0  0  0  0  0  0
   41.8730   23.5520   36.6950 C   0  0  0  0  0  0  0  0  0  0  0  0
   43.2170   23.3130   36.3940 C   0  0  0  0  0  0  0  0  0  0  0  0
   43.6170   22.0070   36.4590 N   0  0  0  0  0  0  0  0  0  0  0  0
   42.7720   21.0090   36.7900 C   0  0  0  0  0  0  0  0  0  0  0  0
   41.4900   21.3020   37.0680 N   0  0  0  0  0  0  0  0  0  0  0  0
   39.6220   22.8530   37.3350 C   0  0  0  0  0  0  0  0  0  0  0  0
   38.5980   22.8080   36.4020 C   0  0  0  0  0  0  0  0  0  0  0  0
   37.4930   23.1830   37.1240 C   0  0  0  0  0  0  0  0  0  0  0  0
   37.8640   23.4370   38.4230 C   0  0  0  0  0  0  0  0  0  0  0  0
   39.1660   23.2200   38.4910 O   0  0  0  0  0  0  0  0  0  0  0  0
   45.5839   26.3924   39.9707 H   0  0  0  0  0  0  0  0  0  0  0  0
   47.6777   24.9678   39.0371 H   0  0  0  0  0  0  0  0  0  0  0  0
   49.0238   27.1950   35.5009 H   0  0  0  0  0  0  0  0  0  0  0  0
   44.7877   24.1432   35.2141 H   0  0  0  0  0  0  0  0  0  0  0  0
   43.4989   25.3077   35.7128 H   0  0  0  0  0  0  0  0  0  0  0  0
   41.4896   24.5825   36.6622 H   0  0  0  0  0  0  0  0  0  0  0  0
   43.1275   19.9689   36.8319 H   0  0  0  0  0  0  0  0  0  0  0  0
   38.6570   22.5366   35.3376 H   0  0  0  0  0  0  0  0  0  0  0  0
   36.4710   23.2671   36.7259 H   0  0  0  0  0  0  0  0  0  0  0  0
   37.2065   23.7578   39.2445 H   0  0  0  0  0  0  0  0  0  0  0  0
  1  5  1  0
  1  2  1  0
  2  3  2  0
  4  3  1  0
  5  4  2  0
  6 10  1  0
  6  5  1  0
  7  6  2  0
  8  7  1  0
  8  9  1  0
  9 11  1  0
  9 10  2  0
 11 14  1  0
 11 13  1  0
 12 11  1  0
 15  7  1  0
 15 17  1  0
 16 15  2  0
 18 21  1  0
 18  1  1  0
 19 24  1  0
 19 25  1  0
 20 19  2  0
 21 22  2  0
 21 20  1  0
 22 23  1  0
 23 24  2  0
 25 29  1  0
 26 27  1  0
 26 25  2  0
 27 28  2  0
 28 29  1  0
  3 30  1  0
  4 31  1  0
 17 32  1  0
 18 33  1  0
 18 34  1  0
 20 35  1  0
 23 36  1  0
 26 37  1  0
 27 38  1  0
 28 39  1  0
M  ISO  8  30  14  31  14  32   3  33   8  34   8  35  14  36  14  37  14
M  ISO  2  38  14  39  14
M  END
>  <minimizedAffinity>  (1) 
-4.92632294

>  <minimizedRMSD>  (1) 
0.417746753

$$$$
