
     RDKit          3D

 37 40  0  0  0  0  0  0  0  0999 V2000
   44.1590   24.3850   36.0100 C   0  0  0  0  0  0  0  0  0  0  0  0
   41.0340   22.5140   37.0100 C   0  0  0  0  0  0  0  0  0  0  0  0
   41.9020   23.5350   36.6670 C   0  0  0  0  0  0  0  0  0  0  0  0
   43.2470   23.2600   36.3760 C   0  0  0  0  0  0  0  0  0  0  0  0
   43.6280   21.9550   36.4530 N   0  0  0  0  0  0  0  0  0  0  0  0
   42.7690   20.9610   36.7890 C   0  0  0  0  0  0  0  0  0  0  0  0
   41.4880   21.2780   37.0590 N   0  0  0  0  0  0  0  0  0  0  0  0
   39.6460   22.8530   37.3040 C   0  0  0  0  0  0  0  0  0  0  0  0
   38.6150   22.8070   36.3960 C   0  0  0  0  0  0  0  0  0  0  0  0
   37.5200   23.2030   37.1140 C   0  0  0  0  0  0  0  0  0  0  0  0
   37.8910   23.4730   38.4040 C   0  0  0  0  0  0  0  0  0  0  0  0
   39.1970   23.2430   38.4640 O   0  0  0  0  0  0  0  0  0  0  0  0
   44.9250   24.8310   37.1450 N   0  0  0  0  0  0  0  0  0  0  0  0
   44.5910   25.6180   38.1570 N   0  0  0  0  0  0  0  0  0  0  0  0
   45.5560   25.8130   39.0240 C   0  0  0  0  0  0  0  0  0  0  0  0
   46.6540   25.1140   38.5940 C   0  0  0  0  0  0  0  0  0  0  0  0
   46.2190   24.5040   37.4030 C   0  0  0  0  0  0  0  0  0  0  0  0
   47.0920   23.6190   36.5580 C   0  0  0  0  0  0  0  0  0  0  0  0
   47.9990   24.2020   35.6080 C   0  0  0  0  0  0  0  0  0  0  0  0
   48.7800   22.7110   34.8850 S   0  0  0  0  0  0  0  0  0  0  0  0
   47.7520   21.5650   35.9870 C   0  0  0  0  0  0  0  0  0  0  0  0
   47.1530   22.3050   36.5610 N   0  0  0  0  0  0  0  0  0  0  0  0
   47.8820   20.0840   35.9270 C   0  0  0  0  0  0  0  0  0  0  0  0
   47.5060   19.5900   34.6900 F   0  0  0  0  0  0  0  0  0  0  0  0
   47.0290   19.6000   36.9010 F   0  0  0  0  0  0  0  0  0  0  0  0
   49.1720   19.6710   36.2680 F   0  0  0  0  0  0  0  0  0  0  0  0
   48.2250   25.5160   35.3120 O   0  0  0  0  0  0  0  0  0  0  0  0
   44.8491   24.0450   35.2238 H   0  0  0  0  0  0  0  0  0  0  0  0
   43.5458   25.2260   35.6542 H   0  0  0  0  0  0  0  0  0  0  0  0
   41.5349   24.5710   36.6220 H   0  0  0  0  0  0  0  0  0  0  0  0
   43.1114   19.9169   36.8400 H   0  0  0  0  0  0  0  0  0  0  0  0
   38.6601   22.5181   35.3356 H   0  0  0  0  0  0  0  0  0  0  0  0
   36.4983   23.2910   36.7160 H   0  0  0  0  0  0  0  0  0  0  0  0
   37.2398   23.8114   39.2234 H   0  0  0  0  0  0  0  0  0  0  0  0
   45.4949   26.4279   39.9340 H   0  0  0  0  0  0  0  0  0  0  0  0
   47.6438   25.0459   39.0690 H   0  0  0  0  0  0  0  0  0  0  0  0
   48.8921   25.7605   34.6226 H   0  0  0  0  0  0  0  0  0  0  0  0
  1  4  1  0
  1 13  1  0
  2  7  1  0
  2  8  1  0
  3  2  2  0
  4  5  2  0
  4  3  1  0
  5  6  1  0
  6  7  2  0
  8 12  1  0
  9 10  1  0
  9  8  2  0
 10 11  2  0
 11 12  1  0
 13 17  1  0
 13 14  1  0
 14 15  2  0
 16 15  1  0
 17 16  2  0
 18 22  1  0
 18 17  1  0
 19 18  2  0
 20 19  1  0
 20 21  1  0
 21 22  2  0
 23 21  1  0
 23 26  1  0
 23 25  1  0
 24 23  1  0
 27 19  1  0
  1 28  1  0
  1 29  1  0
  3 30  1  0
  6 31  1  0
  9 32  1  0
 10 33  1  0
 11 34  1  0
 15 35  1  0
 16 36  1  0
 27 37  1  0
M  ISO  8  28   8  29   8  30  14  31  14  32  14  33  14  34  14  35  14
M  ISO  2  36  14  37   3
M  END
>  <minimizedAffinity>  (1) 
-4.99681139

>  <minimizedRMSD>  (1) 
0.0700459257

$$$$
