
     RDKit          3D

 38 41  0  0  0  0  0  0  0  0999 V2000
   44.1450   24.4200   36.0240 C   0  0  0  0  0  0  0  0  0  0  0  0
   41.0270   22.5220   37.0200 C   0  0  0  0  0  0  0  0  0  0  0  0
   41.8910   23.5320   36.6840 C   0  0  0  0  0  0  0  0  0  0  0  0
   43.2290   23.2890   36.3880 C   0  0  0  0  0  0  0  0  0  0  0  0
   43.6220   21.9790   36.4560 N   0  0  0  0  0  0  0  0  0  0  0  0
   42.7640   20.9890   36.7870 C   0  0  0  0  0  0  0  0  0  0  0  0
   41.4850   21.2950   37.0610 N   0  0  0  0  0  0  0  0  0  0  0  0
   39.6280   22.8560   37.3180 C   0  0  0  0  0  0  0  0  0  0  0  0
   38.6020   22.8050   36.4000 C   0  0  0  0  0  0  0  0  0  0  0  0
   37.5030   23.1960   37.1280 C   0  0  0  0  0  0  0  0  0  0  0  0
   37.8800   23.4620   38.4140 C   0  0  0  0  0  0  0  0  0  0  0  0
   39.1800   23.2390   38.4740 O   0  0  0  0  0  0  0  0  0  0  0  0
   44.9200   24.8560   37.1720 N   0  0  0  0  0  0  0  0  0  0  0  0
   44.5800   25.6360   38.1860 N   0  0  0  0  0  0  0  0  0  0  0  0
   45.5440   25.8140   39.0460 C   0  0  0  0  0  0  0  0  0  0  0  0
   46.6570   25.1090   38.6120 C   0  0  0  0  0  0  0  0  0  0  0  0
   46.2200   24.5120   37.4170 C   0  0  0  0  0  0  0  0  0  0  0  0
   47.0740   23.6390   36.5660 C   0  0  0  0  0  0  0  0  0  0  0  0
   47.9450   24.2220   35.6030 C   0  0  0  0  0  0  0  0  0  0  0  0
   48.7360   22.7600   34.8570 S   0  0  0  0  0  0  0  0  0  0  0  0
   47.7510   21.5830   35.9800 C   0  0  0  0  0  0  0  0  0  0  0  0
   47.1590   22.3250   36.5600 N   0  0  0  0  0  0  0  0  0  0  0  0
   47.8990   20.1110   35.9160 C   0  0  0  0  0  0  0  0  0  0  0  0
   47.5220   19.6120   34.6940 F   0  0  0  0  0  0  0  0  0  0  0  0
   47.0550   19.6180   36.9030 F   0  0  0  0  0  0  0  0  0  0  0  0
   49.1920   19.7120   36.2680 F   0  0  0  0  0  0  0  0  0  0  0  0
   48.2250   25.5840   35.2190 C   0  0  0  0  0  0  0  0  0  0  0  0
   48.9090   26.3030   35.9950 O   0  0  0  0  0  0  0  0  0  0  0  0
   44.8322   24.0853   35.2329 H   0  0  0  0  0  0  0  0  0  0  0  0
   43.5341   25.2651   35.6738 H   0  0  0  0  0  0  0  0  0  0  0  0
   41.5155   24.5653   36.6473 H   0  0  0  0  0  0  0  0  0  0  0  0
   43.1086   19.9453   36.8315 H   0  0  0  0  0  0  0  0  0  0  0  0
   38.6504   22.5198   35.3387 H   0  0  0  0  0  0  0  0  0  0  0  0
   36.4789   23.2814   36.7358 H   0  0  0  0  0  0  0  0  0  0  0  0
   37.2297   23.7957   39.2361 H   0  0  0  0  0  0  0  0  0  0  0  0
   45.4846   26.4210   39.9614 H   0  0  0  0  0  0  0  0  0  0  0  0
   47.6454   25.0349   39.0891 H   0  0  0  0  0  0  0  0  0  0  0  0
   47.8486   25.9869   34.2672 H   0  0  0  0  0  0  0  0  0  0  0  0
  1  4  1  0
  1 13  1  0
  2  7  1  0
  2  8  1  0
  3  2  2  0
  4  5  2  0
  4  3  1  0
  5  6  1  0
  6  7  2  0
  8 12  1  0
  9 10  1  0
  9  8  2  0
 10 11  2  0
 11 12  1  0
 13 17  1  0
 13 14  1  0
 14 15  2  0
 16 15  1  0
 17 16  2  0
 18 17  1  0
 19 18  2  0
 20 19  1  0
 20 21  1  0
 21 22  2  0
 22 18  1  0
 23 21  1  0
 23 26  1  0
 23 25  1  0
 24 23  1  0
 27 19  1  0
 27 28  2  0
  1 29  1  0
  1 30  1  0
  3 31  1  0
  6 32  1  0
  9 33  1  0
 10 34  1  0
 11 35  1  0
 15 36  1  0
 16 37  1  0
 27 38  1  0
M  ISO  8  29   8  30   8  31  14  32  14  33  14  34  14  35  14  36  14
M  ISO  2  37  14  38   6
M  END
>  <minimizedAffinity>  (1) 
-4.8738637

>  <minimizedRMSD>  (1) 
0.30170849

$$$$
