
     RDKit          3D

 30 32  0  0  0  0  0  0  0  0999 V2000
   38.0570   22.3990   35.0270 C   0  0  0  0  0  0  0  0  0  0  0  0
   39.4330   22.2500   35.0460 C   0  0  0  0  0  0  0  0  0  0  0  0
   40.1440   22.5420   36.1840 C   0  0  0  0  0  0  0  0  0  0  0  0
   39.4540   22.9770   37.2760 N   0  0  0  0  0  0  0  0  0  0  0  0
   38.1140   23.1230   37.2620 C   0  0  0  0  0  0  0  0  0  0  0  0
   37.4330   22.8330   36.1420 N   0  0  0  0  0  0  0  0  0  0  0  0
   41.5520   22.4030   36.2390 N   0  0  0  0  0  0  0  0  0  0  0  0
   42.2100   21.2590   36.2920 N   0  0  0  0  0  0  0  0  0  0  0  0
   43.5330   21.4930   36.3340 C   0  0  0  0  0  0  0  0  0  0  0  0
   43.7440   22.8550   36.3080 C   0  0  0  0  0  0  0  0  0  0  0  0
   42.4480   23.3790   36.2470 C   0  0  0  0  0  0  0  0  0  0  0  0
   37.1910   22.1280   33.9000 C   0  0  0  0  0  0  0  0  0  0  0  0
   36.3710   21.0090   33.8460 C   0  0  0  0  0  0  0  0  0  0  0  0
   35.6710   21.0290   32.6530 C   0  0  0  0  0  0  0  0  0  0  0  0
   36.0990   22.1660   32.0320 C   0  0  0  0  0  0  0  0  0  0  0  0
   37.0010   22.7960   32.7980 O   0  0  0  0  0  0  0  0  0  0  0  0
   34.6820   20.0550   32.1450 C   0  0  0  0  0  0  0  0  0  0  0  0
   35.0980   18.6140   32.4050 C   0  0  0  0  0  0  0  0  0  0  0  0
   39.9587   21.8966   34.1467 H   0  0  0  0  0  0  0  0  0  0  0  0
   37.5840   23.4761   38.1589 H   0  0  0  0  0  0  0  0  0  0  0  0
   44.3182   20.7241   36.3813 H   0  0  0  0  0  0  0  0  0  0  0  0
   44.7001   23.3985   36.3299 H   0  0  0  0  0  0  0  0  0  0  0  0
   42.2067   24.4516   36.2107 H   0  0  0  0  0  0  0  0  0  0  0  0
   36.2911   20.2347   34.6232 H   0  0  0  0  0  0  0  0  0  0  0  0
   35.7545   22.5146   31.0472 H   0  0  0  0  0  0  0  0  0  0  0  0
   34.5692   20.1996   31.0604 H   0  0  0  0  0  0  0  0  0  0  0  0
   33.7352   20.2312   32.6766 H   0  0  0  0  0  0  0  0  0  0  0  0
   35.1491   18.4371   33.4895 H   0  0  0  0  0  0  0  0  0  0  0  0
   34.3599   17.9327   31.9567 H   0  0  0  0  0  0  0  0  0  0  0  0
   36.0857   18.4309   31.9567 H   0  0  0  0  0  0  0  0  0  0  0  0
  1  2  2  0
  1  6  1  0
  2  3  1  0
  3  7  1  0
  3  4  2  0
  5  4  1  0
  6  5  2  0
  7 11  1  0
  7  8  1  0
  8  9  2  0
 10  9  1  0
 11 10  2  0
 12  1  1  0
 13 12  2  0
 14 13  1  0
 15 14  2  0
 15 16  1  0
 16 12  1  0
 17 18  1  0
 17 14  1  0
  2 19  1  0
  5 20  1  0
  9 21  1  0
 10 22  1  0
 11 23  1  0
 13 24  1  0
 15 25  1  0
 17 26  1  0
 17 27  1  0
 18 28  1  0
 18 29  1  0
 18 30  1  0
M  ISO  8  19  14  20  14  21  14  22  14  23  14  24  14  25  14  26   8
M  ISO  4  27   8  28   8  29   8  30   8
M  END
>  <minimizedAffinity>  (1) 
-4.64917135

>  <minimizedRMSD>  (1) 
1.38594961

$$$$
