
     RDKit          3D

 36 38  0  0  0  0  0  0  0  0999 V2000
   37.4880   22.0340   34.5050 C   0  0  0  0  0  0  0  0  0  0  0  0
   36.4620   21.0960   34.4640 C   0  0  0  0  0  0  0  0  0  0  0  0
   36.0350   20.9510   33.1730 C   0  0  0  0  0  0  0  0  0  0  0  0
   36.8280   21.8220   32.4570 C   0  0  0  0  0  0  0  0  0  0  0  0
   37.6710   22.4380   33.2900 O   0  0  0  0  0  0  0  0  0  0  0  0
   38.1380   22.3940   35.7450 C   0  0  0  0  0  0  0  0  0  0  0  0
   39.4910   22.2520   35.9950 C   0  0  0  0  0  0  0  0  0  0  0  0
   40.0230   22.6220   37.2070 C   0  0  0  0  0  0  0  0  0  0  0  0
   39.1860   23.1250   38.1340 N   0  0  0  0  0  0  0  0  0  0  0  0
   37.8560   23.2650   37.8880 C   0  0  0  0  0  0  0  0  0  0  0  0
   37.3290   22.9010   36.6990 N   0  0  0  0  0  0  0  0  0  0  0  0
   41.4670   22.4880   37.5230 C   0  0  0  0  0  0  0  0  0  0  0  0
   42.2220   23.2660   36.4770 C   0  0  0  0  0  0  0  0  0  0  0  0
   43.0040   22.2380   35.6770 C   0  0  0  0  0  0  0  0  0  0  0  0
   42.4010   20.9110   36.0400 C   0  0  0  0  0  0  0  0  0  0  0  0
   41.9420   21.0580   37.4530 C   0  0  0  0  0  0  0  0  0  0  0  0
   34.9610   20.0640   32.6340 C   0  0  0  0  0  0  0  0  0  0  0  0
   35.3410   18.5940   32.7330 C   0  0  0  0  0  0  0  0  0  0  0  0
   36.0578   20.5560   35.3329 H   0  0  0  0  0  0  0  0  0  0  0  0
   36.7749   21.9842   31.3703 H   0  0  0  0  0  0  0  0  0  0  0  0
   40.1480   21.8386   35.2156 H   0  0  0  0  0  0  0  0  0  0  0  0
   37.2006   23.6802   38.6678 H   0  0  0  0  0  0  0  0  0  0  0  0
   41.6353   22.8543   38.5465 H   0  0  0  0  0  0  0  0  0  0  0  0
   41.5221   23.8075   35.8236 H   0  0  0  0  0  0  0  0  0  0  0  0
   42.8872   24.0145   36.9323 H   0  0  0  0  0  0  0  0  0  0  0  0
   44.0689   22.2652   35.9512 H   0  0  0  0  0  0  0  0  0  0  0  0
   42.9488   22.4315   34.5956 H   0  0  0  0  0  0  0  0  0  0  0  0
   41.5508   20.6813   35.3810 H   0  0  0  0  0  0  0  0  0  0  0  0
   43.1231   20.0888   35.9276 H   0  0  0  0  0  0  0  0  0  0  0  0
   41.1212   20.3599   37.6742 H   0  0  0  0  0  0  0  0  0  0  0  0
   42.7315   20.8329   38.1851 H   0  0  0  0  0  0  0  0  0  0  0  0
   34.7871   20.3166   31.5776 H   0  0  0  0  0  0  0  0  0  0  0  0
   34.0523   20.2238   33.2330 H   0  0  0  0  0  0  0  0  0  0  0  0
   35.4157   18.3051   33.7918 H   0  0  0  0  0  0  0  0  0  0  0  0
   34.5715   17.9823   32.2394 H   0  0  0  0  0  0  0  0  0  0  0  0
   36.3106   18.4319   32.2394 H   0  0  0  0  0  0  0  0  0  0  0  0
  1  6  1  0
  2  1  2  0
  3  2  1  0
  4  3  2  0
  4  5  1  0
  5  1  1  0
  6  7  2  0
  6 11  1  0
  7  8  1  0
  8 12  1  0
  8  9  2  0
 10  9  1  0
 11 10  2  0
 13 12  1  0
 14 15  1  0
 14 13  1  0
 15 16  1  0
 16 12  1  0
 17 18  1  0
 17  3  1  0
  2 19  1  0
  4 20  1  0
  7 21  1  0
 10 22  1  0
 12 23  1  0
 13 24  1  0
 13 25  1  0
 14 26  1  0
 14 27  1  0
 15 28  1  0
 15 29  1  0
 16 30  1  0
 16 31  1  0
 17 32  1  0
 17 33  1  0
 18 34  1  0
 18 35  1  0
 18 36  1  0
M  ISO  8  19  14  20  14  21  14  22  14  23  13  24  13  25  13  26  13
M  ISO  8  27  13  28  13  29  13  30  13  31  13  32   8  33   8  34   8
M  ISO  2  35   8  36   8
M  END
>  <minimizedAffinity>  (1) 
-4.96086979

>  <minimizedRMSD>  (1) 
0.409789294

$$$$
