
     RDKit          3D

 29 30  0  0  0  0  0  0  0  0999 V2000
   37.3440   21.9910   34.3890 C   0  0  0  0  0  0  0  0  0  0  0  0
   36.3630   21.0000   34.3580 C   0  0  0  0  0  0  0  0  0  0  0  0
   35.9010   20.8490   33.0720 C   0  0  0  0  0  0  0  0  0  0  0  0
   36.6340   21.7720   32.3610 C   0  0  0  0  0  0  0  0  0  0  0  0
   37.4680   22.4160   33.1790 O   0  0  0  0  0  0  0  0  0  0  0  0
   38.0110   22.3630   35.6200 C   0  0  0  0  0  0  0  0  0  0  0  0
   39.3720   22.2660   35.8460 C   0  0  0  0  0  0  0  0  0  0  0  0
   39.9120   22.6450   37.0510 C   0  0  0  0  0  0  0  0  0  0  0  0
   39.0690   23.1120   37.9970 N   0  0  0  0  0  0  0  0  0  0  0  0
   37.7420   23.2090   37.7820 C   0  0  0  0  0  0  0  0  0  0  0  0
   37.2070   22.8370   36.5950 N   0  0  0  0  0  0  0  0  0  0  0  0
   41.3690   22.5560   37.3330 C   0  0  0  0  0  0  0  0  0  0  0  0
   41.9010   21.1600   37.2560 C   0  0  0  0  0  0  0  0  0  0  0  0
   34.8650   19.9240   32.5560 C   0  0  0  0  0  0  0  0  0  0  0  0
   35.3050   18.4590   32.6830 C   0  0  0  0  0  0  0  0  0  0  0  0
   36.0126   20.4270   35.2291 H   0  0  0  0  0  0  0  0  0  0  0  0
   36.5453   21.9518   31.2794 H   0  0  0  0  0  0  0  0  0  0  0  0
   40.0292   21.8812   35.0523 H   0  0  0  0  0  0  0  0  0  0  0  0
   37.0876   23.5939   38.5780 H   0  0  0  0  0  0  0  0  0  0  0  0
   41.9054   23.1753   36.5990 H   0  0  0  0  0  0  0  0  0  0  0  0
   41.5241   22.9081   38.3635 H   0  0  0  0  0  0  0  0  0  0  0  0
   42.0504   20.7679   38.2728 H   0  0  0  0  0  0  0  0  0  0  0  0
   41.1826   20.5229   36.7193 H   0  0  0  0  0  0  0  0  0  0  0  0
   42.8612   21.1626   36.7193 H   0  0  0  0  0  0  0  0  0  0  0  0
   34.6794   20.1508   31.4958 H   0  0  0  0  0  0  0  0  0  0  0  0
   33.9509   20.0626   33.1520 H   0  0  0  0  0  0  0  0  0  0  0  0
   35.3854   18.1912   33.7469 H   0  0  0  0  0  0  0  0  0  0  0  0
   34.5623   17.8096   32.1966 H   0  0  0  0  0  0  0  0  0  0  0  0
   36.2826   18.3263   32.1966 H   0  0  0  0  0  0  0  0  0  0  0  0
  1  6  1  0
  2  1  2  0
  3  2  1  0
  4  3  2  0
  4  5  1  0
  5  1  1  0
  6  7  2  0
  6 11  1  0
  7  8  1  0
  8 12  1  0
  8  9  2  0
 10  9  1  0
 11 10  2  0
 13 12  1  0
 14 15  1  0
 14  3  1  0
  2 16  1  0
  4 17  1  0
  7 18  1  0
 10 19  1  0
 12 20  1  0
 12 21  1  0
 13 22  1  0
 13 23  1  0
 13 24  1  0
 14 25  1  0
 14 26  1  0
 15 27  1  0
 15 28  1  0
 15 29  1  0
M  ISO  8  16  14  17  14  18  14  19  14  20   8  21   8  22   8  23   8
M  ISO  6  24   8  25   8  26   8  27   8  28   8  29   8
M  END
>  <minimizedAffinity>  (1) 
-4.37727118

>  <minimizedRMSD>  (1) 
0.53017962

$$$$
