
     RDKit          3D

 23 24  0  0  0  0  0  0  0  0999 V2000
   39.1260   22.9440   37.9440 C   0  0  0  0  0  0  0  0  0  0  0  0
   38.5770   23.9690   37.1570 C   0  0  0  0  0  0  0  0  0  0  0  0
   39.3070   24.4110   36.0580 C   0  0  0  0  0  0  0  0  0  0  0  0
   40.5110   23.8310   35.7980 N   0  0  0  0  0  0  0  0  0  0  0  0
   41.0100   22.8510   36.5710 C   0  0  0  0  0  0  0  0  0  0  0  0
   40.3300   22.4050   37.6380 N   0  0  0  0  0  0  0  0  0  0  0  0
   38.9280   25.4280   35.1440 N   0  0  0  0  0  0  0  0  0  0  0  0
   39.2460   26.8410   35.2950 C   0  0  0  0  0  0  0  0  0  0  0  0
   37.9590   27.6350   35.3900 C   0  0  0  0  0  0  0  0  0  0  0  0
   36.8770   26.8440   34.9840 O   0  0  0  0  0  0  0  0  0  0  0  0
   37.1310   26.2760   33.7340 C   0  0  0  0  0  0  0  0  0  0  0  0
   38.1650   25.1810   33.9290 C   0  0  0  0  0  0  0  0  0  0  0  0
   38.5716   22.5745   38.8193 H   0  0  0  0  0  0  0  0  0  0  0  0
   37.5992   24.4094   37.4019 H   0  0  0  0  0  0  0  0  0  0  0  0
   41.9873   22.4096   36.3258 H   0  0  0  0  0  0  0  0  0  0  0  0
   39.8378   26.9890   36.2104 H   0  0  0  0  0  0  0  0  0  0  0  0
   39.8277   27.1833   34.4264 H   0  0  0  0  0  0  0  0  0  0  0  0
   37.8051   27.9562   36.4308 H   0  0  0  0  0  0  0  0  0  0  0  0
   38.0287   28.5154   34.7342 H   0  0  0  0  0  0  0  0  0  0  0  0
   37.5202   27.0413   33.0463 H   0  0  0  0  0  0  0  0  0  0  0  0
   36.2074   25.8629   33.3024 H   0  0  0  0  0  0  0  0  0  0  0  0
   37.6559   24.2093   34.0097 H   0  0  0  0  0  0  0  0  0  0  0  0
   38.8495   25.1729   33.0679 H   0  0  0  0  0  0  0  0  0  0  0  0
  2  1  2  0
  3  2  1  0
  4  3  2  0
  4  5  1  0
  5  6  2  0
  6  1  1  0
  7  8  1  0
  7  3  1  0
  8  9  1  0
 10  9  1  0
 11 12  1  0
 11 10  1  0
 12  7  1  0
  1 13  1  0
  2 14  1  0
  5 15  1  0
  8 16  1  0
  8 17  1  0
  9 18  1  0
  9 19  1  0
 11 20  1  0
 11 21  1  0
 12 22  1  0
 12 23  1  0
M  ISO  8  13  14  14  14  15  14  16  13  17  13  18  13  19  13  20  13
M  ISO  3  21  13  22  13  23  13
M  END
>  <minimizedAffinity>  (1) 
-3.66448617

>  <minimizedRMSD>  (1) 
4.16438389

$$$$
