
     RDKit          3D

 25 26  0  0  0  0  0  0  0  0999 V2000
   37.5290   22.2180   34.5770 C   0  0  0  0  0  0  0  0  0  0  0  0
   36.5340   21.2480   34.4690 C   0  0  0  0  0  0  0  0  0  0  0  0
   36.1120   21.1860   33.1620 C   0  0  0  0  0  0  0  0  0  0  0  0
   36.8760   22.1340   32.5120 C   0  0  0  0  0  0  0  0  0  0  0  0
   37.6990   22.7150   33.3960 O   0  0  0  0  0  0  0  0  0  0  0  0
   38.1690   22.5100   35.8440 C   0  0  0  0  0  0  0  0  0  0  0  0
   39.4320   22.0860   36.2160 C   0  0  0  0  0  0  0  0  0  0  0  0
   39.9620   22.4090   37.4410 C   0  0  0  0  0  0  0  0  0  0  0  0
   39.2010   23.1590   38.2680 N   0  0  0  0  0  0  0  0  0  0  0  0
   37.9550   23.5800   37.9100 C   0  0  0  0  0  0  0  0  0  0  0  0
   37.4400   23.2560   36.7000 N   0  0  0  0  0  0  0  0  0  0  0  0
   41.2600   21.9670   37.8110 N   0  0  0  0  0  0  0  0  0  0  0  0
   35.0630   20.2880   32.5980 C   0  0  0  0  0  0  0  0  0  0  0  0
   35.3890   18.8220   32.8200 C   0  0  0  0  0  0  0  0  0  0  0  0
   36.1490   20.6322   35.2952 H   0  0  0  0  0  0  0  0  0  0  0  0
   36.8186   22.3742   31.4401 H   0  0  0  0  0  0  0  0  0  0  0  0
   40.0239   21.4777   35.5163 H   0  0  0  0  0  0  0  0  0  0  0  0
   37.3628   24.1880   38.6097 H   0  0  0  0  0  0  0  0  0  0  0  0
   41.6456   22.2164   38.7330 H   0  0  0  0  0  0  0  0  0  0  0  0
   41.8157   21.3971   37.1574 H   0  0  0  0  0  0  0  0  0  0  0  0
   34.9806   20.4736   31.5169 H   0  0  0  0  0  0  0  0  0  0  0  0
   34.1160   20.5069   33.1130 H   0  0  0  0  0  0  0  0  0  0  0  0
   35.4348   18.6160   33.8996 H   0  0  0  0  0  0  0  0  0  0  0  0
   34.6075   18.1989   32.3606 H   0  0  0  0  0  0  0  0  0  0  0  0
   36.3609   18.5889   32.3606 H   0  0  0  0  0  0  0  0  0  0  0  0
  1  6  1  0
  2  1  2  0
  3  2  1  0
  4  3  2  0
  4  5  1  0
  5  1  1  0
  6  7  2  0
  6 11  1  0
  7  8  1  0
  8 12  1  0
  8  9  2  0
 10  9  1  0
 11 10  2  0
 13 14  1  0
 13  3  1  0
  2 15  1  0
  4 16  1  0
  7 17  1  0
 10 18  1  0
 12 19  1  0
 12 20  1  0
 13 21  1  0
 13 22  1  0
 14 23  1  0
 14 24  1  0
 14 25  1  0
M  ISO  8  15  14  16  14  17  14  18  14  21   8  22   8  23   8  24   8
M  ISO  1  25   8
M  END
>  <minimizedAffinity>  (1) 
-4.20928764

>  <minimizedRMSD>  (1) 
0.291266948

$$$$
