
     RDKit          3D

 49 52  0  0  0  0  0  0  0  0999 V2000
   37.0100   22.3690   32.9270 C   0  0  0  0  0  0  0  0  0  0  0  0
   36.2940   21.2260   33.2980 C   0  0  0  0  0  0  0  0  0  0  0  0
   35.6360   20.7630   32.1900 C   0  0  0  0  0  0  0  0  0  0  0  0
   35.9910   21.6590   31.1830 C   0  0  0  0  0  0  0  0  0  0  0  0
   36.8060   22.5880   31.6810 O   0  0  0  0  0  0  0  0  0  0  0  0
   37.8140   23.0850   33.9120 C   0  0  0  0  0  0  0  0  0  0  0  0
   38.1440   24.4270   33.8460 C   0  0  0  0  0  0  0  0  0  0  0  0
   38.9050   25.0310   34.8120 C   0  0  0  0  0  0  0  0  0  0  0  0
   39.3200   24.2640   35.8300 N   0  0  0  0  0  0  0  0  0  0  0  0
   39.0020   22.9430   35.9060 C   0  0  0  0  0  0  0  0  0  0  0  0
   38.2590   22.3500   34.9650 N   0  0  0  0  0  0  0  0  0  0  0  0
   39.2630   26.4560   34.7540 C   0  0  0  0  0  0  0  0  0  0  0  0
   38.6710   27.2500   35.8930 C   0  0  0  0  0  0  0  0  0  0  0  0
   38.7770   27.0910   33.4420 C   0  0  0  0  0  0  0  0  0  0  0  0
   40.7760   26.5590   34.7540 C   0  0  0  0  0  0  0  0  0  0  0  0
   34.7460   19.6000   32.0170 C   0  0  0  0  0  0  0  0  0  0  0  0
   35.2680   18.3690   32.7690 C   0  0  0  0  0  0  0  0  0  0  0  0
   35.8690   17.3720   31.8660 C   0  0  0  0  0  0  0  0  0  0  0  0
   36.6940   17.4520   30.7530 C   0  0  0  0  0  0  0  0  0  0  0  0
   36.9600   16.2080   30.2830 N   0  0  0  0  0  0  0  0  0  0  0  0
   36.3100   15.3380   31.0880 C   0  0  0  0  0  0  0  0  0  0  0  0
   36.3250   13.9650   30.9480 C   0  0  0  0  0  0  0  0  0  0  0  0
   35.5970   13.2400   31.8720 C   0  0  0  0  0  0  0  0  0  0  0  0
   34.9110   13.9040   32.8630 C   0  0  0  0  0  0  0  0  0  0  0  0
   34.8960   15.2780   33.0020 C   0  0  0  0  0  0  0  0  0  0  0  0
   35.6290   16.0240   32.0730 C   0  0  0  0  0  0  0  0  0  0  0  0
   36.2647   20.7783   34.3023 H   0  0  0  0  0  0  0  0  0  0  0  0
   35.6508   21.6071   30.1382 H   0  0  0  0  0  0  0  0  0  0  0  0
   37.7858   25.0251   32.9951 H   0  0  0  0  0  0  0  0  0  0  0  0
   39.3636   22.3504   36.7593 H   0  0  0  0  0  0  0  0  0  0  0  0
   38.9950   26.8155   36.8502 H   0  0  0  0  0  0  0  0  0  0  0  0
   39.0133   28.2934   35.8294 H   0  0  0  0  0  0  0  0  0  0  0  0
   37.5733   27.2197   35.8294 H   0  0  0  0  0  0  0  0  0  0  0  0
   38.1228   27.9458   33.6686 H   0  0  0  0  0  0  0  0  0  0  0  0
   39.6434   27.4368   32.8590 H   0  0  0  0  0  0  0  0  0  0  0  0
   38.2169   26.3450   32.8590 H   0  0  0  0  0  0  0  0  0  0  0  0
   41.1418   26.5839   35.7911 H   0  0  0  0  0  0  0  0  0  0  0  0
   41.2028   25.6878   34.2355 H   0  0  0  0  0  0  0  0  0  0  0  0
   41.0808   27.4800   34.2355 H   0  0  0  0  0  0  0  0  0  0  0  0
   33.7473   19.8552   32.4009 H   0  0  0  0  0  0  0  0  0  0  0  0
   34.7058   19.3555   30.9453 H   0  0  0  0  0  0  0  0  0  0  0  0
   36.0295   18.6941   33.4931 H   0  0  0  0  0  0  0  0  0  0  0  0
   34.4116   17.8942   33.2702 H   0  0  0  0  0  0  0  0  0  0  0  0
   37.0759   18.3866   30.3164 H   0  0  0  0  0  0  0  0  0  0  0  0
   37.5450   15.9715   29.4689 H   0  0  0  0  0  0  0  0  0  0  0  0
   36.8881   13.4727   30.1415 H   0  0  0  0  0  0  0  0  0  0  0  0
   35.5661   12.1419   31.8159 H   0  0  0  0  0  0  0  0  0  0  0  0
   34.3405   13.3046   33.5878 H   0  0  0  0  0  0  0  0  0  0  0  0
   34.3309   15.7657   33.8100 H   0  0  0  0  0  0  0  0  0  0  0  0
  1  2  2  0
  1  6  1  0
  3  2  1  0
  4  5  1  0
  4  3  2  0
  5  1  1  0
  6 11  1  0
  7  6  2  0
  7  8  1  0
  8  9  2  0
  9 10  1  0
 11 10  2  0
 12  8  1  0
 12 13  1  0
 14 12  1  0
 15 12  1  0
 16  3  1  0
 16 17  1  0
 18 26  1  0
 18 17  1  0
 19 18  2  0
 20 19  1  0
 20 21  1  0
 21 26  2  0
 22 21  1  0
 22 23  2  0
 23 24  1  0
 24 25  2  0
 26 25  1  0
  2 27  1  0
  4 28  1  0
  7 29  1  0
 10 30  1  0
 13 31  1  0
 13 32  1  0
 13 33  1  0
 14 34  1  0
 14 35  1  0
 14 36  1  0
 15 37  1  0
 15 38  1  0
 15 39  1  0
 16 40  1  0
 16 41  1  0
 17 42  1  0
 17 43  1  0
 19 44  1  0
 20 45  1  0
 22 46  1  0
 23 47  1  0
 24 48  1  0
 25 49  1  0
M  ISO  8  27  14  28  14  29  14  30  14  31   8  32   8  33   8  34   8
M  ISO  8  35   8  36   8  37   8  38   8  39   8  40   8  41   8  42   8
M  ISO  7  43   8  44  14  45   9  46  14  47  14  48  14  49  14
M  END
>  <minimizedAffinity>  (1) 
-5.61253595

>  <minimizedRMSD>  (1) 
2.04819369

$$$$
