
     RDKit          3D

 49 52  0  0  0  0  0  0  0  0999 V2000
   36.9480   22.4060   32.9290 C   0  0  0  0  0  0  0  0  0  0  0  0
   36.3710   21.1740   33.2480 C   0  0  0  0  0  0  0  0  0  0  0  0
   35.6540   20.7460   32.1480 C   0  0  0  0  0  0  0  0  0  0  0  0
   35.8410   21.7510   31.2170 C   0  0  0  0  0  0  0  0  0  0  0  0
   36.6140   22.7080   31.7320 O   0  0  0  0  0  0  0  0  0  0  0  0
   37.7680   23.1070   33.9030 C   0  0  0  0  0  0  0  0  0  0  0  0
   38.1030   24.4440   33.8440 C   0  0  0  0  0  0  0  0  0  0  0  0
   38.8810   25.0370   34.7980 C   0  0  0  0  0  0  0  0  0  0  0  0
   39.3160   24.2530   35.8160 N   0  0  0  0  0  0  0  0  0  0  0  0
   38.9930   22.9390   35.8840 C   0  0  0  0  0  0  0  0  0  0  0  0
   38.2320   22.3580   34.9500 N   0  0  0  0  0  0  0  0  0  0  0  0
   39.2470   26.4550   34.7540 C   0  0  0  0  0  0  0  0  0  0  0  0
   38.6670   27.2520   35.9000 C   0  0  0  0  0  0  0  0  0  0  0  0
   38.7940   27.0940   33.4300 C   0  0  0  0  0  0  0  0  0  0  0  0
   40.7660   26.5580   34.7570 C   0  0  0  0  0  0  0  0  0  0  0  0
   34.8650   19.5000   31.9860 C   0  0  0  0  0  0  0  0  0  0  0  0
   35.3650   18.3770   32.8850 C   0  0  0  0  0  0  0  0  0  0  0  0
   35.7640   17.2830   32.0200 N   0  0  0  0  0  0  0  0  0  0  0  0
   36.5250   17.4820   30.9170 C   0  0  0  0  0  0  0  0  0  0  0  0
   36.7320   16.2920   30.3210 N   0  0  0  0  0  0  0  0  0  0  0  0
   36.1010   15.3190   31.0410 C   0  0  0  0  0  0  0  0  0  0  0  0
   35.9850   13.9490   30.8870 C   0  0  0  0  0  0  0  0  0  0  0  0
   36.5240   13.3580   29.9300 O   0  0  0  0  0  0  0  0  0  0  0  0
   35.2570   13.3150   31.8350 N   0  0  0  0  0  0  0  0  0  0  0  0
   34.6630   13.9270   32.8800 C   0  0  0  0  0  0  0  0  0  0  0  0
   33.9490   13.0570   33.7500 N   0  0  0  0  0  0  0  0  0  0  0  0
   34.7920   15.2740   33.0080 N   0  0  0  0  0  0  0  0  0  0  0  0
   35.5020   15.9700   32.1000 C   0  0  0  0  0  0  0  0  0  0  0  0
   36.4702   20.6402   34.2047 H   0  0  0  0  0  0  0  0  0  0  0  0
   35.4156   21.7599   30.2026 H   0  0  0  0  0  0  0  0  0  0  0  0
   37.7329   25.0505   33.0042 H   0  0  0  0  0  0  0  0  0  0  0  0
   39.3648   22.3366   36.7260 H   0  0  0  0  0  0  0  0  0  0  0  0
   38.9890   26.8096   36.8543 H   0  0  0  0  0  0  0  0  0  0  0  0
   39.0212   28.2917   35.8398 H   0  0  0  0  0  0  0  0  0  0  0  0
   37.5688   27.2347   35.8398 H   0  0  0  0  0  0  0  0  0  0  0  0
   38.1698   27.9745   33.6425 H   0  0  0  0  0  0  0  0  0  0  0  0
   39.6768   27.4017   32.8504 H   0  0  0  0  0  0  0  0  0  0  0  0
   38.2114   26.3628   32.8504 H   0  0  0  0  0  0  0  0  0  0  0  0
   41.1298   26.5827   35.7948 H   0  0  0  0  0  0  0  0  0  0  0  0
   41.1936   25.6868   34.2392 H   0  0  0  0  0  0  0  0  0  0  0  0
   41.0721   27.4790   34.2392 H   0  0  0  0  0  0  0  0  0  0  0  0
   33.8148   19.7116   32.2355 H   0  0  0  0  0  0  0  0  0  0  0  0
   34.9716   19.1680   30.9427 H   0  0  0  0  0  0  0  0  0  0  0  0
   36.2251   18.7226   33.4773 H   0  0  0  0  0  0  0  0  0  0  0  0
   34.5788   18.0562   33.5843 H   0  0  0  0  0  0  0  0  0  0  0  0
   36.9090   18.4516   30.5672 H   0  0  0  0  0  0  0  0  0  0  0  0
   35.1489   12.2940   31.7530 H   0  0  0  0  0  0  0  0  0  0  0  0
   33.4639   13.4379   34.5749 H   0  0  0  0  0  0  0  0  0  0  0  0
   33.9171   12.0461   33.5551 H   0  0  0  0  0  0  0  0  0  0  0  0
  1  2  2  0
  1  6  1  0
  3  2  1  0
  4  5  1  0
  4  3  2  0
  5  1  1  0
  6 11  1  0
  7  6  2  0
  7  8  1  0
  8  9  2  0
  9 10  1  0
 11 10  2  0
 12 15  1  0
 12  8  1  0
 12 13  1  0
 14 12  1  0
 16  3  1  0
 16 17  1  0
 18 28  1  0
 18 17  1  0
 19 18  1  0
 20 19  2  0
 20 21  1  0
 21 28  2  0
 22 21  1  0
 22 24  1  0
 23 22  2  0
 24 25  1  0
 25 27  2  0
 25 26  1  0
 28 27  1  0
  2 29  1  0
  4 30  1  0
  7 31  1  0
 10 32  1  0
 13 33  1  0
 13 34  1  0
 13 35  1  0
 14 36  1  0
 14 37  1  0
 14 38  1  0
 15 39  1  0
 15 40  1  0
 15 41  1  0
 16 42  1  0
 16 43  1  0
 17 44  1  0
 17 45  1  0
 19 46  1  0
 24 47  1  0
 26 48  1  0
 26 49  1  0
M  ISO  8  29  14  30  14  31  14  32  14  33   8  34   8  35   8  36   8
M  ISO  8  37   8  38   8  39   8  40   8  41   8  42   8  43   8  44   8
M  ISO  3  45   8  46  14  47   9
M  END
>  <minimizedAffinity>  (1) 
-5.45749998

>  <minimizedRMSD>  (1) 
1.93954408

$$$$
