
     RDKit          3D

 49 52  0  0  0  0  0  0  0  0999 V2000
   36.9690   22.3910   32.9310 C   0  0  0  0  0  0  0  0  0  0  0  0
   36.3300   21.2030   33.2780 C   0  0  0  0  0  0  0  0  0  0  0  0
   35.6360   20.7440   32.1940 C   0  0  0  0  0  0  0  0  0  0  0  0
   35.8900   21.6980   31.2120 C   0  0  0  0  0  0  0  0  0  0  0  0
   36.6850   22.6470   31.7080 O   0  0  0  0  0  0  0  0  0  0  0  0
   37.7890   23.1040   33.9110 C   0  0  0  0  0  0  0  0  0  0  0  0
   38.1200   24.4390   33.8440 C   0  0  0  0  0  0  0  0  0  0  0  0
   38.8900   25.0410   34.7970 C   0  0  0  0  0  0  0  0  0  0  0  0
   39.3180   24.2640   35.8180 N   0  0  0  0  0  0  0  0  0  0  0  0
   38.9960   22.9380   35.8950 C   0  0  0  0  0  0  0  0  0  0  0  0
   38.2360   22.3590   34.9480 N   0  0  0  0  0  0  0  0  0  0  0  0
   39.2590   26.4540   34.7550 C   0  0  0  0  0  0  0  0  0  0  0  0
   38.6570   27.2480   35.8990 C   0  0  0  0  0  0  0  0  0  0  0  0
   38.7890   27.0900   33.4390 C   0  0  0  0  0  0  0  0  0  0  0  0
   40.7710   26.5570   34.7520 C   0  0  0  0  0  0  0  0  0  0  0  0
   34.7910   19.5390   32.0130 C   0  0  0  0  0  0  0  0  0  0  0  0
   35.3480   18.3470   32.7800 C   0  0  0  0  0  0  0  0  0  0  0  0
   35.8890   17.3820   31.7920 C   0  0  0  0  0  0  0  0  0  0  0  0
   36.6010   17.8260   30.7210 N   0  0  0  0  0  0  0  0  0  0  0  0
   37.1260   16.9780   29.8080 C   0  0  0  0  0  0  0  0  0  0  0  0
   36.9230   15.6590   29.9900 N   0  0  0  0  0  0  0  0  0  0  0  0
   36.2280   15.1500   31.0260 C   0  0  0  0  0  0  0  0  0  0  0  0
   36.0620   13.7720   31.1340 C   0  0  0  0  0  0  0  0  0  0  0  0
   35.3380   13.3030   32.2110 C   0  0  0  0  0  0  0  0  0  0  0  0
   34.7790   14.1470   33.1730 C   0  0  0  0  0  0  0  0  0  0  0  0
   34.9700   15.5200   33.0260 C   0  0  0  0  0  0  0  0  0  0  0  0
   35.6870   16.0290   31.9650 C   0  0  0  0  0  0  0  0  0  0  0  0
   36.3764   20.7147   34.2626 H   0  0  0  0  0  0  0  0  0  0  0  0
   35.4957   21.6728   30.1854 H   0  0  0  0  0  0  0  0  0  0  0  0
   37.7531   25.0380   32.9975 H   0  0  0  0  0  0  0  0  0  0  0  0
   39.3624   22.3376   36.7407 H   0  0  0  0  0  0  0  0  0  0  0  0
   38.9840   26.8167   36.8566 H   0  0  0  0  0  0  0  0  0  0  0  0
   38.9910   28.2941   35.8349 H   0  0  0  0  0  0  0  0  0  0  0  0
   37.5596   27.2089   35.8349 H   0  0  0  0  0  0  0  0  0  0  0  0
   38.1484   27.9568   33.6589 H   0  0  0  0  0  0  0  0  0  0  0  0
   39.6632   27.4182   32.8576 H   0  0  0  0  0  0  0  0  0  0  0  0
   38.2186   26.3507   32.8576 H   0  0  0  0  0  0  0  0  0  0  0  0
   41.1389   26.5821   35.7884 H   0  0  0  0  0  0  0  0  0  0  0  0
   41.1968   25.6858   34.2327 H   0  0  0  0  0  0  0  0  0  0  0  0
   41.0748   27.4779   34.2327 H   0  0  0  0  0  0  0  0  0  0  0  0
   33.7761   19.7560   32.3774 H   0  0  0  0  0  0  0  0  0  0  0  0
   34.7766   19.2849   30.9428 H   0  0  0  0  0  0  0  0  0  0  0  0
   36.1498   18.6790   33.4559 H   0  0  0  0  0  0  0  0  0  0  0  0
   34.5577   17.8759   33.3829 H   0  0  0  0  0  0  0  0  0  0  0  0
   37.6989   17.3523   28.9467 H   0  0  0  0  0  0  0  0  0  0  0  0
   36.4910   13.0843   30.3903 H   0  0  0  0  0  0  0  0  0  0  0  0
   35.1950   12.2174   32.3164 H   0  0  0  0  0  0  0  0  0  0  0  0
   34.2061   13.7412   34.0199 H   0  0  0  0  0  0  0  0  0  0  0  0
   34.5413   16.2084   33.7692 H   0  0  0  0  0  0  0  0  0  0  0  0
  1  2  2  0
  1  6  1  0
  3  2  1  0
  4  5  1  0
  4  3  2  0
  5  1  1  0
  6 11  1  0
  7  6  2  0
  7  8  1  0
  8  9  2  0
  9 10  1  0
 11 10  2  0
 12  8  1  0
 12 13  1  0
 14 12  1  0
 15 12  1  0
 16  3  1  0
 16 17  1  0
 18 27  1  0
 18 17  1  0
 19 18  2  0
 20 21  2  0
 20 19  1  0
 21 22  1  0
 22 23  1  0
 22 27  2  0
 23 24  2  0
 24 25  1  0
 26 25  2  0
 27 26  1  0
  2 28  1  0
  4 29  1  0
  7 30  1  0
 10 31  1  0
 13 32  1  0
 13 33  1  0
 13 34  1  0
 14 35  1  0
 14 36  1  0
 14 37  1  0
 15 38  1  0
 15 39  1  0
 15 40  1  0
 16 41  1  0
 16 42  1  0
 17 43  1  0
 17 44  1  0
 20 45  1  0
 23 46  1  0
 24 47  1  0
 25 48  1  0
 26 49  1  0
M  ISO  8  28  14  29  14  30  14  31  14  32   8  33   8  34   8  35   8
M  ISO  8  36   8  37   8  38   8  39   8  40   8  41   8  42   8  43   8
M  ISO  6  44   8  45  14  46  14  47  14  48  14  49  14
M  END
>  <minimizedAffinity>  (1) 
-5.63146687

>  <minimizedRMSD>  (1) 
2.19977641

$$$$
