
     RDKit          3D

 48 51  0  0  0  0  0  0  0  0999 V2000
   36.9690   22.4170   32.9430 C   0  0  0  0  0  0  0  0  0  0  0  0
   36.3830   21.1860   33.2530 C   0  0  0  0  0  0  0  0  0  0  0  0
   35.6700   20.7460   32.1650 C   0  0  0  0  0  0  0  0  0  0  0  0
   35.8550   21.7400   31.2240 C   0  0  0  0  0  0  0  0  0  0  0  0
   36.6320   22.7100   31.7330 O   0  0  0  0  0  0  0  0  0  0  0  0
   37.7870   23.1280   33.9060 C   0  0  0  0  0  0  0  0  0  0  0  0
   38.1270   24.4620   33.8370 C   0  0  0  0  0  0  0  0  0  0  0  0
   38.9060   25.0560   34.7930 C   0  0  0  0  0  0  0  0  0  0  0  0
   39.3330   24.2720   35.8180 N   0  0  0  0  0  0  0  0  0  0  0  0
   39.0020   22.9630   35.8910 C   0  0  0  0  0  0  0  0  0  0  0  0
   38.2330   22.3740   34.9510 N   0  0  0  0  0  0  0  0  0  0  0  0
   39.2770   26.4730   34.7350 C   0  0  0  0  0  0  0  0  0  0  0  0
   38.6770   27.2600   35.8890 C   0  0  0  0  0  0  0  0  0  0  0  0
   38.8090   27.1040   33.4270 C   0  0  0  0  0  0  0  0  0  0  0  0
   40.7850   26.5710   34.7520 C   0  0  0  0  0  0  0  0  0  0  0  0
   34.8770   19.5160   31.9780 C   0  0  0  0  0  0  0  0  0  0  0  0
   35.3600   18.3730   32.8840 C   0  0  0  0  0  0  0  0  0  0  0  0
   35.7630   17.2840   32.0050 N   0  0  0  0  0  0  0  0  0  0  0  0
   36.5180   17.4650   30.8930 C   0  0  0  0  0  0  0  0  0  0  0  0
   36.7250   16.2800   30.2870 N   0  0  0  0  0  0  0  0  0  0  0  0
   36.1040   15.3310   31.0070 C   0  0  0  0  0  0  0  0  0  0  0  0
   35.9610   13.9640   30.8940 C   0  0  0  0  0  0  0  0  0  0  0  0
   35.2430   13.2710   31.8230 N   0  0  0  0  0  0  0  0  0  0  0  0
   34.6720   13.9420   32.8610 C   0  0  0  0  0  0  0  0  0  0  0  0
   34.7810   15.2880   33.0210 N   0  0  0  0  0  0  0  0  0  0  0  0
   35.4920   15.9630   32.0960 C   0  0  0  0  0  0  0  0  0  0  0  0
   36.5880   13.3380   29.7830 N   0  0  0  0  0  0  0  0  0  0  0  0
   36.4777   20.6562   34.2123 H   0  0  0  0  0  0  0  0  0  0  0  0
   35.4296   21.7375   30.2096 H   0  0  0  0  0  0  0  0  0  0  0  0
   37.7629   25.0647   32.9919 H   0  0  0  0  0  0  0  0  0  0  0  0
   39.3684   22.3634   36.7373 H   0  0  0  0  0  0  0  0  0  0  0  0
   39.0096   26.8238   36.8425 H   0  0  0  0  0  0  0  0  0  0  0  0
   39.0079   28.3074   35.8298 H   0  0  0  0  0  0  0  0  0  0  0  0
   37.5794   27.2183   35.8298 H   0  0  0  0  0  0  0  0  0  0  0  0
   38.1669   27.9697   33.6467 H   0  0  0  0  0  0  0  0  0  0  0  0
   39.6827   27.4336   32.8457 H   0  0  0  0  0  0  0  0  0  0  0  0
   38.2400   26.3636   32.8457 H   0  0  0  0  0  0  0  0  0  0  0  0
   41.1392   26.5940   35.7932 H   0  0  0  0  0  0  0  0  0  0  0  0
   41.2149   25.6989   34.2376 H   0  0  0  0  0  0  0  0  0  0  0  0
   41.0984   27.4914   34.2376 H   0  0  0  0  0  0  0  0  0  0  0  0
   33.8245   19.7336   32.2123 H   0  0  0  0  0  0  0  0  0  0  0  0
   34.9950   19.1927   30.9332 H   0  0  0  0  0  0  0  0  0  0  0  0
   36.2145   18.7060   33.4914 H   0  0  0  0  0  0  0  0  0  0  0  0
   34.5652   18.0517   33.5733 H   0  0  0  0  0  0  0  0  0  0  0  0
   36.9030   18.4329   30.5395 H   0  0  0  0  0  0  0  0  0  0  0  0
   34.0967   13.3696   33.6035 H   0  0  0  0  0  0  0  0  0  0  0  0
   36.5103   12.3190   29.6546 H   0  0  0  0  0  0  0  0  0  0  0  0
   37.1202   13.9033   29.1061 H   0  0  0  0  0  0  0  0  0  0  0  0
  1  2  2  0
  1  6  1  0
  3  2  1  0
  4  5  1  0
  4  3  2  0
  5  1  1  0
  6 11  1  0
  7  6  2  0
  7  8  1  0
  8  9  2  0
  9 10  1  0
 11 10  2  0
 12 15  1  0
 12  8  1  0
 12 13  1  0
 14 12  1  0
 16  3  1  0
 16 17  1  0
 18 26  1  0
 18 17  1  0
 19 18  1  0
 20 19  2  0
 20 21  1  0
 21 26  2  0
 22 21  1  0
 22 23  2  0
 23 24  1  0
 24 25  2  0
 26 25  1  0
 27 22  1  0
  2 28  1  0
  4 29  1  0
  7 30  1  0
 10 31  1  0
 13 32  1  0
 13 33  1  0
 13 34  1  0
 14 35  1  0
 14 36  1  0
 14 37  1  0
 15 38  1  0
 15 39  1  0
 15 40  1  0
 16 41  1  0
 16 42  1  0
 17 43  1  0
 17 44  1  0
 19 45  1  0
 24 46  1  0
 27 47  1  0
 27 48  1  0
M  ISO  8  28  14  29  14  30  14  31  14  32   8  33   8  34   8  35   8
M  ISO  8  36   8  37   8  38   8  39   8  40   8  41   8  42   8  43   8
M  ISO  3  44   8  45  14  46  14
M  END
>  <minimizedAffinity>  (1) 
-5.33633947

>  <minimizedRMSD>  (1) 
1.96952188

$$$$
