
     RDKit          3D

 46 48  0  0  0  0  0  0  0  0999 V2000
   36.9460   22.4020   32.9230 C   0  0  0  0  0  0  0  0  0  0  0  0
   36.2990   21.2080   33.2680 C   0  0  0  0  0  0  0  0  0  0  0  0
   35.5910   20.7620   32.1760 C   0  0  0  0  0  0  0  0  0  0  0  0
   35.8450   21.7220   31.2110 C   0  0  0  0  0  0  0  0  0  0  0  0
   36.6500   22.6660   31.7050 O   0  0  0  0  0  0  0  0  0  0  0  0
   37.7710   23.0900   33.9070 C   0  0  0  0  0  0  0  0  0  0  0  0
   38.1030   24.4350   33.8350 C   0  0  0  0  0  0  0  0  0  0  0  0
   38.8920   25.0290   34.8020 C   0  0  0  0  0  0  0  0  0  0  0  0
   39.3190   24.2390   35.8120 N   0  0  0  0  0  0  0  0  0  0  0  0
   38.9940   22.9200   35.8840 C   0  0  0  0  0  0  0  0  0  0  0  0
   38.2260   22.3370   34.9440 N   0  0  0  0  0  0  0  0  0  0  0  0
   39.2560   26.4430   34.7520 C   0  0  0  0  0  0  0  0  0  0  0  0
   38.6760   27.2380   35.8980 C   0  0  0  0  0  0  0  0  0  0  0  0
   38.8010   27.0820   33.4380 C   0  0  0  0  0  0  0  0  0  0  0  0
   40.7760   26.5360   34.7670 C   0  0  0  0  0  0  0  0  0  0  0  0
   34.7520   19.5520   32.0480 C   0  0  0  0  0  0  0  0  0  0  0  0
   35.3810   18.3370   32.7310 C   0  0  0  0  0  0  0  0  0  0  0  0
   35.9300   17.4450   31.7360 N   0  0  0  0  0  0  0  0  0  0  0  0
   36.6580   17.8260   30.6950 C   0  0  0  0  0  0  0  0  0  0  0  0
   37.1340   16.8810   29.8000 C   0  0  0  0  0  0  0  0  0  0  0  0
   36.8170   15.5750   30.0520 C   0  0  0  0  0  0  0  0  0  0  0  0
   37.2340   14.4960   29.2240 N   0  0  0  0  0  0  0  0  0  0  0  0
   36.0680   15.1890   31.1260 N   0  0  0  0  0  0  0  0  0  0  0  0
   35.6130   16.1420   31.9880 C   0  0  0  0  0  0  0  0  0  0  0  0
   34.9250   15.7430   32.9660 O   0  0  0  0  0  0  0  0  0  0  0  0
   36.3488   20.7106   34.2478 H   0  0  0  0  0  0  0  0  0  0  0  0
   35.4426   21.7089   30.1873 H   0  0  0  0  0  0  0  0  0  0  0  0
   37.7320   25.0391   32.9939 H   0  0  0  0  0  0  0  0  0  0  0  0
   39.3657   22.3181   36.7263 H   0  0  0  0  0  0  0  0  0  0  0  0
   38.9989   26.7953   36.8518 H   0  0  0  0  0  0  0  0  0  0  0  0
   39.0289   28.2781   35.8384 H   0  0  0  0  0  0  0  0  0  0  0  0
   37.5778   27.2194   35.8384 H   0  0  0  0  0  0  0  0  0  0  0  0
   38.1755   27.9605   33.6548 H   0  0  0  0  0  0  0  0  0  0  0  0
   39.6819   27.3934   32.8574 H   0  0  0  0  0  0  0  0  0  0  0  0
   38.2186   26.3515   32.8574 H   0  0  0  0  0  0  0  0  0  0  0  0
   41.1318   26.5578   35.8077 H   0  0  0  0  0  0  0  0  0  0  0  0
   41.2019   25.6622   34.2521 H   0  0  0  0  0  0  0  0  0  0  0  0
   41.0922   27.4552   34.2521 H   0  0  0  0  0  0  0  0  0  0  0  0
   33.7729   19.7497   32.5086 H   0  0  0  0  0  0  0  0  0  0  0  0
   34.6520   19.3226   30.9768 H   0  0  0  0  0  0  0  0  0  0  0  0
   36.1841   18.6717   33.4041 H   0  0  0  0  0  0  0  0  0  0  0  0
   34.6101   17.8059   33.3086 H   0  0  0  0  0  0  0  0  0  0  0  0
   36.8839   18.8916   30.5420 H   0  0  0  0  0  0  0  0  0  0  0  0
   37.7388   17.1683   28.9273 H   0  0  0  0  0  0  0  0  0  0  0  0
   36.9656   13.5305   29.4622 H   0  0  0  0  0  0  0  0  0  0  0  0
   37.8043   14.6802   28.3863 H   0  0  0  0  0  0  0  0  0  0  0  0
  1  2  2  0
  1  6  1  0
  3  2  1  0
  4  5  1  0
  4  3  2  0
  5  1  1  0
  6 11  1  0
  7  6  2  0
  7  8  1  0
  8  9  2  0
  9 10  1  0
 11 10  2  0
 12 15  1  0
 12  8  1  0
 12 13  1  0
 14 12  1  0
 16  3  1  0
 16 17  1  0
 18 24  1  0
 18 17  1  0
 19 18  1  0
 20 21  1  0
 20 19  2  0
 21 23  2  0
 22 21  1  0
 23 24  1  0
 24 25  2  0
  2 26  1  0
  4 27  1  0
  7 28  1  0
 10 29  1  0
 13 30  1  0
 13 31  1  0
 13 32  1  0
 14 33  1  0
 14 34  1  0
 14 35  1  0
 15 36  1  0
 15 37  1  0
 15 38  1  0
 16 39  1  0
 16 40  1  0
 17 41  1  0
 17 42  1  0
 19 43  1  0
 20 44  1  0
 22 45  1  0
 22 46  1  0
M  ISO  8  26  14  27  14  28  14  29  14  30   8  31   8  32   8  33   8
M  ISO  8  34   8  35   8  36   8  37   8  38   8  39   8  40   8  41   8
M  ISO  3  42   8  43  14  44  14
M  END
>  <minimizedAffinity>  (1) 
-5.20554829

>  <minimizedRMSD>  (1) 
2.31507158

$$$$
