
     RDKit          3D

 42 44  0  0  0  0  0  0  0  0999 V2000
   37.8170   23.0800   33.9070 C   0  0  0  0  0  0  0  0  0  0  0  0
   38.1350   24.4290   33.8310 C   0  0  0  0  0  0  0  0  0  0  0  0
   38.8890   25.0310   34.8060 C   0  0  0  0  0  0  0  0  0  0  0  0
   39.3010   24.2600   35.8310 N   0  0  0  0  0  0  0  0  0  0  0  0
   38.9910   22.9330   35.9080 C   0  0  0  0  0  0  0  0  0  0  0  0
   38.2550   22.3460   34.9550 N   0  0  0  0  0  0  0  0  0  0  0  0
   37.0200   22.3820   32.9050 C   0  0  0  0  0  0  0  0  0  0  0  0
   36.3070   21.2350   33.2720 C   0  0  0  0  0  0  0  0  0  0  0  0
   35.6410   20.7680   32.1590 C   0  0  0  0  0  0  0  0  0  0  0  0
   35.9880   21.6590   31.1750 C   0  0  0  0  0  0  0  0  0  0  0  0
   36.8060   22.5990   31.6640 O   0  0  0  0  0  0  0  0  0  0  0  0
   34.7520   19.5940   32.0010 C   0  0  0  0  0  0  0  0  0  0  0  0
   35.2580   18.3820   32.8040 C   0  0  0  0  0  0  0  0  0  0  0  0
   35.7740   17.2950   31.8770 C   0  0  0  0  0  0  0  0  0  0  0  0
   35.7680   15.8840   32.3340 C   0  0  0  0  0  0  0  0  0  0  0  0
   37.0580   16.5980   32.1940 C   0  0  0  0  0  0  0  0  0  0  0  0
   39.2490   26.4460   34.7690 C   0  0  0  0  0  0  0  0  0  0  0  0
   38.6630   27.2430   35.9090 C   0  0  0  0  0  0  0  0  0  0  0  0
   38.7860   27.0880   33.4510 C   0  0  0  0  0  0  0  0  0  0  0  0
   40.7680   26.5530   34.7610 C   0  0  0  0  0  0  0  0  0  0  0  0
   37.7775   25.0234   32.9773 H   0  0  0  0  0  0  0  0  0  0  0  0
   39.3494   22.3392   36.7618 H   0  0  0  0  0  0  0  0  0  0  0  0
   36.2823   20.7841   34.2750 H   0  0  0  0  0  0  0  0  0  0  0  0
   35.6428   21.6081   30.1318 H   0  0  0  0  0  0  0  0  0  0  0  0
   33.7448   19.8599   32.3543 H   0  0  0  0  0  0  0  0  0  0  0  0
   34.7371   19.3170   30.9366 H   0  0  0  0  0  0  0  0  0  0  0  0
   36.0727   18.7051   33.4688 H   0  0  0  0  0  0  0  0  0  0  0  0
   34.4215   17.9753   33.3912 H   0  0  0  0  0  0  0  0  0  0  0  0
   35.3769   17.8361   31.0055 H   0  0  0  0  0  0  0  0  0  0  0  0
   35.3858   15.6332   33.3345 H   0  0  0  0  0  0  0  0  0  0  0  0
   35.3565   14.9436   31.9386 H   0  0  0  0  0  0  0  0  0  0  0  0
   37.7520   16.3275   31.3846 H   0  0  0  0  0  0  0  0  0  0  0  0
   37.9118   16.8014   32.8570 H   0  0  0  0  0  0  0  0  0  0  0  0
   38.9846   26.8055   36.8656 H   0  0  0  0  0  0  0  0  0  0  0  0
   39.0122   28.2842   35.8461 H   0  0  0  0  0  0  0  0  0  0  0  0
   37.5650   27.2201   35.8461 H   0  0  0  0  0  0  0  0  0  0  0  0
   38.1555   27.9622   33.6706 H   0  0  0  0  0  0  0  0  0  0  0  0
   39.6641   27.4059   32.8697 H   0  0  0  0  0  0  0  0  0  0  0  0
   38.2071   26.3552   32.8697 H   0  0  0  0  0  0  0  0  0  0  0  0
   41.1392   26.5791   35.7962 H   0  0  0  0  0  0  0  0  0  0  0  0
   41.1941   25.6826   34.2405 H   0  0  0  0  0  0  0  0  0  0  0  0
   41.0679   27.4745   34.2405 H   0  0  0  0  0  0  0  0  0  0  0  0
  1  6  1  0
  2  1  2  0
  2  3  1  0
  3  4  2  0
  4  5  1  0
  6  5  2  0
  7  8  2  0
  7  1  1  0
  9  8  1  0
 10 11  1  0
 10  9  2  0
 11  7  1  0
 12  9  1  0
 12 13  1  0
 14 16  1  0
 14 15  1  0
 14 13  1  0
 16 15  1  0
 17  3  1  0
 17 18  1  0
 19 17  1  0
 20 17  1  0
  2 21  1  0
  5 22  1  0
  8 23  1  0
 10 24  1  0
 12 25  1  0
 12 26  1  0
 13 27  1  0
 13 28  1  0
 14 29  1  0
 15 30  1  0
 15 31  1  0
 16 32  1  0
 16 33  1  0
 18 34  1  0
 18 35  1  0
 18 36  1  0
 19 37  1  0
 19 38  1  0
 19 39  1  0
 20 40  1  0
 20 41  1  0
 20 42  1  0
M  ISO  8  21  14  22  14  23  14  24  14  25   8  26   8  27   8  28   8
M  ISO  8  29  13  30  13  31  13  32  13  33  13  34   8  35   8  36   8
M  ISO  6  37   8  38   8  39   8  40   8  41   8  42   8
M  END
>  <minimizedAffinity>  (1) 
-5.022295

>  <minimizedRMSD>  (1) 
0.788016438

$$$$
