
     RDKit          3D

 49 51  0  0  0  0  0  0  0  0999 V2000
   37.8400   23.1070   33.9240 C   0  0  0  0  0  0  0  0  0  0  0  0
   38.1620   24.4530   33.8400 C   0  0  0  0  0  0  0  0  0  0  0  0
   38.9430   25.0530   34.8060 C   0  0  0  0  0  0  0  0  0  0  0  0
   39.3690   24.2760   35.8210 N   0  0  0  0  0  0  0  0  0  0  0  0
   39.0540   22.9570   35.9040 C   0  0  0  0  0  0  0  0  0  0  0  0
   38.2910   22.3660   34.9610 N   0  0  0  0  0  0  0  0  0  0  0  0
   37.0250   22.3870   32.9560 C   0  0  0  0  0  0  0  0  0  0  0  0
   36.2620   21.2870   33.3340 C   0  0  0  0  0  0  0  0  0  0  0  0
   35.5940   20.8010   32.2290 C   0  0  0  0  0  0  0  0  0  0  0  0
   35.9970   21.6540   31.2130 C   0  0  0  0  0  0  0  0  0  0  0  0
   36.8370   22.5650   31.6990 O   0  0  0  0  0  0  0  0  0  0  0  0
   34.6650   19.6460   32.1350 C   0  0  0  0  0  0  0  0  0  0  0  0
   35.2880   18.3720   32.6580 C   0  0  0  0  0  0  0  0  0  0  0  0
   35.4530   17.3300   31.7070 N   0  0  0  0  0  0  0  0  0  0  0  0
   35.3620   16.0360   32.4010 C   0  0  0  0  0  0  0  0  0  0  0  0
   35.7630   14.9160   31.4490 C   0  0  0  0  0  0  0  0  0  0  0  0
   35.7590   15.3580   30.0720 N   0  0  0  0  0  0  0  0  0  0  0  0
   36.7950   16.3860   29.8860 C   0  0  0  0  0  0  0  0  0  0  0  0
   36.7520   17.2960   31.0760 C   0  0  0  0  0  0  0  0  0  0  0  0
   39.2970   26.4730   34.7410 C   0  0  0  0  0  0  0  0  0  0  0  0
   38.7020   27.2680   35.8830 C   0  0  0  0  0  0  0  0  0  0  0  0
   38.8160   27.1020   33.4290 C   0  0  0  0  0  0  0  0  0  0  0  0
   40.8120   26.5790   34.7560 C   0  0  0  0  0  0  0  0  0  0  0  0
   37.7905   25.0492   32.9935 H   0  0  0  0  0  0  0  0  0  0  0  0
   39.4261   22.3627   36.7516 H   0  0  0  0  0  0  0  0  0  0  0  0
   36.2010   20.8714   34.3506 H   0  0  0  0  0  0  0  0  0  0  0  0
   35.6718   21.5879   30.1642 H   0  0  0  0  0  0  0  0  0  0  0  0
   33.7627   19.8675   32.7239 H   0  0  0  0  0  0  0  0  0  0  0  0
   34.4207   19.4930   31.0734 H   0  0  0  0  0  0  0  0  0  0  0  0
   36.2807   18.6221   33.0606 H   0  0  0  0  0  0  0  0  0  0  0  0
   34.5860   17.9824   33.4099 H   0  0  0  0  0  0  0  0  0  0  0  0
   36.0375   16.0379   33.2692 H   0  0  0  0  0  0  0  0  0  0  0  0
   34.3278   15.8750   32.7394 H   0  0  0  0  0  0  0  0  0  0  0  0
   36.7745   14.5713   31.7099 H   0  0  0  0  0  0  0  0  0  0  0  0
   35.0309   14.1013   31.5500 H   0  0  0  0  0  0  0  0  0  0  0  0
   35.9540   14.5577   29.4536 H   0  0  0  0  0  0  0  0  0  0  0  0
   37.7847   15.9116   29.8126 H   0  0  0  0  0  0  0  0  0  0  0  0
   36.6141   16.9526   28.9607 H   0  0  0  0  0  0  0  0  0  0  0  0
   37.4914   16.9475   31.8121 H   0  0  0  0  0  0  0  0  0  0  0  0
   36.9761   18.3136   30.7235 H   0  0  0  0  0  0  0  0  0  0  0  0
   39.0268   26.8341   36.8402 H   0  0  0  0  0  0  0  0  0  0  0  0
   39.0424   28.3121   35.8194 H   0  0  0  0  0  0  0  0  0  0  0  0
   37.6043   27.2357   35.8194 H   0  0  0  0  0  0  0  0  0  0  0  0
   38.1615   27.9578   33.6510 H   0  0  0  0  0  0  0  0  0  0  0  0
   39.6840   27.4454   32.8471 H   0  0  0  0  0  0  0  0  0  0  0  0
   38.2571   26.3543   32.8471 H   0  0  0  0  0  0  0  0  0  0  0  0
   41.1675   26.6039   35.7967 H   0  0  0  0  0  0  0  0  0  0  0  0
   41.2456   25.7090   34.2411 H   0  0  0  0  0  0  0  0  0  0  0  0
   41.1202   27.5009   34.2411 H   0  0  0  0  0  0  0  0  0  0  0  0
  1  6  1  0
  2  1  2  0
  2  3  1  0
  3  4  2  0
  4  5  1  0
  6  5  2  0
  7  8  2  0
  7  1  1  0
  9  8  1  0
 10 11  1  0
 10  9  2  0
 11  7  1  0
 12  9  1  0
 12 13  1  0
 14 15  1  0
 14 13  1  0
 16 15  1  0
 17 16  1  0
 18 17  1  0
 18 19  1  0
 19 14  1  0
 20 23  1  0
 20  3  1  0
 20 21  1  0
 22 20  1  0
  2 24  1  0
  5 25  1  0
  8 26  1  0
 10 27  1  0
 12 28  1  0
 12 29  1  0
 13 30  1  0
 13 31  1  0
 15 32  1  0
 15 33  1  0
 16 34  1  0
 16 35  1  0
 17 36  1  0
 18 37  1  0
 18 38  1  0
 19 39  1  0
 19 40  1  0
 21 41  1  0
 21 42  1  0
 21 43  1  0
 22 44  1  0
 22 45  1  0
 22 46  1  0
 23 47  1  0
 23 48  1  0
 23 49  1  0
M  ISO  8  24  14  25  14  26  14  27  14  28   8  29   8  30   8  31   8
M  ISO  8  32  13  33  13  34  13  35  13  36   5  37  13  38  13  39  13
M  ISO  8  40  13  41   8  42   8  43   8  44   8  45   8  46   8  47   8
M  ISO  2  48   8  49   8
M  END
>  <minimizedAffinity>  (1) 
-5.0365901

>  <minimizedRMSD>  (1) 
1.38250959

$$$$
