
     RDKit          3D

 36 37  0  0  0  0  0  0  0  0999 V2000
   37.8240   23.0540   33.9130 C   0  0  0  0  0  0  0  0  0  0  0  0
   38.1340   24.3970   33.8480 C   0  0  0  0  0  0  0  0  0  0  0  0
   38.8680   25.0110   34.8360 C   0  0  0  0  0  0  0  0  0  0  0  0
   39.2680   24.2420   35.8620 N   0  0  0  0  0  0  0  0  0  0  0  0
   38.9680   22.9180   35.9360 C   0  0  0  0  0  0  0  0  0  0  0  0
   38.2490   22.3180   34.9680 N   0  0  0  0  0  0  0  0  0  0  0  0
   37.0500   22.3320   32.9030 C   0  0  0  0  0  0  0  0  0  0  0  0
   36.2620   21.2340   33.2760 C   0  0  0  0  0  0  0  0  0  0  0  0
   35.6440   20.7390   32.1580 C   0  0  0  0  0  0  0  0  0  0  0  0
   36.0900   21.5690   31.1440 C   0  0  0  0  0  0  0  0  0  0  0  0
   36.9200   22.4950   31.6430 O   0  0  0  0  0  0  0  0  0  0  0  0
   34.7160   19.5990   32.0090 C   0  0  0  0  0  0  0  0  0  0  0  0
   35.2730   18.3300   32.6860 C   0  0  0  0  0  0  0  0  0  0  0  0
   36.6870   17.7050   31.7300 S   0  0  0  0  0  0  0  0  0  0  0  0
   39.2020   26.4370   34.7760 C   0  0  0  0  0  0  0  0  0  0  0  0
   38.6120   27.2130   35.9510 C   0  0  0  0  0  0  0  0  0  0  0  0
   38.6930   27.0800   33.4870 C   0  0  0  0  0  0  0  0  0  0  0  0
   40.7100   26.5610   34.7650 C   0  0  0  0  0  0  0  0  0  0  0  0
   37.7869   24.9889   32.9882 H   0  0  0  0  0  0  0  0  0  0  0  0
   39.3169   22.3294   36.7973 H   0  0  0  0  0  0  0  0  0  0  0  0
   36.1574   20.8363   34.2962 H   0  0  0  0  0  0  0  0  0  0  0  0
   35.8052   21.4814   30.0851 H   0  0  0  0  0  0  0  0  0  0  0  0
   33.7525   19.8585   32.4720 H   0  0  0  0  0  0  0  0  0  0  0  0
   34.5894   19.3927   30.9360 H   0  0  0  0  0  0  0  0  0  0  0  0
   35.5998   18.5728   33.7079 H   0  0  0  0  0  0  0  0  0  0  0  0
   34.4879   17.5605   32.7255 H   0  0  0  0  0  0  0  0  0  0  0  0
   37.6636   17.2733   32.5884 H   0  0  0  0  0  0  0  0  0  0  0  0
   38.9534   26.7640   36.8954 H   0  0  0  0  0  0  0  0  0  0  0  0
   38.9437   28.2606   35.9021 H   0  0  0  0  0  0  0  0  0  0  0  0
   37.5138   27.1735   35.9021 H   0  0  0  0  0  0  0  0  0  0  0  0
   38.0277   27.9204   33.7343 H   0  0  0  0  0  0  0  0  0  0  0  0
   39.5466   27.4487   32.8993 H   0  0  0  0  0  0  0  0  0  0  0  0
   38.1382   26.3338   32.8993 H   0  0  0  0  0  0  0  0  0  0  0  0
   41.0829   26.5917   35.7994 H   0  0  0  0  0  0  0  0  0  0  0  0
   41.1453   25.6956   34.2438 H   0  0  0  0  0  0  0  0  0  0  0  0
   40.9981   27.4859   34.2438 H   0  0  0  0  0  0  0  0  0  0  0  0
  1  6  1  0
  2  1  2  0
  2  3  1  0
  3  4  2  0
  4  5  1  0
  6  5  2  0
  7  8  2  0
  7  1  1  0
  9  8  1  0
 10 11  1  0
 10  9  2  0
 11  7  1  0
 12  9  1  0
 12 13  1  0
 14 13  1  0
 15  3  1  0
 15 16  1  0
 17 15  1  0
 18 15  1  0
  2 19  1  0
  5 20  1  0
  8 21  1  0
 10 22  1  0
 12 23  1  0
 12 24  1  0
 13 25  1  0
 13 26  1  0
 14 27  1  0
 16 28  1  0
 16 29  1  0
 16 30  1  0
 17 31  1  0
 17 32  1  0
 17 33  1  0
 18 34  1  0
 18 35  1  0
 18 36  1  0
M  ISO  8  19  14  20  14  21  14  22  14  23   8  24   8  25   8  26   8
M  ISO  8  27  11  28   8  29   8  30   8  31   8  32   8  33   8  34   8
M  ISO  2  35   8  36   8
M  END
>  <minimizedAffinity>  (1) 
-4.64883947

>  <minimizedRMSD>  (1) 
0.103282519

$$$$
