
     RDKit          3D

 50 52  0  0  0  0  0  0  0  0999 V2000
   37.7520   23.1720   33.6840 C   0  0  0  0  0  0  0  0  0  0  0  0
   37.9490   24.5310   33.6860 C   0  0  0  0  0  0  0  0  0  0  0  0
   38.7720   25.1460   34.5650 C   0  0  0  0  0  0  0  0  0  0  0  0
   39.4170   24.3430   35.4750 N   0  0  0  0  0  0  0  0  0  0  0  0
   39.2420   23.0030   35.4970 C   0  0  0  0  0  0  0  0  0  0  0  0
   38.4170   22.3980   34.6130 N   0  0  0  0  0  0  0  0  0  0  0  0
   36.8910   22.4270   32.7840 C   0  0  0  0  0  0  0  0  0  0  0  0
   36.2620   21.2520   33.1730 C   0  0  0  0  0  0  0  0  0  0  0  0
   35.5170   20.7690   32.1210 C   0  0  0  0  0  0  0  0  0  0  0  0
   35.7360   21.6960   31.1240 C   0  0  0  0  0  0  0  0  0  0  0  0
   36.5560   22.6610   31.5600 O   0  0  0  0  0  0  0  0  0  0  0  0
   34.6780   19.5740   32.0220 C   0  0  0  0  0  0  0  0  0  0  0  0
   35.3080   18.3420   32.6820 C   0  0  0  0  0  0  0  0  0  0  0  0
   34.7500   17.1410   32.1700 N   0  0  0  0  0  0  0  0  0  0  0  0
   39.0280   26.5740   34.6050 C   0  0  0  0  0  0  0  0  0  0  0  0
   38.6920   27.1970   35.9380 C   0  0  0  0  0  0  0  0  0  0  0  0
   38.1380   27.2730   33.5510 C   0  0  0  0  0  0  0  0  0  0  0  0
   40.4350   26.8640   34.2250 C   0  0  0  0  0  0  0  0  0  0  0  0
   40.7870   27.0310   32.8150 C   0  0  0  0  0  0  0  0  0  0  0  0
   42.1200   27.8330   32.7680 C   0  0  0  0  0  0  0  0  0  0  0  0
   42.5240   27.6990   31.3380 C   0  0  0  0  0  0  0  0  0  0  0  0
   42.1710   26.2940   30.9740 C   0  0  0  0  0  0  0  0  0  0  0  0
   41.1490   25.8510   31.9950 C   0  0  0  0  0  0  0  0  0  0  0  0
   37.4164   25.1433   32.9434 H   0  0  0  0  0  0  0  0  0  0  0  0
   39.7772   22.3973   36.2431 H   0  0  0  0  0  0  0  0  0  0  0  0
   36.3456   20.7819   34.1640 H   0  0  0  0  0  0  0  0  0  0  0  0
   35.2998   21.6496   30.1153 H   0  0  0  0  0  0  0  0  0  0  0  0
   33.7152   19.7803   32.5124 H   0  0  0  0  0  0  0  0  0  0  0  0
   34.5546   19.3469   30.9528 H   0  0  0  0  0  0  0  0  0  0  0  0
   36.3907   18.3455   32.4877 H   0  0  0  0  0  0  0  0  0  0  0  0
   35.1067   18.3856   33.7625 H   0  0  0  0  0  0  0  0  0  0  0  0
   34.4675   16.5330   32.9520 H   0  0  0  0  0  0  0  0  0  0  0  0
   33.9262   17.3637   31.5933 H   0  0  0  0  0  0  0  0  0  0  0  0
   39.0452   26.5422   36.7482 H   0  0  0  0  0  0  0  0  0  0  0  0
   39.1835   28.1778   36.0187 H   0  0  0  0  0  0  0  0  0  0  0  0
   37.6025   27.3251   36.0187 H   0  0  0  0  0  0  0  0  0  0  0  0
   37.3711   27.8753   34.0600 H   0  0  0  0  0  0  0  0  0  0  0  0
   38.7597   27.9268   32.9216 H   0  0  0  0  0  0  0  0  0  0  0  0
   37.6502   26.5141   32.9216 H   0  0  0  0  0  0  0  0  0  0  0  0
   40.7176   27.7960   34.7365 H   0  0  0  0  0  0  0  0  0  0  0  0
   40.9717   25.9488   34.5154 H   0  0  0  0  0  0  0  0  0  0  0  0
   39.8595   27.4571   32.4049 H   0  0  0  0  0  0  0  0  0  0  0  0
   41.9601   28.8870   33.0393 H   0  0  0  0  0  0  0  0  0  0  0  0
   42.8786   27.4666   33.4753 H   0  0  0  0  0  0  0  0  0  0  0  0
   41.9708   28.4130   30.7101 H   0  0  0  0  0  0  0  0  0  0  0  0
   43.5923   27.9124   31.1857 H   0  0  0  0  0  0  0  0  0  0  0  0
   41.7427   26.2563   29.9615 H   0  0  0  0  0  0  0  0  0  0  0  0
   43.0555   25.6401   30.9751 H   0  0  0  0  0  0  0  0  0  0  0  0
   40.2555   25.4612   31.4853 H   0  0  0  0  0  0  0  0  0  0  0  0
   41.5615   25.0534   32.6304 H   0  0  0  0  0  0  0  0  0  0  0  0
  1  2  2  0
  1  6  1  0
  2  3  1  0
  3 15  1  0
  3  4  2  0
  4  5  1  0
  6  5  2  0
  7  8  2  0
  7  1  1  0
  9  8  1  0
 10 11  1  0
 10  9  2  0
 11  7  1  0
 12  9  1  0
 12 13  1  0
 14 13  1  0
 15 16  1  0
 17 15  1  0
 18 15  1  0
 19 18  1  0
 20 19  1  0
 21 20  1  0
 22 21  1  0
 22 23  1  0
 23 19  1  0
  2 24  1  0
  5 25  1  0
  8 26  1  0
 10 27  1  0
 12 28  1  0
 12 29  1  0
 13 30  1  0
 13 31  1  0
 14 32  1  0
 14 33  1  0
 16 34  1  0
 16 35  1  0
 16 36  1  0
 17 37  1  0
 17 38  1  0
 17 39  1  0
 18 40  1  0
 18 41  1  0
 19 42  1  0
 20 43  1  0
 20 44  1  0
 21 45  1  0
 21 46  1  0
 22 47  1  0
 22 48  1  0
 23 49  1  0
 23 50  1  0
M  ISO  8  24  14  25  14  26  14  27  14  28   8  29   8  30   8  31   8
M  ISO  8  32   5  33   5  34   8  35   8  36   8  37   8  38   8  39   8
M  ISO  8  40   8  41   8  42  13  43  13  44  13  45  13  46  13  47  13
M  ISO  3  48  13  49  13  50  13
M  END
>  <minimizedAffinity>  (1) 
-5.10104656

>  <minimizedRMSD>  (1) 
1.26191878

$$$$
