
     RDKit          3D

 45 47  0  0  0  0  0  0  0  0999 V2000
   37.7870   23.0580   33.9350 C   0  0  0  0  0  0  0  0  0  0  0  0
   38.1270   24.3890   33.8980 C   0  0  0  0  0  0  0  0  0  0  0  0
   38.8960   24.9780   34.8460 C   0  0  0  0  0  0  0  0  0  0  0  0
   39.3260   24.1700   35.8610 N   0  0  0  0  0  0  0  0  0  0  0  0
   39.0030   22.8570   35.9180 C   0  0  0  0  0  0  0  0  0  0  0  0
   38.2380   22.2830   34.9700 N   0  0  0  0  0  0  0  0  0  0  0  0
   36.9690   22.3660   32.9540 C   0  0  0  0  0  0  0  0  0  0  0  0
   36.2910   21.1880   33.2820 C   0  0  0  0  0  0  0  0  0  0  0  0
   35.6000   20.7580   32.1610 C   0  0  0  0  0  0  0  0  0  0  0  0
   35.8960   21.7050   31.2080 C   0  0  0  0  0  0  0  0  0  0  0  0
   36.7070   22.6340   31.7240 O   0  0  0  0  0  0  0  0  0  0  0  0
   34.7440   19.5820   31.9880 C   0  0  0  0  0  0  0  0  0  0  0  0
   35.2890   18.3240   32.6790 C   0  0  0  0  0  0  0  0  0  0  0  0
   34.7400   17.1270   32.1270 N   0  0  0  0  0  0  0  0  0  0  0  0
   39.2710   26.3790   34.8340 C   0  0  0  0  0  0  0  0  0  0  0  0
   38.6010   27.1780   35.9210 C   0  0  0  0  0  0  0  0  0  0  0  0
   38.9140   27.0150   33.4890 C   0  0  0  0  0  0  0  0  0  0  0  0
   40.7810   26.4860   34.9680 C   0  0  0  0  0  0  0  0  0  0  0  0
   41.4460   26.5330   33.6620 C   0  0  0  0  0  0  0  0  0  0  0  0
   41.8160   27.6430   32.9340 C   0  0  0  0  0  0  0  0  0  0  0  0
   42.4430   27.5290   31.7020 C   0  0  0  0  0  0  0  0  0  0  0  0
   42.6860   26.3070   31.2270 N   0  0  0  0  0  0  0  0  0  0  0  0
   42.3340   25.2030   31.9190 C   0  0  0  0  0  0  0  0  0  0  0  0
   41.7270   25.3220   33.1090 N   0  0  0  0  0  0  0  0  0  0  0  0
   37.7591   25.0030   33.0628 H   0  0  0  0  0  0  0  0  0  0  0  0
   39.3726   22.2467   36.7552 H   0  0  0  0  0  0  0  0  0  0  0  0
   36.3041   20.6884   34.2619 H   0  0  0  0  0  0  0  0  0  0  0  0
   35.5207   21.6987   30.1740 H   0  0  0  0  0  0  0  0  0  0  0  0
   33.7523   19.8080   32.4069 H   0  0  0  0  0  0  0  0  0  0  0  0
   34.7010   19.3675   30.9100 H   0  0  0  0  0  0  0  0  0  0  0  0
   36.3824   18.3000   32.5609 H   0  0  0  0  0  0  0  0  0  0  0  0
   35.0029   18.3697   33.7402 H   0  0  0  0  0  0  0  0  0  0  0  0
   34.4515   16.4980   32.8899 H   0  0  0  0  0  0  0  0  0  0  0  0
   33.9218   17.3604   31.5465 H   0  0  0  0  0  0  0  0  0  0  0  0
   38.9188   26.7990   36.9035 H   0  0  0  0  0  0  0  0  0  0  0  0
   38.8857   28.2363   35.8266 H   0  0  0  0  0  0  0  0  0  0  0  0
   37.5093   27.0821   35.8266 H   0  0  0  0  0  0  0  0  0  0  0  0
   38.3822   27.9624   33.6610 H   0  0  0  0  0  0  0  0  0  0  0  0
   39.8348   27.2095   32.9195 H   0  0  0  0  0  0  0  0  0  0  0  0
   38.2684   26.3303   32.9195 H   0  0  0  0  0  0  0  0  0  0  0  0
   41.0242   27.4037   35.5237 H   0  0  0  0  0  0  0  0  0  0  0  0
   41.1393   25.5923   35.4999 H   0  0  0  0  0  0  0  0  0  0  0  0
   41.6090   28.6442   33.3399 H   0  0  0  0  0  0  0  0  0  0  0  0
   42.7324   28.4238   31.1314 H   0  0  0  0  0  0  0  0  0  0  0  0
   42.5450   24.2052   31.5068 H   0  0  0  0  0  0  0  0  0  0  0  0
  1  6  1  0
  2  1  2  0
  2  3  1  0
  3  4  2  0
  4  5  1  0
  6  5  2  0
  7  8  2  0
  7  1  1  0
  9  8  1  0
 10 11  1  0
 10  9  2  0
 11  7  1  0
 12  9  1  0
 12 13  1  0
 14 13  1  0
 15  3  1  0
 15 18  1  0
 15 16  1  0
 17 15  1  0
 19 18  1  0
 20 19  2  0
 21 20  1  0
 22 21  2  0
 22 23  1  0
 23 24  2  0
 24 19  1  0
  2 25  1  0
  5 26  1  0
  8 27  1  0
 10 28  1  0
 12 29  1  0
 12 30  1  0
 13 31  1  0
 13 32  1  0
 14 33  1  0
 14 34  1  0
 16 35  1  0
 16 36  1  0
 16 37  1  0
 17 38  1  0
 17 39  1  0
 17 40  1  0
 18 41  1  0
 18 42  1  0
 20 43  1  0
 21 44  1  0
 23 45  1  0
M  ISO  8  25  14  26  14  27  14  28  14  29   8  30   8  31   8  32   8
M  ISO  8  33   5  34   5  35   8  36   8  37   8  38   8  39   8  40   8
M  ISO  5  41   8  42   8  43  14  44  14  45  14
M  END
>  <minimizedAffinity>  (1) 
-5.17430067

>  <minimizedRMSD>  (1) 
0.957313597

$$$$
