
     RDKit          3D

 51 53  0  0  0  0  0  0  0  0999 V2000
   37.6150   23.0530   33.6200 C   0  0  0  0  0  0  0  0  0  0  0  0
   37.6720   24.4270   33.5560 C   0  0  0  0  0  0  0  0  0  0  0  0
   38.3720   25.1950   34.4540 C   0  0  0  0  0  0  0  0  0  0  0  0
   39.0260   24.5270   35.4350 N   0  0  0  0  0  0  0  0  0  0  0  0
   38.9890   23.1690   35.5270 C   0  0  0  0  0  0  0  0  0  0  0  0
   38.2960   22.4270   34.6380 N   0  0  0  0  0  0  0  0  0  0  0  0
   36.9090   22.1740   32.7240 C   0  0  0  0  0  0  0  0  0  0  0  0
   36.0970   21.1420   33.1920 C   0  0  0  0  0  0  0  0  0  0  0  0
   35.5580   20.4750   32.1210 C   0  0  0  0  0  0  0  0  0  0  0  0
   36.0770   21.1480   31.0300 C   0  0  0  0  0  0  0  0  0  0  0  0
   36.8680   22.1410   31.4500 O   0  0  0  0  0  0  0  0  0  0  0  0
   34.6520   19.3330   32.0520 C   0  0  0  0  0  0  0  0  0  0  0  0
   35.3200   18.0190   32.4890 C   0  0  0  0  0  0  0  0  0  0  0  0
   35.7940   17.3020   31.3390 N   0  0  0  0  0  0  0  0  0  0  0  0
   38.4470   26.6410   34.4110 C   0  0  0  0  0  0  0  0  0  0  0  0
   39.0170   27.2460   35.6670 C   0  0  0  0  0  0  0  0  0  0  0  0
   37.0010   27.2180   34.2710 C   0  0  0  0  0  0  0  0  0  0  0  0
   39.1380   27.0730   33.1600 C   0  0  0  0  0  0  0  0  0  0  0  0
   40.4500   26.6440   33.0370 N   0  0  0  0  0  0  0  0  0  0  0  0
   40.8670   25.6210   32.1970 C   0  0  0  0  0  0  0  0  0  0  0  0
   41.5070   24.4390   32.9090 C   0  0  0  0  0  0  0  0  0  0  0  0
   42.0110   24.7470   34.1990 N   0  0  0  0  0  0  0  0  0  0  0  0
   42.5590   26.0810   34.1950 C   0  0  0  0  0  0  0  0  0  0  0  0
   41.3520   27.0140   34.0940 C   0  0  0  0  0  0  0  0  0  0  0  0
   37.1297   24.9352   32.7450 H   0  0  0  0  0  0  0  0  0  0  0  0
   39.5338   22.6677   36.3406 H   0  0  0  0  0  0  0  0  0  0  0  0
   35.9173   20.9011   34.2501 H   0  0  0  0  0  0  0  0  0  0  0  0
   35.8706   20.9038   29.9775 H   0  0  0  0  0  0  0  0  0  0  0  0
   33.7915   19.5261   32.7095 H   0  0  0  0  0  0  0  0  0  0  0  0
   34.3436   19.2162   31.0026 H   0  0  0  0  0  0  0  0  0  0  0  0
   36.1679   18.2447   33.1524 H   0  0  0  0  0  0  0  0  0  0  0  0
   34.5834   17.3997   33.0218 H   0  0  0  0  0  0  0  0  0  0  0  0
   36.3363   16.4817   31.6454 H   0  0  0  0  0  0  0  0  0  0  0  0
   34.9913   16.9912   30.7733 H   0  0  0  0  0  0  0  0  0  0  0  0
   38.5627   26.7638   36.5451 H   0  0  0  0  0  0  0  0  0  0  0  0
   40.1060   27.0921   35.6866 H   0  0  0  0  0  0  0  0  0  0  0  0
   38.7986   28.3239   35.6866 H   0  0  0  0  0  0  0  0  0  0  0  0
   36.5755   27.3878   35.2711 H   0  0  0  0  0  0  0  0  0  0  0  0
   37.0378   28.1703   33.7217 H   0  0  0  0  0  0  0  0  0  0  0  0
   36.3721   26.5019   33.7217 H   0  0  0  0  0  0  0  0  0  0  0  0
   38.5694   26.6815   32.3036 H   0  0  0  0  0  0  0  0  0  0  0  0
   39.1760   28.1718   33.1938 H   0  0  0  0  0  0  0  0  0  0  0  0
   41.6016   26.0349   31.4906 H   0  0  0  0  0  0  0  0  0  0  0  0
   39.9632   25.2353   31.7026 H   0  0  0  0  0  0  0  0  0  0  0  0
   40.7508   23.6469   33.0130 H   0  0  0  0  0  0  0  0  0  0  0  0
   42.3663   24.1262   32.2977 H   0  0  0  0  0  0  0  0  0  0  0  0
   41.2475   24.6915   34.8882 H   0  0  0  0  0  0  0  0  0  0  0  0
   43.1161   26.2712   35.1242 H   0  0  0  0  0  0  0  0  0  0  0  0
   43.2639   26.2318   33.3641 H   0  0  0  0  0  0  0  0  0  0  0  0
   41.7124   28.0363   33.9070 H   0  0  0  0  0  0  0  0  0  0  0  0
   40.7985   26.9441   35.0420 H   0  0  0  0  0  0  0  0  0  0  0  0
  1  6  1  0
  2  1  2  0
  2  3  1  0
  3  4  2  0
  4  5  1  0
  6  5  2  0
  7  8  2  0
  7  1  1  0
  9  8  1  0
 10 11  1  0
 10  9  2  0
 11  7  1  0
 12  9  1  0
 12 13  1  0
 14 13  1  0
 15  3  1  0
 15 16  1  0
 17 15  1  0
 18 15  1  0
 19 18  1  0
 19 24  1  0
 20 21  1  0
 20 19  1  0
 21 22  1  0
 23 22  1  0
 24 23  1  0
  2 25  1  0
  5 26  1  0
  8 27  1  0
 10 28  1  0
 12 29  1  0
 12 30  1  0
 13 31  1  0
 13 32  1  0
 14 33  1  0
 14 34  1  0
 16 35  1  0
 16 36  1  0
 16 37  1  0
 17 38  1  0
 17 39  1  0
 17 40  1  0
 18 41  1  0
 18 42  1  0
 20 43  1  0
 20 44  1  0
 21 45  1  0
 21 46  1  0
 22 47  1  0
 23 48  1  0
 23 49  1  0
 24 50  1  0
 24 51  1  0
M  ISO  8  25  14  26  14  27  14  28  14  29   8  30   8  31   8  32   8
M  ISO  8  33   5  34   5  35   8  36   8  37   8  38   8  39   8  40   8
M  ISO  8  41   8  42   8  43  13  44  13  45  13  46  13  47   5  48  13
M  ISO  3  49  13  50  13  51  13
M  END
>  <minimizedAffinity>  (1) 
-4.69886541

>  <minimizedRMSD>  (1) 
1.86907792

$$$$
