
     RDKit          3D

 53 55  0  0  0  0  0  0  0  0999 V2000
   37.7980   23.0010   33.9730 C   0  0  0  0  0  0  0  0  0  0  0  0
   37.9860   24.3530   33.9710 C   0  0  0  0  0  0  0  0  0  0  0  0
   38.6820   25.0220   34.9540 C   0  0  0  0  0  0  0  0  0  0  0  0
   39.1860   24.2620   35.9540 N   0  0  0  0  0  0  0  0  0  0  0  0
   39.0140   22.9200   35.9820 C   0  0  0  0  0  0  0  0  0  0  0  0
   38.3260   22.2780   35.0020 N   0  0  0  0  0  0  0  0  0  0  0  0
   37.0980   22.2170   32.9950 C   0  0  0  0  0  0  0  0  0  0  0  0
   36.2470   21.1780   33.3390 C   0  0  0  0  0  0  0  0  0  0  0  0
   35.7270   20.6170   32.1870 C   0  0  0  0  0  0  0  0  0  0  0  0
   36.2930   21.3530   31.1870 C   0  0  0  0  0  0  0  0  0  0  0  0
   37.0970   22.2880   31.7030 O   0  0  0  0  0  0  0  0  0  0  0  0
   34.7920   19.5040   32.0140 C   0  0  0  0  0  0  0  0  0  0  0  0
   35.2880   18.2040   32.6860 C   0  0  0  0  0  0  0  0  0  0  0  0
   36.4830   17.7230   32.0940 N   0  0  0  0  0  0  0  0  0  0  0  0
   38.8910   26.4860   34.9280 C   0  0  0  0  0  0  0  0  0  0  0  0
   38.3630   27.1030   36.2150 C   0  0  0  0  0  0  0  0  0  0  0  0
   38.0950   27.1070   33.7850 C   0  0  0  0  0  0  0  0  0  0  0  0
   40.3270   26.7360   34.6790 C   0  0  0  0  0  0  0  0  0  0  0  0
   41.0800   26.0620   33.6220 C   0  0  0  0  0  0  0  0  0  0  0  0
   41.2860   26.7380   32.3200 C   0  0  0  0  0  0  0  0  0  0  0  0
   42.3340   27.8580   32.4200 C   0  0  0  0  0  0  0  0  0  0  0  0
   43.7020   27.2060   32.4520 C   0  0  0  0  0  0  0  0  0  0  0  0
   43.5460   25.8540   33.1230 C   0  0  0  0  0  0  0  0  0  0  0  0
   42.5110   25.9270   34.2010 C   0  0  0  0  0  0  0  0  0  0  0  0
   37.5602   24.9381   33.1425 H   0  0  0  0  0  0  0  0  0  0  0  0
   39.4390   22.3384   36.8133 H   0  0  0  0  0  0  0  0  0  0  0  0
   36.0214   20.8518   34.3650 H   0  0  0  0  0  0  0  0  0  0  0  0
   36.1137   21.1993   30.1126 H   0  0  0  0  0  0  0  0  0  0  0  0
   33.8250   19.7835   32.4576 H   0  0  0  0  0  0  0  0  0  0  0  0
   34.7011   19.3087   30.9353 H   0  0  0  0  0  0  0  0  0  0  0  0
   35.4749   18.4039   33.7514 H   0  0  0  0  0  0  0  0  0  0  0  0
   34.5111   17.4362   32.5556 H   0  0  0  0  0  0  0  0  0  0  0  0
   37.1486   17.4551   32.8330 H   0  0  0  0  0  0  0  0  0  0  0  0
   36.2703   16.9021   31.5094 H   0  0  0  0  0  0  0  0  0  0  0  0
   38.8060   26.5853   37.0785 H   0  0  0  0  0  0  0  0  0  0  0  0
   38.6330   28.1688   36.2484 H   0  0  0  0  0  0  0  0  0  0  0  0
   37.2683   27.0009   36.2484 H   0  0  0  0  0  0  0  0  0  0  0  0
   37.2908   27.7344   34.1968 H   0  0  0  0  0  0  0  0  0  0  0  0
   38.7625   27.7254   33.1669 H   0  0  0  0  0  0  0  0  0  0  0  0
   37.6576   26.3091   33.1669 H   0  0  0  0  0  0  0  0  0  0  0  0
   40.4165   27.8133   34.4754 H   0  0  0  0  0  0  0  0  0  0  0  0
   40.7853   26.3088   35.5831 H   0  0  0  0  0  0  0  0  0  0  0  0
   40.4883   25.1650   33.3869 H   0  0  0  0  0  0  0  0  0  0  0  0
   40.3311   27.1720   31.9887 H   0  0  0  0  0  0  0  0  0  0  0  0
   41.6506   25.9908   31.5998 H   0  0  0  0  0  0  0  0  0  0  0  0
   42.2561   28.5232   31.5474 H   0  0  0  0  0  0  0  0  0  0  0  0
   42.1715   28.4584   33.3273 H   0  0  0  0  0  0  0  0  0  0  0  0
   44.0802   27.0756   31.4273 H   0  0  0  0  0  0  0  0  0  0  0  0
   44.4177   27.8328   33.0042 H   0  0  0  0  0  0  0  0  0  0  0  0
   43.2379   25.1101   32.3736 H   0  0  0  0  0  0  0  0  0  0  0  0
   44.5082   25.5623   33.5692 H   0  0  0  0  0  0  0  0  0  0  0  0
   42.7209   26.7998   34.8367 H   0  0  0  0  0  0  0  0  0  0  0  0
   42.5569   24.9932   34.7806 H   0  0  0  0  0  0  0  0  0  0  0  0
  1  6  1  0
  2  1  2  0
  2  3  1  0
  3  4  2  0
  4  5  1  0
  6  5  2  0
  7  8  2  0
  7  1  1  0
  9  8  1  0
 10 11  1  0
 10  9  2  0
 11  7  1  0
 12  9  1  0
 12 13  1  0
 14 13  1  0
 15  3  1  0
 15 16  1  0
 17 15  1  0
 18 15  1  0
 19 24  1  0
 19 18  1  0
 20 21  1  0
 20 19  1  0
 21 22  1  0
 22 23  1  0
 23 24  1  0
  2 25  1  0
  5 26  1  0
  8 27  1  0
 10 28  1  0
 12 29  1  0
 12 30  1  0
 13 31  1  0
 13 32  1  0
 14 33  1  0
 14 34  1  0
 16 35  1  0
 16 36  1  0
 16 37  1  0
 17 38  1  0
 17 39  1  0
 17 40  1  0
 18 41  1  0
 18 42  1  0
 19 43  1  0
 20 44  1  0
 20 45  1  0
 21 46  1  0
 21 47  1  0
 22 48  1  0
 22 49  1  0
 23 50  1  0
 23 51  1  0
 24 52  1  0
 24 53  1  0
M  ISO  8  25  14  26  14  27  14  28  14  29   8  30   8  31   8  32   8
M  ISO  8  33   5  34   5  35   8  36   8  37   8  38   8  39   8  40   8
M  ISO  8  41   8  42   8  43  13  44  13  45  13  46  13  47  13  48  13
M  ISO  5  49  13  50  13  51  13  52  13  53  13
M  END
>  <minimizedAffinity>  (1) 
-4.92241001

>  <minimizedRMSD>  (1) 
1.37452209

$$$$
