
     RDKit          3D

 24 25  0  0  0  0  0  0  0  0999 V2000
   39.8760   22.7180   37.4090 C   0  0  0  0  0  0  0  0  0  0  0  0
   39.0800   23.3950   38.3540 C   0  0  0  0  0  0  0  0  0  0  0  0
   37.7110   23.4830   38.0870 C   0  0  0  0  0  0  0  0  0  0  0  0
   37.2250   22.9160   36.9450 N   0  0  0  0  0  0  0  0  0  0  0  0
   38.0330   22.2710   36.0600 C   0  0  0  0  0  0  0  0  0  0  0  0
   39.3550   22.1770   36.3020 N   0  0  0  0  0  0  0  0  0  0  0  0
   37.4300   21.7120   34.8970 N   0  0  0  0  0  0  0  0  0  0  0  0
   36.1970   20.9690   35.0710 C   0  0  0  0  0  0  0  0  0  0  0  0
   35.5230   20.6320   33.7790 C   0  0  0  0  0  0  0  0  0  0  0  0
   35.8290   21.6370   32.8080 N   0  0  0  0  0  0  0  0  0  0  0  0
   37.2510   21.4750   32.4630 C   0  0  0  0  0  0  0  0  0  0  0  0
   38.1110   21.9380   33.6120 C   0  0  0  0  0  0  0  0  0  0  0  0
   40.9581   22.6317   37.5867 H   0  0  0  0  0  0  0  0  0  0  0  0
   39.5170   23.8352   39.2624 H   0  0  0  0  0  0  0  0  0  0  0  0
   37.0369   24.0004   38.7854 H   0  0  0  0  0  0  0  0  0  0  0  0
   36.4254   20.0323   35.6006 H   0  0  0  0  0  0  0  0  0  0  0  0
   35.5079   21.6095   35.6410 H   0  0  0  0  0  0  0  0  0  0  0  0
   35.8813   19.6552   33.4218 H   0  0  0  0  0  0  0  0  0  0  0  0
   34.4346   20.5882   33.9325 H   0  0  0  0  0  0  0  0  0  0  0  0
   35.2440   21.5102   31.9698 H   0  0  0  0  0  0  0  0  0  0  0  0
   37.4581   20.4147   32.2559 H   0  0  0  0  0  0  0  0  0  0  0  0
   37.4797   22.0781   31.5719 H   0  0  0  0  0  0  0  0  0  0  0  0
   39.0581   21.3786   33.6022 H   0  0  0  0  0  0  0  0  0  0  0  0
   38.3022   23.0153   33.4983 H   0  0  0  0  0  0  0  0  0  0  0  0
  1  2  2  0
  3  2  1  0
  4  3  2  0
  5  6  2  0
  5  4  1  0
  6  1  1  0
  7  8  1  0
  7  5  1  0
  9  8  1  0
 10  9  1  0
 11 10  1  0
 11 12  1  0
 12  7  1  0
  1 13  1  0
  2 14  1  0
  3 15  1  0
  8 16  1  0
  8 17  1  0
  9 18  1  0
  9 19  1  0
 10 20  1  0
 11 21  1  0
 11 22  1  0
 12 23  1  0
 12 24  1  0
M  ISO  8  13  14  14  14  15  14  16  13  17  13  18  13  19  13  20   5
M  ISO  4  21  13  22  13  23  13  24  13
M  END
>  <minimizedAffinity>  (1) 
-3.78848886

>  <minimizedRMSD>  (1) 
0.993291438

$$$$
