
     RDKit          3D

 38 40  0  0  0  0  0  0  0  0999 V2000
   37.6370   25.0590   34.7310 S   0  0  0  0  0  0  0  0  0  0  0  0
   38.5020   23.3710   38.3380 C   0  0  0  0  0  0  0  0  0  0  0  0
   37.8630   24.0490   37.2900 C   0  0  0  0  0  0  0  0  0  0  0  0
   38.4470   24.2010   36.0570 C   0  0  0  0  0  0  0  0  0  0  0  0
   39.6840   23.6570   35.9060 N   0  0  0  0  0  0  0  0  0  0  0  0
   40.3090   23.0130   36.8800 C   0  0  0  0  0  0  0  0  0  0  0  0
   39.7480   22.8510   38.1060 N   0  0  0  0  0  0  0  0  0  0  0  0
   41.6400   22.4480   36.6620 C   0  0  0  0  0  0  0  0  0  0  0  0
   42.8940   22.8900   36.3210 C   0  0  0  0  0  0  0  0  0  0  0  0
   43.7170   21.7620   36.2930 C   0  0  0  0  0  0  0  0  0  0  0  0
   42.8910   20.7030   36.6220 C   0  0  0  0  0  0  0  0  0  0  0  0
   41.6750   21.1270   36.8340 O   0  0  0  0  0  0  0  0  0  0  0  0
   43.4460   19.3230   36.6880 C   0  0  0  0  0  0  0  0  0  0  0  0
   42.7200   18.4960   37.5180 F   0  0  0  0  0  0  0  0  0  0  0  0
   43.4460   18.7500   35.4260 F   0  0  0  0  0  0  0  0  0  0  0  0
   44.7400   19.3410   37.2230 F   0  0  0  0  0  0  0  0  0  0  0  0
   38.0080   26.8030   34.6600 C   0  0  0  0  0  0  0  0  0  0  0  0
   38.9120   27.3340   35.7280 C   0  0  0  0  0  0  0  0  0  0  0  0
   36.7730   27.6920   34.6030 C   0  0  0  0  0  0  0  0  0  0  0  0
   38.7200   27.0690   33.3080 C   0  0  0  0  0  0  0  0  0  0  0  0
   37.7420   27.3520   32.2300 C   0  0  0  0  0  0  0  0  0  0  0  0
   37.0510   26.3920   31.5730 N   0  0  0  0  0  0  0  0  0  0  0  0
   36.2850   26.9720   30.6960 O   0  0  0  0  0  0  0  0  0  0  0  0
   36.4250   28.2630   30.7330 C   0  0  0  0  0  0  0  0  0  0  0  0
   37.3290   28.5090   31.6850 N   0  0  0  0  0  0  0  0  0  0  0  0
   38.0165   23.2598   39.3188 H   0  0  0  0  0  0  0  0  0  0  0  0
   36.8623   24.4724   37.4613 H   0  0  0  0  0  0  0  0  0  0  0  0
   43.1919   23.9279   36.1112 H   0  0  0  0  0  0  0  0  0  0  0  0
   44.7913   21.7242   36.0595 H   0  0  0  0  0  0  0  0  0  0  0  0
   38.4953   27.0893   36.7162 H   0  0  0  0  0  0  0  0  0  0  0  0
   39.9074   26.8771   35.6264 H   0  0  0  0  0  0  0  0  0  0  0  0
   38.9977   28.4259   35.6264 H   0  0  0  0  0  0  0  0  0  0  0  0
   36.4441   27.9287   35.6256 H   0  0  0  0  0  0  0  0  0  0  0  0
   37.0161   28.6237   34.0711 H   0  0  0  0  0  0  0  0  0  0  0  0
   35.9667   27.1658   34.0711 H   0  0  0  0  0  0  0  0  0  0  0  0
   39.3899   27.9342   33.4201 H   0  0  0  0  0  0  0  0  0  0  0  0
   39.2892   26.1689   33.0326 H   0  0  0  0  0  0  0  0  0  0  0  0
   35.9047   29.0032   30.1074 H   0  0  0  0  0  0  0  0  0  0  0  0
  1  4  1  0
  3  2  2  0
  4  3  1  0
  5  4  2  0
  5  6  1  0
  6  7  2  0
  7  2  1  0
  8 12  1  0
  8  6  1  0
  9  8  2  0
 10  9  1  0
 10 11  2  0
 11 13  1  0
 11 12  1  0
 13 16  1  0
 13 14  1  0
 15 13  1  0
 17  1  1  0
 17 18  1  0
 19 17  1  0
 20 17  1  0
 21 20  1  0
 22 21  2  0
 23 24  1  0
 23 22  1  0
 24 25  2  0
 25 21  1  0
  2 26  1  0
  3 27  1  0
  9 28  1  0
 10 29  1  0
 18 30  1  0
 18 31  1  0
 18 32  1  0
 19 33  1  0
 19 34  1  0
 19 35  1  0
 20 36  1  0
 20 37  1  0
 24 38  1  0
M  ISO  8  26  14  27  14  28  14  29  14  30   8  31   8  32   8  33   8
M  ISO  5  34   8  35   8  36   8  37   8  38  14
M  END
>  <minimizedAffinity>  (1) 
-5.23362732

>  <minimizedRMSD>  (1) 
1.16527081

$$$$
