
     RDKit          3D

 50 52  0  0  0  0  0  0  0  0999 V2000
   37.5450   22.9000   33.8790 C   0  0  0  0  0  0  0  0  0  0  0  0
   37.9490   24.1880   33.6730 C   0  0  0  0  0  0  0  0  0  0  0  0
   38.4980   24.9760   34.6290 C   0  0  0  0  0  0  0  0  0  0  0  0
   38.6430   24.4140   35.8710 N   0  0  0  0  0  0  0  0  0  0  0  0
   38.2490   23.1300   36.1110 C   0  0  0  0  0  0  0  0  0  0  0  0
   37.7060   22.3740   35.1360 N   0  0  0  0  0  0  0  0  0  0  0  0
   36.9560   22.0170   32.8990 C   0  0  0  0  0  0  0  0  0  0  0  0
   36.0850   20.9890   33.2880 C   0  0  0  0  0  0  0  0  0  0  0  0
   35.6780   20.3120   32.1640 C   0  0  0  0  0  0  0  0  0  0  0  0
   36.3290   20.9670   31.1340 C   0  0  0  0  0  0  0  0  0  0  0  0
   37.0720   21.9680   31.6240 O   0  0  0  0  0  0  0  0  0  0  0  0
   34.7790   19.1680   32.0110 C   0  0  0  0  0  0  0  0  0  0  0  0
   35.3020   17.8990   32.6920 C   0  0  0  0  0  0  0  0  0  0  0  0
   36.5370   17.4790   32.1120 N   0  0  0  0  0  0  0  0  0  0  0  0
   38.9390   26.3520   34.4480 C   0  0  0  0  0  0  0  0  0  0  0  0
   39.0260   27.1300   35.7380 C   0  0  0  0  0  0  0  0  0  0  0  0
   37.8930   27.0950   33.5690 C   0  0  0  0  0  0  0  0  0  0  0  0
   40.2000   26.3760   33.6510 C   0  0  0  0  0  0  0  0  0  0  0  0
   41.4240   26.5190   34.3240 N   0  0  0  0  0  0  0  0  0  0  0  0
   42.4580   27.3080   33.7460 C   0  0  0  0  0  0  0  0  0  0  0  0
   43.6770   26.4430   33.3850 C   0  0  0  0  0  0  0  0  0  0  0  0
   44.2790   25.8780   34.4790 O   0  0  0  0  0  0  0  0  0  0  0  0
   43.3280   25.3700   35.3420 C   0  0  0  0  0  0  0  0  0  0  0  0
   41.9640   25.2190   34.6620 C   0  0  0  0  0  0  0  0  0  0  0  0
   37.8206   24.6131   32.6666 H   0  0  0  0  0  0  0  0  0  0  0  0
   38.3766   22.7045   37.1173 H   0  0  0  0  0  0  0  0  0  0  0  0
   35.7790   20.7627   34.3201 H   0  0  0  0  0  0  0  0  0  0  0  0
   36.2483   20.7043   30.0689 H   0  0  0  0  0  0  0  0  0  0  0  0
   33.8050   19.4264   32.4522 H   0  0  0  0  0  0  0  0  0  0  0  0
   34.6993   18.9544   30.9349 H   0  0  0  0  0  0  0  0  0  0  0  0
   35.4579   18.1029   33.7616 H   0  0  0  0  0  0  0  0  0  0  0  0
   34.5607   17.0976   32.5565 H   0  0  0  0  0  0  0  0  0  0  0  0
   37.2075   17.2510   32.8599 H   0  0  0  0  0  0  0  0  0  0  0  0
   36.3765   16.6453   31.5288 H   0  0  0  0  0  0  0  0  0  0  0  0
   38.9486   26.4379   36.5895 H   0  0  0  0  0  0  0  0  0  0  0  0
   39.9890   27.6598   35.7824 H   0  0  0  0  0  0  0  0  0  0  0  0
   38.2038   27.8594   35.7824 H   0  0  0  0  0  0  0  0  0  0  0  0
   37.1685   27.6096   34.2173 H   0  0  0  0  0  0  0  0  0  0  0  0
   38.4054   27.8327   32.9340 H   0  0  0  0  0  0  0  0  0  0  0  0
   37.3652   26.3682   32.9340 H   0  0  0  0  0  0  0  0  0  0  0  0
   40.1198   27.2153   32.9445 H   0  0  0  0  0  0  0  0  0  0  0  0
   40.2551   25.3694   33.2107 H   0  0  0  0  0  0  0  0  0  0  0  0
   42.0757   27.7890   32.8336 H   0  0  0  0  0  0  0  0  0  0  0  0
   42.7715   28.0654   34.4795 H   0  0  0  0  0  0  0  0  0  0  0  0
   43.3477   25.6377   32.7119 H   0  0  0  0  0  0  0  0  0  0  0  0
   44.4169   27.1024   32.9078 H   0  0  0  0  0  0  0  0  0  0  0  0
   43.6601   24.3831   35.6965 H   0  0  0  0  0  0  0  0  0  0  0  0
   43.2159   26.0743   36.1795 H   0  0  0  0  0  0  0  0  0  0  0  0
   41.2724   24.7056   35.3462 H   0  0  0  0  0  0  0  0  0  0  0  0
   42.0871   24.6321   33.7398 H   0  0  0  0  0  0  0  0  0  0  0  0
  1  6  1  0
  2  1  2  0
  2  3  1  0
  3  4  2  0
  4  5  1  0
  6  5  2  0
  7  8  2  0
  7  1  1  0
  9  8  1  0
 10 11  1  0
 10  9  2  0
 11  7  1  0
 12  9  1  0
 12 13  1  0
 14 13  1  0
 15  3  1  0
 15 16  1  0
 17 15  1  0
 18 19  1  0
 18 15  1  0
 19 24  1  0
 20 19  1  0
 21 20  1  0
 21 22  1  0
 22 23  1  0
 24 23  1  0
  2 25  1  0
  5 26  1  0
  8 27  1  0
 10 28  1  0
 12 29  1  0
 12 30  1  0
 13 31  1  0
 13 32  1  0
 14 33  1  0
 14 34  1  0
 16 35  1  0
 16 36  1  0
 16 37  1  0
 17 38  1  0
 17 39  1  0
 17 40  1  0
 18 41  1  0
 18 42  1  0
 20 43  1  0
 20 44  1  0
 21 45  1  0
 21 46  1  0
 23 47  1  0
 23 48  1  0
 24 49  1  0
 24 50  1  0
M  ISO  8  25  14  26  14  27  14  28  14  29   8  30   8  31   8  32   8
M  ISO  8  33   5  34   5  35   8  36   8  37   8  38   8  39   8  40   8
M  ISO  8  41   8  42   8  43  13  44  13  45  13  46  13  47  13  48  13
M  ISO  2  49  13  50  13
M  END
>  <minimizedAffinity>  (1) 
-4.62739134

>  <minimizedRMSD>  (1) 
1.45771921

$$$$
