
     RDKit          3D

 38 41  0  0  1  0  0  0  0  0999 V2000
   39.7080   22.7570   37.0430 C   0  0  0  0  0  0  0  0  0  0  0  0
   38.9100   23.3170   38.0470 C   0  0  0  0  0  0  0  0  0  0  0  0
   37.5370   23.2920   37.8460 C   0  0  0  0  0  0  0  0  0  0  0  0
   37.0220   22.7380   36.7070 N   0  0  0  0  0  0  0  0  0  0  0  0
   37.8420   22.2040   35.7550 C   0  0  0  0  0  0  0  0  0  0  0  0
   39.1710   22.2250   35.9430 N   0  0  0  0  0  0  0  0  0  0  0  0
   37.2380   21.6430   34.5910 N   0  0  0  0  0  0  0  0  0  0  0  0
   36.0720   20.8180   34.7700 C   0  0  0  0  0  0  0  0  0  0  0  0
   35.3720   20.5080   33.4870 C   0  0  0  0  0  0  0  0  0  0  0  0
   35.5570   21.5940   32.5800 N   0  0  0  0  0  0  0  0  0  0  0  0
   36.9510   21.5730   32.1620 C   0  0  0  0  0  0  0  0  0  0  0  0
   37.8720   21.9620   33.2930 C   0  0  1  0  0  0  0  0  0  0  0  0
   38.0490   23.4020   33.2120 C   0  0  0  0  0  0  0  0  0  0  0  0
   39.0960   23.9610   33.8500 N   0  0  0  0  0  0  0  0  0  0  0  0
   39.2530   25.2950   33.7690 C   0  0  0  0  0  0  0  0  0  0  0  0
   38.4700   26.1670   33.1090 N   0  0  0  0  0  0  0  0  0  0  0  0
   37.4070   25.6170   32.4570 C   0  0  0  0  0  0  0  0  0  0  0  0
   36.5150   26.4060   31.7330 C   0  0  0  0  0  0  0  0  0  0  0  0
   35.4350   25.8690   31.0680 C   0  0  0  0  0  0  0  0  0  0  0  0
   35.2500   24.5130   31.1340 C   0  0  0  0  0  0  0  0  0  0  0  0
   36.1180   23.7170   31.8410 C   0  0  0  0  0  0  0  0  0  0  0  0
   37.2000   24.2550   32.5070 C   0  0  0  0  0  0  0  0  0  0  0  0
   40.8014   22.7552   37.1630 H   0  0  0  0  0  0  0  0  0  0  0  0
   39.3507   23.7568   38.9538 H   0  0  0  0  0  0  0  0  0  0  0  0
   36.8627   23.7181   38.6035 H   0  0  0  0  0  0  0  0  0  0  0  0
   36.3810   19.8717   35.2380 H   0  0  0  0  0  0  0  0  0  0  0  0
   35.3670   21.3783   35.4017 H   0  0  0  0  0  0  0  0  0  0  0  0
   35.7910   19.5889   33.0515 H   0  0  0  0  0  0  0  0  0  0  0  0
   34.2983   20.3622   33.6765 H   0  0  0  0  0  0  0  0  0  0  0  0
   34.9416   21.4794   31.7621 H   0  0  0  0  0  0  0  0  0  0  0  0
   37.2080   20.5581   31.8244 H   0  0  0  0  0  0  0  0  0  0  0  0
   37.0785   22.3002   31.3465 H   0  0  0  0  0  0  0  0  0  0  0  0
   38.8276   21.4225   33.2175 H   0  0  0  0  0  0  0  0  0  0  0  0
   40.1171   25.7192   34.3013 H   0  0  0  0  0  0  0  0  0  0  0  0
   36.6788   27.4929   31.6913 H   0  0  0  0  0  0  0  0  0  0  0  0
   34.7425   26.5089   30.5015 H   0  0  0  0  0  0  0  0  0  0  0  0
   34.3952   24.0558   30.6140 H   0  0  0  0  0  0  0  0  0  0  0  0
   35.9474   22.6309   31.8768 H   0  0  0  0  0  0  0  0  0  0  0  0
  1  2  2  0
  3  2  1  0
  4  3  2  0
  5  6  2  0
  5  4  1  0
  6  1  1  0
  7  8  1  0
  7  5  1  0
  9  8  1  0
 10  9  1  0
 11 10  1  0
 11 12  1  0
 12  7  1  0
 13 12  1  0
 13 14  2  0
 15 14  1  0
 16 15  2  0
 17 22  2  0
 17 16  1  0
 18 17  1  0
 19 20  1  0
 19 18  2  0
 20 21  2  0
 21 22  1  0
 22 13  1  0
  1 23  1  0
  2 24  1  0
  3 25  1  0
  8 26  1  0
  8 27  1  0
  9 28  1  0
  9 29  1  0
 10 30  1  0
 11 31  1  0
 11 32  1  0
 12 33  1  6
 15 34  1  0
 18 35  1  0
 19 36  1  0
 20 37  1  0
 21 38  1  0
M  ISO  8  23  14  24  14  25  14  26  13  27  13  28  13  29  13  30   5
M  ISO  8  31  13  32  13  33  13  34  14  35  14  36  14  37  14  38  14
M  END
>  <minimizedAffinity>  (1) 
-6.04862309

>  <minimizedRMSD>  (1) 
0.738859177

$$$$
