
     RDKit          3D

 34 36  0  0  1  0  0  0  0  0999 V2000
   39.9660   22.8870   37.8400 C   0  0  0  0  0  0  0  0  0  0  0  0
   38.9230   23.2560   38.7310 C   0  0  0  0  0  0  0  0  0  0  0  0
   37.6460   23.3560   38.1990 C   0  0  0  0  0  0  0  0  0  0  0  0
   37.4380   23.1060   36.8770 N   0  0  0  0  0  0  0  0  0  0  0  0
   38.4620   22.7560   36.0610 C   0  0  0  0  0  0  0  0  0  0  0  0
   39.7120   22.6520   36.5560 N   0  0  0  0  0  0  0  0  0  0  0  0
   38.1860   22.5040   34.6880 N   0  0  0  0  0  0  0  0  0  0  0  0
   37.0110   21.6980   34.4070 C   0  0  0  0  0  0  0  0  0  0  0  0
   36.6700   21.6510   32.9480 C   0  0  0  0  0  0  0  0  0  0  0  0
   37.0660   22.8770   32.3470 N   0  0  0  0  0  0  0  0  0  0  0  0
   38.5300   22.8700   32.2960 C   0  0  0  0  0  0  0  0  0  0  0  0
   39.0880   23.0630   33.6830 C   0  0  1  0  0  0  0  0  0  0  0  0
   39.4690   24.4510   33.8940 C   0  0  0  0  0  0  0  0  0  0  0  0
   38.6060   25.5300   33.9160 C   0  0  0  0  0  0  0  0  0  0  0  0
   39.0120   26.8260   34.1200 C   0  0  0  0  0  0  0  0  0  0  0  0
   40.3530   27.1130   34.3200 C   0  0  0  0  0  0  0  0  0  0  0  0
   41.2820   26.0790   34.3100 C   0  0  0  0  0  0  0  0  0  0  0  0
   40.8100   24.7990   34.1000 C   0  0  0  0  0  0  0  0  0  0  0  0
   40.9955   22.7946   38.2164 H   0  0  0  0  0  0  0  0  0  0  0  0
   39.1193   23.4536   39.7952 H   0  0  0  0  0  0  0  0  0  0  0  0
   36.8014   23.6373   38.8452 H   0  0  0  0  0  0  0  0  0  0  0  0
   37.1975   20.6720   34.7569 H   0  0  0  0  0  0  0  0  0  0  0  0
   36.1609   22.1610   34.9295 H   0  0  0  0  0  0  0  0  0  0  0  0
   37.2028   20.8156   32.4702 H   0  0  0  0  0  0  0  0  0  0  0  0
   35.5873   21.5042   32.8210 H   0  0  0  0  0  0  0  0  0  0  0  0
   36.6784   22.9468   31.3953 H   0  0  0  0  0  0  0  0  0  0  0  0
   38.8772   21.9072   31.8930 H   0  0  0  0  0  0  0  0  0  0  0  0
   38.8757   23.6884   31.6473 H   0  0  0  0  0  0  0  0  0  0  0  0
   40.0215   22.4921   33.7955 H   0  0  0  0  0  0  0  0  0  0  0  0
   37.5336   25.3402   33.7614 H   0  0  0  0  0  0  0  0  0  0  0  0
   38.2706   27.6386   34.1247 H   0  0  0  0  0  0  0  0  0  0  0  0
   40.6795   28.1503   34.4853 H   0  0  0  0  0  0  0  0  0  0  0  0
   42.3537   26.2736   34.4638 H   0  0  0  0  0  0  0  0  0  0  0  0
   41.5488   23.9841   34.0939 H   0  0  0  0  0  0  0  0  0  0  0  0
  1  2  2  0
  3  2  1  0
  4  3  2  0
  5  6  2  0
  5  4  1  0
  6  1  1  0
  7  5  1  0
  8  7  1  0
  9  8  1  0
 10  9  1  0
 11 10  1  0
 11 12  1  0
 12 13  1  0
 12  7  1  0
 13 14  2  0
 13 18  1  0
 14 15  1  0
 15 16  2  0
 17 16  1  0
 18 17  2  0
  1 19  1  0
  2 20  1  0
  3 21  1  0
  8 22  1  0
  8 23  1  0
  9 24  1  0
  9 25  1  0
 10 26  1  0
 11 27  1  0
 11 28  1  0
 12 29  1  6
 14 30  1  0
 15 31  1  0
 16 32  1  0
 17 33  1  0
 18 34  1  0
M  ISO  8  19  14  20  14  21  14  22  13  23  13  24  13  25  13  26   5
M  ISO  8  27  13  28  13  29  13  30  14  31  14  32  14  33  14  34  14
M  END
>  <minimizedAffinity>  (1) 
-4.73866272

>  <minimizedRMSD>  (1) 
1.45964158

$$$$
