
     RDKit          3D

 35 37  0  0  1  0  0  0  0  0999 V2000
   40.2240   23.3580   35.7170 C   0  0  0  0  0  0  0  0  0  0  0  0
   39.5350   22.3140   36.3460 C   0  0  0  0  0  0  0  0  0  0  0  0
   38.2690   21.9950   35.8470 C   0  0  0  0  0  0  0  0  0  0  0  0
   37.7630   22.6970   34.7900 N   0  0  0  0  0  0  0  0  0  0  0  0
   38.4830   23.7100   34.2120 C   0  0  0  0  0  0  0  0  0  0  0  0
   39.6980   24.0170   34.6900 N   0  0  0  0  0  0  0  0  0  0  0  0
   37.8840   24.3890   33.1170 N   0  0  0  0  0  0  0  0  0  0  0  0
   37.2420   23.5980   32.1010 C   0  0  0  0  0  0  0  0  0  0  0  0
   36.4290   24.4120   31.1330 C   0  0  0  0  0  0  0  0  0  0  0  0
   35.9520   25.5820   31.7820 N   0  0  0  0  0  0  0  0  0  0  0  0
   37.0870   26.4580   32.0530 C   0  0  0  0  0  0  0  0  0  0  0  0
   37.9700   25.8490   33.1130 C   0  0  2  0  0  0  0  0  0  0  0  0
   39.3230   26.3380   33.0560 N   0  0  0  0  0  0  0  0  0  0  0  0
   40.1230   26.1200   31.9860 C   0  0  0  0  0  0  0  0  0  0  0  0
   41.4360   26.6040   31.9460 C   0  0  0  0  0  0  0  0  0  0  0  0
   41.8670   27.3080   33.0480 C   0  0  0  0  0  0  0  0  0  0  0  0
   43.1770   27.8140   33.0570 N   0  0  0  0  0  0  0  0  0  0  0  0
   41.0590   27.5270   34.1280 N   0  0  0  0  0  0  0  0  0  0  0  0
   39.7860   27.0350   34.1190 C   0  0  0  0  0  0  0  0  0  0  0  0
   39.1360   27.2960   35.1590 O   0  0  0  0  0  0  0  0  0  0  0  0
   41.2232   23.6390   36.0812 H   0  0  0  0  0  0  0  0  0  0  0  0
   39.9711   21.7686   37.1959 H   0  0  0  0  0  0  0  0  0  0  0  0
   37.6833   21.1831   36.3029 H   0  0  0  0  0  0  0  0  0  0  0  0
   38.0176   23.0589   31.5373 H   0  0  0  0  0  0  0  0  0  0  0  0
   36.5480   22.9149   32.6126 H   0  0  0  0  0  0  0  0  0  0  0  0
   35.5755   23.8154   30.7787 H   0  0  0  0  0  0  0  0  0  0  0  0
   37.0572   24.6981   30.2765 H   0  0  0  0  0  0  0  0  0  0  0  0
   35.2773   26.0663   31.1729 H   0  0  0  0  0  0  0  0  0  0  0  0
   37.6689   26.5957   31.1297 H   0  0  0  0  0  0  0  0  0  0  0  0
   36.7148   27.4299   32.4092 H   0  0  0  0  0  0  0  0  0  0  0  0
   37.5815   26.1841   34.0860 H   0  0  0  0  0  0  0  0  0  0  0  0
   39.7330   25.5503   31.1296 H   0  0  0  0  0  0  0  0  0  0  0  0
   42.0899   26.4307   31.0786 H   0  0  0  0  0  0  0  0  0  0  0  0
   43.5190   28.3434   33.8717 H   0  0  0  0  0  0  0  0  0  0  0  0
   43.7958   27.6557   32.2489 H   0  0  0  0  0  0  0  0  0  0  0  0
  1  2  2  0
  3  2  1  0
  4  3  2  0
  5  6  2  0
  5  4  1  0
  6  1  1  0
  7  5  1  0
  8  7  1  0
  9 10  1  0
  9  8  1  0
 10 11  1  0
 11 12  1  0
 12  7  1  0
 13 12  1  0
 13 19  1  0
 14 13  1  0
 15 14  2  0
 15 16  1  0
 16 17  1  0
 16 18  2  0
 19 18  1  0
 19 20  2  0
  1 21  1  0
  2 22  1  0
  3 23  1  0
  8 24  1  0
  8 25  1  0
  9 26  1  0
  9 27  1  0
 10 28  1  0
 11 29  1  0
 11 30  1  0
 12 31  1  1
 14 32  1  0
 15 33  1  0
 17 34  1  0
 17 35  1  0
M  ISO  8  21  14  22  14  23  14  24  13  25  13  26  13  27  13  28   5
M  ISO  5  29  13  30  13  31  13  32  14  33  14
M  END
>  <minimizedAffinity>  (1) 
-4.40533304

>  <minimizedRMSD>  (1) 
5.08171129

$$$$
