
     RDKit          3D

 37 39  0  0  0  0  0  0  0  0999 V2000
   37.6830   25.1750   34.5590 S   0  0  0  0  0  0  0  0  0  0  0  0
   38.1880   23.6440   38.3090 C   0  0  0  0  0  0  0  0  0  0  0  0
   37.6690   24.3120   37.1840 C   0  0  0  0  0  0  0  0  0  0  0  0
   38.3360   24.3340   35.9740 C   0  0  0  0  0  0  0  0  0  0  0  0
   39.5190   23.6740   35.9340 N   0  0  0  0  0  0  0  0  0  0  0  0
   40.0290   23.0370   36.9790 C   0  0  0  0  0  0  0  0  0  0  0  0
   39.3810   23.0100   38.1710 N   0  0  0  0  0  0  0  0  0  0  0  0
   41.3110   22.3410   36.8770 C   0  0  0  0  0  0  0  0  0  0  0  0
   42.5510   22.5810   36.3360 C   0  0  0  0  0  0  0  0  0  0  0  0
   43.3220   21.4600   36.6140 C   0  0  0  0  0  0  0  0  0  0  0  0
   42.4850   20.6010   37.3150 C   0  0  0  0  0  0  0  0  0  0  0  0
   41.3000   21.1470   37.4570 O   0  0  0  0  0  0  0  0  0  0  0  0
   42.9810   19.3360   37.7560 N   0  0  0  0  0  0  0  0  0  0  0  0
   38.0830   26.8970   34.4810 C   0  0  0  0  0  0  0  0  0  0  0  0
   38.3710   27.5720   35.7880 C   0  0  0  0  0  0  0  0  0  0  0  0
   37.0710   27.7380   33.7220 C   0  0  0  0  0  0  0  0  0  0  0  0
   39.3680   27.0230   33.6170 C   0  0  0  0  0  0  0  0  0  0  0  0
   39.0750   26.8670   32.1730 C   0  0  0  0  0  0  0  0  0  0  0  0
   39.0060   25.6650   31.5460 N   0  0  0  0  0  0  0  0  0  0  0  0
   38.7330   25.8790   30.2870 O   0  0  0  0  0  0  0  0  0  0  0  0
   38.6180   27.1630   30.0540 C   0  0  0  0  0  0  0  0  0  0  0  0
   38.8280   27.7720   31.2170 N   0  0  0  0  0  0  0  0  0  0  0  0
   37.6463   23.6358   39.2663 H   0  0  0  0  0  0  0  0  0  0  0  0
   36.7036   24.8321   37.2706 H   0  0  0  0  0  0  0  0  0  0  0  0
   42.8696   23.4819   35.7911 H   0  0  0  0  0  0  0  0  0  0  0  0
   44.3728   21.2885   36.3377 H   0  0  0  0  0  0  0  0  0  0  0  0
   42.3656   18.6945   38.2762 H   0  0  0  0  0  0  0  0  0  0  0  0
   43.9540   19.0654   37.5538 H   0  0  0  0  0  0  0  0  0  0  0  0
   38.0866   26.9054   36.6155 H   0  0  0  0  0  0  0  0  0  0  0  0
   39.4450   27.8005   35.8538 H   0  0  0  0  0  0  0  0  0  0  0  0
   37.7928   28.5055   35.8538 H   0  0  0  0  0  0  0  0  0  0  0  0
   36.4282   28.2722   34.4371 H   0  0  0  0  0  0  0  0  0  0  0  0
   37.6000   28.4662   33.0896 H   0  0  0  0  0  0  0  0  0  0  0  0
   36.4520   27.0846   33.0896 H   0  0  0  0  0  0  0  0  0  0  0  0
   39.8148   28.0140   33.7850 H   0  0  0  0  0  0  0  0  0  0  0  0
   40.0612   26.2224   33.9147 H   0  0  0  0  0  0  0  0  0  0  0  0
   38.3928   27.6414   29.0894 H   0  0  0  0  0  0  0  0  0  0  0  0
  1  4  1  0
  3  2  2  0
  4  3  1  0
  5  4  2  0
  5  6  1  0
  6  7  2  0
  7  2  1  0
  8  6  1  0
  8 12  1  0
  9 10  1  0
  9  8  2  0
 10 11  2  0
 11 12  1  0
 11 13  1  0
 14  1  1  0
 14 15  1  0
 16 14  1  0
 17 14  1  0
 18 17  1  0
 19 18  2  0
 20 19  1  0
 21 20  1  0
 21 22  2  0
 22 18  1  0
  2 23  1  0
  3 24  1  0
  9 25  1  0
 10 26  1  0
 13 27  1  0
 13 28  1  0
 15 29  1  0
 15 30  1  0
 15 31  1  0
 16 32  1  0
 16 33  1  0
 16 34  1  0
 17 35  1  0
 17 36  1  0
 21 37  1  0
M  ISO  8  23  14  24  14  25  14  26  14  29   8  30   8  31   8  32   8
M  ISO  5  33   8  34   8  35   8  36   8  37  14
M  END
>  <minimizedAffinity>  (1) 
-5.20986557

>  <minimizedRMSD>  (1) 
0.114974722

$$$$
