
     RDKit          3D

 27 28  0  0  1  0  0  0  0  0999 V2000
   39.9600   22.6310   37.3470 C   0  0  0  0  0  0  0  0  0  0  0  0
   39.1950   23.3250   38.2890 C   0  0  0  0  0  0  0  0  0  0  0  0
   37.8200   23.4690   38.0250 C   0  0  0  0  0  0  0  0  0  0  0  0
   37.3020   22.9350   36.8810 N   0  0  0  0  0  0  0  0  0  0  0  0
   38.0910   22.2680   35.9960 C   0  0  0  0  0  0  0  0  0  0  0  0
   39.4070   22.1290   36.2470 N   0  0  0  0  0  0  0  0  0  0  0  0
   37.4810   21.7400   34.8290 N   0  0  0  0  0  0  0  0  0  0  0  0
   36.2260   21.0160   34.9960 C   0  0  0  0  0  0  0  0  0  0  0  0
   35.5360   20.7090   33.7080 C   0  0  0  0  0  0  0  0  0  0  0  0
   35.8960   21.6780   32.7340 N   0  0  0  0  0  0  0  0  0  0  0  0
   37.2990   21.5170   32.4020 C   0  0  0  0  0  0  0  0  0  0  0  0
   38.1620   21.9640   33.5530 C   0  0  1  0  0  0  0  0  0  0  0  0
   38.4220   23.4410   33.4000 C   0  0  0  0  0  0  0  0  0  0  0  0
   37.6240   24.2350   34.1680 F   0  0  0  0  0  0  0  0  0  0  0  0
   39.7590   23.6440   33.7270 F   0  0  0  0  0  0  0  0  0  0  0  0
   38.2700   23.8640   32.0910 F   0  0  0  0  0  0  0  0  0  0  0  0
   41.0383   22.4979   37.5188 H   0  0  0  0  0  0  0  0  0  0  0  0
   39.6494   23.7418   39.1999 H   0  0  0  0  0  0  0  0  0  0  0  0
   37.1707   24.0056   38.7324 H   0  0  0  0  0  0  0  0  0  0  0  0
   36.4378   20.0676   35.5115 H   0  0  0  0  0  0  0  0  0  0  0  0
   35.5535   21.6662   35.5747 H   0  0  0  0  0  0  0  0  0  0  0  0
   35.8374   19.7100   33.3599 H   0  0  0  0  0  0  0  0  0  0  0  0
   34.4470   20.7313   33.8616 H   0  0  0  0  0  0  0  0  0  0  0  0
   35.3238   21.5459   31.8878 H   0  0  0  0  0  0  0  0  0  0  0  0
   37.5018   20.4576   32.1861 H   0  0  0  0  0  0  0  0  0  0  0  0
   37.5314   22.1319   31.5200 H   0  0  0  0  0  0  0  0  0  0  0  0
   39.1001   21.3897   33.5462 H   0  0  0  0  0  0  0  0  0  0  0  0
  1  2  2  0
  3  2  1  0
  4  3  2  0
  5  6  2  0
  5  4  1  0
  6  1  1  0
  7  8  1  0
  7  5  1  0
  9  8  1  0
 10  9  1  0
 11 10  1  0
 11 12  1  0
 12  7  1  0
 13 12  1  0
 13 15  1  0
 13 14  1  0
 16 13  1  0
  1 17  1  0
  2 18  1  0
  3 19  1  0
  8 20  1  0
  8 21  1  0
  9 22  1  0
  9 23  1  0
 10 24  1  0
 11 25  1  0
 11 26  1  0
 12 27  1  1
M  ISO  8  17  14  18  14  19  14  20  13  21  13  22  13  23  13  24   5
M  ISO  3  25  13  26  13  27  13
M  END
>  <minimizedAffinity>  (1) 
-4.20500755

>  <minimizedRMSD>  (1) 
0.124677368

$$$$
