
     RDKit          3D

 29 31  0  0  1  0  0  0  0  0999 V2000
   39.8660   22.7820   37.4910 C   0  0  0  0  0  0  0  0  0  0  0  0
   39.0480   23.4110   38.4650 C   0  0  0  0  0  0  0  0  0  0  0  0
   37.6690   23.4570   38.2070 C   0  0  0  0  0  0  0  0  0  0  0  0
   37.1970   22.9070   37.0560 N   0  0  0  0  0  0  0  0  0  0  0  0
   38.0130   22.3170   36.1540 C   0  0  0  0  0  0  0  0  0  0  0  0
   39.3430   22.2590   36.3800 N   0  0  0  0  0  0  0  0  0  0  0  0
   37.4430   21.7630   34.9710 N   0  0  0  0  0  0  0  0  0  0  0  0
   36.2230   20.9790   35.1420 C   0  0  0  0  0  0  0  0  0  0  0  0
   35.5600   20.6350   33.8470 C   0  0  0  0  0  0  0  0  0  0  0  0
   35.8060   21.6990   32.9110 N   0  0  0  0  0  0  0  0  0  0  0  0
   37.2270   21.5960   32.5420 C   0  0  0  0  0  0  0  0  0  0  0  0
   38.1030   22.0080   33.6980 C   0  0  1  0  0  0  0  0  0  0  0  0
   38.5890   23.3890   33.5440 C   0  0  0  0  0  0  0  0  0  0  0  0
   39.8370   23.8230   33.4400 N   0  0  0  0  0  0  0  0  0  0  0  0
   39.8390   25.1170   33.3210 O   0  0  0  0  0  0  0  0  0  0  0  0
   38.5960   25.5720   33.3420 C   0  0  0  0  0  0  0  0  0  0  0  0
   37.8080   24.4860   33.4830 N   0  0  0  0  0  0  0  0  0  0  0  0
   40.9522   22.7243   37.6548 H   0  0  0  0  0  0  0  0  0  0  0  0
   39.4756   23.8434   39.3816 H   0  0  0  0  0  0  0  0  0  0  0  0
   36.9815   23.9300   38.9237 H   0  0  0  0  0  0  0  0  0  0  0  0
   36.4776   20.0447   35.6638 H   0  0  0  0  0  0  0  0  0  0  0  0
   35.5164   21.5939   35.7188 H   0  0  0  0  0  0  0  0  0  0  0  0
   35.9747   19.6940   33.4564 H   0  0  0  0  0  0  0  0  0  0  0  0
   34.4778   20.5101   33.9994 H   0  0  0  0  0  0  0  0  0  0  0  0
   35.2111   21.5870   32.0777 H   0  0  0  0  0  0  0  0  0  0  0  0
   37.4554   20.5556   32.2674 H   0  0  0  0  0  0  0  0  0  0  0  0
   37.4232   22.2643   31.6906 H   0  0  0  0  0  0  0  0  0  0  0  0
   39.0022   21.3744   33.6931 H   0  0  0  0  0  0  0  0  0  0  0  0
   38.2722   26.6201   33.2611 H   0  0  0  0  0  0  0  0  0  0  0  0
  1  2  2  0
  3  2  1  0
  4  3  2  0
  5  6  2  0
  5  4  1  0
  6  1  1  0
  7  8  1  0
  7  5  1  0
  9  8  1  0
 10  9  1  0
 11 10  1  0
 11 12  1  0
 12  7  1  0
 13 12  1  0
 14 13  2  0
 15 16  1  0
 15 14  1  0
 16 17  2  0
 17 13  1  0
  1 18  1  0
  2 19  1  0
  3 20  1  0
  8 21  1  0
  8 22  1  0
  9 23  1  0
  9 24  1  0
 10 25  1  0
 11 26  1  0
 11 27  1  0
 12 28  1  1
 16 29  1  0
M  ISO  8  18  14  19  14  20  14  21  13  22  13  23  13  24  13  25   5
M  ISO  4  26  13  27  13  28  13  29  14
M  END
>  <minimizedAffinity>  (1) 
-4.37494421

>  <minimizedRMSD>  (1) 
0.651596487

$$$$
