
     RDKit          3D

 27 28  0  0  1  0  0  0  0  0999 V2000
   39.8800   22.7040   37.3450 C   0  0  0  0  0  0  0  0  0  0  0  0
   39.0920   23.3600   38.2990 C   0  0  0  0  0  0  0  0  0  0  0  0
   37.7080   23.4430   38.0500 C   0  0  0  0  0  0  0  0  0  0  0  0
   37.2380   22.8840   36.9100 N   0  0  0  0  0  0  0  0  0  0  0  0
   38.0230   22.2570   36.0060 C   0  0  0  0  0  0  0  0  0  0  0  0
   39.3370   22.1820   36.2490 N   0  0  0  0  0  0  0  0  0  0  0  0
   37.4130   21.7070   34.8440 N   0  0  0  0  0  0  0  0  0  0  0  0
   36.1630   20.9770   35.0370 C   0  0  0  0  0  0  0  0  0  0  0  0
   35.5030   20.6360   33.7380 C   0  0  0  0  0  0  0  0  0  0  0  0
   35.8170   21.6280   32.7670 N   0  0  0  0  0  0  0  0  0  0  0  0
   37.2400   21.4470   32.4220 C   0  0  0  0  0  0  0  0  0  0  0  0
   38.1070   21.9340   33.5640 C   0  0  1  0  0  0  0  0  0  0  0  0
   38.4170   23.3770   33.3910 C   0  0  0  0  0  0  0  0  0  0  0  0
   37.5250   24.2570   33.1570 O   0  0  0  0  0  0  0  0  0  0  0  0
   39.7570   23.7230   33.5000 O   0  0  0  0  0  0  0  0  0  0  0  0
   40.9650   22.6192   37.5047 H   0  0  0  0  0  0  0  0  0  0  0  0
   39.5364   23.7934   39.2071 H   0  0  0  0  0  0  0  0  0  0  0  0
   37.0320   23.9450   38.7578 H   0  0  0  0  0  0  0  0  0  0  0  0
   36.3769   20.0453   35.5813 H   0  0  0  0  0  0  0  0  0  0  0  0
   35.4779   21.6234   35.6052 H   0  0  0  0  0  0  0  0  0  0  0  0
   35.8636   19.6566   33.3904 H   0  0  0  0  0  0  0  0  0  0  0  0
   34.4131   20.5979   33.8814 H   0  0  0  0  0  0  0  0  0  0  0  0
   35.2300   21.5038   31.9298 H   0  0  0  0  0  0  0  0  0  0  0  0
   37.4396   20.3806   32.2402 H   0  0  0  0  0  0  0  0  0  0  0  0
   37.4719   22.0255   31.5156 H   0  0  0  0  0  0  0  0  0  0  0  0
   39.0530   21.3727   33.5662 H   0  0  0  0  0  0  0  0  0  0  0  0
   40.0344   24.6676   33.3956 H   0  0  0  0  0  0  0  0  0  0  0  0
  1  2  2  0
  3  2  1  0
  4  3  2  0
  5  6  2  0
  5  4  1  0
  6  1  1  0
  7  8  1  0
  7  5  1  0
  9  8  1  0
 10  9  1  0
 11 10  1  0
 11 12  1  0
 12  7  1  0
 13 15  1  0
 13 12  1  0
 14 13  2  0
  1 16  1  0
  2 17  1  0
  3 18  1  0
  8 19  1  0
  8 20  1  0
  9 21  1  0
  9 22  1  0
 10 23  1  0
 11 24  1  0
 11 25  1  0
 12 26  1  1
 15 27  1  0
M  ISO  8  16  14  17  14  18  14  19  13  20  13  21  13  22  13  23   5
M  ISO  4  24  13  25  13  26  13  27   3
M  END
>  <minimizedAffinity>  (1) 
-4.11020136

>  <minimizedRMSD>  (1) 
0.299295694

$$$$
