
     RDKit          3D

 38 40  0  0  0  0  0  0  0  0999 V2000
   37.7030   25.1170   34.7040 S   0  0  0  0  0  0  0  0  0  0  0  0
   38.5040   23.4030   38.3300 C   0  0  0  0  0  0  0  0  0  0  0  0
   37.8890   24.0940   37.2790 C   0  0  0  0  0  0  0  0  0  0  0  0
   38.4860   24.2400   36.0320 C   0  0  0  0  0  0  0  0  0  0  0  0
   39.7110   23.6680   35.8890 N   0  0  0  0  0  0  0  0  0  0  0  0
   40.3040   23.0110   36.8760 C   0  0  0  0  0  0  0  0  0  0  0  0
   39.7360   22.8610   38.0960 N   0  0  0  0  0  0  0  0  0  0  0  0
   41.6190   22.4130   36.6730 C   0  0  0  0  0  0  0  0  0  0  0  0
   42.8420   22.7840   36.1770 C   0  0  0  0  0  0  0  0  0  0  0  0
   43.6840   21.7020   36.2810 C   0  0  0  0  0  0  0  0  0  0  0  0
   42.9160   20.6990   36.8490 C   0  0  0  0  0  0  0  0  0  0  0  0
   41.7110   21.1510   37.0660 O   0  0  0  0  0  0  0  0  0  0  0  0
   43.4020   19.3450   37.1510 C   0  0  0  0  0  0  0  0  0  0  0  0
   44.5970   19.0000   36.9080 O   0  0  0  0  0  0  0  0  0  0  0  0
   42.5500   18.4060   37.7150 O   0  0  0  0  0  0  0  0  0  0  0  0
   38.0940   26.8510   34.6400 C   0  0  0  0  0  0  0  0  0  0  0  0
   38.4450   27.4930   35.9420 C   0  0  0  0  0  0  0  0  0  0  0  0
   37.0340   27.6900   33.9670 C   0  0  0  0  0  0  0  0  0  0  0  0
   39.3370   26.9880   33.7130 C   0  0  0  0  0  0  0  0  0  0  0  0
   38.9530   26.8640   32.2820 C   0  0  0  0  0  0  0  0  0  0  0  0
   38.8650   25.6870   31.6340 N   0  0  0  0  0  0  0  0  0  0  0  0
   38.5090   25.9170   30.4030 O   0  0  0  0  0  0  0  0  0  0  0  0
   38.3560   27.2000   30.2050 C   0  0  0  0  0  0  0  0  0  0  0  0
   38.6300   27.7970   31.3700 N   0  0  0  0  0  0  0  0  0  0  0  0
   38.0129   23.3002   39.3089 H   0  0  0  0  0  0  0  0  0  0  0  0
   36.8965   24.5379   37.4462 H   0  0  0  0  0  0  0  0  0  0  0  0
   43.1032   23.7714   35.7686 H   0  0  0  0  0  0  0  0  0  0  0  0
   44.7400   21.6452   35.9783 H   0  0  0  0  0  0  0  0  0  0  0  0
   42.8812   17.4952   37.9169 H   0  0  0  0  0  0  0  0  0  0  0  0
   38.0975   26.8573   36.7697 H   0  0  0  0  0  0  0  0  0  0  0  0
   39.5361   27.6164   36.0076 H   0  0  0  0  0  0  0  0  0  0  0  0
   37.9600   28.4781   36.0076 H   0  0  0  0  0  0  0  0  0  0  0  0
   36.4142   28.1806   34.7320 H   0  0  0  0  0  0  0  0  0  0  0  0
   37.5152   28.4545   33.3394 H   0  0  0  0  0  0  0  0  0  0  0  0
   36.4004   27.0461   33.3394 H   0  0  0  0  0  0  0  0  0  0  0  0
   39.8007   27.9720   33.8767 H   0  0  0  0  0  0  0  0  0  0  0  0
   40.0450   26.1820   33.9561 H   0  0  0  0  0  0  0  0  0  0  0  0
   38.0605   27.6913   29.2662 H   0  0  0  0  0  0  0  0  0  0  0  0
  1  4  1  0
  3  2  2  0
  4  3  1  0
  5  4  2  0
  5  6  1  0
  6  7  2  0
  7  2  1  0
  8  6  1  0
  8 12  1  0
  9 10  1  0
  9  8  2  0
 10 11  2  0
 11 12  1  0
 11 13  1  0
 13 15  1  0
 14 13  2  0
 16  1  1  0
 16 17  1  0
 18 16  1  0
 19 16  1  0
 20 19  1  0
 21 20  2  0
 22 21  1  0
 23 22  1  0
 23 24  2  0
 24 20  1  0
  2 25  1  0
  3 26  1  0
  9 27  1  0
 10 28  1  0
 15 29  1  0
 17 30  1  0
 17 31  1  0
 17 32  1  0
 18 33  1  0
 18 34  1  0
 18 35  1  0
 19 36  1  0
 19 37  1  0
 23 38  1  0
M  ISO  8  25  14  26  14  27  14  28  14  29   3  30   8  31   8  32   8
M  ISO  6  33   8  34   8  35   8  36   8  37   8  38  14
M  END
>  <minimizedAffinity>  (1) 
-5.19909954

>  <minimizedRMSD>  (1) 
0.511520088

$$$$
