
     RDKit          3D

 27 28  0  0  1  0  0  0  0  0999 V2000
   39.8420   22.6830   37.1770 C   0  0  0  0  0  0  0  0  0  0  0  0
   39.0460   23.2640   38.1840 C   0  0  0  0  0  0  0  0  0  0  0  0
   37.6610   23.3160   37.9450 C   0  0  0  0  0  0  0  0  0  0  0  0
   37.1780   22.8140   36.7810 N   0  0  0  0  0  0  0  0  0  0  0  0
   37.9980   22.2610   35.8360 C   0  0  0  0  0  0  0  0  0  0  0  0
   39.3250   22.1960   36.0380 N   0  0  0  0  0  0  0  0  0  0  0  0
   37.3820   21.7620   34.6450 N   0  0  0  0  0  0  0  0  0  0  0  0
   36.1840   20.9480   34.8030 C   0  0  0  0  0  0  0  0  0  0  0  0
   35.4660   20.6990   33.5230 C   0  0  0  0  0  0  0  0  0  0  0  0
   35.7000   21.7880   32.6240 N   0  0  0  0  0  0  0  0  0  0  0  0
   37.1170   21.7180   32.2180 C   0  0  0  0  0  0  0  0  0  0  0  0
   38.0090   22.1140   33.3710 C   0  0  2  0  0  0  0  0  0  0  0  0
   39.3350   21.4520   33.1630 C   0  0  0  0  0  0  0  0  0  0  0  0
   40.9298   22.6263   37.3302 H   0  0  0  0  0  0  0  0  0  0  0  0
   39.4864   23.6578   39.1119 H   0  0  0  0  0  0  0  0  0  0  0  0
   36.9810   23.7562   38.6892 H   0  0  0  0  0  0  0  0  0  0  0  0
   36.4753   19.9787   35.2338 H   0  0  0  0  0  0  0  0  0  0  0  0
   35.4972   21.5042   35.4579 H   0  0  0  0  0  0  0  0  0  0  0  0
   35.8341   19.7657   33.0718 H   0  0  0  0  0  0  0  0  0  0  0  0
   34.3872   20.6114   33.7192 H   0  0  0  0  0  0  0  0  0  0  0  0
   35.0910   21.7014   31.7979 H   0  0  0  0  0  0  0  0  0  0  0  0
   37.3565   20.6896   31.9096 H   0  0  0  0  0  0  0  0  0  0  0  0
   37.2852   22.4097   31.3794 H   0  0  0  0  0  0  0  0  0  0  0  0
   38.1623   23.2027   33.4072 H   0  0  0  0  0  0  0  0  0  0  0  0
   39.7888   21.2254   34.1391 H   0  0  0  0  0  0  0  0  0  0  0  0
   39.1942   20.5184   32.5985 H   0  0  0  0  0  0  0  0  0  0  0  0
   39.9966   22.1256   32.5985 H   0  0  0  0  0  0  0  0  0  0  0  0
  1  2  2  0
  3  2  1  0
  4  3  2  0
  5  6  2  0
  5  4  1  0
  6  1  1  0
  7  8  1  0
  7  5  1  0
  9  8  1  0
 10  9  1  0
 11 10  1  0
 11 12  1  0
 12  7  1  0
 13 12  1  0
  1 14  1  0
  2 15  1  0
  3 16  1  0
  8 17  1  0
  8 18  1  0
  9 19  1  0
  9 20  1  0
 10 21  1  0
 11 22  1  0
 11 23  1  0
 12 24  1  1
 13 25  1  0
 13 26  1  0
 13 27  1  0
M  ISO  8  14  14  15  14  16  14  17  13  18  13  19  13  20  13  21   5
M  ISO  6  22  13  23  13  24  13  25   8  26   8  27   8
M  END
>  <minimizedAffinity>  (1) 
-3.94043541

>  <minimizedRMSD>  (1) 
0.279007614

$$$$
