
     RDKit          3D

 30 31  0  0  1  0  0  0  0  0999 V2000
   39.8330   22.6770   37.1700 C   0  0  0  0  0  0  0  0  0  0  0  0
   39.0520   23.2630   38.1720 C   0  0  0  0  0  0  0  0  0  0  0  0
   37.6850   23.3120   37.9350 C   0  0  0  0  0  0  0  0  0  0  0  0
   37.1680   22.8060   36.7730 N   0  0  0  0  0  0  0  0  0  0  0  0
   37.9910   22.2460   35.8330 C   0  0  0  0  0  0  0  0  0  0  0  0
   39.3060   22.1930   36.0510 N   0  0  0  0  0  0  0  0  0  0  0  0
   37.3630   21.7440   34.6480 N   0  0  0  0  0  0  0  0  0  0  0  0
   36.1660   20.9560   34.8140 C   0  0  0  0  0  0  0  0  0  0  0  0
   35.4400   20.7010   33.5360 C   0  0  0  0  0  0  0  0  0  0  0  0
   35.6920   21.7780   32.6170 N   0  0  0  0  0  0  0  0  0  0  0  0
   37.1160   21.6460   32.2230 C   0  0  0  0  0  0  0  0  0  0  0  0
   37.9860   22.0730   33.3830 C   0  0  2  0  0  0  0  0  0  0  0  0
   39.3390   21.5150   33.1500 C   0  0  0  0  0  0  0  0  0  0  0  0
   39.1790   20.3200   32.2200 C   0  0  0  0  0  0  0  0  0  0  0  0
   40.9218   22.6149   37.3140 H   0  0  0  0  0  0  0  0  0  0  0  0
   39.4961   23.6625   39.0957 H   0  0  0  0  0  0  0  0  0  0  0  0
   37.0148   23.7592   38.6839 H   0  0  0  0  0  0  0  0  0  0  0  0
   36.4449   19.9878   35.2553 H   0  0  0  0  0  0  0  0  0  0  0  0
   35.4879   21.5300   35.4626 H   0  0  0  0  0  0  0  0  0  0  0  0
   35.7912   19.7553   33.0974 H   0  0  0  0  0  0  0  0  0  0  0  0
   34.3602   20.6348   33.7352 H   0  0  0  0  0  0  0  0  0  0  0  0
   35.0819   21.6954   31.7912 H   0  0  0  0  0  0  0  0  0  0  0  0
   37.3323   20.5988   31.9650 H   0  0  0  0  0  0  0  0  0  0  0  0
   37.3215   22.2815   31.3490 H   0  0  0  0  0  0  0  0  0  0  0  0
   38.1004   23.1652   33.4459 H   0  0  0  0  0  0  0  0  0  0  0  0
   39.9839   22.2732   32.6819 H   0  0  0  0  0  0  0  0  0  0  0  0
   39.8051   21.2116   34.0991 H   0  0  0  0  0  0  0  0  0  0  0  0
   39.0564   19.4044   32.8172 H   0  0  0  0  0  0  0  0  0  0  0  0
   38.2923   20.4653   31.5855 H   0  0  0  0  0  0  0  0  0  0  0  0
   40.0727   20.2270   31.5855 H   0  0  0  0  0  0  0  0  0  0  0  0
  1  2  2  0
  3  2  1  0
  4  3  2  0
  5  6  2  0
  5  4  1  0
  6  1  1  0
  7  8  1  0
  7  5  1  0
  9  8  1  0
 10  9  1  0
 11 10  1  0
 11 12  1  0
 12  7  1  0
 13 12  1  0
 14 13  1  0
  1 15  1  0
  2 16  1  0
  3 17  1  0
  8 18  1  0
  8 19  1  0
  9 20  1  0
  9 21  1  0
 10 22  1  0
 11 23  1  0
 11 24  1  0
 12 25  1  1
 13 26  1  0
 13 27  1  0
 14 28  1  0
 14 29  1  0
 14 30  1  0
M  ISO  8  15  14  16  14  17  14  18  13  19  13  20  13  21  13  22   5
M  ISO  8  23  13  24  13  25  13  26   8  27   8  28   8  29   8  30   8
M  END
>  <minimizedAffinity>  (1) 
-3.88587141

>  <minimizedRMSD>  (1) 
0.28044486

$$$$
