
     RDKit          3D

 31 33  0  0  1  0  0  0  0  0999 V2000
   39.8390   22.9830   37.5790 C   0  0  0  0  0  0  0  0  0  0  0  0
   38.7170   23.1150   38.4040 C   0  0  0  0  0  0  0  0  0  0  0  0
   37.7040   23.9640   37.9630 C   0  0  0  0  0  0  0  0  0  0  0  0
   37.8360   24.6260   36.7670 N   0  0  0  0  0  0  0  0  0  0  0  0
   38.9630   24.4480   36.0120 C   0  0  0  0  0  0  0  0  0  0  0  0
   39.9420   23.6370   36.4220 N   0  0  0  0  0  0  0  0  0  0  0  0
   39.0330   25.1680   34.7820 N   0  0  0  0  0  0  0  0  0  0  0  0
   37.8400   25.1650   33.9390 C   0  0  0  0  0  0  0  0  0  0  0  0
   37.9180   26.1260   32.8000 C   0  0  0  0  0  0  0  0  0  0  0  0
   38.7750   27.2050   33.1380 N   0  0  0  0  0  0  0  0  0  0  0  0
   40.1410   26.6780   33.2110 C   0  0  0  0  0  0  0  0  0  0  0  0
   40.2830   25.8450   34.4610 C   0  0  2  0  0  0  0  0  0  0  0  0
   41.4350   24.9390   34.4210 C   0  0  0  0  0  0  0  0  0  0  0  0
   41.6950   23.8530   33.6080 C   0  0  0  0  0  0  0  0  0  0  0  0
   42.9140   23.2980   33.9350 C   0  0  0  0  0  0  0  0  0  0  0  0
   43.3830   24.0490   34.9410 N   0  0  0  0  0  0  0  0  0  0  0  0
   42.5350   24.9970   35.2270 N   0  0  0  0  0  0  0  0  0  0  0  0
   40.6592   22.3210   37.8938 H   0  0  0  0  0  0  0  0  0  0  0  0
   38.6380   22.5730   39.3579 H   0  0  0  0  0  0  0  0  0  0  0  0
   36.7990   24.1039   38.5725 H   0  0  0  0  0  0  0  0  0  0  0  0
   37.7028   24.1522   33.5322 H   0  0  0  0  0  0  0  0  0  0  0  0
   36.9949   25.4769   34.5703 H   0  0  0  0  0  0  0  0  0  0  0  0
   36.9124   26.5137   32.5801 H   0  0  0  0  0  0  0  0  0  0  0  0
   38.3179   25.6085   31.9156 H   0  0  0  0  0  0  0  0  0  0  0  0
   38.7190   27.9377   32.4162 H   0  0  0  0  0  0  0  0  0  0  0  0
   40.3427   26.0541   32.3278 H   0  0  0  0  0  0  0  0  0  0  0  0
   40.8586   27.5113   33.2376 H   0  0  0  0  0  0  0  0  0  0  0  0
   40.4994   26.5361   35.2890 H   0  0  0  0  0  0  0  0  0  0  0  0
   41.0270   23.4847   32.8154 H   0  0  0  0  0  0  0  0  0  0  0  0
   43.3976   22.4262   33.4701 H   0  0  0  0  0  0  0  0  0  0  0  0
   44.2830   23.8990   35.4189 H   0  0  0  0  0  0  0  0  0  0  0  0
  1  2  2  0
  3  2  1  0
  4  3  2  0
  5  6  2  0
  5  4  1  0
  6  1  1  0
  7  5  1  0
  8  7  1  0
  9 10  1  0
  9  8  1  0
 10 11  1  0
 11 12  1  0
 12  7  1  0
 13 12  1  0
 13 17  2  0
 14 15  2  0
 14 13  1  0
 15 16  1  0
 16 17  1  0
  1 18  1  0
  2 19  1  0
  3 20  1  0
  8 21  1  0
  8 22  1  0
  9 23  1  0
  9 24  1  0
 10 25  1  0
 11 26  1  0
 11 27  1  0
 12 28  1  1
 14 29  1  0
 15 30  1  0
 16 31  1  0
M  ISO  8  18  14  19  14  20  14  21  13  22  13  23  13  24  13  25   5
M  ISO  6  26  13  27  13  28  13  29  14  30  14  31   9
M  END
>  <minimizedAffinity>  (1) 
-3.88631892

>  <minimizedRMSD>  (1) 
3.92118907

$$$$
