
     RDKit          3D

 41 43  0  0  0  0  0  0  0  0999 V2000
   37.5640   25.1370   34.7150 S   0  0  0  0  0  0  0  0  0  0  0  0
   38.3110   23.4600   38.3590 C   0  0  0  0  0  0  0  0  0  0  0  0
   37.7130   24.1430   37.2880 C   0  0  0  0  0  0  0  0  0  0  0  0
   38.3230   24.2740   36.0650 C   0  0  0  0  0  0  0  0  0  0  0  0
   39.5530   23.7000   35.9430 N   0  0  0  0  0  0  0  0  0  0  0  0
   40.1330   23.0510   36.9440 C   0  0  0  0  0  0  0  0  0  0  0  0
   39.5500   22.9110   38.1570 N   0  0  0  0  0  0  0  0  0  0  0  0
   41.4570   22.4510   36.7640 C   0  0  0  0  0  0  0  0  0  0  0  0
   42.7150   22.8410   36.3840 C   0  0  0  0  0  0  0  0  0  0  0  0
   43.5160   21.7120   36.4420 C   0  0  0  0  0  0  0  0  0  0  0  0
   42.6880   20.6850   36.8590 C   0  0  0  0  0  0  0  0  0  0  0  0
   41.4840   21.1490   37.0410 O   0  0  0  0  0  0  0  0  0  0  0  0
   43.1620   19.2740   37.0550 C   0  0  0  0  0  0  0  0  0  0  0  0
   44.6550   19.1530   36.9300 C   0  0  0  0  0  0  0  0  0  0  0  0
   37.9680   26.8620   34.6280 C   0  0  0  0  0  0  0  0  0  0  0  0
   38.8740   27.3780   35.7100 C   0  0  0  0  0  0  0  0  0  0  0  0
   36.7550   27.7710   34.5610 C   0  0  0  0  0  0  0  0  0  0  0  0
   38.6870   27.1010   33.2710 C   0  0  0  0  0  0  0  0  0  0  0  0
   37.7140   27.3840   32.1930 C   0  0  0  0  0  0  0  0  0  0  0  0
   36.9910   26.4340   31.5620 N   0  0  0  0  0  0  0  0  0  0  0  0
   36.2300   27.0030   30.6660 O   0  0  0  0  0  0  0  0  0  0  0  0
   36.4180   28.2980   30.6760 C   0  0  0  0  0  0  0  0  0  0  0  0
   37.3430   28.5530   31.6250 N   0  0  0  0  0  0  0  0  0  0  0  0
   37.8011   23.3685   39.3294 H   0  0  0  0  0  0  0  0  0  0  0  0
   36.7186   24.5899   37.4342 H   0  0  0  0  0  0  0  0  0  0  0  0
   43.0278   23.8538   36.0901 H   0  0  0  0  0  0  0  0  0  0  0  0
   44.5882   21.6459   36.2055 H   0  0  0  0  0  0  0  0  0  0  0  0
   42.8621   18.9358   38.0578 H   0  0  0  0  0  0  0  0  0  0  0  0
   42.7064   18.6530   36.2697 H   0  0  0  0  0  0  0  0  0  0  0  0
   45.1052   19.1165   37.9330 H   0  0  0  0  0  0  0  0  0  0  0  0
   44.9037   18.2318   36.3828 H   0  0  0  0  0  0  0  0  0  0  0  0
   45.0488   20.0222   36.3828 H   0  0  0  0  0  0  0  0  0  0  0  0
   38.4462   27.1343   36.6937 H   0  0  0  0  0  0  0  0  0  0  0  0
   39.8640   26.9083   35.6142 H   0  0  0  0  0  0  0  0  0  0  0  0
   38.9751   28.4692   35.6142 H   0  0  0  0  0  0  0  0  0  0  0  0
   36.4252   28.0181   35.5809 H   0  0  0  0  0  0  0  0  0  0  0  0
   37.0188   28.6957   34.0268 H   0  0  0  0  0  0  0  0  0  0  0  0
   35.9416   27.2582   34.0268 H   0  0  0  0  0  0  0  0  0  0  0  0
   39.3695   27.9577   33.3725 H   0  0  0  0  0  0  0  0  0  0  0  0
   39.2446   26.1903   33.0069 H   0  0  0  0  0  0  0  0  0  0  0  0
   35.9176   29.0375   30.0336 H   0  0  0  0  0  0  0  0  0  0  0  0
  1  4  1  0
  3  2  2  0
  4  3  1  0
  5  4  2  0
  5  6  1  0
  6  7  2  0
  7  2  1  0
  8  6  1  0
  8 12  1  0
  9 10  1  0
  9  8  2  0
 10 11  2  0
 11 12  1  0
 11 13  1  0
 14 13  1  0
 15  1  1  0
 15 16  1  0
 17 15  1  0
 18 15  1  0
 19 18  1  0
 20 19  2  0
 21 22  1  0
 21 20  1  0
 22 23  2  0
 23 19  1  0
  2 24  1  0
  3 25  1  0
  9 26  1  0
 10 27  1  0
 13 28  1  0
 13 29  1  0
 14 30  1  0
 14 31  1  0
 14 32  1  0
 16 33  1  0
 16 34  1  0
 16 35  1  0
 17 36  1  0
 17 37  1  0
 17 38  1  0
 18 39  1  0
 18 40  1  0
 22 41  1  0
M  ISO  8  24  14  25  14  26  14  27  14  28   8  29   8  30   8  31   8
M  ISO  8  32   8  33   8  34   8  35   8  36   8  37   8  38   8  39   8
M  ISO  2  40   8  41  14
M  END
>  <minimizedAffinity>  (1) 
-5.17012548

>  <minimizedRMSD>  (1) 
1.13584745

$$$$
