
     RDKit          3D

 46 50  0  0  1  0  0  0  0  0999 V2000
   39.1160   22.8170   37.4990 C   0  0  0  0  0  0  0  0  0  0  0  0
   38.6150   23.4330   38.6430 C   0  0  0  0  0  0  0  0  0  0  0  0
   38.0800   24.7180   38.5010 C   0  0  0  0  0  0  0  0  0  0  0  0
   38.0840   25.2740   37.2640 N   0  0  0  0  0  0  0  0  0  0  0  0
   38.5810   24.6450   36.1640 C   0  0  0  0  0  0  0  0  0  0  0  0
   39.0950   23.4120   36.3050 N   0  0  0  0  0  0  0  0  0  0  0  0
   38.5200   25.3450   34.9400 N   0  0  0  0  0  0  0  0  0  0  0  0
   37.2910   26.0170   34.5800 C   0  0  0  0  0  0  0  0  0  0  0  0
   37.4200   26.9000   33.3860 C   0  0  0  0  0  0  0  0  0  0  0  0
   38.7690   27.3570   33.2650 N   0  0  0  0  0  0  0  0  0  0  0  0
   39.5630   26.1860   32.8790 C   0  0  0  0  0  0  0  0  0  0  0  0
   39.7390   25.3230   34.1230 C   0  0  2  0  0  0  0  0  0  0  0  0
   40.1460   23.9320   33.8100 C   0  0  0  0  0  0  0  0  0  0  0  0
   41.4400   23.5270   34.0310 C   0  0  0  0  0  0  0  0  0  0  0  0
   41.9440   22.2690   33.7880 C   0  0  0  0  0  0  0  0  0  0  0  0
   41.0270   21.3450   33.2700 C   0  0  0  0  0  0  0  0  0  0  0  0
   39.7340   21.7690   33.0550 C   0  0  0  0  0  0  0  0  0  0  0  0
   39.3080   23.0120   33.3130 N   0  0  0  0  0  0  0  0  0  0  0  0
   38.8890   20.7500   32.5260 N   0  0  0  0  0  0  0  0  0  0  0  0
   39.4870   19.6730   31.9590 C   0  0  0  0  0  0  0  0  0  0  0  0
   38.5020   18.8390   31.5290 N   0  0  0  0  0  0  0  0  0  0  0  0
   37.2990   19.3620   31.8080 C   0  0  0  0  0  0  0  0  0  0  0  0
   35.9640   19.0330   31.6440 C   0  0  0  0  0  0  0  0  0  0  0  0
   34.9890   19.8720   32.0880 N   0  0  0  0  0  0  0  0  0  0  0  0
   35.3200   21.0280   32.6910 C   0  0  0  0  0  0  0  0  0  0  0  0
   36.6170   21.3970   32.8780 N   0  0  0  0  0  0  0  0  0  0  0  0
   37.5800   20.5630   32.4360 C   0  0  0  0  0  0  0  0  0  0  0  0
   35.7340   17.7890   30.9950 N   0  0  0  0  0  0  0  0  0  0  0  0
   39.5431   21.8067   37.5825 H   0  0  0  0  0  0  0  0  0  0  0  0
   38.6389   22.9289   39.6204 H   0  0  0  0  0  0  0  0  0  0  0  0
   37.6691   25.2602   39.3654 H   0  0  0  0  0  0  0  0  0  0  0  0
   36.5273   25.2544   34.3674 H   0  0  0  0  0  0  0  0  0  0  0  0
   37.0155   26.6607   35.4284 H   0  0  0  0  0  0  0  0  0  0  0  0
   37.1432   26.3360   32.4831 H   0  0  0  0  0  0  0  0  0  0  0  0
   36.7521   27.7664   33.5012 H   0  0  0  0  0  0  0  0  0  0  0  0
   38.8352   28.0877   32.5421 H   0  0  0  0  0  0  0  0  0  0  0  0
   39.0378   25.6167   32.0979 H   0  0  0  0  0  0  0  0  0  0  0  0
   40.5403   26.4946   32.4795 H   0  0  0  0  0  0  0  0  0  0  0  0
   40.5650   25.7620   34.7018 H   0  0  0  0  0  0  0  0  0  0  0  0
   42.1359   24.2750   34.4387 H   0  0  0  0  0  0  0  0  0  0  0  0
   42.9938   22.0075   33.9868 H   0  0  0  0  0  0  0  0  0  0  0  0
   41.3302   20.3125   33.0419 H   0  0  0  0  0  0  0  0  0  0  0  0
   40.5699   19.5046   31.8642 H   0  0  0  0  0  0  0  0  0  0  0  0
   34.5192   21.6947   33.0433 H   0  0  0  0  0  0  0  0  0  0  0  0
   34.7704   17.4641   30.8309 H   0  0  0  0  0  0  0  0  0  0  0  0
   36.5309   17.2127   30.6889 H   0  0  0  0  0  0  0  0  0  0  0  0
  1  2  2  0
  3  2  1  0
  4  3  2  0
  5  6  2  0
  5  4  1  0
  6  1  1  0
  7  5  1  0
  8  7  1  0
  9  8  1  0
 10  9  1  0
 11 10  1  0
 11 12  1  0
 12  7  1  0
 13 14  2  0
 13 12  1  0
 15 14  1  0
 16 15  2  0
 17 16  1  0
 17 18  2  0
 18 13  1  0
 19 17  1  0
 20 19  1  0
 21 22  1  0
 21 20  2  0
 22 27  2  0
 23 22  1  0
 23 24  2  0
 24 25  1  0
 25 26  2  0
 27 19  1  0
 27 26  1  0
 28 23  1  0
  1 29  1  0
  2 30  1  0
  3 31  1  0
  8 32  1  0
  8 33  1  0
  9 34  1  0
  9 35  1  0
 10 36  1  0
 11 37  1  0
 11 38  1  0
 12 39  1  1
 14 40  1  0
 15 41  1  0
 16 42  1  0
 20 43  1  0
 25 44  1  0
 28 45  1  0
 28 46  1  0
M  ISO  8  29  14  30  14  31  14  32  13  33  13  34  13  35  13  36   5
M  ISO  8  37  13  38  13  39  13  40  14  41  14  42  14  43  14  44  14
M  END
>  <minimizedAffinity>  (1) 
-5.93670607

>  <minimizedRMSD>  (1) 
3.16421127

$$$$
