
     RDKit          3D

 51 55  0  0  1  0  0  0  0  0999 V2000
   39.7180   23.0100   37.9390 C   0  0  0  0  0  0  0  0  0  0  0  0
   38.4330   23.2620   38.4390 C   0  0  0  0  0  0  0  0  0  0  0  0
   37.5270   23.8680   37.5870 C   0  0  0  0  0  0  0  0  0  0  0  0
   37.9370   24.1780   36.3290 N   0  0  0  0  0  0  0  0  0  0  0  0
   39.1900   23.9200   35.8750 C   0  0  0  0  0  0  0  0  0  0  0  0
   40.0730   23.3340   36.6940 N   0  0  0  0  0  0  0  0  0  0  0  0
   39.4780   24.3020   34.5320 N   0  0  0  0  0  0  0  0  0  0  0  0
   38.5290   23.9630   33.4970 C   0  0  0  0  0  0  0  0  0  0  0  0
   38.8410   24.6000   32.1760 C   0  0  0  0  0  0  0  0  0  0  0  0
   39.5660   25.8180   32.3910 N   0  0  0  0  0  0  0  0  0  0  0  0
   40.8960   25.4320   32.8740 C   0  0  0  0  0  0  0  0  0  0  0  0
   40.7580   25.0240   34.3330 C   0  0  2  0  0  0  0  0  0  0  0  0
   41.8880   24.2090   34.8030 C   0  0  0  0  0  0  0  0  0  0  0  0
   42.2040   23.0200   34.2070 C   0  0  0  0  0  0  0  0  0  0  0  0
   43.1990   22.1390   34.4800 C   0  0  0  0  0  0  0  0  0  0  0  0
   43.9980   22.5320   35.5270 C   0  0  0  0  0  0  0  0  0  0  0  0
   43.7190   23.7210   36.1640 C   0  0  0  0  0  0  0  0  0  0  0  0
   42.6960   24.5150   35.7980 N   0  0  0  0  0  0  0  0  0  0  0  0
   44.5140   24.3960   37.1420 C   0  0  0  0  0  0  0  0  0  0  0  0
   45.2020   24.9800   37.9870 N   0  0  0  0  0  0  0  0  0  0  0  0
   45.7790   25.4940   38.9360 C   0  0  0  0  0  0  0  0  0  0  0  0
   46.6750   26.0690   38.1260 N   0  0  0  0  0  0  0  0  0  0  0  0
   46.5640   25.8520   36.7790 C   0  0  0  0  0  0  0  0  0  0  0  0
   47.6100   26.4620   36.0250 C   0  0  0  0  0  0  0  0  0  0  0  0
   47.5970   26.2210   34.6810 C   0  0  0  0  0  0  0  0  0  0  0  0
   46.6830   25.4540   33.9950 C   0  0  0  0  0  0  0  0  0  0  0  0
   45.7420   24.9430   34.8710 C   0  0  0  0  0  0  0  0  0  0  0  0
   45.5110   25.0320   36.2890 C   0  0  0  0  0  0  0  0  0  0  0  0
   40.4587   22.5290   38.5948 H   0  0  0  0  0  0  0  0  0  0  0  0
   38.1560   22.9888   39.4679 H   0  0  0  0  0  0  0  0  0  0  0  0
   36.5026   24.0928   37.9188 H   0  0  0  0  0  0  0  0  0  0  0  0
   38.5293   22.8707   33.3669 H   0  0  0  0  0  0  0  0  0  0  0  0
   37.5472   24.3413   33.8179 H   0  0  0  0  0  0  0  0  0  0  0  0
   37.9033   24.8205   31.6449 H   0  0  0  0  0  0  0  0  0  0  0  0
   39.4516   23.9120   31.5728 H   0  0  0  0  0  0  0  0  0  0  0  0
   39.6467   26.3443   31.5093 H   0  0  0  0  0  0  0  0  0  0  0  0
   41.2783   24.5866   32.2832 H   0  0  0  0  0  0  0  0  0  0  0  0
   41.6006   26.2707   32.7736 H   0  0  0  0  0  0  0  0  0  0  0  0
   40.7626   25.9447   34.9349 H   0  0  0  0  0  0  0  0  0  0  0  0
   41.5469   22.7316   33.3733 H   0  0  0  0  0  0  0  0  0  0  0  0
   43.3509   21.2045   33.9199 H   0  0  0  0  0  0  0  0  0  0  0  0
   44.8446   21.9085   35.8503 H   0  0  0  0  0  0  0  0  0  0  0  0
   45.1503   23.5041   37.2403 H   0  0  0  0  0  0  0  0  0  0  0  0
   46.0665   24.5309   37.6526 H   0  0  0  0  0  0  0  0  0  0  0  0
   45.1608   26.2127   39.4940 H   0  0  0  0  0  0  0  0  0  0  0  0
   46.1252   24.8628   39.7677 H   0  0  0  0  0  0  0  0  0  0  0  0
   47.4286   26.6595   38.5059 H   0  0  0  0  0  0  0  0  0  0  0  0
   48.3806   27.0887   36.4977 H   0  0  0  0  0  0  0  0  0  0  0  0
   48.3973   26.6866   34.0870 H   0  0  0  0  0  0  0  0  0  0  0  0
   46.6984   25.2738   32.9100 H   0  0  0  0  0  0  0  0  0  0  0  0
   44.9913   24.3201   34.3626 H   0  0  0  0  0  0  0  0  0  0  0  0
  1  2  2  0
  3  2  1  0
  4  3  2  0
  5  4  1  0
  5  6  2  0
  6  1  1  0
  7  5  1  0
  8  7  1  0
  9 10  1  0
  9  8  1  0
 10 11  1  0
 11 12  1  0
 12  7  1  0
 12 13  1  0
 13 18  2  0
 14 15  2  0
 14 13  1  0
 15 16  1  0
 16 17  2  0
 18 17  1  0
 19 17  1  0
 19 20  1  0
 20 21  1  0
 22 21  1  0
 23 22  1  0
 24 23  2  0
 25 24  1  0
 26 25  2  0
 26 27  1  0
 27 28  2  0
 28 23  1  0
 28 19  1  0
  1 29  1  0
  2 30  1  0
  3 31  1  0
  8 32  1  0
  8 33  1  0
  9 34  1  0
  9 35  1  0
 10 36  1  0
 11 37  1  0
 11 38  1  0
 12 39  1  1
 14 40  1  0
 15 41  1  0
 16 42  1  0
 19 43  1  0
 20 44  1  0
 21 45  1  0
 21 46  1  0
 22 47  1  0
 24 48  1  0
 25 49  1  0
 26 50  1  0
 27 51  1  0
M  ISO  8  29  14  30  14  31  14  32  13  33  13  34  13  35  13  36   5
M  ISO  8  37  13  38  13  39  13  40  14  41  14  42  14  43  13  44   5
M  ISO  6  45  13  46  13  48  14  49  14  50  14  51  14
M  END
>  <minimizedAffinity>  (1) 
-5.74959898

>  <minimizedRMSD>  (1) 
5.54606533

$$$$
