
     RDKit          3D

 47 51  0  0  1  0  0  0  0  0999 V2000
   39.1080   22.7820   37.5020 C   0  0  0  0  0  0  0  0  0  0  0  0
   38.5950   23.4390   38.6270 C   0  0  0  0  0  0  0  0  0  0  0  0
   38.0740   24.7010   38.4280 C   0  0  0  0  0  0  0  0  0  0  0  0
   38.0850   25.2310   37.1770 N   0  0  0  0  0  0  0  0  0  0  0  0
   38.5930   24.5650   36.1030 C   0  0  0  0  0  0  0  0  0  0  0  0
   39.1030   23.3340   36.2870 N   0  0  0  0  0  0  0  0  0  0  0  0
   38.5440   25.2290   34.8580 N   0  0  0  0  0  0  0  0  0  0  0  0
   37.3180   25.8940   34.4720 C   0  0  0  0  0  0  0  0  0  0  0  0
   37.4630   26.7340   33.2370 C   0  0  0  0  0  0  0  0  0  0  0  0
   38.8090   27.1830   33.1240 N   0  0  0  0  0  0  0  0  0  0  0  0
   39.6010   25.9960   32.7780 C   0  0  0  0  0  0  0  0  0  0  0  0
   39.7720   25.1800   34.0540 C   0  0  2  0  0  0  0  0  0  0  0  0
   40.1840   23.7810   33.7910 C   0  0  0  0  0  0  0  0  0  0  0  0
   41.4440   23.3620   34.1500 C   0  0  0  0  0  0  0  0  0  0  0  0
   41.9600   22.0990   33.9710 C   0  0  0  0  0  0  0  0  0  0  0  0
   41.1000   21.1950   33.3710 C   0  0  0  0  0  0  0  0  0  0  0  0
   39.8330   21.6180   33.0110 C   0  0  0  0  0  0  0  0  0  0  0  0
   39.3940   22.8670   33.2160 N   0  0  0  0  0  0  0  0  0  0  0  0
   38.9360   20.6510   32.3780 C   0  0  0  0  0  0  0  0  0  0  0  0
   39.2840   19.5160   31.6720 C   0  0  0  0  0  0  0  0  0  0  0  0
   38.1700   18.8830   31.2440 N   0  0  0  0  0  0  0  0  0  0  0  0
   37.0950   19.5690   31.6480 C   0  0  0  0  0  0  0  0  0  0  0  0
   35.7440   19.3450   31.4710 C   0  0  0  0  0  0  0  0  0  0  0  0
   34.8060   20.2290   32.0040 C   0  0  0  0  0  0  0  0  0  0  0  0
   35.2570   21.3430   32.7180 C   0  0  0  0  0  0  0  0  0  0  0  0
   36.6320   21.5390   32.8770 C   0  0  0  0  0  0  0  0  0  0  0  0
   37.5560   20.6810   32.3610 C   0  0  0  0  0  0  0  0  0  0  0  0
   39.5307   21.7738   37.6241 H   0  0  0  0  0  0  0  0  0  0  0  0
   38.6068   22.9711   39.6225 H   0  0  0  0  0  0  0  0  0  0  0  0
   37.6553   25.2704   39.2709 H   0  0  0  0  0  0  0  0  0  0  0  0
   36.5494   25.1293   34.2861 H   0  0  0  0  0  0  0  0  0  0  0  0
   37.0399   26.5690   35.2949 H   0  0  0  0  0  0  0  0  0  0  0  0
   37.2010   26.1343   32.3528 H   0  0  0  0  0  0  0  0  0  0  0  0
   36.7911   27.6024   33.3032 H   0  0  0  0  0  0  0  0  0  0  0  0
   38.8883   27.8949   32.3839 H   0  0  0  0  0  0  0  0  0  0  0  0
   39.0747   25.4004   32.0176 H   0  0  0  0  0  0  0  0  0  0  0  0
   40.5789   26.2858   32.3661 H   0  0  0  0  0  0  0  0  0  0  0  0
   40.5921   25.6392   34.6255 H   0  0  0  0  0  0  0  0  0  0  0  0
   42.1005   24.1062   34.6246 H   0  0  0  0  0  0  0  0  0  0  0  0
   42.9798   21.8278   34.2815 H   0  0  0  0  0  0  0  0  0  0  0  0
   41.4185   20.1589   33.1839 H   0  0  0  0  0  0  0  0  0  0  0  0
   40.3142   19.1781   31.4861 H   0  0  0  0  0  0  0  0  0  0  0  0
   38.1513   18.0119   30.6947 H   0  0  0  0  0  0  0  0  0  0  0  0
   35.4054   18.4639   30.9061 H   0  0  0  0  0  0  0  0  0  0  0  0
   33.7292   20.0525   31.8648 H   0  0  0  0  0  0  0  0  0  0  0  0
   34.5391   22.0562   33.1492 H   0  0  0  0  0  0  0  0  0  0  0  0
   36.9806   22.4179   33.4392 H   0  0  0  0  0  0  0  0  0  0  0  0
  1  2  2  0
  3  2  1  0
  4  3  2  0
  5  6  2  0
  5  4  1  0
  6  1  1  0
  7  5  1  0
  8  7  1  0
  9  8  1  0
 10  9  1  0
 11 10  1  0
 11 12  1  0
 12  7  1  0
 13 12  1  0
 13 14  2  0
 15 14  1  0
 16 15  2  0
 17 18  2  0
 17 16  1  0
 18 13  1  0
 19 17  1  0
 20 19  2  0
 21 22  1  0
 21 20  1  0
 22 27  2  0
 23 22  1  0
 23 24  2  0
 24 25  1  0
 25 26  2  0
 27 19  1  0
 27 26  1  0
  1 28  1  0
  2 29  1  0
  3 30  1  0
  8 31  1  0
  8 32  1  0
  9 33  1  0
  9 34  1  0
 10 35  1  0
 11 36  1  0
 11 37  1  0
 12 38  1  1
 14 39  1  0
 15 40  1  0
 16 41  1  0
 20 42  1  0
 21 43  1  0
 23 44  1  0
 24 45  1  0
 25 46  1  0
 26 47  1  0
M  ISO  8  28  14  29  14  30  14  31  13  32  13  33  13  34  13  35   5
M  ISO  8  36  13  37  13  38  13  39  14  40  14  41  14  42  14  43   9
M  ISO  4  44  14  45  14  46  14  47  14
M  END
>  <minimizedAffinity>  (1) 
-5.65866327

>  <minimizedRMSD>  (1) 
2.81667995

$$$$
