
     RDKit          3D

 42 45  0  0  0  0  0  0  0  0999 V2000
   37.7400   25.0320   34.6950 S   0  0  0  0  0  0  0  0  0  0  0  0
   38.7010   23.2580   38.2500 C   0  0  0  0  0  0  0  0  0  0  0  0
   38.0270   23.9360   37.2290 C   0  0  0  0  0  0  0  0  0  0  0  0
   38.5940   24.1700   35.9930 C   0  0  0  0  0  0  0  0  0  0  0  0
   39.8550   23.6980   35.8260 N   0  0  0  0  0  0  0  0  0  0  0  0
   40.5100   23.0540   36.7790 C   0  0  0  0  0  0  0  0  0  0  0  0
   39.9690   22.8180   37.9920 N   0  0  0  0  0  0  0  0  0  0  0  0
   41.8700   22.5660   36.5420 C   0  0  0  0  0  0  0  0  0  0  0  0
   43.0760   23.0540   36.1070 C   0  0  0  0  0  0  0  0  0  0  0  0
   43.9770   22.0090   36.1270 C   0  0  0  0  0  0  0  0  0  0  0  0
   43.2560   20.9200   36.5810 C   0  0  0  0  0  0  0  0  0  0  0  0
   42.0250   21.2720   36.8170 O   0  0  0  0  0  0  0  0  0  0  0  0
   43.8510   19.5590   36.7570 C   0  0  0  0  0  0  0  0  0  0  0  0
   42.9920   18.3770   36.9930 C   0  0  0  0  0  0  0  0  0  0  0  0
   43.5460   18.6120   35.5980 C   0  0  0  0  0  0  0  0  0  0  0  0
   38.0380   26.7750   34.6530 C   0  0  0  0  0  0  0  0  0  0  0  0
   38.9080   27.3160   35.7460 C   0  0  0  0  0  0  0  0  0  0  0  0
   36.7800   27.6170   34.6020 C   0  0  0  0  0  0  0  0  0  0  0  0
   38.7390   27.0820   33.3020 C   0  0  0  0  0  0  0  0  0  0  0  0
   37.7440   27.3680   32.2330 C   0  0  0  0  0  0  0  0  0  0  0  0
   37.0760   26.4120   31.5590 N   0  0  0  0  0  0  0  0  0  0  0  0
   36.2790   26.9790   30.6910 O   0  0  0  0  0  0  0  0  0  0  0  0
   36.3920   28.2770   30.7610 C   0  0  0  0  0  0  0  0  0  0  0  0
   37.3010   28.5280   31.7170 N   0  0  0  0  0  0  0  0  0  0  0  0
   38.2267   23.0848   39.2273 H   0  0  0  0  0  0  0  0  0  0  0  0
   37.0053   24.2967   37.4187 H   0  0  0  0  0  0  0  0  0  0  0  0
   43.2863   24.0888   35.7987 H   0  0  0  0  0  0  0  0  0  0  0  0
   45.0394   22.0364   35.8431 H   0  0  0  0  0  0  0  0  0  0  0  0
   44.7325   19.9397   37.2936 H   0  0  0  0  0  0  0  0  0  0  0  0
   43.3695   17.5388   37.5970 H   0  0  0  0  0  0  0  0  0  0  0  0
   41.9838   18.2273   37.4067 H   0  0  0  0  0  0  0  0  0  0  0  0
   42.8797   18.9295   34.7823 H   0  0  0  0  0  0  0  0  0  0  0  0
   44.1399   18.0310   34.8771 H   0  0  0  0  0  0  0  0  0  0  0  0
   38.4784   27.0488   36.7228 H   0  0  0  0  0  0  0  0  0  0  0  0
   39.9165   26.8855   35.6589 H   0  0  0  0  0  0  0  0  0  0  0  0
   38.9679   28.4109   35.6589 H   0  0  0  0  0  0  0  0  0  0  0  0
   36.4464   27.8403   35.6262 H   0  0  0  0  0  0  0  0  0  0  0  0
   36.9895   28.5575   34.0714 H   0  0  0  0  0  0  0  0  0  0  0  0
   35.9904   27.0647   34.0714 H   0  0  0  0  0  0  0  0  0  0  0  0
   39.3926   27.9578   33.4276 H   0  0  0  0  0  0  0  0  0  0  0  0
   39.3256   26.2001   33.0053 H   0  0  0  0  0  0  0  0  0  0  0  0
   35.8498   29.0190   30.1564 H   0  0  0  0  0  0  0  0  0  0  0  0
  1  4  1  0
  3  2  2  0
  4  3  1  0
  5  4  2  0
  5  6  1  0
  6  7  2  0
  7  2  1  0
  8  6  1  0
  8 12  1  0
  9 10  1  0
  9  8  2  0
 10 11  2  0
 11 13  1  0
 11 12  1  0
 13 14  1  0
 15 13  1  0
 15 14  1  0
 16  1  1  0
 16 17  1  0
 18 16  1  0
 19 16  1  0
 20 19  1  0
 21 20  2  0
 22 23  1  0
 22 21  1  0
 23 24  2  0
 24 20  1  0
  2 25  1  0
  3 26  1  0
  9 27  1  0
 10 28  1  0
 13 29  1  0
 14 30  1  0
 14 31  1  0
 15 32  1  0
 15 33  1  0
 17 34  1  0
 17 35  1  0
 17 36  1  0
 18 37  1  0
 18 38  1  0
 18 39  1  0
 19 40  1  0
 19 41  1  0
 23 42  1  0
M  ISO  8  25  14  26  14  27  14  28  14  29  13  30  13  31  13  32  13
M  ISO  8  33  13  34   8  35   8  36   8  37   8  38   8  39   8  40   8
M  ISO  2  41   8  42  14
M  END
>  <minimizedAffinity>  (1) 
-5.0230937

>  <minimizedRMSD>  (1) 
1.34679782

$$$$
