
     RDKit          3D

 43 46  0  0  1  0  0  0  0  0999 V2000
   39.7180   22.9540   37.9840 C   0  0  0  0  0  0  0  0  0  0  0  0
   38.4370   23.3250   38.4320 C   0  0  0  0  0  0  0  0  0  0  0  0
   37.6500   24.0740   37.5550 C   0  0  0  0  0  0  0  0  0  0  0  0
   38.1710   24.3910   36.3400 N   0  0  0  0  0  0  0  0  0  0  0  0
   39.4170   24.0150   35.9410 C   0  0  0  0  0  0  0  0  0  0  0  0
   40.1730   23.2930   36.7870 N   0  0  0  0  0  0  0  0  0  0  0  0
   39.8240   24.4170   34.6520 N   0  0  0  0  0  0  0  0  0  0  0  0
   38.9050   24.2680   33.5470 C   0  0  0  0  0  0  0  0  0  0  0  0
   39.3720   24.9270   32.2880 C   0  0  0  0  0  0  0  0  0  0  0  0
   40.2210   26.0350   32.6150 N   0  0  0  0  0  0  0  0  0  0  0  0
   41.4610   25.4380   33.1270 C   0  0  0  0  0  0  0  0  0  0  0  0
   41.1840   24.9620   34.5510 C   0  0  2  0  0  0  0  0  0  0  0  0
   42.1920   24.0020   35.0500 C   0  0  0  0  0  0  0  0  0  0  0  0
   43.1690   24.4220   35.9200 C   0  0  0  0  0  0  0  0  0  0  0  0
   44.1580   23.6280   36.4550 C   0  0  0  0  0  0  0  0  0  0  0  0
   44.1310   22.2910   36.0560 C   0  0  0  0  0  0  0  0  0  0  0  0
   43.1460   21.8860   35.1860 C   0  0  0  0  0  0  0  0  0  0  0  0
   42.2090   22.7100   34.7000 N   0  0  0  0  0  0  0  0  0  0  0  0
   43.0710   20.5030   34.7390 C   0  0  0  0  0  0  0  0  0  0  0  0
   42.5990   20.2010   33.4710 C   0  0  0  0  0  0  0  0  0  0  0  0
   42.5090   18.8930   32.9970 C   0  0  0  0  0  0  0  0  0  0  0  0
   42.8910   17.8530   33.7850 C   0  0  0  0  0  0  0  0  0  0  0  0
   43.3750   18.1120   35.0690 C   0  0  0  0  0  0  0  0  0  0  0  0
   43.4420   19.4110   35.4850 C   0  0  0  0  0  0  0  0  0  0  0  0
   40.3634   22.3626   38.6501 H   0  0  0  0  0  0  0  0  0  0  0  0
   38.0716   23.0377   39.4290 H   0  0  0  0  0  0  0  0  0  0  0  0
   36.6379   24.3981   37.8389 H   0  0  0  0  0  0  0  0  0  0  0  0
   38.7706   23.1944   33.3486 H   0  0  0  0  0  0  0  0  0  0  0  0
   37.9655   24.7597   33.8397 H   0  0  0  0  0  0  0  0  0  0  0  0
   38.5026   25.2869   31.7183 H   0  0  0  0  0  0  0  0  0  0  0  0
   39.9335   24.2016   31.6810 H   0  0  0  0  0  0  0  0  0  0  0  0
   40.4132   26.6015   31.7765 H   0  0  0  0  0  0  0  0  0  0  0  0
   41.7566   24.5864   32.4966 H   0  0  0  0  0  0  0  0  0  0  0  0
   42.2797   26.1726   33.1152 H   0  0  0  0  0  0  0  0  0  0  0  0
   41.2623   25.8427   35.2054 H   0  0  0  0  0  0  0  0  0  0  0  0
   43.1601   25.4820   36.2137 H   0  0  0  0  0  0  0  0  0  0  0  0
   44.9166   24.0199   37.1485 H   0  0  0  0  0  0  0  0  0  0  0  0
   44.8805   21.5774   36.4289 H   0  0  0  0  0  0  0  0  0  0  0  0
   42.2835   21.0248   32.8138 H   0  0  0  0  0  0  0  0  0  0  0  0
   42.1280   18.7019   31.9829 H   0  0  0  0  0  0  0  0  0  0  0  0
   42.8196   16.8194   33.4154 H   0  0  0  0  0  0  0  0  0  0  0  0
   43.6940   17.2911   35.7281 H   0  0  0  0  0  0  0  0  0  0  0  0
   43.8239   19.5979   36.4995 H   0  0  0  0  0  0  0  0  0  0  0  0
  1  2  2  0
  3  2  1  0
  4  3  2  0
  5  4  1  0
  5  6  2  0
  6  1  1  0
  7  5  1  0
  8  7  1  0
  9 10  1  0
  9  8  1  0
 10 11  1  0
 11 12  1  0
 12  7  1  0
 12 13  1  0
 13 14  2  0
 14 15  1  0
 16 15  2  0
 17 16  1  0
 18 13  1  0
 18 17  2  0
 19 17  1  0
 19 24  1  0
 20 19  2  0
 21 20  1  0
 21 22  2  0
 22 23  1  0
 23 24  2  0
  1 25  1  0
  2 26  1  0
  3 27  1  0
  8 28  1  0
  8 29  1  0
  9 30  1  0
  9 31  1  0
 10 32  1  0
 11 33  1  0
 11 34  1  0
 12 35  1  1
 14 36  1  0
 15 37  1  0
 16 38  1  0
 20 39  1  0
 21 40  1  0
 22 41  1  0
 23 42  1  0
 24 43  1  0
M  ISO  8  25  14  26  14  27  14  28  13  29  13  30  13  31  13  32   5
M  ISO  8  33  13  34  13  35  13  36  14  37  14  38  14  39  14  40  14
M  ISO  3  41  14  42  14  43  14
M  END
>  <minimizedAffinity>  (1) 
-4.55979395

>  <minimizedRMSD>  (1) 
1.68826103

$$$$
