
     RDKit          3D

 48 51  0  0  1  0  0  0  0  0999 V2000
   39.7270   22.9070   37.9700 C   0  0  0  0  0  0  0  0  0  0  0  0
   38.4570   23.3180   38.4210 C   0  0  0  0  0  0  0  0  0  0  0  0
   37.6950   24.0940   37.5580 C   0  0  0  0  0  0  0  0  0  0  0  0
   38.2200   24.4070   36.3410 N   0  0  0  0  0  0  0  0  0  0  0  0
   39.4530   23.9940   35.9360 C   0  0  0  0  0  0  0  0  0  0  0  0
   40.1890   23.2400   36.7760 N   0  0  0  0  0  0  0  0  0  0  0  0
   39.8660   24.3940   34.6470 N   0  0  0  0  0  0  0  0  0  0  0  0
   38.9310   24.2780   33.5490 C   0  0  0  0  0  0  0  0  0  0  0  0
   39.4190   24.9120   32.2860 C   0  0  0  0  0  0  0  0  0  0  0  0
   40.2920   25.9960   32.6080 N   0  0  0  0  0  0  0  0  0  0  0  0
   41.5230   25.3640   33.1160 C   0  0  0  0  0  0  0  0  0  0  0  0
   41.2400   24.9020   34.5430 C   0  0  2  0  0  0  0  0  0  0  0  0
   42.2130   23.8940   35.0190 C   0  0  0  0  0  0  0  0  0  0  0  0
   43.1720   24.2420   35.9390 C   0  0  0  0  0  0  0  0  0  0  0  0
   44.1360   23.4400   36.4800 C   0  0  0  0  0  0  0  0  0  0  0  0
   44.1180   22.1300   36.0320 C   0  0  0  0  0  0  0  0  0  0  0  0
   43.1460   21.7620   35.0970 C   0  0  0  0  0  0  0  0  0  0  0  0
   42.2390   22.6230   34.6210 N   0  0  0  0  0  0  0  0  0  0  0  0
   43.1080   20.4060   34.6170 N   0  0  0  0  0  0  0  0  0  0  0  0
   42.6420   20.0950   33.2890 C   0  0  0  0  0  0  0  0  0  0  0  0
   43.2440   18.9120   32.6360 C   0  0  0  0  0  0  0  0  0  0  0  0
   43.9880   17.9810   33.5550 C   0  0  0  0  0  0  0  0  0  0  0  0
   43.2010   18.0040   34.8720 C   0  0  0  0  0  0  0  0  0  0  0  0
   43.5530   19.3270   35.5060 C   0  0  0  0  0  0  0  0  0  0  0  0
   40.3536   22.2903   38.6311 H   0  0  0  0  0  0  0  0  0  0  0  0
   38.0843   23.0355   39.4166 H   0  0  0  0  0  0  0  0  0  0  0  0
   36.6945   24.4464   37.8493 H   0  0  0  0  0  0  0  0  0  0  0  0
   38.7499   23.2103   33.3562 H   0  0  0  0  0  0  0  0  0  0  0  0
   38.0136   24.8075   33.8455 H   0  0  0  0  0  0  0  0  0  0  0  0
   38.5617   25.2896   31.7094 H   0  0  0  0  0  0  0  0  0  0  0  0
   39.9625   24.1671   31.6861 H   0  0  0  0  0  0  0  0  0  0  0  0
   40.4945   26.5580   31.7689 H   0  0  0  0  0  0  0  0  0  0  0  0
   41.7907   24.5020   32.4873 H   0  0  0  0  0  0  0  0  0  0  0  0
   42.3626   26.0744   33.0958 H   0  0  0  0  0  0  0  0  0  0  0  0
   41.3520   25.7780   35.1988 H   0  0  0  0  0  0  0  0  0  0  0  0
   43.1623   25.2880   36.2794 H   0  0  0  0  0  0  0  0  0  0  0  0
   44.8691   23.8060   37.2139 H   0  0  0  0  0  0  0  0  0  0  0  0
   44.8501   21.3973   36.4024 H   0  0  0  0  0  0  0  0  0  0  0  0
   41.5563   19.9279   33.3469 H   0  0  0  0  0  0  0  0  0  0  0  0
   42.9412   20.9525   32.6684 H   0  0  0  0  0  0  0  0  0  0  0  0
   42.4361   18.3412   32.1548 H   0  0  0  0  0  0  0  0  0  0  0  0
   43.9899   19.3014   31.9275 H   0  0  0  0  0  0  0  0  0  0  0  0
   44.0117   16.9637   33.1373 H   0  0  0  0  0  0  0  0  0  0  0  0
   45.0343   18.2901   33.6952 H   0  0  0  0  0  0  0  0  0  0  0  0
   42.1199   17.9419   34.6789 H   0  0  0  0  0  0  0  0  0  0  0  0
   43.4513   17.1520   35.5211 H   0  0  0  0  0  0  0  0  0  0  0  0
   44.6417   19.3908   35.6499 H   0  0  0  0  0  0  0  0  0  0  0  0
   43.0580   19.4182   36.4841 H   0  0  0  0  0  0  0  0  0  0  0  0
  1  2  2  0
  3  2  1  0
  4  3  2  0
  5  4  1  0
  5  6  2  0
  6  1  1  0
  7  5  1  0
  8  7  1  0
  9 10  1  0
  9  8  1  0
 10 11  1  0
 11 12  1  0
 12  7  1  0
 12 13  1  0
 13 14  2  0
 14 15  1  0
 16 15  2  0
 17 16  1  0
 18 13  1  0
 18 17  2  0
 19 17  1  0
 19 24  1  0
 20 19  1  0
 21 20  1  0
 21 22  1  0
 22 23  1  0
 23 24  1  0
  1 25  1  0
  2 26  1  0
  3 27  1  0
  8 28  1  0
  8 29  1  0
  9 30  1  0
  9 31  1  0
 10 32  1  0
 11 33  1  0
 11 34  1  0
 12 35  1  1
 14 36  1  0
 15 37  1  0
 16 38  1  0
 20 39  1  0
 20 40  1  0
 21 41  1  0
 21 42  1  0
 22 43  1  0
 22 44  1  0
 23 45  1  0
 23 46  1  0
 24 47  1  0
 24 48  1  0
M  ISO  8  25  14  26  14  27  14  28  13  29  13  30  13  31  13  32   5
M  ISO  8  33  13  34  13  35  13  36  14  37  14  38  14  39  13  40  13
M  ISO  8  41  13  42  13  43  13  44  13  45  13  46  13  47  13  48  13
M  END
>  <minimizedAffinity>  (1) 
-4.6836381

>  <minimizedRMSD>  (1) 
1.62970793

$$$$
