
     RDKit          3D

 38 40  0  0  0  0  0  0  0  0999 V2000
   38.0680   26.8870   34.6170 C   0  0  0  0  0  0  0  0  0  0  0  0
   38.4040   27.5300   35.9250 C   0  0  0  0  0  0  0  0  0  0  0  0
   37.0240   27.7280   33.9270 C   0  0  0  0  0  0  0  0  0  0  0  0
   39.3180   27.0100   33.7030 C   0  0  0  0  0  0  0  0  0  0  0  0
   38.9460   26.8710   32.2630 C   0  0  0  0  0  0  0  0  0  0  0  0
   38.8410   25.6870   31.6230 N   0  0  0  0  0  0  0  0  0  0  0  0
   38.5020   25.9080   30.3850 O   0  0  0  0  0  0  0  0  0  0  0  0
   38.3770   27.1980   30.1720 C   0  0  0  0  0  0  0  0  0  0  0  0
   38.6520   27.8120   31.3390 N   0  0  0  0  0  0  0  0  0  0  0  0
   37.6600   25.1540   34.6990 S   0  0  0  0  0  0  0  0  0  0  0  0
   38.3690   23.4710   38.3430 C   0  0  0  0  0  0  0  0  0  0  0  0
   37.7810   24.1610   37.2690 C   0  0  0  0  0  0  0  0  0  0  0  0
   38.4040   24.2840   36.0460 C   0  0  0  0  0  0  0  0  0  0  0  0
   39.6240   23.6940   35.9480 N   0  0  0  0  0  0  0  0  0  0  0  0
   40.1980   23.0390   36.9460 C   0  0  0  0  0  0  0  0  0  0  0  0
   39.5950   22.9150   38.1420 N   0  0  0  0  0  0  0  0  0  0  0  0
   41.5110   22.4280   36.7730 C   0  0  0  0  0  0  0  0  0  0  0  0
   42.7750   22.8130   36.4060 C   0  0  0  0  0  0  0  0  0  0  0  0
   43.5870   21.6990   36.4510 C   0  0  0  0  0  0  0  0  0  0  0  0
   42.7460   20.6650   36.8550 C   0  0  0  0  0  0  0  0  0  0  0  0
   41.5260   21.1310   37.0360 O   0  0  0  0  0  0  0  0  0  0  0  0
   43.2240   19.2510   37.0370 C   0  0  0  0  0  0  0  0  0  0  0  0
   38.0663   26.8838   36.7487 H   0  0  0  0  0  0  0  0  0  0  0  0
   39.4924   27.6736   35.9941 H   0  0  0  0  0  0  0  0  0  0  0  0
   37.9004   28.5055   35.9941 H   0  0  0  0  0  0  0  0  0  0  0  0
   36.4005   28.2303   34.6813 H   0  0  0  0  0  0  0  0  0  0  0  0
   37.5183   28.4831   33.2981 H   0  0  0  0  0  0  0  0  0  0  0  0
   36.3915   27.0842   33.2981 H   0  0  0  0  0  0  0  0  0  0  0  0
   39.7831   27.9943   33.8607 H   0  0  0  0  0  0  0  0  0  0  0  0
   40.0212   26.2047   33.9619 H   0  0  0  0  0  0  0  0  0  0  0  0
   38.1011   27.6831   29.2241 H   0  0  0  0  0  0  0  0  0  0  0  0
   37.8563   23.3834   39.3122 H   0  0  0  0  0  0  0  0  0  0  0  0
   36.7904   24.6181   37.4094 H   0  0  0  0  0  0  0  0  0  0  0  0
   43.0862   23.8301   36.1254 H   0  0  0  0  0  0  0  0  0  0  0  0
   44.6607   21.6403   36.2192 H   0  0  0  0  0  0  0  0  0  0  0  0
   43.3004   19.0251   38.1108 H   0  0  0  0  0  0  0  0  0  0  0  0
   42.5098   18.5591   36.5666 H   0  0  0  0  0  0  0  0  0  0  0  0
   44.2115   19.1344   36.5666 H   0  0  0  0  0  0  0  0  0  0  0  0
  1 10  1  0
  1  2  1  0
  3  1  1  0
  4  1  1  0
  5  4  1  0
  6  5  2  0
  7  6  1  0
  8  7  1  0
  8  9  2  0
  9  5  1  0
 10 13  1  0
 12 11  2  0
 13 12  1  0
 14 13  2  0
 14 15  1  0
 15 16  2  0
 16 11  1  0
 17 15  1  0
 17 21  1  0
 18 19  1  0
 18 17  2  0
 19 20  2  0
 20 21  1  0
 20 22  1  0
  2 23  1  0
  2 24  1  0
  2 25  1  0
  3 26  1  0
  3 27  1  0
  3 28  1  0
  4 29  1  0
  4 30  1  0
  8 31  1  0
 11 32  1  0
 12 33  1  0
 18 34  1  0
 19 35  1  0
 22 36  1  0
 22 37  1  0
 22 38  1  0
M  ISO  8  23   8  24   8  25   8  26   8  27   8  28   8  29   8  30   8
M  ISO  8  31  14  32  14  33  14  34  14  35  14  36   8  37   8  38   8
M  END
>  <minimizedAffinity>  (1) 
-4.93896723

>  <minimizedRMSD>  (1) 
0.263917685

$$$$
