
     RDKit          3D

 40 43  0  0  1  0  0  0  0  0999 V2000
   39.6860   22.9510   38.0810 C   0  0  0  0  0  0  0  0  0  0  0  0
   38.4390   23.3510   38.5570 C   0  0  0  0  0  0  0  0  0  0  0  0
   37.6000   24.0230   37.6630 C   0  0  0  0  0  0  0  0  0  0  0  0
   38.0540   24.2360   36.3990 N   0  0  0  0  0  0  0  0  0  0  0  0
   39.2820   23.8290   35.9720 C   0  0  0  0  0  0  0  0  0  0  0  0
   40.0850   23.1830   36.8380 N   0  0  0  0  0  0  0  0  0  0  0  0
   39.6210   24.1200   34.6330 N   0  0  0  0  0  0  0  0  0  0  0  0
   38.6490   23.8640   33.5980 C   0  0  0  0  0  0  0  0  0  0  0  0
   39.0410   24.4160   32.2620 C   0  0  0  0  0  0  0  0  0  0  0  0
   39.8980   25.5340   32.4360 N   0  0  0  0  0  0  0  0  0  0  0  0
   41.1690   25.0050   32.9390 C   0  0  0  0  0  0  0  0  0  0  0  0
   40.9640   24.6680   34.4130 C   0  0  2  0  0  0  0  0  0  0  0  0
   42.0040   23.7520   34.9390 C   0  0  0  0  0  0  0  0  0  0  0  0
   42.9520   24.2170   35.8170 C   0  0  0  0  0  0  0  0  0  0  0  0
   43.9660   23.4780   36.3830 C   0  0  0  0  0  0  0  0  0  0  0  0
   44.0080   22.1410   36.0130 C   0  0  0  0  0  0  0  0  0  0  0  0
   43.0530   21.6830   35.1310 C   0  0  0  0  0  0  0  0  0  0  0  0
   42.0890   22.4570   34.6150 N   0  0  0  0  0  0  0  0  0  0  0  0
   43.0550   20.2740   34.7090 C   0  0  0  0  0  0  0  0  0  0  0  0
   43.4410   19.2030   35.5040 C   0  0  0  0  0  0  0  0  0  0  0  0
   43.3150   18.0390   34.7840 C   0  0  0  0  0  0  0  0  0  0  0  0
   42.8530   18.4520   33.5660 C   0  0  0  0  0  0  0  0  0  0  0  0
   42.7100   19.7530   33.5450 O   0  0  0  0  0  0  0  0  0  0  0  0
   40.3667   22.4215   38.7638 H   0  0  0  0  0  0  0  0  0  0  0  0
   38.1279   23.1467   39.5921 H   0  0  0  0  0  0  0  0  0  0  0  0
   36.6028   24.3689   37.9727 H   0  0  0  0  0  0  0  0  0  0  0  0
   38.5213   22.7757   33.5014 H   0  0  0  0  0  0  0  0  0  0  0  0
   37.7178   24.3679   33.8962 H   0  0  0  0  0  0  0  0  0  0  0  0
   38.1382   24.7293   31.7172 H   0  0  0  0  0  0  0  0  0  0  0  0
   39.5690   23.6395   31.6891 H   0  0  0  0  0  0  0  0  0  0  0  0
   40.0430   26.0153   31.5370 H   0  0  0  0  0  0  0  0  0  0  0  0
   41.4481   24.0994   32.3804 H   0  0  0  0  0  0  0  0  0  0  0  0
   41.9759   25.7422   32.8149 H   0  0  0  0  0  0  0  0  0  0  0  0
   41.0610   25.6082   34.9757 H   0  0  0  0  0  0  0  0  0  0  0  0
   42.8957   25.2801   36.0940 H   0  0  0  0  0  0  0  0  0  0  0  0
   44.6937   23.9173   37.0812 H   0  0  0  0  0  0  0  0  0  0  0  0
   44.7804   21.4670   36.4118 H   0  0  0  0  0  0  0  0  0  0  0  0
   43.7917   19.2747   36.5441 H   0  0  0  0  0  0  0  0  0  0  0  0
   43.5351   17.0125   35.1123 H   0  0  0  0  0  0  0  0  0  0  0  0
   42.6320   17.7839   32.7206 H   0  0  0  0  0  0  0  0  0  0  0  0
  1  2  2  0
  3  2  1  0
  4  3  2  0
  5  4  1  0
  5  6  2  0
  6  1  1  0
  7  5  1  0
  8  7  1  0
  9 10  1  0
  9  8  1  0
 10 11  1  0
 11 12  1  0
 12  7  1  0
 12 13  1  0
 13 14  2  0
 14 15  1  0
 16 15  2  0
 17 16  1  0
 18 13  1  0
 18 17  2  0
 19 17  1  0
 19 20  2  0
 21 20  1  0
 22 21  2  0
 23 22  1  0
 23 19  1  0
  1 24  1  0
  2 25  1  0
  3 26  1  0
  8 27  1  0
  8 28  1  0
  9 29  1  0
  9 30  1  0
 10 31  1  0
 11 32  1  0
 11 33  1  0
 12 34  1  1
 14 35  1  0
 15 36  1  0
 16 37  1  0
 20 38  1  0
 21 39  1  0
 22 40  1  0
M  ISO  8  24  14  25  14  26  14  27  13  28  13  29  13  30  13  31   5
M  ISO  8  32  13  33  13  34  13  35  14  36  14  37  14  38  14  39  14
M  ISO  1  40  14
M  END
>  <minimizedAffinity>  (1) 
-4.45777082

>  <minimizedRMSD>  (1) 
1.65507686

$$$$
