
     RDKit          3D

 38 41  0  0  1  0  0  0  0  0999 V2000
   39.6530   22.9210   38.0150 C   0  0  0  0  0  0  0  0  0  0  0  0
   38.4190   23.3620   38.4930 C   0  0  0  0  0  0  0  0  0  0  0  0
   37.6780   24.1650   37.6510 C   0  0  0  0  0  0  0  0  0  0  0  0
   38.1800   24.4780   36.4270 N   0  0  0  0  0  0  0  0  0  0  0  0
   39.3900   24.0280   35.9930 C   0  0  0  0  0  0  0  0  0  0  0  0
   40.1150   23.2450   36.8090 N   0  0  0  0  0  0  0  0  0  0  0  0
   39.7950   24.4240   34.7000 N   0  0  0  0  0  0  0  0  0  0  0  0
   38.8340   24.3420   33.6170 C   0  0  0  0  0  0  0  0  0  0  0  0
   39.3180   24.9750   32.3520 C   0  0  0  0  0  0  0  0  0  0  0  0
   40.2500   26.0190   32.6620 N   0  0  0  0  0  0  0  0  0  0  0  0
   41.4510   25.3590   33.1500 C   0  0  0  0  0  0  0  0  0  0  0  0
   41.1800   24.8930   34.5750 C   0  0  2  0  0  0  0  0  0  0  0  0
   42.1350   23.8580   35.0360 C   0  0  0  0  0  0  0  0  0  0  0  0
   43.1110   24.1860   35.9490 C   0  0  0  0  0  0  0  0  0  0  0  0
   44.0590   23.3310   36.4630 C   0  0  0  0  0  0  0  0  0  0  0  0
   43.9920   22.0110   35.9930 C   0  0  0  0  0  0  0  0  0  0  0  0
   43.0070   21.7010   35.0790 C   0  0  0  0  0  0  0  0  0  0  0  0
   42.1150   22.5880   34.6190 N   0  0  0  0  0  0  0  0  0  0  0  0
   43.0130   20.3060   34.6450 C   0  0  0  0  0  0  0  0  0  0  0  0
   43.2490   19.3870   35.5980 N   0  0  0  0  0  0  0  0  0  0  0  0
   43.2330   18.1840   35.1060 O   0  0  0  0  0  0  0  0  0  0  0  0
   42.9830   18.3030   33.8140 C   0  0  0  0  0  0  0  0  0  0  0  0
   42.8430   19.6170   33.5010 N   0  0  0  0  0  0  0  0  0  0  0  0
   40.2699   22.2791   38.6610 H   0  0  0  0  0  0  0  0  0  0  0  0
   38.0545   23.0830   39.4927 H   0  0  0  0  0  0  0  0  0  0  0  0
   36.6953   24.5465   37.9653 H   0  0  0  0  0  0  0  0  0  0  0  0
   38.6209   23.2813   33.4181 H   0  0  0  0  0  0  0  0  0  0  0  0
   37.9353   24.8911   33.9347 H   0  0  0  0  0  0  0  0  0  0  0  0
   38.4632   25.3983   31.8042 H   0  0  0  0  0  0  0  0  0  0  0  0
   39.8144   24.2153   31.7303 H   0  0  0  0  0  0  0  0  0  0  0  0
   40.4630   26.5697   31.8180 H   0  0  0  0  0  0  0  0  0  0  0  0
   41.6883   24.4946   32.5124 H   0  0  0  0  0  0  0  0  0  0  0  0
   42.3057   26.0512   33.1281 H   0  0  0  0  0  0  0  0  0  0  0  0
   41.3281   25.7621   35.2328 H   0  0  0  0  0  0  0  0  0  0  0  0
   43.1357   25.2280   36.3005 H   0  0  0  0  0  0  0  0  0  0  0  0
   44.8156   23.6594   37.1908 H   0  0  0  0  0  0  0  0  0  0  0  0
   44.7026   21.2475   36.3424 H   0  0  0  0  0  0  0  0  0  0  0  0
   42.9011   17.4679   33.1028 H   0  0  0  0  0  0  0  0  0  0  0  0
  1  2  2  0
  3  2  1  0
  4  3  2  0
  5  4  1  0
  5  6  2  0
  6  1  1  0
  7  5  1  0
  8  7  1  0
  9 10  1  0
  9  8  1  0
 10 11  1  0
 11 12  1  0
 12  7  1  0
 12 13  1  0
 13 14  2  0
 14 15  1  0
 16 15  2  0
 17 16  1  0
 18 13  1  0
 18 17  2  0
 19 17  1  0
 19 20  2  0
 21 20  1  0
 22 21  1  0
 23 22  2  0
 23 19  1  0
  1 24  1  0
  2 25  1  0
  3 26  1  0
  8 27  1  0
  8 28  1  0
  9 29  1  0
  9 30  1  0
 10 31  1  0
 11 32  1  0
 11 33  1  0
 12 34  1  1
 14 35  1  0
 15 36  1  0
 16 37  1  0
 22 38  1  0
M  ISO  8  24  14  25  14  26  14  27  13  28  13  29  13  30  13  31   5
M  ISO  7  32  13  33  13  34  13  35  14  36  14  37  14  38  14
M  END
>  <minimizedAffinity>  (1) 
-4.47463083

>  <minimizedRMSD>  (1) 
1.49222612

$$$$
