
     RDKit          3D

 41 44  0  0  1  0  0  0  0  0999 V2000
   39.6720   22.9480   38.0460 C   0  0  0  0  0  0  0  0  0  0  0  0
   38.4330   23.3890   38.5060 C   0  0  0  0  0  0  0  0  0  0  0  0
   37.6480   24.1350   37.6220 C   0  0  0  0  0  0  0  0  0  0  0  0
   38.1460   24.3770   36.3810 N   0  0  0  0  0  0  0  0  0  0  0  0
   39.3630   23.9290   35.9650 C   0  0  0  0  0  0  0  0  0  0  0  0
   40.1120   23.2140   36.8160 N   0  0  0  0  0  0  0  0  0  0  0  0
   39.7510   24.2560   34.6500 N   0  0  0  0  0  0  0  0  0  0  0  0
   38.7990   24.0850   33.5770 C   0  0  0  0  0  0  0  0  0  0  0  0
   39.2410   24.6840   32.2800 C   0  0  0  0  0  0  0  0  0  0  0  0
   40.1530   25.7520   32.5260 N   0  0  0  0  0  0  0  0  0  0  0  0
   41.3810   25.1410   33.0310 C   0  0  0  0  0  0  0  0  0  0  0  0
   41.1220   24.7500   34.4840 C   0  0  2  0  0  0  0  0  0  0  0  0
   42.1050   23.7670   34.9970 C   0  0  0  0  0  0  0  0  0  0  0  0
   43.0840   24.1700   35.8790 C   0  0  0  0  0  0  0  0  0  0  0  0
   44.0530   23.3650   36.4330 C   0  0  0  0  0  0  0  0  0  0  0  0
   44.0070   22.0190   36.0420 C   0  0  0  0  0  0  0  0  0  0  0  0
   43.0200   21.6330   35.1590 C   0  0  0  0  0  0  0  0  0  0  0  0
   42.1050   22.4720   34.6570 N   0  0  0  0  0  0  0  0  0  0  0  0
   42.9950   20.2300   34.7710 C   0  0  0  0  0  0  0  0  0  0  0  0
   43.3710   19.2190   35.6390 C   0  0  0  0  0  0  0  0  0  0  0  0
   43.3220   17.9120   35.2020 C   0  0  0  0  0  0  0  0  0  0  0  0
   42.9230   17.5530   33.9540 N   0  0  0  0  0  0  0  0  0  0  0  0
   42.5630   18.5590   33.1330 C   0  0  0  0  0  0  0  0  0  0  0  0
   42.6060   19.8410   33.5460 N   0  0  0  0  0  0  0  0  0  0  0  0
   40.3099   22.3594   38.7218 H   0  0  0  0  0  0  0  0  0  0  0  0
   38.0863   23.1593   39.5243 H   0  0  0  0  0  0  0  0  0  0  0  0
   36.6595   24.5137   37.9212 H   0  0  0  0  0  0  0  0  0  0  0  0
   38.6372   23.0077   33.4247 H   0  0  0  0  0  0  0  0  0  0  0  0
   37.8795   24.6093   33.8764 H   0  0  0  0  0  0  0  0  0  0  0  0
   38.3646   25.0698   31.7387 H   0  0  0  0  0  0  0  0  0  0  0  0
   39.7405   23.9124   31.6756 H   0  0  0  0  0  0  0  0  0  0  0  0
   40.3436   26.2652   31.6536 H   0  0  0  0  0  0  0  0  0  0  0  0
   41.6298   24.2483   32.4384 H   0  0  0  0  0  0  0  0  0  0  0  0
   42.2260   25.8415   32.9583 H   0  0  0  0  0  0  0  0  0  0  0  0
   41.2466   25.6615   35.0870 H   0  0  0  0  0  0  0  0  0  0  0  0
   43.0917   25.2318   36.1664 H   0  0  0  0  0  0  0  0  0  0  0  0
   44.8096   23.7499   37.1326 H   0  0  0  0  0  0  0  0  0  0  0  0
   44.7368   21.2922   36.4282 H   0  0  0  0  0  0  0  0  0  0  0  0
   43.7035   19.4545   36.6608 H   0  0  0  0  0  0  0  0  0  0  0  0
   43.6220   17.1177   35.9013 H   0  0  0  0  0  0  0  0  0  0  0  0
   42.2290   18.3303   32.1102 H   0  0  0  0  0  0  0  0  0  0  0  0
  1  2  2  0
  3  2  1  0
  4  3  2  0
  5  4  1  0
  5  6  2  0
  6  1  1  0
  7  5  1  0
  8  7  1  0
  9 10  1  0
  9  8  1  0
 10 11  1  0
 11 12  1  0
 12  7  1  0
 12 13  1  0
 13 14  2  0
 14 15  1  0
 16 15  2  0
 17 16  1  0
 18 13  1  0
 18 17  2  0
 19 17  1  0
 19 20  2  0
 21 20  1  0
 22 21  2  0
 23 24  2  0
 23 22  1  0
 24 19  1  0
  1 25  1  0
  2 26  1  0
  3 27  1  0
  8 28  1  0
  8 29  1  0
  9 30  1  0
  9 31  1  0
 10 32  1  0
 11 33  1  0
 11 34  1  0
 12 35  1  1
 14 36  1  0
 15 37  1  0
 16 38  1  0
 20 39  1  0
 21 40  1  0
 23 41  1  0
M  ISO  8  25  14  26  14  27  14  28  13  29  13  30  13  31  13  32   5
M  ISO  8  33  13  34  13  35  13  36  14  37  14  38  14  39  14  40  14
M  ISO  1  41  14
M  END
>  <minimizedAffinity>  (1) 
-4.52970266

>  <minimizedRMSD>  (1) 
1.75785673

$$$$
