
     RDKit          3D

 40 43  0  0  1  0  0  0  0  0999 V2000
   39.7090   22.9260   38.0010 C   0  0  0  0  0  0  0  0  0  0  0  0
   38.4600   23.3530   38.4750 C   0  0  0  0  0  0  0  0  0  0  0  0
   37.6990   24.1400   37.6300 C   0  0  0  0  0  0  0  0  0  0  0  0
   38.2030   24.4480   36.4080 N   0  0  0  0  0  0  0  0  0  0  0  0
   39.4190   24.0190   35.9750 C   0  0  0  0  0  0  0  0  0  0  0  0
   40.1620   23.2530   36.7940 N   0  0  0  0  0  0  0  0  0  0  0  0
   39.8190   24.4130   34.6800 N   0  0  0  0  0  0  0  0  0  0  0  0
   38.8700   24.3000   33.5990 C   0  0  0  0  0  0  0  0  0  0  0  0
   39.3250   24.9700   32.3360 C   0  0  0  0  0  0  0  0  0  0  0  0
   40.2350   26.0200   32.6410 N   0  0  0  0  0  0  0  0  0  0  0  0
   41.4580   25.3790   33.1200 C   0  0  0  0  0  0  0  0  0  0  0  0
   41.1920   24.9120   34.5480 C   0  0  2  0  0  0  0  0  0  0  0  0
   42.1710   23.9060   35.0220 C   0  0  0  0  0  0  0  0  0  0  0  0
   43.1420   24.2650   35.9260 C   0  0  0  0  0  0  0  0  0  0  0  0
   44.1060   23.4350   36.4500 C   0  0  0  0  0  0  0  0  0  0  0  0
   44.0610   22.1090   35.9960 C   0  0  0  0  0  0  0  0  0  0  0  0
   43.0820   21.7660   35.0910 C   0  0  0  0  0  0  0  0  0  0  0  0
   42.1740   22.6350   34.6240 N   0  0  0  0  0  0  0  0  0  0  0  0
   43.0340   20.3840   34.6180 C   0  0  0  0  0  0  0  0  0  0  0  0
   42.5790   19.9240   33.3980 C   0  0  0  0  0  0  0  0  0  0  0  0
   42.6870   18.5780   33.3110 N   0  0  0  0  0  0  0  0  0  0  0  0
   43.2140   18.1930   34.4880 C   0  0  0  0  0  0  0  0  0  0  0  0
   43.4240   19.2710   35.2730 N   0  0  0  0  0  0  0  0  0  0  0  0
   40.3364   22.2982   38.6507 H   0  0  0  0  0  0  0  0  0  0  0  0
   38.1009   23.0737   39.4765 H   0  0  0  0  0  0  0  0  0  0  0  0
   36.7097   24.5073   37.9406 H   0  0  0  0  0  0  0  0  0  0  0  0
   38.7064   23.2328   33.3884 H   0  0  0  0  0  0  0  0  0  0  0  0
   37.9478   24.8056   33.9215 H   0  0  0  0  0  0  0  0  0  0  0  0
   38.4529   25.3855   31.8099 H   0  0  0  0  0  0  0  0  0  0  0  0
   39.8295   24.2301   31.6972 H   0  0  0  0  0  0  0  0  0  0  0  0
   40.4317   26.5774   31.7975 H   0  0  0  0  0  0  0  0  0  0  0  0
   41.7073   24.5182   32.4821 H   0  0  0  0  0  0  0  0  0  0  0  0
   42.3047   26.0805   33.0895 H   0  0  0  0  0  0  0  0  0  0  0  0
   41.3165   25.7916   35.1968 H   0  0  0  0  0  0  0  0  0  0  0  0
   43.1490   25.3126   36.2615 H   0  0  0  0  0  0  0  0  0  0  0  0
   44.8574   23.7860   37.1726 H   0  0  0  0  0  0  0  0  0  0  0  0
   44.7874   21.3640   36.3529 H   0  0  0  0  0  0  0  0  0  0  0  0
   42.1805   20.5682   32.6004 H   0  0  0  0  0  0  0  0  0  0  0  0
   43.4401   17.1538   34.7688 H   0  0  0  0  0  0  0  0  0  0  0  0
   43.8201   19.2474   36.2235 H   0  0  0  0  0  0  0  0  0  0  0  0
  1  2  2  0
  3  2  1  0
  4  3  2  0
  5  4  1  0
  5  6  2  0
  6  1  1  0
  7  5  1  0
  8  7  1  0
  9 10  1  0
  9  8  1  0
 10 11  1  0
 11 12  1  0
 12  7  1  0
 12 13  1  0
 13 14  2  0
 14 15  1  0
 16 15  2  0
 17 16  1  0
 18 13  1  0
 18 17  2  0
 19 17  1  0
 19 23  1  0
 20 19  2  0
 21 20  1  0
 21 22  2  0
 22 23  1  0
  1 24  1  0
  2 25  1  0
  3 26  1  0
  8 27  1  0
  8 28  1  0
  9 29  1  0
  9 30  1  0
 10 31  1  0
 11 32  1  0
 11 33  1  0
 12 34  1  1
 14 35  1  0
 15 36  1  0
 16 37  1  0
 20 38  1  0
 22 39  1  0
 23 40  1  0
M  ISO  8  24  14  25  14  26  14  27  13  28  13  29  13  30  13  31   5
M  ISO  8  32  13  33  13  34  13  35  14  36  14  37  14  38  14  39  14
M  ISO  1  40   9
M  END
>  <minimizedAffinity>  (1) 
-4.45166731

>  <minimizedRMSD>  (1) 
1.52600574

$$$$
