
     RDKit          3D

 40 43  0  0  1  0  0  0  0  0999 V2000
   39.7240   22.9110   37.9910 C   0  0  0  0  0  0  0  0  0  0  0  0
   38.4720   23.3280   38.4680 C   0  0  0  0  0  0  0  0  0  0  0  0
   37.7070   24.1220   37.6250 C   0  0  0  0  0  0  0  0  0  0  0  0
   38.2150   24.4380   36.4090 N   0  0  0  0  0  0  0  0  0  0  0  0
   39.4320   24.0180   35.9730 C   0  0  0  0  0  0  0  0  0  0  0  0
   40.1770   23.2490   36.7860 N   0  0  0  0  0  0  0  0  0  0  0  0
   39.8260   24.4270   34.6810 N   0  0  0  0  0  0  0  0  0  0  0  0
   38.8790   24.3330   33.6010 C   0  0  0  0  0  0  0  0  0  0  0  0
   39.3290   25.0030   32.3410 C   0  0  0  0  0  0  0  0  0  0  0  0
   40.2410   26.0520   32.6570 N   0  0  0  0  0  0  0  0  0  0  0  0
   41.4710   25.3970   33.1270 C   0  0  0  0  0  0  0  0  0  0  0  0
   41.2020   24.9230   34.5510 C   0  0  2  0  0  0  0  0  0  0  0  0
   42.1790   23.9030   35.0080 C   0  0  0  0  0  0  0  0  0  0  0  0
   43.1180   24.2260   35.9580 C   0  0  0  0  0  0  0  0  0  0  0  0
   44.0760   23.3920   36.4760 C   0  0  0  0  0  0  0  0  0  0  0  0
   44.0690   22.0930   35.9660 C   0  0  0  0  0  0  0  0  0  0  0  0
   43.1180   21.7740   35.0070 C   0  0  0  0  0  0  0  0  0  0  0  0
   42.2100   22.6470   34.5490 N   0  0  0  0  0  0  0  0  0  0  0  0
   43.1800   20.3730   34.5190 C   0  0  0  0  0  0  0  0  0  0  0  0
   43.3450   19.2850   35.5420 C   0  0  0  0  0  0  0  0  0  0  0  0
   44.4090   19.5780   34.5060 C   0  0  0  0  0  0  0  0  0  0  0  0
   40.3542   22.2817   38.6366 H   0  0  0  0  0  0  0  0  0  0  0  0
   38.1125   23.0383   39.4664 H   0  0  0  0  0  0  0  0  0  0  0  0
   36.7159   24.4847   37.9353 H   0  0  0  0  0  0  0  0  0  0  0  0
   38.7050   23.2687   33.3844 H   0  0  0  0  0  0  0  0  0  0  0  0
   37.9663   24.8513   33.9302 H   0  0  0  0  0  0  0  0  0  0  0  0
   38.4569   25.4214   31.8172 H   0  0  0  0  0  0  0  0  0  0  0  0
   39.8286   24.2669   31.6940 H   0  0  0  0  0  0  0  0  0  0  0  0
   40.4361   26.6200   31.8202 H   0  0  0  0  0  0  0  0  0  0  0  0
   41.7135   24.5395   32.4820 H   0  0  0  0  0  0  0  0  0  0  0  0
   42.3238   26.0912   33.0968 H   0  0  0  0  0  0  0  0  0  0  0  0
   41.3273   25.7961   35.2083 H   0  0  0  0  0  0  0  0  0  0  0  0
   43.0995   25.2568   36.3415 H   0  0  0  0  0  0  0  0  0  0  0  0
   44.7972   23.7230   37.2378 H   0  0  0  0  0  0  0  0  0  0  0  0
   44.7958   21.3441   36.3139 H   0  0  0  0  0  0  0  0  0  0  0  0
   42.4613   20.6293   33.7267 H   0  0  0  0  0  0  0  0  0  0  0  0
   43.5146   19.5378   36.5990 H   0  0  0  0  0  0  0  0  0  0  0  0
   42.7693   18.4010   35.8535 H   0  0  0  0  0  0  0  0  0  0  0  0
   44.5912   18.8634   33.6898 H   0  0  0  0  0  0  0  0  0  0  0  0
   45.4831   19.8121   34.5440 H   0  0  0  0  0  0  0  0  0  0  0  0
  1  2  2  0
  3  2  1  0
  4  3  2  0
  5  4  1  0
  5  6  2  0
  6  1  1  0
  7  5  1  0
  8  7  1  0
  9 10  1  0
  9  8  1  0
 10 11  1  0
 11 12  1  0
 12  7  1  0
 12 13  1  0
 13 14  2  0
 14 15  1  0
 16 15  2  0
 17 16  1  0
 18 17  2  0
 18 13  1  0
 19 17  1  0
 19 20  1  0
 21 19  1  0
 21 20  1  0
  1 22  1  0
  2 23  1  0
  3 24  1  0
  8 25  1  0
  8 26  1  0
  9 27  1  0
  9 28  1  0
 10 29  1  0
 11 30  1  0
 11 31  1  0
 12 32  1  1
 14 33  1  0
 15 34  1  0
 16 35  1  0
 19 36  1  0
 20 37  1  0
 20 38  1  0
 21 39  1  0
 21 40  1  0
M  ISO  8  22  14  23  14  24  14  25  13  26  13  27  13  28  13  29   5
M  ISO  8  30  13  31  13  32  13  33  14  34  14  35  14  36  13  37  13
M  ISO  3  38  13  39  13  40  13
M  END
>  <minimizedAffinity>  (1) 
-4.2637496

>  <minimizedRMSD>  (1) 
1.50991344

$$$$
