
     RDKit          3D

 35 37  0  0  1  0  0  0  0  0999 V2000
   39.7160   22.8870   37.9560 C   0  0  0  0  0  0  0  0  0  0  0  0
   38.4730   23.3110   38.4580 C   0  0  0  0  0  0  0  0  0  0  0  0
   37.7040   24.1410   37.6420 C   0  0  0  0  0  0  0  0  0  0  0  0
   38.2040   24.4790   36.4300 N   0  0  0  0  0  0  0  0  0  0  0  0
   39.4130   24.0520   35.9700 C   0  0  0  0  0  0  0  0  0  0  0  0
   40.1520   23.2540   36.7580 N   0  0  0  0  0  0  0  0  0  0  0  0
   39.8020   24.4880   34.6860 N   0  0  0  0  0  0  0  0  0  0  0  0
   38.8440   24.4290   33.6090 C   0  0  0  0  0  0  0  0  0  0  0  0
   39.2970   25.1240   32.3620 C   0  0  0  0  0  0  0  0  0  0  0  0
   40.2240   26.1540   32.6980 N   0  0  0  0  0  0  0  0  0  0  0  0
   41.4440   25.4800   33.1430 C   0  0  0  0  0  0  0  0  0  0  0  0
   41.1810   24.9720   34.5590 C   0  0  2  0  0  0  0  0  0  0  0  0
   42.1480   23.9290   34.9810 C   0  0  0  0  0  0  0  0  0  0  0  0
   43.0850   24.2060   35.9480 C   0  0  0  0  0  0  0  0  0  0  0  0
   44.0330   23.3410   36.4350 C   0  0  0  0  0  0  0  0  0  0  0  0
   44.0160   22.0630   35.8700 C   0  0  0  0  0  0  0  0  0  0  0  0
   43.0740   21.7940   34.9010 C   0  0  0  0  0  0  0  0  0  0  0  0
   42.1760   22.6910   34.4740 N   0  0  0  0  0  0  0  0  0  0  0  0
   43.0550   20.4530   34.3080 C   0  0  0  0  0  0  0  0  0  0  0  0
   43.1050   19.4170   35.0210 O   0  0  0  0  0  0  0  0  0  0  0  0
   40.3459   22.2313   38.5752 H   0  0  0  0  0  0  0  0  0  0  0  0
   38.1214   23.0010   39.4531 H   0  0  0  0  0  0  0  0  0  0  0  0
   36.7218   24.5095   37.9730 H   0  0  0  0  0  0  0  0  0  0  0  0
   38.6560   23.3721   33.3689 H   0  0  0  0  0  0  0  0  0  0  0  0
   37.9382   24.9480   33.9555 H   0  0  0  0  0  0  0  0  0  0  0  0
   38.4278   25.5657   31.8528 H   0  0  0  0  0  0  0  0  0  0  0  0
   39.7844   24.3973   31.6954 H   0  0  0  0  0  0  0  0  0  0  0  0
   40.4205   26.7396   31.8738 H   0  0  0  0  0  0  0  0  0  0  0  0
   41.6747   24.6366   32.4756 H   0  0  0  0  0  0  0  0  0  0  0  0
   42.3019   26.1682   33.1254 H   0  0  0  0  0  0  0  0  0  0  0  0
   41.3225   25.8262   35.2374 H   0  0  0  0  0  0  0  0  0  0  0  0
   43.0740   25.2204   36.3732 H   0  0  0  0  0  0  0  0  0  0  0  0
   44.7536   23.6325   37.2133 H   0  0  0  0  0  0  0  0  0  0  0  0
   44.7342   21.2936   36.1897 H   0  0  0  0  0  0  0  0  0  0  0  0
   42.9957   20.3501   33.2144 H   0  0  0  0  0  0  0  0  0  0  0  0
  1  2  2  0
  3  2  1  0
  4  3  2  0
  5  4  1  0
  5  6  2  0
  6  1  1  0
  7  5  1  0
  8  7  1  0
  9 10  1  0
  9  8  1  0
 10 11  1  0
 11 12  1  0
 12  7  1  0
 12 13  1  0
 13 14  2  0
 14 15  1  0
 16 15  2  0
 17 16  1  0
 18 17  2  0
 18 13  1  0
 19 17  1  0
 19 20  2  0
  1 21  1  0
  2 22  1  0
  3 23  1  0
  8 24  1  0
  8 25  1  0
  9 26  1  0
  9 27  1  0
 10 28  1  0
 11 29  1  0
 11 30  1  0
 12 31  1  1
 14 32  1  0
 15 33  1  0
 16 34  1  0
 19 35  1  0
M  ISO  8  21  14  22  14  23  14  24  13  25  13  26  13  27  13  28   5
M  ISO  7  29  13  30  13  31  13  32  14  33  14  34  14  35   6
M  END
>  <minimizedAffinity>  (1) 
-4.19255066

>  <minimizedRMSD>  (1) 
1.16467917

$$$$
