
     RDKit          3D

 36 38  0  0  0  0  0  0  0  0999 V2000
   36.8020   24.3420   31.3840 C   0  0  0  0  0  0  0  0  0  0  0  0
   37.4680   24.7860   32.5220 C   0  0  0  0  0  0  0  0  0  0  0  0
   37.2240   26.0390   33.0780 C   0  0  0  0  0  0  0  0  0  0  0  0
   36.2980   26.8000   32.4480 N   0  0  0  0  0  0  0  0  0  0  0  0
   35.6590   26.3700   31.3540 C   0  0  0  0  0  0  0  0  0  0  0  0
   35.9020   25.1690   30.8310 N   0  0  0  0  0  0  0  0  0  0  0  0
   37.2570   22.9850   31.0130 C   0  0  0  0  0  0  0  0  0  0  0  0
   38.3930   22.7190   30.3450 N   0  0  0  0  0  0  0  0  0  0  0  0
   38.8040   21.5020   30.0100 C   0  0  0  0  0  0  0  0  0  0  0  0
   38.1070   20.4030   30.3140 N   0  0  0  0  0  0  0  0  0  0  0  0
   36.9660   20.5620   30.9760 C   0  0  0  0  0  0  0  0  0  0  0  0
   36.2390   19.4390   31.2950 C   0  0  0  0  0  0  0  0  0  0  0  0
   35.0470   19.5370   31.9810 C   0  0  0  0  0  0  0  0  0  0  0  0
   34.6050   20.8160   32.3390 C   0  0  0  0  0  0  0  0  0  0  0  0
   35.3760   21.8970   31.9910 C   0  0  0  0  0  0  0  0  0  0  0  0
   36.5650   21.8350   31.3110 C   0  0  0  0  0  0  0  0  0  0  0  0
   37.9140   26.5280   34.2640 C   0  0  0  0  0  0  0  0  0  0  0  0
   39.3430   26.8970   33.8490 C   0  0  0  0  0  0  0  0  0  0  0  0
   37.2080   27.7060   34.9190 C   0  0  0  0  0  0  0  0  0  0  0  0
   37.9570   25.4380   35.3150 C   0  0  0  0  0  0  0  0  0  0  0  0
   38.2099   24.1271   32.9969 H   0  0  0  0  0  0  0  0  0  0  0  0
   34.9152   27.0237   30.8749 H   0  0  0  0  0  0  0  0  0  0  0  0
   39.7521   21.3943   29.4627 H   0  0  0  0  0  0  0  0  0  0  0  0
   36.6139   18.4483   30.9986 H   0  0  0  0  0  0  0  0  0  0  0  0
   34.4633   18.6408   32.2382 H   0  0  0  0  0  0  0  0  0  0  0  0
   33.6609   20.9518   32.8870 H   0  0  0  0  0  0  0  0  0  0  0  0
   35.0106   22.8932   32.2810 H   0  0  0  0  0  0  0  0  0  0  0  0
   39.9566   27.0554   34.7481 H   0  0  0  0  0  0  0  0  0  0  0  0
   39.7734   26.0805   33.2506 H   0  0  0  0  0  0  0  0  0  0  0  0
   39.3243   27.8198   33.2506 H   0  0  0  0  0  0  0  0  0  0  0  0
   37.2674   27.6069   36.0129 H   0  0  0  0  0  0  0  0  0  0  0  0
   37.6935   28.6431   34.6088 H   0  0  0  0  0  0  0  0  0  0  0  0
   36.1527   27.7196   34.6088 H   0  0  0  0  0  0  0  0  0  0  0  0
   37.9390   25.8932   36.3163 H   0  0  0  0  0  0  0  0  0  0  0  0
   37.0841   24.7792   35.1960 H   0  0  0  0  0  0  0  0  0  0  0  0
   38.8790   24.8501   35.1960 H   0  0  0  0  0  0  0  0  0  0  0  0
  1  2  2  0
  2  3  1  0
  3 17  1  0
  4  3  2  0
  5  4  1  0
  6  5  2  0
  6  1  1  0
  7 16  1  0
  7  1  1  0
  8  7  2  0
  9 10  2  0
  9  8  1  0
 10 11  1  0
 11 12  1  0
 11 16  2  0
 12 13  2  0
 13 14  1  0
 15 14  2  0
 16 15  1  0
 17 19  1  0
 17 20  1  0
 18 17  1  0
  2 21  1  0
  5 22  1  0
  9 23  1  0
 12 24  1  0
 13 25  1  0
 14 26  1  0
 15 27  1  0
 18 28  1  0
 18 29  1  0
 18 30  1  0
 19 31  1  0
 19 32  1  0
 19 33  1  0
 20 34  1  0
 20 35  1  0
 20 36  1  0
M  ISO  8  21  14  22  14  23  14  24  14  25  14  26  14  27  14  28   8
M  ISO  8  29   8  30   8  31   8  32   8  33   8  34   8  35   8  36   8
M  END
>  <minimizedAffinity>  (1) 
-5.18184566

>  <minimizedRMSD>  (1) 
8.77466106

$$$$
