
     RDKit          3D

 42 44  0  0  1  0  0  0  0  0999 V2000
   39.7390   22.8880   37.8690 C   0  0  0  0  0  0  0  0  0  0  0  0
   38.4740   23.2380   38.3350 C   0  0  0  0  0  0  0  0  0  0  0  0
   37.7040   24.0840   37.5310 C   0  0  0  0  0  0  0  0  0  0  0  0
   38.2410   24.5030   36.3600 N   0  0  0  0  0  0  0  0  0  0  0  0
   39.4800   24.1450   35.9310 C   0  0  0  0  0  0  0  0  0  0  0  0
   40.2140   23.3350   36.7040 N   0  0  0  0  0  0  0  0  0  0  0  0
   39.9080   24.6600   34.6890 N   0  0  0  0  0  0  0  0  0  0  0  0
   38.9870   24.6290   33.5690 C   0  0  0  0  0  0  0  0  0  0  0  0
   39.4770   25.3840   32.3760 C   0  0  0  0  0  0  0  0  0  0  0  0
   40.3520   26.4320   32.7980 N   0  0  0  0  0  0  0  0  0  0  0  0
   41.5710   25.7800   33.2710 C   0  0  0  0  0  0  0  0  0  0  0  0
   41.2740   25.1900   34.6460 C   0  0  2  0  0  0  0  0  0  0  0  0
   42.2600   24.1600   35.0560 C   0  0  0  0  0  0  0  0  0  0  0  0
   43.1540   24.4280   36.0640 C   0  0  0  0  0  0  0  0  0  0  0  0
   44.1160   23.5760   36.5490 C   0  0  0  0  0  0  0  0  0  0  0  0
   44.1590   22.3180   35.9290 C   0  0  0  0  0  0  0  0  0  0  0  0
   43.2530   22.0630   34.9160 C   0  0  0  0  0  0  0  0  0  0  0  0
   42.3400   22.9480   34.4950 N   0  0  0  0  0  0  0  0  0  0  0  0
   43.2900   20.7270   34.2490 C   0  0  0  0  0  0  0  0  0  0  0  0
   42.1040   20.4910   33.3660 C   0  0  0  0  0  0  0  0  0  0  0  0
   43.2530   19.6750   35.3530 C   0  0  0  0  0  0  0  0  0  0  0  0
   40.3664   22.2224   38.4800 H   0  0  0  0  0  0  0  0  0  0  0  0
   38.0956   22.8636   39.2976 H   0  0  0  0  0  0  0  0  0  0  0  0
   36.6960   24.3988   37.8390 H   0  0  0  0  0  0  0  0  0  0  0  0
   38.8285   23.5804   33.2769 H   0  0  0  0  0  0  0  0  0  0  0  0
   38.0568   25.1138   33.9003 H   0  0  0  0  0  0  0  0  0  0  0  0
   38.6199   25.8166   31.8392 H   0  0  0  0  0  0  0  0  0  0  0  0
   40.0218   24.6996   31.7091 H   0  0  0  0  0  0  0  0  0  0  0  0
   40.5654   27.0584   32.0087 H   0  0  0  0  0  0  0  0  0  0  0  0
   41.8631   24.9801   32.5746 H   0  0  0  0  0  0  0  0  0  0  0  0
   42.3978   26.5031   33.3310 H   0  0  0  0  0  0  0  0  0  0  0  0
   41.3629   26.0088   35.3751 H   0  0  0  0  0  0  0  0  0  0  0  0
   43.0935   25.4232   36.5286 H   0  0  0  0  0  0  0  0  0  0  0  0
   44.8010   23.8585   37.3620 H   0  0  0  0  0  0  0  0  0  0  0  0
   44.8911   21.5579   36.2393 H   0  0  0  0  0  0  0  0  0  0  0  0
   44.1943   20.6763   33.6248 H   0  0  0  0  0  0  0  0  0  0  0  0
   41.2137   20.3138   33.9873 H   0  0  0  0  0  0  0  0  0  0  0  0
   41.9382   21.3738   32.7310 H   0  0  0  0  0  0  0  0  0  0  0  0
   42.2888   19.6120   32.7310 H   0  0  0  0  0  0  0  0  0  0  0  0
   43.2705   20.1722   36.3340 H   0  0  0  0  0  0  0  0  0  0  0  0
   42.3333   19.0786   35.2605 H   0  0  0  0  0  0  0  0  0  0  0  0
   44.1285   19.0155   35.2605 H   0  0  0  0  0  0  0  0  0  0  0  0
  1  2  2  0
  3  2  1  0
  4  3  2  0
  5  4  1  0
  5  6  2  0
  6  1  1  0
  7  5  1  0
  8  7  1  0
  9 10  1  0
  9  8  1  0
 10 11  1  0
 11 12  1  0
 12  7  1  0
 12 13  1  0
 13 14  2  0
 14 15  1  0
 16 15  2  0
 17 16  1  0
 18 17  2  0
 18 13  1  0
 19 17  1  0
 19 21  1  0
 20 19  1  0
  1 22  1  0
  2 23  1  0
  3 24  1  0
  8 25  1  0
  8 26  1  0
  9 27  1  0
  9 28  1  0
 10 29  1  0
 11 30  1  0
 11 31  1  0
 12 32  1  1
 14 33  1  0
 15 34  1  0
 16 35  1  0
 19 36  1  0
 20 37  1  0
 20 38  1  0
 20 39  1  0
 21 40  1  0
 21 41  1  0
 21 42  1  0
M  ISO  8  22  14  23  14  24  14  25  13  26  13  27  13  28  13  29   5
M  ISO  8  30  13  31  13  32  13  33  14  34  14  35  14  36   8  37   8
M  ISO  5  38   8  39   8  40   8  41   8  42   8
M  END
>  <minimizedAffinity>  (1) 
-4.26425695

>  <minimizedRMSD>  (1) 
1.17602599

$$$$
