
     RDKit          3D

 36 38  0  0  1  0  0  0  0  0999 V2000
   39.8080   22.9330   37.7360 C   0  0  0  0  0  0  0  0  0  0  0  0
   38.6830   23.1700   38.5260 C   0  0  0  0  0  0  0  0  0  0  0  0
   37.7290   24.0610   38.0340 C   0  0  0  0  0  0  0  0  0  0  0  0
   37.9580   24.6330   36.8260 N   0  0  0  0  0  0  0  0  0  0  0  0
   39.0680   24.3810   36.0780 C   0  0  0  0  0  0  0  0  0  0  0  0
   39.9860   23.5240   36.5550 N   0  0  0  0  0  0  0  0  0  0  0  0
   39.1680   25.0530   34.8400 N   0  0  0  0  0  0  0  0  0  0  0  0
   38.0180   25.0960   33.9710 C   0  0  0  0  0  0  0  0  0  0  0  0
   38.1830   26.0280   32.8060 C   0  0  0  0  0  0  0  0  0  0  0  0
   39.1080   27.0520   33.1370 N   0  0  0  0  0  0  0  0  0  0  0  0
   40.4220   26.4160   33.2170 C   0  0  0  0  0  0  0  0  0  0  0  0
   40.4710   25.6600   34.5420 C   0  0  2  0  0  0  0  0  0  0  0  0
   41.5520   24.6450   34.5820 C   0  0  0  0  0  0  0  0  0  0  0  0
   42.6410   24.8230   35.3990 C   0  0  0  0  0  0  0  0  0  0  0  0
   43.7070   23.9750   35.5420 C   0  0  0  0  0  0  0  0  0  0  0  0
   43.6460   22.8150   34.7570 C   0  0  0  0  0  0  0  0  0  0  0  0
   42.5480   22.6420   33.9380 C   0  0  0  0  0  0  0  0  0  0  0  0
   41.5410   23.5220   33.8540 N   0  0  0  0  0  0  0  0  0  0  0  0
   42.5360   21.3860   33.1220 C   0  0  0  0  0  0  0  0  0  0  0  0
   40.5750   22.2339   38.1007 H   0  0  0  0  0  0  0  0  0  0  0  0
   38.5532   22.6736   39.4990 H   0  0  0  0  0  0  0  0  0  0  0  0
   36.8195   24.2923   38.6079 H   0  0  0  0  0  0  0  0  0  0  0  0
   37.8363   24.0827   33.5834 H   0  0  0  0  0  0  0  0  0  0  0  0
   37.1743   25.4712   34.5688 H   0  0  0  0  0  0  0  0  0  0  0  0
   37.2109   26.4798   32.5592 H   0  0  0  0  0  0  0  0  0  0  0  0
   38.5600   25.4639   31.9401 H   0  0  0  0  0  0  0  0  0  0  0  0
   39.1089   27.7797   32.4080 H   0  0  0  0  0  0  0  0  0  0  0  0
   40.5553   25.7172   32.3780 H   0  0  0  0  0  0  0  0  0  0  0  0
   41.2253   27.1655   33.1624 H   0  0  0  0  0  0  0  0  0  0  0  0
   40.7049   26.3978   35.3236 H   0  0  0  0  0  0  0  0  0  0  0  0
   42.6592   25.7429   36.0018 H   0  0  0  0  0  0  0  0  0  0  0  0
   44.5463   24.1877   36.2205 H   0  0  0  0  0  0  0  0  0  0  0  0
   44.4495   22.0646   34.7926 H   0  0  0  0  0  0  0  0  0  0  0  0
   42.5277   20.5136   33.7919 H   0  0  0  0  0  0  0  0  0  0  0  0
   41.6377   21.3696   32.4874 H   0  0  0  0  0  0  0  0  0  0  0  0
   43.4339   21.3524   32.4874 H   0  0  0  0  0  0  0  0  0  0  0  0
  1  2  2  0
  3  2  1  0
  4  3  2  0
  5  6  2  0
  5  4  1  0
  6  1  1  0
  7  5  1  0
  8  7  1  0
  9 10  1  0
  9  8  1  0
 10 11  1  0
 11 12  1  0
 12 13  1  0
 12  7  1  0
 13 14  2  0
 14 15  1  0
 16 15  2  0
 17 16  1  0
 18 17  2  0
 18 13  1  0
 19 17  1  0
  1 20  1  0
  2 21  1  0
  3 22  1  0
  8 23  1  0
  8 24  1  0
  9 25  1  0
  9 26  1  0
 10 27  1  0
 11 28  1  0
 11 29  1  0
 12 30  1  1
 14 31  1  0
 15 32  1  0
 16 33  1  0
 19 34  1  0
 19 35  1  0
 19 36  1  0
M  ISO  8  20  14  21  14  22  14  23  13  24  13  25  13  26  13  27   5
M  ISO  8  28  13  29  13  30  13  31  14  32  14  33  14  34   8  35   8
M  ISO  1  36   8
M  END
>  <minimizedAffinity>  (1) 
-4.15467548

>  <minimizedRMSD>  (1) 
0.0729530752

$$$$
