
     RDKit          3D

 40 43  0  0  1  0  0  0  0  0999 V2000
   39.7070   22.9480   38.0010 C   0  0  0  0  0  0  0  0  0  0  0  0
   38.4500   23.3560   38.4700 C   0  0  0  0  0  0  0  0  0  0  0  0
   37.6720   24.1400   37.6120 C   0  0  0  0  0  0  0  0  0  0  0  0
   38.1830   24.4490   36.3940 N   0  0  0  0  0  0  0  0  0  0  0  0
   39.4080   24.0370   35.9690 C   0  0  0  0  0  0  0  0  0  0  0  0
   40.1520   23.2830   36.7960 N   0  0  0  0  0  0  0  0  0  0  0  0
   39.8080   24.4350   34.6760 N   0  0  0  0  0  0  0  0  0  0  0  0
   38.8660   24.3150   33.5910 C   0  0  0  0  0  0  0  0  0  0  0  0
   39.3310   24.9620   32.3190 C   0  0  0  0  0  0  0  0  0  0  0  0
   40.2220   26.0290   32.6280 N   0  0  0  0  0  0  0  0  0  0  0  0
   41.4500   25.4060   33.1260 C   0  0  0  0  0  0  0  0  0  0  0  0
   41.1800   24.9440   34.5550 C   0  0  2  0  0  0  0  0  0  0  0  0
   42.1640   23.9400   35.0280 C   0  0  0  0  0  0  0  0  0  0  0  0
   43.1450   24.3050   35.9160 C   0  0  0  0  0  0  0  0  0  0  0  0
   44.1140   23.4800   36.4350 C   0  0  0  0  0  0  0  0  0  0  0  0
   44.0770   22.1640   36.0100 C   0  0  0  0  0  0  0  0  0  0  0  0
   43.0880   21.8120   35.1210 C   0  0  0  0  0  0  0  0  0  0  0  0
   42.1680   22.6630   34.6470 N   0  0  0  0  0  0  0  0  0  0  0  0
   43.0550   20.4280   34.6780 C   0  0  0  0  0  0  0  0  0  0  0  0
   43.4290   19.2830   35.2630 C   0  0  0  0  0  0  0  0  0  0  0  0
   43.2760   18.0970   34.5900 C   0  0  0  0  0  0  0  0  0  0  0  0
   42.7370   18.1310   33.3220 C   0  0  0  0  0  0  0  0  0  0  0  0
   42.3970   19.9240   32.9870 S   0  0  0  0  0  0  0  0  0  0  0  0
   40.3441   22.3312   38.6519 H   0  0  0  0  0  0  0  0  0  0  0  0
   38.0911   23.0715   39.4702 H   0  0  0  0  0  0  0  0  0  0  0  0
   36.6762   24.4952   37.9156 H   0  0  0  0  0  0  0  0  0  0  0  0
   38.6948   23.2462   33.3954 H   0  0  0  0  0  0  0  0  0  0  0  0
   37.9477   24.8351   33.9012 H   0  0  0  0  0  0  0  0  0  0  0  0
   38.4634   25.3561   31.7695 H   0  0  0  0  0  0  0  0  0  0  0  0
   39.8510   24.2180   31.6977 H   0  0  0  0  0  0  0  0  0  0  0  0
   40.4206   26.5841   31.7834 H   0  0  0  0  0  0  0  0  0  0  0  0
   41.7166   24.5444   32.4963 H   0  0  0  0  0  0  0  0  0  0  0  0
   42.2861   26.1203   33.1001 H   0  0  0  0  0  0  0  0  0  0  0  0
   41.2946   25.8224   35.2072 H   0  0  0  0  0  0  0  0  0  0  0  0
   43.1567   25.3553   36.2426 H   0  0  0  0  0  0  0  0  0  0  0  0
   44.8720   23.8436   37.1444 H   0  0  0  0  0  0  0  0  0  0  0  0
   44.8105   21.4272   36.3693 H   0  0  0  0  0  0  0  0  0  0  0  0
   43.8562   19.2931   36.2766 H   0  0  0  0  0  0  0  0  0  0  0  0
   43.5757   17.1440   35.0505 H   0  0  0  0  0  0  0  0  0  0  0  0
   42.5489   17.2786   32.6526 H   0  0  0  0  0  0  0  0  0  0  0  0
  1  2  2  0
  3  2  1  0
  4  3  2  0
  5  4  1  0
  5  6  2  0
  6  1  1  0
  7  5  1  0
  8  7  1  0
  9 10  1  0
  9  8  1  0
 10 11  1  0
 11 12  1  0
 12  7  1  0
 12 13  1  0
 13 14  2  0
 14 15  1  0
 16 15  2  0
 17 16  1  0
 18 13  1  0
 18 17  2  0
 19 17  1  0
 19 20  2  0
 21 20  1  0
 22 21  2  0
 23 22  1  0
 23 19  1  0
  1 24  1  0
  2 25  1  0
  3 26  1  0
  8 27  1  0
  8 28  1  0
  9 29  1  0
  9 30  1  0
 10 31  1  0
 11 32  1  0
 11 33  1  0
 12 34  1  1
 14 35  1  0
 15 36  1  0
 16 37  1  0
 20 38  1  0
 21 39  1  0
 22 40  1  0
M  ISO  8  24  14  25  14  26  14  27  13  28  13  29  13  30  13  31   5
M  ISO  8  32  13  33  13  34  13  35  14  36  14  37  14  38  14  39  14
M  ISO  1  40  14
M  END
>  <minimizedAffinity>  (1) 
-4.43637896

>  <minimizedRMSD>  (1) 
1.53132343

$$$$
