
     RDKit          3D

 36 38  0  0  1  0  0  0  0  0999 V2000
   39.7170   22.9140   37.9960 C   0  0  0  0  0  0  0  0  0  0  0  0
   38.4750   23.3350   38.4760 C   0  0  0  0  0  0  0  0  0  0  0  0
   37.7050   24.1350   37.6350 C   0  0  0  0  0  0  0  0  0  0  0  0
   38.2100   24.4500   36.4140 N   0  0  0  0  0  0  0  0  0  0  0  0
   39.4280   24.0210   35.9790 C   0  0  0  0  0  0  0  0  0  0  0  0
   40.1670   23.2520   36.7880 N   0  0  0  0  0  0  0  0  0  0  0  0
   39.8230   24.4280   34.6870 N   0  0  0  0  0  0  0  0  0  0  0  0
   38.8740   24.3310   33.6030 C   0  0  0  0  0  0  0  0  0  0  0  0
   39.3360   24.9970   32.3420 C   0  0  0  0  0  0  0  0  0  0  0  0
   40.2460   26.0410   32.6530 N   0  0  0  0  0  0  0  0  0  0  0  0
   41.4670   25.4010   33.1370 C   0  0  0  0  0  0  0  0  0  0  0  0
   41.1990   24.9250   34.5620 C   0  0  2  0  0  0  0  0  0  0  0  0
   42.1740   23.9060   35.0190 C   0  0  0  0  0  0  0  0  0  0  0  0
   43.1330   24.2350   35.9460 C   0  0  0  0  0  0  0  0  0  0  0  0
   44.0910   23.3870   36.4540 C   0  0  0  0  0  0  0  0  0  0  0  0
   44.0540   22.0780   35.9620 C   0  0  0  0  0  0  0  0  0  0  0  0
   43.0870   21.7610   35.0340 C   0  0  0  0  0  0  0  0  0  0  0  0
   42.1850   22.6410   34.5810 N   0  0  0  0  0  0  0  0  0  0  0  0
   43.0550   20.3930   34.5240 C   0  0  0  0  0  0  0  0  0  0  0  0
   43.7390   19.4750   35.0460 O   0  0  0  0  0  0  0  0  0  0  0  0
   42.2770   20.0180   33.4390 O   0  0  0  0  0  0  0  0  0  0  0  0
   40.3466   22.2806   38.6382 H   0  0  0  0  0  0  0  0  0  0  0  0
   38.1197   23.0469   39.4764 H   0  0  0  0  0  0  0  0  0  0  0  0
   36.7168   24.5010   37.9504 H   0  0  0  0  0  0  0  0  0  0  0  0
   38.6968   23.2665   33.3897 H   0  0  0  0  0  0  0  0  0  0  0  0
   37.9595   24.8498   33.9264 H   0  0  0  0  0  0  0  0  0  0  0  0
   38.4681   25.4156   31.8114 H   0  0  0  0  0  0  0  0  0  0  0  0
   39.8394   24.2556   31.7041 H   0  0  0  0  0  0  0  0  0  0  0  0
   40.4472   26.5994   31.8112 H   0  0  0  0  0  0  0  0  0  0  0  0
   41.7218   24.5441   32.4961 H   0  0  0  0  0  0  0  0  0  0  0  0
   42.3102   26.1071   33.1156 H   0  0  0  0  0  0  0  0  0  0  0  0
   41.3257   25.7963   35.2214 H   0  0  0  0  0  0  0  0  0  0  0  0
   43.1356   25.2708   36.3162 H   0  0  0  0  0  0  0  0  0  0  0  0
   44.8341   23.7159   37.1954 H   0  0  0  0  0  0  0  0  0  0  0  0
   44.7765   21.3235   36.3065 H   0  0  0  0  0  0  0  0  0  0  0  0
   42.2847   19.0790   33.1254 H   0  0  0  0  0  0  0  0  0  0  0  0
  1  2  2  0
  3  2  1  0
  4  3  2  0
  5  4  1  0
  5  6  2  0
  6  1  1  0
  7  5  1  0
  8  7  1  0
  9 10  1  0
  9  8  1  0
 10 11  1  0
 11 12  1  0
 12  7  1  0
 12 13  1  0
 13 14  2  0
 14 15  1  0
 16 15  2  0
 17 16  1  0
 18 13  1  0
 18 17  2  0
 19 17  1  0
 19 20  2  0
 21 19  1  0
  1 22  1  0
  2 23  1  0
  3 24  1  0
  8 25  1  0
  8 26  1  0
  9 27  1  0
  9 28  1  0
 10 29  1  0
 11 30  1  0
 11 31  1  0
 12 32  1  1
 14 33  1  0
 15 34  1  0
 16 35  1  0
 21 36  1  0
M  ISO  8  22  14  23  14  24  14  25  13  26  13  27  13  28  13  29   5
M  ISO  7  30  13  31  13  32  13  33  14  34  14  35  14  36   3
M  END
>  <minimizedAffinity>  (1) 
-4.25789452

>  <minimizedRMSD>  (1) 
1.31134629

$$$$
