
     RDKit          3D

 36 38  0  0  0  0  0  0  0  0999 V2000
   37.2120   24.1420   32.2150 C   0  0  0  0  0  0  0  0  0  0  0  0
   37.9420   24.4490   33.3620 C   0  0  0  0  0  0  0  0  0  0  0  0
   37.8140   25.7390   33.9100 C   0  0  0  0  0  0  0  0  0  0  0  0
   36.9810   26.6290   33.2940 N   0  0  0  0  0  0  0  0  0  0  0  0
   36.2950   26.2890   32.1890 C   0  0  0  0  0  0  0  0  0  0  0  0
   36.3950   25.0730   31.6440 N   0  0  0  0  0  0  0  0  0  0  0  0
   37.3520   22.8000   31.6540 C   0  0  0  0  0  0  0  0  0  0  0  0
   38.1070   22.3730   30.5800 C   0  0  0  0  0  0  0  0  0  0  0  0
   37.9290   21.0470   30.4250 N   0  0  0  0  0  0  0  0  0  0  0  0
   37.0720   20.5610   31.3670 C   0  0  0  0  0  0  0  0  0  0  0  0
   36.5570   19.3130   31.6590 C   0  0  0  0  0  0  0  0  0  0  0  0
   35.6790   19.1150   32.7100 C   0  0  0  0  0  0  0  0  0  0  0  0
   35.3270   20.1940   33.4610 C   0  0  0  0  0  0  0  0  0  0  0  0
   35.8420   21.4420   33.1700 C   0  0  0  0  0  0  0  0  0  0  0  0
   36.7230   21.6600   32.1210 C   0  0  0  0  0  0  0  0  0  0  0  0
   38.5350   26.1670   35.1080 C   0  0  0  0  0  0  0  0  0  0  0  0
   38.2700   25.1190   36.1860 C   0  0  0  0  0  0  0  0  0  0  0  0
   40.0260   26.3540   34.8890 C   0  0  0  0  0  0  0  0  0  0  0  0
   37.9800   27.4920   35.5960 C   0  0  0  0  0  0  0  0  0  0  0  0
   38.6016   23.7017   33.8273 H   0  0  0  0  0  0  0  0  0  0  0  0
   35.6331   27.0323   31.7205 H   0  0  0  0  0  0  0  0  0  0  0  0
   38.7484   23.0107   29.9539 H   0  0  0  0  0  0  0  0  0  0  0  0
   38.3792   20.4777   29.6942 H   0  0  0  0  0  0  0  0  0  0  0  0
   36.8528   18.4535   31.0394 H   0  0  0  0  0  0  0  0  0  0  0  0
   35.2775   18.1152   32.9319 H   0  0  0  0  0  0  0  0  0  0  0  0
   34.6297   20.0717   34.3029 H   0  0  0  0  0  0  0  0  0  0  0  0
   35.5418   22.2964   33.7944 H   0  0  0  0  0  0  0  0  0  0  0  0
   38.3859   25.5773   37.1793 H   0  0  0  0  0  0  0  0  0  0  0  0
   37.2459   24.7325   36.0777 H   0  0  0  0  0  0  0  0  0  0  0  0
   38.9873   24.2921   36.0777 H   0  0  0  0  0  0  0  0  0  0  0  0
   40.5344   26.4178   35.8624 H   0  0  0  0  0  0  0  0  0  0  0  0
   40.4236   25.4987   34.3230 H   0  0  0  0  0  0  0  0  0  0  0  0
   40.2000   27.2810   34.3230 H   0  0  0  0  0  0  0  0  0  0  0  0
   37.9747   27.5045   36.6959 H   0  0  0  0  0  0  0  0  0  0  0  0
   38.6098   28.3131   35.2230 H   0  0  0  0  0  0  0  0  0  0  0  0
   36.9530   27.6191   35.2230 H   0  0  0  0  0  0  0  0  0  0  0  0
  1  2  2  0
  2  3  1  0
  3 16  1  0
  4  3  2  0
  5  4  1  0
  6  5  2  0
  6  1  1  0
  7 15  1  0
  7  1  1  0
  8  7  2  0
  9  8  1  0
  9 10  1  0
 10 11  2  0
 10 15  1  0
 11 12  1  0
 12 13  2  0
 14 13  1  0
 15 14  2  0
 16 19  1  0
 16 17  1  0
 18 16  1  0
  2 20  1  0
  5 21  1  0
  8 22  1  0
  9 23  1  0
 11 24  1  0
 12 25  1  0
 13 26  1  0
 14 27  1  0
 17 28  1  0
 17 29  1  0
 17 30  1  0
 18 31  1  0
 18 32  1  0
 18 33  1  0
 19 34  1  0
 19 35  1  0
 19 36  1  0
M  ISO  8  20  14  21  14  22  14  23   9  24  14  25  14  26  14  27  14
M  ISO  8  28   8  29   8  30   8  31   8  32   8  33   8  34   8  35   8
M  ISO  1  36   8
M  END
>  <minimizedAffinity>  (1) 
-4.98362446

>  <minimizedRMSD>  (1) 
7.93408537

$$$$
