
     RDKit          3D

 35 37  0  0  1  0  0  0  0  0999 V2000
   39.8100   22.9360   37.7350 C   0  0  0  0  0  0  0  0  0  0  0  0
   38.6890   23.1680   38.5280 C   0  0  0  0  0  0  0  0  0  0  0  0
   37.7280   24.0600   38.0380 C   0  0  0  0  0  0  0  0  0  0  0  0
   37.9560   24.6350   36.8290 N   0  0  0  0  0  0  0  0  0  0  0  0
   39.0640   24.3850   36.0800 C   0  0  0  0  0  0  0  0  0  0  0  0
   39.9810   23.5300   36.5530 N   0  0  0  0  0  0  0  0  0  0  0  0
   39.1660   25.0560   34.8430 N   0  0  0  0  0  0  0  0  0  0  0  0
   38.0090   25.1010   33.9730 C   0  0  0  0  0  0  0  0  0  0  0  0
   38.1730   26.0210   32.8080 C   0  0  0  0  0  0  0  0  0  0  0  0
   39.0990   27.0580   33.1390 N   0  0  0  0  0  0  0  0  0  0  0  0
   40.4130   26.4120   33.2150 C   0  0  0  0  0  0  0  0  0  0  0  0
   40.4690   25.6610   34.5440 C   0  0  2  0  0  0  0  0  0  0  0  0
   41.5500   24.6460   34.5820 C   0  0  0  0  0  0  0  0  0  0  0  0
   42.6390   24.8340   35.4000 C   0  0  0  0  0  0  0  0  0  0  0  0
   43.7080   23.9820   35.5400 C   0  0  0  0  0  0  0  0  0  0  0  0
   43.6460   22.8180   34.7580 C   0  0  0  0  0  0  0  0  0  0  0  0
   42.5410   22.6430   33.9370 C   0  0  0  0  0  0  0  0  0  0  0  0
   41.5340   23.5230   33.8550 N   0  0  0  0  0  0  0  0  0  0  0  0
   42.4080   21.4870   33.1140 N   0  0  0  0  0  0  0  0  0  0  0  0
   40.5808   22.2391   38.0957 H   0  0  0  0  0  0  0  0  0  0  0  0
   38.5637   22.6701   39.5008 H   0  0  0  0  0  0  0  0  0  0  0  0
   36.8184   24.2877   38.6131 H   0  0  0  0  0  0  0  0  0  0  0  0
   37.8211   24.0866   33.5914 H   0  0  0  0  0  0  0  0  0  0  0  0
   37.1697   25.4847   34.5716 H   0  0  0  0  0  0  0  0  0  0  0  0
   37.1999   26.4670   32.5547 H   0  0  0  0  0  0  0  0  0  0  0  0
   38.5549   25.4532   31.9467 H   0  0  0  0  0  0  0  0  0  0  0  0
   39.0987   27.7852   32.4096 H   0  0  0  0  0  0  0  0  0  0  0  0
   40.5363   25.7083   32.3786 H   0  0  0  0  0  0  0  0  0  0  0  0
   41.2195   27.1574   33.1526 H   0  0  0  0  0  0  0  0  0  0  0  0
   40.7077   26.3982   35.3247 H   0  0  0  0  0  0  0  0  0  0  0  0
   42.6562   25.7555   36.0004 H   0  0  0  0  0  0  0  0  0  0  0  0
   44.5498   24.1963   36.2148 H   0  0  0  0  0  0  0  0  0  0  0  0
   44.4491   22.0672   34.7949 H   0  0  0  0  0  0  0  0  0  0  0  0
   41.5799   21.3762   32.5117 H   0  0  0  0  0  0  0  0  0  0  0  0
   43.1400   20.7624   33.1216 H   0  0  0  0  0  0  0  0  0  0  0  0
  1  2  2  0
  3  2  1  0
  4  3  2  0
  5  6  2  0
  5  4  1  0
  6  1  1  0
  7  5  1  0
  8  7  1  0
  9 10  1  0
  9  8  1  0
 10 11  1  0
 11 12  1  0
 12 13  1  0
 12  7  1  0
 13 14  2  0
 14 15  1  0
 16 15  2  0
 17 16  1  0
 18 17  2  0
 18 13  1  0
 19 17  1  0
  1 20  1  0
  2 21  1  0
  3 22  1  0
  8 23  1  0
  8 24  1  0
  9 25  1  0
  9 26  1  0
 10 27  1  0
 11 28  1  0
 11 29  1  0
 12 30  1  1
 14 31  1  0
 15 32  1  0
 16 33  1  0
 19 34  1  0
 19 35  1  0
M  ISO  8  20  14  21  14  22  14  23  13  24  13  25  13  26  13  27   5
M  ISO  6  28  13  29  13  30  13  31  14  32  14  33  14
M  END
>  <minimizedAffinity>  (1) 
-4.14855671

>  <minimizedRMSD>  (1) 
0.0718033165

$$$$
