
     RDKit          3D

 30 33  0  0  0  0  0  0  0  0999 V2000
   37.6110   22.1910   33.5680 C   0  0  0  0  0  0  0  0  0  0  0  0
   37.3630   23.4990   33.1290 C   0  0  0  0  0  0  0  0  0  0  0  0
   37.8790   24.5400   33.8880 C   0  0  0  0  0  0  0  0  0  0  0  0
   38.5950   24.2200   35.0160 N   0  0  0  0  0  0  0  0  0  0  0  0
   38.8130   22.9630   35.4060 C   0  0  0  0  0  0  0  0  0  0  0  0
   38.3260   21.9550   34.6900 N   0  0  0  0  0  0  0  0  0  0  0  0
   37.1380   21.0460   32.8800 N   0  0  0  0  0  0  0  0  0  0  0  0
   35.9800   20.4230   33.2430 C   0  0  0  0  0  0  0  0  0  0  0  0
   35.7250   19.3610   32.4550 N   0  0  0  0  0  0  0  0  0  0  0  0
   36.7200   19.2780   31.5640 C   0  0  0  0  0  0  0  0  0  0  0  0
   37.0520   18.4360   30.5000 C   0  0  0  0  0  0  0  0  0  0  0  0
   38.1770   18.6520   29.7810 N   0  0  0  0  0  0  0  0  0  0  0  0
   38.9770   19.6920   30.1010 C   0  0  0  0  0  0  0  0  0  0  0  0
   38.6960   20.5360   31.1240 N   0  0  0  0  0  0  0  0  0  0  0  0
   37.5750   20.3230   31.8430 C   0  0  0  0  0  0  0  0  0  0  0  0
   36.1100   17.3890   30.2880 N   0  0  0  0  0  0  0  0  0  0  0  0
   37.6230   25.9060   33.4350 C   0  0  0  0  0  0  0  0  0  0  0  0
   37.0130   26.8740   34.2530 C   0  0  0  0  0  0  0  0  0  0  0  0
   36.9500   27.9950   33.4920 N   0  0  0  0  0  0  0  0  0  0  0  0
   37.4930   27.6960   32.2960 C   0  0  0  0  0  0  0  0  0  0  0  0
   37.9040   26.4460   32.2420 N   0  0  0  0  0  0  0  0  0  0  0  0
   36.7807   23.6932   32.2162 H   0  0  0  0  0  0  0  0  0  0  0  0
   39.3943   22.7615   36.3178 H   0  0  0  0  0  0  0  0  0  0  0  0
   35.3361   20.7470   34.0740 H   0  0  0  0  0  0  0  0  0  0  0  0
   39.8895   19.8603   29.5102 H   0  0  0  0  0  0  0  0  0  0  0  0
   36.2576   16.7095   29.5281 H   0  0  0  0  0  0  0  0  0  0  0  0
   35.2812   17.3113   30.8946 H   0  0  0  0  0  0  0  0  0  0  0  0
   36.6622   26.7488   35.2880 H   0  0  0  0  0  0  0  0  0  0  0  0
   37.5824   28.4103   31.4642 H   0  0  0  0  0  0  0  0  0  0  0  0
   38.3522   25.9771   31.4419 H   0  0  0  0  0  0  0  0  0  0  0  0
  1  6  1  0
  2  1  2  0
  2  3  1  0
  3  4  2  0
  4  5  1  0
  6  5  2  0
  7  8  1  0
  7  1  1  0
  9  8  2  0
 10 15  2  0
 10  9  1  0
 11 10  1  0
 12 13  1  0
 12 11  2  0
 13 14  2  0
 14 15  1  0
 15  7  1  0
 16 11  1  0
 17  3  1  0
 17 18  2  0
 19 18  1  0
 20 19  2  0
 21 20  1  0
 21 17  1  0
  2 22  1  0
  5 23  1  0
  8 24  1  0
 13 25  1  0
 16 26  1  0
 16 27  1  0
 18 28  1  0
 20 29  1  0
 21 30  1  0
M  ISO  7  22  14  23  14  24  14  25  14  28  14  29  14  30   9
M  END
>  <minimizedAffinity>  (1) 
-3.98253512

>  <minimizedRMSD>  (1) 
8.31123829

$$$$
