
     RDKit          3D

 37 41  0  0  0  0  0  0  0  0999 V2000
   37.7280   22.9670   33.5430 C   0  0  0  0  0  0  0  0  0  0  0  0
   37.2390   24.2260   33.1830 C   0  0  0  0  0  0  0  0  0  0  0  0
   38.0530   25.3200   33.3970 C   0  0  0  0  0  0  0  0  0  0  0  0
   39.2990   25.0940   33.9540 N   0  0  0  0  0  0  0  0  0  0  0  0
   39.7360   23.8780   34.2850 C   0  0  0  0  0  0  0  0  0  0  0  0
   38.9560   22.8220   34.0820 N   0  0  0  0  0  0  0  0  0  0  0  0
   36.9770   21.7700   33.3680 N   0  0  0  0  0  0  0  0  0  0  0  0
   36.2310   21.2410   34.3830 C   0  0  0  0  0  0  0  0  0  0  0  0
   35.6070   20.1110   33.9940 N   0  0  0  0  0  0  0  0  0  0  0  0
   35.9460   19.8990   32.7130 C   0  0  0  0  0  0  0  0  0  0  0  0
   35.6490   18.9330   31.7580 C   0  0  0  0  0  0  0  0  0  0  0  0
   36.1720   19.0130   30.5240 N   0  0  0  0  0  0  0  0  0  0  0  0
   36.9970   20.0460   30.2070 C   0  0  0  0  0  0  0  0  0  0  0  0
   37.3130   21.0120   31.1150 N   0  0  0  0  0  0  0  0  0  0  0  0
   36.7850   20.9250   32.3530 C   0  0  0  0  0  0  0  0  0  0  0  0
   34.7780   17.9030   32.1980 N   0  0  0  0  0  0  0  0  0  0  0  0
   37.5580   26.6410   33.0280 C   0  0  0  0  0  0  0  0  0  0  0  0
   36.8000   27.4370   33.8990 C   0  0  0  0  0  0  0  0  0  0  0  0
   36.5300   28.5690   33.2130 N   0  0  0  0  0  0  0  0  0  0  0  0
   37.0990   28.4450   32.0020 C   0  0  0  0  0  0  0  0  0  0  0  0
   37.7270   27.2850   31.8680 N   0  0  0  0  0  0  0  0  0  0  0  0
   38.4400   26.8030   30.7350 C   0  0  0  0  0  0  0  0  0  0  0  0
   39.1320   25.6350   30.4240 C   0  0  0  0  0  0  0  0  0  0  0  0
   39.6140   25.7730   29.1390 C   0  0  0  0  0  0  0  0  0  0  0  0
   39.2240   26.9810   28.6950 N   0  0  0  0  0  0  0  0  0  0  0  0
   38.5260   27.6010   29.6380 N   0  0  0  0  0  0  0  0  0  0  0  0
   36.2374   24.3413   32.7432 H   0  0  0  0  0  0  0  0  0  0  0  0
   40.7367   23.7503   34.7236 H   0  0  0  0  0  0  0  0  0  0  0  0
   36.1499   21.6805   35.3881 H   0  0  0  0  0  0  0  0  0  0  0  0
   37.4197   20.1036   29.1931 H   0  0  0  0  0  0  0  0  0  0  0  0
   34.5069   17.1472   31.5528 H   0  0  0  0  0  0  0  0  0  0  0  0
   34.4168   17.9110   33.1626 H   0  0  0  0  0  0  0  0  0  0  0  0
   36.4903   27.1912   34.9255 H   0  0  0  0  0  0  0  0  0  0  0  0
   37.0497   29.2134   31.2164 H   0  0  0  0  0  0  0  0  0  0  0  0
   39.2688   24.7638   31.0814 H   0  0  0  0  0  0  0  0  0  0  0  0
   40.2068   25.0330   28.5814 H   0  0  0  0  0  0  0  0  0  0  0  0
   39.4352   27.3667   27.7636 H   0  0  0  0  0  0  0  0  0  0  0  0
  1  6  2  0
  2  3  2  0
  2  1  1  0
  3  4  1  0
  4  5  2  0
  6  5  1  0
  7  1  1  0
  7  8  1  0
  9  8  2  0
 10  9  1  0
 11 16  1  0
 11 10  2  0
 12 11  1  0
 13 12  2  0
 13 14  1  0
 14 15  2  0
 15 10  1  0
 15  7  1  0
 17  3  1  0
 17 18  2  0
 19 18  1  0
 20 19  2  0
 21 20  1  0
 21 17  1  0
 22 21  1  0
 23 22  1  0
 24 23  2  0
 25 24  1  0
 25 26  1  0
 26 22  2  0
  2 27  1  0
  5 28  1  0
  8 29  1  0
 13 30  1  0
 16 31  1  0
 16 32  1  0
 18 33  1  0
 20 34  1  0
 23 35  1  0
 24 36  1  0
 25 37  1  0
M  ISO  8  27  14  28  14  29  14  30  14  33  14  34  14  35  14  36  14
M  ISO  1  37   9
M  END
>  <minimizedAffinity>  (1) 
-5.37265301

>  <minimizedRMSD>  (1) 
1.38701284

$$$$
