
     RDKit          3D

 43 47  0  0  0  0  0  0  0  0999 V2000
   37.2000   22.0440   33.4720 C   0  0  0  0  0  0  0  0  0  0  0  0
   37.2070   23.1930   32.6840 C   0  0  0  0  0  0  0  0  0  0  0  0
   37.7030   24.3610   33.2310 C   0  0  0  0  0  0  0  0  0  0  0  0
   38.1610   24.3040   34.5350 N   0  0  0  0  0  0  0  0  0  0  0  0
   38.1400   23.1870   35.2630 C   0  0  0  0  0  0  0  0  0  0  0  0
   37.6650   22.0610   34.7430 N   0  0  0  0  0  0  0  0  0  0  0  0
   36.7150   20.7890   33.0120 N   0  0  0  0  0  0  0  0  0  0  0  0
   35.6190   20.2030   33.5640 C   0  0  0  0  0  0  0  0  0  0  0  0
   35.3420   19.0280   32.9770 N   0  0  0  0  0  0  0  0  0  0  0  0
   36.2590   18.8310   32.0270 C   0  0  0  0  0  0  0  0  0  0  0  0
   36.5260   17.8360   31.0870 C   0  0  0  0  0  0  0  0  0  0  0  0
   37.5780   17.9610   30.2470 N   0  0  0  0  0  0  0  0  0  0  0  0
   38.3690   19.0560   30.3250 C   0  0  0  0  0  0  0  0  0  0  0  0
   38.1380   20.0440   31.2280 N   0  0  0  0  0  0  0  0  0  0  0  0
   37.0950   19.9230   32.0630 C   0  0  0  0  0  0  0  0  0  0  0  0
   35.6210   16.7480   31.1150 N   0  0  0  0  0  0  0  0  0  0  0  0
   37.7120   25.5640   32.4120 C   0  0  0  0  0  0  0  0  0  0  0  0
   36.5500   26.0650   31.7850 C   0  0  0  0  0  0  0  0  0  0  0  0
   36.9690   27.1780   31.1300 N   0  0  0  0  0  0  0  0  0  0  0  0
   38.2890   27.3190   31.3610 C   0  0  0  0  0  0  0  0  0  0  0  0
   38.7490   26.3480   32.1360 N   0  0  0  0  0  0  0  0  0  0  0  0
   42.6410   26.2160   33.6870 C   0  0  0  0  0  0  0  0  0  0  0  0
   42.3360   25.4090   32.6110 C   0  0  0  0  0  0  0  0  0  0  0  0
   41.0700   25.3870   32.0310 C   0  0  0  0  0  0  0  0  0  0  0  0
   40.1000   26.2080   32.5650 C   0  0  0  0  0  0  0  0  0  0  0  0
   40.3780   27.0270   33.6420 C   0  0  0  0  0  0  0  0  0  0  0  0
   41.6540   27.0300   34.2040 C   0  0  0  0  0  0  0  0  0  0  0  0
   44.2570   26.2020   34.3790 S   0  0  0  0  0  0  0  0  0  0  0  0
   44.2660   25.5950   35.7410 O   0  0  0  0  0  0  0  0  0  0  0  0
   44.8110   27.6190   34.3930 O   0  0  0  0  0  0  0  0  0  0  0  0
   36.8271   23.1709   31.6519 H   0  0  0  0  0  0  0  0  0  0  0  0
   38.5169   23.1982   36.2964 H   0  0  0  0  0  0  0  0  0  0  0  0
   35.0333   20.6371   34.3877 H   0  0  0  0  0  0  0  0  0  0  0  0
   39.2230   19.1487   29.6379 H   0  0  0  0  0  0  0  0  0  0  0  0
   35.7376   15.9641   30.4571 H   0  0  0  0  0  0  0  0  0  0  0  0
   34.8459   16.7402   31.7932 H   0  0  0  0  0  0  0  0  0  0  0  0
   35.5331   25.6471   31.8196 H   0  0  0  0  0  0  0  0  0  0  0  0
   38.9057   28.1358   30.9577 H   0  0  0  0  0  0  0  0  0  0  0  0
   43.1208   24.7594   32.1960 H   0  0  0  0  0  0  0  0  0  0  0  0
   40.8508   24.7344   31.1730 H   0  0  0  0  0  0  0  0  0  0  0  0
   39.5929   27.6767   34.0562 H   0  0  0  0  0  0  0  0  0  0  0  0
   41.8744   27.6828   35.0615 H   0  0  0  0  0  0  0  0  0  0  0  0
   45.0660   25.4178   33.5996 H   0  0  0  0  0  0  0  0  0  0  0  0
  1  6  2  0
  2  3  2  0
  2  1  1  0
  3  4  1  0
  4  5  2  0
  6  5  1  0
  7  1  1  0
  7  8  1  0
  9  8  2  0
 10 15  2  0
 10  9  1  0
 11 16  1  0
 11 10  1  0
 12 13  1  0
 12 11  2  0
 13 14  2  0
 14 15  1  0
 15  7  1  0
 17  3  1  0
 18 17  2  0
 19 20  2  0
 19 18  1  0
 20 21  1  0
 21 17  1  0
 21 25  1  0
 22 27  2  0
 22 28  1  0
 23 22  1  0
 24 25  1  0
 24 23  2  0
 25 26  2  0
 26 27  1  0
 28 30  2  0
 28 29  2  0
  2 31  1  0
  5 32  1  0
  8 33  1  0
 13 34  1  0
 16 35  1  0
 16 36  1  0
 18 37  1  0
 20 38  1  0
 23 39  1  0
 24 40  1  0
 26 41  1  0
 27 42  1  0
 28 43  1  0
M  ISO  8  31  14  32  14  33  14  34  14  37  14  38  14  39  14  40  14
M  ISO  3  41  14  42  14  43  11
M  END
>  <minimizedAffinity>  (1) 
-5.290658

>  <minimizedRMSD>  (1) 
3.32539511

$$$$
