
     RDKit          3D

 46 51  0  0  0  0  0  0  0  0999 V2000
   39.1690   22.1040   33.3780 C   0  0  0  0  0  0  0  0  0  0  0  0
   38.7310   23.3180   33.9050 C   0  0  0  0  0  0  0  0  0  0  0  0
   39.5720   24.0080   34.7670 C   0  0  0  0  0  0  0  0  0  0  0  0
   40.7990   23.4310   35.0420 N   0  0  0  0  0  0  0  0  0  0  0  0
   41.1900   22.2680   34.5230 C   0  0  0  0  0  0  0  0  0  0  0  0
   40.3920   21.6000   33.6970 N   0  0  0  0  0  0  0  0  0  0  0  0
   38.3950   21.3240   32.4960 N   0  0  0  0  0  0  0  0  0  0  0  0
   37.1800   20.8070   32.8680 C   0  0  0  0  0  0  0  0  0  0  0  0
   36.6240   20.1010   31.8720 N   0  0  0  0  0  0  0  0  0  0  0  0
   37.4710   20.1460   30.8270 C   0  0  0  0  0  0  0  0  0  0  0  0
   37.4940   19.6310   29.5210 C   0  0  0  0  0  0  0  0  0  0  0  0
   38.5330   19.8730   28.7070 N   0  0  0  0  0  0  0  0  0  0  0  0
   39.5660   20.6230   29.1600 C   0  0  0  0  0  0  0  0  0  0  0  0
   39.5880   21.1410   30.4190 N   0  0  0  0  0  0  0  0  0  0  0  0
   38.5490   20.8970   31.2270 C   0  0  0  0  0  0  0  0  0  0  0  0
   36.3280   18.8640   29.2010 N   0  0  0  0  0  0  0  0  0  0  0  0
   39.1220   25.2720   35.3180 C   0  0  0  0  0  0  0  0  0  0  0  0
   38.2910   25.3540   36.4600 C   0  0  0  0  0  0  0  0  0  0  0  0
   38.0890   26.6700   36.6670 N   0  0  0  0  0  0  0  0  0  0  0  0
   38.7640   27.3260   35.7020 C   0  0  0  0  0  0  0  0  0  0  0  0
   39.3890   26.5000   34.8860 N   0  0  0  0  0  0  0  0  0  0  0  0
   40.1870   26.8730   33.7670 C   0  0  0  0  0  0  0  0  0  0  0  0
   41.5470   27.0710   33.8910 C   0  0  0  0  0  0  0  0  0  0  0  0
   42.3920   27.4360   32.8510 C   0  0  0  0  0  0  0  0  0  0  0  0
   41.8420   27.6140   31.5990 C   0  0  0  0  0  0  0  0  0  0  0  0
   40.4850   27.4250   31.4320 C   0  0  0  0  0  0  0  0  0  0  0  0
   39.9880   27.6170   30.1580 C   0  0  0  0  0  0  0  0  0  0  0  0
   38.6310   27.4280   29.9950 C   0  0  0  0  0  0  0  0  0  0  0  0
   37.8000   27.0680   31.0290 C   0  0  0  0  0  0  0  0  0  0  0  0
   38.3280   26.8840   32.2890 C   0  0  0  0  0  0  0  0  0  0  0  0
   39.6860   27.0640   32.4960 C   0  0  0  0  0  0  0  0  0  0  0  0
   37.7411   23.7201   33.6435 H   0  0  0  0  0  0  0  0  0  0  0  0
   42.1783   21.8588   34.7796 H   0  0  0  0  0  0  0  0  0  0  0  0
   36.7204   20.9527   33.8567 H   0  0  0  0  0  0  0  0  0  0  0  0
   40.4149   20.8200   28.4888 H   0  0  0  0  0  0  0  0  0  0  0  0
   36.2331   18.4356   28.2691 H   0  0  0  0  0  0  0  0  0  0  0  0
   35.5842   18.7406   29.9027 H   0  0  0  0  0  0  0  0  0  0  0  0
   37.8931   24.5184   37.0545 H   0  0  0  0  0  0  0  0  0  0  0  0
   38.7903   28.4215   35.6065 H   0  0  0  0  0  0  0  0  0  0  0  0
   41.9944   26.9295   34.8859 H   0  0  0  0  0  0  0  0  0  0  0  0
   43.4693   27.5790   33.0211 H   0  0  0  0  0  0  0  0  0  0  0  0
   42.4749   27.9021   30.7467 H   0  0  0  0  0  0  0  0  0  0  0  0
   40.6384   27.9049   29.3189 H   0  0  0  0  0  0  0  0  0  0  0  0
   38.1957   27.5715   28.9951 H   0  0  0  0  0  0  0  0  0  0  0  0
   36.7233   26.9280   30.8526 H   0  0  0  0  0  0  0  0  0  0  0  0
   37.6746   26.5958   33.1256 H   0  0  0  0  0  0  0  0  0  0  0  0
  1  6  1  0
  1  2  2  0
  2  3  1  0
  3  4  2  0
  3 17  1  0
  5  4  1  0
  6  5  2  0
  7  8  1  0
  7  1  1  0
  9  8  2  0
 10 15  2  0
 10  9  1  0
 11 10  1  0
 12 13  1  0
 12 11  2  0
 13 14  2  0
 14 15  1  0
 15  7  1  0
 16 11  1  0
 17 18  2  0
 18 19  1  0
 20 19  2  0
 21 17  1  0
 21 20  1  0
 22 23  2  0
 22 21  1  0
 24 23  1  0
 25 24  2  0
 26 25  1  0
 26 31  2  0
 27 26  1  0
 28 27  2  0
 28 29  1  0
 29 30  2  0
 30 31  1  0
 31 22  1  0
  2 32  1  0
  5 33  1  0
  8 34  1  0
 13 35  1  0
 16 36  1  0
 16 37  1  0
 18 38  1  0
 20 39  1  0
 23 40  1  0
 24 41  1  0
 25 42  1  0
 27 43  1  0
 28 44  1  0
 29 45  1  0
 30 46  1  0
M  ISO  8  32  14  33  14  34  14  35  14  38  14  39  14  40  14  41  14
M  ISO  5  42  14  43  14  44  14  45  14  46  14
M  END
>  <minimizedAffinity>  (1) 
-5.68605852

>  <minimizedRMSD>  (1) 
2.69991517

$$$$
