
     RDKit          3D

 36 38  0  0  0  0  0  0  0  0999 V2000
   42.0950   22.4180   35.9110 C   0  0  0  0  0  0  0  0  0  0  0  0
   43.4310   22.6820   35.6010 C   0  0  0  0  0  0  0  0  0  0  0  0
   44.4050   21.7110   35.9390 C   0  0  0  0  0  0  0  0  0  0  0  0
   43.9800   20.5770   36.5440 N   0  0  0  0  0  0  0  0  0  0  0  0
   42.6850   20.3560   36.8280 C   0  0  0  0  0  0  0  0  0  0  0  0
   41.7460   21.2560   36.5210 N   0  0  0  0  0  0  0  0  0  0  0  0
   41.1040   23.4050   35.5690 N   0  0  0  0  0  0  0  0  0  0  0  0
   41.1570   24.3210   34.5830 C   0  0  0  0  0  0  0  0  0  0  0  0
   40.0200   25.0490   34.6120 N   0  0  0  0  0  0  0  0  0  0  0  0
   39.2660   24.5800   35.6180 C   0  0  0  0  0  0  0  0  0  0  0  0
   38.0210   24.9950   36.0440 C   0  0  0  0  0  0  0  0  0  0  0  0
   37.4010   25.9350   35.4980 O   0  0  0  0  0  0  0  0  0  0  0  0
   37.4290   24.3830   37.0860 N   0  0  0  0  0  0  0  0  0  0  0  0
   38.1230   23.3730   37.6560 C   0  0  0  0  0  0  0  0  0  0  0  0
   37.6170   22.6380   38.7670 N   0  0  0  0  0  0  0  0  0  0  0  0
   39.3440   22.9390   37.2650 N   0  0  0  0  0  0  0  0  0  0  0  0
   39.9570   23.5420   36.2180 C   0  0  0  0  0  0  0  0  0  0  0  0
   45.8240   21.8890   35.6580 C   0  0  0  0  0  0  0  0  0  0  0  0
   46.2350   23.2270   36.2800 C   0  0  0  0  0  0  0  0  0  0  0  0
   46.6940   20.7610   36.1760 C   0  0  0  0  0  0  0  0  0  0  0  0
   46.0340   21.9600   34.1510 C   0  0  0  0  0  0  0  0  0  0  0  0
   43.7197   23.6212   35.1064 H   0  0  0  0  0  0  0  0  0  0  0  0
   42.3928   19.4176   37.3219 H   0  0  0  0  0  0  0  0  0  0  0  0
   41.9869   24.4538   33.8734 H   0  0  0  0  0  0  0  0  0  0  0  0
   36.5006   24.6678   37.4293 H   0  0  0  0  0  0  0  0  0  0  0  0
   38.1740   21.8742   39.1759 H   0  0  0  0  0  0  0  0  0  0  0  0
   36.6942   22.8706   39.1611 H   0  0  0  0  0  0  0  0  0  0  0  0
   46.2097   23.1447   37.3766 H   0  0  0  0  0  0  0  0  0  0  0  0
   47.2538   23.4849   35.9550 H   0  0  0  0  0  0  0  0  0  0  0  0
   45.5367   24.0123   35.9550 H   0  0  0  0  0  0  0  0  0  0  0  0
   46.6880   20.7688   37.2760 H   0  0  0  0  0  0  0  0  0  0  0  0
   46.3015   19.7993   35.8140 H   0  0  0  0  0  0  0  0  0  0  0  0
   47.7239   20.8963   35.8140 H   0  0  0  0  0  0  0  0  0  0  0  0
   47.0565   22.3057   33.9392 H   0  0  0  0  0  0  0  0  0  0  0  0
   45.8862   20.9619   33.7128 H   0  0  0  0  0  0  0  0  0  0  0  0
   45.3109   22.6636   33.7128 H   0  0  0  0  0  0  0  0  0  0  0  0
  1  6  1  0
  2  1  2  0
  2  3  1  0
  3  4  2  0
  4  5  1  0
  6  5  2  0
  7  1  1  0
  7 17  1  0
  8  9  2  0
  8  7  1  0
  9 10  1  0
 10 11  1  0
 10 17  2  0
 11 13  1  0
 12 11  2  0
 13 14  1  0
 14 15  1  0
 16 14  2  0
 17 16  1  0
 18  3  1  0
 18 20  1  0
 18 19  1  0
 21 18  1  0
  2 22  1  0
  5 23  1  0
  8 24  1  0
 13 25  1  0
 15 26  1  0
 15 27  1  0
 19 28  1  0
 19 29  1  0
 19 30  1  0
 20 31  1  0
 20 32  1  0
 20 33  1  0
 21 34  1  0
 21 35  1  0
 21 36  1  0
M  ISO  8  22  14  23  14  24  14  25   9  28   8  29   8  30   8  31   8
M  ISO  5  32   8  33   8  34   8  35   8  36   8
M  END
>  <minimizedAffinity>  (1) 
-4.52934742

>  <minimizedRMSD>  (1) 
7.078897

$$$$
