
     RDKit          3D

 40 44  0  0  0  0  0  0  0  0999 V2000
   37.5090   22.1180   34.6840 C   0  0  0  0  0  0  0  0  0  0  0  0
   38.4310   23.1300   34.3900 C   0  0  0  0  0  0  0  0  0  0  0  0
   38.8460   23.9530   35.4230 C   0  0  0  0  0  0  0  0  0  0  0  0
   38.3180   23.7160   36.6790 N   0  0  0  0  0  0  0  0  0  0  0  0
   37.4410   22.7430   36.9290 C   0  0  0  0  0  0  0  0  0  0  0  0
   37.0340   21.9460   35.9450 N   0  0  0  0  0  0  0  0  0  0  0  0
   37.0110   21.2120   33.7070 N   0  0  0  0  0  0  0  0  0  0  0  0
   35.7150   20.8010   33.7110 C   0  0  0  0  0  0  0  0  0  0  0  0
   35.4680   19.9480   32.6980 N   0  0  0  0  0  0  0  0  0  0  0  0
   36.6140   19.7940   32.0200 C   0  0  0  0  0  0  0  0  0  0  0  0
   37.0340   19.0760   30.9030 C   0  0  0  0  0  0  0  0  0  0  0  0
   38.3080   19.1500   30.4680 N   0  0  0  0  0  0  0  0  0  0  0  0
   39.1880   19.9410   31.1330 C   0  0  0  0  0  0  0  0  0  0  0  0
   38.8330   20.6620   32.2280 N   0  0  0  0  0  0  0  0  0  0  0  0
   37.5490   20.5850   32.6630 C   0  0  0  0  0  0  0  0  0  0  0  0
   36.0080   18.2880   30.3000 N   0  0  0  0  0  0  0  0  0  0  0  0
   39.8010   25.0040   35.1200 C   0  0  0  0  0  0  0  0  0  0  0  0
   39.4300   26.3460   34.9770 C   0  0  0  0  0  0  0  0  0  0  0  0
   40.5820   27.0160   34.7000 N   0  0  0  0  0  0  0  0  0  0  0  0
   41.5660   26.1050   34.6850 C   0  0  0  0  0  0  0  0  0  0  0  0
   41.1130   24.8960   34.9340 N   0  0  0  0  0  0  0  0  0  0  0  0
   41.9030   23.7130   34.9870 C   0  0  0  0  0  0  0  0  0  0  0  0
   42.2380   22.8530   33.9590 C   0  0  0  0  0  0  0  0  0  0  0  0
   43.0270   21.7490   34.2350 C   0  0  0  0  0  0  0  0  0  0  0  0
   43.4840   21.4850   35.4980 C   0  0  0  0  0  0  0  0  0  0  0  0
   43.1470   22.3520   36.5370 C   0  0  0  0  0  0  0  0  0  0  0  0
   42.3550   23.4690   36.2850 C   0  0  0  0  0  0  0  0  0  0  0  0
   38.8144   23.2671   33.3681 H   0  0  0  0  0  0  0  0  0  0  0  0
   37.0543   22.5996   37.9487 H   0  0  0  0  0  0  0  0  0  0  0  0
   34.9642   21.1237   34.4473 H   0  0  0  0  0  0  0  0  0  0  0  0
   40.2255   20.0002   30.7723 H   0  0  0  0  0  0  0  0  0  0  0  0
   36.2177   17.7195   29.4671 H   0  0  0  0  0  0  0  0  0  0  0  0
   35.0579   18.2878   30.6978 H   0  0  0  0  0  0  0  0  0  0  0  0
   38.4193   26.7703   35.0692 H   0  0  0  0  0  0  0  0  0  0  0  0
   42.6224   26.3403   34.4885 H   0  0  0  0  0  0  0  0  0  0  0  0
   41.8829   23.0426   32.9353 H   0  0  0  0  0  0  0  0  0  0  0  0
   43.2941   21.0648   33.4161 H   0  0  0  0  0  0  0  0  0  0  0  0
   44.1089   20.6005   35.6909 H   0  0  0  0  0  0  0  0  0  0  0  0
   43.5074   22.1531   37.5571 H   0  0  0  0  0  0  0  0  0  0  0  0
   42.0874   24.1543   37.1028 H   0  0  0  0  0  0  0  0  0  0  0  0
  1  6  1  0
  2  1  2  0
  2  3  1  0
  3  4  2  0
  4  5  1  0
  6  5  2  0
  7  8  1  0
  7  1  1  0
  9  8  2  0
 10 15  2  0
 10  9  1  0
 11 10  1  0
 12 11  2  0
 12 13  1  0
 13 14  2  0
 14 15  1  0
 15  7  1  0
 16 11  1  0
 17  3  1  0
 18 17  2  0
 19 18  1  0
 20 19  2  0
 20 21  1  0
 21 22  1  0
 21 17  1  0
 22 27  2  0
 23 24  2  0
 23 22  1  0
 24 25  1  0
 25 26  2  0
 27 26  1  0
  2 28  1  0
  5 29  1  0
  8 30  1  0
 13 31  1  0
 16 32  1  0
 16 33  1  0
 18 34  1  0
 20 35  1  0
 23 36  1  0
 24 37  1  0
 25 38  1  0
 26 39  1  0
 27 40  1  0
M  ISO  8  28  14  29  14  30  14  31  14  34  14  35  14  36  14  37  14
M  ISO  3  38  14  39  14  40  14
M  END
>  <minimizedAffinity>  (1) 
-5.24829817

>  <minimizedRMSD>  (1) 
3.73130536

$$$$
