
     RDKit          3D

 37 41  0  0  0  0  0  0  0  0999 V2000
   37.6790   22.9270   33.5930 C   0  0  0  0  0  0  0  0  0  0  0  0
   37.4220   24.0990   32.8890 C   0  0  0  0  0  0  0  0  0  0  0  0
   38.2050   25.2070   33.1480 C   0  0  0  0  0  0  0  0  0  0  0  0
   39.1950   25.0730   34.0940 N   0  0  0  0  0  0  0  0  0  0  0  0
   39.4200   23.9350   34.7560 C   0  0  0  0  0  0  0  0  0  0  0  0
   38.6690   22.8640   34.5110 N   0  0  0  0  0  0  0  0  0  0  0  0
   36.9360   21.7340   33.4050 N   0  0  0  0  0  0  0  0  0  0  0  0
   36.1750   21.2050   34.3960 C   0  0  0  0  0  0  0  0  0  0  0  0
   35.5570   20.0680   33.9980 N   0  0  0  0  0  0  0  0  0  0  0  0
   35.9210   19.8510   32.7200 C   0  0  0  0  0  0  0  0  0  0  0  0
   35.6420   18.8840   31.7600 C   0  0  0  0  0  0  0  0  0  0  0  0
   36.2030   18.9760   30.5220 N   0  0  0  0  0  0  0  0  0  0  0  0
   37.0250   20.0120   30.2430 C   0  0  0  0  0  0  0  0  0  0  0  0
   37.3180   20.9730   31.1550 N   0  0  0  0  0  0  0  0  0  0  0  0
   36.7650   20.8870   32.3850 C   0  0  0  0  0  0  0  0  0  0  0  0
   34.7610   17.8600   32.2110 N   0  0  0  0  0  0  0  0  0  0  0  0
   37.9330   26.4360   32.4080 C   0  0  0  0  0  0  0  0  0  0  0  0
   37.2200   27.5140   32.9770 C   0  0  0  0  0  0  0  0  0  0  0  0
   37.1690   28.4520   32.0090 N   0  0  0  0  0  0  0  0  0  0  0  0
   37.8110   27.9600   30.9320 C   0  0  0  0  0  0  0  0  0  0  0  0
   38.2760   26.7460   31.1620 N   0  0  0  0  0  0  0  0  0  0  0  0
   39.0010   25.9360   30.2440 C   0  0  0  0  0  0  0  0  0  0  0  0
   40.3310   26.0670   29.8820 C   0  0  0  0  0  0  0  0  0  0  0  0
   40.6870   25.1180   28.9810 N   0  0  0  0  0  0  0  0  0  0  0  0
   39.5690   24.3760   28.7690 C   0  0  0  0  0  0  0  0  0  0  0  0
   38.5490   24.8640   29.5260 N   0  0  0  0  0  0  0  0  0  0  0  0
   36.6142   24.1423   32.1436 H   0  0  0  0  0  0  0  0  0  0  0  0
   40.2256   23.8830   35.5033 H   0  0  0  0  0  0  0  0  0  0  0  0
   36.0728   21.6454   35.3988 H   0  0  0  0  0  0  0  0  0  0  0  0
   37.4726   20.0785   29.2404 H   0  0  0  0  0  0  0  0  0  0  0  0
   34.4914   17.0957   31.5753 H   0  0  0  0  0  0  0  0  0  0  0  0
   34.3934   17.8837   33.1729 H   0  0  0  0  0  0  0  0  0  0  0  0
   36.7974   27.5755   33.9907 H   0  0  0  0  0  0  0  0  0  0  0  0
   37.9324   28.5008   29.9818 H   0  0  0  0  0  0  0  0  0  0  0  0
   41.0095   26.8392   30.2737 H   0  0  0  0  0  0  0  0  0  0  0  0
   39.4990   23.5135   28.0899 H   0  0  0  0  0  0  0  0  0  0  0  0
   37.5910   24.4866   29.5536 H   0  0  0  0  0  0  0  0  0  0  0  0
  1  6  2  0
  2  3  2  0
  2  1  1  0
  3  4  1  0
  4  5  2  0
  6  5  1  0
  7  1  1  0
  7  8  1  0
  9  8  2  0
 10  9  1  0
 11 16  1  0
 11 10  2  0
 12 11  1  0
 13 12  2  0
 13 14  1  0
 14 15  2  0
 15 10  1  0
 15  7  1  0
 17 18  2  0
 17  3  1  0
 19 18  1  0
 20 21  1  0
 20 19  2  0
 21 17  1  0
 22 21  1  0
 23 22  2  0
 24 23  1  0
 25 24  2  0
 25 26  1  0
 26 22  1  0
  2 27  1  0
  5 28  1  0
  8 29  1  0
 13 30  1  0
 16 31  1  0
 16 32  1  0
 18 33  1  0
 20 34  1  0
 23 35  1  0
 25 36  1  0
 26 37  1  0
M  ISO  8  27  14  28  14  29  14  30  14  33  14  34  14  35  14  36  14
M  ISO  1  37   9
M  END
>  <minimizedAffinity>  (1) 
-5.20566702

>  <minimizedRMSD>  (1) 
1.40344977

$$$$
