
     RDKit          3D

 32 33  0  0  0  0  0  0  0  0999 V2000
   38.1090   22.1310   34.2420 C   0  0  0  0  0  0  0  0  0  0  0  0
   36.9600   21.5310   33.7420 C   0  0  0  0  0  0  0  0  0  0  0  0
   37.0590   20.6300   32.6710 C   0  0  0  0  0  0  0  0  0  0  0  0
   38.2910   20.3850   32.1660 N   0  0  0  0  0  0  0  0  0  0  0  0
   39.3870   20.9840   32.6730 C   0  0  0  0  0  0  0  0  0  0  0  0
   39.3080   21.8530   33.7040 N   0  0  0  0  0  0  0  0  0  0  0  0
   38.0760   23.0750   35.3510 C   0  0  0  0  0  0  0  0  0  0  0  0
   37.8040   22.5940   36.6140 C   0  0  0  0  0  0  0  0  0  0  0  0
   37.7480   23.4090   37.7420 C   0  0  0  0  0  0  0  0  0  0  0  0
   37.9780   24.7810   37.5960 C   0  0  0  0  0  0  0  0  0  0  0  0
   38.2490   25.2690   36.3430 C   0  0  0  0  0  0  0  0  0  0  0  0
   38.2960   24.4320   35.2470 C   0  0  0  0  0  0  0  0  0  0  0  0
   35.9010   19.9580   32.0910 C   0  0  0  0  0  0  0  0  0  0  0  0
   36.2680   19.5930   30.6450 C   0  0  0  0  0  0  0  0  0  0  0  0
   35.4630   18.7260   32.8650 C   0  0  0  0  0  0  0  0  0  0  0  0
   34.7230   20.9120   32.0650 C   0  0  0  0  0  0  0  0  0  0  0  0
   35.9788   21.7609   34.1830 H   0  0  0  0  0  0  0  0  0  0  0  0
   40.3711   20.7593   32.2358 H   0  0  0  0  0  0  0  0  0  0  0  0
   37.6227   21.5160   36.7366 H   0  0  0  0  0  0  0  0  0  0  0  0
   37.5267   22.9810   38.7309 H   0  0  0  0  0  0  0  0  0  0  0  0
   37.9424   25.4532   38.4660 H   0  0  0  0  0  0  0  0  0  0  0  0
   38.4319   26.3455   36.2097 H   0  0  0  0  0  0  0  0  0  0  0  0
   38.5161   24.8613   34.2584 H   0  0  0  0  0  0  0  0  0  0  0  0
   37.0479   18.8173   30.6493 H   0  0  0  0  0  0  0  0  0  0  0  0
   35.3761   19.2133   30.1250 H   0  0  0  0  0  0  0  0  0  0  0  0
   36.6428   20.4869   30.1250 H   0  0  0  0  0  0  0  0  0  0  0  0
   35.5343   18.9265   33.9442 H   0  0  0  0  0  0  0  0  0  0  0  0
   34.4226   18.4807   32.6056 H   0  0  0  0  0  0  0  0  0  0  0  0
   36.1151   17.8790   32.6056 H   0  0  0  0  0  0  0  0  0  0  0  0
   34.4243   21.1539   33.0957 H   0  0  0  0  0  0  0  0  0  0  0  0
   35.0103   21.8351   31.5402 H   0  0  0  0  0  0  0  0  0  0  0  0
   33.8798   20.4392   31.5402 H   0  0  0  0  0  0  0  0  0  0  0  0
  1  7  1  0
  2  1  2  0
  3  2  1  0
  4  3  2  0
  4  5  1  0
  5  6  2  0
  6  1  1  0
  7  8  2  0
  8  9  1  0
 10  9  2  0
 11 10  1  0
 12  7  1  0
 12 11  2  0
 13  3  1  0
 13 15  1  0
 14 13  1  0
 16 13  1  0
  2 17  1  0
  5 18  1  0
  8 19  1  0
  9 20  1  0
 10 21  1  0
 11 22  1  0
 12 23  1  0
 14 24  1  0
 14 25  1  0
 14 26  1  0
 15 27  1  0
 15 28  1  0
 15 29  1  0
 16 30  1  0
 16 31  1  0
 16 32  1  0
M  ISO  8  17  14  18  14  19  14  20  14  21  14  22  14  23  14  24   8
M  ISO  8  25   8  26   8  27   8  28   8  29   8  30   8  31   8  32   8
M  END
>  <minimizedAffinity>  (1) 
-4.50425339

>  <minimizedRMSD>  (1) 
6.43839693

$$$$
