
     RDKit          3D

 39 43  0  0  0  0  0  0  0  0999 V2000
   37.7050   23.0030   33.5300 C   0  0  0  0  0  0  0  0  0  0  0  0
   37.3540   24.2170   32.9400 C   0  0  0  0  0  0  0  0  0  0  0  0
   38.1530   25.3170   33.1910 C   0  0  0  0  0  0  0  0  0  0  0  0
   39.2490   25.1410   34.0130 N   0  0  0  0  0  0  0  0  0  0  0  0
   39.5620   23.9710   34.5660 C   0  0  0  0  0  0  0  0  0  0  0  0
   38.8000   22.9100   34.3280 N   0  0  0  0  0  0  0  0  0  0  0  0
   36.9650   21.8090   33.3470 N   0  0  0  0  0  0  0  0  0  0  0  0
   36.2130   21.2770   34.3610 C   0  0  0  0  0  0  0  0  0  0  0  0
   35.5940   20.1500   33.9810 N   0  0  0  0  0  0  0  0  0  0  0  0
   35.9310   19.9240   32.7080 C   0  0  0  0  0  0  0  0  0  0  0  0
   35.6550   18.9640   31.7340 C   0  0  0  0  0  0  0  0  0  0  0  0
   36.1850   19.0450   30.5000 N   0  0  0  0  0  0  0  0  0  0  0  0
   37.0020   20.0810   30.2040 C   0  0  0  0  0  0  0  0  0  0  0  0
   37.3060   21.0410   31.1060 N   0  0  0  0  0  0  0  0  0  0  0  0
   36.7740   20.9590   32.3420 C   0  0  0  0  0  0  0  0  0  0  0  0
   34.7780   17.9310   32.2080 N   0  0  0  0  0  0  0  0  0  0  0  0
   37.7900   26.5910   32.5750 C   0  0  0  0  0  0  0  0  0  0  0  0
   36.7300   27.3870   33.0340 C   0  0  0  0  0  0  0  0  0  0  0  0
   36.7140   28.4640   32.2170 N   0  0  0  0  0  0  0  0  0  0  0  0
   37.7090   28.3070   31.3310 C   0  0  0  0  0  0  0  0  0  0  0  0
   38.3730   27.1850   31.5250 N   0  0  0  0  0  0  0  0  0  0  0  0
   39.4820   26.7120   30.7670 C   0  0  0  0  0  0  0  0  0  0  0  0
   40.7980   27.0900   31.0430 C   0  0  0  0  0  0  0  0  0  0  0  0
   41.8540   26.6090   30.2830 C   0  0  0  0  0  0  0  0  0  0  0  0
   41.5190   25.7460   29.2510 C   0  0  0  0  0  0  0  0  0  0  0  0
   40.2090   25.3600   28.9630 C   0  0  0  0  0  0  0  0  0  0  0  0
   39.2230   25.8580   29.7350 N   0  0  0  0  0  0  0  0  0  0  0  0
   36.4674   24.2970   32.2939 H   0  0  0  0  0  0  0  0  0  0  0  0
   40.4456   23.8840   35.2154 H   0  0  0  0  0  0  0  0  0  0  0  0
   36.1275   21.7202   35.3641 H   0  0  0  0  0  0  0  0  0  0  0  0
   37.4342   20.1449   29.1945 H   0  0  0  0  0  0  0  0  0  0  0  0
   34.4998   17.1634   31.5801 H   0  0  0  0  0  0  0  0  0  0  0  0
   34.4270   17.9575   33.1760 H   0  0  0  0  0  0  0  0  0  0  0  0
   36.0560   27.1793   33.8781 H   0  0  0  0  0  0  0  0  0  0  0  0
   37.9433   29.0299   30.5357 H   0  0  0  0  0  0  0  0  0  0  0  0
   41.0001   27.7797   31.8758 H   0  0  0  0  0  0  0  0  0  0  0  0
   42.8962   26.8955   30.4872 H   0  0  0  0  0  0  0  0  0  0  0  0
   42.3294   25.3438   28.6254 H   0  0  0  0  0  0  0  0  0  0  0  0
   39.9887   24.6721   28.1334 H   0  0  0  0  0  0  0  0  0  0  0  0
  1  6  2  0
  2  3  2  0
  2  1  1  0
  3  4  1  0
  4  5  2  0
  6  5  1  0
  7  1  1  0
  7  8  1  0
  9  8  2  0
 10  9  1  0
 11 16  1  0
 11 10  2  0
 12 11  1  0
 13 12  2  0
 13 14  1  0
 14 15  2  0
 15 10  1  0
 15  7  1  0
 17 18  2  0
 17  3  1  0
 19 18  1  0
 20 21  1  0
 20 19  2  0
 21 17  1  0
 22 23  2  0
 22 21  1  0
 24 23  1  0
 25 24  2  0
 26 25  1  0
 26 27  2  0
 27 22  1  0
  2 28  1  0
  5 29  1  0
  8 30  1  0
 13 31  1  0
 16 32  1  0
 16 33  1  0
 18 34  1  0
 20 35  1  0
 23 36  1  0
 24 37  1  0
 25 38  1  0
 26 39  1  0
M  ISO  8  28  14  29  14  30  14  31  14  34  14  35  14  36  14  37  14
M  ISO  2  38  14  39  14
M  END
>  <minimizedAffinity>  (1) 
-5.05588913

>  <minimizedRMSD>  (1) 
1.62458038

$$$$
