
     RDKit          3D

 38 42  0  0  0  0  0  0  0  0999 V2000
   37.7050   22.9910   33.5500 C   0  0  0  0  0  0  0  0  0  0  0  0
   37.3660   24.2060   32.9350 C   0  0  0  0  0  0  0  0  0  0  0  0
   38.1790   25.3030   33.1930 C   0  0  0  0  0  0  0  0  0  0  0  0
   39.2590   25.1240   34.0330 N   0  0  0  0  0  0  0  0  0  0  0  0
   39.5530   23.9560   34.6020 C   0  0  0  0  0  0  0  0  0  0  0  0
   38.7880   22.8920   34.3690 N   0  0  0  0  0  0  0  0  0  0  0  0
   36.9620   21.8030   33.3720 N   0  0  0  0  0  0  0  0  0  0  0  0
   36.2120   21.2710   34.3750 C   0  0  0  0  0  0  0  0  0  0  0  0
   35.5920   20.1430   33.9820 N   0  0  0  0  0  0  0  0  0  0  0  0
   35.9400   19.9270   32.6990 C   0  0  0  0  0  0  0  0  0  0  0  0
   35.6480   18.9610   31.7460 C   0  0  0  0  0  0  0  0  0  0  0  0
   36.1800   19.0430   30.5130 N   0  0  0  0  0  0  0  0  0  0  0  0
   37.0060   20.0820   30.2110 C   0  0  0  0  0  0  0  0  0  0  0  0
   37.3100   21.0390   31.1180 N   0  0  0  0  0  0  0  0  0  0  0  0
   36.7790   20.9550   32.3470 C   0  0  0  0  0  0  0  0  0  0  0  0
   34.7760   17.9320   32.1840 N   0  0  0  0  0  0  0  0  0  0  0  0
   37.8320   26.5730   32.5550 C   0  0  0  0  0  0  0  0  0  0  0  0
   36.7870   27.3960   33.0270 C   0  0  0  0  0  0  0  0  0  0  0  0
   36.7760   28.4610   32.1890 N   0  0  0  0  0  0  0  0  0  0  0  0
   37.7620   28.2690   31.2790 C   0  0  0  0  0  0  0  0  0  0  0  0
   38.4050   27.1340   31.4910 N   0  0  0  0  0  0  0  0  0  0  0  0
   39.4920   26.6110   30.7340 C   0  0  0  0  0  0  0  0  0  0  0  0
   40.8350   26.9340   30.9380 C   0  0  0  0  0  0  0  0  0  0  0  0
   41.8050   26.3550   30.1300 C   0  0  0  0  0  0  0  0  0  0  0  0
   41.5100   25.4830   29.1420 N   0  0  0  0  0  0  0  0  0  0  0  0
   40.1940   25.1880   28.9660 C   0  0  0  0  0  0  0  0  0  0  0  0
   39.2180   25.7290   29.7300 N   0  0  0  0  0  0  0  0  0  0  0  0
   36.4904   24.2869   32.2741 H   0  0  0  0  0  0  0  0  0  0  0  0
   40.4274   23.8709   35.2640 H   0  0  0  0  0  0  0  0  0  0  0  0
   36.1236   21.7080   35.3806 H   0  0  0  0  0  0  0  0  0  0  0  0
   37.4384   20.1454   29.2015 H   0  0  0  0  0  0  0  0  0  0  0  0
   34.5078   17.1750   31.5391 H   0  0  0  0  0  0  0  0  0  0  0  0
   34.4108   17.9416   33.1470 H   0  0  0  0  0  0  0  0  0  0  0  0
   36.1260   27.2130   33.8870 H   0  0  0  0  0  0  0  0  0  0  0  0
   37.9977   28.9706   30.4652 H   0  0  0  0  0  0  0  0  0  0  0  0
   41.1220   27.6402   31.7310 H   0  0  0  0  0  0  0  0  0  0  0  0
   42.8591   26.6181   30.3023 H   0  0  0  0  0  0  0  0  0  0  0  0
   39.9125   24.4817   28.1711 H   0  0  0  0  0  0  0  0  0  0  0  0
  1  6  2  0
  2  3  2  0
  2  1  1  0
  3  4  1  0
  4  5  2  0
  6  5  1  0
  7  1  1  0
  7  8  1  0
  9  8  2  0
 10  9  1  0
 11 16  1  0
 11 10  2  0
 12 11  1  0
 13 12  2  0
 13 14  1  0
 14 15  2  0
 15 10  1  0
 15  7  1  0
 17 18  2  0
 17  3  1  0
 19 18  1  0
 20 21  1  0
 20 19  2  0
 21 17  1  0
 22 23  2  0
 22 21  1  0
 24 23  1  0
 25 24  2  0
 26 25  1  0
 26 27  2  0
 27 22  1  0
  2 28  1  0
  5 29  1  0
  8 30  1  0
 13 31  1  0
 16 32  1  0
 16 33  1  0
 18 34  1  0
 20 35  1  0
 23 36  1  0
 24 37  1  0
 26 38  1  0
M  ISO  8  28  14  29  14  30  14  31  14  34  14  35  14  36  14  37  14
M  ISO  1  38  14
M  END
>  <minimizedAffinity>  (1) 
-5.03521872

>  <minimizedRMSD>  (1) 
1.56568563

$$$$
