
     RDKit          3D

 29 29  0  0  0  0  0  0  0  0999 V2000
   41.8370   21.5890   37.1400 C   0  0  0  0  0  0  0  0  0  0  0  0
   40.5280   21.9550   37.4450 C   0  0  0  0  0  0  0  0  0  0  0  0
   39.9520   23.0400   36.7660 C   0  0  0  0  0  0  0  0  0  0  0  0
   40.7120   23.6830   35.8370 N   0  0  0  0  0  0  0  0  0  0  0  0
   41.9750   23.3070   35.5620 C   0  0  0  0  0  0  0  0  0  0  0  0
   42.5380   22.2600   36.2140 N   0  0  0  0  0  0  0  0  0  0  0  0
   42.3570   20.4740   37.8650 N   0  0  0  0  0  0  0  0  0  0  0  0
   42.9340   19.4050   37.1590 C   0  0  0  0  0  0  0  0  0  0  0  0
   43.6720   19.5930   36.1200 N   0  0  0  0  0  0  0  0  0  0  0  0
   42.7260   18.0370   37.5700 N   0  0  0  0  0  0  0  0  0  0  0  0
   43.9040   20.5160   35.7200 H   0  0  0  0  0  0  0  0  0  0  0  0
   38.5910   23.5040   37.0050 C   0  0  0  0  0  0  0  0  0  0  0  0
   38.3660   23.4290   38.5240 C   0  0  0  0  0  0  0  0  0  0  0  0
   38.2940   24.8760   36.4810 C   0  0  0  0  0  0  0  0  0  0  0  0
   37.6060   22.5340   36.3360 C   0  0  0  0  0  0  0  0  0  0  0  0
   39.9555   21.4031   38.2050 H   0  0  0  0  0  0  0  0  0  0  0  0
   42.5544   23.8531   34.8030 H   0  0  0  0  0  0  0  0  0  0  0  0
   42.3096   20.4537   38.8937 H   0  0  0  0  0  0  0  0  0  0  0  0
   43.1583   17.2681   37.0382 H   0  0  0  0  0  0  0  0  0  0  0  0
   42.1453   17.8298   38.3951 H   0  0  0  0  0  0  0  0  0  0  0  0
   39.2844   23.7351   39.0463 H   0  0  0  0  0  0  0  0  0  0  0  0
   37.5423   24.1012   38.8063 H   0  0  0  0  0  0  0  0  0  0  0  0
   38.1103   22.3970   38.8063 H   0  0  0  0  0  0  0  0  0  0  0  0
   38.1446   25.5662   37.3244 H   0  0  0  0  0  0  0  0  0  0  0  0
   39.1375   25.2245   35.8670 H   0  0  0  0  0  0  0  0  0  0  0  0
   37.3819   24.8445   35.8670 H   0  0  0  0  0  0  0  0  0  0  0  0
   37.0490   21.9854   37.1098 H   0  0  0  0  0  0  0  0  0  0  0  0
   36.9016   23.1008   35.7095 H   0  0  0  0  0  0  0  0  0  0  0  0
   38.1620   21.8210   35.7095 H   0  0  0  0  0  0  0  0  0  0  0  0
  1  2  2  0
  1  7  1  0
  3 12  1  0
  3  2  1  0
  4  3  2  0
  5  4  1  0
  5  6  2  0
  6  1  1  0
  8 10  1  0
  8  7  1  0
  9  8  2  0
 11  9  1  0
 12 13  1  0
 14 12  1  0
 15 12  1  0
  2 16  1  0
  5 17  1  0
  7 18  1  0
 10 19  1  0
 10 20  1  0
 13 21  1  0
 13 22  1  0
 13 23  1  0
 14 24  1  0
 14 25  1  0
 14 26  1  0
 15 27  1  0
 15 28  1  0
 15 29  1  0
M  ISO  8  16  14  17  14  21   8  22   8  23   8  24   8  25   8  26   8
M  ISO  3  27   8  28   8  29   8
M  END
>  <minimizedAffinity>  (1) 
-4.40188122

>  <minimizedRMSD>  (1) 
1.34351087

$$$$
