
     RDKit          3D

 23 25  0  0  0  0  0  0  0  0999 V2000
   38.1740   22.9200   34.5410 C   0  0  0  0  0  0  0  0  0  0  0  0
   37.8730   21.7540   34.1460 O   0  0  0  0  0  0  0  0  0  0  0  0
   36.5000   25.0880   30.8020 N   0  0  0  0  0  0  0  0  0  0  0  0
   35.8530   23.9260   31.0230 C   0  0  0  0  0  0  0  0  0  0  0  0
   36.3510   23.2940   32.1230 N   0  0  0  0  0  0  0  0  0  0  0  0
   37.3300   24.1010   32.5830 C   0  0  0  0  0  0  0  0  0  0  0  0
   38.2040   24.0580   33.6280 C   0  0  0  0  0  0  0  0  0  0  0  0
   39.0930   25.0370   33.8400 N   0  0  0  0  0  0  0  0  0  0  0  0
   39.1880   26.1230   33.0470 C   0  0  0  0  0  0  0  0  0  0  0  0
   38.3330   26.1840   32.0080 N   0  0  0  0  0  0  0  0  0  0  0  0
   37.4290   25.2170   31.7700 C   0  0  0  0  0  0  0  0  0  0  0  0
   39.8900   22.7530   37.7800 C   0  0  0  0  0  0  0  0  0  0  0  0
   38.9730   23.3790   38.6390 C   0  0  0  0  0  0  0  0  0  0  0  0
   37.7720   23.8520   38.0940 C   0  0  0  0  0  0  0  0  0  0  0  0
   37.5840   23.6640   36.7410 N   0  0  0  0  0  0  0  0  0  0  0  0
   38.4910   23.0620   35.9710 C   0  0  0  0  0  0  0  0  0  0  0  0
   39.6530   22.5990   36.4820 N   0  0  0  0  0  0  0  0  0  0  0  0
   36.3183   25.7528   30.0366 H   0  0  0  0  0  0  0  0  0  0  0  0
   35.0333   23.5399   30.3993 H   0  0  0  0  0  0  0  0  0  0  0  0
   39.9247   26.9172   33.2383 H   0  0  0  0  0  0  0  0  0  0  0  0
   40.8366   22.3774   38.1957 H   0  0  0  0  0  0  0  0  0  0  0  0
   39.1914   23.4950   39.7108 H   0  0  0  0  0  0  0  0  0  0  0  0
   37.0143   24.3502   38.7166 H   0  0  0  0  0  0  0  0  0  0  0  0
  1 16  1  0
  2  1  2  0
  3  4  1  0
  3 11  1  0
  4  5  2  0
  5  6  1  0
  6  7  2  0
  7  8  1  0
  7  1  1  0
  9  8  2  0
 10  9  1  0
 11 10  2  0
 11  6  1  0
 12 13  2  0
 14 13  1  0
 15 14  2  0
 16 17  2  0
 16 15  1  0
 17 12  1  0
  3 18  1  0
  4 19  1  0
  9 20  1  0
 12 21  1  0
 13 22  1  0
 14 23  1  0
M  ISO  6  18   9  19  14  20  14  21  14  22  14  23  14
M  END
>  <minimizedAffinity>  (1) 
-4.45475721

>  <minimizedRMSD>  (1) 
1.85434937

$$$$
