
     RDKit          3D

 21 22  0  0  0  0  0  0  0  0999 V2000
   39.9500   22.5890   37.2300 C   0  0  0  0  0  0  0  0  0  0  0  0
   39.3420   23.3190   38.2790 C   0  0  0  0  0  0  0  0  0  0  0  0
   37.9520   23.5290   38.2270 C   0  0  0  0  0  0  0  0  0  0  0  0
   37.2790   23.0110   37.1620 N   0  0  0  0  0  0  0  0  0  0  0  0
   37.8920   22.3180   36.1770 C   0  0  0  0  0  0  0  0  0  0  0  0
   39.2230   22.1030   36.2050 N   0  0  0  0  0  0  0  0  0  0  0  0
   37.0820   21.7960   35.0660 C   0  0  0  0  0  0  0  0  0  0  0  0
   36.1700   20.9730   35.4310 O   0  0  0  0  0  0  0  0  0  0  0  0
   37.2180   22.1140   33.6700 C   0  0  0  0  0  0  0  0  0  0  0  0
   36.6230   21.2740   32.7870 C   0  0  0  0  0  0  0  0  0  0  0  0
   36.7490   21.5740   31.4250 C   0  0  0  0  0  0  0  0  0  0  0  0
   37.4540   22.6880   30.9570 C   0  0  0  0  0  0  0  0  0  0  0  0
   38.0230   23.4830   31.9310 C   0  0  0  0  0  0  0  0  0  0  0  0
   37.8900   23.1740   33.2420 N   0  0  0  0  0  0  0  0  0  0  0  0
   41.0360   22.4152   37.2519 H   0  0  0  0  0  0  0  0  0  0  0  0
   39.9410   23.7121   39.1136 H   0  0  0  0  0  0  0  0  0  0  0  0
   37.4289   24.0897   39.0157 H   0  0  0  0  0  0  0  0  0  0  0  0
   36.0628   20.3908   33.1277 H   0  0  0  0  0  0  0  0  0  0  0  0
   36.2736   20.9055   30.6922 H   0  0  0  0  0  0  0  0  0  0  0  0
   37.5484   22.9150   29.8848 H   0  0  0  0  0  0  0  0  0  0  0  0
   38.5913   24.3783   31.6385 H   0  0  0  0  0  0  0  0  0  0  0  0
  1  2  2  0
  3  2  1  0
  4  3  2  0
  5  6  2  0
  5  4  1  0
  6  1  1  0
  7  8  2  0
  7  5  1  0
  9  7  1  0
 10  9  2  0
 11 10  1  0
 12 11  2  0
 12 13  1  0
 13 14  2  0
 14  9  1  0
  1 15  1  0
  2 16  1  0
  3 17  1  0
 10 18  1  0
 11 19  1  0
 12 20  1  0
 13 21  1  0
M  ISO  7  15  14  16  14  17  14  18  14  19  14  20  14  21  14
M  END
>  <minimizedAffinity>  (1) 
-3.68071437

>  <minimizedRMSD>  (1) 
1.26645172

$$$$
