
     RDKit          3D

 24 25  0  0  0  0  0  0  0  0999 V2000
   39.7180   22.8130   37.8130 C   0  0  0  0  0  0  0  0  0  0  0  0
   38.9140   23.4350   38.7700 C   0  0  0  0  0  0  0  0  0  0  0  0
   37.8440   24.1870   38.3050 C   0  0  0  0  0  0  0  0  0  0  0  0
   37.6390   24.2740   36.9440 N   0  0  0  0  0  0  0  0  0  0  0  0
   38.4450   23.6540   36.0700 C   0  0  0  0  0  0  0  0  0  0  0  0
   39.5030   22.9100   36.5050 N   0  0  0  0  0  0  0  0  0  0  0  0
   38.1740   23.7860   34.6280 C   0  0  0  0  0  0  0  0  0  0  0  0
   37.7030   22.7370   34.0890 O   0  0  0  0  0  0  0  0  0  0  0  0
   38.4610   25.0350   34.0070 N   0  0  0  0  0  0  0  0  0  0  0  0
   39.7460   25.6040   33.6420 C   0  0  0  0  0  0  0  0  0  0  0  0
   39.5160   27.0730   33.4920 C   0  0  0  0  0  0  0  0  0  0  0  0
   38.0830   27.1720   33.0720 C   0  0  0  0  0  0  0  0  0  0  0  0
   37.3930   25.9500   33.6410 C   0  0  0  0  0  0  0  0  0  0  0  0
   40.5723   22.2125   38.1589 H   0  0  0  0  0  0  0  0  0  0  0  0
   39.1196   23.3335   39.8458 H   0  0  0  0  0  0  0  0  0  0  0  0
   37.1732   24.7030   39.0077 H   0  0  0  0  0  0  0  0  0  0  0  0
   40.4877   25.4115   34.4312 H   0  0  0  0  0  0  0  0  0  0  0  0
   40.1355   25.1595   32.7143 H   0  0  0  0  0  0  0  0  0  0  0  0
   39.6810   27.5944   34.4464 H   0  0  0  0  0  0  0  0  0  0  0  0
   40.2028   27.5383   32.7697 H   0  0  0  0  0  0  0  0  0  0  0  0
   37.6294   28.0892   33.4758 H   0  0  0  0  0  0  0  0  0  0  0  0
   37.9873   27.2141   31.9770 H   0  0  0  0  0  0  0  0  0  0  0  0
   36.7992   26.2213   34.5263 H   0  0  0  0  0  0  0  0  0  0  0  0
   36.7000   25.4985   32.9158 H   0  0  0  0  0  0  0  0  0  0  0  0
  1  2  2  0
  3  2  1  0
  4  3  2  0
  5  6  2  0
  5  4  1  0
  6  1  1  0
  7  5  1  0
  8  7  2  0
  9  7  1  0
 10  9  1  0
 11 10  1  0
 12 11  1  0
 12 13  1  0
 13  9  1  0
  1 14  1  0
  2 15  1  0
  3 16  1  0
 10 17  1  0
 10 18  1  0
 11 19  1  0
 11 20  1  0
 12 21  1  0
 12 22  1  0
 13 23  1  0
 13 24  1  0
M  ISO  8  14  14  15  14  16  14  17  13  18  13  19  13  20  13  21  13
M  ISO  3  22  13  23  13  24  13
M  END
>  <minimizedAffinity>  (1) 
-3.90662551

>  <minimizedRMSD>  (1) 
2.41532588

$$$$
