
     RDKit          3D

 19 20  0  0  0  0  0  0  0  0999 V2000
   39.7330   22.7970   37.7760 C   0  0  0  0  0  0  0  0  0  0  0  0
   38.9250   23.4210   38.7450 C   0  0  0  0  0  0  0  0  0  0  0  0
   37.8500   24.1850   38.3170 C   0  0  0  0  0  0  0  0  0  0  0  0
   37.6350   24.2890   36.9640 N   0  0  0  0  0  0  0  0  0  0  0  0
   38.4310   23.6760   36.0560 C   0  0  0  0  0  0  0  0  0  0  0  0
   39.4820   22.9300   36.4800 N   0  0  0  0  0  0  0  0  0  0  0  0
   38.1170   23.8490   34.6390 C   0  0  0  0  0  0  0  0  0  0  0  0
   37.9280   22.7790   33.9950 O   0  0  0  0  0  0  0  0  0  0  0  0
   38.0160   25.1230   33.9660 C   0  0  0  0  0  0  0  0  0  0  0  0
   39.0300   26.0580   34.0160 C   0  0  0  0  0  0  0  0  0  0  0  0
   38.5490   27.1270   33.2520 C   0  0  0  0  0  0  0  0  0  0  0  0
   37.2770   26.7710   32.7890 C   0  0  0  0  0  0  0  0  0  0  0  0
   37.0160   25.5710   33.2450 O   0  0  0  0  0  0  0  0  0  0  0  0
   40.5894   22.1871   38.0996 H   0  0  0  0  0  0  0  0  0  0  0  0
   39.1414   23.3052   39.8173 H   0  0  0  0  0  0  0  0  0  0  0  0
   37.1907   24.6914   39.0373 H   0  0  0  0  0  0  0  0  0  0  0  0
   39.9955   25.9805   34.5373 H   0  0  0  0  0  0  0  0  0  0  0  0
   39.0738   28.0728   33.0521 H   0  0  0  0  0  0  0  0  0  0  0  0
   36.6179   27.3857   32.1584 H   0  0  0  0  0  0  0  0  0  0  0  0
  1  2  2  0
  3  2  1  0
  4  3  2  0
  5  6  2  0
  5  4  1  0
  6  1  1  0
  7  5  1  0
  8  7  2  0
  9 10  2  0
  9  7  1  0
 11 10  1  0
 12 13  1  0
 12 11  2  0
 13  9  1  0
  1 14  1  0
  2 15  1  0
  3 16  1  0
 10 17  1  0
 11 18  1  0
 12 19  1  0
M  ISO  6  14  14  15  14  16  14  17  14  18  14  19  14
M  END
>  <minimizedAffinity>  (1) 
-3.67143321

>  <minimizedRMSD>  (1) 
2.61662245

$$$$
