
     RDKit          3D

 19 20  0  0  0  0  0  0  0  0999 V2000
   39.9230   22.7160   37.7090 C   0  0  0  0  0  0  0  0  0  0  0  0
   39.0760   23.3260   38.6600 C   0  0  0  0  0  0  0  0  0  0  0  0
   37.8240   23.7410   38.2390 C   0  0  0  0  0  0  0  0  0  0  0  0
   37.4940   23.5290   36.9180 N   0  0  0  0  0  0  0  0  0  0  0  0
   38.3290   22.9450   36.0480 C   0  0  0  0  0  0  0  0  0  0  0  0
   39.5520   22.5320   36.4310 N   0  0  0  0  0  0  0  0  0  0  0  0
   37.8770   22.7670   34.6640 C   0  0  0  0  0  0  0  0  0  0  0  0
   37.4360   21.6190   34.3630 O   0  0  0  0  0  0  0  0  0  0  0  0
   37.9110   23.8120   33.6480 C   0  0  0  0  0  0  0  0  0  0  0  0
   37.4910   23.5760   32.3560 C   0  0  0  0  0  0  0  0  0  0  0  0
   37.6850   24.8120   31.7270 C   0  0  0  0  0  0  0  0  0  0  0  0
   38.1920   25.7090   32.6220 N   0  0  0  0  0  0  0  0  0  0  0  0
   38.3270   25.0810   33.8010 N   0  0  0  0  0  0  0  0  0  0  0  0
   40.9213   22.3798   38.0256 H   0  0  0  0  0  0  0  0  0  0  0  0
   39.4004   23.4669   39.7016 H   0  0  0  0  0  0  0  0  0  0  0  0
   37.1191   24.2220   38.9331 H   0  0  0  0  0  0  0  0  0  0  0  0
   37.0988   22.6434   31.9243 H   0  0  0  0  0  0  0  0  0  0  0  0
   37.4625   25.0273   30.6715 H   0  0  0  0  0  0  0  0  0  0  0  0
   38.4288   26.6924   32.4276 H   0  0  0  0  0  0  0  0  0  0  0  0
  1  2  2  0
  3  2  1  0
  4  3  2  0
  5  6  2  0
  5  4  1  0
  6  1  1  0
  7  5  1  0
  8  7  2  0
  9 13  2  0
  9  7  1  0
 10  9  1  0
 11 10  2  0
 11 12  1  0
 12 13  1  0
  1 14  1  0
  2 15  1  0
  3 16  1  0
 10 17  1  0
 11 18  1  0
 12 19  1  0
M  ISO  6  14  14  15  14  16  14  17  14  18  14  19   9
M  END
>  <minimizedAffinity>  (1) 
-3.44897699

>  <minimizedRMSD>  (1) 
1.60959744

$$$$
