
     RDKit          3D

 39 42  0  0  1  0  0  0  0  0999 V2000
   37.5230   21.9620   34.9300 C   0  0  0  0  0  0  0  0  0  0  0  0
   36.4630   21.4810   35.3850 O   0  0  0  0  0  0  0  0  0  0  0  0
   37.5890   22.2410   33.5360 N   0  0  0  0  0  0  0  0  0  0  0  0
   36.7390   21.3680   32.7150 C   0  0  0  0  0  0  0  0  0  0  0  0
   36.6250   21.8820   31.3060 C   0  0  0  0  0  0  0  0  0  0  0  0
   36.5230   23.2420   31.1960 O   0  0  0  0  0  0  0  0  0  0  0  0
   37.2450   24.0140   32.0440 C   0  0  0  0  0  0  0  0  0  0  0  0
   38.3280   23.2000   32.7780 C   0  0  1  0  0  0  0  0  0  0  0  0
   39.1970   24.1240   33.4840 C   0  0  0  0  0  0  0  0  0  0  0  0
   40.5160   23.9090   33.5420 N   0  0  0  0  0  0  0  0  0  0  0  0
   41.4020   24.6750   34.1840 C   0  0  0  0  0  0  0  0  0  0  0  0
   40.9940   25.7840   34.8580 N   0  0  0  0  0  0  0  0  0  0  0  0
   39.6810   26.1030   34.8700 C   0  0  0  0  0  0  0  0  0  0  0  0
   39.2160   27.2150   35.5370 C   0  0  0  0  0  0  0  0  0  0  0  0
   37.8790   27.5450   35.5540 C   0  0  0  0  0  0  0  0  0  0  0  0
   37.0100   26.7040   34.8650 C   0  0  0  0  0  0  0  0  0  0  0  0
   37.5050   25.5990   34.2060 C   0  0  0  0  0  0  0  0  0  0  0  0
   38.8400   25.2570   34.1810 C   0  0  0  0  0  0  0  0  0  0  0  0
   40.7490   21.8650   36.7060 C   0  0  0  0  0  0  0  0  0  0  0  0
   40.5090   22.6740   37.8060 C   0  0  0  0  0  0  0  0  0  0  0  0
   39.2630   23.2410   37.9390 C   0  0  0  0  0  0  0  0  0  0  0  0
   38.3560   22.9560   36.9620 N   0  0  0  0  0  0  0  0  0  0  0  0
   38.5860   22.1810   35.9070 C   0  0  0  0  0  0  0  0  0  0  0  0
   39.8100   21.6420   35.8050 N   0  0  0  0  0  0  0  0  0  0  0  0
   37.1768   20.3591   32.6938 H   0  0  0  0  0  0  0  0  0  0  0  0
   35.7327   21.3471   33.1588 H   0  0  0  0  0  0  0  0  0  0  0  0
   37.5188   21.5603   30.7514 H   0  0  0  0  0  0  0  0  0  0  0  0
   35.6895   21.4684   30.9012 H   0  0  0  0  0  0  0  0  0  0  0  0
   37.7310   24.8160   31.4690 H   0  0  0  0  0  0  0  0  0  0  0  0
   36.5589   24.4277   32.7977 H   0  0  0  0  0  0  0  0  0  0  0  0
   39.0400   22.6348   32.1587 H   0  0  0  0  0  0  0  0  0  0  0  0
   42.4688   24.4073   34.1676 H   0  0  0  0  0  0  0  0  0  0  0  0
   39.9322   27.8570   36.0707 H   0  0  0  0  0  0  0  0  0  0  0  0
   37.5139   28.4343   36.0887 H   0  0  0  0  0  0  0  0  0  0  0  0
   35.9317   26.9204   34.8464 H   0  0  0  0  0  0  0  0  0  0  0  0
   36.7941   24.9534   33.6695 H   0  0  0  0  0  0  0  0  0  0  0  0
   41.7386   21.4010   36.5818 H   0  0  0  0  0  0  0  0  0  0  0  0
   41.2950   22.8577   38.5533 H   0  0  0  0  0  0  0  0  0  0  0  0
   39.0113   23.8910   38.7900 H   0  0  0  0  0  0  0  0  0  0  0  0
  1  2  2  0
  1 23  1  0
  3  1  1  0
  4  3  1  0
  5  4  1  0
  6  5  1  0
  6  7  1  0
  7  8  1  0
  8  9  1  0
  8  3  1  0
  9 10  2  0
  9 18  1  0
 10 11  1  0
 11 12  2  0
 12 13  1  0
 13 14  2  0
 14 15  1  0
 16 15  2  0
 17 16  1  0
 18 17  2  0
 18 13  1  0
 19 20  2  0
 20 21  1  0
 22 21  2  0
 23 22  1  0
 24 23  2  0
 24 19  1  0
  4 25  1  0
  4 26  1  0
  5 27  1  0
  5 28  1  0
  7 29  1  0
  7 30  1  0
  8 31  1  6
 11 32  1  0
 14 33  1  0
 15 34  1  0
 16 35  1  0
 17 36  1  0
 19 37  1  0
 20 38  1  0
 21 39  1  0
M  ISO  8  25  13  26  13  27  13  28  13  29  13  30  13  31  13  32  14
M  ISO  7  33  14  34  14  35  14  36  14  37  14  38  14  39  14
M  END
>  <minimizedAffinity>  (1) 
-5.76252937

>  <minimizedRMSD>  (1) 
1.57078898

$$$$
