
     RDKit          3D

 35 37  0  0  1  0  0  0  0  0999 V2000
   37.3630   22.0630   34.8970 C   0  0  0  0  0  0  0  0  0  0  0  0
   36.5370   21.1420   35.0900 O   0  0  0  0  0  0  0  0  0  0  0  0
   37.5550   22.5310   33.5630 N   0  0  0  0  0  0  0  0  0  0  0  0
   37.3150   21.5090   32.5390 C   0  0  0  0  0  0  0  0  0  0  0  0
   37.1950   22.1190   31.1680 C   0  0  0  0  0  0  0  0  0  0  0  0
   36.5530   23.3300   31.1210 O   0  0  0  0  0  0  0  0  0  0  0  0
   36.7700   24.2050   32.1250 C   0  0  0  0  0  0  0  0  0  0  0  0
   37.9400   23.7950   33.0330 C   0  0  1  0  0  0  0  0  0  0  0  0
   39.9110   22.8010   37.4550 C   0  0  0  0  0  0  0  0  0  0  0  0
   39.2060   23.5720   38.3680 C   0  0  0  0  0  0  0  0  0  0  0  0
   37.8800   23.8290   38.1080 C   0  0  0  0  0  0  0  0  0  0  0  0
   37.3740   23.2990   36.9660 N   0  0  0  0  0  0  0  0  0  0  0  0
   38.0510   22.5610   36.0910 C   0  0  0  0  0  0  0  0  0  0  0  0
   39.3420   22.3180   36.3560 N   0  0  0  0  0  0  0  0  0  0  0  0
   38.2510   24.8700   33.9530 C   0  0  0  0  0  0  0  0  0  0  0  0
   39.5830   25.1020   34.3160 C   0  0  0  0  0  0  0  0  0  0  0  0
   40.0210   26.0890   35.1540 C   0  0  0  0  0  0  0  0  0  0  0  0
   39.0910   26.9420   35.7040 C   0  0  0  0  0  0  0  0  0  0  0  0
   37.7540   26.7880   35.4020 C   0  0  0  0  0  0  0  0  0  0  0  0
   37.4040   25.7670   34.5490 C   0  0  0  0  0  0  0  0  0  0  0  0
   38.1535   20.7970   32.5413 H   0  0  0  0  0  0  0  0  0  0  0  0
   36.3685   21.0003   32.7744 H   0  0  0  0  0  0  0  0  0  0  0  0
   38.2100   22.2563   30.7668 H   0  0  0  0  0  0  0  0  0  0  0  0
   36.5791   21.4243   30.5781 H   0  0  0  0  0  0  0  0  0  0  0  0
   36.9921   25.1905   31.6898 H   0  0  0  0  0  0  0  0  0  0  0  0
   35.8622   24.2269   32.7459 H   0  0  0  0  0  0  0  0  0  0  0  0
   38.9116   23.6511   32.5378 H   0  0  0  0  0  0  0  0  0  0  0  0
   40.9721   22.5833   37.6467 H   0  0  0  0  0  0  0  0  0  0  0  0
   39.6928   23.9658   39.2724 H   0  0  0  0  0  0  0  0  0  0  0  0
   37.2625   24.4322   38.7898 H   0  0  0  0  0  0  0  0  0  0  0  0
   40.3436   24.4314   33.8896 H   0  0  0  0  0  0  0  0  0  0  0  0
   41.0912   26.1991   35.3834 H   0  0  0  0  0  0  0  0  0  0  0  0
   39.4135   27.7450   36.3831 H   0  0  0  0  0  0  0  0  0  0  0  0
   36.9936   27.4586   35.8286 H   0  0  0  0  0  0  0  0  0  0  0  0
   36.3331   25.6596   34.3219 H   0  0  0  0  0  0  0  0  0  0  0  0
  1  2  2  0
  1 13  1  0
  3  1  1  0
  4  3  1  0
  5  4  1  0
  6  5  1  0
  6  7  1  0
  7  8  1  0
  8  3  1  0
  8 15  1  0
  9 10  2  0
 11 10  1  0
 12 11  2  0
 13 14  2  0
 13 12  1  0
 14  9  1  0
 15 16  2  0
 15 20  1  0
 16 17  1  0
 17 18  2  0
 19 18  1  0
 20 19  2  0
  4 21  1  0
  4 22  1  0
  5 23  1  0
  5 24  1  0
  7 25  1  0
  7 26  1  0
  8 27  1  6
  9 28  1  0
 10 29  1  0
 11 30  1  0
 16 31  1  0
 17 32  1  0
 18 33  1  0
 19 34  1  0
 20 35  1  0
M  ISO  8  21  13  22  13  23  13  24  13  25  13  26  13  27  13  28  14
M  ISO  7  29  14  30  14  31  14  32  14  33  14  34  14  35  14
M  END
>  <minimizedAffinity>  (1) 
-5.32974958

>  <minimizedRMSD>  (1) 
0.682230771

$$$$
