
     RDKit          3D

 41 43  0  0  1  0  0  0  0  0999 V2000
   37.2780   21.9530   34.8200 C   0  0  0  0  0  0  0  0  0  0  0  0
   36.4140   21.0740   35.0050 O   0  0  0  0  0  0  0  0  0  0  0  0
   37.4740   22.4480   33.4960 N   0  0  0  0  0  0  0  0  0  0  0  0
   37.1560   21.4400   32.4760 C   0  0  0  0  0  0  0  0  0  0  0  0
   37.0970   22.0640   31.0930 C   0  0  0  0  0  0  0  0  0  0  0  0
   36.5200   23.2890   31.0490 O   0  0  0  0  0  0  0  0  0  0  0  0
   36.7570   24.1500   32.0910 C   0  0  0  0  0  0  0  0  0  0  0  0
   37.9080   23.6940   32.9700 C   0  0  1  0  0  0  0  0  0  0  0  0
   39.9390   22.5760   37.2680 C   0  0  0  0  0  0  0  0  0  0  0  0
   39.2820   23.2770   38.2720 C   0  0  0  0  0  0  0  0  0  0  0  0
   37.9410   23.5260   38.1040 C   0  0  0  0  0  0  0  0  0  0  0  0
   37.3390   23.0700   36.9630 N   0  0  0  0  0  0  0  0  0  0  0  0
   38.0110   22.3910   36.0060 C   0  0  0  0  0  0  0  0  0  0  0  0
   39.3190   22.1550   36.1850 N   0  0  0  0  0  0  0  0  0  0  0  0
   38.4820   24.7440   33.7950 C   0  0  0  0  0  0  0  0  0  0  0  0
   40.0130   24.6260   33.6900 C   0  0  0  0  0  0  0  0  0  0  0  0
   40.5200   25.4860   34.8570 C   0  0  0  0  0  0  0  0  0  0  0  0
   40.3680   26.9220   34.3800 C   0  0  0  0  0  0  0  0  0  0  0  0
   39.3990   27.0420   33.2480 C   0  0  0  0  0  0  0  0  0  0  0  0
   38.1660   26.1640   33.5130 C   0  0  0  0  0  0  0  0  0  0  0  0
   37.9324   20.6609   32.4861 H   0  0  0  0  0  0  0  0  0  0  0  0
   36.1716   21.0067   32.7069 H   0  0  0  0  0  0  0  0  0  0  0  0
   38.1257   22.1559   30.7144 H   0  0  0  0  0  0  0  0  0  0  0  0
   36.4679   21.4019   30.4799 H   0  0  0  0  0  0  0  0  0  0  0  0
   36.9972   25.1422   31.6814 H   0  0  0  0  0  0  0  0  0  0  0  0
   35.8510   24.1790   32.7141 H   0  0  0  0  0  0  0  0  0  0  0  0
   38.8598   23.4869   32.4590 H   0  0  0  0  0  0  0  0  0  0  0  0
   41.0127   22.3657   37.3816 H   0  0  0  0  0  0  0  0  0  0  0  0
   39.8166   23.6206   39.1698 H   0  0  0  0  0  0  0  0  0  0  0  0
   37.3680   24.0761   38.8650 H   0  0  0  0  0  0  0  0  0  0  0  0
   38.0228   24.5548   34.7765 H   0  0  0  0  0  0  0  0  0  0  0  0
   40.3354   23.5804   33.8031 H   0  0  0  0  0  0  0  0  0  0  0  0
   40.4021   24.9547   32.7150 H   0  0  0  0  0  0  0  0  0  0  0  0
   39.9139   25.3114   35.7582 H   0  0  0  0  0  0  0  0  0  0  0  0
   41.5594   25.2470   35.1264 H   0  0  0  0  0  0  0  0  0  0  0  0
   40.0109   27.5378   35.2186 H   0  0  0  0  0  0  0  0  0  0  0  0
   41.3500   27.2642   34.0213 H   0  0  0  0  0  0  0  0  0  0  0  0
   39.8850   26.7152   32.3169 H   0  0  0  0  0  0  0  0  0  0  0  0
   39.0810   28.0910   33.1560 H   0  0  0  0  0  0  0  0  0  0  0  0
   37.6282   26.5766   34.3794 H   0  0  0  0  0  0  0  0  0  0  0  0
   37.5640   26.1776   32.5925 H   0  0  0  0  0  0  0  0  0  0  0  0
  1  2  2  0
  1 13  1  0
  3  1  1  0
  4  3  1  0
  5  4  1  0
  6  5  1  0
  6  7  1  0
  7  8  1  0
  8  3  1  0
  8 15  1  0
  9 10  2  0
 11 10  1  0
 12 11  2  0
 13 14  2  0
 13 12  1  0
 14  9  1  0
 16 15  1  0
 16 17  1  0
 18 17  1  0
 19 20  1  0
 19 18  1  0
 20 15  1  0
  4 21  1  0
  4 22  1  0
  5 23  1  0
  5 24  1  0
  7 25  1  0
  7 26  1  0
  8 27  1  6
  9 28  1  0
 10 29  1  0
 11 30  1  0
 15 31  1  0
 16 32  1  0
 16 33  1  0
 17 34  1  0
 17 35  1  0
 18 36  1  0
 18 37  1  0
 19 38  1  0
 19 39  1  0
 20 40  1  0
 20 41  1  0
M  ISO  8  21  13  22  13  23  13  24  13  25  13  26  13  27  13  28  14
M  ISO  8  29  14  30  14  31  13  32  13  33  13  34  13  35  13  36  13
M  ISO  5  37  13  38  13  39  13  40  13  41  13
M  END
>  <minimizedAffinity>  (1) 
-5.14639854

>  <minimizedRMSD>  (1) 
0.656560481

$$$$
