
     RDKit          3D

 36 38  0  0  1  0  0  0  0  0999 V2000
   38.0430   22.0810   33.6640 C   0  0  0  0  0  0  0  0  0  0  0  0
   37.2450   21.1210   33.5610 O   0  0  0  0  0  0  0  0  0  0  0  0
   38.5460   22.6540   32.4620 N   0  0  0  0  0  0  0  0  0  0  0  0
   38.6530   21.7280   31.3390 C   0  0  0  0  0  0  0  0  0  0  0  0
   38.8870   22.4560   30.0440 C   0  0  0  0  0  0  0  0  0  0  0  0
   38.2140   23.6380   29.9050 O   0  0  0  0  0  0  0  0  0  0  0  0
   38.0730   24.4310   30.9990 C   0  0  0  0  0  0  0  0  0  0  0  0
   38.9710   23.9900   32.1500 C   0  0  1  0  0  0  0  0  0  0  0  0
   38.9300   24.9170   33.2350 N   0  0  0  0  0  0  0  0  0  0  0  0
   40.0290   25.1560   33.9730 C   0  0  0  0  0  0  0  0  0  0  0  0
   39.8810   26.0790   35.0080 C   0  0  0  0  0  0  0  0  0  0  0  0
   38.7070   26.7400   35.3090 C   0  0  0  0  0  0  0  0  0  0  0  0
   38.6470   27.6700   36.3880 N   0  0  0  0  0  0  0  0  0  0  0  0
   37.6320   26.4620   34.5320 N   0  0  0  0  0  0  0  0  0  0  0  0
   37.7610   25.5620   33.5180 C   0  0  0  0  0  0  0  0  0  0  0  0
   36.7030   25.3560   32.8360 O   0  0  0  0  0  0  0  0  0  0  0  0
   39.7900   22.6660   36.8430 C   0  0  0  0  0  0  0  0  0  0  0  0
   38.8280   23.3250   37.6020 C   0  0  0  0  0  0  0  0  0  0  0  0
   37.6010   23.5670   37.0340 C   0  0  0  0  0  0  0  0  0  0  0  0
   37.4360   23.1300   35.7580 N   0  0  0  0  0  0  0  0  0  0  0  0
   38.3600   22.4960   35.0300 C   0  0  0  0  0  0  0  0  0  0  0  0
   39.5530   22.2680   35.5960 N   0  0  0  0  0  0  0  0  0  0  0  0
   39.4936   21.0421   31.5203 H   0  0  0  0  0  0  0  0  0  0  0  0
   37.7061   21.1743   31.2571 H   0  0  0  0  0  0  0  0  0  0  0  0
   39.9635   22.6671   29.9633 H   0  0  0  0  0  0  0  0  0  0  0  0
   38.5050   21.7952   29.2519 H   0  0  0  0  0  0  0  0  0  0  0  0
   38.3319   25.4640   30.7235 H   0  0  0  0  0  0  0  0  0  0  0  0
   37.0291   24.3566   31.3376 H   0  0  0  0  0  0  0  0  0  0  0  0
   40.0397   23.9803   31.8897 H   0  0  0  0  0  0  0  0  0  0  0  0
   40.9868   24.6537   33.7722 H   0  0  0  0  0  0  0  0  0  0  0  0
   40.7628   26.2958   35.6289 H   0  0  0  0  0  0  0  0  0  0  0  0
   37.7640   28.1557   36.6008 H   0  0  0  0  0  0  0  0  0  0  0  0
   39.4867   27.8562   36.9547 H   0  0  0  0  0  0  0  0  0  0  0  0
   40.7765   22.4681   37.2876 H   0  0  0  0  0  0  0  0  0  0  0  0
   39.0448   23.6445   38.6320 H   0  0  0  0  0  0  0  0  0  0  0  0
   36.7986   24.0845   37.5803 H   0  0  0  0  0  0  0  0  0  0  0  0
  1 21  1  0
  2  1  2  0
  3  1  1  0
  4  3  1  0
  5  4  1  0
  6  5  1  0
  6  7  1  0
  7  8  1  0
  8  3  1  0
  8  9  1  0
  9 15  1  0
  9 10  1  0
 10 11  2  0
 11 12  1  0
 12 13  1  0
 14 12  2  0
 15 14  1  0
 16 15  2  0
 17 18  2  0
 19 18  1  0
 20 19  2  0
 21 22  2  0
 21 20  1  0
 22 17  1  0
  4 23  1  0
  4 24  1  0
  5 25  1  0
  5 26  1  0
  7 27  1  0
  7 28  1  0
  8 29  1  6
 10 30  1  0
 11 31  1  0
 13 32  1  0
 13 33  1  0
 17 34  1  0
 18 35  1  0
 19 36  1  0
M  ISO  8  23  13  24  13  25  13  26  13  27  13  28  13  29  13  30  14
M  ISO  4  31  14  34  14  35  14  36  14
M  END
>  <minimizedAffinity>  (1) 
-5.08449745

>  <minimizedRMSD>  (1) 
1.61815476

$$$$
