
     RDKit          3D

 38 40  0  0  1  0  0  0  0  0999 V2000
   37.7880   22.6890   34.5760 C   0  0  0  0  0  0  0  0  0  0  0  0
   37.1760   21.6090   34.3540 O   0  0  0  0  0  0  0  0  0  0  0  0
   37.8860   23.5570   33.4690 N   0  0  0  0  0  0  0  0  0  0  0  0
   37.9990   22.9490   32.1590 C   0  0  0  0  0  0  0  0  0  0  0  0
   37.7140   23.9040   31.0530 C   0  0  0  0  0  0  0  0  0  0  0  0
   36.9450   24.9910   31.3080 O   0  0  0  0  0  0  0  0  0  0  0  0
   36.8190   25.4610   32.5650 C   0  0  0  0  0  0  0  0  0  0  0  0
   37.8820   24.9790   33.4780 C   0  0  2  0  0  0  0  0  0  0  0  0
   39.9630   22.6760   37.5180 C   0  0  0  0  0  0  0  0  0  0  0  0
   39.1530   23.2750   38.5020 C   0  0  0  0  0  0  0  0  0  0  0  0
   37.8710   23.6740   38.1380 C   0  0  0  0  0  0  0  0  0  0  0  0
   37.4980   23.4510   36.8450 N   0  0  0  0  0  0  0  0  0  0  0  0
   38.2960   22.8740   35.9230 C   0  0  0  0  0  0  0  0  0  0  0  0
   39.5310   22.4910   36.2760 N   0  0  0  0  0  0  0  0  0  0  0  0
   39.1340   25.7090   33.5310 C   0  0  0  0  0  0  0  0  0  0  0  0
   39.4620   26.0980   34.9780 C   0  0  0  0  0  0  0  0  0  0  0  0
   40.8380   26.7270   34.7170 C   0  0  0  0  0  0  0  0  0  0  0  0
   40.7740   27.2550   33.2810 C   0  0  0  0  0  0  0  0  0  0  0  0
   39.2910   27.0420   32.9140 C   0  0  0  0  0  0  0  0  0  0  0  0
   39.0226   22.5652   32.0368 H   0  0  0  0  0  0  0  0  0  0  0  0
   37.2517   22.1439   32.1021 H   0  0  0  0  0  0  0  0  0  0  0  0
   37.2139   23.3346   30.2556 H   0  0  0  0  0  0  0  0  0  0  0  0
   38.6992   24.3279   30.8085 H   0  0  0  0  0  0  0  0  0  0  0  0
   36.8576   26.5599   32.5328 H   0  0  0  0  0  0  0  0  0  0  0  0
   35.8596   25.0924   32.9571 H   0  0  0  0  0  0  0  0  0  0  0  0
   37.6216   25.2790   34.5038 H   0  0  0  0  0  0  0  0  0  0  0  0
   40.9800   22.3530   37.7851 H   0  0  0  0  0  0  0  0  0  0  0  0
   39.5228   23.4229   39.5274 H   0  0  0  0  0  0  0  0  0  0  0  0
   37.1893   24.1476   38.8598 H   0  0  0  0  0  0  0  0  0  0  0  0
   39.7438   24.9764   32.9819 H   0  0  0  0  0  0  0  0  0  0  0  0
   38.7430   26.8220   35.3890 H   0  0  0  0  0  0  0  0  0  0  0  0
   39.4332   25.2841   35.7174 H   0  0  0  0  0  0  0  0  0  0  0  0
   41.0257   27.5500   35.4223 H   0  0  0  0  0  0  0  0  0  0  0  0
   41.6534   26.0010   34.8515 H   0  0  0  0  0  0  0  0  0  0  0  0
   41.0458   28.3200   33.2364 H   0  0  0  0  0  0  0  0  0  0  0  0
   41.4723   26.7512   32.5965 H   0  0  0  0  0  0  0  0  0  0  0  0
   38.6333   27.7959   33.3711 H   0  0  0  0  0  0  0  0  0  0  0  0
   39.0348   27.1206   31.8471 H   0  0  0  0  0  0  0  0  0  0  0  0
  1 13  1  0
  2  1  2  0
  3  8  1  0
  3  1  1  0
  4  3  1  0
  5  6  1  0
  5  4  1  0
  6  7  1  0
  7  8  1  0
  8 15  1  0
  9 10  2  0
 11 10  1  0
 12 11  2  0
 13 14  2  0
 13 12  1  0
 14  9  1  0
 15 16  1  0
 17 16  1  0
 18 17  1  0
 19 18  1  0
 19 15  1  0
  4 20  1  0
  4 21  1  0
  5 22  1  0
  5 23  1  0
  7 24  1  0
  7 25  1  0
  8 26  1  1
  9 27  1  0
 10 28  1  0
 11 29  1  0
 15 30  1  0
 16 31  1  0
 16 32  1  0
 17 33  1  0
 17 34  1  0
 18 35  1  0
 18 36  1  0
 19 37  1  0
 19 38  1  0
M  ISO  8  20  13  21  13  22  13  23  13  24  13  25  13  26  13  27  14
M  ISO  8  28  14  29  14  30  13  31  13  32  13  33  13  34  13  35  13
M  ISO  3  36  13  37  13  38  13
M  END
>  <minimizedAffinity>  (1) 
-5.13609838

>  <minimizedRMSD>  (1) 
2.24643302

$$$$
