
     RDKit          3D

 39 42  0  0  1  0  0  0  0  0999 V2000
   37.7270   22.0260   34.6770 C   0  0  0  0  0  0  0  0  0  0  0  0
   36.6080   21.5210   34.9160 O   0  0  0  0  0  0  0  0  0  0  0  0
   38.0690   22.2920   33.3200 N   0  0  0  0  0  0  0  0  0  0  0  0
   37.4270   21.3830   32.3600 C   0  0  0  0  0  0  0  0  0  0  0  0
   37.5880   21.8740   30.9480 C   0  0  0  0  0  0  0  0  0  0  0  0
   37.4590   23.2340   30.7940 O   0  0  0  0  0  0  0  0  0  0  0  0
   38.0190   24.0220   31.7370 C   0  0  0  0  0  0  0  0  0  0  0  0
   38.9130   23.2570   32.7170 C   0  0  1  0  0  0  0  0  0  0  0  0
   39.5140   24.2810   33.5880 C   0  0  0  0  0  0  0  0  0  0  0  0
   40.7640   24.5170   34.1070 C   0  0  0  0  0  0  0  0  0  0  0  0
   40.8290   25.5960   34.9040 N   0  0  0  0  0  0  0  0  0  0  0  0
   39.5900   26.1170   34.9340 C   0  0  0  0  0  0  0  0  0  0  0  0
   39.1320   27.2310   35.6100 C   0  0  0  0  0  0  0  0  0  0  0  0
   37.8070   27.6010   35.5080 C   0  0  0  0  0  0  0  0  0  0  0  0
   36.9650   26.8380   34.7230 C   0  0  0  0  0  0  0  0  0  0  0  0
   37.4560   25.7420   34.0690 C   0  0  0  0  0  0  0  0  0  0  0  0
   38.7870   25.3410   34.1500 C   0  0  0  0  0  0  0  0  0  0  0  0
   40.5140   22.0520   37.0810 C   0  0  0  0  0  0  0  0  0  0  0  0
   40.0410   22.8710   38.0960 C   0  0  0  0  0  0  0  0  0  0  0  0
   38.7800   23.3990   37.9460 C   0  0  0  0  0  0  0  0  0  0  0  0
   38.1080   23.0720   36.8180 N   0  0  0  0  0  0  0  0  0  0  0  0
   38.5640   22.2870   35.8450 C   0  0  0  0  0  0  0  0  0  0  0  0
   39.8050   21.7640   35.9870 N   0  0  0  0  0  0  0  0  0  0  0  0
   37.8866   20.3874   32.4474 H   0  0  0  0  0  0  0  0  0  0  0  0
   36.3524   21.3383   32.5907 H   0  0  0  0  0  0  0  0  0  0  0  0
   38.5887   21.5828   30.5961 H   0  0  0  0  0  0  0  0  0  0  0  0
   36.7742   21.4171   30.3657 H   0  0  0  0  0  0  0  0  0  0  0  0
   38.6281   24.7879   31.2345 H   0  0  0  0  0  0  0  0  0  0  0  0
   37.1978   24.4615   32.3222 H   0  0  0  0  0  0  0  0  0  0  0  0
   39.7610   22.6922   32.3024 H   0  0  0  0  0  0  0  0  0  0  0  0
   41.6335   23.8794   33.8893 H   0  0  0  0  0  0  0  0  0  0  0  0
   41.6616   25.9530   35.3942 H   0  0  0  0  0  0  0  0  0  0  0  0
   39.8229   27.8224   36.2289 H   0  0  0  0  0  0  0  0  0  0  0  0
   37.4288   28.4858   36.0411 H   0  0  0  0  0  0  0  0  0  0  0  0
   35.9039   27.1107   34.6243 H   0  0  0  0  0  0  0  0  0  0  0  0
   36.7669   25.1491   33.4496 H   0  0  0  0  0  0  0  0  0  0  0  0
   41.5204   21.6196   37.1823 H   0  0  0  0  0  0  0  0  0  0  0  0
   40.6503   23.0894   38.9854 H   0  0  0  0  0  0  0  0  0  0  0  0
   38.3378   24.0572   38.7084 H   0  0  0  0  0  0  0  0  0  0  0  0
  1  2  2  0
  1 22  1  0
  3  1  1  0
  4  3  1  0
  5  4  1  0
  6  5  1  0
  6  7  1  0
  7  8  1  0
  8  3  1  0
  8  9  1  0
  9 10  2  0
  9 17  1  0
 10 11  1  0
 11 12  1  0
 12 13  2  0
 14 13  1  0
 15 14  2  0
 16 17  2  0
 16 15  1  0
 17 12  1  0
 18 19  2  0
 20 19  1  0
 21 20  2  0
 22 23  2  0
 22 21  1  0
 23 18  1  0
  4 24  1  0
  4 25  1  0
  5 26  1  0
  5 27  1  0
  7 28  1  0
  7 29  1  0
  8 30  1  6
 10 31  1  0
 11 32  1  0
 13 33  1  0
 14 34  1  0
 15 35  1  0
 16 36  1  0
 18 37  1  0
 19 38  1  0
 20 39  1  0
M  ISO  8  24  13  25  13  26  13  27  13  28  13  29  13  30  13  31  14
M  ISO  8  32   9  33  14  34  14  35  14  36  14  37  14  38  14  39  14
M  END
>  <minimizedAffinity>  (1) 
-5.64233494

>  <minimizedRMSD>  (1) 
1.44421434

$$$$
