
     RDKit          3D

 32 34  0  0  1  0  0  0  0  0999 V2000
   37.3220   21.9780   35.0230 C   0  0  0  0  0  0  0  0  0  0  0  0
   36.4060   21.1530   35.2450 O   0  0  0  0  0  0  0  0  0  0  0  0
   37.5530   22.3530   33.6670 N   0  0  0  0  0  0  0  0  0  0  0  0
   37.2240   21.3220   32.6860 C   0  0  0  0  0  0  0  0  0  0  0  0
   37.2660   21.8740   31.2790 C   0  0  0  0  0  0  0  0  0  0  0  0
   36.6980   23.1200   31.1570 O   0  0  0  0  0  0  0  0  0  0  0  0
   36.9570   24.0190   32.1270 C   0  0  0  0  0  0  0  0  0  0  0  0
   38.0510   23.5680   33.0950 C   0  0  1  0  0  0  0  0  0  0  0  0
   39.9670   22.7120   37.4710 C   0  0  0  0  0  0  0  0  0  0  0  0
   39.2900   23.4290   38.4500 C   0  0  0  0  0  0  0  0  0  0  0  0
   37.9480   23.6500   38.2610 C   0  0  0  0  0  0  0  0  0  0  0  0
   37.3870   23.1460   37.1240 N   0  0  0  0  0  0  0  0  0  0  0  0
   38.0510   22.4610   36.1970 C   0  0  0  0  0  0  0  0  0  0  0  0
   39.3610   22.2480   36.3860 N   0  0  0  0  0  0  0  0  0  0  0  0
   38.2090   24.6870   34.0570 C   0  0  0  0  0  0  0  0  0  0  0  0
   39.4480   25.1520   34.5160 C   0  0  0  0  0  0  0  0  0  0  0  0
   39.2830   26.1990   35.3990 C   0  0  0  0  0  0  0  0  0  0  0  0
   37.9090   26.3320   35.4450 C   0  0  0  0  0  0  0  0  0  0  0  0
   37.3530   25.4410   34.6580 O   0  0  0  0  0  0  0  0  0  0  0  0
   37.9506   20.5005   32.7712 H   0  0  0  0  0  0  0  0  0  0  0  0
   36.2050   20.9605   32.8885 H   0  0  0  0  0  0  0  0  0  0  0  0
   38.3175   21.9392   30.9628 H   0  0  0  0  0  0  0  0  0  0  0  0
   36.6796   21.1902   30.6478 H   0  0  0  0  0  0  0  0  0  0  0  0
   37.2754   24.9600   31.6546 H   0  0  0  0  0  0  0  0  0  0  0  0
   36.0340   24.1401   32.7130 H   0  0  0  0  0  0  0  0  0  0  0  0
   39.0422   23.3601   32.6657 H   0  0  0  0  0  0  0  0  0  0  0  0
   41.0428   22.5226   37.6002 H   0  0  0  0  0  0  0  0  0  0  0  0
   39.8098   23.8056   39.3433 H   0  0  0  0  0  0  0  0  0  0  0  0
   37.3504   24.2099   38.9954 H   0  0  0  0  0  0  0  0  0  0  0  0
   40.4212   24.7382   34.2132 H   0  0  0  0  0  0  0  0  0  0  0  0
   40.0505   26.7801   35.9311 H   0  0  0  0  0  0  0  0  0  0  0  0
   37.3638   27.0720   36.0492 H   0  0  0  0  0  0  0  0  0  0  0  0
  1  2  2  0
  1 13  1  0
  3  1  1  0
  4  3  1  0
  5  4  1  0
  6  5  1  0
  6  7  1  0
  7  8  1  0
  8  3  1  0
  8 15  1  0
  9 10  2  0
 11 10  1  0
 12 11  2  0
 13 14  2  0
 13 12  1  0
 14  9  1  0
 15 16  2  0
 15 19  1  0
 16 17  1  0
 17 18  2  0
 19 18  1  0
  4 20  1  0
  4 21  1  0
  5 22  1  0
  5 23  1  0
  7 24  1  0
  7 25  1  0
  8 26  1  6
  9 27  1  0
 10 28  1  0
 11 29  1  0
 16 30  1  0
 17 31  1  0
 18 32  1  0
M  ISO  8  20  13  21  13  22  13  23  13  24  13  25  13  26  13  27  14
M  ISO  5  28  14  29  14  30  14  31  14  32  14
M  END
>  <minimizedAffinity>  (1) 
-4.78643417

>  <minimizedRMSD>  (1) 
0.521758258

$$$$
