
     RDKit          3D

 35 37  0  0  1  0  0  0  0  0999 V2000
   37.7930   22.6680   34.5630 C   0  0  0  0  0  0  0  0  0  0  0  0
   37.2010   21.5680   34.3720 O   0  0  0  0  0  0  0  0  0  0  0  0
   37.9020   23.5430   33.4410 N   0  0  0  0  0  0  0  0  0  0  0  0
   37.9650   22.9050   32.1510 C   0  0  0  0  0  0  0  0  0  0  0  0
   37.7500   23.8800   31.0320 C   0  0  0  0  0  0  0  0  0  0  0  0
   36.8730   24.9030   31.2870 O   0  0  0  0  0  0  0  0  0  0  0  0
   36.7830   25.3940   32.5390 C   0  0  0  0  0  0  0  0  0  0  0  0
   37.9560   24.9830   33.4130 C   0  0  2  0  0  0  0  0  0  0  0  0
   39.9670   22.7200   37.5160 C   0  0  0  0  0  0  0  0  0  0  0  0
   39.1530   23.2800   38.4900 C   0  0  0  0  0  0  0  0  0  0  0  0
   37.8710   23.6370   38.1410 C   0  0  0  0  0  0  0  0  0  0  0  0
   37.4940   23.4100   36.8460 N   0  0  0  0  0  0  0  0  0  0  0  0
   38.2750   22.8740   35.9170 C   0  0  0  0  0  0  0  0  0  0  0  0
   39.5140   22.5390   36.2920 N   0  0  0  0  0  0  0  0  0  0  0  0
   39.2270   25.5490   32.9340 C   0  0  0  0  0  0  0  0  0  0  0  0
   39.3390   26.7380   32.2470 C   0  0  0  0  0  0  0  0  0  0  0  0
   40.5100   27.2910   31.7730 C   0  0  0  0  0  0  0  0  0  0  0  0
   41.6940   26.6200   31.9870 C   0  0  0  0  0  0  0  0  0  0  0  0
   41.6760   25.4220   32.6650 C   0  0  0  0  0  0  0  0  0  0  0  0
   40.4700   24.9300   33.1110 C   0  0  0  0  0  0  0  0  0  0  0  0
   38.9550   22.4405   32.0323 H   0  0  0  0  0  0  0  0  0  0  0  0
   37.1646   22.1519   32.1045 H   0  0  0  0  0  0  0  0  0  0  0  0
   37.3703   23.3193   30.1652 H   0  0  0  0  0  0  0  0  0  0  0  0
   38.7255   24.3600   30.8649 H   0  0  0  0  0  0  0  0  0  0  0  0
   36.7513   26.4922   32.4854 H   0  0  0  0  0  0  0  0  0  0  0  0
   35.8690   24.9837   32.9931 H   0  0  0  0  0  0  0  0  0  0  0  0
   37.8930   25.3823   34.4360 H   0  0  0  0  0  0  0  0  0  0  0  0
   40.9966   22.4254   37.7671 H   0  0  0  0  0  0  0  0  0  0  0  0
   39.5229   23.4345   39.5144 H   0  0  0  0  0  0  0  0  0  0  0  0
   37.1803   24.0848   38.8706 H   0  0  0  0  0  0  0  0  0  0  0  0
   38.4102   27.2968   32.0596 H   0  0  0  0  0  0  0  0  0  0  0  0
   40.4989   28.2499   31.2341 H   0  0  0  0  0  0  0  0  0  0  0  0
   42.6435   27.0370   31.6201 H   0  0  0  0  0  0  0  0  0  0  0  0
   42.6085   24.8678   32.8471 H   0  0  0  0  0  0  0  0  0  0  0  0
   40.4844   23.9717   33.6508 H   0  0  0  0  0  0  0  0  0  0  0  0
  1 13  1  0
  2  1  2  0
  3  1  1  0
  4  3  1  0
  5  6  1  0
  5  4  1  0
  6  7  1  0
  7  8  1  0
  8  3  1  0
  9 10  2  0
 11 10  1  0
 12 11  2  0
 13 14  2  0
 13 12  1  0
 14  9  1  0
 15 20  1  0
 15  8  1  0
 16 15  2  0
 17 18  2  0
 17 16  1  0
 18 19  1  0
 19 20  2  0
  4 21  1  0
  4 22  1  0
  5 23  1  0
  5 24  1  0
  7 25  1  0
  7 26  1  0
  8 27  1  1
  9 28  1  0
 10 29  1  0
 11 30  1  0
 16 31  1  0
 17 32  1  0
 18 33  1  0
 19 34  1  0
 20 35  1  0
M  ISO  8  21  13  22  13  23  13  24  13  25  13  26  13  27  13  28  14
M  ISO  7  29  14  30  14  31  14  32  14  33  14  34  14  35  14
M  END
>  <minimizedAffinity>  (1) 
-4.57804585

>  <minimizedRMSD>  (1) 
2.4452889

$$$$
