
     RDKit          3D

 37 39  0  0  1  0  0  0  0  0999 V2000
   37.4250   22.1050   34.7330 C   0  0  0  0  0  0  0  0  0  0  0  0
   36.6090   21.1510   34.8240 O   0  0  0  0  0  0  0  0  0  0  0  0
   37.5970   22.6980   33.4550 N   0  0  0  0  0  0  0  0  0  0  0  0
   37.3660   21.7940   32.3270 C   0  0  0  0  0  0  0  0  0  0  0  0
   37.2950   22.5430   31.0240 C   0  0  0  0  0  0  0  0  0  0  0  0
   36.6690   23.7600   31.0850 O   0  0  0  0  0  0  0  0  0  0  0  0
   36.8130   24.5200   32.1960 C   0  0  0  0  0  0  0  0  0  0  0  0
   37.9570   24.0260   33.0610 C   0  0  1  0  0  0  0  0  0  0  0  0
   39.9610   22.6170   37.3380 C   0  0  0  0  0  0  0  0  0  0  0  0
   39.2210   23.2370   38.3590 C   0  0  0  0  0  0  0  0  0  0  0  0
   37.8820   23.4660   38.1400 C   0  0  0  0  0  0  0  0  0  0  0  0
   37.3680   23.0730   36.9420 N   0  0  0  0  0  0  0  0  0  0  0  0
   38.0940   22.4780   35.9720 C   0  0  0  0  0  0  0  0  0  0  0  0
   39.4010   22.2560   36.1860 N   0  0  0  0  0  0  0  0  0  0  0  0
   38.3840   24.9150   34.0540 N   0  0  0  0  0  0  0  0  0  0  0  0
   37.5550   25.9890   34.4390 C   0  0  0  0  0  0  0  0  0  0  0  0
   38.2070   27.2540   33.9240 C   0  0  0  0  0  0  0  0  0  0  0  0
   39.6700   26.9280   34.0290 C   0  0  0  0  0  0  0  0  0  0  0  0
   39.7080   25.4400   33.7850 C   0  0  0  0  0  0  0  0  0  0  0  0
   38.1904   21.0674   32.2769 H   0  0  0  0  0  0  0  0  0  0  0  0
   36.4037   21.2851   32.4848 H   0  0  0  0  0  0  0  0  0  0  0  0
   36.7523   21.9169   30.3005 H   0  0  0  0  0  0  0  0  0  0  0  0
   38.3356   22.7488   30.7327 H   0  0  0  0  0  0  0  0  0  0  0  0
   37.0146   25.5587   31.8952 H   0  0  0  0  0  0  0  0  0  0  0  0
   35.8840   24.4560   32.7816 H   0  0  0  0  0  0  0  0  0  0  0  0
   38.9029   23.9814   32.5013 H   0  0  0  0  0  0  0  0  0  0  0  0
   41.0326   22.4248   37.4953 H   0  0  0  0  0  0  0  0  0  0  0  0
   39.6982   23.5307   39.3056 H   0  0  0  0  0  0  0  0  0  0  0  0
   37.2519   23.9474   38.9024 H   0  0  0  0  0  0  0  0  0  0  0  0
   36.5546   25.8720   33.9969 H   0  0  0  0  0  0  0  0  0  0  0  0
   37.4375   26.0235   35.5322 H   0  0  0  0  0  0  0  0  0  0  0  0
   37.9461   28.1197   34.5505 H   0  0  0  0  0  0  0  0  0  0  0  0
   37.8898   27.5298   32.9075 H   0  0  0  0  0  0  0  0  0  0  0  0
   40.2505   27.4680   33.2665 H   0  0  0  0  0  0  0  0  0  0  0  0
   40.1093   27.2189   34.9946 H   0  0  0  0  0  0  0  0  0  0  0  0
   39.9855   25.2388   32.7398 H   0  0  0  0  0  0  0  0  0  0  0  0
   40.4522   24.9615   34.4386 H   0  0  0  0  0  0  0  0  0  0  0  0
  1  2  2  0
  1 13  1  0
  3  1  1  0
  4  3  1  0
  5  6  1  0
  5  4  1  0
  6  7  1  0
  7  8  1  0
  8  3  1  0
  8 15  1  0
  9 10  2  0
 11 10  1  0
 12 11  2  0
 13 14  2  0
 13 12  1  0
 14  9  1  0
 15 16  1  0
 17 18  1  0
 17 16  1  0
 19 18  1  0
 19 15  1  0
  4 20  1  0
  4 21  1  0
  5 22  1  0
  5 23  1  0
  7 24  1  0
  7 25  1  0
  8 26  1  6
  9 27  1  0
 10 28  1  0
 11 29  1  0
 16 30  1  0
 16 31  1  0
 17 32  1  0
 17 33  1  0
 18 34  1  0
 18 35  1  0
 19 36  1  0
 19 37  1  0
M  ISO  8  20  13  21  13  22  13  23  13  24  13  25  13  26  13  27  14
M  ISO  8  28  14  29  14  30  13  31  13  32  13  33  13  34  13  35  13
M  ISO  2  36  13  37  13
M  END
>  <minimizedAffinity>  (1) 
-4.85649824

>  <minimizedRMSD>  (1) 
1.03804851

$$$$
