
     RDKit          3D

 32 34  0  0  1  0  0  0  0  0999 V2000
   37.4500   22.0390   34.7510 C   0  0  0  0  0  0  0  0  0  0  0  0
   36.4660   21.2680   34.9210 O   0  0  0  0  0  0  0  0  0  0  0  0
   37.7340   22.4120   33.4160 N   0  0  0  0  0  0  0  0  0  0  0  0
   37.4100   21.4390   32.3890 C   0  0  0  0  0  0  0  0  0  0  0  0
   37.4300   22.0490   31.0190 C   0  0  0  0  0  0  0  0  0  0  0  0
   37.0060   23.3310   30.9230 O   0  0  0  0  0  0  0  0  0  0  0  0
   37.3050   24.1960   31.9340 C   0  0  0  0  0  0  0  0  0  0  0  0
   38.3100   23.6450   32.9120 C   0  0  1  0  0  0  0  0  0  0  0  0
   40.0600   22.5170   37.2750 C   0  0  0  0  0  0  0  0  0  0  0  0
   39.3900   23.1980   38.2860 C   0  0  0  0  0  0  0  0  0  0  0  0
   38.0550   23.4900   38.1060 C   0  0  0  0  0  0  0  0  0  0  0  0
   37.4730   23.0870   36.9300 N   0  0  0  0  0  0  0  0  0  0  0  0
   38.1520   22.4300   35.9720 C   0  0  0  0  0  0  0  0  0  0  0  0
   39.4630   22.1430   36.1490 N   0  0  0  0  0  0  0  0  0  0  0  0
   38.4480   24.6440   33.9600 N   0  0  0  0  0  0  0  0  0  0  0  0
   37.4250   25.3980   34.3990 C   0  0  0  0  0  0  0  0  0  0  0  0
   37.8970   26.2430   35.3960 C   0  0  0  0  0  0  0  0  0  0  0  0
   39.2100   25.9760   35.5380 N   0  0  0  0  0  0  0  0  0  0  0  0
   39.5580   24.9970   34.6620 C   0  0  0  0  0  0  0  0  0  0  0  0
   38.1466   20.6229   32.4264 H   0  0  0  0  0  0  0  0  0  0  0  0
   36.3943   21.0633   32.5816 H   0  0  0  0  0  0  0  0  0  0  0  0
   38.4660   22.0111   30.6513 H   0  0  0  0  0  0  0  0  0  0  0  0
   36.7137   21.4601   30.4273 H   0  0  0  0  0  0  0  0  0  0  0  0
   37.7141   25.1180   31.4951 H   0  0  0  0  0  0  0  0  0  0  0  0
   36.3747   24.3797   32.4915 H   0  0  0  0  0  0  0  0  0  0  0  0
   39.3016   23.4373   32.4835 H   0  0  0  0  0  0  0  0  0  0  0  0
   41.1250   22.2791   37.4133 H   0  0  0  0  0  0  0  0  0  0  0  0
   39.9128   23.4962   39.2067 H   0  0  0  0  0  0  0  0  0  0  0  0
   37.4784   24.0252   38.8749 H   0  0  0  0  0  0  0  0  0  0  0  0
   36.3893   25.3535   34.0310 H   0  0  0  0  0  0  0  0  0  0  0  0
   37.3126   26.9853   35.9595 H   0  0  0  0  0  0  0  0  0  0  0  0
   40.5626   24.5653   34.5417 H   0  0  0  0  0  0  0  0  0  0  0  0
  1  2  2  0
  1 13  1  0
  3  1  1  0
  4  3  1  0
  5  4  1  0
  6  5  1  0
  6  7  1  0
  7  8  1  0
  8  3  1  0
  8 15  1  0
  9 10  2  0
 11 10  1  0
 12 11  2  0
 13 14  2  0
 13 12  1  0
 14  9  1  0
 15 16  1  0
 15 19  1  0
 16 17  2  0
 17 18  1  0
 19 18  2  0
  4 20  1  0
  4 21  1  0
  5 22  1  0
  5 23  1  0
  7 24  1  0
  7 25  1  0
  8 26  1  6
  9 27  1  0
 10 28  1  0
 11 29  1  0
 16 30  1  0
 17 31  1  0
 19 32  1  0
M  ISO  8  20  13  21  13  22  13  23  13  24  13  25  13  26  13  27  14
M  ISO  5  28  14  29  14  30  14  31  14  32  14
M  END
>  <minimizedAffinity>  (1) 
-4.52493525

>  <minimizedRMSD>  (1) 
0.680086136

$$$$
