
     RDKit          3D

 31 33  0  0  1  0  0  0  0  0999 V2000
   37.4470   22.0140   34.8280 C   0  0  0  0  0  0  0  0  0  0  0  0
   36.4780   21.2350   35.0040 O   0  0  0  0  0  0  0  0  0  0  0  0
   37.7670   22.3810   33.4930 N   0  0  0  0  0  0  0  0  0  0  0  0
   37.4480   21.3720   32.4900 C   0  0  0  0  0  0  0  0  0  0  0  0
   37.5310   21.9350   31.1000 C   0  0  0  0  0  0  0  0  0  0  0  0
   37.0600   23.2140   30.9630 O   0  0  0  0  0  0  0  0  0  0  0  0
   37.3350   24.1070   31.9580 C   0  0  0  0  0  0  0  0  0  0  0  0
   38.3520   23.5800   32.9610 C   0  0  1  0  0  0  0  0  0  0  0  0
   40.0280   22.6000   37.3820 C   0  0  0  0  0  0  0  0  0  0  0  0
   39.3350   23.3020   38.3640 C   0  0  0  0  0  0  0  0  0  0  0  0
   38.0010   23.5650   38.1420 C   0  0  0  0  0  0  0  0  0  0  0  0
   37.4550   23.1220   36.9840 N   0  0  0  0  0  0  0  0  0  0  0  0
   38.1340   22.4490   36.0490 C   0  0  0  0  0  0  0  0  0  0  0  0
   39.4400   22.1880   36.2610 N   0  0  0  0  0  0  0  0  0  0  0  0
   38.4540   24.6060   33.9850 N   0  0  0  0  0  0  0  0  0  0  0  0
   39.5960   24.9560   34.6040 C   0  0  0  0  0  0  0  0  0  0  0  0
   39.2910   25.9310   35.4780 N   0  0  0  0  0  0  0  0  0  0  0  0
   37.9550   26.1670   35.3840 C   0  0  0  0  0  0  0  0  0  0  0  0
   37.4450   25.3350   34.4480 N   0  0  0  0  0  0  0  0  0  0  0  0
   38.1602   20.5387   32.5816 H   0  0  0  0  0  0  0  0  0  0  0  0
   36.4181   21.0263   32.6624 H   0  0  0  0  0  0  0  0  0  0  0  0
   38.5866   21.9254   30.7907 H   0  0  0  0  0  0  0  0  0  0  0  0
   36.8857   21.3017   30.4735 H   0  0  0  0  0  0  0  0  0  0  0  0
   37.7331   25.0266   31.5044 H   0  0  0  0  0  0  0  0  0  0  0  0
   36.3982   24.2928   32.5037 H   0  0  0  0  0  0  0  0  0  0  0  0
   39.3486   23.3645   32.5482 H   0  0  0  0  0  0  0  0  0  0  0  0
   41.0943   22.3789   37.5370 H   0  0  0  0  0  0  0  0  0  0  0  0
   39.8351   23.6352   39.2853 H   0  0  0  0  0  0  0  0  0  0  0  0
   37.3996   24.1160   38.8800 H   0  0  0  0  0  0  0  0  0  0  0  0
   40.5927   24.5251   34.4280 H   0  0  0  0  0  0  0  0  0  0  0  0
   37.3876   26.9065   35.9681 H   0  0  0  0  0  0  0  0  0  0  0  0
  1  2  2  0
  1 13  1  0
  3  1  1  0
  4  3  1  0
  5  4  1  0
  6  5  1  0
  6  7  1  0
  7  8  1  0
  8  3  1  0
  8 15  1  0
  9 10  2  0
 11 10  1  0
 12 11  2  0
 13 14  2  0
 13 12  1  0
 14  9  1  0
 15 19  1  0
 15 16  1  0
 16 17  2  0
 18 17  1  0
 19 18  2  0
  4 20  1  0
  4 21  1  0
  5 22  1  0
  5 23  1  0
  7 24  1  0
  7 25  1  0
  8 26  1  6
  9 27  1  0
 10 28  1  0
 11 29  1  0
 16 30  1  0
 18 31  1  0
M  ISO  8  20  13  21  13  22  13  23  13  24  13  25  13  26  13  27  14
M  ISO  4  28  14  29  14  30  14  31  14
M  END
>  <minimizedAffinity>  (1) 
-4.54392099

>  <minimizedRMSD>  (1) 
0.696603417

$$$$
