
     RDKit          3D

 38 40  0  0  1  0  0  0  0  0999 V2000
   37.7200   22.5670   34.6070 C   0  0  0  0  0  0  0  0  0  0  0  0
   37.0490   21.5080   34.4700 O   0  0  0  0  0  0  0  0  0  0  0  0
   37.8500   23.3700   33.4560 N   0  0  0  0  0  0  0  0  0  0  0  0
   37.8060   22.6800   32.1830 C   0  0  0  0  0  0  0  0  0  0  0  0
   37.6520   23.6460   31.0270 C   0  0  0  0  0  0  0  0  0  0  0  0
   36.8650   24.7190   31.2630 O   0  0  0  0  0  0  0  0  0  0  0  0
   36.8690   25.2830   32.4910 C   0  0  0  0  0  0  0  0  0  0  0  0
   38.0220   24.7930   33.3500 C   0  0  2  0  0  0  0  0  0  0  0  0
   39.9790   22.6560   37.4840 C   0  0  0  0  0  0  0  0  0  0  0  0
   39.1930   23.2530   38.4770 C   0  0  0  0  0  0  0  0  0  0  0  0
   37.8880   23.6220   38.1520 C   0  0  0  0  0  0  0  0  0  0  0  0
   37.4740   23.3710   36.8800 N   0  0  0  0  0  0  0  0  0  0  0  0
   38.2580   22.7940   35.9470 C   0  0  0  0  0  0  0  0  0  0  0  0
   39.5120   22.4390   36.2610 N   0  0  0  0  0  0  0  0  0  0  0  0
   39.2380   25.2290   32.7720 N   0  0  0  0  0  0  0  0  0  0  0  0
   39.2680   26.6800   32.8710 C   0  0  0  0  0  0  0  0  0  0  0  0
   40.6830   27.2100   32.8410 C   0  0  0  0  0  0  0  0  0  0  0  0
   41.3700   26.4420   31.9100 O   0  0  0  0  0  0  0  0  0  0  0  0
   41.5880   25.1870   32.4300 C   0  0  0  0  0  0  0  0  0  0  0  0
   40.4390   24.7500   33.3470 C   0  0  0  0  0  0  0  0  0  0  0  0
   38.7398   22.1135   32.0522 H   0  0  0  0  0  0  0  0  0  0  0  0
   36.9347   22.0085   32.1870 H   0  0  0  0  0  0  0  0  0  0  0  0
   37.2238   23.0925   30.1783 H   0  0  0  0  0  0  0  0  0  0  0  0
   38.6579   24.0474   30.8345 H   0  0  0  0  0  0  0  0  0  0  0  0
   36.9514   26.3741   32.3783 H   0  0  0  0  0  0  0  0  0  0  0  0
   35.9325   24.9990   32.9933 H   0  0  0  0  0  0  0  0  0  0  0  0
   38.0441   25.2008   34.3714 H   0  0  0  0  0  0  0  0  0  0  0  0
   41.0106   22.3591   37.7239 H   0  0  0  0  0  0  0  0  0  0  0  0
   39.5941   23.4263   39.4865 H   0  0  0  0  0  0  0  0  0  0  0  0
   37.2234   24.0945   38.8902 H   0  0  0  0  0  0  0  0  0  0  0  0
   38.7087   27.1072   32.0256 H   0  0  0  0  0  0  0  0  0  0  0  0
   38.8123   26.9692   33.8295 H   0  0  0  0  0  0  0  0  0  0  0  0
   40.6867   28.2676   32.5387 H   0  0  0  0  0  0  0  0  0  0  0  0
   41.1530   27.1480   33.8336 H   0  0  0  0  0  0  0  0  0  0  0  0
   41.6777   24.4680   31.6023 H   0  0  0  0  0  0  0  0  0  0  0  0
   42.5123   25.2165   33.0257 H   0  0  0  0  0  0  0  0  0  0  0  0
   40.5737   25.1797   34.3506 H   0  0  0  0  0  0  0  0  0  0  0  0
   40.4142   23.6548   33.4463 H   0  0  0  0  0  0  0  0  0  0  0  0
  1 13  1  0
  2  1  2  0
  3  1  1  0
  4  3  1  0
  5  6  1  0
  5  4  1  0
  6  7  1  0
  7  8  1  0
  8  3  1  0
  9 10  2  0
 11 10  1  0
 12 11  2  0
 13 14  2  0
 13 12  1  0
 14  9  1  0
 15 16  1  0
 15 20  1  0
 15  8  1  0
 17 16  1  0
 18 19  1  0
 18 17  1  0
 19 20  1  0
  4 21  1  0
  4 22  1  0
  5 23  1  0
  5 24  1  0
  7 25  1  0
  7 26  1  0
  8 27  1  1
  9 28  1  0
 10 29  1  0
 11 30  1  0
 16 31  1  0
 16 32  1  0
 17 33  1  0
 17 34  1  0
 19 35  1  0
 19 36  1  0
 20 37  1  0
 20 38  1  0
M  ISO  8  21  13  22  13  23  13  24  13  25  13  26  13  27  13  28  14
M  ISO  8  29  14  30  14  31  13  32  13  33  13  34  13  35  13  36  13
M  ISO  2  37  13  38  13
M  END
>  <minimizedAffinity>  (1) 
-4.45277596

>  <minimizedRMSD>  (1) 
2.22237158

$$$$
