
     RDKit          3D

 28 29  0  0  1  0  0  0  0  0999 V2000
   36.5810   21.4080   34.8790 C   0  0  0  0  0  0  0  0  0  0  0  0
   35.6450   20.7380   35.4030 O   0  0  0  0  0  0  0  0  0  0  0  0
   36.6000   21.4570   33.4690 N   0  0  0  0  0  0  0  0  0  0  0  0
   36.0580   20.3000   32.7790 C   0  0  0  0  0  0  0  0  0  0  0  0
   35.8330   20.5670   31.3160 C   0  0  0  0  0  0  0  0  0  0  0  0
   35.4270   21.8270   30.9980 O   0  0  0  0  0  0  0  0  0  0  0  0
   35.9390   22.8660   31.6980 C   0  0  0  0  0  0  0  0  0  0  0  0
   37.0850   22.5010   32.5960 C   0  0  2  0  0  0  0  0  0  0  0  0
   39.6430   22.5720   36.5210 C   0  0  0  0  0  0  0  0  0  0  0  0
   39.1500   23.2540   37.6490 C   0  0  0  0  0  0  0  0  0  0  0  0
   37.7830   23.3010   37.8200 C   0  0  0  0  0  0  0  0  0  0  0  0
   37.0020   22.6810   36.8820 N   0  0  0  0  0  0  0  0  0  0  0  0
   37.5020   22.0350   35.8150 C   0  0  0  0  0  0  0  0  0  0  0  0
   38.8350   21.9930   35.6530 N   0  0  0  0  0  0  0  0  0  0  0  0
   38.3320   22.1710   31.9090 C   0  0  0  0  0  0  0  0  0  0  0  0
   38.6510   22.4760   30.7320 O   0  0  0  0  0  0  0  0  0  0  0  0
   39.3330   21.4340   32.5680 O   0  0  0  0  0  0  0  0  0  0  0  0
   36.7640   19.4628   32.8822 H   0  0  0  0  0  0  0  0  0  0  0  0
   35.0851   20.0603   33.2328 H   0  0  0  0  0  0  0  0  0  0  0  0
   36.7789   20.3743   30.7887 H   0  0  0  0  0  0  0  0  0  0  0  0
   35.0089   19.9034   31.0151 H   0  0  0  0  0  0  0  0  0  0  0  0
   36.2901   23.6239   30.9823 H   0  0  0  0  0  0  0  0  0  0  0  0
   35.1331   23.2343   32.3498 H   0  0  0  0  0  0  0  0  0  0  0  0
   37.3927   23.3832   33.1766 H   0  0  0  0  0  0  0  0  0  0  0  0
   40.7297   22.5202   36.3587 H   0  0  0  0  0  0  0  0  0  0  0  0
   39.8310   23.7323   38.3683 H   0  0  0  0  0  0  0  0  0  0  0  0
   37.3350   23.8190   38.6808 H   0  0  0  0  0  0  0  0  0  0  0  0
   40.1758   21.2133   32.0978 H   0  0  0  0  0  0  0  0  0  0  0  0
  1  2  2  0
  1 13  1  0
  3  1  1  0
  4  3  1  0
  5  4  1  0
  6  5  1  0
  6  7  1  0
  7  8  1  0
  8  3  1  0
  9 10  2  0
 10 11  1  0
 12 11  2  0
 13 12  1  0
 14 13  2  0
 14  9  1  0
 15 17  1  0
 15  8  1  0
 16 15  2  0
  4 18  1  0
  4 19  1  0
  5 20  1  0
  5 21  1  0
  7 22  1  0
  7 23  1  0
  8 24  1  1
  9 25  1  0
 10 26  1  0
 11 27  1  0
 17 28  1  0
M  ISO  8  18  13  19  13  20  13  21  13  22  13  23  13  24  13  25  14
M  ISO  3  26  14  27  14  28   3
M  END
>  <minimizedAffinity>  (1) 
-4.14203787

>  <minimizedRMSD>  (1) 
0.973748505

$$$$
