
     RDKit          3D

 32 34  0  0  1  0  0  0  0  0999 V2000
   36.6270   21.4480   34.8630 C   0  0  0  0  0  0  0  0  0  0  0  0
   35.7190   20.7260   35.3540 O   0  0  0  0  0  0  0  0  0  0  0  0
   36.6540   21.5690   33.4530 N   0  0  0  0  0  0  0  0  0  0  0  0
   36.1890   20.4080   32.7080 C   0  0  0  0  0  0  0  0  0  0  0  0
   35.9620   20.7440   31.2470 C   0  0  0  0  0  0  0  0  0  0  0  0
   35.4590   21.9810   31.0000 O   0  0  0  0  0  0  0  0  0  0  0  0
   35.9310   23.0110   31.7420 C   0  0  0  0  0  0  0  0  0  0  0  0
   37.0750   22.6710   32.6390 C   0  0  2  0  0  0  0  0  0  0  0  0
   39.6620   22.5840   36.5950 C   0  0  0  0  0  0  0  0  0  0  0  0
   39.1370   23.2530   37.7150 C   0  0  0  0  0  0  0  0  0  0  0  0
   37.7690   23.3060   37.8600 C   0  0  0  0  0  0  0  0  0  0  0  0
   37.0070   22.6990   36.8990 N   0  0  0  0  0  0  0  0  0  0  0  0
   37.5300   22.0650   35.8360 C   0  0  0  0  0  0  0  0  0  0  0  0
   38.8630   22.0150   35.6980 N   0  0  0  0  0  0  0  0  0  0  0  0
   38.3990   22.5200   31.9710 C   0  0  0  0  0  0  0  0  0  0  0  0
   38.8260   23.6160   31.0650 C   0  0  0  0  0  0  0  0  0  0  0  0
   39.5250   23.5240   32.3460 C   0  0  0  0  0  0  0  0  0  0  0  0
   36.9439   19.6111   32.7790 H   0  0  0  0  0  0  0  0  0  0  0  0
   35.2327   20.0788   33.1406 H   0  0  0  0  0  0  0  0  0  0  0  0
   36.9278   20.6615   30.7269 H   0  0  0  0  0  0  0  0  0  0  0  0
   35.2019   20.0336   30.8898 H   0  0  0  0  0  0  0  0  0  0  0  0
   36.2606   23.8038   31.0544 H   0  0  0  0  0  0  0  0  0  0  0  0
   35.1054   23.3189   32.4005 H   0  0  0  0  0  0  0  0  0  0  0  0
   37.3052   23.5320   33.2837 H   0  0  0  0  0  0  0  0  0  0  0  0
   40.7523   22.5307   36.4590 H   0  0  0  0  0  0  0  0  0  0  0  0
   39.8018   23.7215   38.4556 H   0  0  0  0  0  0  0  0  0  0  0  0
   37.3056   23.8173   38.7166 H   0  0  0  0  0  0  0  0  0  0  0  0
   38.3078   21.4253   31.9127 H   0  0  0  0  0  0  0  0  0  0  0  0
   39.3644   23.3706   30.1377 H   0  0  0  0  0  0  0  0  0  0  0  0
   38.2870   24.4280   30.5550 H   0  0  0  0  0  0  0  0  0  0  0  0
   39.3538   24.2814   33.1252 H   0  0  0  0  0  0  0  0  0  0  0  0
   40.5754   23.4423   32.6623 H   0  0  0  0  0  0  0  0  0  0  0  0
  1  2  2  0
  1 13  1  0
  3  1  1  0
  4  3  1  0
  5  4  1  0
  6  5  1  0
  6  7  1  0
  7  8  1  0
  8  3  1  0
  9 10  2  0
 10 11  1  0
 12 11  2  0
 13 12  1  0
 14 13  2  0
 14  9  1  0
 15 17  1  0
 15  8  1  0
 16 15  1  0
 16 17  1  0
  4 18  1  0
  4 19  1  0
  5 20  1  0
  5 21  1  0
  7 22  1  0
  7 23  1  0
  8 24  1  1
  9 25  1  0
 10 26  1  0
 11 27  1  0
 15 28  1  0
 16 29  1  0
 16 30  1  0
 17 31  1  0
 17 32  1  0
M  ISO  8  18  13  19  13  20  13  21  13  22  13  23  13  24  13  25  14
M  ISO  7  26  14  27  14  28  13  29  13  30  13  31  13  32  13
M  END
>  <minimizedAffinity>  (1) 
-4.15911007

>  <minimizedRMSD>  (1) 
0.87453258

$$$$
