
     RDKit          3D

 32 34  0  0  1  0  0  0  0  0999 V2000
   36.5760   21.4040   34.8610 C   0  0  0  0  0  0  0  0  0  0  0  0
   35.6480   20.7290   35.3980 O   0  0  0  0  0  0  0  0  0  0  0  0
   36.5920   21.4550   33.4380 N   0  0  0  0  0  0  0  0  0  0  0  0
   36.0750   20.2810   32.7610 C   0  0  0  0  0  0  0  0  0  0  0  0
   35.8120   20.5670   31.3090 C   0  0  0  0  0  0  0  0  0  0  0  0
   35.3660   21.8270   31.0050 O   0  0  0  0  0  0  0  0  0  0  0  0
   35.8520   22.8750   31.7180 C   0  0  0  0  0  0  0  0  0  0  0  0
   37.0460   22.5040   32.5710 C   0  0  2  0  0  0  0  0  0  0  0  0
   39.6660   22.5350   36.4870 C   0  0  0  0  0  0  0  0  0  0  0  0
   39.1860   23.2380   37.5840 C   0  0  0  0  0  0  0  0  0  0  0  0
   37.8250   23.3280   37.7720 C   0  0  0  0  0  0  0  0  0  0  0  0
   37.0390   22.7060   36.8450 N   0  0  0  0  0  0  0  0  0  0  0  0
   37.4970   22.0330   35.7930 C   0  0  0  0  0  0  0  0  0  0  0  0
   38.8270   21.9670   35.6440 N   0  0  0  0  0  0  0  0  0  0  0  0
   38.2340   22.1800   31.7590 C   0  0  0  0  0  0  0  0  0  0  0  0
   39.3570   21.4790   32.1330 C   0  0  0  0  0  0  0  0  0  0  0  0
   40.2000   21.4200   31.0630 N   0  0  0  0  0  0  0  0  0  0  0  0
   39.6060   22.0790   30.0350 C   0  0  0  0  0  0  0  0  0  0  0  0
   38.4130   22.5360   30.4670 N   0  0  0  0  0  0  0  0  0  0  0  0
   36.8111   19.4674   32.8395 H   0  0  0  0  0  0  0  0  0  0  0  0
   35.1270   19.9912   33.2378 H   0  0  0  0  0  0  0  0  0  0  0  0
   36.7515   20.4037   30.7607 H   0  0  0  0  0  0  0  0  0  0  0  0
   34.9926   19.8912   31.0229 H   0  0  0  0  0  0  0  0  0  0  0  0
   36.1542   23.6667   31.0166 H   0  0  0  0  0  0  0  0  0  0  0  0
   35.0538   23.2115   32.3960 H   0  0  0  0  0  0  0  0  0  0  0  0
   37.4043   23.3471   33.1800 H   0  0  0  0  0  0  0  0  0  0  0  0
   40.7502   22.4518   36.3209 H   0  0  0  0  0  0  0  0  0  0  0  0
   39.8811   23.7148   38.2907 H   0  0  0  0  0  0  0  0  0  0  0  0
   37.3934   23.8727   38.6247 H   0  0  0  0  0  0  0  0  0  0  0  0
   39.5429   21.0413   33.1249 H   0  0  0  0  0  0  0  0  0  0  0  0
   40.0244   22.2160   29.0270 H   0  0  0  0  0  0  0  0  0  0  0  0
   37.7417   23.0734   29.9001 H   0  0  0  0  0  0  0  0  0  0  0  0
  1  2  2  0
  1 13  1  0
  3  1  1  0
  4  3  1  0
  5  4  1  0
  6  5  1  0
  6  7  1  0
  7  8  1  0
  8  3  1  0
  9 10  2  0
 10 11  1  0
 12 11  2  0
 13 12  1  0
 14 13  2  0
 14  9  1  0
 15 16  2  0
 15  8  1  0
 17 16  1  0
 18 19  1  0
 18 17  2  0
 19 15  1  0
  4 20  1  0
  4 21  1  0
  5 22  1  0
  5 23  1  0
  7 24  1  0
  7 25  1  0
  8 26  1  1
  9 27  1  0
 10 28  1  0
 11 29  1  0
 16 30  1  0
 18 31  1  0
 19 32  1  0
M  ISO  8  20  13  21  13  22  13  23  13  24  13  25  13  26  13  27  14
M  ISO  5  28  14  29  14  30  14  31  14  32   9
M  END
>  <minimizedAffinity>  (1) 
-4.29530048

>  <minimizedRMSD>  (1) 
1.01882339

$$$$
