
     RDKit          3D

 27 28  0  0  1  0  0  0  0  0999 V2000
   37.0020   21.7430   34.9550 C   0  0  0  0  0  0  0  0  0  0  0  0
   36.0740   20.9720   35.2870 O   0  0  0  0  0  0  0  0  0  0  0  0
   37.1440   22.0080   33.5680 N   0  0  0  0  0  0  0  0  0  0  0  0
   36.7350   20.9340   32.6710 C   0  0  0  0  0  0  0  0  0  0  0  0
   36.6780   21.4100   31.2400 C   0  0  0  0  0  0  0  0  0  0  0  0
   36.1750   22.6670   31.0710 O   0  0  0  0  0  0  0  0  0  0  0  0
   36.5420   23.6260   31.9720 C   0  0  0  0  0  0  0  0  0  0  0  0
   37.6330   23.1910   32.9010 C   0  0  2  0  0  0  0  0  0  0  0  0
   39.8610   22.6330   37.0990 C   0  0  0  0  0  0  0  0  0  0  0  0
   39.2380   23.2890   38.1530 C   0  0  0  0  0  0  0  0  0  0  0  0
   37.8690   23.4250   38.1330 C   0  0  0  0  0  0  0  0  0  0  0  0
   37.2140   22.8990   37.0660 N   0  0  0  0  0  0  0  0  0  0  0  0
   37.8230   22.2700   36.0560 C   0  0  0  0  0  0  0  0  0  0  0  0
   39.1640   22.1370   36.0780 N   0  0  0  0  0  0  0  0  0  0  0  0
   38.9110   23.0280   32.2990 N   0  0  0  0  0  0  0  0  0  0  0  0
   37.4584   20.1088   32.7461 H   0  0  0  0  0  0  0  0  0  0  0  0
   35.7303   20.5972   32.9663 H   0  0  0  0  0  0  0  0  0  0  0  0
   37.7001   21.3938   30.8338 H   0  0  0  0  0  0  0  0  0  0  0  0
   35.9898   20.7300   30.7165 H   0  0  0  0  0  0  0  0  0  0  0  0
   36.8900   24.5096   31.4168 H   0  0  0  0  0  0  0  0  0  0  0  0
   35.6586   23.8414   32.5910 H   0  0  0  0  0  0  0  0  0  0  0  0
   37.8429   23.9922   33.6249 H   0  0  0  0  0  0  0  0  0  0  0  0
   40.9552   22.5205   37.1077 H   0  0  0  0  0  0  0  0  0  0  0  0
   39.8285   23.6925   38.9887 H   0  0  0  0  0  0  0  0  0  0  0  0
   37.3298   23.9363   38.9441 H   0  0  0  0  0  0  0  0  0  0  0  0
   39.6273   22.9366   33.0334 H   0  0  0  0  0  0  0  0  0  0  0  0
   38.9093   22.1804   31.7138 H   0  0  0  0  0  0  0  0  0  0  0  0
  1  2  2  0
  1 13  1  0
  3  1  1  0
  4  3  1  0
  5  4  1  0
  6  5  1  0
  6  7  1  0
  7  8  1  0
  8  3  1  0
  9 10  2  0
 11 10  1  0
 12 11  2  0
 13 14  2  0
 13 12  1  0
 14  9  1  0
 15  8  1  0
  4 16  1  0
  4 17  1  0
  5 18  1  0
  5 19  1  0
  7 20  1  0
  7 21  1  0
  8 22  1  1
  9 23  1  0
 10 24  1  0
 11 25  1  0
 15 26  1  0
 15 27  1  0
M  ISO  8  16  13  17  13  18  13  19  13  20  13  21  13  22  13  23  14
M  ISO  4  24  14  25  14  26   5  27   5
M  END
>  <minimizedAffinity>  (1) 
-4.09093571

>  <minimizedRMSD>  (1) 
0.0118429642

$$$$
