
     RDKit          3D

 37 39  0  0  1  0  0  0  0  0999 V2000
   37.5580   21.8620   34.6840 C   0  0  0  0  0  0  0  0  0  0  0  0
   36.5990   21.0740   34.7970 O   0  0  0  0  0  0  0  0  0  0  0  0
   38.0230   22.1490   33.3790 N   0  0  0  0  0  0  0  0  0  0  0  0
   37.8360   21.0470   32.4160 C   0  0  0  0  0  0  0  0  0  0  0  0
   38.0460   21.4980   31.0050 C   0  0  0  0  0  0  0  0  0  0  0  0
   37.5800   22.7590   30.7240 O   0  0  0  0  0  0  0  0  0  0  0  0
   37.7590   23.7140   31.6510 C   0  0  0  0  0  0  0  0  0  0  0  0
   38.6540   23.3210   32.8030 C   0  0  1  0  0  0  0  0  0  0  0  0
   38.6780   24.4840   33.7230 C   0  0  0  0  0  0  0  0  0  0  0  0
   39.6330   25.0040   34.4920 N   0  0  0  0  0  0  0  0  0  0  0  0
   39.1750   26.0570   35.1150 O   0  0  0  0  0  0  0  0  0  0  0  0
   37.9350   26.2430   34.7740 C   0  0  0  0  0  0  0  0  0  0  0  0
   37.5700   25.2800   33.8960 N   0  0  0  0  0  0  0  0  0  0  0  0
   37.0500   27.2650   35.2080 N   0  0  0  0  0  0  0  0  0  0  0  0
   36.4910   28.1380   34.2570 C   0  0  0  0  0  0  0  0  0  0  0  0
   36.2010   27.7500   33.0720 N   0  0  0  0  0  0  0  0  0  0  0  0
   36.2170   29.5190   34.5760 N   0  0  0  0  0  0  0  0  0  0  0  0
   36.3330   26.8040   32.6900 H   0  0  0  0  0  0  0  0  0  0  0  0
   39.8050   22.7160   37.4800 C   0  0  0  0  0  0  0  0  0  0  0  0
   38.9980   23.5000   38.2920 C   0  0  0  0  0  0  0  0  0  0  0  0
   37.7010   23.7290   37.8780 C   0  0  0  0  0  0  0  0  0  0  0  0
   37.3350   23.1580   36.7060 N   0  0  0  0  0  0  0  0  0  0  0  0
   38.1070   22.4110   35.9330 C   0  0  0  0  0  0  0  0  0  0  0  0
   39.3710   22.1880   36.3360 N   0  0  0  0  0  0  0  0  0  0  0  0
   38.5568   20.2483   32.6451 H   0  0  0  0  0  0  0  0  0  0  0  0
   36.8012   20.6855   32.5081 H   0  0  0  0  0  0  0  0  0  0  0  0
   39.1261   21.4792   30.7978 H   0  0  0  0  0  0  0  0  0  0  0  0
   37.4682   20.8083   30.3722 H   0  0  0  0  0  0  0  0  0  0  0  0
   38.2027   24.5910   31.1571 H   0  0  0  0  0  0  0  0  0  0  0  0
   36.7678   23.9139   32.0841 H   0  0  0  0  0  0  0  0  0  0  0  0
   39.6943   23.0780   32.5407 H   0  0  0  0  0  0  0  0  0  0  0  0
   36.8201   27.3660   36.2069 H   0  0  0  0  0  0  0  0  0  0  0  0
   35.8074   30.1405   33.8641 H   0  0  0  0  0  0  0  0  0  0  0  0
   36.4311   29.8828   35.5155 H   0  0  0  0  0  0  0  0  0  0  0  0
   40.8419   22.5231   37.7923 H   0  0  0  0  0  0  0  0  0  0  0  0
   39.3784   23.9243   39.2329 H   0  0  0  0  0  0  0  0  0  0  0  0
   37.0033   24.3416   38.4678 H   0  0  0  0  0  0  0  0  0  0  0  0
  1  2  2  0
  1 23  1  0
  3  1  1  0
  4  3  1  0
  5  4  1  0
  6  5  1  0
  6  7  1  0
  7  8  1  0
  8  3  1  0
  8  9  1  0
  9 13  1  0
  9 10  2  0
 10 11  1  0
 12 11  1  0
 12 14  1  0
 13 12  2  0
 15 17  1  0
 15 14  1  0
 16 15  2  0
 18 16  1  0
 19 20  2  0
 21 20  1  0
 22 21  2  0
 23 24  2  0
 23 22  1  0
 24 19  1  0
  4 25  1  0
  4 26  1  0
  5 27  1  0
  5 28  1  0
  7 29  1  0
  7 30  1  0
  8 31  1  6
 14 32  1  0
 17 33  1  0
 17 34  1  0
 19 35  1  0
 20 36  1  0
 21 37  1  0
M  ISO  8  25  13  26  13  27  13  28  13  29  13  30  13  31  13  35  14
M  ISO  2  36  14  37  14
M  END
>  <minimizedAffinity>  (1) 
-5.05855465

>  <minimizedRMSD>  (1) 
0.739275336

$$$$
