
     RDKit          3D

 34 34  0  0  0  0  0  0  0  0999 V2000
   38.6320   23.4120   36.9250 C   0  0  0  0  0  0  0  0  0  0  0  0
   39.8430   26.1110   34.5880 C   0  0  0  0  0  0  0  0  0  0  0  0
   39.7160   24.8220   35.1560 C   0  0  0  0  0  0  0  0  0  0  0  0
   38.8430   24.6970   36.2550 C   0  0  0  0  0  0  0  0  0  0  0  0
   38.1770   25.7870   36.7130 N   0  0  0  0  0  0  0  0  0  0  0  0
   38.3400   26.9950   36.1290 C   0  0  0  0  0  0  0  0  0  0  0  0
   39.1600   27.1620   35.0790 N   0  0  0  0  0  0  0  0  0  0  0  0
   40.7460   26.3200   33.4250 C   0  0  0  0  0  0  0  0  0  0  0  0
   41.9110   27.2040   33.7510 C   0  0  0  0  0  0  0  0  0  0  0  0
   40.0000   27.0000   32.2710 C   0  0  0  0  0  0  0  0  0  0  0  0
   41.1750   24.9720   32.8570 C   0  0  0  0  0  0  0  0  0  0  0  0
   40.0090   22.7590   37.1000 C   0  0  0  0  0  0  0  0  0  0  0  0
   37.9390   23.5330   38.2730 C   0  0  0  0  0  0  0  0  0  0  0  0
   37.7470   22.5250   36.0680 C   0  0  0  0  0  0  0  0  0  0  0  0
   40.2715   23.9594   34.7593 H   0  0  0  0  0  0  0  0  0  0  0  0
   37.7882   27.8612   36.5230 H   0  0  0  0  0  0  0  0  0  0  0  0
   42.0163   27.2839   34.8430 H   0  0  0  0  0  0  0  0  0  0  0  0
   42.8289   26.7730   33.3247 H   0  0  0  0  0  0  0  0  0  0  0  0
   41.7431   28.2040   33.3247 H   0  0  0  0  0  0  0  0  0  0  0  0
   39.2447   27.6885   32.6778 H   0  0  0  0  0  0  0  0  0  0  0  0
   40.7151   27.5635   31.6536 H   0  0  0  0  0  0  0  0  0  0  0  0
   39.5050   26.2359   31.6536 H   0  0  0  0  0  0  0  0  0  0  0  0
   41.3954   24.2795   33.6828 H   0  0  0  0  0  0  0  0  0  0  0  0
   40.3637   24.5595   32.2392 H   0  0  0  0  0  0  0  0  0  0  0  0
   42.0754   25.1042   32.2392 H   0  0  0  0  0  0  0  0  0  0  0  0
   40.2312   22.6536   38.1721 H   0  0  0  0  0  0  0  0  0  0  0  0
   40.0068   21.7660   36.6267 H   0  0  0  0  0  0  0  0  0  0  0  0
   40.7764   23.3891   36.6267 H   0  0  0  0  0  0  0  0  0  0  0  0
   38.6776   23.4040   39.0779 H   0  0  0  0  0  0  0  0  0  0  0  0
   37.4735   24.5260   38.3582 H   0  0  0  0  0  0  0  0  0  0  0  0
   37.1645   22.7565   38.3582 H   0  0  0  0  0  0  0  0  0  0  0  0
   37.1197   21.8963   36.7170 H   0  0  0  0  0  0  0  0  0  0  0  0
   37.1042   23.1524   35.4330 H   0  0  0  0  0  0  0  0  0  0  0  0
   38.3758   21.8836   35.4330 H   0  0  0  0  0  0  0  0  0  0  0  0
  1 12  1  0
  1 13  1  0
  2  7  2  0
  2  3  1  0
  3  4  2  0
  4  5  1  0
  4  1  1  0
  6  5  2  0
  7  6  1  0
  8  9  1  0
  8  2  1  0
 10  8  1  0
 11  8  1  0
 14  1  1  0
  3 15  1  0
  6 16  1  0
  9 17  1  0
  9 18  1  0
  9 19  1  0
 10 20  1  0
 10 21  1  0
 10 22  1  0
 11 23  1  0
 11 24  1  0
 11 25  1  0
 12 26  1  0
 12 27  1  0
 12 28  1  0
 13 29  1  0
 13 30  1  0
 13 31  1  0
 14 32  1  0
 14 33  1  0
 14 34  1  0
M  ISO  8  15  14  16  14  17   8  18   8  19   8  20   8  21   8  22   8
M  ISO  8  23   8  24   8  25   8  26   8  27   8  28   8  29   8  30   8
M  ISO  4  31   8  32   8  33   8  34   8
M  END
>  <minimizedAffinity>  (1) 
-3.95584011

>  <minimizedRMSD>  (1) 
5.29511929

$$$$
