
     RDKit          3D

 32 34  0  0  1  0  0  0  0  0999 V2000
   37.5210   22.0970   34.8270 C   0  0  0  0  0  0  0  0  0  0  0  0
   36.5460   21.4030   35.1790 O   0  0  0  0  0  0  0  0  0  0  0  0
   37.5090   22.6280   33.5170 N   0  0  0  0  0  0  0  0  0  0  0  0
   36.7840   21.8060   32.5340 C   0  0  0  0  0  0  0  0  0  0  0  0
   36.5250   22.5440   31.2650 C   0  0  0  0  0  0  0  0  0  0  0  0
   36.2460   23.8790   31.4070 O   0  0  0  0  0  0  0  0  0  0  0  0
   36.9180   24.5710   32.3380 C   0  0  0  0  0  0  0  0  0  0  0  0
   38.0830   23.8330   32.9530 C   0  0  1  0  0  0  0  0  0  0  0  0
   40.7540   22.0200   36.5940 C   0  0  0  0  0  0  0  0  0  0  0  0
   40.4730   22.7020   37.7760 C   0  0  0  0  0  0  0  0  0  0  0  0
   39.1900   23.1760   37.9500 C   0  0  0  0  0  0  0  0  0  0  0  0
   38.3140   22.9320   36.9460 N   0  0  0  0  0  0  0  0  0  0  0  0
   38.5800   22.2840   35.8260 C   0  0  0  0  0  0  0  0  0  0  0  0
   39.8360   21.8180   35.6520 N   0  0  0  0  0  0  0  0  0  0  0  0
   38.6660   24.7420   33.9680 C   0  0  0  0  0  0  0  0  0  0  0  0
   39.9170   24.9410   34.3800 N   0  0  0  0  0  0  0  0  0  0  0  0
   39.9480   25.8690   35.2920 O   0  0  0  0  0  0  0  0  0  0  0  0
   38.7170   26.2910   35.4910 C   0  0  0  0  0  0  0  0  0  0  0  0
   37.8710   25.6130   34.6800 N   0  0  0  0  0  0  0  0  0  0  0  0
   38.3650   27.2960   36.4090 N   0  0  0  0  0  0  0  0  0  0  0  0
   37.3842   20.9123   32.3080 H   0  0  0  0  0  0  0  0  0  0  0  0
   35.8119   21.5350   32.9716 H   0  0  0  0  0  0  0  0  0  0  0  0
   35.6675   22.0694   30.7655 H   0  0  0  0  0  0  0  0  0  0  0  0
   37.4593   22.4896   30.6869 H   0  0  0  0  0  0  0  0  0  0  0  0
   37.3022   25.4900   31.8712 H   0  0  0  0  0  0  0  0  0  0  0  0
   36.2070   24.7655   33.1545 H   0  0  0  0  0  0  0  0  0  0  0  0
   38.8888   23.5515   32.2591 H   0  0  0  0  0  0  0  0  0  0  0  0
   41.7717   21.6345   36.4336 H   0  0  0  0  0  0  0  0  0  0  0  0
   41.2466   22.8567   38.5425 H   0  0  0  0  0  0  0  0  0  0  0  0
   38.8933   23.7236   38.8567 H   0  0  0  0  0  0  0  0  0  0  0  0
   37.3794   27.5766   36.5126 H   0  0  0  0  0  0  0  0  0  0  0  0
   39.0927   27.7516   36.9779 H   0  0  0  0  0  0  0  0  0  0  0  0
  1  2  2  0
  1 13  1  0
  3  1  1  0
  4  3  1  0
  5  6  1  0
  5  4  1  0
  6  7  1  0
  7  8  1  0
  8  3  1  0
  8 15  1  0
  9 10  2  0
 10 11  1  0
 12 11  2  0
 13 12  1  0
 14 13  2  0
 14  9  1  0
 15 16  2  0
 15 19  1  0
 16 17  1  0
 17 18  1  0
 18 20  1  0
 19 18  2  0
  4 21  1  0
  4 22  1  0
  5 23  1  0
  5 24  1  0
  7 25  1  0
  7 26  1  0
  8 27  1  6
  9 28  1  0
 10 29  1  0
 11 30  1  0
 20 31  1  0
 20 32  1  0
M  ISO  8  21  13  22  13  23  13  24  13  25  13  26  13  27  13  28  14
M  ISO  2  29  14  30  14
M  END
>  <minimizedAffinity>  (1) 
-5.03239202

>  <minimizedRMSD>  (1) 
0.93213892

$$$$
