
     RDKit          3D

 33 35  0  0  1  0  0  0  0  0999 V2000
   37.4870   21.9920   34.8460 C   0  0  0  0  0  0  0  0  0  0  0  0
   36.4480   21.3450   35.0860 O   0  0  0  0  0  0  0  0  0  0  0  0
   37.7750   22.2900   33.4940 N   0  0  0  0  0  0  0  0  0  0  0  0
   37.2700   21.2910   32.5320 C   0  0  0  0  0  0  0  0  0  0  0  0
   37.3320   21.7900   31.1240 C   0  0  0  0  0  0  0  0  0  0  0  0
   37.0530   23.1190   30.9630 O   0  0  0  0  0  0  0  0  0  0  0  0
   37.4940   23.9810   31.8930 C   0  0  0  0  0  0  0  0  0  0  0  0
   38.4800   23.3920   32.8720 C   0  0  1  0  0  0  0  0  0  0  0  0
   40.2520   22.3270   37.2580 C   0  0  0  0  0  0  0  0  0  0  0  0
   39.7140   23.1620   38.2280 C   0  0  0  0  0  0  0  0  0  0  0  0
   38.4180   23.5990   38.0460 C   0  0  0  0  0  0  0  0  0  0  0  0
   37.7860   23.1690   36.9280 N   0  0  0  0  0  0  0  0  0  0  0  0
   38.3000   22.3740   36.0060 C   0  0  0  0  0  0  0  0  0  0  0  0
   39.5660   21.9450   36.1820 N   0  0  0  0  0  0  0  0  0  0  0  0
   38.8350   24.4750   33.8170 C   0  0  0  0  0  0  0  0  0  0  0  0
   39.9650   24.7710   34.4580 N   0  0  0  0  0  0  0  0  0  0  0  0
   39.8060   25.8450   35.1770 O   0  0  0  0  0  0  0  0  0  0  0  0
   38.5700   26.2670   35.0160 C   0  0  0  0  0  0  0  0  0  0  0  0
   37.9170   25.4380   34.1690 N   0  0  0  0  0  0  0  0  0  0  0  0
   37.9470   27.4710   35.6550 C   0  0  0  0  0  0  0  0  0  0  0  0
   37.8802   20.3793   32.6131 H   0  0  0  0  0  0  0  0  0  0  0  0
   36.2167   21.0869   32.7747 H   0  0  0  0  0  0  0  0  0  0  0  0
   38.3475   21.6072   30.7429 H   0  0  0  0  0  0  0  0  0  0  0  0
   36.5505   21.2459   30.5733 H   0  0  0  0  0  0  0  0  0  0  0  0
   37.9810   24.8225   31.3786 H   0  0  0  0  0  0  0  0  0  0  0  0
   36.6149   24.2872   32.4790 H   0  0  0  0  0  0  0  0  0  0  0  0
   39.4173   23.0161   32.4358 H   0  0  0  0  0  0  0  0  0  0  0  0
   41.2840   21.9672   37.3828 H   0  0  0  0  0  0  0  0  0  0  0  0
   40.2993   23.4640   39.1090 H   0  0  0  0  0  0  0  0  0  0  0  0
   37.9238   24.2622   38.7712 H   0  0  0  0  0  0  0  0  0  0  0  0
   37.9978   27.3728   36.7494 H   0  0  0  0  0  0  0  0  0  0  0  0
   38.4907   28.3747   35.3423 H   0  0  0  0  0  0  0  0  0  0  0  0
   36.8953   27.5492   35.3423 H   0  0  0  0  0  0  0  0  0  0  0  0
  1  2  2  0
  1 13  1  0
  3  1  1  0
  4  3  1  0
  5  4  1  0
  6  5  1  0
  6  7  1  0
  7  8  1  0
  8  3  1  0
  8 15  1  0
  9 10  2  0
 11 10  1  0
 12 11  2  0
 13 14  2  0
 13 12  1  0
 14  9  1  0
 15 19  1  0
 15 16  2  0
 16 17  1  0
 18 17  1  0
 18 20  1  0
 19 18  2  0
  4 21  1  0
  4 22  1  0
  5 23  1  0
  5 24  1  0
  7 25  1  0
  7 26  1  0
  8 27  1  6
  9 28  1  0
 10 29  1  0
 11 30  1  0
 20 31  1  0
 20 32  1  0
 20 33  1  0
M  ISO  8  21  13  22  13  23  13  24  13  25  13  26  13  27  13  28  14
M  ISO  5  29  14  30  14  31   8  32   8  33   8
M  END
>  <minimizedAffinity>  (1) 
-4.88299561

>  <minimizedRMSD>  (1) 
0.646430433

$$$$
