
     RDKit          3D

 36 38  0  0  1  0  0  0  0  0999 V2000
   37.3940   21.9440   34.9920 C   0  0  0  0  0  0  0  0  0  0  0  0
   36.3650   21.3050   35.2900 O   0  0  0  0  0  0  0  0  0  0  0  0
   37.6280   22.2040   33.6220 N   0  0  0  0  0  0  0  0  0  0  0  0
   37.0850   21.1850   32.7060 C   0  0  0  0  0  0  0  0  0  0  0  0
   37.0770   21.6460   31.2900 C   0  0  0  0  0  0  0  0  0  0  0  0
   36.7880   22.9780   31.1070 O   0  0  0  0  0  0  0  0  0  0  0  0
   37.2800   23.8570   31.9940 C   0  0  0  0  0  0  0  0  0  0  0  0
   38.3100   23.2880   32.9430 C   0  0  1  0  0  0  0  0  0  0  0  0
   40.2590   22.3490   37.2720 C   0  0  0  0  0  0  0  0  0  0  0  0
   39.7510   23.2020   38.2510 C   0  0  0  0  0  0  0  0  0  0  0  0
   38.4470   23.6230   38.1180 C   0  0  0  0  0  0  0  0  0  0  0  0
   37.7720   23.1640   37.0350 N   0  0  0  0  0  0  0  0  0  0  0  0
   38.2520   22.3560   36.1080 C   0  0  0  0  0  0  0  0  0  0  0  0
   39.5310   21.9410   36.2360 N   0  0  0  0  0  0  0  0  0  0  0  0
   38.6980   24.4000   33.8450 C   0  0  0  0  0  0  0  0  0  0  0  0
   39.8470   24.7010   34.4540 N   0  0  0  0  0  0  0  0  0  0  0  0
   39.7120   25.8010   35.1400 O   0  0  0  0  0  0  0  0  0  0  0  0
   38.4820   26.2330   34.9900 C   0  0  0  0  0  0  0  0  0  0  0  0
   37.7990   25.3870   34.1850 N   0  0  0  0  0  0  0  0  0  0  0  0
   37.8040   27.4360   35.5520 C   0  0  0  0  0  0  0  0  0  0  0  0
   36.7460   27.9720   34.6040 C   0  0  0  0  0  0  0  0  0  0  0  0
   37.7029   20.2779   32.7794 H   0  0  0  0  0  0  0  0  0  0  0  0
   36.0442   20.9866   33.0016 H   0  0  0  0  0  0  0  0  0  0  0  0
   38.0726   21.4527   30.8641 H   0  0  0  0  0  0  0  0  0  0  0  0
   36.2692   21.0886   30.7933 H   0  0  0  0  0  0  0  0  0  0  0  0
   37.7471   24.6818   31.4359 H   0  0  0  0  0  0  0  0  0  0  0  0
   36.4311   24.1801   32.6145 H   0  0  0  0  0  0  0  0  0  0  0  0
   39.2284   22.8979   32.4801 H   0  0  0  0  0  0  0  0  0  0  0  0
   41.2988   22.0010   37.3594 H   0  0  0  0  0  0  0  0  0  0  0  0
   40.3704   23.5272   39.0999 H   0  0  0  0  0  0  0  0  0  0  0  0
   37.9777   24.2957   38.8510 H   0  0  0  0  0  0  0  0  0  0  0  0
   37.3258   27.1644   36.5047 H   0  0  0  0  0  0  0  0  0  0  0  0
   38.5609   28.2197   35.7033 H   0  0  0  0  0  0  0  0  0  0  0  0
   35.9129   28.3941   35.1852 H   0  0  0  0  0  0  0  0  0  0  0  0
   37.1852   28.7563   33.9700 H   0  0  0  0  0  0  0  0  0  0  0  0
   36.3734   27.1539   33.9700 H   0  0  0  0  0  0  0  0  0  0  0  0
  1  2  2  0
  1 13  1  0
  3  1  1  0
  4  3  1  0
  5  4  1  0
  6  5  1  0
  6  7  1  0
  7  8  1  0
  8  3  1  0
  8 15  1  0
  9 10  2  0
 11 10  1  0
 12 11  2  0
 13 14  2  0
 13 12  1  0
 14  9  1  0
 15 19  1  0
 15 16  2  0
 16 17  1  0
 18 17  1  0
 18 20  1  0
 19 18  2  0
 21 20  1  0
  4 22  1  0
  4 23  1  0
  5 24  1  0
  5 25  1  0
  7 26  1  0
  7 27  1  0
  8 28  1  6
  9 29  1  0
 10 30  1  0
 11 31  1  0
 20 32  1  0
 20 33  1  0
 21 34  1  0
 21 35  1  0
 21 36  1  0
M  ISO  8  22  13  23  13  24  13  25  13  26  13  27  13  28  13  29  14
M  ISO  7  30  14  31  14  32   8  33   8  34   8  35   8  36   8
M  END
>  <minimizedAffinity>  (1) 
-5.0265317

>  <minimizedRMSD>  (1) 
0.725204289

$$$$
