
     RDKit          3D

 31 32  0  0  0  0  0  0  0  0999 V2000
   39.7630   23.0450   34.9510 C   0  0  0  0  0  0  0  0  0  0  0  0
   39.8270   24.4370   35.0190 C   0  0  0  0  0  0  0  0  0  0  0  0
   38.8570   25.2080   34.3780 C   0  0  0  0  0  0  0  0  0  0  0  0
   37.8770   24.5560   33.7030 N   0  0  0  0  0  0  0  0  0  0  0  0
   37.8280   23.2130   33.6450 C   0  0  0  0  0  0  0  0  0  0  0  0
   38.7500   22.4590   34.2550 N   0  0  0  0  0  0  0  0  0  0  0  0
   40.7720   22.2300   35.6190 C   0  0  0  0  0  0  0  0  0  0  0  0
   41.7710   21.6620   34.8790 C   0  0  0  0  0  0  0  0  0  0  0  0
   42.6860   20.9020   35.5960 C   0  0  0  0  0  0  0  0  0  0  0  0
   42.5780   20.7430   36.9630 C   0  0  0  0  0  0  0  0  0  0  0  0
   41.5450   21.3390   37.6780 C   0  0  0  0  0  0  0  0  0  0  0  0
   40.6620   22.0780   36.9480 N   0  0  0  0  0  0  0  0  0  0  0  0
   38.8640   26.6660   34.4100 C   0  0  0  0  0  0  0  0  0  0  0  0
   40.2180   27.1340   33.9080 C   0  0  0  0  0  0  0  0  0  0  0  0
   37.7360   27.3070   33.6210 C   0  0  0  0  0  0  0  0  0  0  0  0
   38.6810   27.1400   35.8600 C   0  0  0  0  0  0  0  0  0  0  0  0
   40.6400   24.9252   35.5764 H   0  0  0  0  0  0  0  0  0  0  0  0
   37.0154   22.7258   33.0861 H   0  0  0  0  0  0  0  0  0  0  0  0
   41.8452   21.7976   33.7899 H   0  0  0  0  0  0  0  0  0  0  0  0
   43.5158   20.4156   35.0623 H   0  0  0  0  0  0  0  0  0  0  0  0
   43.3226   20.1338   37.4963 H   0  0  0  0  0  0  0  0  0  0  0  0
   41.4462   21.2213   38.7672 H   0  0  0  0  0  0  0  0  0  0  0  0
   40.8692   27.3591   34.7655 H   0  0  0  0  0  0  0  0  0  0  0  0
   40.6764   26.3422   33.2974 H   0  0  0  0  0  0  0  0  0  0  0  0
   40.0896   28.0399   33.2974 H   0  0  0  0  0  0  0  0  0  0  0  0
   36.9951   27.7280   34.3166 H   0  0  0  0  0  0  0  0  0  0  0  0
   38.1416   28.1095   32.9874 H   0  0  0  0  0  0  0  0  0  0  0  0
   37.2541   26.5478   32.9874 H   0  0  0  0  0  0  0  0  0  0  0  0
   38.9898   26.3401   36.5490 H   0  0  0  0  0  0  0  0  0  0  0  0
   39.2989   28.0331   36.0346 H   0  0  0  0  0  0  0  0  0  0  0  0
   37.6232   27.3862   36.0346 H   0  0  0  0  0  0  0  0  0  0  0  0
  1  2  2  0
  1  7  1  0
  3 13  1  0
  3  2  1  0
  4  3  2  0
  5  4  1  0
  5  6  2  0
  6  1  1  0
  7 12  2  0
  8  9  2  0
  8  7  1  0
  9 10  1  0
 10 11  2  0
 12 11  1  0
 13 16  1  0
 14 13  1  0
 15 13  1  0
  2 17  1  0
  5 18  1  0
  8 19  1  0
  9 20  1  0
 10 21  1  0
 11 22  1  0
 14 23  1  0
 14 24  1  0
 14 25  1  0
 15 26  1  0
 15 27  1  0
 15 28  1  0
 16 29  1  0
 16 30  1  0
 16 31  1  0
M  ISO  8  17  14  18  14  19  14  20  14  21  14  22  14  23   8  24   8
M  ISO  7  25   8  26   8  27   8  28   8  29   8  30   8  31   8
M  END
>  <minimizedAffinity>  (1) 
-3.94048715

>  <minimizedRMSD>  (1) 
3.7593329

$$$$
