
     RDKit          3D

 45 48  0  0  1  0  0  0  0  0999 V2000
   36.9010   21.5640   34.7640 C   0  0  0  0  0  0  0  0  0  0  0  0
   36.2310   21.2820   35.7760 O   0  0  0  0  0  0  0  0  0  0  0  0
   36.4810   21.0040   33.5490 N   0  0  0  0  0  0  0  0  0  0  0  0
   35.8000   19.6970   33.6610 C   0  0  0  0  0  0  0  0  0  0  0  0
   35.1190   19.2920   32.4030 C   0  0  0  0  0  0  0  0  0  0  0  0
   34.5200   20.3250   31.7170 O   0  0  0  0  0  0  0  0  0  0  0  0
   35.1900   21.4810   31.6360 C   0  0  0  0  0  0  0  0  0  0  0  0
   36.5880   21.4610   32.1640 C   0  0  1  0  0  0  0  0  0  0  0  0
   40.3380   22.8880   34.8980 C   0  0  0  0  0  0  0  0  0  0  0  0
   40.1380   24.1970   35.3590 C   0  0  0  0  0  0  0  0  0  0  0  0
   38.8450   24.5940   35.6100 C   0  0  0  0  0  0  0  0  0  0  0  0
   37.8740   23.6770   35.3870 N   0  0  0  0  0  0  0  0  0  0  0  0
   38.0580   22.4500   34.9560 C   0  0  0  0  0  0  0  0  0  0  0  0
   39.3250   22.0450   34.7050 N   0  0  0  0  0  0  0  0  0  0  0  0
   37.1210   22.8470   32.0490 C   0  0  0  0  0  0  0  0  0  0  0  0
   38.3460   23.3300   31.9170 N   0  0  0  0  0  0  0  0  0  0  0  0
   38.3170   24.6180   31.8270 O   0  0  0  0  0  0  0  0  0  0  0  0
   37.0510   25.0180   31.9000 C   0  0  0  0  0  0  0  0  0  0  0  0
   36.2500   23.9260   32.0420 N   0  0  0  0  0  0  0  0  0  0  0  0
   36.4970   26.3830   31.8450 C   0  0  0  0  0  0  0  0  0  0  0  0
   35.3390   26.6230   31.4440 O   0  0  0  0  0  0  0  0  0  0  0  0
   37.4220   27.4730   32.3060 C   0  0  0  0  0  0  0  0  0  0  0  0
   37.7800   27.2520   33.7690 C   0  0  0  0  0  0  0  0  0  0  0  0
   36.5940   27.7740   34.5520 C   0  0  0  0  0  0  0  0  0  0  0  0
   36.1040   28.9280   33.7390 C   0  0  0  0  0  0  0  0  0  0  0  0
   36.5670   28.7450   32.3180 C   0  0  0  0  0  0  0  0  0  0  0  0
   36.5477   18.9321   33.9178 H   0  0  0  0  0  0  0  0  0  0  0  0
   35.0285   19.7914   34.4394 H   0  0  0  0  0  0  0  0  0  0  0  0
   35.8665   18.8291   31.7419 H   0  0  0  0  0  0  0  0  0  0  0  0
   34.3131   18.6018   32.6931 H   0  0  0  0  0  0  0  0  0  0  0  0
   35.2337   21.7722   30.5761 H   0  0  0  0  0  0  0  0  0  0  0  0
   34.6404   22.1900   32.2726 H   0  0  0  0  0  0  0  0  0  0  0  0
   37.2739   20.7954   31.6195 H   0  0  0  0  0  0  0  0  0  0  0  0
   41.3627   22.5469   34.6894 H   0  0  0  0  0  0  0  0  0  0  0  0
   40.9846   24.8819   35.5144 H   0  0  0  0  0  0  0  0  0  0  0  0
   38.6116   25.6056   35.9736 H   0  0  0  0  0  0  0  0  0  0  0  0
   38.3203   27.5122   31.6724 H   0  0  0  0  0  0  0  0  0  0  0  0
   37.9344   26.1817   33.9708 H   0  0  0  0  0  0  0  0  0  0  0  0
   38.7129   27.7651   34.0457 H   0  0  0  0  0  0  0  0  0  0  0  0
   35.8158   27.0020   34.6440 H   0  0  0  0  0  0  0  0  0  0  0  0
   36.8590   28.0624   35.5799 H   0  0  0  0  0  0  0  0  0  0  0  0
   35.0050   28.9625   33.7692 H   0  0  0  0  0  0  0  0  0  0  0  0
   36.5012   29.8698   34.1455 H   0  0  0  0  0  0  0  0  0  0  0  0
   37.1664   29.6101   31.9981 H   0  0  0  0  0  0  0  0  0  0  0  0
   35.7152   28.6614   31.6270 H   0  0  0  0  0  0  0  0  0  0  0  0
  1 13  1  0
  1  2  2  0
  3  4  1  0
  3  1  1  0
  5  4  1  0
  6  5  1  0
  7  6  1  0
  7  8  1  0
  8  3  1  0
  9 10  2  0
 10 11  1  0
 12 11  2  0
 13 12  1  0
 14  9  1  0
 14 13  2  0
 15  8  1  0
 16 15  2  0
 17 18  1  0
 17 16  1  0
 18 19  2  0
 19 15  1  0
 20 18  1  0
 20 22  1  0
 21 20  2  0
 22 26  1  0
 22 23  1  0
 23 24  1  0
 25 24  1  0
 26 25  1  0
  4 27  1  0
  4 28  1  0
  5 29  1  0
  5 30  1  0
  7 31  1  0
  7 32  1  0
  8 33  1  6
  9 34  1  0
 10 35  1  0
 11 36  1  0
 22 37  1  0
 23 38  1  0
 23 39  1  0
 24 40  1  0
 24 41  1  0
 25 42  1  0
 25 43  1  0
 26 44  1  0
 26 45  1  0
M  ISO  8  27  13  28  13  29  13  30  13  31  13  32  13  33  13  34  14
M  ISO  8  35  14  36  14  37  13  38  13  39  13  40  13  41  13  42  13
M  ISO  3  43  13  44  13  45  13
M  END
>  <minimizedAffinity>  (1) 
-5.2916131

>  <minimizedRMSD>  (1) 
3.27635884

$$$$
