
     RDKit          3D

 34 36  0  0  1  0  0  0  0  0999 V2000
   37.2540   21.7550   34.9000 C   0  0  0  0  0  0  0  0  0  0  0  0
   36.2090   21.1520   35.2070 O   0  0  0  0  0  0  0  0  0  0  0  0
   37.5180   21.9040   33.5310 N   0  0  0  0  0  0  0  0  0  0  0  0
   36.9810   20.8290   32.6650 C   0  0  0  0  0  0  0  0  0  0  0  0
   37.0430   21.1700   31.2200 C   0  0  0  0  0  0  0  0  0  0  0  0
   36.7920   22.4860   30.9230 O   0  0  0  0  0  0  0  0  0  0  0  0
   37.2470   23.4190   31.7610 C   0  0  0  0  0  0  0  0  0  0  0  0
   38.2370   22.9250   32.7710 C   0  0  1  0  0  0  0  0  0  0  0  0
   40.0990   22.3330   37.1680 C   0  0  0  0  0  0  0  0  0  0  0  0
   39.5570   23.2200   38.1080 C   0  0  0  0  0  0  0  0  0  0  0  0
   38.2450   23.5980   37.9500 C   0  0  0  0  0  0  0  0  0  0  0  0
   37.5880   23.0740   36.8870 N   0  0  0  0  0  0  0  0  0  0  0  0
   38.0920   22.2420   36.0020 C   0  0  0  0  0  0  0  0  0  0  0  0
   39.3800   21.8650   36.1520 N   0  0  0  0  0  0  0  0  0  0  0  0
   38.6360   24.0940   33.6020 C   0  0  0  0  0  0  0  0  0  0  0  0
   39.7850   24.4630   34.1390 N   0  0  0  0  0  0  0  0  0  0  0  0
   39.6660   25.5780   34.7650 O   0  0  0  0  0  0  0  0  0  0  0  0
   38.4030   25.9810   34.6510 C   0  0  0  0  0  0  0  0  0  0  0  0
   37.7020   25.0700   33.9180 N   0  0  0  0  0  0  0  0  0  0  0  0
   37.7430   27.1980   35.1830 C   0  0  0  0  0  0  0  0  0  0  0  0
   36.6590   27.6260   34.7410 O   0  0  0  0  0  0  0  0  0  0  0  0
   38.4840   27.8040   36.2400 N   0  0  0  0  0  0  0  0  0  0  0  0
   37.5672   19.9140   32.8358 H   0  0  0  0  0  0  0  0  0  0  0  0
   35.9220   20.6895   32.9277 H   0  0  0  0  0  0  0  0  0  0  0  0
   38.0509   20.9240   30.8544 H   0  0  0  0  0  0  0  0  0  0  0  0
   36.2471   20.5878   30.7325 H   0  0  0  0  0  0  0  0  0  0  0  0
   37.7298   24.2080   31.1657 H   0  0  0  0  0  0  0  0  0  0  0  0
   36.3760   23.7770   32.3295 H   0  0  0  0  0  0  0  0  0  0  0  0
   39.1568   22.4919   32.3511 H   0  0  0  0  0  0  0  0  0  0  0  0
   41.1469   22.0155   37.2735 H   0  0  0  0  0  0  0  0  0  0  0  0
   40.1614   23.6010   38.9444 H   0  0  0  0  0  0  0  0  0  0  0  0
   37.7539   24.2899   38.6501 H   0  0  0  0  0  0  0  0  0  0  0  0
   38.1295   28.6580   36.6937 H   0  0  0  0  0  0  0  0  0  0  0  0
   39.3738   27.3877   36.5497 H   0  0  0  0  0  0  0  0  0  0  0  0
  1  2  2  0
  1 13  1  0
  3  1  1  0
  4  3  1  0
  5  4  1  0
  6  5  1  0
  6  7  1  0
  7  8  1  0
  8  3  1  0
  8 15  1  0
  9 10  2  0
 11 10  1  0
 12 11  2  0
 13 14  2  0
 13 12  1  0
 14  9  1  0
 15 19  1  0
 15 16  2  0
 16 17  1  0
 18 17  1  0
 18 20  1  0
 19 18  2  0
 20 22  1  0
 21 20  2  0
  4 23  1  0
  4 24  1  0
  5 25  1  0
  5 26  1  0
  7 27  1  0
  7 28  1  0
  8 29  1  6
  9 30  1  0
 10 31  1  0
 11 32  1  0
 22 33  1  0
 22 34  1  0
M  ISO  8  23  13  24  13  25  13  26  13  27  13  28  13  29  13  30  14
M  ISO  2  31  14  32  14
M  END
>  <minimizedAffinity>  (1) 
-5.3644104

>  <minimizedRMSD>  (1) 
0.42304492

$$$$
