
     RDKit          3D

 39 41  0  0  1  0  0  0  0  0999 V2000
   36.5680   21.2810   34.7290 C   0  0  0  0  0  0  0  0  0  0  0  0
   35.6080   20.8080   35.3640 O   0  0  0  0  0  0  0  0  0  0  0  0
   36.5830   21.0590   33.3430 N   0  0  0  0  0  0  0  0  0  0  0  0
   35.9160   19.8110   32.9030 C   0  0  0  0  0  0  0  0  0  0  0  0
   35.7290   19.7540   31.4290 C   0  0  0  0  0  0  0  0  0  0  0  0
   35.3900   20.9540   30.8460 O   0  0  0  0  0  0  0  0  0  0  0  0
   35.9990   22.0560   31.2890 C   0  0  0  0  0  0  0  0  0  0  0  0
   37.1370   21.8250   32.2260 C   0  0  1  0  0  0  0  0  0  0  0  0
   39.7730   22.4590   36.1110 C   0  0  0  0  0  0  0  0  0  0  0  0
   39.3690   23.4660   36.9950 C   0  0  0  0  0  0  0  0  0  0  0  0
   38.0200   23.7210   37.1000 C   0  0  0  0  0  0  0  0  0  0  0  0
   37.2020   22.9650   36.3300 N   0  0  0  0  0  0  0  0  0  0  0  0
   37.5790   22.0190   35.4980 C   0  0  0  0  0  0  0  0  0  0  0  0
   38.8980   21.7610   35.3890 N   0  0  0  0  0  0  0  0  0  0  0  0
   37.6490   23.1610   32.6370 C   0  0  0  0  0  0  0  0  0  0  0  0
   38.8430   23.5920   33.0120 N   0  0  0  0  0  0  0  0  0  0  0  0
   38.8110   24.8650   33.2520 O   0  0  0  0  0  0  0  0  0  0  0  0
   37.5830   25.2940   33.0380 C   0  0  0  0  0  0  0  0  0  0  0  0
   36.7960   24.2560   32.6450 N   0  0  0  0  0  0  0  0  0  0  0  0
   37.0320   26.6630   33.1710 C   0  0  0  0  0  0  0  0  0  0  0  0
   36.2530   27.1660   32.3310 O   0  0  0  0  0  0  0  0  0  0  0  0
   37.3990   27.4670   34.3120 N   0  0  0  0  0  0  0  0  0  0  0  0
   38.2880   26.8850   35.2650 C   0  0  0  0  0  0  0  0  0  0  0  0
   38.7510   25.6900   35.1230 N   0  0  0  0  0  0  0  0  0  0  0  0
   38.6360   27.6970   36.3840 N   0  0  0  0  0  0  0  0  0  0  0  0
   39.3970   25.3270   35.8570 H   0  0  0  0  0  0  0  0  0  0  0  0
   36.5313   18.9538   33.2139 H   0  0  0  0  0  0  0  0  0  0  0  0
   34.9193   19.7833   33.3675 H   0  0  0  0  0  0  0  0  0  0  0  0
   36.6701   19.4072   30.9772 H   0  0  0  0  0  0  0  0  0  0  0  0
   34.8855   19.0714   31.2487 H   0  0  0  0  0  0  0  0  0  0  0  0
   36.3834   22.6053   30.4169 H   0  0  0  0  0  0  0  0  0  0  0  0
   35.2420   22.6113   31.8623 H   0  0  0  0  0  0  0  0  0  0  0  0
   37.9791   21.2664   31.7914 H   0  0  0  0  0  0  0  0  0  0  0  0
   40.8456   22.2373   36.0094 H   0  0  0  0  0  0  0  0  0  0  0  0
   40.1034   24.0338   37.5852 H   0  0  0  0  0  0  0  0  0  0  0  0
   37.6278   24.4973   37.7734 H   0  0  0  0  0  0  0  0  0  0  0  0
   37.0340   28.4224   34.4337 H   0  0  0  0  0  0  0  0  0  0  0  0
   39.2739   27.3328   37.1061 H   0  0  0  0  0  0  0  0  0  0  0  0
   38.2496   28.6478   36.4704 H   0  0  0  0  0  0  0  0  0  0  0  0
  1  2  2  0
  1 13  1  0
  3  1  1  0
  4  3  1  0
  5  4  1  0
  6  7  1  0
  6  5  1  0
  7  8  1  0
  8 15  1  0
  8  3  1  0
  9 10  2  0
 10 11  1  0
 12 11  2  0
 13 12  1  0
 14 13  2  0
 14  9  1  0
 15 19  1  0
 15 16  2  0
 16 17  1  0
 18 20  1  0
 18 17  1  0
 19 18  2  0
 20 22  1  0
 21 20  2  0
 22 23  1  0
 23 25  1  0
 24 23  2  0
 24 26  1  0
  4 27  1  0
  4 28  1  0
  5 29  1  0
  5 30  1  0
  7 31  1  0
  7 32  1  0
  8 33  1  6
  9 34  1  0
 10 35  1  0
 11 36  1  0
 22 37  1  0
 25 38  1  0
 25 39  1  0
M  ISO  8  27  13  28  13  29  13  30  13  31  13  32  13  33  13  34  14
M  ISO  2  35  14  36  14
M  END
>  <minimizedAffinity>  (1) 
-5.64049196

>  <minimizedRMSD>  (1) 
1.94832253

$$$$
