
     RDKit          3D

 32 34  0  0  0  0  0  0  0  0999 V2000
   39.4260   22.9610   37.2470 C   0  0  0  0  0  0  0  0  0  0  0  0
   38.7300   23.9730   36.5850 C   0  0  0  0  0  0  0  0  0  0  0  0
   37.7630   24.3950   37.4550 N   0  0  0  0  0  0  0  0  0  0  0  0
   37.9040   23.6470   38.5790 C   0  0  0  0  0  0  0  0  0  0  0  0
   38.9010   22.7780   38.4710 N   0  0  0  0  0  0  0  0  0  0  0  0
   42.5350   20.9250   36.9290 C   0  0  0  0  0  0  0  0  0  0  0  0
   41.4560   21.6100   37.4940 C   0  0  0  0  0  0  0  0  0  0  0  0
   40.5400   22.2560   36.6460 C   0  0  0  0  0  0  0  0  0  0  0  0
   40.7830   22.1610   35.3060 N   0  0  0  0  0  0  0  0  0  0  0  0
   41.8250   21.4970   34.8040 C   0  0  0  0  0  0  0  0  0  0  0  0
   42.7000   20.8810   35.5980 N   0  0  0  0  0  0  0  0  0  0  0  0
   38.8640   24.5460   35.3110 N   0  0  0  0  0  0  0  0  0  0  0  0
   38.2720   24.2750   34.0200 C   0  0  0  0  0  0  0  0  0  0  0  0
   37.5480   25.4720   33.4560 C   0  0  0  0  0  0  0  0  0  0  0  0
   38.2720   26.7640   33.7370 C   0  0  0  0  0  0  0  0  0  0  0  0
   39.7330   26.4320   33.9930 C   0  0  0  0  0  0  0  0  0  0  0  0
   39.8050   25.6600   35.2690 C   0  0  0  0  0  0  0  0  0  0  0  0
   37.2687   23.7489   39.4712 H   0  0  0  0  0  0  0  0  0  0  0  0
   39.2104   22.0998   39.1818 H   0  0  0  0  0  0  0  0  0  0  0  0
   43.2579   20.4157   37.5832 H   0  0  0  0  0  0  0  0  0  0  0  0
   41.3255   21.6431   38.5857 H   0  0  0  0  0  0  0  0  0  0  0  0
   41.9648   21.4571   33.7136 H   0  0  0  0  0  0  0  0  0  0  0  0
   39.0689   23.9824   33.3205 H   0  0  0  0  0  0  0  0  0  0  0  0
   37.5350   23.4691   34.1518 H   0  0  0  0  0  0  0  0  0  0  0  0
   36.5456   25.5233   33.9060 H   0  0  0  0  0  0  0  0  0  0  0  0
   37.4929   25.3480   32.3644 H   0  0  0  0  0  0  0  0  0  0  0  0
   38.1874   27.4364   32.8706 H   0  0  0  0  0  0  0  0  0  0  0  0
   37.8337   27.2677   34.6112 H   0  0  0  0  0  0  0  0  0  0  0  0
   40.1303   25.8261   33.1654 H   0  0  0  0  0  0  0  0  0  0  0  0
   40.3309   27.3525   34.0648 H   0  0  0  0  0  0  0  0  0  0  0  0
   40.8246   25.2630   35.3822 H   0  0  0  0  0  0  0  0  0  0  0  0
   39.5408   26.3470   36.0865 H   0  0  0  0  0  0  0  0  0  0  0  0
  1  5  1  0
  2  1  2  0
  2  3  1  0
  3  4  2  0
  5  4  1  0
  6  7  2  0
  8  1  1  0
  8  7  1  0
  9  8  2  0
 10  9  1  0
 10 11  2  0
 11  6  1  0
 12  2  1  0
 13 12  1  0
 14 15  1  0
 14 13  1  0
 15 16  1  0
 16 17  1  0
 17 12  1  0
  4 18  1  0
  5 19  1  0
  6 20  1  0
  7 21  1  0
 10 22  1  0
 13 23  1  0
 13 24  1  0
 14 25  1  0
 14 26  1  0
 15 27  1  0
 15 28  1  0
 16 29  1  0
 16 30  1  0
 17 31  1  0
 17 32  1  0
M  ISO  8  18  14  19   9  20  14  21  14  22  14  23  13  24  13  25  13
M  ISO  7  26  13  27  13  28  13  29  13  30  13  31  13  32  13
M  END
>  <minimizedAffinity>  (1) 
-4.75282145

>  <minimizedRMSD>  (1) 
0.369790435

$$$$
