
     RDKit          3D

 27 29  0  0  0  0  0  0  0  0999 V2000
   39.5370   23.1100   37.4380 C   0  0  0  0  0  0  0  0  0  0  0  0
   38.7310   23.9930   36.7140 C   0  0  0  0  0  0  0  0  0  0  0  0
   37.5770   24.0880   37.4240 N   0  0  0  0  0  0  0  0  0  0  0  0
   37.6950   23.2990   38.5150 C   0  0  0  0  0  0  0  0  0  0  0  0
   38.8720   22.7070   38.5310 N   0  0  0  0  0  0  0  0  0  0  0  0
   42.5950   21.0500   36.9040 C   0  0  0  0  0  0  0  0  0  0  0  0
   41.3140   21.4360   37.3070 C   0  0  0  0  0  0  0  0  0  0  0  0
   40.8810   22.7370   37.0020 C   0  0  0  0  0  0  0  0  0  0  0  0
   41.7350   23.5600   36.3260 N   0  0  0  0  0  0  0  0  0  0  0  0
   42.9640   23.1300   35.9610 C   0  0  0  0  0  0  0  0  0  0  0  0
   43.3920   21.8970   36.2440 N   0  0  0  0  0  0  0  0  0  0  0  0
   38.9420   24.7100   35.4860 C   0  0  0  0  0  0  0  0  0  0  0  0
   39.1650   26.0780   35.6940 C   0  0  0  0  0  0  0  0  0  0  0  0
   39.3920   26.9630   34.6480 C   0  0  0  0  0  0  0  0  0  0  0  0
   39.3970   26.4700   33.3720 C   0  0  0  0  0  0  0  0  0  0  0  0
   39.1820   25.1290   33.1350 C   0  0  0  0  0  0  0  0  0  0  0  0
   38.9560   24.2530   34.1850 C   0  0  0  0  0  0  0  0  0  0  0  0
   36.9174   23.1693   39.2821 H   0  0  0  0  0  0  0  0  0  0  0  0
   39.2176   22.0553   39.2499 H   0  0  0  0  0  0  0  0  0  0  0  0
   42.9528   20.0353   37.1328 H   0  0  0  0  0  0  0  0  0  0  0  0
   40.6602   20.7377   37.8501 H   0  0  0  0  0  0  0  0  0  0  0  0
   43.6299   23.8150   35.4157 H   0  0  0  0  0  0  0  0  0  0  0  0
   39.1600   26.4650   36.7237 H   0  0  0  0  0  0  0  0  0  0  0  0
   39.5633   28.0324   34.8406 H   0  0  0  0  0  0  0  0  0  0  0  0
   39.5744   27.1506   32.5262 H   0  0  0  0  0  0  0  0  0  0  0  0
   39.1899   24.7505   32.1022 H   0  0  0  0  0  0  0  0  0  0  0  0
   38.7866   23.1858   33.9791 H   0  0  0  0  0  0  0  0  0  0  0  0
  1  5  1  0
  2  3  1  0
  2  1  2  0
  3  4  2  0
  4  5  1  0
  6  7  2  0
  8  7  1  0
  8  1  1  0
  9  8  2  0
 10 11  2  0
 10  9  1  0
 11  6  1  0
 12 13  2  0
 12  2  1  0
 14 13  1  0
 15 14  2  0
 16 15  1  0
 16 17  2  0
 17 12  1  0
  4 18  1  0
  5 19  1  0
  6 20  1  0
  7 21  1  0
 10 22  1  0
 13 23  1  0
 14 24  1  0
 15 25  1  0
 16 26  1  0
 17 27  1  0
M  ISO  8  18  14  19   9  20  14  21  14  22  14  23  14  24  14  25  14
M  ISO  2  26  14  27  14
M  END
>  <minimizedAffinity>  (1) 
-4.86637068

>  <minimizedRMSD>  (1) 
1.17615664

$$$$
