
     RDKit          3D

 26 28  0  0  0  0  0  0  0  0999 V2000
   39.4050   22.9070   37.2830 C   0  0  0  0  0  0  0  0  0  0  0  0
   38.5730   23.8320   36.6660 C   0  0  0  0  0  0  0  0  0  0  0  0
   37.6660   24.2020   37.6250 N   0  0  0  0  0  0  0  0  0  0  0  0
   37.9700   23.5140   38.7500 C   0  0  0  0  0  0  0  0  0  0  0  0
   39.0120   22.7290   38.5680 N   0  0  0  0  0  0  0  0  0  0  0  0
   42.5970   21.0570   36.7540 C   0  0  0  0  0  0  0  0  0  0  0  0
   41.5280   21.6920   37.4060 C   0  0  0  0  0  0  0  0  0  0  0  0
   40.5220   22.2450   36.6310 C   0  0  0  0  0  0  0  0  0  0  0  0
   40.6380   22.1330   35.2640 N   0  0  0  0  0  0  0  0  0  0  0  0
   41.6710   21.5190   34.6820 C   0  0  0  0  0  0  0  0  0  0  0  0
   42.6510   20.9810   35.4060 N   0  0  0  0  0  0  0  0  0  0  0  0
   38.6850   24.2750   35.2910 C   0  0  0  0  0  0  0  0  0  0  0  0
   39.4900   25.3700   34.9530 C   0  0  0  0  0  0  0  0  0  0  0  0
   39.6230   25.8180   33.6690 C   0  0  0  0  0  0  0  0  0  0  0  0
   38.9430   25.1810   32.6350 C   0  0  0  0  0  0  0  0  0  0  0  0
   38.1490   24.0970   32.9900 C   0  0  0  0  0  0  0  0  0  0  0  0
   38.0440   23.6890   34.2430 N   0  0  0  0  0  0  0  0  0  0  0  0
   37.4168   23.5995   39.6969 H   0  0  0  0  0  0  0  0  0  0  0  0
   39.4427   22.1039   39.2641 H   0  0  0  0  0  0  0  0  0  0  0  0
   43.4063   20.6128   37.3521 H   0  0  0  0  0  0  0  0  0  0  0  0
   41.4904   21.7489   38.5039 H   0  0  0  0  0  0  0  0  0  0  0  0
   41.7134   21.4563   33.5846 H   0  0  0  0  0  0  0  0  0  0  0  0
   40.0370   25.8902   35.7531 H   0  0  0  0  0  0  0  0  0  0  0  0
   40.2678   26.6825   33.4524 H   0  0  0  0  0  0  0  0  0  0  0  0
   39.0295   25.5179   31.5914 H   0  0  0  0  0  0  0  0  0  0  0  0
   37.5920   23.5632   32.2059 H   0  0  0  0  0  0  0  0  0  0  0  0
  1  5  1  0
  2  1  2  0
  2  3  1  0
  3  4  2  0
  5  4  1  0
  6  7  2  0
  8  1  1  0
  8  7  1  0
  9  8  2  0
 10  9  1  0
 10 11  2  0
 11  6  1  0
 12  2  1  0
 13 12  2  0
 14 13  1  0
 15 16  1  0
 15 14  2  0
 16 17  2  0
 17 12  1  0
  4 18  1  0
  5 19  1  0
  6 20  1  0
  7 21  1  0
 10 22  1  0
 13 23  1  0
 14 24  1  0
 15 25  1  0
 16 26  1  0
M  ISO  8  18  14  19   9  20  14  21  14  22  14  23  14  24  14  25  14
M  ISO  1  26  14
M  END
>  <minimizedAffinity>  (1) 
-4.54614258

>  <minimizedRMSD>  (1) 
0.448651105

$$$$
