
     RDKit          3D

 23 25  0  0  0  0  0  0  0  0999 V2000
   39.4470   22.8740   37.3020 C   0  0  0  0  0  0  0  0  0  0  0  0
   38.6310   23.7660   36.6180 C   0  0  0  0  0  0  0  0  0  0  0  0
   37.7030   24.2070   37.5050 N   0  0  0  0  0  0  0  0  0  0  0  0
   37.9620   23.5920   38.6840 C   0  0  0  0  0  0  0  0  0  0  0  0
   39.0120   22.7870   38.5700 N   0  0  0  0  0  0  0  0  0  0  0  0
   42.5700   20.8760   36.9550 C   0  0  0  0  0  0  0  0  0  0  0  0
   41.4820   21.5460   37.5290 C   0  0  0  0  0  0  0  0  0  0  0  0
   40.5650   22.1850   36.6890 C   0  0  0  0  0  0  0  0  0  0  0  0
   40.7830   22.1210   35.3380 N   0  0  0  0  0  0  0  0  0  0  0  0
   41.8450   21.4630   34.8340 C   0  0  0  0  0  0  0  0  0  0  0  0
   42.7270   20.8490   35.6180 N   0  0  0  0  0  0  0  0  0  0  0  0
   38.6920   24.2020   35.2110 C   0  0  0  0  0  0  0  0  0  0  0  0
   39.4540   25.2790   34.8640 C   0  0  0  0  0  0  0  0  0  0  0  0
   39.1660   25.3730   33.0070 S   0  0  0  0  0  0  0  0  0  0  0  0
   38.0100   23.8440   33.1170 C   0  0  0  0  0  0  0  0  0  0  0  0
   38.0470   23.6150   34.2210 N   0  0  0  0  0  0  0  0  0  0  0  0
   37.3829   23.7390   39.6076 H   0  0  0  0  0  0  0  0  0  0  0  0
   39.4178   22.2038   39.3158 H   0  0  0  0  0  0  0  0  0  0  0  0
   43.3013   20.3683   37.6011 H   0  0  0  0  0  0  0  0  0  0  0  0
   41.3514   21.5690   38.6210 H   0  0  0  0  0  0  0  0  0  0  0  0
   41.9868   21.4326   33.7436 H   0  0  0  0  0  0  0  0  0  0  0  0
   40.0748   25.9241   35.5031 H   0  0  0  0  0  0  0  0  0  0  0  0
   37.4586   23.3286   32.3168 H   0  0  0  0  0  0  0  0  0  0  0  0
  1  5  1  0
  2  1  2  0
  2  3  1  0
  3  4  2  0
  5  4  1  0
  6  7  2  0
  8  1  1  0
  8  7  1  0
  9  8  2  0
 10  9  1  0
 10 11  2  0
 11  6  1  0
 12  2  1  0
 13 12  2  0
 14 15  1  0
 14 13  1  0
 15 16  2  0
 16 12  1  0
  4 17  1  0
  5 18  1  0
  6 19  1  0
  7 20  1  0
 10 21  1  0
 13 22  1  0
 15 23  1  0
M  ISO  7  17  14  18   9  19  14  20  14  21  14  22  14  23  14
M  END
>  <minimizedAffinity>  (1) 
-4.44935656

>  <minimizedRMSD>  (1) 
0.3549591

$$$$
