
     RDKit          3D

 25 27  0  0  0  0  0  0  0  0999 V2000
   39.4480   22.8650   37.2990 C   0  0  0  0  0  0  0  0  0  0  0  0
   38.5710   23.6770   36.5890 C   0  0  0  0  0  0  0  0  0  0  0  0
   37.6600   24.1250   37.4900 N   0  0  0  0  0  0  0  0  0  0  0  0
   37.9860   23.5960   38.6990 C   0  0  0  0  0  0  0  0  0  0  0  0
   39.0570   22.8420   38.5830 N   0  0  0  0  0  0  0  0  0  0  0  0
   42.5560   20.8390   36.9690 C   0  0  0  0  0  0  0  0  0  0  0  0
   41.4630   21.4980   37.5590 C   0  0  0  0  0  0  0  0  0  0  0  0
   40.5870   22.1770   36.7000 C   0  0  0  0  0  0  0  0  0  0  0  0
   40.8420   22.1610   35.3590 N   0  0  0  0  0  0  0  0  0  0  0  0
   41.8990   21.5170   34.8530 C   0  0  0  0  0  0  0  0  0  0  0  0
   42.7550   20.8590   35.6370 N   0  0  0  0  0  0  0  0  0  0  0  0
   38.5520   24.0320   35.1690 C   0  0  0  0  0  0  0  0  0  0  0  0
   39.1680   25.2050   34.7390 C   0  0  0  0  0  0  0  0  0  0  0  0
   39.1310   25.5050   33.4070 C   0  0  0  0  0  0  0  0  0  0  0  0
   38.5130   24.6820   32.5420 N   0  0  0  0  0  0  0  0  0  0  0  0
   37.9090   23.5350   32.9520 C   0  0  0  0  0  0  0  0  0  0  0  0
   37.9330   23.2160   34.2670 N   0  0  0  0  0  0  0  0  0  0  0  0
   37.4358   23.7724   39.6350 H   0  0  0  0  0  0  0  0  0  0  0  0
   39.5164   22.3235   39.3453 H   0  0  0  0  0  0  0  0  0  0  0  0
   43.2649   20.2945   37.6101 H   0  0  0  0  0  0  0  0  0  0  0  0
   41.3021   21.4816   38.6470 H   0  0  0  0  0  0  0  0  0  0  0  0
   42.0666   21.5300   33.7659 H   0  0  0  0  0  0  0  0  0  0  0  0
   39.6713   25.8726   35.4538 H   0  0  0  0  0  0  0  0  0  0  0  0
   39.6095   26.4250   33.0400 H   0  0  0  0  0  0  0  0  0  0  0  0
   37.4088   22.8767   32.2264 H   0  0  0  0  0  0  0  0  0  0  0  0
  1  5  1  0
  2  1  2  0
  2  3  1  0
  3  4  2  0
  5  4  1  0
  6  7  2  0
  8  1  1  0
  8  7  1  0
  9  8  2  0
 10  9  1  0
 10 11  2  0
 11  6  1  0
 12  2  1  0
 13 12  2  0
 14 13  1  0
 15 16  1  0
 15 14  2  0
 16 17  2  0
 17 12  1  0
  4 18  1  0
  5 19  1  0
  6 20  1  0
  7 21  1  0
 10 22  1  0
 13 23  1  0
 14 24  1  0
 16 25  1  0
M  ISO  8  18  14  19   9  20  14  21  14  22  14  23  14  24  14  25  14
M  END
>  <minimizedAffinity>  (1) 
-4.62487459

>  <minimizedRMSD>  (1) 
0.147313431

$$$$
