
     RDKit          3D

 18 19  0  0  0  0  0  0  0  0999 V2000
   42.5340   20.8040   37.0170 C   0  0  0  0  0  0  0  0  0  0  0  0
   41.4310   21.4820   37.5680 C   0  0  0  0  0  0  0  0  0  0  0  0
   40.5940   22.1720   36.7020 C   0  0  0  0  0  0  0  0  0  0  0  0
   40.8920   22.1480   35.3700 N   0  0  0  0  0  0  0  0  0  0  0  0
   41.9450   21.4970   34.8740 C   0  0  0  0  0  0  0  0  0  0  0  0
   42.7620   20.8270   35.6990 N   0  0  0  0  0  0  0  0  0  0  0  0
   39.4410   22.8830   37.2660 C   0  0  0  0  0  0  0  0  0  0  0  0
   38.5920   23.6930   36.5150 C   0  0  0  0  0  0  0  0  0  0  0  0
   37.6700   24.1570   37.3930 N   0  0  0  0  0  0  0  0  0  0  0  0
   37.9670   23.6410   38.6060 C   0  0  0  0  0  0  0  0  0  0  0  0
   39.0350   22.8640   38.5600 N   0  0  0  0  0  0  0  0  0  0  0  0
   38.6260   23.9980   35.1600 O   0  0  0  0  0  0  0  0  0  0  0  0
   43.2164   20.2489   37.6774 H   0  0  0  0  0  0  0  0  0  0  0  0
   41.2381   21.4657   38.6508 H   0  0  0  0  0  0  0  0  0  0  0  0
   42.1424   21.5098   33.7919 H   0  0  0  0  0  0  0  0  0  0  0  0
   37.3900   23.8431   39.5205 H   0  0  0  0  0  0  0  0  0  0  0  0
   39.4678   22.3520   39.3419 H   0  0  0  0  0  0  0  0  0  0  0  0
   37.9418   24.5982   34.7704 H   0  0  0  0  0  0  0  0  0  0  0  0
  1  2  2  0
  3  7  1  0
  3  2  1  0
  4  3  2  0
  5  4  1  0
  5  6  2  0
  6  1  1  0
  7 11  1  0
  8  7  2  0
  8  9  1  0
  9 10  2  0
 11 10  1  0
 12  8  1  0
  1 13  1  0
  2 14  1  0
  5 15  1  0
 10 16  1  0
 11 17  1  0
 12 18  1  0
M  ISO  6  13  14  14  14  15  14  16  14  17   9  18   3
M  END
>  <minimizedAffinity>  (1) 
-3.9389801

>  <minimizedRMSD>  (1) 
0.0347331353

$$$$
