
     RDKit          3D

 19 20  0  0  0  0  0  0  0  0999 V2000
   39.4260   22.8870   37.2720 C   0  0  0  0  0  0  0  0  0  0  0  0
   38.5690   23.7030   36.5390 C   0  0  0  0  0  0  0  0  0  0  0  0
   37.6430   24.1680   37.4140 N   0  0  0  0  0  0  0  0  0  0  0  0
   37.9630   23.6280   38.6280 C   0  0  0  0  0  0  0  0  0  0  0  0
   39.0290   22.8570   38.5700 N   0  0  0  0  0  0  0  0  0  0  0  0
   42.5360   20.8340   37.0020 C   0  0  0  0  0  0  0  0  0  0  0  0
   41.4350   21.5090   37.5490 C   0  0  0  0  0  0  0  0  0  0  0  0
   40.5680   22.1870   36.7010 C   0  0  0  0  0  0  0  0  0  0  0  0
   40.8420   22.1570   35.3650 N   0  0  0  0  0  0  0  0  0  0  0  0
   41.8950   21.5080   34.8680 C   0  0  0  0  0  0  0  0  0  0  0  0
   42.7400   20.8490   35.6690 N   0  0  0  0  0  0  0  0  0  0  0  0
   38.5750   24.0540   35.1230 C   0  0  0  0  0  0  0  0  0  0  0  0
   37.9580   25.0690   34.6690 O   0  0  0  0  0  0  0  0  0  0  0  0
   37.3939   23.8163   39.5503 H   0  0  0  0  0  0  0  0  0  0  0  0
   39.4685   22.3405   39.3452 H   0  0  0  0  0  0  0  0  0  0  0  0
   43.2324   20.2930   37.6595 H   0  0  0  0  0  0  0  0  0  0  0  0
   41.2602   21.5017   38.6350 H   0  0  0  0  0  0  0  0  0  0  0  0
   42.0719   21.5144   33.7823 H   0  0  0  0  0  0  0  0  0  0  0  0
   39.1341   23.4169   34.4219 H   0  0  0  0  0  0  0  0  0  0  0  0
  1  5  1  0
  2  1  2  0
  2  3  1  0
  3  4  2  0
  5  4  1  0
  6  7  2  0
  8  1  1  0
  8  7  1  0
  9  8  2  0
 10  9  1  0
 10 11  2  0
 11  6  1  0
 12  2  1  0
 13 12  2  0
  4 14  1  0
  5 15  1  0
  6 16  1  0
  7 17  1  0
 10 18  1  0
 12 19  1  0
M  ISO  6  14  14  15   9  16  14  17  14  18  14  19   6
M  END
>  <minimizedAffinity>  (1) 
-3.96819997

>  <minimizedRMSD>  (1) 
0.252447754

$$$$
