
     RDKit          3D

 20 21  0  0  0  0  0  0  0  0999 V2000
   42.5630   20.8610   36.9670 C   0  0  0  0  0  0  0  0  0  0  0  0
   41.4950   21.5450   37.5580 C   0  0  0  0  0  0  0  0  0  0  0  0
   40.6030   22.1760   36.6830 C   0  0  0  0  0  0  0  0  0  0  0  0
   40.8230   22.0880   35.3220 N   0  0  0  0  0  0  0  0  0  0  0  0
   41.8650   21.4160   34.8320 C   0  0  0  0  0  0  0  0  0  0  0  0
   42.7280   20.8090   35.6410 N   0  0  0  0  0  0  0  0  0  0  0  0
   39.4680   22.9040   37.2680 C   0  0  0  0  0  0  0  0  0  0  0  0
   38.8690   23.9820   36.6280 C   0  0  0  0  0  0  0  0  0  0  0  0
   37.8720   24.3850   37.4670 N   0  0  0  0  0  0  0  0  0  0  0  0
   37.9120   23.5540   38.5490 C   0  0  0  0  0  0  0  0  0  0  0  0
   38.8660   22.6500   38.4560 N   0  0  0  0  0  0  0  0  0  0  0  0
   39.2500   24.5610   35.3050 C   0  0  0  0  0  0  0  0  0  0  0  0
   43.2906   20.3494   37.6142 H   0  0  0  0  0  0  0  0  0  0  0  0
   41.3637   21.5847   38.6494 H   0  0  0  0  0  0  0  0  0  0  0  0
   42.0128   21.3630   33.7433 H   0  0  0  0  0  0  0  0  0  0  0  0
   37.2240   23.6305   39.4039 H   0  0  0  0  0  0  0  0  0  0  0  0
   39.1023   21.9131   39.1357 H   0  0  0  0  0  0  0  0  0  0  0  0
   39.8485   25.4706   35.4615 H   0  0  0  0  0  0  0  0  0  0  0  0
   39.8413   23.8257   34.7396 H   0  0  0  0  0  0  0  0  0  0  0  0
   38.3408   24.8131   34.7396 H   0  0  0  0  0  0  0  0  0  0  0  0
  1  2  2  0
  3  7  1  0
  3  2  1  0
  4  3  2  0
  5  4  1  0
  5  6  2  0
  6  1  1  0
  7 11  1  0
  8  7  2  0
  8  9  1  0
  9 10  2  0
 11 10  1  0
 12  8  1  0
  1 13  1  0
  2 14  1  0
  5 15  1  0
 10 16  1  0
 11 17  1  0
 12 18  1  0
 12 19  1  0
 12 20  1  0
M  ISO  8  13  14  14  14  15  14  16  14  17   9  18   8  19   8  20   8
M  END
>  <minimizedAffinity>  (1) 
-3.87756205

>  <minimizedRMSD>  (1) 
0.230671644

$$$$
