
     RDKit          3D

 41 44  0  0  0  0  0  0  0  0999 V2000
   38.5870   24.3840   35.3590 C   0  0  0  0  0  0  0  0  0  0  0  0
   39.1540   25.6480   35.2820 C   0  0  0  0  0  0  0  0  0  0  0  0
   39.2820   26.2630   34.0500 C   0  0  0  0  0  0  0  0  0  0  0  0
   38.8500   25.6300   32.8820 C   0  0  0  0  0  0  0  0  0  0  0  0
   38.2880   24.3620   33.0060 C   0  0  0  0  0  0  0  0  0  0  0  0
   38.1490   23.7260   34.2290 C   0  0  0  0  0  0  0  0  0  0  0  0
   39.4440   23.0990   37.4180 C   0  0  0  0  0  0  0  0  0  0  0  0
   38.5070   23.8460   36.7010 C   0  0  0  0  0  0  0  0  0  0  0  0
   37.4620   23.9670   37.5620 N   0  0  0  0  0  0  0  0  0  0  0  0
   37.7620   23.3380   38.7020 C   0  0  0  0  0  0  0  0  0  0  0  0
   38.9560   22.8000   38.6520 N   0  0  0  0  0  0  0  0  0  0  0  0
   42.5160   21.1200   36.7110 C   0  0  0  0  0  0  0  0  0  0  0  0
   41.2630   21.4540   37.2280 C   0  0  0  0  0  0  0  0  0  0  0  0
   40.7610   22.7050   36.8950 C   0  0  0  0  0  0  0  0  0  0  0  0
   41.5000   23.5470   36.0890 N   0  0  0  0  0  0  0  0  0  0  0  0
   42.7080   23.1640   35.6190 C   0  0  0  0  0  0  0  0  0  0  0  0
   43.2140   21.9740   35.9220 N   0  0  0  0  0  0  0  0  0  0  0  0
   37.5840   22.4530   34.3540 N   0  0  0  0  0  0  0  0  0  0  0  0
   37.6410   21.6440   35.5580 C   0  0  0  0  0  0  0  0  0  0  0  0
   36.2070   21.2320   35.9140 C   0  0  0  0  0  0  0  0  0  0  0  0
   35.4990   20.7150   34.7830 N   0  0  0  0  0  0  0  0  0  0  0  0
   36.3290   20.5630   33.6110 C   0  0  0  0  0  0  0  0  0  0  0  0
   36.8930   21.8970   33.2070 C   0  0  0  0  0  0  0  0  0  0  0  0
   39.4991   26.1571   36.1940 H   0  0  0  0  0  0  0  0  0  0  0  0
   39.7306   27.2655   33.9888 H   0  0  0  0  0  0  0  0  0  0  0  0
   38.9501   26.1156   31.9001 H   0  0  0  0  0  0  0  0  0  0  0  0
   37.9413   23.8458   32.0986 H   0  0  0  0  0  0  0  0  0  0  0  0
   37.0917   23.2792   39.5722 H   0  0  0  0  0  0  0  0  0  0  0  0
   39.4272   22.2622   39.3934 H   0  0  0  0  0  0  0  0  0  0  0  0
   42.9489   20.1374   36.9501 H   0  0  0  0  0  0  0  0  0  0  0  0
   40.7002   20.7592   37.8687 H   0  0  0  0  0  0  0  0  0  0  0  0
   43.2807   23.8483   34.9758 H   0  0  0  0  0  0  0  0  0  0  0  0
   38.2540   20.7485   35.3785 H   0  0  0  0  0  0  0  0  0  0  0  0
   38.0932   22.2140   36.3830 H   0  0  0  0  0  0  0  0  0  0  0  0
   36.2438   20.4572   36.6939 H   0  0  0  0  0  0  0  0  0  0  0  0
   35.6747   22.1279   36.2663 H   0  0  0  0  0  0  0  0  0  0  0  0
   35.1130   19.7931   35.0322 H   0  0  0  0  0  0  0  0  0  0  0  0
   37.1541   19.8710   33.8356 H   0  0  0  0  0  0  0  0  0  0  0  0
   35.7214   20.1619   32.7864 H   0  0  0  0  0  0  0  0  0  0  0  0
   37.5977   21.7678   32.3723 H   0  0  0  0  0  0  0  0  0  0  0  0
   36.0875   22.5712   32.8803 H   0  0  0  0  0  0  0  0  0  0  0  0
  1  8  1  0
  2  1  2  0
  3  2  1  0
  4  5  1  0
  4  3  2  0
  5  6  2  0
  6 18  1  0
  6  1  1  0
  7 11  1  0
  8  7  2  0
  8  9  1  0
  9 10  2  0
 11 10  1  0
 12 13  2  0
 14 13  1  0
 14  7  1  0
 15 14  2  0
 16 17  2  0
 16 15  1  0
 17 12  1  0
 18 19  1  0
 19 20  1  0
 21 20  1  0
 22 21  1  0
 23 22  1  0
 23 18  1  0
  2 24  1  0
  3 25  1  0
  4 26  1  0
  5 27  1  0
 10 28  1  0
 11 29  1  0
 12 30  1  0
 13 31  1  0
 16 32  1  0
 19 33  1  0
 19 34  1  0
 20 35  1  0
 20 36  1  0
 21 37  1  0
 22 38  1  0
 22 39  1  0
 23 40  1  0
 23 41  1  0
M  ISO  8  24  14  25  14  26  14  27  14  28  14  29   9  30  14  31  14
M  ISO  8  32  14  33  13  34  13  35  13  36  13  37   5  38  13  39  13
M  ISO  2  40  13  41  13
M  END
>  <minimizedAffinity>  (1) 
-5.54466772

>  <minimizedRMSD>  (1) 
0.828289509

$$$$
