
     RDKit          3D

 37 40  0  0  0  0  0  0  0  0999 V2000
   39.1490   24.2040   35.1110 C   0  0  0  0  0  0  0  0  0  0  0  0
   40.0530   25.2250   34.9270 C   0  0  0  0  0  0  0  0  0  0  0  0
   40.3200   25.6940   33.6580 C   0  0  0  0  0  0  0  0  0  0  0  0
   39.6930   25.1600   32.5370 C   0  0  0  0  0  0  0  0  0  0  0  0
   38.7920   24.1390   32.7520 C   0  0  0  0  0  0  0  0  0  0  0  0
   38.5150   23.6590   34.0110 C   0  0  0  0  0  0  0  0  0  0  0  0
   37.5640   22.5830   34.2200 C   0  0  0  0  0  0  0  0  0  0  0  0
   36.9020   22.2610   33.0290 C   0  0  0  0  0  0  0  0  0  0  0  0
   35.9420   21.2610   32.9720 C   0  0  0  0  0  0  0  0  0  0  0  0
   35.6370   20.5670   34.1300 C   0  0  0  0  0  0  0  0  0  0  0  0
   36.2860   20.8840   35.2930 C   0  0  0  0  0  0  0  0  0  0  0  0
   37.2410   21.8790   35.3500 C   0  0  0  0  0  0  0  0  0  0  0  0
   39.6320   22.8390   37.2240 C   0  0  0  0  0  0  0  0  0  0  0  0
   38.9400   23.7850   36.4790 C   0  0  0  0  0  0  0  0  0  0  0  0
   37.9830   24.2660   37.3190 N   0  0  0  0  0  0  0  0  0  0  0  0
   38.1050   23.6370   38.4970 C   0  0  0  0  0  0  0  0  0  0  0  0
   39.0910   22.7680   38.4770 N   0  0  0  0  0  0  0  0  0  0  0  0
   42.6360   20.6480   37.1160 C   0  0  0  0  0  0  0  0  0  0  0  0
   41.5670   21.3870   37.6450 C   0  0  0  0  0  0  0  0  0  0  0  0
   40.7590   22.0530   36.7320 C   0  0  0  0  0  0  0  0  0  0  0  0
   41.0390   21.9570   35.3830 N   0  0  0  0  0  0  0  0  0  0  0  0
   42.0960   21.2170   34.9420 C   0  0  0  0  0  0  0  0  0  0  0  0
   42.8760   20.5780   35.7990 N   0  0  0  0  0  0  0  0  0  0  0  0
   40.5640   25.6682   35.7944 H   0  0  0  0  0  0  0  0  0  0  0  0
   41.0463   26.5100   33.5291 H   0  0  0  0  0  0  0  0  0  0  0  0
   39.9064   25.5352   31.5252 H   0  0  0  0  0  0  0  0  0  0  0  0
   38.2774   23.6933   31.8880 H   0  0  0  0  0  0  0  0  0  0  0  0
   37.1501   22.8166   32.1126 H   0  0  0  0  0  0  0  0  0  0  0  0
   35.4336   21.0245   32.0257 H   0  0  0  0  0  0  0  0  0  0  0  0
   34.8805   19.7685   34.1160 H   0  0  0  0  0  0  0  0  0  0  0  0
   36.0389   20.3289   36.2099 H   0  0  0  0  0  0  0  0  0  0  0  0
   37.7424   22.1065   36.3022 H   0  0  0  0  0  0  0  0  0  0  0  0
   37.4616   23.8245   39.3693 H   0  0  0  0  0  0  0  0  0  0  0  0
   39.3944   22.1574   39.2490 H   0  0  0  0  0  0  0  0  0  0  0  0
   43.3003   20.1072   37.8061 H   0  0  0  0  0  0  0  0  0  0  0  0
   41.3783   21.4365   38.7276 H   0  0  0  0  0  0  0  0  0  0  0  0
   42.3023   21.1506   33.8636 H   0  0  0  0  0  0  0  0  0  0  0  0
  1 14  1  0
  2  1  2  0
  3  2  1  0
  4  5  1  0
  4  3  2  0
  5  6  2  0
  6  7  1  0
  6  1  1  0
  7 12  1  0
  8  7  2  0
  9  8  1  0
  9 10  2  0
 10 11  1  0
 11 12  2  0
 13 17  1  0
 14 13  2  0
 14 15  1  0
 15 16  2  0
 17 16  1  0
 18 19  2  0
 20 13  1  0
 20 19  1  0
 21 20  2  0
 22 21  1  0
 22 23  2  0
 23 18  1  0
  2 24  1  0
  3 25  1  0
  4 26  1  0
  5 27  1  0
  8 28  1  0
  9 29  1  0
 10 30  1  0
 11 31  1  0
 12 32  1  0
 16 33  1  0
 17 34  1  0
 18 35  1  0
 19 36  1  0
 22 37  1  0
M  ISO  8  24  14  25  14  26  14  27  14  28  14  29  14  30  14  31  14
M  ISO  6  32  14  33  14  34   9  35  14  36  14  37  14
M  END
>  <minimizedAffinity>  (1) 
-5.76314116

>  <minimizedRMSD>  (1) 
0.467617899

$$$$
