
     RDKit          3D

 42 45  0  0  0  0  0  0  0  0999 V2000
   38.5370   24.6270   35.4940 C   0  0  0  0  0  0  0  0  0  0  0  0
   38.9610   25.9480   35.5510 C   0  0  0  0  0  0  0  0  0  0  0  0
   39.0010   26.7260   34.4140 C   0  0  0  0  0  0  0  0  0  0  0  0
   38.6130   26.1980   33.1800 C   0  0  0  0  0  0  0  0  0  0  0  0
   38.1970   24.8830   33.1570 C   0  0  0  0  0  0  0  0  0  0  0  0
   38.1500   24.0850   34.2890 C   0  0  0  0  0  0  0  0  0  0  0  0
   39.5080   23.1170   37.3110 C   0  0  0  0  0  0  0  0  0  0  0  0
   38.5490   23.9370   36.7650 C   0  0  0  0  0  0  0  0  0  0  0  0
   37.5540   23.9810   37.6970 N   0  0  0  0  0  0  0  0  0  0  0  0
   37.9330   23.2140   38.7360 C   0  0  0  0  0  0  0  0  0  0  0  0
   39.1160   22.6750   38.5350 N   0  0  0  0  0  0  0  0  0  0  0  0
   42.5380   21.2490   36.2110 C   0  0  0  0  0  0  0  0  0  0  0  0
   41.3340   21.5140   36.8560 C   0  0  0  0  0  0  0  0  0  0  0  0
   40.7850   22.7690   36.6570 C   0  0  0  0  0  0  0  0  0  0  0  0
   41.4520   23.6800   35.8410 N   0  0  0  0  0  0  0  0  0  0  0  0
   42.6210   23.3440   35.2510 C   0  0  0  0  0  0  0  0  0  0  0  0
   43.1630   22.1400   35.4320 N   0  0  0  0  0  0  0  0  0  0  0  0
   37.7230   22.7250   34.2840 N   0  0  0  0  0  0  0  0  0  0  0  0
   37.3040   22.0110   35.4670 C   0  0  0  0  0  0  0  0  0  0  0  0
   36.1330   21.1050   35.2650 C   0  0  0  0  0  0  0  0  0  0  0  0
   35.8430   20.8060   33.8160 C   0  0  0  0  0  0  0  0  0  0  0  0
   37.2210   20.6070   33.1690 C   0  0  0  0  0  0  0  0  0  0  0  0
   37.7160   22.0390   33.0060 C   0  0  0  0  0  0  0  0  0  0  0  0
   39.2687   26.3788   36.5152 H   0  0  0  0  0  0  0  0  0  0  0  0
   39.3409   27.7702   34.4786 H   0  0  0  0  0  0  0  0  0  0  0  0
   38.6382   26.8063   32.2639 H   0  0  0  0  0  0  0  0  0  0  0  0
   37.8882   24.4475   32.1953 H   0  0  0  0  0  0  0  0  0  0  0  0
   37.3282   23.0572   39.6414 H   0  0  0  0  0  0  0  0  0  0  0  0
   39.6345   22.0512   39.1697 H   0  0  0  0  0  0  0  0  0  0  0  0
   42.9984   20.2594   36.3479 H   0  0  0  0  0  0  0  0  0  0  0  0
   40.8427   20.7634   37.4926 H   0  0  0  0  0  0  0  0  0  0  0  0
   43.1336   24.0769   34.6106 H   0  0  0  0  0  0  0  0  0  0  0  0
   38.1509   21.4037   35.8191 H   0  0  0  0  0  0  0  0  0  0  0  0
   36.9869   22.7725   36.1947 H   0  0  0  0  0  0  0  0  0  0  0  0
   36.3349   20.1554   35.7822 H   0  0  0  0  0  0  0  0  0  0  0  0
   35.2511   21.6231   35.6698 H   0  0  0  0  0  0  0  0  0  0  0  0
   35.2367   19.8929   33.7233 H   0  0  0  0  0  0  0  0  0  0  0  0
   35.2721   21.6129   33.3334 H   0  0  0  0  0  0  0  0  0  0  0  0
   37.8882   20.0275   33.8240 H   0  0  0  0  0  0  0  0  0  0  0  0
   37.1859   20.0440   32.2247 H   0  0  0  0  0  0  0  0  0  0  0  0
   38.7374   22.0242   32.5980 H   0  0  0  0  0  0  0  0  0  0  0  0
   37.0404   22.5721   32.3209 H   0  0  0  0  0  0  0  0  0  0  0  0
  1  2  2  0
  1  8  1  0
  3  2  1  0
  4  3  2  0
  5  4  1  0
  5  6  2  0
  6  1  1  0
  7 11  1  0
  8  7  2  0
  8  9  1  0
  9 10  2  0
 11 10  1  0
 12 13  2  0
 14 13  1  0
 14  7  1  0
 15 14  2  0
 16 17  2  0
 16 15  1  0
 17 12  1  0
 18  6  1  0
 18 19  1  0
 20 19  1  0
 21 20  1  0
 22 21  1  0
 23 22  1  0
 23 18  1  0
  2 24  1  0
  3 25  1  0
  4 26  1  0
  5 27  1  0
 10 28  1  0
 11 29  1  0
 12 30  1  0
 13 31  1  0
 16 32  1  0
 19 33  1  0
 19 34  1  0
 20 35  1  0
 20 36  1  0
 21 37  1  0
 21 38  1  0
 22 39  1  0
 22 40  1  0
 23 41  1  0
 23 42  1  0
M  ISO  8  24  14  25  14  26  14  27  14  28  14  29   9  30  14  31  14
M  ISO  8  32  14  33  13  34  13  35  13  36  13  37  13  38  13  39  13
M  ISO  3  40  13  41  13  42  13
M  END
>  <minimizedAffinity>  (1) 
-5.60409451

>  <minimizedRMSD>  (1) 
0.975205004

$$$$
