
     RDKit          3D

 37 40  0  0  0  0  0  0  0  0999 V2000
   39.1450   24.1830   35.0940 C   0  0  0  0  0  0  0  0  0  0  0  0
   40.0550   25.1960   34.9350 C   0  0  0  0  0  0  0  0  0  0  0  0
   40.3510   25.6800   33.6630 C   0  0  0  0  0  0  0  0  0  0  0  0
   39.7290   25.1430   32.5370 C   0  0  0  0  0  0  0  0  0  0  0  0
   38.8160   24.1210   32.7420 C   0  0  0  0  0  0  0  0  0  0  0  0
   38.5180   23.6370   33.9930 C   0  0  0  0  0  0  0  0  0  0  0  0
   37.5500   22.5600   34.2040 C   0  0  0  0  0  0  0  0  0  0  0  0
   37.2550   21.9250   35.3820 C   0  0  0  0  0  0  0  0  0  0  0  0
   36.3090   20.9190   35.4010 C   0  0  0  0  0  0  0  0  0  0  0  0
   35.6450   20.5330   34.2520 C   0  0  0  0  0  0  0  0  0  0  0  0
   35.9410   21.1730   33.0650 C   0  0  0  0  0  0  0  0  0  0  0  0
   36.8800   22.1730   33.0380 C   0  0  0  0  0  0  0  0  0  0  0  0
   39.6120   22.8280   37.2170 C   0  0  0  0  0  0  0  0  0  0  0  0
   38.9250   23.7660   36.4640 C   0  0  0  0  0  0  0  0  0  0  0  0
   37.9720   24.2310   37.3030 N   0  0  0  0  0  0  0  0  0  0  0  0
   38.0830   23.6090   38.4820 C   0  0  0  0  0  0  0  0  0  0  0  0
   39.0770   22.7420   38.4670 N   0  0  0  0  0  0  0  0  0  0  0  0
   42.6390   20.6480   37.1450 C   0  0  0  0  0  0  0  0  0  0  0  0
   41.5670   21.3810   37.6410 C   0  0  0  0  0  0  0  0  0  0  0  0
   40.7570   22.0410   36.7280 C   0  0  0  0  0  0  0  0  0  0  0  0
   41.0480   21.9400   35.3790 N   0  0  0  0  0  0  0  0  0  0  0  0
   42.1050   21.2140   34.9570 C   0  0  0  0  0  0  0  0  0  0  0  0
   42.8950   20.5710   35.8340 N   0  0  0  0  0  0  0  0  0  0  0  0
   40.5532   25.6282   35.8153 H   0  0  0  0  0  0  0  0  0  0  0  0
   41.0822   26.4934   33.5459 H   0  0  0  0  0  0  0  0  0  0  0  0
   39.9538   25.5154   31.5267 H   0  0  0  0  0  0  0  0  0  0  0  0
   38.3105   23.6804   31.8700 H   0  0  0  0  0  0  0  0  0  0  0  0
   37.7700   22.2156   36.3095 H   0  0  0  0  0  0  0  0  0  0  0  0
   36.0791   20.4142   36.3509 H   0  0  0  0  0  0  0  0  0  0  0  0
   34.8939   19.7300   34.2827 H   0  0  0  0  0  0  0  0  0  0  0  0
   35.4232   20.8807   32.1395 H   0  0  0  0  0  0  0  0  0  0  0  0
   37.1091   22.6770   32.0875 H   0  0  0  0  0  0  0  0  0  0  0  0
   37.4320   23.7957   39.3488 H   0  0  0  0  0  0  0  0  0  0  0  0
   39.3835   22.1301   39.2367 H   0  0  0  0  0  0  0  0  0  0  0  0
   43.2951   20.1165   37.8500 H   0  0  0  0  0  0  0  0  0  0  0  0
   41.3675   21.4360   38.7214 H   0  0  0  0  0  0  0  0  0  0  0  0
   42.3227   21.1477   33.8808 H   0  0  0  0  0  0  0  0  0  0  0  0
  1 14  1  0
  2  1  2  0
  3  2  1  0
  4  5  1  0
  4  3  2  0
  5  6  2  0
  6  7  1  0
  6  1  1  0
  7  8  2  0
  8  9  1  0
 10  9  2  0
 11 10  1  0
 12 11  2  0
 12  7  1  0
 13 17  1  0
 14 13  2  0
 14 15  1  0
 15 16  2  0
 17 16  1  0
 18 19  2  0
 20 13  1  0
 20 19  1  0
 21 20  2  0
 22 21  1  0
 22 23  2  0
 23 18  1  0
  2 24  1  0
  3 25  1  0
  4 26  1  0
  5 27  1  0
  8 28  1  0
  9 29  1  0
 10 30  1  0
 11 31  1  0
 12 32  1  0
 16 33  1  0
 17 34  1  0
 18 35  1  0
 19 36  1  0
 22 37  1  0
M  ISO  8  24  14  25  14  26  14  27  14  28  14  29  14  30  14  31  14
M  ISO  6  32  14  33  14  34   9  35  14  36  14  37  14
M  END
>  <minimizedAffinity>  (1) 
-5.77092123

>  <minimizedRMSD>  (1) 
0.490592927

$$$$
