
     RDKit          3D

 32 35  0  0  0  0  0  0  0  0999 V2000
   39.5440   22.8400   37.2940 C   0  0  0  0  0  0  0  0  0  0  0  0
   38.7320   23.6890   36.5470 C   0  0  0  0  0  0  0  0  0  0  0  0
   37.8270   24.1830   37.4180 N   0  0  0  0  0  0  0  0  0  0  0  0
   38.0900   23.6540   38.6250 C   0  0  0  0  0  0  0  0  0  0  0  0
   39.1240   22.8380   38.5770 N   0  0  0  0  0  0  0  0  0  0  0  0
   38.8010   24.0100   35.1240 C   0  0  0  0  0  0  0  0  0  0  0  0
   39.6490   25.0630   34.8030 C   0  0  0  0  0  0  0  0  0  0  0  0
   39.7860   25.4460   33.4800 C   0  0  0  0  0  0  0  0  0  0  0  0
   39.0910   24.7980   32.4640 C   0  0  0  0  0  0  0  0  0  0  0  0
   38.2590   23.7570   32.8240 C   0  0  0  0  0  0  0  0  0  0  0  0
   38.1000   23.3490   34.1350 C   0  0  0  0  0  0  0  0  0  0  0  0
   37.2380   22.2690   34.5280 C   0  0  0  0  0  0  0  0  0  0  0  0
   36.9860   21.7610   35.7650 N   0  0  0  0  0  0  0  0  0  0  0  0
   36.1330   20.7790   35.6360 O   0  0  0  0  0  0  0  0  0  0  0  0
   35.7980   20.6000   34.3780 C   0  0  0  0  0  0  0  0  0  0  0  0
   36.4850   21.5310   33.6610 N   0  0  0  0  0  0  0  0  0  0  0  0
   42.5850   20.7030   37.0780 C   0  0  0  0  0  0  0  0  0  0  0  0
   41.5140   21.4200   37.6350 C   0  0  0  0  0  0  0  0  0  0  0  0
   40.6730   22.0810   36.7470 C   0  0  0  0  0  0  0  0  0  0  0  0
   40.9210   22.0030   35.3950 N   0  0  0  0  0  0  0  0  0  0  0  0
   41.9650   21.2990   34.9170 C   0  0  0  0  0  0  0  0  0  0  0  0
   42.7940   20.6510   35.7510 N   0  0  0  0  0  0  0  0  0  0  0  0
   37.5155   23.8740   39.5369 H   0  0  0  0  0  0  0  0  0  0  0  0
   39.5297   22.3062   39.3603 H   0  0  0  0  0  0  0  0  0  0  0  0
   40.2063   25.5874   35.5932 H   0  0  0  0  0  0  0  0  0  0  0  0
   40.4578   26.2794   33.2269 H   0  0  0  0  0  0  0  0  0  0  0  0
   39.2003   25.1037   31.4130 H   0  0  0  0  0  0  0  0  0  0  0  0
   37.7001   23.2311   32.0359 H   0  0  0  0  0  0  0  0  0  0  0  0
   35.1005   19.8469   33.9826 H   0  0  0  0  0  0  0  0  0  0  0  0
   43.2740   20.1676   37.7478 H   0  0  0  0  0  0  0  0  0  0  0  0
   41.3483   21.4569   38.7218 H   0  0  0  0  0  0  0  0  0  0  0  0
   42.1403   21.2545   33.8320 H   0  0  0  0  0  0  0  0  0  0  0  0
  1  5  1  0
  2  1  2  0
  2  3  1  0
  3  4  2  0
  5  4  1  0
  6  2  1  0
  7  6  2  0
  8  7  1  0
  9 10  1  0
  9  8  2  0
 10 11  2  0
 11 12  1  0
 11  6  1  0
 12 13  2  0
 14 13  1  0
 15 14  1  0
 16 15  2  0
 16 12  1  0
 17 18  2  0
 19  1  1  0
 19 18  1  0
 20 19  2  0
 21 20  1  0
 21 22  2  0
 22 17  1  0
  4 23  1  0
  5 24  1  0
  7 25  1  0
  8 26  1  0
  9 27  1  0
 10 28  1  0
 15 29  1  0
 17 30  1  0
 18 31  1  0
 21 32  1  0
M  ISO  8  23  14  24   9  25  14  26  14  27  14  28  14  29  14  30  14
M  ISO  2  31  14  32  14
M  END
>  <minimizedAffinity>  (1) 
-5.33218479

>  <minimizedRMSD>  (1) 
0.30790332

$$$$
