
     RDKit          3D

 34 37  0  0  0  0  0  0  0  0999 V2000
   39.4770   22.8230   37.2590 C   0  0  0  0  0  0  0  0  0  0  0  0
   38.6660   23.6500   36.5110 C   0  0  0  0  0  0  0  0  0  0  0  0
   37.7450   24.1250   37.3830 N   0  0  0  0  0  0  0  0  0  0  0  0
   38.0060   23.5960   38.5960 C   0  0  0  0  0  0  0  0  0  0  0  0
   39.0500   22.8040   38.5560 N   0  0  0  0  0  0  0  0  0  0  0  0
   38.7320   23.9790   35.0970 C   0  0  0  0  0  0  0  0  0  0  0  0
   39.5620   25.0220   34.7750 C   0  0  0  0  0  0  0  0  0  0  0  0
   39.6960   25.4140   33.4570 C   0  0  0  0  0  0  0  0  0  0  0  0
   38.9990   24.7650   32.4410 C   0  0  0  0  0  0  0  0  0  0  0  0
   38.1710   23.7200   32.7950 C   0  0  0  0  0  0  0  0  0  0  0  0
   38.0310   23.3220   34.1040 C   0  0  0  0  0  0  0  0  0  0  0  0
   37.1710   22.2310   34.4770 C   0  0  0  0  0  0  0  0  0  0  0  0
   36.4890   21.3820   33.5990 C   0  0  0  0  0  0  0  0  0  0  0  0
   35.7870   20.4850   34.3930 C   0  0  0  0  0  0  0  0  0  0  0  0
   36.0880   20.8450   35.7090 C   0  0  0  0  0  0  0  0  0  0  0  0
   36.8950   21.8640   35.7120 O   0  0  0  0  0  0  0  0  0  0  0  0
   42.5610   20.7570   37.0620 C   0  0  0  0  0  0  0  0  0  0  0  0
   41.4830   21.4510   37.6170 C   0  0  0  0  0  0  0  0  0  0  0  0
   40.6280   22.0790   36.7310 C   0  0  0  0  0  0  0  0  0  0  0  0
   40.8690   21.9960   35.3780 N   0  0  0  0  0  0  0  0  0  0  0  0
   41.9300   21.3080   34.9070 C   0  0  0  0  0  0  0  0  0  0  0  0
   42.7780   20.6880   35.7440 N   0  0  0  0  0  0  0  0  0  0  0  0
   37.4183   23.8026   39.5026 H   0  0  0  0  0  0  0  0  0  0  0  0
   39.4621   22.2773   39.3394 H   0  0  0  0  0  0  0  0  0  0  0  0
   40.1203   25.5458   35.5649 H   0  0  0  0  0  0  0  0  0  0  0  0
   40.3635   26.2516   33.2063 H   0  0  0  0  0  0  0  0  0  0  0  0
   39.1052   25.0753   31.3910 H   0  0  0  0  0  0  0  0  0  0  0  0
   37.6087   23.1919   32.0108 H   0  0  0  0  0  0  0  0  0  0  0  0
   36.5055   21.4178   32.4997 H   0  0  0  0  0  0  0  0  0  0  0  0
   35.1336   19.6661   34.0577 H   0  0  0  0  0  0  0  0  0  0  0  0
   35.7005   20.3419   36.6072 H   0  0  0  0  0  0  0  0  0  0  0  0
   43.2616   20.2452   37.7382 H   0  0  0  0  0  0  0  0  0  0  0  0
   41.3227   21.4954   38.7044 H   0  0  0  0  0  0  0  0  0  0  0  0
   42.1029   21.2541   33.8220 H   0  0  0  0  0  0  0  0  0  0  0  0
  1  5  1  0
  2  1  2  0
  2  3  1  0
  3  4  2  0
  5  4  1  0
  6  2  1  0
  7  6  2  0
  8  7  1  0
  9 10  1  0
  9  8  2  0
 10 11  2  0
 11 12  1  0
 11  6  1  0
 12 16  1  0
 13 14  1  0
 13 12  2  0
 14 15  2  0
 15 16  1  0
 17 18  2  0
 19  1  1  0
 19 18  1  0
 20 19  2  0
 21 20  1  0
 21 22  2  0
 22 17  1  0
  4 23  1  0
  5 24  1  0
  7 25  1  0
  8 26  1  0
  9 27  1  0
 10 28  1  0
 13 29  1  0
 14 30  1  0
 15 31  1  0
 17 32  1  0
 18 33  1  0
 21 34  1  0
M  ISO  8  23  14  24   9  25  14  26  14  27  14  28  14  29  14  30  14
M  ISO  4  31  14  32  14  33  14  34  14
M  END
>  <minimizedAffinity>  (1) 
-5.4358139

>  <minimizedRMSD>  (1) 
0.342959434

$$$$
