
     RDKit          3D

 34 37  0  0  0  0  0  0  0  0999 V2000
   39.7840   22.7600   37.3430 C   0  0  0  0  0  0  0  0  0  0  0  0
   38.9400   23.5550   36.5840 C   0  0  0  0  0  0  0  0  0  0  0  0
   38.0800   24.1030   37.4830 N   0  0  0  0  0  0  0  0  0  0  0  0
   38.3950   23.6600   38.7050 C   0  0  0  0  0  0  0  0  0  0  0  0
   39.4260   22.8410   38.6590 N   0  0  0  0  0  0  0  0  0  0  0  0
   38.9290   23.7880   35.1480 C   0  0  0  0  0  0  0  0  0  0  0  0
   39.8110   24.7440   34.7120 C   0  0  0  0  0  0  0  0  0  0  0  0
   39.8830   25.0440   33.3610 C   0  0  0  0  0  0  0  0  0  0  0  0
   39.0830   24.4000   32.4370 C   0  0  0  0  0  0  0  0  0  0  0  0
   38.2010   23.4360   32.9100 C   0  0  0  0  0  0  0  0  0  0  0  0
   38.1170   23.1260   34.2470 C   0  0  0  0  0  0  0  0  0  0  0  0
   37.1940   22.1150   34.7690 C   0  0  0  0  0  0  0  0  0  0  0  0
   36.4840   21.4230   33.7820 C   0  0  0  0  0  0  0  0  0  0  0  0
   35.6840   20.5360   34.4210 N   0  0  0  0  0  0  0  0  0  0  0  0
   35.8870   20.6730   35.7480 C   0  0  0  0  0  0  0  0  0  0  0  0
   36.8000   21.6280   35.9630 N   0  0  0  0  0  0  0  0  0  0  0  0
   42.7110   20.4790   37.1150 C   0  0  0  0  0  0  0  0  0  0  0  0
   41.6730   21.2350   37.6630 C   0  0  0  0  0  0  0  0  0  0  0  0
   40.8830   21.9620   36.8000 C   0  0  0  0  0  0  0  0  0  0  0  0
   41.1470   21.9160   35.4440 N   0  0  0  0  0  0  0  0  0  0  0  0
   42.1620   21.1710   34.9650 C   0  0  0  0  0  0  0  0  0  0  0  0
   42.9430   20.4560   35.7800 N   0  0  0  0  0  0  0  0  0  0  0  0
   37.8639   23.9420   39.6261 H   0  0  0  0  0  0  0  0  0  0  0  0
   39.8714   22.3598   39.4534 H   0  0  0  0  0  0  0  0  0  0  0  0
   40.4573   25.2693   35.4306 H   0  0  0  0  0  0  0  0  0  0  0  0
   40.5922   25.8112   33.0170 H   0  0  0  0  0  0  0  0  0  0  0  0
   39.1421   24.6416   31.3655 H   0  0  0  0  0  0  0  0  0  0  0  0
   37.5528   22.9069   32.1959 H   0  0  0  0  0  0  0  0  0  0  0  0
   36.5607   21.5709   32.6947 H   0  0  0  0  0  0  0  0  0  0  0  0
   35.3807   20.0902   36.5316 H   0  0  0  0  0  0  0  0  0  0  0  0
   37.1430   21.9379   36.8834 H   0  0  0  0  0  0  0  0  0  0  0  0
   43.3556   19.8882   37.7825 H   0  0  0  0  0  0  0  0  0  0  0  0
   41.4921   21.2496   38.7479 H   0  0  0  0  0  0  0  0  0  0  0  0
   42.3516   21.1509   33.8816 H   0  0  0  0  0  0  0  0  0  0  0  0
  1  5  1  0
  2  1  2  0
  2  3  1  0
  3  4  2  0
  5  4  1  0
  6  2  1  0
  7  6  2  0
  8  7  1  0
  9 10  1  0
  9  8  2  0
 10 11  2  0
 11 12  1  0
 11  6  1  0
 12 16  1  0
 13 14  1  0
 13 12  2  0
 14 15  2  0
 15 16  1  0
 17 18  2  0
 19  1  1  0
 19 18  1  0
 20 19  2  0
 21 20  1  0
 21 22  2  0
 22 17  1  0
  4 23  1  0
  5 24  1  0
  7 25  1  0
  8 26  1  0
  9 27  1  0
 10 28  1  0
 13 29  1  0
 15 30  1  0
 16 31  1  0
 17 32  1  0
 18 33  1  0
 21 34  1  0
M  ISO  8  23  14  24   9  25  14  26  14  27  14  28  14  29  14  30  14
M  ISO  4  31   9  32  14  33  14  34  14
M  END
>  <minimizedAffinity>  (1) 
-5.40836811

>  <minimizedRMSD>  (1) 
0.529917538

$$$$
