
     RDKit          3D

 30 31  0  0  0  0  0  0  0  0999 V2000
   42.1230   22.4450   35.9180 C   0  0  0  0  0  0  0  0  0  0  0  0
   40.8870   22.4510   36.5610 C   0  0  0  0  0  0  0  0  0  0  0  0
   40.0000   23.5040   36.2630 C   0  0  0  0  0  0  0  0  0  0  0  0
   40.3910   24.4580   35.3690 N   0  0  0  0  0  0  0  0  0  0  0  0
   41.5980   24.4010   34.7780 C   0  0  0  0  0  0  0  0  0  0  0  0
   42.4580   23.4110   35.0440 N   0  0  0  0  0  0  0  0  0  0  0  0
   43.0540   21.3760   36.2040 C   0  0  0  0  0  0  0  0  0  0  0  0
   42.6480   20.2610   36.9080 C   0  0  0  0  0  0  0  0  0  0  0  0
   43.5220   19.2330   37.1890 C   0  0  0  0  0  0  0  0  0  0  0  0
   44.7950   19.3110   36.7720 N   0  0  0  0  0  0  0  0  0  0  0  0
   45.1950   20.4150   36.0760 C   0  0  0  0  0  0  0  0  0  0  0  0
   44.3280   21.4070   35.8120 N   0  0  0  0  0  0  0  0  0  0  0  0
   38.6700   23.6250   36.8730 C   0  0  0  0  0  0  0  0  0  0  0  0
   38.8360   23.2900   38.3570 C   0  0  0  0  0  0  0  0  0  0  0  0
   38.0170   24.9660   36.6940 C   0  0  0  0  0  0  0  0  0  0  0  0
   37.7310   22.5940   36.2500 C   0  0  0  0  0  0  0  0  0  0  0  0
   40.6134   21.6613   37.2762 H   0  0  0  0  0  0  0  0  0  0  0  0
   41.8840   25.1847   34.0610 H   0  0  0  0  0  0  0  0  0  0  0  0
   41.6055   20.1911   37.2520 H   0  0  0  0  0  0  0  0  0  0  0  0
   43.1777   18.3531   37.7522 H   0  0  0  0  0  0  0  0  0  0  0  0
   46.2357   20.4932   35.7284 H   0  0  0  0  0  0  0  0  0  0  0  0
   38.4293   24.1108   38.9659 H   0  0  0  0  0  0  0  0  0  0  0  0
   38.2943   22.3604   38.5859 H   0  0  0  0  0  0  0  0  0  0  0  0
   39.9038   23.1580   38.5859 H   0  0  0  0  0  0  0  0  0  0  0  0
   37.8035   25.4044   37.6800 H   0  0  0  0  0  0  0  0  0  0  0  0
   38.6922   25.6310   36.1355 H   0  0  0  0  0  0  0  0  0  0  0  0
   37.0772   24.8446   36.1355 H   0  0  0  0  0  0  0  0  0  0  0  0
   37.2207   22.0337   37.0473 H   0  0  0  0  0  0  0  0  0  0  0  0
   36.9840   23.1076   35.6270 H   0  0  0  0  0  0  0  0  0  0  0  0
   38.3120   21.8981   35.6270 H   0  0  0  0  0  0  0  0  0  0  0  0
  1  7  1  0
  1  2  2  0
  3  2  1  0
  3 13  1  0
  4  3  2  0
  5  6  2  0
  5  4  1  0
  6  1  1  0
  7  8  2  0
  8  9  1  0
 10  9  2  0
 11 10  1  0
 12 11  2  0
 12  7  1  0
 13 14  1  0
 15 13  1  0
 16 13  1  0
  2 17  1  0
  5 18  1  0
  8 19  1  0
  9 20  1  0
 11 21  1  0
 14 22  1  0
 14 23  1  0
 14 24  1  0
 15 25  1  0
 15 26  1  0
 15 27  1  0
 16 28  1  0
 16 29  1  0
 16 30  1  0
M  ISO  8  17  14  18  14  19  14  20  14  21  14  22   8  23   8  24   8
M  ISO  6  25   8  26   8  27   8  28   8  29   8  30   8
M  END
>  <minimizedAffinity>  (1) 
-3.70237088

>  <minimizedRMSD>  (1) 
1.8910557

$$$$
