
     RDKit          3D

 33 36  0  0  0  0  0  0  0  0999 V2000
   39.5990   22.8380   37.3100 C   0  0  0  0  0  0  0  0  0  0  0  0
   38.7770   23.6850   36.5710 C   0  0  0  0  0  0  0  0  0  0  0  0
   37.8900   24.1910   37.4660 N   0  0  0  0  0  0  0  0  0  0  0  0
   38.1720   23.6700   38.6700 C   0  0  0  0  0  0  0  0  0  0  0  0
   39.1980   22.8490   38.6170 N   0  0  0  0  0  0  0  0  0  0  0  0
   38.8200   23.9920   35.1560 C   0  0  0  0  0  0  0  0  0  0  0  0
   39.6730   25.0320   34.8150 C   0  0  0  0  0  0  0  0  0  0  0  0
   39.7940   25.4120   33.4900 C   0  0  0  0  0  0  0  0  0  0  0  0
   39.0820   24.7770   32.4870 C   0  0  0  0  0  0  0  0  0  0  0  0
   38.2370   23.7380   32.8670 C   0  0  0  0  0  0  0  0  0  0  0  0
   38.0990   23.3410   34.1810 C   0  0  0  0  0  0  0  0  0  0  0  0
   37.2400   22.2830   34.5830 N   0  0  0  0  0  0  0  0  0  0  0  0
   36.5680   21.5060   33.6950 C   0  0  0  0  0  0  0  0  0  0  0  0
   35.8250   20.5770   34.3550 N   0  0  0  0  0  0  0  0  0  0  0  0
   36.0470   20.7910   35.6600 C   0  0  0  0  0  0  0  0  0  0  0  0
   36.8880   21.8050   35.7780 N   0  0  0  0  0  0  0  0  0  0  0  0
   42.6010   20.6650   37.0700 C   0  0  0  0  0  0  0  0  0  0  0  0
   41.5510   21.3890   37.6280 C   0  0  0  0  0  0  0  0  0  0  0  0
   40.7120   22.0680   36.7540 C   0  0  0  0  0  0  0  0  0  0  0  0
   40.9450   22.0020   35.4020 N   0  0  0  0  0  0  0  0  0  0  0  0
   41.9870   21.2780   34.9250 C   0  0  0  0  0  0  0  0  0  0  0  0
   42.8110   20.6160   35.7350 N   0  0  0  0  0  0  0  0  0  0  0  0
   37.6133   23.9013   39.5889 H   0  0  0  0  0  0  0  0  0  0  0  0
   39.6137   22.3228   39.3988 H   0  0  0  0  0  0  0  0  0  0  0  0
   40.2501   25.5517   35.5940 H   0  0  0  0  0  0  0  0  0  0  0  0
   40.4717   26.2378   33.2276 H   0  0  0  0  0  0  0  0  0  0  0  0
   39.1798   25.0805   31.4342 H   0  0  0  0  0  0  0  0  0  0  0  0
   37.6584   23.2146   32.0915 H   0  0  0  0  0  0  0  0  0  0  0  0
   36.6172   21.6123   32.6013 H   0  0  0  0  0  0  0  0  0  0  0  0
   35.6052   20.2207   36.4904 H   0  0  0  0  0  0  0  0  0  0  0  0
   43.2817   20.1151   37.7365 H   0  0  0  0  0  0  0  0  0  0  0  0
   41.3924   21.4219   38.7160 H   0  0  0  0  0  0  0  0  0  0  0  0
   42.1566   21.2362   33.8390 H   0  0  0  0  0  0  0  0  0  0  0  0
  1  5  1  0
  2  1  2  0
  2  3  1  0
  3  4  2  0
  5  4  1  0
  6  2  1  0
  7  6  2  0
  8  7  1  0
  9 10  1  0
  9  8  2  0
 10 11  2  0
 11 12  1  0
 11  6  1  0
 12 16  1  0
 13 14  2  0
 13 12  1  0
 14 15  1  0
 15 16  2  0
 17 18  2  0
 19  1  1  0
 19 18  1  0
 20 19  2  0
 21 20  1  0
 21 22  2  0
 22 17  1  0
  4 23  1  0
  5 24  1  0
  7 25  1  0
  8 26  1  0
  9 27  1  0
 10 28  1  0
 13 29  1  0
 15 30  1  0
 17 31  1  0
 18 32  1  0
 21 33  1  0
M  ISO  8  23  14  24   9  25  14  26  14  27  14  28  14  29  14  30  14
M  ISO  3  31  14  32  14  33  14
M  END
>  <minimizedAffinity>  (1) 
-5.30255508

>  <minimizedRMSD>  (1) 
0.333364487

$$$$
