
     RDKit          3D

 36 38  0  0  0  0  0  0  0  0999 V2000
   39.5790   23.1210   37.4430 C   0  0  0  0  0  0  0  0  0  0  0  0
   38.7330   23.9420   36.7230 C   0  0  0  0  0  0  0  0  0  0  0  0
   37.6240   24.0660   37.4890 N   0  0  0  0  0  0  0  0  0  0  0  0
   37.8130   23.3450   38.6110 C   0  0  0  0  0  0  0  0  0  0  0  0
   38.9920   22.7600   38.6130 N   0  0  0  0  0  0  0  0  0  0  0  0
   38.9350   24.5680   35.4230 C   0  0  0  0  0  0  0  0  0  0  0  0
   39.2740   25.8950   35.4580 C   0  0  0  0  0  0  0  0  0  0  0  0
   39.4830   26.5640   34.2590 C   0  0  0  0  0  0  0  0  0  0  0  0
   39.3620   25.9420   33.0340 C   0  0  0  0  0  0  0  0  0  0  0  0
   39.0200   24.6070   33.0440 C   0  0  0  0  0  0  0  0  0  0  0  0
   38.8030   23.9030   34.2070 C   0  0  0  0  0  0  0  0  0  0  0  0
   38.4340   22.4720   34.2620 C   0  0  0  0  0  0  0  0  0  0  0  0
   37.2670   22.1360   33.3780 C   0  0  0  0  0  0  0  0  0  0  0  0
   39.6220   21.7070   33.6600 C   0  0  0  0  0  0  0  0  0  0  0  0
   42.6190   21.0600   36.8140 C   0  0  0  0  0  0  0  0  0  0  0  0
   41.3450   21.4170   37.2480 C   0  0  0  0  0  0  0  0  0  0  0  0
   40.9160   22.7040   37.0010 C   0  0  0  0  0  0  0  0  0  0  0  0
   41.7640   23.5750   36.3400 N   0  0  0  0  0  0  0  0  0  0  0  0
   42.9970   23.1760   35.9360 C   0  0  0  0  0  0  0  0  0  0  0  0
   43.4200   21.9430   36.1680 N   0  0  0  0  0  0  0  0  0  0  0  0
   37.0757   23.2564   39.4225 H   0  0  0  0  0  0  0  0  0  0  0  0
   39.3865   22.1554   39.3477 H   0  0  0  0  0  0  0  0  0  0  0  0
   39.3787   26.4210   36.4184 H   0  0  0  0  0  0  0  0  0  0  0  0
   39.7551   27.6294   34.2874 H   0  0  0  0  0  0  0  0  0  0  0  0
   39.5306   26.4861   32.0929 H   0  0  0  0  0  0  0  0  0  0  0  0
   38.9161   24.0822   32.0829 H   0  0  0  0  0  0  0  0  0  0  0  0
   38.1823   22.2205   35.3029 H   0  0  0  0  0  0  0  0  0  0  0  0
   36.3956   21.8851   34.0007 H   0  0  0  0  0  0  0  0  0  0  0  0
   37.0269   23.0015   32.7430 H   0  0  0  0  0  0  0  0  0  0  0  0
   37.5239   21.2753   32.7430 H   0  0  0  0  0  0  0  0  0  0  0  0
   40.2474   21.3043   34.4704 H   0  0  0  0  0  0  0  0  0  0  0  0
   39.2485   20.8793   33.0392 H   0  0  0  0  0  0  0  0  0  0  0  0
   40.2210   22.3895   33.0392 H   0  0  0  0  0  0  0  0  0  0  0  0
   42.9838   20.0389   36.9993 H   0  0  0  0  0  0  0  0  0  0  0  0
   40.7010   20.6950   37.7715 H   0  0  0  0  0  0  0  0  0  0  0  0
   43.6525   23.8854   35.4097 H   0  0  0  0  0  0  0  0  0  0  0  0
  1  5  1  0
  2  1  2  0
  2  3  1  0
  3  4  2  0
  4  5  1  0
  6  7  2  0
  6  2  1  0
  8  7  1  0
  9 10  1  0
  9  8  2  0
 10 11  2  0
 11 12  1  0
 11  6  1  0
 13 12  1  0
 14 12  1  0
 15 16  2  0
 17 16  1  0
 17  1  1  0
 18 17  2  0
 19 20  2  0
 19 18  1  0
 20 15  1  0
  4 21  1  0
  5 22  1  0
  7 23  1  0
  8 24  1  0
  9 25  1  0
 10 26  1  0
 12 27  1  0
 13 28  1  0
 13 29  1  0
 13 30  1  0
 14 31  1  0
 14 32  1  0
 14 33  1  0
 15 34  1  0
 16 35  1  0
 19 36  1  0
M  ISO  8  21  14  22   9  23  14  24  14  25  14  26  14  27   8  28   8
M  ISO  8  29   8  30   8  31   8  32   8  33   8  34  14  35  14  36  14
M  END
>  <minimizedAffinity>  (1) 
-4.9397769

>  <minimizedRMSD>  (1) 
1.16827726

$$$$
