
     RDKit          3D

 30 31  0  0  0  0  0  0  0  0999 V2000
   42.1260   22.4500   35.9040 C   0  0  0  0  0  0  0  0  0  0  0  0
   40.8890   22.4780   36.5440 C   0  0  0  0  0  0  0  0  0  0  0  0
   40.0010   23.5280   36.2570 C   0  0  0  0  0  0  0  0  0  0  0  0
   40.3960   24.4820   35.3560 N   0  0  0  0  0  0  0  0  0  0  0  0
   41.5970   24.4250   34.7570 C   0  0  0  0  0  0  0  0  0  0  0  0
   42.4580   23.4140   35.0290 N   0  0  0  0  0  0  0  0  0  0  0  0
   43.0550   21.3650   36.1950 C   0  0  0  0  0  0  0  0  0  0  0  0
   42.6380   20.2590   36.8750 C   0  0  0  0  0  0  0  0  0  0  0  0
   43.4470   19.1720   37.2000 C   0  0  0  0  0  0  0  0  0  0  0  0
   44.7270   19.2740   36.7870 N   0  0  0  0  0  0  0  0  0  0  0  0
   45.1470   20.3790   36.1060 C   0  0  0  0  0  0  0  0  0  0  0  0
   44.3260   21.4220   35.8060 N   0  0  0  0  0  0  0  0  0  0  0  0
   38.6800   23.6380   36.8790 C   0  0  0  0  0  0  0  0  0  0  0  0
   38.8390   23.2790   38.3480 C   0  0  0  0  0  0  0  0  0  0  0  0
   38.0070   24.9650   36.6820 C   0  0  0  0  0  0  0  0  0  0  0  0
   37.7490   22.5930   36.2450 C   0  0  0  0  0  0  0  0  0  0  0  0
   40.6124   21.6916   37.2616 H   0  0  0  0  0  0  0  0  0  0  0  0
   41.8847   25.2067   34.0385 H   0  0  0  0  0  0  0  0  0  0  0  0
   41.5848   20.2222   37.1904 H   0  0  0  0  0  0  0  0  0  0  0  0
   43.0706   18.2976   37.7512 H   0  0  0  0  0  0  0  0  0  0  0  0
   46.1978   20.4292   35.7846 H   0  0  0  0  0  0  0  0  0  0  0  0
   38.4716   24.1085   38.9700 H   0  0  0  0  0  0  0  0  0  0  0  0
   38.2590   22.3707   38.5683 H   0  0  0  0  0  0  0  0  0  0  0  0
   39.9014   23.0981   38.5683 H   0  0  0  0  0  0  0  0  0  0  0  0
   37.7810   25.4106   37.6620 H   0  0  0  0  0  0  0  0  0  0  0  0
   38.6744   25.6347   36.1198 H   0  0  0  0  0  0  0  0  0  0  0  0
   37.0724   24.8222   36.1198 H   0  0  0  0  0  0  0  0  0  0  0  0
   37.2422   22.0241   37.0384 H   0  0  0  0  0  0  0  0  0  0  0  0
   36.9985   23.1008   35.6214 H   0  0  0  0  0  0  0  0  0  0  0  0
   38.3398   21.9059   35.6214 H   0  0  0  0  0  0  0  0  0  0  0  0
  1  7  1  0
  1  2  2  0
  3  2  1  0
  3 13  1  0
  4  3  2  0
  5  6  2  0
  5  4  1  0
  6  1  1  0
  7  8  2  0
  8  9  1  0
 10  9  2  0
 11 10  1  0
 12 11  2  0
 12  7  1  0
 13 14  1  0
 15 13  1  0
 16 13  1  0
  2 17  1  0
  5 18  1  0
  8 19  1  0
  9 20  1  0
 11 21  1  0
 14 22  1  0
 14 23  1  0
 14 24  1  0
 15 25  1  0
 15 26  1  0
 15 27  1  0
 16 28  1  0
 16 29  1  0
 16 30  1  0
M  ISO  8  17  14  18  14  19  14  20  14  21  14  22   8  23   8  24   8
M  ISO  6  25   8  26   8  27   8  28   8  29   8  30   8
M  END
>  <minimizedAffinity>  (1) 
-3.67718577

>  <minimizedRMSD>  (1) 
1.92575634

$$$$
