
     RDKit          3D

 29 30  0  0  0  0  0  0  0  0999 V2000
   41.7480   22.0640   35.7960 C   0  0  0  0  0  0  0  0  0  0  0  0
   40.5400   22.2080   36.4930 C   0  0  0  0  0  0  0  0  0  0  0  0
   39.8210   23.3970   36.3010 C   0  0  0  0  0  0  0  0  0  0  0  0
   40.3190   24.3480   35.4620 N   0  0  0  0  0  0  0  0  0  0  0  0
   41.4870   24.1580   34.8180 C   0  0  0  0  0  0  0  0  0  0  0  0
   42.2080   23.0240   34.9760 N   0  0  0  0  0  0  0  0  0  0  0  0
   42.4510   20.8390   36.0160 N   0  0  0  0  0  0  0  0  0  0  0  0
   42.9680   20.0430   35.0930 N   0  0  0  0  0  0  0  0  0  0  0  0
   43.5510   18.9860   35.6990 C   0  0  0  0  0  0  0  0  0  0  0  0
   43.3630   19.1800   37.0440 C   0  0  0  0  0  0  0  0  0  0  0  0
   42.6730   20.3420   37.2470 C   0  0  0  0  0  0  0  0  0  0  0  0
   38.5480   23.6510   36.9790 C   0  0  0  0  0  0  0  0  0  0  0  0
   38.7640   23.3850   38.4730 C   0  0  0  0  0  0  0  0  0  0  0  0
   37.9950   25.0390   36.7650 C   0  0  0  0  0  0  0  0  0  0  0  0
   37.5000   22.6780   36.4590 C   0  0  0  0  0  0  0  0  0  0  0  0
   40.1704   21.4190   37.1645 H   0  0  0  0  0  0  0  0  0  0  0  0
   41.8638   24.9442   34.1472 H   0  0  0  0  0  0  0  0  0  0  0  0
   44.0687   18.1448   35.2149 H   0  0  0  0  0  0  0  0  0  0  0  0
   43.7139   18.5038   37.8375 H   0  0  0  0  0  0  0  0  0  0  0  0
   42.3653   20.7774   38.2092 H   0  0  0  0  0  0  0  0  0  0  0  0
   38.1785   24.1061   39.0622 H   0  0  0  0  0  0  0  0  0  0  0  0
   38.4371   22.3628   38.7145 H   0  0  0  0  0  0  0  0  0  0  0  0
   39.8315   23.4952   38.7145 H   0  0  0  0  0  0  0  0  0  0  0  0
   37.8062   25.5128   37.7396 H   0  0  0  0  0  0  0  0  0  0  0  0
   38.7222   25.6403   36.1997 H   0  0  0  0  0  0  0  0  0  0  0  0
   37.0535   24.9755   36.1997 H   0  0  0  0  0  0  0  0  0  0  0  0
   36.9877   22.2024   37.3084 H   0  0  0  0  0  0  0  0  0  0  0  0
   36.7662   23.2223   35.8464 H   0  0  0  0  0  0  0  0  0  0  0  0
   37.9884   21.9059   35.8464 H   0  0  0  0  0  0  0  0  0  0  0  0
  1  7  1  0
  1  2  2  0
  3  2  1  0
  3 12  1  0
  4  3  2  0
  5  6  2  0
  5  4  1  0
  6  1  1  0
  7 11  1  0
  8  9  2  0
  8  7  1  0
  9 10  1  0
 10 11  2  0
 12 13  1  0
 14 12  1  0
 15 12  1  0
  2 16  1  0
  5 17  1  0
  9 18  1  0
 10 19  1  0
 11 20  1  0
 13 21  1  0
 13 22  1  0
 13 23  1  0
 14 24  1  0
 14 25  1  0
 14 26  1  0
 15 27  1  0
 15 28  1  0
 15 29  1  0
M  ISO  8  16  14  17  14  18  14  19  14  20  14  21   8  22   8  23   8
M  ISO  6  24   8  25   8  26   8  27   8  28   8  29   8
M  END
>  <minimizedAffinity>  (1) 
-3.59388709

>  <minimizedRMSD>  (1) 
1.85548794

$$$$
