
     RDKit          3D

 52 56  0  0  0  0  0  0  0  0999 V2000
   39.4860   23.0390   37.3580 C   0  0  0  0  0  0  0  0  0  0  0  0
   38.4140   23.4490   36.5800 C   0  0  0  0  0  0  0  0  0  0  0  0
   37.4560   23.7890   37.4740 N   0  0  0  0  0  0  0  0  0  0  0  0
   37.9280   23.5940   38.7080 C   0  0  0  0  0  0  0  0  0  0  0  0
   39.1740   23.1330   38.6750 N   0  0  0  0  0  0  0  0  0  0  0  0
   42.4840   20.9410   36.7070 C   0  0  0  0  0  0  0  0  0  0  0  0
   41.2760   21.3530   37.2390 C   0  0  0  0  0  0  0  0  0  0  0  0
   40.7560   22.5790   36.8160 C   0  0  0  0  0  0  0  0  0  0  0  0
   41.4790   23.3040   35.8930 N   0  0  0  0  0  0  0  0  0  0  0  0
   42.6490   22.8550   35.4090 C   0  0  0  0  0  0  0  0  0  0  0  0
   43.1460   21.6900   35.8080 N   0  0  0  0  0  0  0  0  0  0  0  0
   43.3990   23.6010   34.4560 N   0  0  0  0  0  0  0  0  0  0  0  0
   43.4540   23.2940   33.1280 C   0  0  0  0  0  0  0  0  0  0  0  0
   44.2580   24.2130   32.5160 N   0  0  0  0  0  0  0  0  0  0  0  0
   44.6800   25.0580   33.4550 C   0  0  0  0  0  0  0  0  0  0  0  0
   45.4880   26.1700   33.4940 C   0  0  0  0  0  0  0  0  0  0  0  0
   45.7650   26.8710   34.6150 N   0  0  0  0  0  0  0  0  0  0  0  0
   45.2350   26.4940   35.8110 C   0  0  0  0  0  0  0  0  0  0  0  0
   44.4500   25.4090   35.7610 N   0  0  0  0  0  0  0  0  0  0  0  0
   44.1590   24.7000   34.6770 C   0  0  0  0  0  0  0  0  0  0  0  0
   46.0980   26.6630   32.3170 N   0  0  0  0  0  0  0  0  0  0  0  0
   38.2830   23.5220   35.1440 C   0  0  0  0  0  0  0  0  0  0  0  0
   37.9830   22.3370   34.5500 C   0  0  0  0  0  0  0  0  0  0  0  0
   37.8210   22.2210   33.1860 C   0  0  0  0  0  0  0  0  0  0  0  0
   37.9620   23.3220   32.3840 C   0  0  0  0  0  0  0  0  0  0  0  0
   38.2650   24.5130   33.0070 C   0  0  0  0  0  0  0  0  0  0  0  0
   38.4460   24.7010   34.4040 C   0  0  0  0  0  0  0  0  0  0  0  0
   38.7620   25.9610   35.0080 C   0  0  0  0  0  0  0  0  0  0  0  0
   38.2410   27.0020   34.0020 C   0  0  0  0  0  0  0  0  0  0  0  0
   38.2920   26.3910   36.3060 C   0  0  0  0  0  0  0  0  0  0  0  0
   40.2780   26.1370   34.9830 C   0  0  0  0  0  0  0  0  0  0  0  0
   37.3605   23.7892   39.6298 H   0  0  0  0  0  0  0  0  0  0  0  0
   39.7746   22.8974   39.4779 H   0  0  0  0  0  0  0  0  0  0  0  0
   42.9126   19.9796   37.0263 H   0  0  0  0  0  0  0  0  0  0  0  0
   40.7402   20.7339   37.9736 H   0  0  0  0  0  0  0  0  0  0  0  0
   42.9411   22.4541   32.6365 H   0  0  0  0  0  0  0  0  0  0  0  0
   45.4356   27.0378   36.7459 H   0  0  0  0  0  0  0  0  0  0  0  0
   46.7010   27.4969   32.3600 H   0  0  0  0  0  0  0  0  0  0  0  0
   45.9392   26.1881   31.4169 H   0  0  0  0  0  0  0  0  0  0  0  0
   37.8657   21.4415   35.1780 H   0  0  0  0  0  0  0  0  0  0  0  0
   37.5785   21.2443   32.7419 H   0  0  0  0  0  0  0  0  0  0  0  0
   37.8390   23.2585   31.2927 H   0  0  0  0  0  0  0  0  0  0  0  0
   38.3770   25.3989   32.3647 H   0  0  0  0  0  0  0  0  0  0  0  0
   37.8133   27.8565   34.5469 H   0  0  0  0  0  0  0  0  0  0  0  0
   39.0718   27.3489   33.3699 H   0  0  0  0  0  0  0  0  0  0  0  0
   37.4654   26.5449   33.3699 H   0  0  0  0  0  0  0  0  0  0  0  0
   38.8597   25.8716   37.0921 H   0  0  0  0  0  0  0  0  0  0  0  0
   38.4356   27.4769   36.4067 H   0  0  0  0  0  0  0  0  0  0  0  0
   37.2231   26.1516   36.4067 H   0  0  0  0  0  0  0  0  0  0  0  0
   40.6590   26.1812   36.0139 H   0  0  0  0  0  0  0  0  0  0  0  0
   40.7373   25.2861   34.4585 H   0  0  0  0  0  0  0  0  0  0  0  0
   40.5302   27.0705   34.4585 H   0  0  0  0  0  0  0  0  0  0  0  0
  1  5  1  0
  2  1  2  0
  2  3  1  0
  3  4  2  0
  5  4  1  0
  6  7  2  0
  8  7  1  0
  8  1  1  0
  9  8  2  0
 10 11  2  0
 10  9  1  0
 11  6  1  0
 12 20  1  0
 12 10  1  0
 13 12  1  0
 14 13  2  0
 14 15  1  0
 15 16  2  0
 15 20  1  0
 16 17  1  0
 17 18  2  0
 19 18  1  0
 20 19  2  0
 21 16  1  0
 22  2  1  0
 23 22  2  0
 24 23  1  0
 25 26  1  0
 25 24  2  0
 26 27  2  0
 27 28  1  0
 27 22  1  0
 28 30  1  0
 29 28  1  0
 31 28  1  0
  4 32  1  0
  5 33  1  0
  6 34  1  0
  7 35  1  0
 13 36  1  0
 18 37  1  0
 21 38  1  0
 21 39  1  0
 23 40  1  0
 24 41  1  0
 25 42  1  0
 26 43  1  0
 29 44  1  0
 29 45  1  0
 29 46  1  0
 30 47  1  0
 30 48  1  0
 30 49  1  0
 31 50  1  0
 31 51  1  0
 31 52  1  0
M  ISO  8  32  14  33   9  34  14  35  14  36  14  37  14  40  14  41  14
M  ISO  8  42  14  43  14  44   8  45   8  46   8  47   8  48   8  49   8
M  ISO  3  50   8  51   8  52   8
M  END
>  <minimizedAffinity>  (1) 
-6.44783163

>  <minimizedRMSD>  (1) 
2.47729564

$$$$
