
     RDKit          3D

 50 53  0  0  0  0  0  0  0  0999 V2000
   39.5360   23.0190   37.3160 C   0  0  0  0  0  0  0  0  0  0  0  0
   38.5910   23.4540   36.4230 C   0  0  0  0  0  0  0  0  0  0  0  0
   37.5060   23.7300   37.1780 N   0  0  0  0  0  0  0  0  0  0  0  0
   37.7890   23.4730   38.4600 C   0  0  0  0  0  0  0  0  0  0  0  0
   39.0370   23.0310   38.5810 N   0  0  0  0  0  0  0  0  0  0  0  0
   42.6760   21.0270   37.0190 C   0  0  0  0  0  0  0  0  0  0  0  0
   41.3710   21.3750   37.3880 C   0  0  0  0  0  0  0  0  0  0  0  0
   40.8930   22.6000   36.9590 C   0  0  0  0  0  0  0  0  0  0  0  0
   41.7300   23.4100   36.1910 N   0  0  0  0  0  0  0  0  0  0  0  0
   42.9690   23.0220   35.8710 C   0  0  0  0  0  0  0  0  0  0  0  0
   43.4410   21.8420   36.2790 N   0  0  0  0  0  0  0  0  0  0  0  0
   43.8100   23.8630   35.0860 N   0  0  0  0  0  0  0  0  0  0  0  0
   45.1270   23.7070   35.4050 C   0  0  0  0  0  0  0  0  0  0  0  0
   46.1160   24.4440   34.7480 C   0  0  0  0  0  0  0  0  0  0  0  0
   45.7110   25.3280   33.7690 C   0  0  0  0  0  0  0  0  0  0  0  0
   46.7020   26.0910   33.0820 N   0  0  0  0  0  0  0  0  0  0  0  0
   44.4070   25.4470   33.4870 N   0  0  0  0  0  0  0  0  0  0  0  0
   43.4560   24.7300   34.1290 C   0  0  0  0  0  0  0  0  0  0  0  0
   42.2290   24.7940   33.9150 O   0  0  0  0  0  0  0  0  0  0  0  0
   38.6690   23.6070   34.9860 C   0  0  0  0  0  0  0  0  0  0  0  0
   38.6660   22.4330   34.3030 C   0  0  0  0  0  0  0  0  0  0  0  0
   38.7320   22.3740   32.9300 C   0  0  0  0  0  0  0  0  0  0  0  0
   38.8050   23.5450   32.2040 C   0  0  0  0  0  0  0  0  0  0  0  0
   38.8070   24.7190   32.9160 C   0  0  0  0  0  0  0  0  0  0  0  0
   38.7410   24.8390   34.3220 C   0  0  0  0  0  0  0  0  0  0  0  0
   38.7480   26.0800   35.0360 C   0  0  0  0  0  0  0  0  0  0  0  0
   38.0910   27.0750   34.0360 C   0  0  0  0  0  0  0  0  0  0  0  0
   38.0910   26.3260   36.2980 C   0  0  0  0  0  0  0  0  0  0  0  0
   40.1910   26.5650   35.1490 C   0  0  0  0  0  0  0  0  0  0  0  0
   37.0876   23.6084   39.2965 H   0  0  0  0  0  0  0  0  0  0  0  0
   39.5220   22.7565   39.4472 H   0  0  0  0  0  0  0  0  0  0  0  0
   43.0844   20.0591   37.3450 H   0  0  0  0  0  0  0  0  0  0  0  0
   40.7499   20.7003   37.9955 H   0  0  0  0  0  0  0  0  0  0  0  0
   45.4144   22.9917   36.1897 H   0  0  0  0  0  0  0  0  0  0  0  0
   47.1794   24.3237   35.0022 H   0  0  0  0  0  0  0  0  0  0  0  0
   46.4219   26.7567   32.3477 H   0  0  0  0  0  0  0  0  0  0  0  0
   47.6974   25.9760   33.3205 H   0  0  0  0  0  0  0  0  0  0  0  0
   38.6085   21.4921   34.8700 H   0  0  0  0  0  0  0  0  0  0  0  0
   38.7266   21.4017   32.4156 H   0  0  0  0  0  0  0  0  0  0  0  0
   38.8591   23.5384   31.1054 H   0  0  0  0  0  0  0  0  0  0  0  0
   38.8654   25.6530   32.3378 H   0  0  0  0  0  0  0  0  0  0  0  0
   37.5690   27.8656   34.5950 H   0  0  0  0  0  0  0  0  0  0  0  0
   38.8693   27.5263   33.4031 H   0  0  0  0  0  0  0  0  0  0  0  0
   37.3703   26.5365   33.4031 H   0  0  0  0  0  0  0  0  0  0  0  0
   38.7731   26.0706   37.1224 H   0  0  0  0  0  0  0  0  0  0  0  0
   37.8146   27.3885   36.3665 H   0  0  0  0  0  0  0  0  0  0  0  0
   37.1848   25.7063   36.3665 H   0  0  0  0  0  0  0  0  0  0  0  0
   40.4648   26.6570   36.2104 H   0  0  0  0  0  0  0  0  0  0  0  0
   40.8601   25.8424   34.6590 H   0  0  0  0  0  0  0  0  0  0  0  0
   40.2879   27.5451   34.6590 H   0  0  0  0  0  0  0  0  0  0  0  0
  1  5  1  0
  2  3  1  0
  2  1  2  0
  3  4  2  0
  4  5  1  0
  6  7  2  0
  8  1  1  0
  8  7  1  0
  9  8  2  0
 10  9  1  0
 10 11  2  0
 11  6  1  0
 12 13  1  0
 12 10  1  0
 14 13  2  0
 15 14  1  0
 16 15  1  0
 17 15  2  0
 17 18  1  0
 18 12  1  0
 19 18  2  0
 20  2  1  0
 21 20  2  0
 22 21  1  0
 23 24  1  0
 23 22  2  0
 24 25  2  0
 25 20  1  0
 25 26  1  0
 26 29  1  0
 26 28  1  0
 27 26  1  0
  4 30  1  0
  5 31  1  0
  6 32  1  0
  7 33  1  0
 13 34  1  0
 14 35  1  0
 16 36  1  0
 16 37  1  0
 21 38  1  0
 22 39  1  0
 23 40  1  0
 24 41  1  0
 27 42  1  0
 27 43  1  0
 27 44  1  0
 28 45  1  0
 28 46  1  0
 28 47  1  0
 29 48  1  0
 29 49  1  0
 29 50  1  0
M  ISO  8  30  14  31   9  32  14  33  14  34  14  35  14  38  14  39  14
M  ISO  8  40  14  41  14  42   8  43   8  44   8  45   8  46   8  47   8
M  ISO  3  48   8  49   8  50   8
M  END
>  <minimizedAffinity>  (1) 
-6.2231288

>  <minimizedRMSD>  (1) 
2.66107988

$$$$
