
     RDKit          3D

 37 38  0  0  0  0  0  0  0  0999 V2000
   39.3930   21.6510   33.2560 C   0  0  0  0  0  0  0  0  0  0  0  0
   38.0900   21.3770   33.6600 C   0  0  0  0  0  0  0  0  0  0  0  0
   37.2230   20.7650   32.7400 C   0  0  0  0  0  0  0  0  0  0  0  0
   37.6940   20.4700   31.5050 N   0  0  0  0  0  0  0  0  0  0  0  0
   38.9580   20.7460   31.1400 C   0  0  0  0  0  0  0  0  0  0  0  0
   39.8100   21.3300   31.9980 N   0  0  0  0  0  0  0  0  0  0  0  0
   40.3150   22.2760   34.1600 N   0  0  0  0  0  0  0  0  0  0  0  0
   41.6000   21.6660   34.3930 C   0  0  0  0  0  0  0  0  0  0  0  0
   42.0750   21.7980   35.8090 C   0  0  0  0  0  0  0  0  0  0  0  0
   41.6550   23.0900   36.4580 C   0  0  0  0  0  0  0  0  0  0  0  0
   41.1790   24.1010   35.4060 C   0  0  0  0  0  0  0  0  0  0  0  0
   39.9220   23.5030   34.8130 C   0  0  0  0  0  0  0  0  0  0  0  0
   35.8300   20.4300   33.0610 C   0  0  0  0  0  0  0  0  0  0  0  0
   34.9470   21.4360   32.2980 C   0  0  0  0  0  0  0  0  0  0  0  0
   35.4350   19.0150   32.7590 C   0  0  0  0  0  0  0  0  0  0  0  0
   35.5980   20.6560   34.5610 C   0  0  0  0  0  0  0  0  0  0  0  0
   37.7478   21.6331   34.6736 H   0  0  0  0  0  0  0  0  0  0  0  0
   39.2986   20.4903   30.1258 H   0  0  0  0  0  0  0  0  0  0  0  0
   41.5274   20.5961   34.1481 H   0  0  0  0  0  0  0  0  0  0  0  0
   42.3280   22.1903   33.7565 H   0  0  0  0  0  0  0  0  0  0  0  0
   41.6638   20.9627   36.3949 H   0  0  0  0  0  0  0  0  0  0  0  0
   43.1747   21.7858   35.7871 H   0  0  0  0  0  0  0  0  0  0  0  0
   40.8341   22.8893   37.1622 H   0  0  0  0  0  0  0  0  0  0  0  0
   42.5201   23.5149   36.9881 H   0  0  0  0  0  0  0  0  0  0  0  0
   40.9589   25.0708   35.8762 H   0  0  0  0  0  0  0  0  0  0  0  0
   41.9457   24.2844   34.6389 H   0  0  0  0  0  0  0  0  0  0  0  0
   39.4801   24.1967   34.0825 H   0  0  0  0  0  0  0  0  0  0  0  0
   39.1683   23.3134   35.5915 H   0  0  0  0  0  0  0  0  0  0  0  0
   34.3981   22.0614   33.0174 H   0  0  0  0  0  0  0  0  0  0  0  0
   35.5813   22.0749   31.6659 H   0  0  0  0  0  0  0  0  0  0  0  0
   34.2313   20.8899   31.6659 H   0  0  0  0  0  0  0  0  0  0  0  0
   35.2823   18.4679   33.7010 H   0  0  0  0  0  0  0  0  0  0  0  0
   34.5014   19.0111   32.1772 H   0  0  0  0  0  0  0  0  0  0  0  0
   36.2316   18.5281   32.1772 H   0  0  0  0  0  0  0  0  0  0  0  0
   36.2687   20.0026   35.1383 H   0  0  0  0  0  0  0  0  0  0  0  0
   35.8062   21.7070   34.8100 H   0  0  0  0  0  0  0  0  0  0  0  0
   34.5528   20.4203   34.8100 H   0  0  0  0  0  0  0  0  0  0  0  0
  1  2  2  0
  1  7  1  0
  3 13  1  0
  3  2  1  0
  4  3  2  0
  5  4  1  0
  5  6  2  0
  6  1  1  0
  7  8  1  0
  7 12  1  0
  8  9  1  0
  9 10  1  0
 11 10  1  0
 12 11  1  0
 13 16  1  0
 14 13  1  0
 15 13  1  0
  2 17  1  0
  5 18  1  0
  8 19  1  0
  8 20  1  0
  9 21  1  0
  9 22  1  0
 10 23  1  0
 10 24  1  0
 11 25  1  0
 11 26  1  0
 12 27  1  0
 12 28  1  0
 14 29  1  0
 14 30  1  0
 14 31  1  0
 15 32  1  0
 15 33  1  0
 15 34  1  0
 16 35  1  0
 16 36  1  0
 16 37  1  0
M  ISO  8  17  14  18  14  19  13  20  13  21  13  22  13  23  13  24  13
M  ISO  8  25  13  26  13  27  13  28  13  29   8  30   8  31   8  32   8
M  ISO  5  33   8  34   8  35   8  36   8  37   8
M  END
>  <minimizedAffinity>  (1) 
-3.53966427

>  <minimizedRMSD>  (1) 
5.31118917

$$$$
