
     RDKit          3D

 52 55  0  0  0  0  0  0  0  0999 V2000
   38.3160   23.5090   35.0970 C   0  0  0  0  0  0  0  0  0  0  0  0
   38.0070   22.3150   34.5150 C   0  0  0  0  0  0  0  0  0  0  0  0
   37.8570   22.1800   33.1540 C   0  0  0  0  0  0  0  0  0  0  0  0
   38.0240   23.2850   32.3390 C   0  0  0  0  0  0  0  0  0  0  0  0
   38.3330   24.4680   32.9550 C   0  0  0  0  0  0  0  0  0  0  0  0
   38.5010   24.6710   34.3500 C   0  0  0  0  0  0  0  0  0  0  0  0
   39.4630   23.0060   37.3250 C   0  0  0  0  0  0  0  0  0  0  0  0
   38.4230   23.4370   36.5450 C   0  0  0  0  0  0  0  0  0  0  0  0
   37.4580   23.8050   37.4150 N   0  0  0  0  0  0  0  0  0  0  0  0
   37.9120   23.5980   38.6620 C   0  0  0  0  0  0  0  0  0  0  0  0
   39.1380   23.1090   38.6440 N   0  0  0  0  0  0  0  0  0  0  0  0
   42.5860   21.0120   36.9350 C   0  0  0  0  0  0  0  0  0  0  0  0
   41.3720   21.4480   37.4580 C   0  0  0  0  0  0  0  0  0  0  0  0
   40.7360   22.5100   36.8150 C   0  0  0  0  0  0  0  0  0  0  0  0
   41.3530   23.0640   35.6920 N   0  0  0  0  0  0  0  0  0  0  0  0
   42.5190   22.5940   35.2460 C   0  0  0  0  0  0  0  0  0  0  0  0
   43.1350   21.5820   35.8520 N   0  0  0  0  0  0  0  0  0  0  0  0
   43.1480   23.1600   34.1050 N   0  0  0  0  0  0  0  0  0  0  0  0
   44.3100   24.0290   34.1290 C   0  0  0  0  0  0  0  0  0  0  0  0
   44.1660   24.9760   32.9570 C   0  0  0  0  0  0  0  0  0  0  0  0
   42.8350   25.2810   32.6960 O   0  0  0  0  0  0  0  0  0  0  0  0
   42.0800   24.2210   32.2700 C   0  0  0  0  0  0  0  0  0  0  0  0
   42.6740   22.9150   32.7560 C   0  0  0  0  0  0  0  0  0  0  0  0
   38.8290   25.9280   34.9510 C   0  0  0  0  0  0  0  0  0  0  0  0
   38.4250   26.9680   33.8840 C   0  0  0  0  0  0  0  0  0  0  0  0
   38.2560   26.4170   36.1930 C   0  0  0  0  0  0  0  0  0  0  0  0
   40.3470   26.0340   35.0560 C   0  0  0  0  0  0  0  0  0  0  0  0
   37.8732   21.4304   35.1550 H   0  0  0  0  0  0  0  0  0  0  0  0
   37.6064   21.2018   32.7178 H   0  0  0  0  0  0  0  0  0  0  0  0
   37.9137   23.2165   31.2467 H   0  0  0  0  0  0  0  0  0  0  0  0
   38.4638   25.3465   32.3060 H   0  0  0  0  0  0  0  0  0  0  0  0
   37.3384   23.8081   39.5768 H   0  0  0  0  0  0  0  0  0  0  0  0
   39.7235   22.8589   39.4537 H   0  0  0  0  0  0  0  0  0  0  0  0
   43.1096   20.1769   37.4233 H   0  0  0  0  0  0  0  0  0  0  0  0
   40.9302   20.9724   38.3461 H   0  0  0  0  0  0  0  0  0  0  0  0
   44.3418   24.5943   35.0721 H   0  0  0  0  0  0  0  0  0  0  0  0
   45.2414   23.4481   34.0575 H   0  0  0  0  0  0  0  0  0  0  0  0
   44.7060   25.9070   33.1840 H   0  0  0  0  0  0  0  0  0  0  0  0
   44.5828   24.4819   32.0670 H   0  0  0  0  0  0  0  0  0  0  0  0
   41.0584   24.3228   32.6648 H   0  0  0  0  0  0  0  0  0  0  0  0
   42.0637   24.2160   31.1701 H   0  0  0  0  0  0  0  0  0  0  0  0
   41.9077   22.1259   32.7591 H   0  0  0  0  0  0  0  0  0  0  0  0
   43.4907   22.5789   32.1003 H   0  0  0  0  0  0  0  0  0  0  0  0
   38.0695   27.8832   34.3801 H   0  0  0  0  0  0  0  0  0  0  0  0
   39.2960   27.2062   33.2558 H   0  0  0  0  0  0  0  0  0  0  0  0
   37.6216   26.5557   33.2558 H   0  0  0  0  0  0  0  0  0  0  0  0
   38.7859   25.9648   37.0443 H   0  0  0  0  0  0  0  0  0  0  0  0
   38.3571   27.5114   36.2376 H   0  0  0  0  0  0  0  0  0  0  0  0
   37.1911   26.1451   36.2376 H   0  0  0  0  0  0  0  0  0  0  0  0
   40.6407   26.0545   36.1159 H   0  0  0  0  0  0  0  0  0  0  0  0
   40.8101   25.1660   34.5639 H   0  0  0  0  0  0  0  0  0  0  0  0
   40.6850   26.9579   34.5639 H   0  0  0  0  0  0  0  0  0  0  0  0
  1  8  1  0
  2  1  2  0
  3  2  1  0
  4  5  1  0
  4  3  2  0
  5  6  2  0
  6 24  1  0
  6  1  1  0
  7 11  1  0
  8  7  2  0
  8  9  1  0
  9 10  2  0
 11 10  1  0
 12 13  2  0
 14  7  1  0
 14 13  1  0
 15 14  2  0
 16 15  1  0
 16 17  2  0
 17 12  1  0
 18 19  1  0
 18 16  1  0
 20 19  1  0
 21 20  1  0
 22 21  1  0
 22 23  1  0
 23 18  1  0
 24 27  1  0
 24 26  1  0
 25 24  1  0
  2 28  1  0
  3 29  1  0
  4 30  1  0
  5 31  1  0
 10 32  1  0
 11 33  1  0
 12 34  1  0
 13 35  1  0
 19 36  1  0
 19 37  1  0
 20 38  1  0
 20 39  1  0
 22 40  1  0
 22 41  1  0
 23 42  1  0
 23 43  1  0
 25 44  1  0
 25 45  1  0
 25 46  1  0
 26 47  1  0
 26 48  1  0
 26 49  1  0
 27 50  1  0
 27 51  1  0
 27 52  1  0
M  ISO  8  28  14  29  14  30  14  31  14  32  14  33   9  34  14  35  14
M  ISO  8  36  13  37  13  38  13  39  13  40  13  41  13  42  13  43  13
M  ISO  8  44   8  45   8  46   8  47   8  48   8  49   8  50   8  51   8
M  ISO  1  52   8
M  END
>  <minimizedAffinity>  (1) 
-5.8816061

>  <minimizedRMSD>  (1) 
1.38184798

$$$$
