
     RDKit          3D

 13 13  0  0  0  0  0  0  0  0999 V2000
   41.3740   22.1830   36.6890 C   0  0  0  0  0  0  0  0  0  0  0  0
   40.4810   22.5020   37.7210 C   0  0  0  0  0  0  0  0  0  0  0  0
   39.2430   23.0410   37.3730 C   0  0  0  0  0  0  0  0  0  0  0  0
   38.9600   23.2330   36.0530 N   0  0  0  0  0  0  0  0  0  0  0  0
   39.8470   22.9140   35.0820 C   0  0  0  0  0  0  0  0  0  0  0  0
   41.0550   22.3880   35.3940 N   0  0  0  0  0  0  0  0  0  0  0  0
   38.2090   23.4240   38.3300 C   0  0  0  0  0  0  0  0  0  0  0  0
   38.0620   24.5800   38.7900 O   0  0  0  0  0  0  0  0  0  0  0  0
   37.2960   22.4860   38.8020 O   0  0  0  0  0  0  0  0  0  0  0  0
   42.3562   21.7563   36.9401 H   0  0  0  0  0  0  0  0  0  0  0  0
   40.7488   22.3322   38.7743 H   0  0  0  0  0  0  0  0  0  0  0  0
   39.5837   23.0839   34.0276 H   0  0  0  0  0  0  0  0  0  0  0  0
   36.5989   22.7567   39.4508 H   0  0  0  0  0  0  0  0  0  0  0  0
  1  2  2  0
  3  2  1  0
  3  7  1  0
  4  3  2  0
  5  6  2  0
  5  4  1  0
  6  1  1  0
  7  8  2  0
  7  9  1  0
  1 10  1  0
  2 11  1  0
  5 12  1  0
  9 13  1  0
M  ISO  4  10  14  11  14  12  14  13   3
M  END
>  <minimizedAffinity>  (1) 
-3.26335526

>  <minimizedRMSD>  (1) 
1.68304288

$$$$
