
     RDKit          3D

 47 50  0  0  0  0  0  0  0  0999 V2000
   38.1110   23.3620   35.1700 C   0  0  0  0  0  0  0  0  0  0  0  0
   37.6290   22.1980   34.6610 C   0  0  0  0  0  0  0  0  0  0  0  0
   37.3330   22.0420   33.3260 C   0  0  0  0  0  0  0  0  0  0  0  0
   37.5300   23.1010   32.4610 C   0  0  0  0  0  0  0  0  0  0  0  0
   38.0150   24.2590   32.9990 C   0  0  0  0  0  0  0  0  0  0  0  0
   38.3370   24.4810   34.3560 C   0  0  0  0  0  0  0  0  0  0  0  0
   39.4250   22.8100   37.2990 C   0  0  0  0  0  0  0  0  0  0  0  0
   38.3570   23.3260   36.5950 C   0  0  0  0  0  0  0  0  0  0  0  0
   37.5300   23.8250   37.5410 N   0  0  0  0  0  0  0  0  0  0  0  0
   38.0750   23.6170   38.7460 C   0  0  0  0  0  0  0  0  0  0  0  0
   39.2420   22.9950   38.6340 N   0  0  0  0  0  0  0  0  0  0  0  0
   42.5850   20.8920   36.8640 C   0  0  0  0  0  0  0  0  0  0  0  0
   41.4940   21.4980   37.5010 C   0  0  0  0  0  0  0  0  0  0  0  0
   40.5750   22.1620   36.6850 C   0  0  0  0  0  0  0  0  0  0  0  0
   40.7980   22.1790   35.3090 N   0  0  0  0  0  0  0  0  0  0  0  0
   41.8620   21.5780   34.7730 C   0  0  0  0  0  0  0  0  0  0  0  0
   42.7490   20.9410   35.5310 N   0  0  0  0  0  0  0  0  0  0  0  0
   42.0400   21.6320   33.3200 C   0  0  0  0  0  0  0  0  0  0  0  0
   43.2180   21.1450   32.7530 C   0  0  0  0  0  0  0  0  0  0  0  0
   43.2710   21.2490   31.3700 C   0  0  0  0  0  0  0  0  0  0  0  0
   42.3150   21.7610   30.5760 N   0  0  0  0  0  0  0  0  0  0  0  0
   41.2010   22.2130   31.1910 C   0  0  0  0  0  0  0  0  0  0  0  0
   41.0620   22.1510   32.5420 N   0  0  0  0  0  0  0  0  0  0  0  0
   38.8490   25.7090   34.8880 C   0  0  0  0  0  0  0  0  0  0  0  0
   38.6350   26.7300   33.7340 C   0  0  0  0  0  0  0  0  0  0  0  0
   38.3570   26.3820   36.0740 C   0  0  0  0  0  0  0  0  0  0  0  0
   40.3640   25.5940   35.0020 C   0  0  0  0  0  0  0  0  0  0  0  0
   37.4694   21.3486   35.3414 H   0  0  0  0  0  0  0  0  0  0  0  0
   36.9435   21.0838   32.9516 H   0  0  0  0  0  0  0  0  0  0  0  0
   37.3064   23.0155   31.3874 H   0  0  0  0  0  0  0  0  0  0  0  0
   38.1699   25.1007   32.3079 H   0  0  0  0  0  0  0  0  0  0  0  0
   37.6177   23.9204   39.6993 H   0  0  0  0  0  0  0  0  0  0  0  0
   39.8747   22.7124   39.3961 H   0  0  0  0  0  0  0  0  0  0  0  0
   43.3301   20.3598   37.4736 H   0  0  0  0  0  0  0  0  0  0  0  0
   41.3671   21.4530   38.5927 H   0  0  0  0  0  0  0  0  0  0  0  0
   44.0351   20.7152   33.3510 H   0  0  0  0  0  0  0  0  0  0  0  0
   44.1814   20.8773   30.8771 H   0  0  0  0  0  0  0  0  0  0  0  0
   40.3882   22.6407   30.5856 H   0  0  0  0  0  0  0  0  0  0  0  0
   38.4267   27.7236   34.1575 H   0  0  0  0  0  0  0  0  0  0  0  0
   39.5425   26.7784   33.1143 H   0  0  0  0  0  0  0  0  0  0  0  0
   37.7844   26.4099   33.1143 H   0  0  0  0  0  0  0  0  0  0  0  0
   38.7333   25.8673   36.9704 H   0  0  0  0  0  0  0  0  0  0  0  0
   38.7072   27.4247   36.0758 H   0  0  0  0  0  0  0  0  0  0  0  0
   37.2571   26.3646   36.0758 H   0  0  0  0  0  0  0  0  0  0  0  0
   40.6512   25.5722   36.0636 H   0  0  0  0  0  0  0  0  0  0  0  0
   40.6993   24.6678   34.5123 H   0  0  0  0  0  0  0  0  0  0  0  0
   40.8353   26.4590   34.5123 H   0  0  0  0  0  0  0  0  0  0  0  0
  1  8  1  0
  2  1  2  0
  3  2  1  0
  4  5  1  0
  4  3  2  0
  5  6  2  0
  6 24  1  0
  6  1  1  0
  7 11  1  0
  8  7  2  0
  8  9  1  0
  9 10  2  0
 11 10  1  0
 12 13  2  0
 14  7  1  0
 14 13  1  0
 15 14  2  0
 16 15  1  0
 16 17  2  0
 17 12  1  0
 18 16  1  0
 19 18  2  0
 20 19  1  0
 21 22  1  0
 21 20  2  0
 22 23  2  0
 23 18  1  0
 24 27  1  0
 24 26  1  0
 25 24  1  0
  2 28  1  0
  3 29  1  0
  4 30  1  0
  5 31  1  0
 10 32  1  0
 11 33  1  0
 12 34  1  0
 13 35  1  0
 19 36  1  0
 20 37  1  0
 22 38  1  0
 25 39  1  0
 25 40  1  0
 25 41  1  0
 26 42  1  0
 26 43  1  0
 26 44  1  0
 27 45  1  0
 27 46  1  0
 27 47  1  0
M  ISO  8  28  14  29  14  30  14  31  14  32  14  33   9  34  14  35  14
M  ISO  8  36  14  37  14  38  14  39   8  40   8  41   8  42   8  43   8
M  ISO  4  44   8  45   8  46   8  47   8
M  END
>  <minimizedAffinity>  (1) 
-5.4589138

>  <minimizedRMSD>  (1) 
0.537946463

$$$$
