
     RDKit          3D

 40 42  0  0  0  0  0  0  0  0999 V2000
   38.0930   23.1940   35.2320 C   0  0  0  0  0  0  0  0  0  0  0  0
   37.6150   22.0130   34.7560 C   0  0  0  0  0  0  0  0  0  0  0  0
   37.2680   21.8260   33.4400 C   0  0  0  0  0  0  0  0  0  0  0  0
   37.4020   22.8650   32.5540 C   0  0  0  0  0  0  0  0  0  0  0  0
   37.8860   24.0520   33.0540 C   0  0  0  0  0  0  0  0  0  0  0  0
   38.2590   24.3030   34.3930 C   0  0  0  0  0  0  0  0  0  0  0  0
   39.5160   22.7050   37.3090 C   0  0  0  0  0  0  0  0  0  0  0  0
   38.4000   23.1860   36.6450 C   0  0  0  0  0  0  0  0  0  0  0  0
   37.6150   23.6680   37.6190 N   0  0  0  0  0  0  0  0  0  0  0  0
   38.2210   23.4900   38.8020 C   0  0  0  0  0  0  0  0  0  0  0  0
   39.3960   22.8980   38.6390 N   0  0  0  0  0  0  0  0  0  0  0  0
   42.6720   20.8010   36.7360 C   0  0  0  0  0  0  0  0  0  0  0  0
   41.5950   21.3830   37.4040 C   0  0  0  0  0  0  0  0  0  0  0  0
   40.6610   22.0780   36.6490 C   0  0  0  0  0  0  0  0  0  0  0  0
   40.8570   22.1500   35.2750 N   0  0  0  0  0  0  0  0  0  0  0  0
   41.9140   21.5690   34.6780 C   0  0  0  0  0  0  0  0  0  0  0  0
   42.8160   20.8990   35.4030 N   0  0  0  0  0  0  0  0  0  0  0  0
   41.8690   21.7910   33.3170 O   0  0  0  0  0  0  0  0  0  0  0  0
   38.7610   25.5540   34.8730 C   0  0  0  0  0  0  0  0  0  0  0  0
   38.5060   26.5290   33.7040 C   0  0  0  0  0  0  0  0  0  0  0  0
   38.2970   26.2380   36.0590 C   0  0  0  0  0  0  0  0  0  0  0  0
   40.2820   25.4620   34.9620 C   0  0  0  0  0  0  0  0  0  0  0  0
   37.5013   21.1712   35.4549 H   0  0  0  0  0  0  0  0  0  0  0  0
   36.8862   20.8521   33.0997 H   0  0  0  0  0  0  0  0  0  0  0  0
   37.1348   22.7541   31.4927 H   0  0  0  0  0  0  0  0  0  0  0  0
   37.9926   24.8848   32.3433 H   0  0  0  0  0  0  0  0  0  0  0  0
   37.8015   23.7930   39.7727 H   0  0  0  0  0  0  0  0  0  0  0  0
   40.0729   22.6404   39.3714 H   0  0  0  0  0  0  0  0  0  0  0  0
   43.4245   20.2464   37.3159 H   0  0  0  0  0  0  0  0  0  0  0  0
   41.4892   21.2939   38.4953 H   0  0  0  0  0  0  0  0  0  0  0  0
   42.5798   21.4264   32.7322 H   0  0  0  0  0  0  0  0  0  0  0  0
   38.2467   27.5206   34.1035 H   0  0  0  0  0  0  0  0  0  0  0  0
   39.4137   26.6079   33.0877 H   0  0  0  0  0  0  0  0  0  0  0  0
   37.6759   26.1534   33.0877 H   0  0  0  0  0  0  0  0  0  0  0  0
   38.6570   25.7074   36.9528 H   0  0  0  0  0  0  0  0  0  0  0  0
   38.6837   27.2678   36.0633 H   0  0  0  0  0  0  0  0  0  0  0  0
   37.1972   26.2594   36.0633 H   0  0  0  0  0  0  0  0  0  0  0  0
   40.5870   25.4436   36.0187 H   0  0  0  0  0  0  0  0  0  0  0  0
   40.6233   24.5416   34.4657 H   0  0  0  0  0  0  0  0  0  0  0  0
   40.7318   26.3346   34.4657 H   0  0  0  0  0  0  0  0  0  0  0  0
  1  8  1  0
  2  1  2  0
  3  2  1  0
  4  5  1  0
  4  3  2  0
  5  6  2  0
  6 19  1  0
  6  1  1  0
  7 11  1  0
  8  7  2  0
  8  9  1  0
  9 10  2  0
 11 10  1  0
 12 13  2  0
 14  7  1  0
 14 13  1  0
 15 14  2  0
 16 15  1  0
 16 17  2  0
 17 12  1  0
 18 16  1  0
 19 22  1  0
 19 21  1  0
 20 19  1  0
  2 23  1  0
  3 24  1  0
  4 25  1  0
  5 26  1  0
 10 27  1  0
 11 28  1  0
 12 29  1  0
 13 30  1  0
 18 31  1  0
 20 32  1  0
 20 33  1  0
 20 34  1  0
 21 35  1  0
 21 36  1  0
 21 37  1  0
 22 38  1  0
 22 39  1  0
 22 40  1  0
M  ISO  8  23  14  24  14  25  14  26  14  27  14  28   9  29  14  30  14
M  ISO  8  31   3  32   8  33   8  34   8  35   8  36   8  37   8  38   8
M  ISO  2  39   8  40   8
M  END
>  <minimizedAffinity>  (1) 
-5.55705261

>  <minimizedRMSD>  (1) 
0.0143347206

$$$$
