
     RDKit          3D

 46 49  0  0  0  0  0  0  0  0999 V2000
   38.1180   23.3670   35.1750 C   0  0  0  0  0  0  0  0  0  0  0  0
   37.6340   22.1980   34.6590 C   0  0  0  0  0  0  0  0  0  0  0  0
   37.3400   22.0430   33.3250 C   0  0  0  0  0  0  0  0  0  0  0  0
   37.5360   23.0970   32.4620 C   0  0  0  0  0  0  0  0  0  0  0  0
   38.0230   24.2610   32.9980 C   0  0  0  0  0  0  0  0  0  0  0  0
   38.3440   24.4830   34.3590 C   0  0  0  0  0  0  0  0  0  0  0  0
   39.4280   22.8090   37.3000 C   0  0  0  0  0  0  0  0  0  0  0  0
   38.3640   23.3290   36.5970 C   0  0  0  0  0  0  0  0  0  0  0  0
   37.5380   23.8320   37.5400 N   0  0  0  0  0  0  0  0  0  0  0  0
   38.0800   23.6220   38.7480 C   0  0  0  0  0  0  0  0  0  0  0  0
   39.2400   22.9970   38.6400 N   0  0  0  0  0  0  0  0  0  0  0  0
   42.5890   20.8930   36.8680 C   0  0  0  0  0  0  0  0  0  0  0  0
   41.5060   21.5020   37.4990 C   0  0  0  0  0  0  0  0  0  0  0  0
   40.5770   22.1570   36.6840 C   0  0  0  0  0  0  0  0  0  0  0  0
   40.7880   22.1580   35.3230 N   0  0  0  0  0  0  0  0  0  0  0  0
   41.8530   21.5520   34.7700 C   0  0  0  0  0  0  0  0  0  0  0  0
   42.7480   20.9230   35.5380 N   0  0  0  0  0  0  0  0  0  0  0  0
   42.0450   21.5750   33.3220 C   0  0  0  0  0  0  0  0  0  0  0  0
   43.2670   21.2030   32.8020 C   0  0  0  0  0  0  0  0  0  0  0  0
   43.1770   21.3150   31.4100 C   0  0  0  0  0  0  0  0  0  0  0  0
   41.8700   21.7590   31.1790 C   0  0  0  0  0  0  0  0  0  0  0  0
   41.2300   21.9030   32.3280 O   0  0  0  0  0  0  0  0  0  0  0  0
   38.8520   25.7140   34.8860 C   0  0  0  0  0  0  0  0  0  0  0  0
   38.6420   26.7190   33.7200 C   0  0  0  0  0  0  0  0  0  0  0  0
   38.3560   26.3880   36.0620 C   0  0  0  0  0  0  0  0  0  0  0  0
   40.3690   25.5960   35.0070 C   0  0  0  0  0  0  0  0  0  0  0  0
   37.4733   21.3474   35.3377 H   0  0  0  0  0  0  0  0  0  0  0  0
   36.9513   21.0845   32.9505 H   0  0  0  0  0  0  0  0  0  0  0  0
   37.3116   23.0092   31.3887 H   0  0  0  0  0  0  0  0  0  0  0  0
   38.1790   25.1014   32.3057 H   0  0  0  0  0  0  0  0  0  0  0  0
   37.6217   23.9282   39.7000 H   0  0  0  0  0  0  0  0  0  0  0  0
   39.8689   22.7121   39.4044 H   0  0  0  0  0  0  0  0  0  0  0  0
   43.3376   20.3707   37.4818 H   0  0  0  0  0  0  0  0  0  0  0  0
   41.3868   21.4690   38.5920 H   0  0  0  0  0  0  0  0  0  0  0  0
   44.1483   20.8786   33.3748 H   0  0  0  0  0  0  0  0  0  0  0  0
   43.9578   21.1020   30.6650 H   0  0  0  0  0  0  0  0  0  0  0  0
   41.4381   21.9590   30.1873 H   0  0  0  0  0  0  0  0  0  0  0  0
   38.4332   27.7181   34.1302 H   0  0  0  0  0  0  0  0  0  0  0  0
   39.5512   26.7589   33.1021 H   0  0  0  0  0  0  0  0  0  0  0  0
   37.7929   26.3915   33.1021 H   0  0  0  0  0  0  0  0  0  0  0  0
   38.7308   25.8787   36.9620 H   0  0  0  0  0  0  0  0  0  0  0  0
   38.7030   27.4318   36.0601 H   0  0  0  0  0  0  0  0  0  0  0  0
   37.2562   26.3672   36.0601 H   0  0  0  0  0  0  0  0  0  0  0  0
   40.6514   25.5740   36.0699 H   0  0  0  0  0  0  0  0  0  0  0  0
   40.7047   24.6690   34.5192 H   0  0  0  0  0  0  0  0  0  0  0  0
   40.8440   26.4599   34.5192 H   0  0  0  0  0  0  0  0  0  0  0  0
  1  8  1  0
  2  1  2  0
  3  2  1  0
  4  5  1  0
  4  3  2  0
  5  6  2  0
  6 23  1  0
  6  1  1  0
  7 11  1  0
  8  7  2  0
  8  9  1  0
  9 10  2  0
 11 10  1  0
 12 13  2  0
 14  7  1  0
 14 13  1  0
 15 14  2  0
 16 15  1  0
 16 17  2  0
 17 12  1  0
 18 16  1  0
 19 18  2  0
 20 19  1  0
 21 20  2  0
 21 22  1  0
 22 18  1  0
 23 26  1  0
 23 25  1  0
 24 23  1  0
  2 27  1  0
  3 28  1  0
  4 29  1  0
  5 30  1  0
 10 31  1  0
 11 32  1  0
 12 33  1  0
 13 34  1  0
 19 35  1  0
 20 36  1  0
 21 37  1  0
 24 38  1  0
 24 39  1  0
 24 40  1  0
 25 41  1  0
 25 42  1  0
 25 43  1  0
 26 44  1  0
 26 45  1  0
 26 46  1  0
M  ISO  8  27  14  28  14  29  14  30  14  31  14  32   9  33  14  34  14
M  ISO  8  35  14  36  14  37  14  38   8  39   8  40   8  41   8  42   8
M  ISO  4  43   8  44   8  45   8  46   8
M  END
>  <minimizedAffinity>  (1) 
-5.43442345

>  <minimizedRMSD>  (1) 
0.440437108

$$$$
