
     RDKit          3D

 24 24  0  0  0  0  0  0  0  0999 V2000
   38.5280   23.6560   37.1410 C   0  0  0  0  0  0  0  0  0  0  0  0
   41.7840   21.7770   36.8480 C   0  0  0  0  0  0  0  0  0  0  0  0
   40.5030   22.1180   37.3390 C   0  0  0  0  0  0  0  0  0  0  0  0
   39.8470   23.1990   36.7310 C   0  0  0  0  0  0  0  0  0  0  0  0
   40.4740   23.8540   35.7090 N   0  0  0  0  0  0  0  0  0  0  0  0
   41.6980   23.4900   35.2750 C   0  0  0  0  0  0  0  0  0  0  0  0
   42.3510   22.4600   35.8390 N   0  0  0  0  0  0  0  0  0  0  0  0
   42.4110   20.6440   37.5250 C   0  0  0  0  0  0  0  0  0  0  0  0
   42.8420   19.6240   36.9690 O   0  0  0  0  0  0  0  0  0  0  0  0
   38.5120   23.6120   38.6780 C   0  0  0  0  0  0  0  0  0  0  0  0
   38.1800   25.0500   36.6560 C   0  0  0  0  0  0  0  0  0  0  0  0
   37.4550   22.7220   36.6260 C   0  0  0  0  0  0  0  0  0  0  0  0
   40.0391   21.5583   38.1646 H   0  0  0  0  0  0  0  0  0  0  0  0
   42.1678   24.0435   34.4486 H   0  0  0  0  0  0  0  0  0  0  0  0
   42.5085   20.7014   38.6192 H   0  0  0  0  0  0  0  0  0  0  0  0
   38.8624   24.5757   39.0761 H   0  0  0  0  0  0  0  0  0  0  0  0
   37.4870   23.4213   39.0287 H   0  0  0  0  0  0  0  0  0  0  0  0
   39.1751   22.8075   39.0287 H   0  0  0  0  0  0  0  0  0  0  0  0
   38.0155   25.7089   37.5213 H   0  0  0  0  0  0  0  0  0  0  0  0
   39.0074   25.4437   36.0474 H   0  0  0  0  0  0  0  0  0  0  0  0
   37.2646   25.0086   36.0474 H   0  0  0  0  0  0  0  0  0  0  0  0
   36.9287   22.2639   37.4763 H   0  0  0  0  0  0  0  0  0  0  0  0
   36.7384   23.2890   36.0136 H   0  0  0  0  0  0  0  0  0  0  0  0
   37.9178   21.9341   36.0136 H   0  0  0  0  0  0  0  0  0  0  0  0
  1 10  1  0
  2  3  2  0
  2  8  1  0
  4  1  1  0
  4  3  1  0
  5  4  2  0
  6  5  1  0
  6  7  2  0
  7  2  1  0
  9  8  2  0
 11  1  1  0
 12  1  1  0
  3 13  1  0
  6 14  1  0
  8 15  1  0
 10 16  1  0
 10 17  1  0
 10 18  1  0
 11 19  1  0
 11 20  1  0
 11 21  1  0
 12 22  1  0
 12 23  1  0
 12 24  1  0
M  ISO  8  13  14  14  14  15   6  16   8  17   8  18   8  19   8  20   8
M  ISO  4  21   8  22   8  23   8  24   8
M  END
>  <minimizedAffinity>  (1) 
-3.45329213

>  <minimizedRMSD>  (1) 
1.10444808

$$$$
