
     RDKit          3D

 48 50  0  0  0  0  0  0  0  0999 V2000
   38.1170   23.3630   35.1530 C   0  0  0  0  0  0  0  0  0  0  0  0
   37.6340   22.2030   34.6210 C   0  0  0  0  0  0  0  0  0  0  0  0
   37.3310   22.0610   33.2880 C   0  0  0  0  0  0  0  0  0  0  0  0
   37.5170   23.1270   32.4400 C   0  0  0  0  0  0  0  0  0  0  0  0
   38.0020   24.2860   32.9870 C   0  0  0  0  0  0  0  0  0  0  0  0
   38.3320   24.4900   34.3540 C   0  0  0  0  0  0  0  0  0  0  0  0
   39.4460   22.7780   37.2580 C   0  0  0  0  0  0  0  0  0  0  0  0
   38.3710   23.3050   36.5730 C   0  0  0  0  0  0  0  0  0  0  0  0
   37.5540   23.7820   37.5270 N   0  0  0  0  0  0  0  0  0  0  0  0
   38.1150   23.5510   38.7250 C   0  0  0  0  0  0  0  0  0  0  0  0
   39.2730   22.9390   38.5940 N   0  0  0  0  0  0  0  0  0  0  0  0
   42.6420   20.9200   36.7750 C   0  0  0  0  0  0  0  0  0  0  0  0
   41.5560   21.5150   37.4180 C   0  0  0  0  0  0  0  0  0  0  0  0
   40.6000   22.1410   36.6260 C   0  0  0  0  0  0  0  0  0  0  0  0
   40.7810   22.1380   35.2440 N   0  0  0  0  0  0  0  0  0  0  0  0
   41.8450   21.5490   34.6870 C   0  0  0  0  0  0  0  0  0  0  0  0
   42.7690   20.9460   35.4260 N   0  0  0  0  0  0  0  0  0  0  0  0
   41.9880   21.5760   33.2050 C   0  0  0  0  0  0  0  0  0  0  0  0
   41.0220   20.5720   32.5600 C   0  0  0  0  0  0  0  0  0  0  0  0
   41.5810   22.9360   32.6730 C   0  0  0  0  0  0  0  0  0  0  0  0
   38.8390   25.7190   34.8880 C   0  0  0  0  0  0  0  0  0  0  0  0
   38.6270   26.7350   33.7380 C   0  0  0  0  0  0  0  0  0  0  0  0
   38.3390   26.3740   36.0740 C   0  0  0  0  0  0  0  0  0  0  0  0
   40.3530   25.5980   35.0220 C   0  0  0  0  0  0  0  0  0  0  0  0
   37.4802   21.3428   35.2891 H   0  0  0  0  0  0  0  0  0  0  0  0
   36.9442   21.1055   32.9041 H   0  0  0  0  0  0  0  0  0  0  0  0
   37.2861   23.0526   31.3671 H   0  0  0  0  0  0  0  0  0  0  0  0
   38.1494   25.1366   32.3053 H   0  0  0  0  0  0  0  0  0  0  0  0
   37.6663   23.8355   39.6882 H   0  0  0  0  0  0  0  0  0  0  0  0
   39.9122   22.6448   39.3462 H   0  0  0  0  0  0  0  0  0  0  0  0
   43.4134   20.4179   37.3774 H   0  0  0  0  0  0  0  0  0  0  0  0
   41.4595   21.4897   38.5135 H   0  0  0  0  0  0  0  0  0  0  0  0
   43.0358   21.3387   32.9686 H   0  0  0  0  0  0  0  0  0  0  0  0
   40.4892   20.0183   33.3471 H   0  0  0  0  0  0  0  0  0  0  0  0
   40.2951   21.1119   31.9354 H   0  0  0  0  0  0  0  0  0  0  0  0
   41.5896   19.8665   31.9354 H   0  0  0  0  0  0  0  0  0  0  0  0
   41.3782   23.6136   33.5155 H   0  0  0  0  0  0  0  0  0  0  0  0
   42.3952   23.3481   32.0588 H   0  0  0  0  0  0  0  0  0  0  0  0
   40.6743   22.8331   32.0588 H   0  0  0  0  0  0  0  0  0  0  0  0
   38.4196   27.7292   34.1606 H   0  0  0  0  0  0  0  0  0  0  0  0
   39.5347   26.7821   33.1184 H   0  0  0  0  0  0  0  0  0  0  0  0
   37.7762   26.4152   33.1184 H   0  0  0  0  0  0  0  0  0  0  0  0
   38.7288   25.8633   36.9669 H   0  0  0  0  0  0  0  0  0  0  0  0
   38.6676   27.4238   36.0792 H   0  0  0  0  0  0  0  0  0  0  0  0
   37.2397   26.3338   36.0792 H   0  0  0  0  0  0  0  0  0  0  0  0
   40.6262   25.5762   36.0873 H   0  0  0  0  0  0  0  0  0  0  0  0
   40.6910   24.6700   34.5377 H   0  0  0  0  0  0  0  0  0  0  0  0
   40.8341   26.4606   34.5377 H   0  0  0  0  0  0  0  0  0  0  0  0
  1  8  1  0
  2  1  2  0
  3  2  1  0
  4  5  1  0
  4  3  2  0
  5  6  2  0
  6 21  1  0
  6  1  1  0
  7 11  1  0
  8  7  2  0
  8  9  1  0
  9 10  2  0
 11 10  1  0
 12 13  2  0
 14  7  1  0
 14 13  1  0
 15 14  2  0
 16 15  1  0
 16 17  2  0
 17 12  1  0
 18 16  1  0
 19 18  1  0
 20 18  1  0
 21 24  1  0
 21 23  1  0
 22 21  1  0
  2 25  1  0
  3 26  1  0
  4 27  1  0
  5 28  1  0
 10 29  1  0
 11 30  1  0
 12 31  1  0
 13 32  1  0
 18 33  1  0
 19 34  1  0
 19 35  1  0
 19 36  1  0
 20 37  1  0
 20 38  1  0
 20 39  1  0
 22 40  1  0
 22 41  1  0
 22 42  1  0
 23 43  1  0
 23 44  1  0
 23 45  1  0
 24 46  1  0
 24 47  1  0
 24 48  1  0
M  ISO  8  25  14  26  14  27  14  28  14  29  14  30   9  31  14  32  14
M  ISO  8  33   8  34   8  35   8  36   8  37   8  38   8  39   8  40   8
M  ISO  8  41   8  42   8  43   8  44   8  45   8  46   8  47   8  48   8
M  END
>  <minimizedAffinity>  (1) 
-5.42960644

>  <minimizedRMSD>  (1) 
0.233991563

$$$$
