
     RDKit          3D

 42 44  0  0  0  0  0  0  0  0999 V2000
   38.1230   23.3610   35.1990 C   0  0  0  0  0  0  0  0  0  0  0  0
   37.6460   22.1920   34.6890 C   0  0  0  0  0  0  0  0  0  0  0  0
   37.3670   22.0180   33.3570 C   0  0  0  0  0  0  0  0  0  0  0  0
   37.5740   23.0610   32.4840 C   0  0  0  0  0  0  0  0  0  0  0  0
   38.0540   24.2310   33.0100 C   0  0  0  0  0  0  0  0  0  0  0  0
   38.3610   24.4690   34.3770 C   0  0  0  0  0  0  0  0  0  0  0  0
   39.4100   22.8260   37.3500 C   0  0  0  0  0  0  0  0  0  0  0  0
   38.3510   23.3390   36.6240 C   0  0  0  0  0  0  0  0  0  0  0  0
   37.5140   23.8490   37.5520 N   0  0  0  0  0  0  0  0  0  0  0  0
   38.0490   23.6500   38.7670 C   0  0  0  0  0  0  0  0  0  0  0  0
   39.2080   23.0260   38.6730 N   0  0  0  0  0  0  0  0  0  0  0  0
   42.5550   20.8690   36.9690 C   0  0  0  0  0  0  0  0  0  0  0  0
   41.4620   21.4850   37.5660 C   0  0  0  0  0  0  0  0  0  0  0  0
   40.5690   22.1670   36.7570 C   0  0  0  0  0  0  0  0  0  0  0  0
   40.8170   22.1960   35.3990 N   0  0  0  0  0  0  0  0  0  0  0  0
   41.8890   21.5830   34.8680 C   0  0  0  0  0  0  0  0  0  0  0  0
   42.7520   20.9270   35.6330 N   0  0  0  0  0  0  0  0  0  0  0  0
   42.1080   21.6430   33.4270 C   0  0  0  0  0  0  0  0  0  0  0  0
   43.1950   21.2810   32.9050 O   0  0  0  0  0  0  0  0  0  0  0  0
   41.1430   22.0980   32.5390 O   0  0  0  0  0  0  0  0  0  0  0  0
   38.8620   25.7080   34.8890 C   0  0  0  0  0  0  0  0  0  0  0  0
   38.6410   26.7010   33.7210 C   0  0  0  0  0  0  0  0  0  0  0  0
   38.3690   26.3850   36.0670 C   0  0  0  0  0  0  0  0  0  0  0  0
   40.3780   25.5980   35.0240 C   0  0  0  0  0  0  0  0  0  0  0  0
   37.4768   21.3495   35.3757 H   0  0  0  0  0  0  0  0  0  0  0  0
   36.9819   21.0548   32.9909 H   0  0  0  0  0  0  0  0  0  0  0  0
   37.3630   22.9596   31.4092 H   0  0  0  0  0  0  0  0  0  0  0  0
   38.2169   25.0634   32.3096 H   0  0  0  0  0  0  0  0  0  0  0  0
   37.5842   23.9645   39.7130 H   0  0  0  0  0  0  0  0  0  0  0  0
   39.8297   22.7488   39.4460 H   0  0  0  0  0  0  0  0  0  0  0  0
   43.2748   20.3229   37.5965 H   0  0  0  0  0  0  0  0  0  0  0  0
   41.3099   21.4322   38.6542 H   0  0  0  0  0  0  0  0  0  0  0  0
   41.3354   22.1214   31.5682 H   0  0  0  0  0  0  0  0  0  0  0  0
   38.4188   27.6994   34.1257 H   0  0  0  0  0  0  0  0  0  0  0  0
   39.5503   26.7495   33.1039 H   0  0  0  0  0  0  0  0  0  0  0  0
   37.7969   26.3593   33.1039 H   0  0  0  0  0  0  0  0  0  0  0  0
   38.7415   25.8735   36.9668 H   0  0  0  0  0  0  0  0  0  0  0  0
   38.7212   27.4271   36.0654 H   0  0  0  0  0  0  0  0  0  0  0  0
   37.2691   26.3697   36.0654 H   0  0  0  0  0  0  0  0  0  0  0  0
   40.6508   25.5782   36.0895 H   0  0  0  0  0  0  0  0  0  0  0  0
   40.7230   24.6725   34.5399 H   0  0  0  0  0  0  0  0  0  0  0  0
   40.8530   26.4640   34.5399 H   0  0  0  0  0  0  0  0  0  0  0  0
  1  8  1  0
  2  1  2  0
  3  2  1  0
  4  5  1  0
  4  3  2  0
  5  6  2  0
  6 21  1  0
  6  1  1  0
  7 11  1  0
  8  7  2  0
  8  9  1  0
  9 10  2  0
 11 10  1  0
 12 13  2  0
 14  7  1  0
 14 13  1  0
 15 14  2  0
 16 15  1  0
 16 17  2  0
 17 12  1  0
 18 16  1  0
 19 18  2  0
 20 18  1  0
 21 24  1  0
 21 23  1  0
 22 21  1  0
  2 25  1  0
  3 26  1  0
  4 27  1  0
  5 28  1  0
 10 29  1  0
 11 30  1  0
 12 31  1  0
 13 32  1  0
 20 33  1  0
 22 34  1  0
 22 35  1  0
 22 36  1  0
 23 37  1  0
 23 38  1  0
 23 39  1  0
 24 40  1  0
 24 41  1  0
 24 42  1  0
M  ISO  8  25  14  26  14  27  14  28  14  29  14  30   9  31  14  32  14
M  ISO  8  33   3  34   8  35   8  36   8  37   8  38   8  39   8  40   8
M  ISO  2  41   8  42   8
M  END
>  <minimizedAffinity>  (1) 
-5.40848303

>  <minimizedRMSD>  (1) 
0.490371943

$$$$
