
     RDKit          3D

 52 55  0  0  0  0  0  0  0  0999 V2000
   39.5070   22.6940   37.3150 C   0  0  0  0  0  0  0  0  0  0  0  0
   38.3820   23.1670   36.6740 C   0  0  0  0  0  0  0  0  0  0  0  0
   37.5930   23.6430   37.6630 N   0  0  0  0  0  0  0  0  0  0  0  0
   38.2230   23.4590   38.8360 C   0  0  0  0  0  0  0  0  0  0  0  0
   39.3920   22.8840   38.6610 N   0  0  0  0  0  0  0  0  0  0  0  0
   38.0510   23.1830   35.2650 C   0  0  0  0  0  0  0  0  0  0  0  0
   37.5490   22.0050   34.8030 C   0  0  0  0  0  0  0  0  0  0  0  0
   37.1760   21.8310   33.4910 C   0  0  0  0  0  0  0  0  0  0  0  0
   37.3070   22.8700   32.6020 C   0  0  0  0  0  0  0  0  0  0  0  0
   37.8200   24.0510   33.0980 C   0  0  0  0  0  0  0  0  0  0  0  0
   38.2170   24.2890   34.4240 C   0  0  0  0  0  0  0  0  0  0  0  0
   38.7500   25.5270   34.9080 C   0  0  0  0  0  0  0  0  0  0  0  0
   38.4850   26.5150   33.7410 C   0  0  0  0  0  0  0  0  0  0  0  0
   38.3180   26.2210   36.0990 C   0  0  0  0  0  0  0  0  0  0  0  0
   40.2700   25.4160   34.9480 C   0  0  0  0  0  0  0  0  0  0  0  0
   42.6930   20.8750   36.7180 C   0  0  0  0  0  0  0  0  0  0  0  0
   41.6270   21.4450   37.3910 C   0  0  0  0  0  0  0  0  0  0  0  0
   40.6420   22.0850   36.6370 C   0  0  0  0  0  0  0  0  0  0  0  0
   40.7910   22.1110   35.2690 N   0  0  0  0  0  0  0  0  0  0  0  0
   41.8460   21.5440   34.6620 C   0  0  0  0  0  0  0  0  0  0  0  0
   42.7920   20.9280   35.3830 N   0  0  0  0  0  0  0  0  0  0  0  0
   42.3080   21.6230   30.4650 C   0  0  0  0  0  0  0  0  0  0  0  0
   43.3070   21.0130   31.2110 C   0  0  0  0  0  0  0  0  0  0  0  0
   43.1020   21.0190   32.5670 C   0  0  0  0  0  0  0  0  0  0  0  0
   42.0110   21.5690   33.2090 C   0  0  0  0  0  0  0  0  0  0  0  0
   41.0570   22.1590   32.3890 C   0  0  0  0  0  0  0  0  0  0  0  0
   41.1830   22.1980   31.0160 C   0  0  0  0  0  0  0  0  0  0  0  0
   42.4470   21.6840   28.7280 S   0  0  0  0  0  0  0  0  0  0  0  0
   41.2910   20.8720   28.1740 O   0  0  0  0  0  0  0  0  0  0  0  0
   42.3370   23.0480   28.1640 O   0  0  0  0  0  0  0  0  0  0  0  0
   37.8139   23.7513   39.8143 H   0  0  0  0  0  0  0  0  0  0  0  0
   40.0770   22.6303   39.3872 H   0  0  0  0  0  0  0  0  0  0  0  0
   37.4380   21.1638   35.5030 H   0  0  0  0  0  0  0  0  0  0  0  0
   36.7743   20.8638   33.1547 H   0  0  0  0  0  0  0  0  0  0  0  0
   37.0170   22.7656   31.5461 H   0  0  0  0  0  0  0  0  0  0  0  0
   37.9282   24.8844   32.3882 H   0  0  0  0  0  0  0  0  0  0  0  0
   38.2203   27.5017   34.1489 H   0  0  0  0  0  0  0  0  0  0  0  0
   39.3909   26.6045   33.1235 H   0  0  0  0  0  0  0  0  0  0  0  0
   37.6559   26.1391   33.1235 H   0  0  0  0  0  0  0  0  0  0  0  0
   38.6602   25.6712   36.9882 H   0  0  0  0  0  0  0  0  0  0  0  0
   38.7449   27.2347   36.1079 H   0  0  0  0  0  0  0  0  0  0  0  0
   37.2199   26.2855   36.1079 H   0  0  0  0  0  0  0  0  0  0  0  0
   40.6084   25.3913   35.9944 H   0  0  0  0  0  0  0  0  0  0  0  0
   40.5837   24.4926   34.4393 H   0  0  0  0  0  0  0  0  0  0  0  0
   40.7146   26.2841   34.4393 H   0  0  0  0  0  0  0  0  0  0  0  0
   43.4795   20.3652   37.2938 H   0  0  0  0  0  0  0  0  0  0  0  0
   41.5578   21.3953   38.4877 H   0  0  0  0  0  0  0  0  0  0  0  0
   44.1962   20.5589   30.7493 H   0  0  0  0  0  0  0  0  0  0  0  0
   43.8711   20.5461   33.1953 H   0  0  0  0  0  0  0  0  0  0  0  0
   40.1680   22.6119   32.8521 H   0  0  0  0  0  0  0  0  0  0  0  0
   40.4153   22.6698   30.3851 H   0  0  0  0  0  0  0  0  0  0  0  0
   43.6864   21.2084   28.3896 H   0  0  0  0  0  0  0  0  0  0  0  0
  1  5  1  0
  2  1  2  0
  2  3  1  0
  3  4  2  0
  5  4  1  0
  6  2  1  0
  7  6  2  0
  8  7  1  0
  9 10  1  0
  9  8  2  0
 10 11  2  0
 11 12  1  0
 11  6  1  0
 12 15  1  0
 12 14  1  0
 13 12  1  0
 16 17  2  0
 18  1  1  0
 18 17  1  0
 19 18  2  0
 20 19  1  0
 20 21  2  0
 21 16  1  0
 22 27  2  0
 22 23  1  0
 23 24  2  0
 24 25  1  0
 25 20  1  0
 26 25  2  0
 27 26  1  0
 28 22  1  0
 29 28  2  0
 30 28  2  0
  4 31  1  0
  5 32  1  0
  7 33  1  0
  8 34  1  0
  9 35  1  0
 10 36  1  0
 13 37  1  0
 13 38  1  0
 13 39  1  0
 14 40  1  0
 14 41  1  0
 14 42  1  0
 15 43  1  0
 15 44  1  0
 15 45  1  0
 16 46  1  0
 17 47  1  0
 23 48  1  0
 24 49  1  0
 26 50  1  0
 27 51  1  0
 28 52  1  0
M  ISO  8  31  14  32   9  33  14  34  14  35  14  36  14  37   8  38   8
M  ISO  8  39   8  40   8  41   8  42   8  43   8  44   8  45   8  46  14
M  ISO  6  47  14  48  14  49  14  50  14  51  14  52  11
M  END
>  <minimizedAffinity>  (1) 
-5.26318264

>  <minimizedRMSD>  (1) 
0.643236935

$$$$
