
     RDKit          3D

 32 35  0  0  1  0  0  0  0  0999 V2000
   37.8300   26.2940   36.2890 C   0  0  1  0  0  0  0  0  0  0  0  0
   38.5400   27.3780   35.5430 C   0  0  0  0  0  0  0  0  0  0  0  0
   37.3610   26.7020   34.9600 C   0  0  1  0  0  0  0  0  0  0  0  0
   37.5880   26.0570   33.7150 N   0  0  0  0  0  0  0  0  0  0  0  0
   37.7860   24.7390   33.4660 C   0  0  0  0  0  0  0  0  0  0  0  0
   38.0060   24.2100   32.2240 C   0  0  0  0  0  0  0  0  0  0  0  0
   38.0300   25.0560   31.1350 C   0  0  0  0  0  0  0  0  0  0  0  0
   38.2290   24.6160   29.9710 O   0  0  0  0  0  0  0  0  0  0  0  0
   37.8400   26.3900   31.2950 N   0  0  0  0  0  0  0  0  0  0  0  0
   37.6310   26.8150   32.5630 C   0  0  0  0  0  0  0  0  0  0  0  0
   37.4530   28.0730   32.7010 O   0  0  0  0  0  0  0  0  0  0  0  0
   37.8490   27.3280   30.2250 C   0  0  0  0  0  0  0  0  0  0  0  0
   36.9780   28.3010   29.8500 N   0  0  0  0  0  0  0  0  0  0  0  0
   37.4240   28.9080   28.7900 O   0  0  0  0  0  0  0  0  0  0  0  0
   38.5690   28.3650   28.4450 C   0  0  0  0  0  0  0  0  0  0  0  0
   38.8660   27.3770   29.3170 N   0  0  0  0  0  0  0  0  0  0  0  0
   38.5150   25.0080   36.5790 C   0  0  0  0  0  0  0  0  0  0  0  0
   38.0200   24.2810   37.6580 C   0  0  0  0  0  0  0  0  0  0  0  0
   38.6340   23.0720   37.9750 C   0  0  0  0  0  0  0  0  0  0  0  0
   39.6930   22.6730   37.2000 N   0  0  0  0  0  0  0  0  0  0  0  0
   40.1300   23.4190   36.1680 C   0  0  0  0  0  0  0  0  0  0  0  0
   39.5550   24.5790   35.8480 N   0  0  0  0  0  0  0  0  0  0  0  0
   37.3332   26.1832   37.2641 H   0  0  0  0  0  0  0  0  0  0  0  0
   38.4666   28.4217   35.8825 H   0  0  0  0  0  0  0  0  0  0  0  0
   39.5768   27.5586   35.2229 H   0  0  0  0  0  0  0  0  0  0  0  0
   36.3381   26.9224   34.6207 H   0  0  0  0  0  0  0  0  0  0  0  0
   37.7685   24.0477   34.3215 H   0  0  0  0  0  0  0  0  0  0  0  0
   38.1611   23.1285   32.0959 H   0  0  0  0  0  0  0  0  0  0  0  0
   39.1860   28.6659   27.5855 H   0  0  0  0  0  0  0  0  0  0  0  0
   37.1665   24.6517   38.2446 H   0  0  0  0  0  0  0  0  0  0  0  0
   38.2820   22.4585   38.8174 H   0  0  0  0  0  0  0  0  0  0  0  0
   40.9838   23.0624   35.5731 H   0  0  0  0  0  0  0  0  0  0  0  0
  1 17  1  0
  2  1  1  0
  3  2  1  0
  3  1  1  0
  4  3  1  0
  5  4  1  0
  6  5  2  0
  7  9  1  0
  7  6  1  0
  8  7  2  0
  9 10  1  0
 10 11  2  0
 10  4  1  0
 12  9  1  0
 13 12  2  0
 14 13  1  0
 15 14  1  0
 15 16  2  0
 16 12  1  0
 17 18  2  0
 18 19  1  0
 20 19  2  0
 21 20  1  0
 22 21  2  0
 22 17  1  0
  1 23  1  1
  2 24  1  0
  2 25  1  0
  3 26  1  1
  5 27  1  0
  6 28  1  0
 15 29  1  0
 18 30  1  0
 19 31  1  0
 21 32  1  0
M  ISO  8  23  13  24  13  25  13  26  13  27  14  28  14  29  14  30  14
M  ISO  2  31  14  32  14
M  END
>  <minimizedAffinity>  (1) 
-5.17571449

>  <minimizedRMSD>  (1) 
0.986504674

$$$$
