
     RDKit          3D

 41 45  0  0  1  0  0  0  0  0999 V2000
   38.1180   26.3290   32.7680 N   0  0  0  0  0  0  0  0  0  0  0  0
   39.0310   27.1370   32.1720 C   0  0  0  0  0  0  0  0  0  0  0  0
   40.3590   27.1580   32.4510 C   0  0  0  0  0  0  0  0  0  0  0  0
   40.8480   26.2910   33.4250 C   0  0  0  0  0  0  0  0  0  0  0  0
   42.0690   26.2620   33.7290 O   0  0  0  0  0  0  0  0  0  0  0  0
   40.0000   25.4510   34.0690 N   0  0  0  0  0  0  0  0  0  0  0  0
   38.6990   25.5140   33.7110 C   0  0  0  0  0  0  0  0  0  0  0  0
   37.9080   24.7180   34.3240 O   0  0  0  0  0  0  0  0  0  0  0  0
   40.4090   24.5330   35.0780 C   0  0  0  0  0  0  0  0  0  0  0  0
   41.6650   24.0050   34.9760 N   0  0  0  0  0  0  0  0  0  0  0  0
   42.1520   23.1400   35.8580 C   0  0  0  0  0  0  0  0  0  0  0  0
   41.4060   22.7410   36.9140 N   0  0  0  0  0  0  0  0  0  0  0  0
   40.1460   23.2310   37.0700 C   0  0  0  0  0  0  0  0  0  0  0  0
   39.3240   22.8710   38.1210 C   0  0  0  0  0  0  0  0  0  0  0  0
   38.0530   23.3900   38.2480 C   0  0  0  0  0  0  0  0  0  0  0  0
   37.5630   24.2890   37.3200 C   0  0  0  0  0  0  0  0  0  0  0  0
   38.3780   24.6580   36.2600 C   0  0  0  0  0  0  0  0  0  0  0  0
   39.6340   24.1430   36.1410 C   0  0  0  0  0  0  0  0  0  0  0  0
   35.9000   27.0490   31.6240 C   0  0  1  0  0  0  0  0  0  0  0  0
   36.3570   25.6920   31.1900 C   0  0  0  0  0  0  0  0  0  0  0  0
   36.7220   26.2390   32.5300 C   0  0  1  0  0  0  0  0  0  0  0  0
   36.3860   28.2610   30.9150 C   0  0  0  0  0  0  0  0  0  0  0  0
   36.2180   29.4720   31.5850 C   0  0  0  0  0  0  0  0  0  0  0  0
   36.6470   30.6420   30.9700 C   0  0  0  0  0  0  0  0  0  0  0  0
   37.2150   30.5280   29.7260 N   0  0  0  0  0  0  0  0  0  0  0  0
   37.3520   29.3320   29.1230 C   0  0  0  0  0  0  0  0  0  0  0  0
   36.9460   28.1990   29.6970 N   0  0  0  0  0  0  0  0  0  0  0  0
   38.6652   27.8308   31.4007 H   0  0  0  0  0  0  0  0  0  0  0  0
   41.0343   27.8447   31.9195 H   0  0  0  0  0  0  0  0  0  0  0  0
   43.1703   22.7445   35.7291 H   0  0  0  0  0  0  0  0  0  0  0  0
   39.6913   22.1557   38.8716 H   0  0  0  0  0  0  0  0  0  0  0  0
   37.4227   23.0854   39.0965 H   0  0  0  0  0  0  0  0  0  0  0  0
   36.5488   24.7030   37.4197 H   0  0  0  0  0  0  0  0  0  0  0  0
   38.0076   25.3719   35.5096 H   0  0  0  0  0  0  0  0  0  0  0  0
   34.9377   27.5680   31.7448 H   0  0  0  0  0  0  0  0  0  0  0  0
   35.6359   24.8655   31.1075 H   0  0  0  0  0  0  0  0  0  0  0  0
   36.9110   25.2884   30.3296 H   0  0  0  0  0  0  0  0  0  0  0  0
   36.5795   26.0408   33.6026 H   0  0  0  0  0  0  0  0  0  0  0  0
   35.7544   29.5008   32.5821 H   0  0  0  0  0  0  0  0  0  0  0  0
   36.5357   31.6202   31.4607 H   0  0  0  0  0  0  0  0  0  0  0  0
   37.8134   29.2882   28.1254 H   0  0  0  0  0  0  0  0  0  0  0  0
  1  7  1  0
  2  3  2  0
  2  1  1  0
  3  4  1  0
  4  5  2  0
  4  6  1  0
  6  9  1  0
  7  6  1  0
  7  8  2  0
  9 18  1  0
 10  9  2  0
 10 11  1  0
 11 12  2  0
 12 13  1  0
 13 14  2  0
 14 15  1  0
 16 15  2  0
 17 16  1  0
 18 17  2  0
 18 13  1  0
 19 21  1  0
 20 19  1  0
 20 21  1  0
 21  1  1  0
 22 23  2  0
 22 19  1  0
 24 23  1  0
 25 24  2  0
 26 27  2  0
 26 25  1  0
 27 22  1  0
  2 28  1  0
  3 29  1  0
 11 30  1  0
 14 31  1  0
 15 32  1  0
 16 33  1  0
 17 34  1  0
 19 35  1  1
 20 36  1  0
 20 37  1  0
 21 38  1  1
 23 39  1  0
 24 40  1  0
 26 41  1  0
M  ISO  8  28  14  29  14  30  14  31  14  32  14  33  14  34  14  35  13
M  ISO  6  36  13  37  13  38  13  39  14  40  14  41  14
M  END
>  <minimizedAffinity>  (1) 
-6.14480972

>  <minimizedRMSD>  (1) 
7.62679148

$$$$
