
     RDKit          3D

 23 23  0  0  0  0  0  0  0  0999 V2000
   38.4040   23.5950   37.2230 C   0  0  0  0  0  0  0  0  0  0  0  0
   41.4860   21.6030   36.3450 C   0  0  0  0  0  0  0  0  0  0  0  0
   40.4600   22.1480   37.1300 C   0  0  0  0  0  0  0  0  0  0  0  0
   39.5110   22.9820   36.4920 C   0  0  0  0  0  0  0  0  0  0  0  0
   39.6350   23.2230   35.1450 N   0  0  0  0  0  0  0  0  0  0  0  0
   40.6480   22.6670   34.4520 C   0  0  0  0  0  0  0  0  0  0  0  0
   41.5720   21.8640   35.0300 N   0  0  0  0  0  0  0  0  0  0  0  0
   42.6190   20.5690   37.2550 S   0  0  0  0  0  0  0  0  0  0  0  0
   38.7360   23.5240   38.7060 C   0  0  0  0  0  0  0  0  0  0  0  0
   38.0930   25.0000   36.8070 C   0  0  0  0  0  0  0  0  0  0  0  0
   37.1400   22.7730   36.9670 C   0  0  0  0  0  0  0  0  0  0  0  0
   40.3947   21.9343   38.2071 H   0  0  0  0  0  0  0  0  0  0  0  0
   40.7273   22.8737   33.3745 H   0  0  0  0  0  0  0  0  0  0  0  0
   42.4223   20.7485   38.5989 H   0  0  0  0  0  0  0  0  0  0  0  0
   37.8274   23.7183   39.2949 H   0  0  0  0  0  0  0  0  0  0  0  0
   39.1225   22.5229   38.9477 H   0  0  0  0  0  0  0  0  0  0  0  0
   39.4981   24.2795   38.9477 H   0  0  0  0  0  0  0  0  0  0  0  0
   37.9546   25.6251   37.7015 H   0  0  0  0  0  0  0  0  0  0  0  0
   38.9249   25.3974   36.2070 H   0  0  0  0  0  0  0  0  0  0  0  0
   37.1711   25.0092   36.2070 H   0  0  0  0  0  0  0  0  0  0  0  0
   36.6914   22.4813   37.9281 H   0  0  0  0  0  0  0  0  0  0  0  0
   36.4201   23.3762   36.3944 H   0  0  0  0  0  0  0  0  0  0  0  0
   37.3994   21.8703   36.3944 H   0  0  0  0  0  0  0  0  0  0  0  0
  1  9  1  0
  2  3  2  0
  2  8  1  0
  4  3  1  0
  4  1  1  0
  5  4  2  0
  6  7  2  0
  6  5  1  0
  7  2  1  0
 10  1  1  0
 11  1  1  0
  3 12  1  0
  6 13  1  0
  8 14  1  0
  9 15  1  0
  9 16  1  0
  9 17  1  0
 10 18  1  0
 10 19  1  0
 10 20  1  0
 11 21  1  0
 11 22  1  0
 11 23  1  0
M  ISO  8  12  14  13  14  14  11  15   8  16   8  17   8  18   8  19   8
M  ISO  4  20   8  21   8  22   8  23   8
M  END
>  <minimizedAffinity>  (1) 
-3.25450778

>  <minimizedRMSD>  (1) 
0.580976903

$$$$
