
     RDKit          3D

 43 47  0  0  1  0  0  0  0  0999 V2000
   37.3040   26.9790   34.3670 N   0  0  0  0  0  0  0  0  0  0  0  0
   37.4020   25.9080   33.5410 C   0  0  0  0  0  0  0  0  0  0  0  0
   36.7920   25.7920   32.3330 C   0  0  0  0  0  0  0  0  0  0  0  0
   35.9950   26.8430   31.8870 C   0  0  0  0  0  0  0  0  0  0  0  0
   35.4000   26.8010   30.7760 O   0  0  0  0  0  0  0  0  0  0  0  0
   35.8440   27.9510   32.6560 N   0  0  0  0  0  0  0  0  0  0  0  0
   36.4980   27.9590   33.8380 C   0  0  0  0  0  0  0  0  0  0  0  0
   36.3470   29.0090   34.5520 O   0  0  0  0  0  0  0  0  0  0  0  0
   35.0490   29.0700   32.2800 C   0  0  0  0  0  0  0  0  0  0  0  0
   33.7650   28.9990   32.7830 C   0  0  0  0  0  0  0  0  0  0  0  0
   32.8460   29.9980   32.5240 C   0  0  0  0  0  0  0  0  0  0  0  0
   33.2250   31.0850   31.7430 C   0  0  0  0  0  0  0  0  0  0  0  0
   34.5080   31.1530   31.2410 C   0  0  0  0  0  0  0  0  0  0  0  0
   34.9510   32.1960   30.4640 C   0  0  0  0  0  0  0  0  0  0  0  0
   36.2440   32.2300   29.9790 C   0  0  0  0  0  0  0  0  0  0  0  0
   37.1310   31.1970   30.2700 C   0  0  0  0  0  0  0  0  0  0  0  0
   36.7280   30.1180   31.0550 C   0  0  0  0  0  0  0  0  0  0  0  0
   35.4270   30.1550   31.5010 C   0  0  0  0  0  0  0  0  0  0  0  0
   38.5290   26.1890   36.5170 C   0  0  1  0  0  0  0  0  0  0  0  0
   39.3810   27.0720   35.6580 C   0  0  0  0  0  0  0  0  0  0  0  0
   37.9110   27.1830   35.6330 C   0  0  1  0  0  0  0  0  0  0  0  0
   38.4940   24.7210   36.2820 C   0  0  0  0  0  0  0  0  0  0  0  0
   37.4080   24.0460   36.8370 C   0  0  0  0  0  0  0  0  0  0  0  0
   37.3350   22.6640   36.6480 C   0  0  0  0  0  0  0  0  0  0  0  0
   38.3330   22.0620   35.9300 N   0  0  0  0  0  0  0  0  0  0  0  0
   39.3560   22.7700   35.4190 C   0  0  0  0  0  0  0  0  0  0  0  0
   39.4520   24.0900   35.5840 N   0  0  0  0  0  0  0  0  0  0  0  0
   38.0253   25.0659   33.8761 H   0  0  0  0  0  0  0  0  0  0  0  0
   36.9247   24.8879   31.7207 H   0  0  0  0  0  0  0  0  0  0  0  0
   33.4698   28.1360   33.3979 H   0  0  0  0  0  0  0  0  0  0  0  0
   31.8260   29.9344   32.9309 H   0  0  0  0  0  0  0  0  0  0  0  0
   32.5043   31.8873   31.5266 H   0  0  0  0  0  0  0  0  0  0  0  0
   34.2628   33.0198   30.2235 H   0  0  0  0  0  0  0  0  0  0  0  0
   36.5744   33.0772   29.3600 H   0  0  0  0  0  0  0  0  0  0  0  0
   38.1579   31.2327   29.8773 H   0  0  0  0  0  0  0  0  0  0  0  0
   37.4074   29.2890   31.3024 H   0  0  0  0  0  0  0  0  0  0  0  0
   38.4294   25.9640   37.5891 H   0  0  0  0  0  0  0  0  0  0  0  0
   39.9874   27.8681   36.1146 H   0  0  0  0  0  0  0  0  0  0  0  0
   40.1668   26.9097   34.9055 H   0  0  0  0  0  0  0  0  0  0  0  0
   37.1120   27.9064   35.8530 H   0  0  0  0  0  0  0  0  0  0  0  0
   36.6344   24.5837   37.4048 H   0  0  0  0  0  0  0  0  0  0  0  0
   36.5018   22.0779   37.0630 H   0  0  0  0  0  0  0  0  0  0  0  0
   40.1363   22.2451   34.8483 H   0  0  0  0  0  0  0  0  0  0  0  0
  1 21  1  0
  2  1  1  0
  3  2  2  0
  4  3  1  0
  4  6  1  0
  5  4  2  0
  6  7  1  0
  7  1  1  0
  7  8  2  0
  9  6  1  0
  9 10  2  0
 11 10  1  0
 12 11  2  0
 13 18  2  0
 13 12  1  0
 14 13  1  0
 15 16  1  0
 15 14  2  0
 16 17  2  0
 17 18  1  0
 18  9  1  0
 20 19  1  0
 21 20  1  0
 21 19  1  0
 22 19  1  0
 22 23  2  0
 24 23  1  0
 25 24  2  0
 26 27  2  0
 26 25  1  0
 27 22  1  0
  2 28  1  0
  3 29  1  0
 10 30  1  0
 11 31  1  0
 12 32  1  0
 14 33  1  0
 15 34  1  0
 16 35  1  0
 17 36  1  0
 19 37  1  1
 20 38  1  0
 20 39  1  0
 21 40  1  1
 23 41  1  0
 24 42  1  0
 26 43  1  0
M  ISO  8  28  14  29  14  30  14  31  14  32  14  33  14  34  14  35  14
M  ISO  8  36  14  37  13  38  13  39  13  40  13  41  14  42  14  43  14
M  END
>  <minimizedAffinity>  (1) 
-5.79788828

>  <minimizedRMSD>  (1) 
4.2282691

$$$$
