
     RDKit          3D

 34 37  0  0  1  0  0  0  0  0999 V2000
   37.8710   26.2920   36.1940 C   0  0  1  0  0  0  0  0  0  0  0  0
   38.5990   27.3390   35.4120 C   0  0  0  0  0  0  0  0  0  0  0  0
   37.3840   26.6690   34.8620 C   0  0  1  0  0  0  0  0  0  0  0  0
   37.5880   25.9880   33.6310 N   0  0  0  0  0  0  0  0  0  0  0  0
   37.6150   24.6520   33.3980 C   0  0  0  0  0  0  0  0  0  0  0  0
   37.8260   24.0830   32.1790 C   0  0  0  0  0  0  0  0  0  0  0  0
   38.0310   24.9140   31.0780 C   0  0  0  0  0  0  0  0  0  0  0  0
   38.2320   24.4400   29.9430 O   0  0  0  0  0  0  0  0  0  0  0  0
   38.0170   26.2640   31.2310 N   0  0  0  0  0  0  0  0  0  0  0  0
   37.7970   26.7080   32.4950 C   0  0  0  0  0  0  0  0  0  0  0  0
   37.7900   27.9850   32.6210 O   0  0  0  0  0  0  0  0  0  0  0  0
   38.2140   27.1830   30.1640 C   0  0  0  0  0  0  0  0  0  0  0  0
   39.3500   27.5330   29.4610 C   0  0  0  0  0  0  0  0  0  0  0  0
   38.9880   28.4640   28.5370 N   0  0  0  0  0  0  0  0  0  0  0  0
   37.6640   28.6510   28.7010 C   0  0  0  0  0  0  0  0  0  0  0  0
   37.1610   27.8780   29.6920 N   0  0  0  0  0  0  0  0  0  0  0  0
   38.5420   25.0040   36.5090 C   0  0  0  0  0  0  0  0  0  0  0  0
   38.0390   24.2990   37.6010 C   0  0  0  0  0  0  0  0  0  0  0  0
   38.6270   23.0920   37.9480 C   0  0  0  0  0  0  0  0  0  0  0  0
   39.6850   22.6540   37.1870 N   0  0  0  0  0  0  0  0  0  0  0  0
   40.1440   23.3800   36.1260 C   0  0  0  0  0  0  0  0  0  0  0  0
   39.5740   24.5410   35.7980 N   0  0  0  0  0  0  0  0  0  0  0  0
   37.3820   26.2193   37.1767 H   0  0  0  0  0  0  0  0  0  0  0  0
   38.5560   28.3928   35.7246 H   0  0  0  0  0  0  0  0  0  0  0  0
   39.6350   27.4866   35.0730 H   0  0  0  0  0  0  0  0  0  0  0  0
   36.3586   26.8973   34.5358 H   0  0  0  0  0  0  0  0  0  0  0  0
   37.4551   23.9806   34.2545 H   0  0  0  0  0  0  0  0  0  0  0  0
   37.8346   22.9890   32.0649 H   0  0  0  0  0  0  0  0  0  0  0  0
   40.3622   27.1325   29.6191 H   0  0  0  0  0  0  0  0  0  0  0  0
   37.0626   29.3494   28.1005 H   0  0  0  0  0  0  0  0  0  0  0  0
   36.1842   27.8313   30.0153 H   0  0  0  0  0  0  0  0  0  0  0  0
   37.1896   24.6935   38.1780 H   0  0  0  0  0  0  0  0  0  0  0  0
   38.2596   22.5051   38.8027 H   0  0  0  0  0  0  0  0  0  0  0  0
   40.9924   23.0041   35.5354 H   0  0  0  0  0  0  0  0  0  0  0  0
  1 17  1  0
  2  1  1  0
  3  2  1  0
  3  1  1  0
  4  3  1  0
  5  4  1  0
  6  5  2  0
  7  9  1  0
  7  6  1  0
  8  7  2  0
  9 10  1  0
 10 11  2  0
 10  4  1  0
 12  9  1  0
 13 12  2  0
 14 15  2  0
 14 13  1  0
 15 16  1  0
 16 12  1  0
 17 18  2  0
 18 19  1  0
 20 19  2  0
 21 20  1  0
 22 21  2  0
 22 17  1  0
  1 23  1  1
  2 24  1  0
  2 25  1  0
  3 26  1  1
  5 27  1  0
  6 28  1  0
 13 29  1  0
 15 30  1  0
 16 31  1  0
 18 32  1  0
 19 33  1  0
 21 34  1  0
M  ISO  8  23  13  24  13  25  13  26  13  27  14  28  14  29  14  30  14
M  ISO  4  31   9  32  14  33  14  34  14
M  END
>  <minimizedAffinity>  (1) 
-5.02193689

>  <minimizedRMSD>  (1) 
0.935513616

$$$$
