
     RDKit          3D

 37 40  0  0  1  0  0  0  0  0999 V2000
   37.5560   25.9720   33.6190 N   0  0  0  0  0  0  0  0  0  0  0  0
   37.4540   24.6480   33.3380 C   0  0  0  0  0  0  0  0  0  0  0  0
   37.6780   24.0830   32.1250 C   0  0  0  0  0  0  0  0  0  0  0  0
   38.0430   24.9080   31.0650 C   0  0  0  0  0  0  0  0  0  0  0  0
   38.2660   24.4510   29.9130 O   0  0  0  0  0  0  0  0  0  0  0  0
   38.1650   26.2460   31.2600 N   0  0  0  0  0  0  0  0  0  0  0  0
   37.9200   26.6980   32.5100 C   0  0  0  0  0  0  0  0  0  0  0  0
   38.0390   27.9610   32.6850 O   0  0  0  0  0  0  0  0  0  0  0  0
   38.5320   27.1670   30.2390 C   0  0  0  0  0  0  0  0  0  0  0  0
   37.4190   27.8890   29.7940 C   0  0  0  0  0  0  0  0  0  0  0  0
   37.5170   28.8420   28.8080 C   0  0  0  0  0  0  0  0  0  0  0  0
   38.7560   29.0870   28.2450 C   0  0  0  0  0  0  0  0  0  0  0  0
   39.8560   28.3770   28.6800 C   0  0  0  0  0  0  0  0  0  0  0  0
   39.7530   27.4220   29.6700 C   0  0  0  0  0  0  0  0  0  0  0  0
   37.8490   26.2600   36.1830 C   0  0  1  0  0  0  0  0  0  0  0  0
   38.5550   27.3210   35.4010 C   0  0  0  0  0  0  0  0  0  0  0  0
   37.3480   26.6340   34.8560 C   0  0  1  0  0  0  0  0  0  0  0  0
   38.5370   24.9780   36.4870 C   0  0  0  0  0  0  0  0  0  0  0  0
   38.0540   24.2690   37.5860 C   0  0  0  0  0  0  0  0  0  0  0  0
   38.6580   23.0650   37.9250 C   0  0  0  0  0  0  0  0  0  0  0  0
   39.7010   22.6430   37.1470 N   0  0  0  0  0  0  0  0  0  0  0  0
   40.1320   23.3670   36.0900 C   0  0  0  0  0  0  0  0  0  0  0  0
   39.5640   24.5240   35.7530 N   0  0  0  0  0  0  0  0  0  0  0  0
   37.1660   23.9780   34.1615 H   0  0  0  0  0  0  0  0  0  0  0  0
   37.5735   22.9973   31.9824 H   0  0  0  0  0  0  0  0  0  0  0  0
   36.4367   27.6881   30.2465 H   0  0  0  0  0  0  0  0  0  0  0  0
   36.6285   29.3979   28.4740 H   0  0  0  0  0  0  0  0  0  0  0  0
   38.8640   29.8441   27.4544 H   0  0  0  0  0  0  0  0  0  0  0  0
   40.8381   28.5771   28.2268 H   0  0  0  0  0  0  0  0  0  0  0  0
   40.6444   26.8688   30.0007 H   0  0  0  0  0  0  0  0  0  0  0  0
   37.3701   26.1777   37.1699 H   0  0  0  0  0  0  0  0  0  0  0  0
   38.4971   28.3728   35.7179 H   0  0  0  0  0  0  0  0  0  0  0  0
   39.5864   27.4864   35.0563 H   0  0  0  0  0  0  0  0  0  0  0  0
   36.3153   26.8420   34.5393 H   0  0  0  0  0  0  0  0  0  0  0  0
   37.2092   24.6564   38.1744 H   0  0  0  0  0  0  0  0  0  0  0  0
   38.3112   22.4740   38.7855 H   0  0  0  0  0  0  0  0  0  0  0  0
   40.9748   22.9905   35.4917 H   0  0  0  0  0  0  0  0  0  0  0  0
  1 17  1  0
  2  1  1  0
  3  2  2  0
  4  6  1  0
  4  3  1  0
  5  4  2  0
  6  7  1  0
  7  8  2  0
  7  1  1  0
  9  6  1  0
 10  9  2  0
 11 10  1  0
 12 13  1  0
 12 11  2  0
 13 14  2  0
 14  9  1  0
 15 18  1  0
 16 15  1  0
 17 16  1  0
 17 15  1  0
 18 19  2  0
 19 20  1  0
 21 20  2  0
 22 21  1  0
 23 22  2  0
 23 18  1  0
  2 24  1  0
  3 25  1  0
 10 26  1  0
 11 27  1  0
 12 28  1  0
 13 29  1  0
 14 30  1  0
 15 31  1  1
 16 32  1  0
 16 33  1  0
 17 34  1  1
 19 35  1  0
 20 36  1  0
 22 37  1  0
M  ISO  8  24  14  25  14  26  14  27  14  28  14  29  14  30  14  31  13
M  ISO  6  32  13  33  13  34  13  35  14  36  14  37  14
M  END
>  <minimizedAffinity>  (1) 
-4.86797333

>  <minimizedRMSD>  (1) 
1.10234118

$$$$
