
     RDKit          3D

 39 42  0  0  1  0  0  0  0  0999 V2000
   37.9470   26.3160   36.2600 C   0  0  1  0  0  0  0  0  0  0  0  0
   38.6790   27.3000   35.4050 C   0  0  0  0  0  0  0  0  0  0  0  0
   37.4420   26.6610   34.9280 C   0  0  1  0  0  0  0  0  0  0  0  0
   37.5610   25.9190   33.7220 N   0  0  0  0  0  0  0  0  0  0  0  0
   37.5880   24.5730   33.5540 C   0  0  0  0  0  0  0  0  0  0  0  0
   37.7090   23.9390   32.3590 C   0  0  0  0  0  0  0  0  0  0  0  0
   37.8140   24.7090   31.2030 C   0  0  0  0  0  0  0  0  0  0  0  0
   37.9280   24.1740   30.0720 O   0  0  0  0  0  0  0  0  0  0  0  0
   37.7930   26.0620   31.2890 N   0  0  0  0  0  0  0  0  0  0  0  0
   37.6700   26.5860   32.5250 C   0  0  0  0  0  0  0  0  0  0  0  0
   37.6530   27.8620   32.5950 O   0  0  0  0  0  0  0  0  0  0  0  0
   36.7350   27.7400   29.9370 N   0  0  0  0  0  0  0  0  0  0  0  0
   37.1320   28.9680   29.3350 C   0  0  0  0  0  0  0  0  0  0  0  0
   38.6070   28.9470   29.1280 C   0  0  0  0  0  0  0  0  0  0  0  0
   39.0310   27.8550   30.1190 C   0  0  0  0  0  0  0  0  0  0  0  0
   37.8970   26.8920   30.1080 C   0  0  1  0  0  0  0  0  0  0  0  0
   38.5730   25.0140   36.6100 C   0  0  0  0  0  0  0  0  0  0  0  0
   38.0250   24.3530   37.7080 C   0  0  0  0  0  0  0  0  0  0  0  0
   38.5790   23.1280   38.0780 C   0  0  0  0  0  0  0  0  0  0  0  0
   39.6320   22.6500   37.3380 N   0  0  0  0  0  0  0  0  0  0  0  0
   40.1170   23.3370   36.2860 C   0  0  0  0  0  0  0  0  0  0  0  0
   39.6040   24.5100   35.9130 N   0  0  0  0  0  0  0  0  0  0  0  0
   37.4917   26.3018   37.2613 H   0  0  0  0  0  0  0  0  0  0  0  0
   38.6821   28.3674   35.6706 H   0  0  0  0  0  0  0  0  0  0  0  0
   39.7073   27.3945   35.0259 H   0  0  0  0  0  0  0  0  0  0  0  0
   36.4192   26.9217   34.6183 H   0  0  0  0  0  0  0  0  0  0  0  0
   37.5056   23.9471   34.4548 H   0  0  0  0  0  0  0  0  0  0  0  0
   37.7238   22.8404   32.3052 H   0  0  0  0  0  0  0  0  0  0  0  0
   36.0495   27.2661   29.3317 H   0  0  0  0  0  0  0  0  0  0  0  0
   36.6245   29.0858   28.3662 H   0  0  0  0  0  0  0  0  0  0  0  0
   36.8584   29.8098   29.9881 H   0  0  0  0  0  0  0  0  0  0  0  0
   38.8652   28.6753   28.0938 H   0  0  0  0  0  0  0  0  0  0  0  0
   39.0993   29.9176   29.2876 H   0  0  0  0  0  0  0  0  0  0  0  0
   39.9600   27.3675   29.7884 H   0  0  0  0  0  0  0  0  0  0  0  0
   39.2353   28.2539   31.1236 H   0  0  0  0  0  0  0  0  0  0  0  0
   38.0235   26.1460   29.3096 H   0  0  0  0  0  0  0  0  0  0  0  0
   37.1809   24.7847   38.2658 H   0  0  0  0  0  0  0  0  0  0  0  0
   38.1849   22.5627   38.9354 H   0  0  0  0  0  0  0  0  0  0  0  0
   40.9608   22.9183   35.7180 H   0  0  0  0  0  0  0  0  0  0  0  0
  1 17  1  0
  2  1  1  0
  3  2  1  0
  3  1  1  0
  4  3  1  0
  5  4  1  0
  6  5  2  0
  7  9  1  0
  7  6  1  0
  8  7  2  0
  9 10  1  0
 10 11  2  0
 10  4  1  0
 12 16  1  0
 13 12  1  0
 14 13  1  0
 14 15  1  0
 16 15  1  0
 16  9  1  0
 17 18  2  0
 18 19  1  0
 20 19  2  0
 21 20  1  0
 22 21  2  0
 22 17  1  0
  1 23  1  1
  2 24  1  0
  2 25  1  0
  3 26  1  1
  5 27  1  0
  6 28  1  0
 12 29  1  0
 13 30  1  0
 13 31  1  0
 14 32  1  0
 14 33  1  0
 15 34  1  0
 15 35  1  0
 16 36  1  6
 18 37  1  0
 19 38  1  0
 21 39  1  0
M  ISO  8  23  13  24  13  25  13  26  13  27  14  28  14  29   5  30  13
M  ISO  8  31  13  32  13  33  13  34  13  35  13  36  13  37  14  38  14
M  ISO  1  39  14
M  END
>  <minimizedAffinity>  (1) 
-5.11094427

>  <minimizedRMSD>  (1) 
1.13581967

$$$$
