
     RDKit          3D

 50 54  0  0  1  0  0  0  0  0999 V2000
   37.9670   26.3490   36.4820 C   0  0  1  0  0  0  0  0  0  0  0  0
   38.6960   27.3490   35.6670 C   0  0  0  0  0  0  0  0  0  0  0  0
   37.4530   26.7030   35.1410 C   0  0  1  0  0  0  0  0  0  0  0  0
   37.6120   26.0260   33.9190 N   0  0  0  0  0  0  0  0  0  0  0  0
   37.7360   24.7040   33.7150 C   0  0  0  0  0  0  0  0  0  0  0  0
   37.8920   24.1020   32.4990 C   0  0  0  0  0  0  0  0  0  0  0  0
   37.9270   24.9150   31.3580 C   0  0  0  0  0  0  0  0  0  0  0  0
   38.0700   24.4170   30.2170 O   0  0  0  0  0  0  0  0  0  0  0  0
   37.8070   26.2590   31.4820 N   0  0  0  0  0  0  0  0  0  0  0  0
   37.6580   26.7460   32.7350 C   0  0  0  0  0  0  0  0  0  0  0  0
   37.5460   28.0150   32.8270 O   0  0  0  0  0  0  0  0  0  0  0  0
   37.1020   28.5090   28.7970 N   0  0  0  0  0  0  0  0  0  0  0  0
   36.7370   27.7480   29.8010 N   0  0  0  0  0  0  0  0  0  0  0  0
   37.8130   27.1520   30.3710 C   0  0  0  0  0  0  0  0  0  0  0  0
   38.9000   27.5770   29.6660 C   0  0  0  0  0  0  0  0  0  0  0  0
   38.4440   28.4280   28.6820 C   0  0  0  0  0  0  0  0  0  0  0  0
   38.5910   25.0370   36.7840 C   0  0  0  0  0  0  0  0  0  0  0  0
   37.9890   24.3040   37.8210 C   0  0  0  0  0  0  0  0  0  0  0  0
   38.5120   23.0620   38.1640 C   0  0  0  0  0  0  0  0  0  0  0  0
   39.5980   22.6300   37.4560 N   0  0  0  0  0  0  0  0  0  0  0  0
   40.1410   23.3770   36.4640 C   0  0  0  0  0  0  0  0  0  0  0  0
   39.6600   24.5630   36.1200 N   0  0  0  0  0  0  0  0  0  0  0  0
   41.3270   22.8490   35.7270 C   0  0  0  0  0  0  0  0  0  0  0  0
   41.7990   23.8820   34.7000 C   0  0  0  0  0  0  0  0  0  0  0  0
   43.1420   23.3590   34.1980 C   0  0  0  0  0  0  0  0  0  0  0  0
   44.1570   23.8450   35.2290 C   0  0  0  0  0  0  0  0  0  0  0  0
   43.5380   23.6570   36.5820 C   0  0  0  0  0  0  0  0  0  0  0  0
   42.4960   22.5470   36.6090 C   0  0  0  0  0  0  0  0  0  0  0  0
   37.5150   26.3250   37.4845 H   0  0  0  0  0  0  0  0  0  0  0  0
   38.6854   28.4100   35.9571 H   0  0  0  0  0  0  0  0  0  0  0  0
   39.7300   27.4592   35.3083 H   0  0  0  0  0  0  0  0  0  0  0  0
   36.4232   26.9336   34.8307 H   0  0  0  0  0  0  0  0  0  0  0  0
   37.7097   24.0523   34.6008 H   0  0  0  0  0  0  0  0  0  0  0  0
   37.9875   23.0092   32.4175 H   0  0  0  0  0  0  0  0  0  0  0  0
   36.4753   29.0692   28.2018 H   0  0  0  0  0  0  0  0  0  0  0  0
   39.9470   27.2933   29.8486 H   0  0  0  0  0  0  0  0  0  0  0  0
   39.0634   28.9480   27.9364 H   0  0  0  0  0  0  0  0  0  0  0  0
   37.1156   24.7074   38.3543 H   0  0  0  0  0  0  0  0  0  0  0  0
   38.0715   22.4549   38.9686 H   0  0  0  0  0  0  0  0  0  0  0  0
   40.9917   21.9118   35.2588 H   0  0  0  0  0  0  0  0  0  0  0  0
   41.0801   23.9586   33.8709 H   0  0  0  0  0  0  0  0  0  0  0  0
   41.8858   24.8877   35.1371 H   0  0  0  0  0  0  0  0  0  0  0  0
   43.1361   22.2602   34.1476 H   0  0  0  0  0  0  0  0  0  0  0  0
   43.3751   23.7163   33.1841 H   0  0  0  0  0  0  0  0  0  0  0  0
   45.0831   23.2563   35.1530 H   0  0  0  0  0  0  0  0  0  0  0  0
   44.4116   24.9015   35.0590 H   0  0  0  0  0  0  0  0  0  0  0  0
   44.3334   23.4090   37.3003 H   0  0  0  0  0  0  0  0  0  0  0  0
   43.0270   24.5952   36.8440 H   0  0  0  0  0  0  0  0  0  0  0  0
   42.1379   22.4221   37.6416 H   0  0  0  0  0  0  0  0  0  0  0  0
   42.9717   21.6277   36.2367 H   0  0  0  0  0  0  0  0  0  0  0  0
  1 17  1  0
  2  1  1  0
  3  2  1  0
  3  1  1  0
  4  3  1  0
  5  4  1  0
  6  5  2  0
  7  9  1  0
  7  6  1  0
  8  7  2  0
  9 10  1  0
 10 11  2  0
 10  4  1  0
 12 13  1  0
 13 14  2  0
 14  9  1  0
 15 14  1  0
 16 12  1  0
 16 15  2  0
 17 18  2  0
 18 19  1  0
 20 19  2  0
 21 20  1  0
 22 21  2  0
 22 17  1  0
 23 21  1  0
 23 28  1  0
 24 23  1  0
 25 24  1  0
 25 26  1  0
 26 27  1  0
 27 28  1  0
  1 29  1  1
  2 30  1  0
  2 31  1  0
  3 32  1  1
  5 33  1  0
  6 34  1  0
 12 35  1  0
 15 36  1  0
 16 37  1  0
 18 38  1  0
 19 39  1  0
 23 40  1  0
 24 41  1  0
 24 42  1  0
 25 43  1  0
 25 44  1  0
 26 45  1  0
 26 46  1  0
 27 47  1  0
 27 48  1  0
 28 49  1  0
 28 50  1  0
M  ISO  8  29  13  30  13  31  13  32  13  33  14  34  14  35   9  36  14
M  ISO  8  37  14  38  14  39  14  40  13  41  13  42  13  43  13  44  13
M  ISO  6  45  13  46  13  47  13  48  13  49  13  50  13
M  END
>  <minimizedAffinity>  (1) 
-6.11140633

>  <minimizedRMSD>  (1) 
0.597508132

$$$$
