
     RDKit          3D

 48 52  0  0  1  0  0  0  0  0999 V2000
   37.9760   26.3680   36.4860 C   0  0  1  0  0  0  0  0  0  0  0  0
   38.7220   27.3470   35.6620 C   0  0  0  0  0  0  0  0  0  0  0  0
   37.4610   26.7250   35.1450 C   0  0  1  0  0  0  0  0  0  0  0  0
   37.6020   26.0380   33.9260 N   0  0  0  0  0  0  0  0  0  0  0  0
   37.6950   24.7120   33.7300 C   0  0  0  0  0  0  0  0  0  0  0  0
   37.8360   24.1000   32.5150 C   0  0  0  0  0  0  0  0  0  0  0  0
   37.8850   24.9080   31.3700 C   0  0  0  0  0  0  0  0  0  0  0  0
   38.0130   24.4020   30.2300 O   0  0  0  0  0  0  0  0  0  0  0  0
   37.7940   26.2590   31.4890 N   0  0  0  0  0  0  0  0  0  0  0  0
   37.6590   26.7500   32.7400 C   0  0  0  0  0  0  0  0  0  0  0  0
   37.5760   28.0220   32.8230 O   0  0  0  0  0  0  0  0  0  0  0  0
   37.1170   28.4950   28.7880 N   0  0  0  0  0  0  0  0  0  0  0  0
   36.7490   27.7470   29.8000 N   0  0  0  0  0  0  0  0  0  0  0  0
   37.8160   27.1410   30.3720 C   0  0  0  0  0  0  0  0  0  0  0  0
   38.9120   27.5420   29.6640 C   0  0  0  0  0  0  0  0  0  0  0  0
   38.4650   28.3910   28.6730 C   0  0  0  0  0  0  0  0  0  0  0  0
   38.5720   25.0450   36.7940 C   0  0  0  0  0  0  0  0  0  0  0  0
   38.0260   24.3530   37.8780 C   0  0  0  0  0  0  0  0  0  0  0  0
   38.5090   23.1170   38.2410 C   0  0  0  0  0  0  0  0  0  0  0  0
   39.5330   22.6290   37.4870 N   0  0  0  0  0  0  0  0  0  0  0  0
   40.0440   23.3230   36.4400 C   0  0  0  0  0  0  0  0  0  0  0  0
   39.5830   24.5140   36.0840 N   0  0  0  0  0  0  0  0  0  0  0  0
   41.1310   22.7480   35.6790 N   0  0  0  0  0  0  0  0  0  0  0  0
   40.9890   22.4840   34.2660 C   0  0  0  0  0  0  0  0  0  0  0  0
   41.7110   21.2810   33.7700 C   0  0  0  0  0  0  0  0  0  0  0  0
   42.6230   20.7480   34.7440 N   0  0  0  0  0  0  0  0  0  0  0  0
   43.3310   21.9120   35.2940 C   0  0  0  0  0  0  0  0  0  0  0  0
   42.3940   22.4320   36.3630 C   0  0  0  0  0  0  0  0  0  0  0  0
   37.5293   26.3598   37.4912 H   0  0  0  0  0  0  0  0  0  0  0  0
   38.7361   28.4095   35.9464 H   0  0  0  0  0  0  0  0  0  0  0  0
   39.7563   27.4326   35.2974 H   0  0  0  0  0  0  0  0  0  0  0  0
   36.4344   26.9753   34.8392 H   0  0  0  0  0  0  0  0  0  0  0  0
   37.6544   24.0659   34.6193 H   0  0  0  0  0  0  0  0  0  0  0  0
   37.9089   23.0051   32.4382 H   0  0  0  0  0  0  0  0  0  0  0  0
   36.4963   29.0586   28.1897 H   0  0  0  0  0  0  0  0  0  0  0  0
   39.9547   27.2443   29.8488 H   0  0  0  0  0  0  0  0  0  0  0  0
   39.0910   28.8949   27.9219 H   0  0  0  0  0  0  0  0  0  0  0  0
   37.1996   24.8021   38.4484 H   0  0  0  0  0  0  0  0  0  0  0  0
   38.0926   22.5557   39.0904 H   0  0  0  0  0  0  0  0  0  0  0  0
   39.9185   22.3512   34.0506 H   0  0  0  0  0  0  0  0  0  0  0  0
   41.4382   23.3444   33.7483 H   0  0  0  0  0  0  0  0  0  0  0  0
   40.9729   20.5059   33.5162 H   0  0  0  0  0  0  0  0  0  0  0  0
   42.2988   21.5821   32.8903 H   0  0  0  0  0  0  0  0  0  0  0  0
   42.1084   20.2549   35.4876 H   0  0  0  0  0  0  0  0  0  0  0  0
   44.2960   21.6138   35.7299 H   0  0  0  0  0  0  0  0  0  0  0  0
   43.5658   22.6675   34.5297 H   0  0  0  0  0  0  0  0  0  0  0  0
   42.8118   23.3360   36.8302 H   0  0  0  0  0  0  0  0  0  0  0  0
   42.2442   21.6906   37.1617 H   0  0  0  0  0  0  0  0  0  0  0  0
  1 17  1  0
  2  1  1  0
  3  2  1  0
  3  1  1  0
  4  3  1  0
  5  4  1  0
  6  5  2  0
  7  9  1  0
  7  6  1  0
  8  7  2  0
  9 10  1  0
 10 11  2  0
 10  4  1  0
 12 13  1  0
 13 14  2  0
 14  9  1  0
 15 14  1  0
 16 12  1  0
 16 15  2  0
 17 18  2  0
 18 19  1  0
 20 19  2  0
 21 20  1  0
 22 21  2  0
 22 17  1  0
 23 28  1  0
 23 21  1  0
 24 23  1  0
 25 24  1  0
 25 26  1  0
 26 27  1  0
 27 28  1  0
  1 29  1  1
  2 30  1  0
  2 31  1  0
  3 32  1  1
  5 33  1  0
  6 34  1  0
 12 35  1  0
 15 36  1  0
 16 37  1  0
 18 38  1  0
 19 39  1  0
 24 40  1  0
 24 41  1  0
 25 42  1  0
 25 43  1  0
 26 44  1  0
 27 45  1  0
 27 46  1  0
 28 47  1  0
 28 48  1  0
M  ISO  8  29  13  30  13  31  13  32  13  33  14  34  14  35   9  36  14
M  ISO  8  37  14  38  14  39  14  40  13  41  13  42  13  43  13  44   5
M  ISO  4  45  13  46  13  47  13  48  13
M  END
>  <minimizedAffinity>  (1) 
-5.97930193

>  <minimizedRMSD>  (1) 
0.076947093

$$$$
