
     RDKit          3D

 44 48  0  0  1  0  0  0  0  0999 V2000
   37.9670   26.4000   36.5020 C   0  0  1  0  0  0  0  0  0  0  0  0
   38.7640   27.3420   35.6820 C   0  0  0  0  0  0  0  0  0  0  0  0
   37.4910   26.7660   35.1500 C   0  0  1  0  0  0  0  0  0  0  0  0
   37.6250   26.0650   33.9390 N   0  0  0  0  0  0  0  0  0  0  0  0
   37.7150   24.7370   33.7530 C   0  0  0  0  0  0  0  0  0  0  0  0
   37.8500   24.1120   32.5490 C   0  0  0  0  0  0  0  0  0  0  0  0
   37.8960   24.9050   31.3930 C   0  0  0  0  0  0  0  0  0  0  0  0
   38.0180   24.3890   30.2580 O   0  0  0  0  0  0  0  0  0  0  0  0
   37.8080   26.2520   31.4960 N   0  0  0  0  0  0  0  0  0  0  0  0
   37.6790   26.7640   32.7420 C   0  0  0  0  0  0  0  0  0  0  0  0
   37.5970   28.0350   32.8130 O   0  0  0  0  0  0  0  0  0  0  0  0
   37.1310   28.4710   28.7810 N   0  0  0  0  0  0  0  0  0  0  0  0
   36.7590   27.7350   29.8000 N   0  0  0  0  0  0  0  0  0  0  0  0
   37.8260   27.1240   30.3710 C   0  0  0  0  0  0  0  0  0  0  0  0
   38.9190   27.5140   29.6520 C   0  0  0  0  0  0  0  0  0  0  0  0
   38.4700   28.3570   28.6590 C   0  0  0  0  0  0  0  0  0  0  0  0
   38.5050   25.0540   36.8320 C   0  0  0  0  0  0  0  0  0  0  0  0
   37.8730   24.3570   37.8560 C   0  0  0  0  0  0  0  0  0  0  0  0
   38.2980   23.1050   38.2340 C   0  0  0  0  0  0  0  0  0  0  0  0
   39.3560   22.6090   37.5500 N   0  0  0  0  0  0  0  0  0  0  0  0
   39.9580   23.3020   36.5590 C   0  0  0  0  0  0  0  0  0  0  0  0
   39.5530   24.5130   36.1880 N   0  0  0  0  0  0  0  0  0  0  0  0
   41.1010   22.6810   35.8730 C   0  0  0  0  0  0  0  0  0  0  0  0
   40.9540   22.1440   34.6160 C   0  0  0  0  0  0  0  0  0  0  0  0
   42.0530   21.5730   34.0140 C   0  0  0  0  0  0  0  0  0  0  0  0
   43.3050   21.4990   34.5850 C   0  0  0  0  0  0  0  0  0  0  0  0
   43.4460   22.0470   35.8640 C   0  0  0  0  0  0  0  0  0  0  0  0
   42.3430   22.6290   36.4880 C   0  0  0  0  0  0  0  0  0  0  0  0
   37.5039   26.4178   37.4996 H   0  0  0  0  0  0  0  0  0  0  0  0
   38.8148   28.4057   35.9576 H   0  0  0  0  0  0  0  0  0  0  0  0
   39.8067   27.3840   35.3341 H   0  0  0  0  0  0  0  0  0  0  0  0
   36.4803   27.0535   34.8247 H   0  0  0  0  0  0  0  0  0  0  0  0
   37.6764   24.0999   34.6489 H   0  0  0  0  0  0  0  0  0  0  0  0
   37.9209   23.0161   32.4858 H   0  0  0  0  0  0  0  0  0  0  0  0
   36.5122   29.0351   28.1811 H   0  0  0  0  0  0  0  0  0  0  0  0
   39.9614   27.2122   29.8316 H   0  0  0  0  0  0  0  0  0  0  0  0
   39.0940   28.8508   27.8995 H   0  0  0  0  0  0  0  0  0  0  0  0
   37.0173   24.8156   38.3732 H   0  0  0  0  0  0  0  0  0  0  0  0
   37.8087   22.5414   39.0420 H   0  0  0  0  0  0  0  0  0  0  0  0
   39.9812   22.1699   34.1031 H   0  0  0  0  0  0  0  0  0  0  0  0
   41.9226   21.1467   33.0084 H   0  0  0  0  0  0  0  0  0  0  0  0
   44.1517   21.0319   34.0607 H   0  0  0  0  0  0  0  0  0  0  0  0
   44.4201   22.0191   36.3742 H   0  0  0  0  0  0  0  0  0  0  0  0
   42.4611   23.0579   37.4940 H   0  0  0  0  0  0  0  0  0  0  0  0
  1 17  1  0
  2  1  1  0
  3  2  1  0
  3  1  1  0
  4  3  1  0
  5  4  1  0
  6  5  2  0
  7  9  1  0
  7  6  1  0
  8  7  2  0
  9 10  1  0
 10 11  2  0
 10  4  1  0
 12 13  1  0
 13 14  2  0
 14  9  1  0
 15 14  1  0
 16 12  1  0
 16 15  2  0
 17 18  2  0
 18 19  1  0
 20 19  2  0
 21 20  1  0
 22 21  2  0
 22 17  1  0
 23 28  1  0
 23 21  1  0
 24 23  2  0
 25 26  2  0
 25 24  1  0
 26 27  1  0
 27 28  2  0
  1 29  1  1
  2 30  1  0
  2 31  1  0
  3 32  1  1
  5 33  1  0
  6 34  1  0
 12 35  1  0
 15 36  1  0
 16 37  1  0
 18 38  1  0
 19 39  1  0
 24 40  1  0
 25 41  1  0
 26 42  1  0
 27 43  1  0
 28 44  1  0
M  ISO  8  29  13  30  13  31  13  32  13  33  14  34  14  35   9  36  14
M  ISO  8  37  14  38  14  39  14  40  14  41  14  42  14  43  14  44  14
M  END
>  <minimizedAffinity>  (1) 
-5.81542444

>  <minimizedRMSD>  (1) 
0.21901232

$$$$
