
     RDKit          3D

 41 45  0  0  1  0  0  0  0  0999 V2000
   38.0200   26.4120   36.5080 C   0  0  1  0  0  0  0  0  0  0  0  0
   38.8530   27.3150   35.6790 C   0  0  0  0  0  0  0  0  0  0  0  0
   37.5510   26.7960   35.1570 C   0  0  1  0  0  0  0  0  0  0  0  0
   37.6450   26.0840   33.9480 N   0  0  0  0  0  0  0  0  0  0  0  0
   37.6960   24.7540   33.7720 C   0  0  0  0  0  0  0  0  0  0  0  0
   37.7910   24.1190   32.5640 C   0  0  0  0  0  0  0  0  0  0  0  0
   37.8410   24.9050   31.4040 C   0  0  0  0  0  0  0  0  0  0  0  0
   37.9290   24.3800   30.2720 O   0  0  0  0  0  0  0  0  0  0  0  0
   37.7920   26.2640   31.5040 N   0  0  0  0  0  0  0  0  0  0  0  0
   37.7000   26.7670   32.7460 C   0  0  0  0  0  0  0  0  0  0  0  0
   37.6550   28.0510   32.8120 O   0  0  0  0  0  0  0  0  0  0  0  0
   37.1370   28.4680   28.7800 N   0  0  0  0  0  0  0  0  0  0  0  0
   36.7580   27.7530   29.8120 N   0  0  0  0  0  0  0  0  0  0  0  0
   37.8190   27.1240   30.3730 C   0  0  0  0  0  0  0  0  0  0  0  0
   38.9120   27.4760   29.6360 C   0  0  0  0  0  0  0  0  0  0  0  0
   38.4770   28.3200   28.6380 C   0  0  0  0  0  0  0  0  0  0  0  0
   38.4990   25.0450   36.8430 C   0  0  0  0  0  0  0  0  0  0  0  0
   37.9000   24.4140   37.9240 C   0  0  0  0  0  0  0  0  0  0  0  0
   38.2810   23.1480   38.3050 C   0  0  0  0  0  0  0  0  0  0  0  0
   39.2610   22.5720   37.5690 N   0  0  0  0  0  0  0  0  0  0  0  0
   39.8290   23.2060   36.5220 C   0  0  0  0  0  0  0  0  0  0  0  0
   39.4710   24.4270   36.1440 N   0  0  0  0  0  0  0  0  0  0  0  0
   40.8550   22.4800   35.8300 N   0  0  0  0  0  0  0  0  0  0  0  0
   41.5520   21.6680   36.6710 C   0  0  0  0  0  0  0  0  0  0  0  0
   42.5250   21.0030   35.9150 C   0  0  0  0  0  0  0  0  0  0  0  0
   42.3720   21.4430   34.6500 N   0  0  0  0  0  0  0  0  0  0  0  0
   41.3580   22.3390   34.6050 C   0  0  0  0  0  0  0  0  0  0  0  0
   37.5645   26.4528   37.5084 H   0  0  0  0  0  0  0  0  0  0  0  0
   38.9539   28.3760   35.9511 H   0  0  0  0  0  0  0  0  0  0  0  0
   39.8940   27.3086   35.3236 H   0  0  0  0  0  0  0  0  0  0  0  0
   36.5527   27.1293   34.8373 H   0  0  0  0  0  0  0  0  0  0  0  0
   37.6583   24.1235   34.6726 H   0  0  0  0  0  0  0  0  0  0  0  0
   37.8272   23.0212   32.5043 H   0  0  0  0  0  0  0  0  0  0  0  0
   36.5243   29.0412   28.1825 H   0  0  0  0  0  0  0  0  0  0  0  0
   39.9477   27.1471   29.8069 H   0  0  0  0  0  0  0  0  0  0  0  0
   39.1038   28.7892   27.8653 H   0  0  0  0  0  0  0  0  0  0  0  0
   37.1089   24.9336   38.4846 H   0  0  0  0  0  0  0  0  0  0  0  0
   37.8161   22.6331   39.1587 H   0  0  0  0  0  0  0  0  0  0  0  0
   41.3814   21.5544   37.7517 H   0  0  0  0  0  0  0  0  0  0  0  0
   43.2624   20.2721   36.2784 H   0  0  0  0  0  0  0  0  0  0  0  0
   41.0072   22.8643   33.7044 H   0  0  0  0  0  0  0  0  0  0  0  0
  1 17  1  0
  2  1  1  0
  3  2  1  0
  3  1  1  0
  4  3  1  0
  5  4  1  0
  6  5  2  0
  7  9  1  0
  7  6  1  0
  8  7  2  0
  9 10  1  0
 10 11  2  0
 10  4  1  0
 12 13  1  0
 13 14  2  0
 14  9  1  0
 15 14  1  0
 16 12  1  0
 16 15  2  0
 17 18  2  0
 18 19  1  0
 20 19  2  0
 21 20  1  0
 22 21  2  0
 22 17  1  0
 23 21  1  0
 23 24  1  0
 25 24  2  0
 26 25  1  0
 27 26  2  0
 27 23  1  0
  1 28  1  1
  2 29  1  0
  2 30  1  0
  3 31  1  1
  5 32  1  0
  6 33  1  0
 12 34  1  0
 15 35  1  0
 16 36  1  0
 18 37  1  0
 19 38  1  0
 24 39  1  0
 25 40  1  0
 27 41  1  0
M  ISO  8  28  13  29  13  30  13  31  13  32  14  33  14  34   9  35  14
M  ISO  6  36  14  37  14  38  14  39  14  40  14  41  14
M  END
>  <minimizedAffinity>  (1) 
-5.91744947

>  <minimizedRMSD>  (1) 
0.261539042

$$$$
