
     RDKit          3D

 41 45  0  0  1  0  0  0  0  0999 V2000
   37.9850   26.3790   36.4930 C   0  0  1  0  0  0  0  0  0  0  0  0
   38.7610   27.3360   35.6720 C   0  0  0  0  0  0  0  0  0  0  0  0
   37.4950   26.7440   35.1460 C   0  0  1  0  0  0  0  0  0  0  0  0
   37.6250   26.0470   33.9330 N   0  0  0  0  0  0  0  0  0  0  0  0
   37.7110   24.7210   33.7450 C   0  0  0  0  0  0  0  0  0  0  0  0
   37.8400   24.1010   32.5320 C   0  0  0  0  0  0  0  0  0  0  0  0
   37.8830   24.9010   31.3810 C   0  0  0  0  0  0  0  0  0  0  0  0
   38.0000   24.3900   30.2410 O   0  0  0  0  0  0  0  0  0  0  0  0
   37.7990   26.2460   31.4910 N   0  0  0  0  0  0  0  0  0  0  0  0
   37.6760   26.7490   32.7380 C   0  0  0  0  0  0  0  0  0  0  0  0
   37.5970   28.0250   32.8160 O   0  0  0  0  0  0  0  0  0  0  0  0
   37.1230   28.4830   28.7880 N   0  0  0  0  0  0  0  0  0  0  0  0
   36.7490   27.7420   29.8040 N   0  0  0  0  0  0  0  0  0  0  0  0
   37.8160   27.1260   30.3700 C   0  0  0  0  0  0  0  0  0  0  0  0
   38.9090   27.5190   29.6530 C   0  0  0  0  0  0  0  0  0  0  0  0
   38.4610   28.3680   28.6660 C   0  0  0  0  0  0  0  0  0  0  0  0
   38.5470   25.0430   36.8150 C   0  0  0  0  0  0  0  0  0  0  0  0
   37.9360   24.3320   37.8450 C   0  0  0  0  0  0  0  0  0  0  0  0
   38.3920   23.0860   38.2100 C   0  0  0  0  0  0  0  0  0  0  0  0
   39.4500   22.6060   37.5160 N   0  0  0  0  0  0  0  0  0  0  0  0
   40.0240   23.3140   36.5220 C   0  0  0  0  0  0  0  0  0  0  0  0
   39.5960   24.5170   36.1590 N   0  0  0  0  0  0  0  0  0  0  0  0
   41.1360   22.7620   35.8230 N   0  0  0  0  0  0  0  0  0  0  0  0
   41.3790   22.1110   34.7140 N   0  0  0  0  0  0  0  0  0  0  0  0
   42.6930   21.8520   34.5990 C   0  0  0  0  0  0  0  0  0  0  0  0
   43.3320   22.3790   35.7230 C   0  0  0  0  0  0  0  0  0  0  0  0
   42.3090   22.9530   36.4850 C   0  0  0  0  0  0  0  0  0  0  0  0
   37.5272   26.3844   37.4932 H   0  0  0  0  0  0  0  0  0  0  0  0
   38.7974   28.3991   35.9520 H   0  0  0  0  0  0  0  0  0  0  0  0
   39.8005   27.3953   35.3173 H   0  0  0  0  0  0  0  0  0  0  0  0
   36.4793   27.0207   34.8268 H   0  0  0  0  0  0  0  0  0  0  0  0
   37.6749   24.0805   34.6386 H   0  0  0  0  0  0  0  0  0  0  0  0
   37.9081   23.0054   32.4617 H   0  0  0  0  0  0  0  0  0  0  0  0
   36.5053   29.0508   28.1906 H   0  0  0  0  0  0  0  0  0  0  0  0
   39.9511   27.2148   29.8303 H   0  0  0  0  0  0  0  0  0  0  0  0
   39.0857   28.8658   27.9097 H   0  0  0  0  0  0  0  0  0  0  0  0
   37.0777   24.7722   38.3737 H   0  0  0  0  0  0  0  0  0  0  0  0
   37.9221   22.5114   39.0218 H   0  0  0  0  0  0  0  0  0  0  0  0
   43.1783   21.3198   33.7676 H   0  0  0  0  0  0  0  0  0  0  0  0
   44.4062   22.3493   35.9581 H   0  0  0  0  0  0  0  0  0  0  0  0
   42.4314   23.4679   37.4493 H   0  0  0  0  0  0  0  0  0  0  0  0
  1 17  1  0
  2  1  1  0
  3  2  1  0
  3  1  1  0
  4  3  1  0
  5  4  1  0
  6  5  2  0
  7  9  1  0
  7  6  1  0
  8  7  2  0
  9 10  1  0
 10 11  2  0
 10  4  1  0
 12 13  1  0
 13 14  2  0
 14  9  1  0
 15 14  1  0
 16 12  1  0
 16 15  2  0
 17 18  2  0
 18 19  1  0
 20 19  2  0
 21 20  1  0
 22 21  2  0
 22 17  1  0
 23 27  1  0
 23 21  1  0
 24 23  1  0
 25 24  2  0
 25 26  1  0
 26 27  2  0
  1 28  1  1
  2 29  1  0
  2 30  1  0
  3 31  1  1
  5 32  1  0
  6 33  1  0
 12 34  1  0
 15 35  1  0
 16 36  1  0
 18 37  1  0
 19 38  1  0
 25 39  1  0
 26 40  1  0
 27 41  1  0
M  ISO  8  28  13  29  13  30  13  31  13  32  14  33  14  34   9  35  14
M  ISO  6  36  14  37  14  38  14  39  14  40  14  41  14
M  END
>  <minimizedAffinity>  (1) 
-5.893291

>  <minimizedRMSD>  (1) 
0.165083304

$$$$
