
     RDKit          3D

 40 44  0  0  1  0  0  0  0  0999 V2000
   37.9810   26.3600   36.4880 C   0  0  1  0  0  0  0  0  0  0  0  0
   38.7500   27.3260   35.6660 C   0  0  0  0  0  0  0  0  0  0  0  0
   37.4730   26.7230   35.1470 C   0  0  1  0  0  0  0  0  0  0  0  0
   37.6030   26.0360   33.9270 N   0  0  0  0  0  0  0  0  0  0  0  0
   37.6940   24.7100   33.7360 C   0  0  0  0  0  0  0  0  0  0  0  0
   37.8300   24.0980   32.5130 C   0  0  0  0  0  0  0  0  0  0  0  0
   37.8780   24.9040   31.3720 C   0  0  0  0  0  0  0  0  0  0  0  0
   38.0020   24.4030   30.2300 O   0  0  0  0  0  0  0  0  0  0  0  0
   37.7900   26.2550   31.4900 N   0  0  0  0  0  0  0  0  0  0  0  0
   37.6590   26.7460   32.7410 C   0  0  0  0  0  0  0  0  0  0  0  0
   37.5770   28.0170   32.8280 O   0  0  0  0  0  0  0  0  0  0  0  0
   37.1120   28.5000   28.7970 N   0  0  0  0  0  0  0  0  0  0  0  0
   36.7400   27.7510   29.8100 N   0  0  0  0  0  0  0  0  0  0  0  0
   37.8090   27.1400   30.3740 C   0  0  0  0  0  0  0  0  0  0  0  0
   38.9020   27.5410   29.6610 C   0  0  0  0  0  0  0  0  0  0  0  0
   38.4540   28.3940   28.6750 C   0  0  0  0  0  0  0  0  0  0  0  0
   38.5640   25.0300   36.8000 C   0  0  0  0  0  0  0  0  0  0  0  0
   38.0490   24.3750   37.9250 C   0  0  0  0  0  0  0  0  0  0  0  0
   38.5430   23.1390   38.2770 C   0  0  0  0  0  0  0  0  0  0  0  0
   39.5220   22.6190   37.4960 N   0  0  0  0  0  0  0  0  0  0  0  0
   39.9940   23.2780   36.4230 C   0  0  0  0  0  0  0  0  0  0  0  0
   39.5370   24.4710   36.0580 N   0  0  0  0  0  0  0  0  0  0  0  0
   41.0290   22.7460   35.5820 N   0  0  0  0  0  0  0  0  0  0  0  0
   41.7080   21.6510   35.9870 C   0  0  0  0  0  0  0  0  0  0  0  0
   42.6160   21.3440   35.0480 N   0  0  0  0  0  0  0  0  0  0  0  0
   42.4860   22.2650   34.0580 C   0  0  0  0  0  0  0  0  0  0  0  0
   41.5010   23.1250   34.4020 N   0  0  0  0  0  0  0  0  0  0  0  0
   37.5265   26.3590   37.4897 H   0  0  0  0  0  0  0  0  0  0  0  0
   38.7832   28.3883   35.9497 H   0  0  0  0  0  0  0  0  0  0  0  0
   39.7865   27.3929   35.3039 H   0  0  0  0  0  0  0  0  0  0  0  0
   36.4502   26.9883   34.8413 H   0  0  0  0  0  0  0  0  0  0  0  0
   37.6569   24.0646   34.6260 H   0  0  0  0  0  0  0  0  0  0  0  0
   37.8992   23.0030   32.4341 H   0  0  0  0  0  0  0  0  0  0  0  0
   36.4916   29.0671   28.2017 H   0  0  0  0  0  0  0  0  0  0  0  0
   39.9448   27.2399   29.8398 H   0  0  0  0  0  0  0  0  0  0  0  0
   39.0778   28.8987   27.9226 H   0  0  0  0  0  0  0  0  0  0  0  0
   37.2548   24.8448   38.5238 H   0  0  0  0  0  0  0  0  0  0  0  0
   38.1600   22.5967   39.1540 H   0  0  0  0  0  0  0  0  0  0  0  0
   41.5444   21.1037   36.9271 H   0  0  0  0  0  0  0  0  0  0  0  0
   43.0809   22.3044   33.1336 H   0  0  0  0  0  0  0  0  0  0  0  0
  1 17  1  0
  2  1  1  0
  3  2  1  0
  3  1  1  0
  4  3  1  0
  5  4  1  0
  6  5  2  0
  7  9  1  0
  7  6  1  0
  8  7  2  0
  9 10  1  0
 10 11  2  0
 10  4  1  0
 12 13  1  0
 13 14  2  0
 14  9  1  0
 15 14  1  0
 16 12  1  0
 16 15  2  0
 17 18  2  0
 18 19  1  0
 20 19  2  0
 21 20  1  0
 22 21  2  0
 22 17  1  0
 23 24  1  0
 23 21  1  0
 25 24  2  0
 26 27  2  0
 26 25  1  0
 27 23  1  0
  1 28  1  1
  2 29  1  0
  2 30  1  0
  3 31  1  1
  5 32  1  0
  6 33  1  0
 12 34  1  0
 15 35  1  0
 16 36  1  0
 18 37  1  0
 19 38  1  0
 24 39  1  0
 26 40  1  0
M  ISO  8  28  13  29  13  30  13  31  13  32  14  33  14  34   9  35  14
M  ISO  5  36  14  37  14  38  14  39  14  40  14
M  END
>  <minimizedAffinity>  (1) 
-5.88082075

>  <minimizedRMSD>  (1) 
0.0916089118

$$$$
