
     RDKit          3D

 47 51  0  0  1  0  0  0  0  0999 V2000
   37.9860   26.3650   36.4970 C   0  0  1  0  0  0  0  0  0  0  0  0
   38.7490   27.3340   35.6750 C   0  0  0  0  0  0  0  0  0  0  0  0
   37.4810   26.7270   35.1540 C   0  0  1  0  0  0  0  0  0  0  0  0
   37.6150   26.0400   33.9340 N   0  0  0  0  0  0  0  0  0  0  0  0
   37.7080   24.7140   33.7430 C   0  0  0  0  0  0  0  0  0  0  0  0
   37.8430   24.0990   32.5270 C   0  0  0  0  0  0  0  0  0  0  0  0
   37.8860   24.9040   31.3800 C   0  0  0  0  0  0  0  0  0  0  0  0
   38.0090   24.3950   30.2390 O   0  0  0  0  0  0  0  0  0  0  0  0
   37.7950   26.2580   31.4990 N   0  0  0  0  0  0  0  0  0  0  0  0
   37.6660   26.7490   32.7440 C   0  0  0  0  0  0  0  0  0  0  0  0
   37.5830   28.0210   32.8290 O   0  0  0  0  0  0  0  0  0  0  0  0
   37.1190   28.4830   28.7960 N   0  0  0  0  0  0  0  0  0  0  0  0
   36.7420   27.7440   29.8120 N   0  0  0  0  0  0  0  0  0  0  0  0
   37.8120   27.1340   30.3780 C   0  0  0  0  0  0  0  0  0  0  0  0
   38.9030   27.5290   29.6600 C   0  0  0  0  0  0  0  0  0  0  0  0
   38.4580   28.3760   28.6680 C   0  0  0  0  0  0  0  0  0  0  0  0
   38.5650   25.0330   36.8050 C   0  0  0  0  0  0  0  0  0  0  0  0
   38.0260   24.3750   37.9210 C   0  0  0  0  0  0  0  0  0  0  0  0
   38.5030   23.1330   38.2770 C   0  0  0  0  0  0  0  0  0  0  0  0
   39.4880   22.6090   37.5110 N   0  0  0  0  0  0  0  0  0  0  0  0
   39.9890   23.2730   36.4390 C   0  0  0  0  0  0  0  0  0  0  0  0
   39.5380   24.4720   36.0830 N   0  0  0  0  0  0  0  0  0  0  0  0
   41.0400   22.7160   35.6200 N   0  0  0  0  0  0  0  0  0  0  0  0
   41.3650   23.2450   34.3130 C   0  0  0  0  0  0  0  0  0  0  0  0
   42.1730   22.2380   33.5510 C   0  0  0  0  0  0  0  0  0  0  0  0
   43.2820   21.9300   34.3680 O   0  0  0  0  0  0  0  0  0  0  0  0
   42.7980   21.0100   35.2920 C   0  0  0  0  0  0  0  0  0  0  0  0
   41.7580   21.5940   36.1780 C   0  0  0  0  0  0  0  0  0  0  0  0
   37.5353   26.3640   37.5005 H   0  0  0  0  0  0  0  0  0  0  0  0
   38.7758   28.3965   35.9583 H   0  0  0  0  0  0  0  0  0  0  0  0
   39.7857   27.4059   35.3145 H   0  0  0  0  0  0  0  0  0  0  0  0
   36.4583   26.9887   34.8448 H   0  0  0  0  0  0  0  0  0  0  0  0
   37.6729   24.0706   34.6345 H   0  0  0  0  0  0  0  0  0  0  0  0
   37.9157   23.0040   32.4522 H   0  0  0  0  0  0  0  0  0  0  0  0
   36.4991   29.0482   28.1983 H   0  0  0  0  0  0  0  0  0  0  0  0
   39.9454   27.2271   29.8398 H   0  0  0  0  0  0  0  0  0  0  0  0
   39.0807   28.8739   27.9102 H   0  0  0  0  0  0  0  0  0  0  0  0
   37.2261   24.8490   38.5088 H   0  0  0  0  0  0  0  0  0  0  0  0
   38.1011   22.5908   39.1456 H   0  0  0  0  0  0  0  0  0  0  0  0
   40.4366   23.4609   33.7640 H   0  0  0  0  0  0  0  0  0  0  0  0
   41.9480   24.1707   34.4276 H   0  0  0  0  0  0  0  0  0  0  0  0
   41.5759   21.3340   33.3606 H   0  0  0  0  0  0  0  0  0  0  0  0
   42.4896   22.6317   32.5739 H   0  0  0  0  0  0  0  0  0  0  0  0
   42.3622   20.1587   34.7485 H   0  0  0  0  0  0  0  0  0  0  0  0
   43.6403   20.6940   35.9249 H   0  0  0  0  0  0  0  0  0  0  0  0
   42.2478   21.9290   37.1042 H   0  0  0  0  0  0  0  0  0  0  0  0
   41.0122   20.8018   36.3399 H   0  0  0  0  0  0  0  0  0  0  0  0
  1 17  1  0
  2  1  1  0
  3  2  1  0
  3  1  1  0
  4  3  1  0
  5  4  1  0
  6  5  2  0
  7  9  1  0
  7  6  1  0
  8  7  2  0
  9 10  1  0
 10 11  2  0
 10  4  1  0
 12 13  1  0
 13 14  2  0
 14  9  1  0
 15 14  1  0
 16 12  1  0
 16 15  2  0
 17 18  2  0
 18 19  1  0
 20 19  2  0
 21 20  1  0
 22 21  2  0
 22 17  1  0
 23 28  1  0
 23 21  1  0
 24 23  1  0
 25 24  1  0
 25 26  1  0
 26 27  1  0
 27 28  1  0
  1 29  1  1
  2 30  1  0
  2 31  1  0
  3 32  1  1
  5 33  1  0
  6 34  1  0
 12 35  1  0
 15 36  1  0
 16 37  1  0
 18 38  1  0
 19 39  1  0
 24 40  1  0
 24 41  1  0
 25 42  1  0
 25 43  1  0
 27 44  1  0
 27 45  1  0
 28 46  1  0
 28 47  1  0
M  ISO  8  29  13  30  13  31  13  32  13  33  14  34  14  35   9  36  14
M  ISO  8  37  14  38  14  39  14  40  13  41  13  42  13  43  13  44  13
M  ISO  3  45  13  46  13  47  13
M  END
>  <minimizedAffinity>  (1) 
-5.95888424

>  <minimizedRMSD>  (1) 
0.108382635

$$$$
