
     RDKit          3D

 41 45  0  0  1  0  0  0  0  0999 V2000
   38.0010   26.3740   36.5090 C   0  0  1  0  0  0  0  0  0  0  0  0
   38.8010   27.3110   35.6880 C   0  0  0  0  0  0  0  0  0  0  0  0
   37.5200   26.7510   35.1600 C   0  0  1  0  0  0  0  0  0  0  0  0
   37.6360   26.0500   33.9470 N   0  0  0  0  0  0  0  0  0  0  0  0
   37.7090   24.7210   33.7620 C   0  0  0  0  0  0  0  0  0  0  0  0
   37.8230   24.1000   32.5490 C   0  0  0  0  0  0  0  0  0  0  0  0
   37.8660   24.8980   31.3970 C   0  0  0  0  0  0  0  0  0  0  0  0
   37.9690   24.3770   30.2610 O   0  0  0  0  0  0  0  0  0  0  0  0
   37.7940   26.2560   31.5080 N   0  0  0  0  0  0  0  0  0  0  0  0
   37.6860   26.7470   32.7510 C   0  0  0  0  0  0  0  0  0  0  0  0
   37.6200   28.0280   32.8280 O   0  0  0  0  0  0  0  0  0  0  0  0
   37.1250   28.4700   28.7960 N   0  0  0  0  0  0  0  0  0  0  0  0
   36.7460   27.7420   29.8220 N   0  0  0  0  0  0  0  0  0  0  0  0
   37.8130   27.1240   30.3820 C   0  0  0  0  0  0  0  0  0  0  0  0
   38.9050   27.5000   29.6540 C   0  0  0  0  0  0  0  0  0  0  0  0
   38.4630   28.3440   28.6610 C   0  0  0  0  0  0  0  0  0  0  0  0
   38.5310   25.0230   36.8320 C   0  0  0  0  0  0  0  0  0  0  0  0
   38.0020   24.4180   37.9780 C   0  0  0  0  0  0  0  0  0  0  0  0
   38.4390   23.1510   38.3430 C   0  0  0  0  0  0  0  0  0  0  0  0
   39.3780   22.5660   37.5370 N   0  0  0  0  0  0  0  0  0  0  0  0
   39.8600   23.1950   36.4350 C   0  0  0  0  0  0  0  0  0  0  0  0
   39.4510   24.4030   36.0800 N   0  0  0  0  0  0  0  0  0  0  0  0
   40.8890   22.4580   35.6240 C   0  0  0  0  0  0  0  0  0  0  0  0
   40.9200   22.4120   34.2570 C   0  0  0  0  0  0  0  0  0  0  0  0
   41.9130   21.7040   33.6530 C   0  0  0  0  0  0  0  0  0  0  0  0
   42.8320   21.0710   34.4590 C   0  0  0  0  0  0  0  0  0  0  0  0
   42.1930   21.5510   36.1890 S   0  0  0  0  0  0  0  0  0  0  0  0
   37.5428   26.3910   37.5089 H   0  0  0  0  0  0  0  0  0  0  0  0
   38.8640   28.3729   35.9680 H   0  0  0  0  0  0  0  0  0  0  0  0
   39.8420   27.3438   35.3340 H   0  0  0  0  0  0  0  0  0  0  0  0
   36.5118   27.0528   34.8400 H   0  0  0  0  0  0  0  0  0  0  0  0
   37.6743   24.0823   34.6569 H   0  0  0  0  0  0  0  0  0  0  0  0
   37.8795   23.0037   32.4790 H   0  0  0  0  0  0  0  0  0  0  0  0
   36.5084   29.0385   28.1980 H   0  0  0  0  0  0  0  0  0  0  0  0
   39.9448   27.1866   29.8287 H   0  0  0  0  0  0  0  0  0  0  0  0
   39.0868   28.8286   27.8955 H   0  0  0  0  0  0  0  0  0  0  0  0
   37.2473   24.9409   38.5838 H   0  0  0  0  0  0  0  0  0  0  0  0
   38.0491   22.6422   39.2369 H   0  0  0  0  0  0  0  0  0  0  0  0
   40.1593   22.9356   33.6594 H   0  0  0  0  0  0  0  0  0  0  0  0
   41.9791   21.6397   32.5569 H   0  0  0  0  0  0  0  0  0  0  0  0
   43.6998   20.4552   34.1801 H   0  0  0  0  0  0  0  0  0  0  0  0
  1 17  1  0
  2  1  1  0
  3  2  1  0
  3  1  1  0
  4  3  1  0
  5  4  1  0
  6  5  2  0
  7  9  1  0
  7  6  1  0
  8  7  2  0
  9 10  1  0
 10 11  2  0
 10  4  1  0
 12 13  1  0
 13 14  2  0
 14  9  1  0
 15 14  1  0
 16 12  1  0
 16 15  2  0
 17 18  2  0
 18 19  1  0
 20 19  2  0
 21 20  1  0
 22 21  2  0
 22 17  1  0
 23 27  1  0
 23 21  1  0
 24 23  2  0
 25 24  1  0
 25 26  2  0
 26 27  1  0
  1 28  1  1
  2 29  1  0
  2 30  1  0
  3 31  1  1
  5 32  1  0
  6 33  1  0
 12 34  1  0
 15 35  1  0
 16 36  1  0
 18 37  1  0
 19 38  1  0
 24 39  1  0
 25 40  1  0
 26 41  1  0
M  ISO  8  28  13  29  13  30  13  31  13  32  14  33  14  34   9  35  14
M  ISO  6  36  14  37  14  38  14  39  14  40  14  41  14
M  END
>  <minimizedAffinity>  (1) 
-5.59862137

>  <minimizedRMSD>  (1) 
0.504374027

$$$$
