
     RDKit          3D

 41 45  0  0  1  0  0  0  0  0999 V2000
   37.9940   26.3820   36.5040 C   0  0  1  0  0  0  0  0  0  0  0  0
   38.8030   27.3110   35.6810 C   0  0  0  0  0  0  0  0  0  0  0  0
   37.5040   26.7550   35.1600 C   0  0  1  0  0  0  0  0  0  0  0  0
   37.6170   26.0570   33.9430 N   0  0  0  0  0  0  0  0  0  0  0  0
   37.6880   24.7280   33.7620 C   0  0  0  0  0  0  0  0  0  0  0  0
   37.8080   24.1040   32.5470 C   0  0  0  0  0  0  0  0  0  0  0  0
   37.8610   24.9000   31.3940 C   0  0  0  0  0  0  0  0  0  0  0  0
   37.9710   24.3830   30.2580 O   0  0  0  0  0  0  0  0  0  0  0  0
   37.7930   26.2510   31.5050 N   0  0  0  0  0  0  0  0  0  0  0  0
   37.6770   26.7560   32.7500 C   0  0  0  0  0  0  0  0  0  0  0  0
   37.6140   28.0300   32.8280 O   0  0  0  0  0  0  0  0  0  0  0  0
   37.1280   28.4750   28.7920 N   0  0  0  0  0  0  0  0  0  0  0  0
   36.7530   27.7420   29.8150 N   0  0  0  0  0  0  0  0  0  0  0  0
   37.8210   27.1240   30.3780 C   0  0  0  0  0  0  0  0  0  0  0  0
   38.9140   27.5020   29.6550 C   0  0  0  0  0  0  0  0  0  0  0  0
   38.4730   28.3500   28.6610 C   0  0  0  0  0  0  0  0  0  0  0  0
   38.5150   25.0300   36.8290 C   0  0  0  0  0  0  0  0  0  0  0  0
   38.0210   24.4200   37.9810 C   0  0  0  0  0  0  0  0  0  0  0  0
   38.4510   23.1670   38.3550 C   0  0  0  0  0  0  0  0  0  0  0  0
   39.3660   22.5790   37.5470 N   0  0  0  0  0  0  0  0  0  0  0  0
   39.8310   23.1930   36.4330 C   0  0  0  0  0  0  0  0  0  0  0  0
   39.4270   24.3980   36.0610 N   0  0  0  0  0  0  0  0  0  0  0  0
   40.8140   22.4380   35.6600 C   0  0  0  0  0  0  0  0  0  0  0  0
   40.9920   22.3340   34.2930 C   0  0  0  0  0  0  0  0  0  0  0  0
   42.0290   21.5220   34.0330 N   0  0  0  0  0  0  0  0  0  0  0  0
   42.5270   21.0980   35.2080 C   0  0  0  0  0  0  0  0  0  0  0  0
   41.7860   21.6570   36.1700 N   0  0  0  0  0  0  0  0  0  0  0  0
   37.5394   26.4070   37.5054 H   0  0  0  0  0  0  0  0  0  0  0  0
   38.8770   28.3728   35.9588 H   0  0  0  0  0  0  0  0  0  0  0  0
   39.8428   27.3350   35.3228 H   0  0  0  0  0  0  0  0  0  0  0  0
   36.4924   27.0559   34.8501 H   0  0  0  0  0  0  0  0  0  0  0  0
   37.6467   24.0909   34.6578 H   0  0  0  0  0  0  0  0  0  0  0  0
   37.8613   23.0074   32.4786 H   0  0  0  0  0  0  0  0  0  0  0  0
   36.5109   29.0439   28.1950 H   0  0  0  0  0  0  0  0  0  0  0  0
   39.9535   27.1888   29.8318 H   0  0  0  0  0  0  0  0  0  0  0  0
   39.0988   28.8375   27.8990 H   0  0  0  0  0  0  0  0  0  0  0  0
   37.2785   24.9464   38.5987 H   0  0  0  0  0  0  0  0  0  0  0  0
   38.0724   22.6702   39.2605 H   0  0  0  0  0  0  0  0  0  0  0  0
   40.3774   22.8397   33.5337 H   0  0  0  0  0  0  0  0  0  0  0  0
   43.3815   20.4201   35.3504 H   0  0  0  0  0  0  0  0  0  0  0  0
   41.9394   21.5088   37.1777 H   0  0  0  0  0  0  0  0  0  0  0  0
  1 17  1  0
  2  1  1  0
  3  2  1  0
  3  1  1  0
  4  3  1  0
  5  4  1  0
  6  5  2  0
  7  9  1  0
  7  6  1  0
  8  7  2  0
  9 10  1  0
 10 11  2  0
 10  4  1  0
 12 13  1  0
 13 14  2  0
 14  9  1  0
 15 14  1  0
 16 12  1  0
 16 15  2  0
 17 18  2  0
 18 19  1  0
 20 19  2  0
 21 20  1  0
 22 21  2  0
 22 17  1  0
 23 27  1  0
 23 21  1  0
 24 23  2  0
 25 24  1  0
 25 26  2  0
 26 27  1  0
  1 28  1  1
  2 29  1  0
  2 30  1  0
  3 31  1  1
  5 32  1  0
  6 33  1  0
 12 34  1  0
 15 35  1  0
 16 36  1  0
 18 37  1  0
 19 38  1  0
 24 39  1  0
 26 40  1  0
 27 41  1  0
M  ISO  8  28  13  29  13  30  13  31  13  32  14  33  14  34   9  35  14
M  ISO  6  36  14  37  14  38  14  39  14  40  14  41   9
M  END
>  <minimizedAffinity>  (1) 
-5.66570854

>  <minimizedRMSD>  (1) 
0.26107192

$$$$
