
     RDKit          3D

 28 28  0  0  0  0  0  0  0  0999 V2000
   38.4300   23.6080   37.2580 C   0  0  0  0  0  0  0  0  0  0  0  0
   41.5180   21.5260   36.7100 C   0  0  0  0  0  0  0  0  0  0  0  0
   40.4670   22.1420   37.3870 C   0  0  0  0  0  0  0  0  0  0  0  0
   39.5630   22.9220   36.6480 C   0  0  0  0  0  0  0  0  0  0  0  0
   39.7570   23.0400   35.3100 N   0  0  0  0  0  0  0  0  0  0  0  0
   40.7870   22.4290   34.6870 C   0  0  0  0  0  0  0  0  0  0  0  0
   41.6660   21.6770   35.3710 N   0  0  0  0  0  0  0  0  0  0  0  0
   42.4420   20.7090   37.5710 C   0  0  0  0  0  0  0  0  0  0  0  0
   43.0400   19.5670   36.8010 C   0  0  0  0  0  0  0  0  0  0  0  0
   38.6640   23.6280   38.7600 C   0  0  0  0  0  0  0  0  0  0  0  0
   38.1730   24.9890   36.7340 C   0  0  0  0  0  0  0  0  0  0  0  0
   37.1510   22.8030   36.9920 C   0  0  0  0  0  0  0  0  0  0  0  0
   40.3485   22.0201   38.4738 H   0  0  0  0  0  0  0  0  0  0  0  0
   40.9090   22.5488   33.6004 H   0  0  0  0  0  0  0  0  0  0  0  0
   43.2521   21.3551   37.9402 H   0  0  0  0  0  0  0  0  0  0  0  0
   41.8606   20.2957   38.4084 H   0  0  0  0  0  0  0  0  0  0  0  0
   43.4327   18.8170   37.5033 H   0  0  0  0  0  0  0  0  0  0  0  0
   42.2670   19.1071   36.1678 H   0  0  0  0  0  0  0  0  0  0  0  0
   43.8583   19.9403   36.1678 H   0  0  0  0  0  0  0  0  0  0  0  0
   37.6995   23.5456   39.2825 H   0  0  0  0  0  0  0  0  0  0  0  0
   39.3074   22.7816   39.0422 H   0  0  0  0  0  0  0  0  0  0  0  0
   39.1544   24.5713   39.0422 H   0  0  0  0  0  0  0  0  0  0  0  0
   38.0438   25.6831   37.5775 H   0  0  0  0  0  0  0  0  0  0  0  0
   39.0263   25.3129   36.1200 H   0  0  0  0  0  0  0  0  0  0  0  0
   37.2603   24.9842   36.1200 H   0  0  0  0  0  0  0  0  0  0  0  0
   36.6932   22.5149   37.9498 H   0  0  0  0  0  0  0  0  0  0  0  0
   36.4430   23.4186   36.4177 H   0  0  0  0  0  0  0  0  0  0  0  0
   37.3999   21.8984   36.4177 H   0  0  0  0  0  0  0  0  0  0  0  0
  1 10  1  0
  2  3  2  0
  2  8  1  0
  4  1  1  0
  4  3  1  0
  5  4  2  0
  6  5  1  0
  6  7  2  0
  7  2  1  0
  9  8  1  0
 11  1  1  0
 12  1  1  0
  3 13  1  0
  6 14  1  0
  8 15  1  0
  8 16  1  0
  9 17  1  0
  9 18  1  0
  9 19  1  0
 10 20  1  0
 10 21  1  0
 10 22  1  0
 11 23  1  0
 11 24  1  0
 11 25  1  0
 12 26  1  0
 12 27  1  0
 12 28  1  0
M  ISO  8  13  14  14  14  15   8  16   8  17   8  18   8  19   8  20   8
M  ISO  8  21   8  22   8  23   8  24   8  25   8  26   8  27   8  28   8
M  END
>  <minimizedAffinity>  (1) 
-3.57719493

>  <minimizedRMSD>  (1) 
0.370771229

$$$$
