
     RDKit          3D

 36 39  0  0  1  0  0  0  0  0999 V2000
   37.6150   26.0340   33.9310 N   0  0  0  0  0  0  0  0  0  0  0  0
   37.7000   24.7080   33.7350 C   0  0  0  0  0  0  0  0  0  0  0  0
   37.8260   24.0980   32.5160 C   0  0  0  0  0  0  0  0  0  0  0  0
   37.8680   24.9060   31.3710 C   0  0  0  0  0  0  0  0  0  0  0  0
   37.9830   24.3980   30.2300 O   0  0  0  0  0  0  0  0  0  0  0  0
   37.7840   26.2630   31.4960 N   0  0  0  0  0  0  0  0  0  0  0  0
   37.6660   26.7400   32.7430 C   0  0  0  0  0  0  0  0  0  0  0  0
   37.5880   28.0200   32.8330 O   0  0  0  0  0  0  0  0  0  0  0  0
   37.1100   28.4970   28.7980 N   0  0  0  0  0  0  0  0  0  0  0  0
   36.7380   27.7530   29.8140 N   0  0  0  0  0  0  0  0  0  0  0  0
   37.8020   27.1420   30.3780 C   0  0  0  0  0  0  0  0  0  0  0  0
   38.8930   27.5360   29.6600 C   0  0  0  0  0  0  0  0  0  0  0  0
   38.4490   28.3860   28.6720 C   0  0  0  0  0  0  0  0  0  0  0  0
   37.9930   26.3470   36.4930 C   0  0  1  0  0  0  0  0  0  0  0  0
   38.7560   27.3170   35.6740 C   0  0  0  0  0  0  0  0  0  0  0  0
   37.4880   26.7180   35.1530 C   0  0  1  0  0  0  0  0  0  0  0  0
   38.5700   25.0130   36.7970 C   0  0  0  0  0  0  0  0  0  0  0  0
   38.0600   24.3670   37.9320 C   0  0  0  0  0  0  0  0  0  0  0  0
   38.5390   23.1230   38.2860 C   0  0  0  0  0  0  0  0  0  0  0  0
   39.5070   22.5850   37.4830 N   0  0  0  0  0  0  0  0  0  0  0  0
   39.9720   23.2430   36.3930 C   0  0  0  0  0  0  0  0  0  0  0  0
   39.5220   24.4400   36.0420 N   0  0  0  0  0  0  0  0  0  0  0  0
   41.0200   22.5790   35.5880 C   0  0  0  0  0  0  0  0  0  0  0  0
   40.6190   21.9890   34.5420 O   0  0  0  0  0  0  0  0  0  0  0  0
   37.6657   24.0612   34.6241 H   0  0  0  0  0  0  0  0  0  0  0  0
   37.8925   23.0029   32.4369 H   0  0  0  0  0  0  0  0  0  0  0  0
   36.4899   29.0646   28.2028 H   0  0  0  0  0  0  0  0  0  0  0  0
   39.9348   27.2310   29.8376 H   0  0  0  0  0  0  0  0  0  0  0  0
   39.0733   28.8848   27.9161 H   0  0  0  0  0  0  0  0  0  0  0  0
   37.5429   26.3412   37.4967 H   0  0  0  0  0  0  0  0  0  0  0  0
   38.7865   28.3781   35.9624 H   0  0  0  0  0  0  0  0  0  0  0  0
   39.7922   27.3874   35.3116 H   0  0  0  0  0  0  0  0  0  0  0  0
   36.4666   26.9869   34.8456 H   0  0  0  0  0  0  0  0  0  0  0  0
   37.2801   24.8509   38.5384 H   0  0  0  0  0  0  0  0  0  0  0  0
   38.1611   22.5896   39.1707 H   0  0  0  0  0  0  0  0  0  0  0  0
   42.0805   22.5966   35.8795 H   0  0  0  0  0  0  0  0  0  0  0  0
  1 16  1  0
  2  1  1  0
  3  2  2  0
  4  6  1  0
  4  3  1  0
  5  4  2  0
  6  7  1  0
  7  8  2  0
  7  1  1  0
  9 10  1  0
 10 11  2  0
 11  6  1  0
 12 11  1  0
 13  9  1  0
 13 12  2  0
 14 17  1  0
 15 14  1  0
 16 15  1  0
 16 14  1  0
 17 18  2  0
 18 19  1  0
 20 19  2  0
 21 20  1  0
 22 21  2  0
 22 17  1  0
 23 21  1  0
 24 23  2  0
  2 25  1  0
  3 26  1  0
  9 27  1  0
 12 28  1  0
 13 29  1  0
 14 30  1  1
 15 31  1  0
 15 32  1  0
 16 33  1  1
 18 34  1  0
 19 35  1  0
 23 36  1  0
M  ISO  8  25  14  26  14  27   9  28  14  29  14  30  13  31  13  32  13
M  ISO  4  33  13  34  14  35  14  36   6
M  END
>  <minimizedAffinity>  (1) 
-5.28647614

>  <minimizedRMSD>  (1) 
0.100174755

$$$$
