
     RDKit          3D

 40 42  0  0  0  0  0  0  0  0999 V2000
   38.1910   23.7660   34.6140 N   0  0  0  0  0  0  0  0  0  0  0  0
   38.1470   22.7700   33.7250 N   0  0  0  0  0  0  0  0  0  0  0  0
   37.9000   23.2210   32.5040 C   0  0  0  0  0  0  0  0  0  0  0  0
   37.7770   24.5900   32.6150 C   0  0  0  0  0  0  0  0  0  0  0  0
   37.9660   24.9290   33.9700 C   0  0  0  0  0  0  0  0  0  0  0  0
   37.4570   23.9800   36.9080 C   0  0  0  0  0  0  0  0  0  0  0  0
   38.4330   23.6120   35.9810 C   0  0  0  0  0  0  0  0  0  0  0  0
   39.6530   23.0870   36.4260 C   0  0  0  0  0  0  0  0  0  0  0  0
   39.8110   22.9680   37.7820 N   0  0  0  0  0  0  0  0  0  0  0  0
   38.8650   23.3270   38.6600 C   0  0  0  0  0  0  0  0  0  0  0  0
   37.6790   23.8360   38.2220 N   0  0  0  0  0  0  0  0  0  0  0  0
   37.9170   26.2570   34.5000 N   0  0  0  0  0  0  0  0  0  0  0  0
   38.9940   26.8410   35.2190 C   0  0  0  0  0  0  0  0  0  0  0  0
   40.1980   26.5230   34.7840 N   0  0  0  0  0  0  0  0  0  0  0  0
   38.6420   27.7010   36.3250 N   0  0  0  0  0  0  0  0  0  0  0  0
   40.9680   26.9660   35.3290 H   0  0  0  0  0  0  0  0  0  0  0  0
   37.5000   25.5820   31.5430 C   0  0  0  0  0  0  0  0  0  0  0  0
   36.0370   25.9520   31.5780 C   0  0  0  0  0  0  0  0  0  0  0  0
   35.9450   27.4200   31.9550 C   0  0  0  0  0  0  0  0  0  0  0  0
   36.5920   28.1900   30.8160 C   0  0  0  0  0  0  0  0  0  0  0  0
   38.0700   27.9380   30.8920 C   0  0  0  0  0  0  0  0  0  0  0  0
   38.4400   26.7240   31.7120 C   0  0  0  0  0  0  0  0  0  0  0  0
   37.8108   22.6229   31.5852 H   0  0  0  0  0  0  0  0  0  0  0  0
   36.4987   24.3912   36.5579 H   0  0  0  0  0  0  0  0  0  0  0  0
   40.4436   22.7857   35.7231 H   0  0  0  0  0  0  0  0  0  0  0  0
   39.0462   23.2105   39.7387 H   0  0  0  0  0  0  0  0  0  0  0  0
   37.0632   26.8142   34.3538 H   0  0  0  0  0  0  0  0  0  0  0  0
   39.3815   28.1519   36.8824 H   0  0  0  0  0  0  0  0  0  0  0  0
   37.6515   27.8633   36.5562 H   0  0  0  0  0  0  0  0  0  0  0  0
   37.6778   25.1770   30.5358 H   0  0  0  0  0  0  0  0  0  0  0  0
   35.5850   25.7896   30.5884 H   0  0  0  0  0  0  0  0  0  0  0  0
   35.4981   25.3305   32.3083 H   0  0  0  0  0  0  0  0  0  0  0  0
   34.8927   27.7195   32.0688 H   0  0  0  0  0  0  0  0  0  0  0  0
   36.4483   27.6209   32.9123 H   0  0  0  0  0  0  0  0  0  0  0  0
   36.3871   29.2653   30.9240 H   0  0  0  0  0  0  0  0  0  0  0  0
   36.1898   27.8628   29.8458 H   0  0  0  0  0  0  0  0  0  0  0  0
   38.4505   27.7953   29.8698 H   0  0  0  0  0  0  0  0  0  0  0  0
   38.5186   28.8101   31.3902 H   0  0  0  0  0  0  0  0  0  0  0  0
   38.4507   27.0115   32.7737 H   0  0  0  0  0  0  0  0  0  0  0  0
   39.4258   26.3853   31.3605 H   0  0  0  0  0  0  0  0  0  0  0  0
  1  7  1  0
  2  1  1  0
  3  4  1  0
  3  2  2  0
  4  5  2  0
  5 12  1  0
  5  1  1  0
  6 11  2  0
  7  8  2  0
  7  6  1  0
  8  9  1  0
  9 10  2  0
 11 10  1  0
 12 13  1  0
 13 15  1  0
 14 13  2  0
 14 16  1  0
 17 18  1  0
 17 22  1  0
 17  4  1  0
 18 19  1  0
 20 21  1  0
 20 19  1  0
 21 22  1  0
  3 23  1  0
  6 24  1  0
  8 25  1  0
 10 26  1  0
 12 27  1  0
 15 28  1  0
 15 29  1  0
 17 30  1  0
 18 31  1  0
 18 32  1  0
 19 33  1  0
 19 34  1  0
 20 35  1  0
 20 36  1  0
 21 37  1  0
 21 38  1  0
 22 39  1  0
 22 40  1  0
M  ISO  8  23  14  24  14  25  14  26  14  30  13  31  13  32  13  33  13
M  ISO  7  34  13  35  13  36  13  37  13  38  13  39  13  40  13
M  END
>  <minimizedAffinity>  (1) 
-5.55292225

>  <minimizedRMSD>  (1) 
0.797635734

$$$$
