
     RDKit          3D

 35 38  0  0  0  0  0  0  0  0999 V2000
   38.9900   23.8890   34.4030 N   0  0  0  0  0  0  0  0  0  0  0  0
   39.3050   23.0040   33.4590 N   0  0  0  0  0  0  0  0  0  0  0  0
   39.2900   23.5530   32.2510 C   0  0  0  0  0  0  0  0  0  0  0  0
   38.9430   24.8750   32.4500 C   0  0  0  0  0  0  0  0  0  0  0  0
   38.7510   25.0940   33.8210 C   0  0  0  0  0  0  0  0  0  0  0  0
   38.8110   25.8300   31.4030 N   0  0  0  0  0  0  0  0  0  0  0  0
   39.7080   25.8410   30.3900 C   0  0  0  0  0  0  0  0  0  0  0  0
   39.3880   26.8170   29.5260 N   0  0  0  0  0  0  0  0  0  0  0  0
   38.2990   27.4470   29.9520 C   0  0  0  0  0  0  0  0  0  0  0  0
   37.4810   28.5030   29.5410 C   0  0  0  0  0  0  0  0  0  0  0  0
   36.4230   28.8390   30.3000 N   0  0  0  0  0  0  0  0  0  0  0  0
   36.1030   28.2080   31.4450 C   0  0  0  0  0  0  0  0  0  0  0  0
   36.8770   27.1710   31.8800 N   0  0  0  0  0  0  0  0  0  0  0  0
   37.9440   26.8180   31.1330 C   0  0  0  0  0  0  0  0  0  0  0  0
   37.7360   23.7930   36.4780 C   0  0  0  0  0  0  0  0  0  0  0  0
   38.9180   23.6250   35.7830 C   0  0  0  0  0  0  0  0  0  0  0  0
   40.0760   23.1810   36.4560 C   0  0  0  0  0  0  0  0  0  0  0  0
   39.9400   22.9390   37.8020 N   0  0  0  0  0  0  0  0  0  0  0  0
   38.7900   23.1080   38.4560 C   0  0  0  0  0  0  0  0  0  0  0  0
   37.6840   23.5350   37.7970 N   0  0  0  0  0  0  0  0  0  0  0  0
   38.3840   26.3280   34.4180 N   0  0  0  0  0  0  0  0  0  0  0  0
   39.2370   27.0410   35.3190 C   0  0  0  0  0  0  0  0  0  0  0  0
   40.5190   26.9850   35.0340 N   0  0  0  0  0  0  0  0  0  0  0  0
   38.6140   27.7240   36.4100 N   0  0  0  0  0  0  0  0  0  0  0  0
   41.1360   27.5080   35.6950 H   0  0  0  0  0  0  0  0  0  0  0  0
   39.5081   23.0591   31.2926 H   0  0  0  0  0  0  0  0  0  0  0  0
   40.5644   25.1578   30.2903 H   0  0  0  0  0  0  0  0  0  0  0  0
   37.6990   29.0503   28.6120 H   0  0  0  0  0  0  0  0  0  0  0  0
   35.2245   28.5255   32.0259 H   0  0  0  0  0  0  0  0  0  0  0  0
   36.8345   24.1389   35.9510 H   0  0  0  0  0  0  0  0  0  0  0  0
   41.0330   23.0368   35.9332 H   0  0  0  0  0  0  0  0  0  0  0  0
   38.7382   22.9001   39.5349 H   0  0  0  0  0  0  0  0  0  0  0  0
   37.4622   26.7285   34.1927 H   0  0  0  0  0  0  0  0  0  0  0  0
   39.1886   28.2502   37.0837 H   0  0  0  0  0  0  0  0  0  0  0  0
   37.5907   27.6897   36.5221 H   0  0  0  0  0  0  0  0  0  0  0  0
  1 16  1  0
  2  1  1  0
  3  4  1  0
  3  2  2  0
  4  5  2  0
  5  1  1  0
  5 21  1  0
  6  4  1  0
  7  6  1  0
  8  9  1  0
  8  7  2  0
  9 14  2  0
 10  9  1  0
 10 11  2  0
 11 12  1  0
 12 13  2  0
 14  6  1  0
 14 13  1  0
 15 20  2  0
 16 17  2  0
 16 15  1  0
 17 18  1  0
 18 19  2  0
 20 19  1  0
 21 22  1  0
 22 24  1  0
 23 22  2  0
 23 25  1  0
  3 26  1  0
  7 27  1  0
 10 28  1  0
 12 29  1  0
 15 30  1  0
 17 31  1  0
 19 32  1  0
 21 33  1  0
 24 34  1  0
 24 35  1  0
M  ISO  7  26  14  27  14  28  14  29  14  30  14  31  14  32  14
M  END
>  <minimizedAffinity>  (1) 
-5.47645712

>  <minimizedRMSD>  (1) 
1.39774156

$$$$
