
     RDKit          3D

 36 38  0  0  0  0  0  0  0  0999 V2000
   38.1240   23.7240   34.7270 N   0  0  0  0  0  0  0  0  0  0  0  0
   38.1060   22.7430   33.8200 N   0  0  0  0  0  0  0  0  0  0  0  0
   37.7920   23.2080   32.6090 C   0  0  0  0  0  0  0  0  0  0  0  0
   37.6050   24.5670   32.7810 C   0  0  0  0  0  0  0  0  0  0  0  0
   37.8130   24.8950   34.1170 C   0  0  0  0  0  0  0  0  0  0  0  0
   37.4850   23.9190   37.0580 C   0  0  0  0  0  0  0  0  0  0  0  0
   38.4180   23.5570   36.0880 C   0  0  0  0  0  0  0  0  0  0  0  0
   39.6570   23.0240   36.4720 C   0  0  0  0  0  0  0  0  0  0  0  0
   39.8640   22.8950   37.8260 N   0  0  0  0  0  0  0  0  0  0  0  0
   38.9600   23.2450   38.7400 C   0  0  0  0  0  0  0  0  0  0  0  0
   37.7610   23.7610   38.3570 N   0  0  0  0  0  0  0  0  0  0  0  0
   37.7140   26.1940   34.6910 N   0  0  0  0  0  0  0  0  0  0  0  0
   38.8470   26.9480   35.1200 C   0  0  0  0  0  0  0  0  0  0  0  0
   39.9250   26.8040   34.3820 N   0  0  0  0  0  0  0  0  0  0  0  0
   38.6760   27.7570   36.2860 N   0  0  0  0  0  0  0  0  0  0  0  0
   40.7500   27.3600   34.7140 H   0  0  0  0  0  0  0  0  0  0  0  0
   37.2520   25.4540   31.7170 N   0  0  0  0  0  0  0  0  0  0  0  0
   35.9270   25.8030   31.2010 C   0  0  0  0  0  0  0  0  0  0  0  0
   36.0650   27.3020   31.0490 C   0  0  0  0  0  0  0  0  0  0  0  0
   37.5430   27.5780   30.8880 C   0  0  0  0  0  0  0  0  0  0  0  0
   38.1830   26.2060   30.9140 C   0  0  0  0  0  0  0  0  0  0  0  0
   37.7015   22.6337   31.6752 H   0  0  0  0  0  0  0  0  0  0  0  0
   36.5146   24.3377   36.7529 H   0  0  0  0  0  0  0  0  0  0  0  0
   40.4176   22.7269   35.7350 H   0  0  0  0  0  0  0  0  0  0  0  0
   39.1842   23.1161   39.8092 H   0  0  0  0  0  0  0  0  0  0  0  0
   36.7784   26.6101   34.8021 H   0  0  0  0  0  0  0  0  0  0  0  0
   39.4608   28.3222   36.6403 H   0  0  0  0  0  0  0  0  0  0  0  0
   37.7680   27.7748   36.7718 H   0  0  0  0  0  0  0  0  0  0  0  0
   35.7277   25.3153   30.2354 H   0  0  0  0  0  0  0  0  0  0  0  0
   35.0915   25.4863   31.8426 H   0  0  0  0  0  0  0  0  0  0  0  0
   35.5142   27.6471   30.1616 H   0  0  0  0  0  0  0  0  0  0  0  0
   35.6519   27.8319   31.9200 H   0  0  0  0  0  0  0  0  0  0  0  0
   37.9164   28.1982   31.7162 H   0  0  0  0  0  0  0  0  0  0  0  0
   37.7698   28.1309   29.9645 H   0  0  0  0  0  0  0  0  0  0  0  0
   38.2672   25.7854   29.9011 H   0  0  0  0  0  0  0  0  0  0  0  0
   39.2099   26.2040   31.3082 H   0  0  0  0  0  0  0  0  0  0  0  0
  1  7  1  0
  2  1  1  0
  3  4  1  0
  3  2  2  0
  4  5  2  0
  5 12  1  0
  5  1  1  0
  6 11  2  0
  7  8  2  0
  7  6  1  0
  8  9  1  0
  9 10  2  0
 11 10  1  0
 12 13  1  0
 13 15  1  0
 14 16  1  0
 14 13  2  0
 17  4  1  0
 18 17  1  0
 19 18  1  0
 20 21  1  0
 20 19  1  0
 21 17  1  0
  3 22  1  0
  6 23  1  0
  8 24  1  0
 10 25  1  0
 12 26  1  0
 15 27  1  0
 15 28  1  0
 18 29  1  0
 18 30  1  0
 19 31  1  0
 19 32  1  0
 20 33  1  0
 20 34  1  0
 21 35  1  0
 21 36  1  0
M  ISO  8  22  14  23  14  24  14  25  14  29  13  30  13  31  13  32  13
M  ISO  4  33  13  34  13  35  13  36  13
M  END
>  <minimizedAffinity>  (1) 
-5.22043848

>  <minimizedRMSD>  (1) 
0.148142099

$$$$
