
     RDKit          3D

 40 43  0  0  0  0  0  0  0  0999 V2000
   38.7590   23.9720   34.1780 N   0  0  0  0  0  0  0  0  0  0  0  0
   38.9010   23.0980   33.1880 N   0  0  0  0  0  0  0  0  0  0  0  0
   38.8780   23.7010   32.0010 C   0  0  0  0  0  0  0  0  0  0  0  0
   38.7070   25.0630   32.2710 C   0  0  0  0  0  0  0  0  0  0  0  0
   38.6350   25.2120   33.6570 C   0  0  0  0  0  0  0  0  0  0  0  0
   38.6230   26.1240   31.2720 C   0  0  0  0  0  0  0  0  0  0  0  0
   39.6450   26.0670   30.3200 C   0  0  0  0  0  0  0  0  0  0  0  0
   39.7060   27.0010   29.3080 C   0  0  0  0  0  0  0  0  0  0  0  0
   38.7370   27.9980   29.2480 C   0  0  0  0  0  0  0  0  0  0  0  0
   37.7300   28.0510   30.1890 C   0  0  0  0  0  0  0  0  0  0  0  0
   36.7520   28.9950   30.1910 C   0  0  0  0  0  0  0  0  0  0  0  0
   35.7240   29.0790   31.1210 C   0  0  0  0  0  0  0  0  0  0  0  0
   35.7420   28.0970   32.1030 C   0  0  0  0  0  0  0  0  0  0  0  0
   36.6980   27.0940   32.1840 C   0  0  0  0  0  0  0  0  0  0  0  0
   37.6630   27.1200   31.2050 C   0  0  0  0  0  0  0  0  0  0  0  0
   37.5820   23.7800   36.2830 C   0  0  0  0  0  0  0  0  0  0  0  0
   38.7420   23.6620   35.5440 C   0  0  0  0  0  0  0  0  0  0  0  0
   39.9270   23.2240   36.1610 C   0  0  0  0  0  0  0  0  0  0  0  0
   39.8380   22.9350   37.5080 N   0  0  0  0  0  0  0  0  0  0  0  0
   38.7040   23.0590   38.2020 C   0  0  0  0  0  0  0  0  0  0  0  0
   37.5630   23.4850   37.5850 N   0  0  0  0  0  0  0  0  0  0  0  0
   38.4610   26.4680   34.3200 N   0  0  0  0  0  0  0  0  0  0  0  0
   39.3900   26.9700   35.2780 C   0  0  0  0  0  0  0  0  0  0  0  0
   40.6570   26.7130   35.0220 N   0  0  0  0  0  0  0  0  0  0  0  0
   38.8450   27.6920   36.4010 N   0  0  0  0  0  0  0  0  0  0  0  0
   41.3120   27.1010   35.7330 H   0  0  0  0  0  0  0  0  0  0  0  0
   38.9736   23.2267   31.0131 H   0  0  0  0  0  0  0  0  0  0  0  0
   40.4041   25.2731   30.3787 H   0  0  0  0  0  0  0  0  0  0  0  0
   40.5097   26.9588   28.5581 H   0  0  0  0  0  0  0  0  0  0  0  0
   38.7744   28.7487   28.4449 H   0  0  0  0  0  0  0  0  0  0  0  0
   36.7767   29.7520   29.3932 H   0  0  0  0  0  0  0  0  0  0  0  0
   34.9540   29.8637   31.0828 H   0  0  0  0  0  0  0  0  0  0  0  0
   34.9485   28.1153   32.8646 H   0  0  0  0  0  0  0  0  0  0  0  0
   36.6845   26.3312   32.9765 H   0  0  0  0  0  0  0  0  0  0  0  0
   36.6593   24.1223   35.7917 H   0  0  0  0  0  0  0  0  0  0  0  0
   40.8693   23.1179   35.6034 H   0  0  0  0  0  0  0  0  0  0  0  0
   38.6890   22.8170   39.2749 H   0  0  0  0  0  0  0  0  0  0  0  0
   37.6297   27.0332   34.0957 H   0  0  0  0  0  0  0  0  0  0  0  0
   39.4739   28.0751   37.1212 H   0  0  0  0  0  0  0  0  0  0  0  0
   37.8269   27.8246   36.4829 H   0  0  0  0  0  0  0  0  0  0  0  0
  1 17  1  0
  2  1  1  0
  3  4  1  0
  3  2  2  0
  4  5  2  0
  5  1  1  0
  5 22  1  0
  6  4  1  0
  7  6  2  0
  8  7  1  0
  9  8  2  0
  9 10  1  0
 10 11  1  0
 10 15  2  0
 11 12  2  0
 12 13  1  0
 13 14  2  0
 15  6  1  0
 15 14  1  0
 16 21  2  0
 17 18  2  0
 17 16  1  0
 18 19  1  0
 19 20  2  0
 21 20  1  0
 22 23  1  0
 23 25  1  0
 24 23  2  0
 24 26  1  0
  3 27  1  0
  7 28  1  0
  8 29  1  0
  9 30  1  0
 11 31  1  0
 12 32  1  0
 13 33  1  0
 14 34  1  0
 16 35  1  0
 18 36  1  0
 20 37  1  0
 22 38  1  0
 25 39  1  0
 25 40  1  0
M  ISO  8  27  14  28  14  29  14  30  14  31  14  32  14  33  14  34  14
M  ISO  3  35  14  36  14  37  14
M  END
>  <minimizedAffinity>  (1) 
-5.66715479

>  <minimizedRMSD>  (1) 
1.45911181

$$$$
