
     RDKit          3D

 31 33  0  0  0  0  0  0  0  0999 V2000
   38.1730   23.8240   34.7610 N   0  0  0  0  0  0  0  0  0  0  0  0
   38.1860   22.9100   33.8030 N   0  0  0  0  0  0  0  0  0  0  0  0
   37.8830   23.4140   32.6150 C   0  0  0  0  0  0  0  0  0  0  0  0
   37.6600   24.7640   32.8440 C   0  0  0  0  0  0  0  0  0  0  0  0
   37.8490   25.0090   34.2140 C   0  0  0  0  0  0  0  0  0  0  0  0
   37.5080   23.8800   37.0890 C   0  0  0  0  0  0  0  0  0  0  0  0
   38.4520   23.5970   36.1210 C   0  0  0  0  0  0  0  0  0  0  0  0
   39.7040   23.0780   36.4880 C   0  0  0  0  0  0  0  0  0  0  0  0
   39.9010   22.8850   37.8280 N   0  0  0  0  0  0  0  0  0  0  0  0
   38.9800   23.1630   38.7520 C   0  0  0  0  0  0  0  0  0  0  0  0
   37.7670   23.6670   38.3820 N   0  0  0  0  0  0  0  0  0  0  0  0
   37.7080   26.2900   34.8420 N   0  0  0  0  0  0  0  0  0  0  0  0
   38.8250   27.0320   35.3370 C   0  0  0  0  0  0  0  0  0  0  0  0
   39.9200   26.9410   34.6340 N   0  0  0  0  0  0  0  0  0  0  0  0
   38.6150   27.7870   36.5420 N   0  0  0  0  0  0  0  0  0  0  0  0
   40.7210   27.4940   35.0140 H   0  0  0  0  0  0  0  0  0  0  0  0
   37.2910   25.8210   31.8910 C   0  0  0  0  0  0  0  0  0  0  0  0
   38.2640   26.5870   31.2400 C   0  0  0  0  0  0  0  0  0  0  0  0
   37.5850   27.4730   30.4290 C   0  0  0  0  0  0  0  0  0  0  0  0
   36.2440   27.2110   30.6200 C   0  0  0  0  0  0  0  0  0  0  0  0
   36.1000   26.2290   31.4880 O   0  0  0  0  0  0  0  0  0  0  0  0
   37.8217   22.8784   31.6562 H   0  0  0  0  0  0  0  0  0  0  0  0
   36.5301   24.2861   36.7911 H   0  0  0  0  0  0  0  0  0  0  0  0
   40.4787   22.8412   35.7439 H   0  0  0  0  0  0  0  0  0  0  0  0
   39.1989   22.9855   39.8153 H   0  0  0  0  0  0  0  0  0  0  0  0
   36.7646   26.6915   34.9404 H   0  0  0  0  0  0  0  0  0  0  0  0
   39.3852   28.3403   36.9439 H   0  0  0  0  0  0  0  0  0  0  0  0
   37.6943   27.7747   37.0036 H   0  0  0  0  0  0  0  0  0  0  0  0
   39.3548   26.5001   31.3525 H   0  0  0  0  0  0  0  0  0  0  0  0
   38.0234   28.2331   29.7656 H   0  0  0  0  0  0  0  0  0  0  0  0
   35.4187   27.7417   30.1227 H   0  0  0  0  0  0  0  0  0  0  0  0
  1  7  1  0
  2  1  1  0
  3  4  1  0
  3  2  2  0
  4  5  2  0
  5  1  1  0
  5 12  1  0
  6 11  2  0
  7  8  2  0
  7  6  1  0
  8  9  1  0
  9 10  2  0
 11 10  1  0
 12 13  1  0
 13 15  1  0
 14 16  1  0
 14 13  2  0
 17  4  1  0
 18 17  2  0
 19 20  2  0
 19 18  1  0
 20 21  1  0
 21 17  1  0
  3 22  1  0
  6 23  1  0
  8 24  1  0
 10 25  1  0
 12 26  1  0
 15 27  1  0
 15 28  1  0
 18 29  1  0
 19 30  1  0
 20 31  1  0
M  ISO  7  22  14  23  14  24  14  25  14  29  14  30  14  31  14
M  END
>  <minimizedAffinity>  (1) 
-4.97770548

>  <minimizedRMSD>  (1) 
0.397930622

$$$$
