
     RDKit          3D

 27 28  0  0  0  0  0  0  0  0999 V2000
   38.0840   23.6800   34.7590 N   0  0  0  0  0  0  0  0  0  0  0  0
   38.0400   22.6950   33.8750 N   0  0  0  0  0  0  0  0  0  0  0  0
   37.7150   23.1410   32.6600 C   0  0  0  0  0  0  0  0  0  0  0  0
   37.5460   24.5020   32.8050 C   0  0  0  0  0  0  0  0  0  0  0  0
   37.7800   24.8480   34.1350 C   0  0  0  0  0  0  0  0  0  0  0  0
   37.4780   23.9110   37.0870 C   0  0  0  0  0  0  0  0  0  0  0  0
   38.3950   23.5390   36.1130 C   0  0  0  0  0  0  0  0  0  0  0  0
   39.6340   23.0180   36.5040 C   0  0  0  0  0  0  0  0  0  0  0  0
   39.8650   22.9080   37.8480 N   0  0  0  0  0  0  0  0  0  0  0  0
   38.9700   23.2730   38.7700 C   0  0  0  0  0  0  0  0  0  0  0  0
   37.7680   23.7770   38.3840 N   0  0  0  0  0  0  0  0  0  0  0  0
   37.7010   26.1650   34.6680 N   0  0  0  0  0  0  0  0  0  0  0  0
   38.8390   26.8820   35.1250 C   0  0  0  0  0  0  0  0  0  0  0  0
   39.9370   26.7000   34.4300 N   0  0  0  0  0  0  0  0  0  0  0  0
   38.6470   27.7180   36.2890 N   0  0  0  0  0  0  0  0  0  0  0  0
   40.7520   27.2450   34.7790 H   0  0  0  0  0  0  0  0  0  0  0  0
   37.1720   25.4550   31.7070 C   0  0  0  0  0  0  0  0  0  0  0  0
   35.9640   26.0950   31.9770 F   0  0  0  0  0  0  0  0  0  0  0  0
   38.1250   26.4280   31.5110 F   0  0  0  0  0  0  0  0  0  0  0  0
   36.9350   24.7520   30.5250 F   0  0  0  0  0  0  0  0  0  0  0  0
   37.6053   22.5493   31.7392 H   0  0  0  0  0  0  0  0  0  0  0  0
   36.5021   24.3205   36.7873 H   0  0  0  0  0  0  0  0  0  0  0  0
   40.3878   22.7109   35.7641 H   0  0  0  0  0  0  0  0  0  0  0  0
   39.2051   23.1660   39.8392 H   0  0  0  0  0  0  0  0  0  0  0  0
   36.7779   26.6184   34.7250 H   0  0  0  0  0  0  0  0  0  0  0  0
   39.4351   28.2625   36.6677 H   0  0  0  0  0  0  0  0  0  0  0  0
   37.7222   27.7690   36.7395 H   0  0  0  0  0  0  0  0  0  0  0  0
  1  7  1  0
  2  1  1  0
  3  4  1  0
  3  2  2  0
  4  5  2  0
  5 12  1  0
  5  1  1  0
  6 11  2  0
  7  8  2  0
  7  6  1  0
  8  9  1  0
  9 10  2  0
 11 10  1  0
 12 13  1  0
 13 15  1  0
 14 16  1  0
 14 13  2  0
 17 18  1  0
 17  4  1  0
 19 17  1  0
 20 17  1  0
  3 21  1  0
  6 22  1  0
  8 23  1  0
 10 24  1  0
 12 25  1  0
 15 26  1  0
 15 27  1  0
M  ISO  4  21  14  22  14  23  14  24  14
M  END
>  <minimizedAffinity>  (1) 
-4.95466518

>  <minimizedRMSD>  (1) 
0.423915446

$$$$
