
     RDKit          3D

 27 28  0  0  0  0  0  0  0  0999 V2000
   38.1310   23.7120   34.7240 N   0  0  0  0  0  0  0  0  0  0  0  0
   38.1220   22.7310   33.8230 N   0  0  0  0  0  0  0  0  0  0  0  0
   37.8150   23.1890   32.6060 C   0  0  0  0  0  0  0  0  0  0  0  0
   37.6230   24.5440   32.7670 C   0  0  0  0  0  0  0  0  0  0  0  0
   37.8210   24.8810   34.1060 C   0  0  0  0  0  0  0  0  0  0  0  0
   37.4830   23.9290   37.0460 C   0  0  0  0  0  0  0  0  0  0  0  0
   38.4140   23.5590   36.0840 C   0  0  0  0  0  0  0  0  0  0  0  0
   39.6560   23.0260   36.4850 C   0  0  0  0  0  0  0  0  0  0  0  0
   39.8590   22.9080   37.8340 N   0  0  0  0  0  0  0  0  0  0  0  0
   38.9570   23.2670   38.7450 C   0  0  0  0  0  0  0  0  0  0  0  0
   37.7560   23.7820   38.3560 N   0  0  0  0  0  0  0  0  0  0  0  0
   37.7120   26.1810   34.6590 N   0  0  0  0  0  0  0  0  0  0  0  0
   38.8510   26.9220   35.1110 C   0  0  0  0  0  0  0  0  0  0  0  0
   39.9420   26.7710   34.4070 N   0  0  0  0  0  0  0  0  0  0  0  0
   38.6570   27.7440   36.2860 N   0  0  0  0  0  0  0  0  0  0  0  0
   40.7510   27.3370   34.7560 H   0  0  0  0  0  0  0  0  0  0  0  0
   37.2680   25.4240   31.6550 C   0  0  0  0  0  0  0  0  0  0  0  0
   37.4510   26.6740   31.6730 O   0  0  0  0  0  0  0  0  0  0  0  0
   36.6960   24.9710   30.4800 O   0  0  0  0  0  0  0  0  0  0  0  0
   37.7331   22.6088   31.6751 H   0  0  0  0  0  0  0  0  0  0  0  0
   36.5139   24.3459   36.7347 H   0  0  0  0  0  0  0  0  0  0  0  0
   40.4200   22.7217   35.7544 H   0  0  0  0  0  0  0  0  0  0  0  0
   39.1814   23.1477   39.8152 H   0  0  0  0  0  0  0  0  0  0  0  0
   36.7786   26.6091   34.7389 H   0  0  0  0  0  0  0  0  0  0  0  0
   39.4388   28.3008   36.6598 H   0  0  0  0  0  0  0  0  0  0  0  0
   37.7371   27.7723   36.7485 H   0  0  0  0  0  0  0  0  0  0  0  0
   36.5090   24.0062   30.3603 H   0  0  0  0  0  0  0  0  0  0  0  0
  1  7  1  0
  2  1  1  0
  3  4  1  0
  3  2  2  0
  4  5  2  0
  5 12  1  0
  5  1  1  0
  6 11  2  0
  7  8  2  0
  7  6  1  0
  8  9  1  0
  9 10  2  0
 11 10  1  0
 12 13  1  0
 13 15  1  0
 14 16  1  0
 14 13  2  0
 17 18  2  0
 17  4  1  0
 19 17  1  0
  3 20  1  0
  6 21  1  0
  8 22  1  0
 10 23  1  0
 12 24  1  0
 15 25  1  0
 15 26  1  0
 19 27  1  0
M  ISO  5  20  14  21  14  22  14  23  14  27   3
M  END
>  <minimizedAffinity>  (1) 
-4.92708254

>  <minimizedRMSD>  (1) 
0.109979123

$$$$
