
     RDKit          3D

 34 36  0  0  0  0  0  0  0  0999 V2000
   38.6530   24.0720   34.3680 N   0  0  0  0  0  0  0  0  0  0  0  0
   38.8140   23.2360   33.3570 N   0  0  0  0  0  0  0  0  0  0  0  0
   38.6630   23.8420   32.1870 C   0  0  0  0  0  0  0  0  0  0  0  0
   38.3830   25.1720   32.4940 C   0  0  0  0  0  0  0  0  0  0  0  0
   38.3820   25.2950   33.8790 C   0  0  0  0  0  0  0  0  0  0  0  0
   37.6330   23.8320   36.5550 C   0  0  0  0  0  0  0  0  0  0  0  0
   38.7540   23.7210   35.7280 C   0  0  0  0  0  0  0  0  0  0  0  0
   39.9660   23.2620   36.2550 C   0  0  0  0  0  0  0  0  0  0  0  0
   39.9480   22.9480   37.5940 N   0  0  0  0  0  0  0  0  0  0  0  0
   38.8760   23.0580   38.3720 C   0  0  0  0  0  0  0  0  0  0  0  0
   37.7000   23.5060   37.8500 N   0  0  0  0  0  0  0  0  0  0  0  0
   38.1320   26.2570   31.5450 C   0  0  0  0  0  0  0  0  0  0  0  0
   39.1000   26.9800   30.8640 C   0  0  0  0  0  0  0  0  0  0  0  0
   38.7230   27.9830   29.9920 C   0  0  0  0  0  0  0  0  0  0  0  0
   37.3890   28.2860   29.7830 C   0  0  0  0  0  0  0  0  0  0  0  0
   36.4320   27.5670   30.4600 C   0  0  0  0  0  0  0  0  0  0  0  0
   36.8000   26.5540   31.3400 C   0  0  0  0  0  0  0  0  0  0  0  0
   38.1330   26.5160   34.5860 N   0  0  0  0  0  0  0  0  0  0  0  0
   39.0850   27.1300   35.4520 C   0  0  0  0  0  0  0  0  0  0  0  0
   40.3350   27.0340   35.0530 N   0  0  0  0  0  0  0  0  0  0  0  0
   38.5710   27.7640   36.6280 N   0  0  0  0  0  0  0  0  0  0  0  0
   41.0140   27.5010   35.6860 H   0  0  0  0  0  0  0  0  0  0  0  0
   38.7420   23.3907   31.1870 H   0  0  0  0  0  0  0  0  0  0  0  0
   36.6825   24.1925   36.1348 H   0  0  0  0  0  0  0  0  0  0  0  0
   40.8722   23.1592   35.6400 H   0  0  0  0  0  0  0  0  0  0  0  0
   38.9382   22.7876   39.4364 H   0  0  0  0  0  0  0  0  0  0  0  0
   40.1657   26.7553   31.0179 H   0  0  0  0  0  0  0  0  0  0  0  0
   39.4967   28.5507   29.4544 H   0  0  0  0  0  0  0  0  0  0  0  0
   37.0993   29.0877   29.0877 H   0  0  0  0  0  0  0  0  0  0  0  0
   35.3671   27.7945   30.3046 H   0  0  0  0  0  0  0  0  0  0  0  0
   36.0246   25.9865   31.8755 H   0  0  0  0  0  0  0  0  0  0  0  0
   37.2188   26.9741   34.4623 H   0  0  0  0  0  0  0  0  0  0  0  0
   39.2143   28.2231   37.2885 H   0  0  0  0  0  0  0  0  0  0  0  0
   37.5579   27.7610   36.8137 H   0  0  0  0  0  0  0  0  0  0  0  0
  1  7  1  0
  2  1  1  0
  3  4  1  0
  3  2  2  0
  4  5  2  0
  5  1  1  0
  5 18  1  0
  6 11  2  0
  7  8  2  0
  7  6  1  0
  8  9  1  0
  9 10  2  0
 11 10  1  0
 12  4  1  0
 13 12  2  0
 14 13  1  0
 15 14  2  0
 15 16  1  0
 16 17  2  0
 17 12  1  0
 18 19  1  0
 19 21  1  0
 20 19  2  0
 20 22  1  0
  3 23  1  0
  6 24  1  0
  8 25  1  0
 10 26  1  0
 13 27  1  0
 14 28  1  0
 15 29  1  0
 16 30  1  0
 17 31  1  0
 18 32  1  0
 21 33  1  0
 21 34  1  0
M  ISO  8  23  14  24  14  25  14  26  14  27  14  28  14  29  14  30  14
M  ISO  1  31  14
M  END
>  <minimizedAffinity>  (1) 
-4.89982033

>  <minimizedRMSD>  (1) 
1.09993982

$$$$
