
     RDKit          3D

 33 34  0  0  0  0  0  0  0  0999 V2000
   38.0770   23.6220   34.8120 N   0  0  0  0  0  0  0  0  0  0  0  0
   38.0270   22.6020   33.9570 N   0  0  0  0  0  0  0  0  0  0  0  0
   37.7050   23.0240   32.7220 C   0  0  0  0  0  0  0  0  0  0  0  0
   37.5480   24.4080   32.8380 C   0  0  0  0  0  0  0  0  0  0  0  0
   37.7850   24.7700   34.1580 C   0  0  0  0  0  0  0  0  0  0  0  0
   37.4660   23.8960   37.1420 C   0  0  0  0  0  0  0  0  0  0  0  0
   38.3850   23.5090   36.1690 C   0  0  0  0  0  0  0  0  0  0  0  0
   39.6420   22.9970   36.5610 C   0  0  0  0  0  0  0  0  0  0  0  0
   39.8750   22.9150   37.9100 N   0  0  0  0  0  0  0  0  0  0  0  0
   38.9770   23.2930   38.8260 C   0  0  0  0  0  0  0  0  0  0  0  0
   37.7770   23.7810   38.4450 N   0  0  0  0  0  0  0  0  0  0  0  0
   37.7190   26.1000   34.6630 N   0  0  0  0  0  0  0  0  0  0  0  0
   38.8610   26.7900   35.1880 C   0  0  0  0  0  0  0  0  0  0  0  0
   39.9980   26.5390   34.5630 N   0  0  0  0  0  0  0  0  0  0  0  0
   38.6430   27.6610   36.3170 N   0  0  0  0  0  0  0  0  0  0  0  0
   40.8130   27.0550   34.9640 H   0  0  0  0  0  0  0  0  0  0  0  0
   37.1850   25.2620   31.6760 C   0  0  0  0  0  0  0  0  0  0  0  0
   35.8850   24.8890   31.0360 C   0  0  0  0  0  0  0  0  0  0  0  0
   38.2800   25.3360   30.6350 C   0  0  0  0  0  0  0  0  0  0  0  0
   37.5899   22.4119   31.8153 H   0  0  0  0  0  0  0  0  0  0  0  0
   36.4855   24.2958   36.8441 H   0  0  0  0  0  0  0  0  0  0  0  0
   40.3941   22.6808   35.8232 H   0  0  0  0  0  0  0  0  0  0  0  0
   39.2173   23.2059   39.8959 H   0  0  0  0  0  0  0  0  0  0  0  0
   36.8117   26.5873   34.6506 H   0  0  0  0  0  0  0  0  0  0  0  0
   39.4330   28.1779   36.7287 H   0  0  0  0  0  0  0  0  0  0  0  0
   37.6973   27.7660   36.7114 H   0  0  0  0  0  0  0  0  0  0  0  0
   37.0566   26.2650   32.1091 H   0  0  0  0  0  0  0  0  0  0  0  0
   35.1400   24.6752   31.8166 H   0  0  0  0  0  0  0  0  0  0  0  0
   35.5319   25.7221   30.4104 H   0  0  0  0  0  0  0  0  0  0  0  0
   36.0273   23.9955   30.4104 H   0  0  0  0  0  0  0  0  0  0  0  0
   39.2575   25.4021   31.1351 H   0  0  0  0  0  0  0  0  0  0  0  0
   38.2499   24.4338   30.0064 H   0  0  0  0  0  0  0  0  0  0  0  0
   38.1288   26.2260   30.0064 H   0  0  0  0  0  0  0  0  0  0  0  0
  1  7  1  0
  2  1  1  0
  3  4  1  0
  3  2  2  0
  4  5  2  0
  5 12  1  0
  5  1  1  0
  6 11  2  0
  7  8  2  0
  7  6  1  0
  8  9  1  0
  9 10  2  0
 11 10  1  0
 12 13  1  0
 13 15  1  0
 14 16  1  0
 14 13  2  0
 17  4  1  0
 18 17  1  0
 19 17  1  0
  3 20  1  0
  6 21  1  0
  8 22  1  0
 10 23  1  0
 12 24  1  0
 15 25  1  0
 15 26  1  0
 17 27  1  0
 18 28  1  0
 18 29  1  0
 18 30  1  0
 19 31  1  0
 19 32  1  0
 19 33  1  0
M  ISO  8  20  14  21  14  22  14  23  14  27   8  28   8  29   8  30   8
M  ISO  3  31   8  32   8  33   8
M  END
>  <minimizedAffinity>  (1) 
-4.87429571

>  <minimizedRMSD>  (1) 
0.130305737

$$$$
