
     RDKit          3D

 31 33  0  0  0  0  0  0  0  0999 V2000
   38.0870   23.6770   34.7610 N   0  0  0  0  0  0  0  0  0  0  0  0
   38.0140   22.6760   33.8860 N   0  0  0  0  0  0  0  0  0  0  0  0
   37.7120   23.1100   32.6680 C   0  0  0  0  0  0  0  0  0  0  0  0
   37.5870   24.4800   32.7930 C   0  0  0  0  0  0  0  0  0  0  0  0
   37.8240   24.8360   34.1120 C   0  0  0  0  0  0  0  0  0  0  0  0
   37.4640   23.9220   37.0840 C   0  0  0  0  0  0  0  0  0  0  0  0
   38.3880   23.5450   36.1270 C   0  0  0  0  0  0  0  0  0  0  0  0
   39.6350   23.0290   36.5200 C   0  0  0  0  0  0  0  0  0  0  0  0
   39.8530   22.9320   37.8690 N   0  0  0  0  0  0  0  0  0  0  0  0
   38.9560   23.2980   38.7790 C   0  0  0  0  0  0  0  0  0  0  0  0
   37.7570   23.7940   38.3870 N   0  0  0  0  0  0  0  0  0  0  0  0
   37.7880   26.1680   34.6330 N   0  0  0  0  0  0  0  0  0  0  0  0
   38.9330   26.8160   35.1980 C   0  0  0  0  0  0  0  0  0  0  0  0
   40.0750   26.5410   34.6030 N   0  0  0  0  0  0  0  0  0  0  0  0
   38.6960   27.6750   36.3290 N   0  0  0  0  0  0  0  0  0  0  0  0
   40.8940   27.0290   35.0250 H   0  0  0  0  0  0  0  0  0  0  0  0
   37.2490   25.4240   31.6760 C   0  0  0  0  0  0  0  0  0  0  0  0
   36.0340   25.1660   30.8420 C   0  0  0  0  0  0  0  0  0  0  0  0
   36.0280   26.2880   31.8440 C   0  0  0  0  0  0  0  0  0  0  0  0
   37.5880   22.5081   31.7557 H   0  0  0  0  0  0  0  0  0  0  0  0
   36.4884   24.3270   36.7770 H   0  0  0  0  0  0  0  0  0  0  0  0
   40.3934   22.7203   35.7855 H   0  0  0  0  0  0  0  0  0  0  0  0
   39.1866   23.1984   39.8499 H   0  0  0  0  0  0  0  0  0  0  0  0
   36.8975   26.6845   34.6001 H   0  0  0  0  0  0  0  0  0  0  0  0
   39.4829   28.1670   36.7759 H   0  0  0  0  0  0  0  0  0  0  0  0
   37.7396   27.7975   36.6912 H   0  0  0  0  0  0  0  0  0  0  0  0
   38.3114   25.5968   31.4493 H   0  0  0  0  0  0  0  0  0  0  0  0
   36.0488   25.3910   29.7654 H   0  0  0  0  0  0  0  0  0  0  0  0
   35.3943   24.2917   30.6514 H   0  0  0  0  0  0  0  0  0  0  0  0
   35.4183   26.2090   32.7561 H   0  0  0  0  0  0  0  0  0  0  0  0
   35.8255   27.3685   31.8040 H   0  0  0  0  0  0  0  0  0  0  0  0
  1  7  1  0
  2  1  1  0
  3  4  1  0
  3  2  2  0
  4  5  2  0
  5 12  1  0
  5  1  1  0
  6 11  2  0
  7  8  2  0
  7  6  1  0
  8  9  1  0
  9 10  2  0
 11 10  1  0
 12 13  1  0
 13 15  1  0
 14 16  1  0
 14 13  2  0
 17 19  1  0
 17  4  1  0
 18 17  1  0
 18 19  1  0
  3 20  1  0
  6 21  1  0
  8 22  1  0
 10 23  1  0
 12 24  1  0
 15 25  1  0
 15 26  1  0
 17 27  1  0
 18 28  1  0
 18 29  1  0
 19 30  1  0
 19 31  1  0
M  ISO  8  20  14  21  14  22  14  23  14  27  13  28  13  29  13  30  13
M  ISO  1  31  13
M  END
>  <minimizedAffinity>  (1) 
-4.78096056

>  <minimizedRMSD>  (1) 
0.0717068911

$$$$
