
     RDKit          3D

 30 32  0  0  0  0  0  0  0  0999 V2000
   38.3040   23.8450   34.6660 N   0  0  0  0  0  0  0  0  0  0  0  0
   38.3660   22.9200   33.7200 N   0  0  0  0  0  0  0  0  0  0  0  0
   38.1270   23.4590   32.5190 C   0  0  0  0  0  0  0  0  0  0  0  0
   37.9050   24.8010   32.7420 C   0  0  0  0  0  0  0  0  0  0  0  0
   38.0210   25.0280   34.1120 C   0  0  0  0  0  0  0  0  0  0  0  0
   37.4950   23.8930   36.9590 C   0  0  0  0  0  0  0  0  0  0  0  0
   38.5080   23.6040   36.0370 C   0  0  0  0  0  0  0  0  0  0  0  0
   39.7270   23.0730   36.4820 C   0  0  0  0  0  0  0  0  0  0  0  0
   39.8390   22.8700   37.8390 N   0  0  0  0  0  0  0  0  0  0  0  0
   38.8610   23.1530   38.6970 C   0  0  0  0  0  0  0  0  0  0  0  0
   37.6850   23.6650   38.2650 N   0  0  0  0  0  0  0  0  0  0  0  0
   37.8560   26.3080   34.7360 N   0  0  0  0  0  0  0  0  0  0  0  0
   38.9360   27.0150   35.3430 C   0  0  0  0  0  0  0  0  0  0  0  0
   40.0990   26.9050   34.7310 N   0  0  0  0  0  0  0  0  0  0  0  0
   38.6410   27.7600   36.5390 N   0  0  0  0  0  0  0  0  0  0  0  0
   40.8690   27.4260   35.2000 H   0  0  0  0  0  0  0  0  0  0  0  0
   37.5980   25.8560   31.7860 C   0  0  0  0  0  0  0  0  0  0  0  0
   38.7100   26.5330   31.1210 C   0  0  0  0  0  0  0  0  0  0  0  0
   37.8830   27.7770   30.0120 S   0  0  0  0  0  0  0  0  0  0  0  0
   36.2000   27.1700   30.6360 C   0  0  0  0  0  0  0  0  0  0  0  0
   36.4550   26.3580   31.3710 N   0  0  0  0  0  0  0  0  0  0  0  0
   38.1109   22.9374   31.5507 H   0  0  0  0  0  0  0  0  0  0  0  0
   36.5387   24.3092   36.6093 H   0  0  0  0  0  0  0  0  0  0  0  0
   40.5457   22.8328   35.7877 H   0  0  0  0  0  0  0  0  0  0  0  0
   39.0108   22.9683   39.7710 H   0  0  0  0  0  0  0  0  0  0  0  0
   36.9187   26.7349   34.7465 H   0  0  0  0  0  0  0  0  0  0  0  0
   39.3872   28.2872   37.0146 H   0  0  0  0  0  0  0  0  0  0  0  0
   37.6837   27.7658   36.9191 H   0  0  0  0  0  0  0  0  0  0  0  0
   39.7872   26.3493   31.2472 H   0  0  0  0  0  0  0  0  0  0  0  0
   35.2018   27.5296   30.3457 H   0  0  0  0  0  0  0  0  0  0  0  0
  1  7  1  0
  2  1  1  0
  3  4  1  0
  3  2  2  0
  4  5  2  0
  5  1  1  0
  5 12  1  0
  6 11  2  0
  7  8  2  0
  7  6  1  0
  8  9  1  0
  9 10  2  0
 11 10  1  0
 12 13  1  0
 13 15  1  0
 14 16  1  0
 14 13  2  0
 17  4  1  0
 18 17  2  0
 19 20  1  0
 19 18  1  0
 20 21  2  0
 21 17  1  0
  3 22  1  0
  6 23  1  0
  8 24  1  0
 10 25  1  0
 12 26  1  0
 15 27  1  0
 15 28  1  0
 18 29  1  0
 20 30  1  0
M  ISO  6  22  14  23  14  24  14  25  14  29  14  30  14
M  END
>  <minimizedAffinity>  (1) 
-4.8318119

>  <minimizedRMSD>  (1) 
0.343454629

$$$$
