
     RDKit          3D

 34 36  0  0  0  0  0  0  0  0999 V2000
   38.9410   24.2150   33.8690 N   0  0  0  0  0  0  0  0  0  0  0  0
   39.1260   23.5040   32.7650 N   0  0  0  0  0  0  0  0  0  0  0  0
   38.8870   24.2310   31.6650 C   0  0  0  0  0  0  0  0  0  0  0  0
   38.5290   25.4800   32.1240 C   0  0  0  0  0  0  0  0  0  0  0  0
   38.5640   25.4710   33.5230 C   0  0  0  0  0  0  0  0  0  0  0  0
   38.0060   23.5890   36.0120 C   0  0  0  0  0  0  0  0  0  0  0  0
   39.1060   23.7530   35.1770 C   0  0  0  0  0  0  0  0  0  0  0  0
   40.3850   23.4520   35.6570 C   0  0  0  0  0  0  0  0  0  0  0  0
   40.4720   23.0040   36.9510 N   0  0  0  0  0  0  0  0  0  0  0  0
   39.3920   22.8540   37.7390 C   0  0  0  0  0  0  0  0  0  0  0  0
   38.1610   23.1460   37.2690 N   0  0  0  0  0  0  0  0  0  0  0  0
   38.2530   26.5890   34.3420 N   0  0  0  0  0  0  0  0  0  0  0  0
   39.1620   27.1180   35.3040 C   0  0  0  0  0  0  0  0  0  0  0  0
   40.4300   27.1070   34.9490 N   0  0  0  0  0  0  0  0  0  0  0  0
   38.5980   27.6000   36.5380 N   0  0  0  0  0  0  0  0  0  0  0  0
   41.0700   27.5120   35.6670 H   0  0  0  0  0  0  0  0  0  0  0  0
   38.1910   26.5660   31.2110 C   0  0  0  0  0  0  0  0  0  0  0  0
   36.9300   27.1040   31.0830 C   0  0  0  0  0  0  0  0  0  0  0  0
   36.6740   28.1470   30.1850 C   0  0  0  0  0  0  0  0  0  0  0  0
   37.7000   28.6690   29.3940 C   0  0  0  0  0  0  0  0  0  0  0  0
   38.9960   28.1560   29.4890 C   0  0  0  0  0  0  0  0  0  0  0  0
   39.1520   27.1310   30.3990 C   0  0  0  0  0  0  0  0  0  0  0  0
   38.9609   23.9010   30.6183 H   0  0  0  0  0  0  0  0  0  0  0  0
   36.9987   23.8248   35.6382 H   0  0  0  0  0  0  0  0  0  0  0  0
   41.2789   23.5690   35.0267 H   0  0  0  0  0  0  0  0  0  0  0  0
   39.5127   22.4919   38.7706 H   0  0  0  0  0  0  0  0  0  0  0  0
   37.3313   27.0365   34.2362 H   0  0  0  0  0  0  0  0  0  0  0  0
   39.2118   27.9920   37.2663 H   0  0  0  0  0  0  0  0  0  0  0  0
   37.5807   27.5528   36.6924 H   0  0  0  0  0  0  0  0  0  0  0  0
   36.1087   26.7070   31.6976 H   0  0  0  0  0  0  0  0  0  0  0  0
   35.6573   28.5585   30.1017 H   0  0  0  0  0  0  0  0  0  0  0  0
   37.4864   29.4887   28.6922 H   0  0  0  0  0  0  0  0  0  0  0  0
   39.8298   28.5407   28.8834 H   0  0  0  0  0  0  0  0  0  0  0  0
   40.1659   26.7137   30.4877 H   0  0  0  0  0  0  0  0  0  0  0  0
  1  7  1  0
  2  1  1  0
  3  4  1  0
  3  2  2  0
  4  5  2  0
  5  1  1  0
  5 12  1  0
  6 11  2  0
  7  8  2  0
  7  6  1  0
  8  9  1  0
  9 10  2  0
 11 10  1  0
 12 13  1  0
 13 15  1  0
 14 13  2  0
 14 16  1  0
 17  4  1  0
 18 17  2  0
 19 18  1  0
 20 21  1  0
 20 19  2  0
 21 22  2  0
 22 17  1  0
  3 23  1  0
  6 24  1  0
  8 25  1  0
 10 26  1  0
 12 27  1  0
 15 28  1  0
 15 29  1  0
 18 30  1  0
 19 31  1  0
 20 32  1  0
 21 33  1  0
 22 34  1  0
M  ISO  8  23  14  24  14  25  14  26  14  30  14  31  14  32  14  33  14
M  ISO  1  34  14
M  END
>  <minimizedAffinity>  (1) 
-4.88439608

>  <minimizedRMSD>  (1) 
1.41968775

$$$$
