
     RDKit          3D

 30 32  0  0  0  0  0  0  0  0999 V2000
   38.1530   23.8670   34.7250 N   0  0  0  0  0  0  0  0  0  0  0  0
   38.1570   22.9500   33.7570 N   0  0  0  0  0  0  0  0  0  0  0  0
   37.8550   23.4900   32.5730 C   0  0  0  0  0  0  0  0  0  0  0  0
   37.6530   24.8290   32.8300 C   0  0  0  0  0  0  0  0  0  0  0  0
   37.8400   25.0740   34.1850 C   0  0  0  0  0  0  0  0  0  0  0  0
   37.4920   23.9030   37.0520 C   0  0  0  0  0  0  0  0  0  0  0  0
   38.4290   23.6200   36.0760 C   0  0  0  0  0  0  0  0  0  0  0  0
   39.6750   23.0780   36.4460 C   0  0  0  0  0  0  0  0  0  0  0  0
   39.8780   22.8620   37.7820 N   0  0  0  0  0  0  0  0  0  0  0  0
   38.9500   23.1470   38.7120 C   0  0  0  0  0  0  0  0  0  0  0  0
   37.7580   23.6660   38.3430 N   0  0  0  0  0  0  0  0  0  0  0  0
   37.7200   26.3320   34.8380 N   0  0  0  0  0  0  0  0  0  0  0  0
   38.8260   27.0570   35.3410 C   0  0  0  0  0  0  0  0  0  0  0  0
   39.9270   26.9760   34.6260 N   0  0  0  0  0  0  0  0  0  0  0  0
   38.6180   27.7940   36.5660 N   0  0  0  0  0  0  0  0  0  0  0  0
   40.7260   27.5160   35.0240 H   0  0  0  0  0  0  0  0  0  0  0  0
   37.3080   25.8220   31.8710 N   0  0  0  0  0  0  0  0  0  0  0  0
   36.0640   26.1670   31.4900 C   0  0  0  0  0  0  0  0  0  0  0  0
   36.1210   27.1520   30.5570 N   0  0  0  0  0  0  0  0  0  0  0  0
   37.4420   27.4100   30.3710 C   0  0  0  0  0  0  0  0  0  0  0  0
   38.1510   26.5790   31.1900 N   0  0  0  0  0  0  0  0  0  0  0  0
   37.7831   22.9769   31.6027 H   0  0  0  0  0  0  0  0  0  0  0  0
   36.5183   24.3270   36.7655 H   0  0  0  0  0  0  0  0  0  0  0  0
   40.4463   22.8402   35.6987 H   0  0  0  0  0  0  0  0  0  0  0  0
   39.1612   22.9575   39.7748 H   0  0  0  0  0  0  0  0  0  0  0  0
   36.7793   26.7361   34.9505 H   0  0  0  0  0  0  0  0  0  0  0  0
   39.3896   28.3391   36.9764 H   0  0  0  0  0  0  0  0  0  0  0  0
   37.6981   27.7743   37.0290 H   0  0  0  0  0  0  0  0  0  0  0  0
   35.1378   25.7174   31.8773 H   0  0  0  0  0  0  0  0  0  0  0  0
   37.8652   28.1562   29.6825 H   0  0  0  0  0  0  0  0  0  0  0  0
  1  7  1  0
  2  1  1  0
  3  4  1  0
  3  2  2  0
  4  5  2  0
  5  1  1  0
  5 12  1  0
  6 11  2  0
  7  8  2  0
  7  6  1  0
  8  9  1  0
  9 10  2  0
 11 10  1  0
 12 13  1  0
 13 15  1  0
 14 16  1  0
 14 13  2  0
 17  4  1  0
 18 17  1  0
 19 18  2  0
 20 19  1  0
 20 21  2  0
 21 17  1  0
  3 22  1  0
  6 23  1  0
  8 24  1  0
 10 25  1  0
 12 26  1  0
 15 27  1  0
 15 28  1  0
 18 29  1  0
 20 30  1  0
M  ISO  6  22  14  23  14  24  14  25  14  29  14  30  14
M  END
>  <minimizedAffinity>  (1) 
-4.88712025

>  <minimizedRMSD>  (1) 
0.364691854

$$$$
