
     RDKit          3D

 37 40  0  0  0  0  0  0  0  0999 V2000
   39.6320   23.5920   34.7490 N   0  0  0  0  0  0  0  0  0  0  0  0
   40.2440   22.6670   34.0230 N   0  0  0  0  0  0  0  0  0  0  0  0
   40.4730   23.1060   32.7880 C   0  0  0  0  0  0  0  0  0  0  0  0
   39.9580   24.4030   32.7520 C   0  0  0  0  0  0  0  0  0  0  0  0
   39.4280   24.7100   33.9890 C   0  0  0  0  0  0  0  0  0  0  0  0
   37.9200   23.7070   36.4710 C   0  0  0  0  0  0  0  0  0  0  0  0
   39.2480   23.4470   36.0920 C   0  0  0  0  0  0  0  0  0  0  0  0
   40.1620   23.0500   37.0580 C   0  0  0  0  0  0  0  0  0  0  0  0
   39.6860   22.9390   38.3390 N   0  0  0  0  0  0  0  0  0  0  0  0
   38.4330   23.1860   38.6900 C   0  0  0  0  0  0  0  0  0  0  0  0
   37.5400   23.5730   37.7510 N   0  0  0  0  0  0  0  0  0  0  0  0
   38.8220   25.9480   34.3230 N   0  0  0  0  0  0  0  0  0  0  0  0
   39.4840   26.9240   35.1530 C   0  0  0  0  0  0  0  0  0  0  0  0
   40.7970   27.0280   34.9730 N   0  0  0  0  0  0  0  0  0  0  0  0
   38.6820   27.6740   36.0680 N   0  0  0  0  0  0  0  0  0  0  0  0
   41.2370   27.7480   35.5820 H   0  0  0  0  0  0  0  0  0  0  0  0
   40.0260   25.1800   31.5620 N   0  0  0  0  0  0  0  0  0  0  0  0
   41.0040   25.9270   30.9800 C   0  0  0  0  0  0  0  0  0  0  0  0
   40.4710   26.4480   29.8080 C   0  0  0  0  0  0  0  0  0  0  0  0
   39.2140   26.0210   29.7010 N   0  0  0  0  0  0  0  0  0  0  0  0
   38.9250   25.2400   30.7740 C   0  0  0  0  0  0  0  0  0  0  0  0
   37.5880   24.6130   30.9570 C   0  0  0  0  0  0  0  0  0  0  0  0
   37.3780   23.2480   30.8740 C   0  0  0  0  0  0  0  0  0  0  0  0
   35.5870   23.0610   31.1760 S   0  0  0  0  0  0  0  0  0  0  0  0
   35.4060   24.9400   31.3730 C   0  0  0  0  0  0  0  0  0  0  0  0
   36.4670   25.2420   31.2100 N   0  0  0  0  0  0  0  0  0  0  0  0
   40.9645   22.5617   31.9682 H   0  0  0  0  0  0  0  0  0  0  0  0
   37.1873   24.0224   35.7136 H   0  0  0  0  0  0  0  0  0  0  0  0
   41.2119   22.8359   36.8093 H   0  0  0  0  0  0  0  0  0  0  0  0
   38.1206   23.0770   39.7390 H   0  0  0  0  0  0  0  0  0  0  0  0
   37.8802   26.1564   33.9617 H   0  0  0  0  0  0  0  0  0  0  0  0
   39.1194   28.3800   36.6772 H   0  0  0  0  0  0  0  0  0  0  0  0
   37.6666   27.5084   36.1182 H   0  0  0  0  0  0  0  0  0  0  0  0
   42.0220   26.0874   31.3645 H   0  0  0  0  0  0  0  0  0  0  0  0
   40.9953   27.0993   29.0932 H   0  0  0  0  0  0  0  0  0  0  0  0
   38.1177   22.4591   30.6729 H   0  0  0  0  0  0  0  0  0  0  0  0
   34.5164   25.5512   31.5854 H   0  0  0  0  0  0  0  0  0  0  0  0
  1  7  1  0
  2  1  1  0
  3  2  2  0
  4  3  1  0
  4  5  2  0
  5 12  1  0
  5  1  1  0
  6 11  2  0
  7  6  1  0
  7  8  2  0
  8  9  1  0
  9 10  2  0
 11 10  1  0
 12 13  1  0
 13 15  1  0
 14 13  2  0
 14 16  1  0
 17  4  1  0
 18 17  1  0
 19 18  2  0
 20 19  1  0
 20 21  2  0
 21 22  1  0
 21 17  1  0
 22 26  1  0
 23 22  2  0
 23 24  1  0
 24 25  1  0
 26 25  2  0
  3 27  1  0
  6 28  1  0
  8 29  1  0
 10 30  1  0
 12 31  1  0
 15 32  1  0
 15 33  1  0
 18 34  1  0
 19 35  1  0
 23 36  1  0
 25 37  1  0
M  ISO  8  27  14  28  14  29  14  30  14  34  14  35  14  36  14  37  14
M  END
>  <minimizedAffinity>  (1) 
-5.2536931

>  <minimizedRMSD>  (1) 
2.45517087

$$$$
