
     RDKit          3D

 36 39  0  0  0  0  0  0  0  0999 V2000
   39.4560   23.7390   34.5710 N   0  0  0  0  0  0  0  0  0  0  0  0
   40.0080   22.8400   33.7540 N   0  0  0  0  0  0  0  0  0  0  0  0
   40.2000   23.3560   32.5450 C   0  0  0  0  0  0  0  0  0  0  0  0
   39.7350   24.6700   32.6150 C   0  0  0  0  0  0  0  0  0  0  0  0
   39.2670   24.9090   33.8930 C   0  0  0  0  0  0  0  0  0  0  0  0
   37.7970   23.6980   36.3390 C   0  0  0  0  0  0  0  0  0  0  0  0
   39.1260   23.5080   35.9150 C   0  0  0  0  0  0  0  0  0  0  0  0
   40.0880   23.0970   36.8270 C   0  0  0  0  0  0  0  0  0  0  0  0
   39.6740   22.8980   38.1140 N   0  0  0  0  0  0  0  0  0  0  0  0
   38.4160   23.0780   38.5130 C   0  0  0  0  0  0  0  0  0  0  0  0
   37.4590   23.4830   37.6200 N   0  0  0  0  0  0  0  0  0  0  0  0
   38.7190   26.1360   34.3460 N   0  0  0  0  0  0  0  0  0  0  0  0
   39.4390   27.0140   35.2360 C   0  0  0  0  0  0  0  0  0  0  0  0
   40.7480   27.0740   35.0370 N   0  0  0  0  0  0  0  0  0  0  0  0
   38.6820   27.7180   36.2240 N   0  0  0  0  0  0  0  0  0  0  0  0
   41.2330   27.7220   35.6920 H   0  0  0  0  0  0  0  0  0  0  0  0
   39.7840   25.5200   31.4840 N   0  0  0  0  0  0  0  0  0  0  0  0
   40.7620   26.2980   30.9280 C   0  0  0  0  0  0  0  0  0  0  0  0
   40.2060   26.9050   29.8090 C   0  0  0  0  0  0  0  0  0  0  0  0
   38.9390   26.5010   29.7070 N   0  0  0  0  0  0  0  0  0  0  0  0
   38.6760   25.6520   30.7320 C   0  0  0  0  0  0  0  0  0  0  0  0
   37.3480   25.0380   30.8930 C   0  0  0  0  0  0  0  0  0  0  0  0
   36.9880   23.7560   30.7510 N   0  0  0  0  0  0  0  0  0  0  0  0
   35.7180   23.6020   30.9780 O   0  0  0  0  0  0  0  0  0  0  0  0
   35.1770   24.7700   31.2790 C   0  0  0  0  0  0  0  0  0  0  0  0
   36.2010   25.6380   31.2200 N   0  0  0  0  0  0  0  0  0  0  0  0
   40.6355   22.8518   31.6697 H   0  0  0  0  0  0  0  0  0  0  0  0
   37.0329   24.0238   35.6179 H   0  0  0  0  0  0  0  0  0  0  0  0
   41.1347   22.9388   36.5279 H   0  0  0  0  0  0  0  0  0  0  0  0
   38.1442   22.9007   39.5640 H   0  0  0  0  0  0  0  0  0  0  0  0
   37.7775   26.4089   34.0297 H   0  0  0  0  0  0  0  0  0  0  0  0
   39.1570   28.3550   36.8794 H   0  0  0  0  0  0  0  0  0  0  0  0
   37.6618   27.5881   36.2802 H   0  0  0  0  0  0  0  0  0  0  0  0
   41.7913   26.4197   31.2963 H   0  0  0  0  0  0  0  0  0  0  0  0
   40.7205   27.5975   29.1266 H   0  0  0  0  0  0  0  0  0  0  0  0
   34.1258   24.9832   31.5228 H   0  0  0  0  0  0  0  0  0  0  0  0
  1  7  1  0
  2  1  1  0
  3  4  1  0
  3  2  2  0
  4  5  2  0
  5 12  1  0
  5  1  1  0
  6 11  2  0
  7  6  1  0
  7  8  2  0
  8  9  1  0
  9 10  2  0
 11 10  1  0
 12 13  1  0
 13 15  1  0
 14 13  2  0
 14 16  1  0
 17  4  1  0
 18 17  1  0
 19 18  2  0
 20 19  1  0
 20 21  2  0
 21 22  1  0
 21 17  1  0
 22 26  1  0
 23 22  2  0
 23 24  1  0
 24 25  1  0
 26 25  2  0
  3 27  1  0
  6 28  1  0
  8 29  1  0
 10 30  1  0
 12 31  1  0
 15 32  1  0
 15 33  1  0
 18 34  1  0
 19 35  1  0
 25 36  1  0
M  ISO  7  27  14  28  14  29  14  30  14  34  14  35  14  36  14
M  END
>  <minimizedAffinity>  (1) 
-5.4265666

>  <minimizedRMSD>  (1) 
2.32005143

$$$$
