
     RDKit          3D

 32 34  0  0  0  0  0  0  0  0999 V2000
   38.1590   23.7630   34.8200 N   0  0  0  0  0  0  0  0  0  0  0  0
   38.1930   22.8670   33.8390 N   0  0  0  0  0  0  0  0  0  0  0  0
   37.8190   23.4090   32.6800 C   0  0  0  0  0  0  0  0  0  0  0  0
   37.5340   24.7320   32.9670 C   0  0  0  0  0  0  0  0  0  0  0  0
   37.7520   24.9470   34.3200 C   0  0  0  0  0  0  0  0  0  0  0  0
   37.5230   23.6360   37.1510 C   0  0  0  0  0  0  0  0  0  0  0  0
   38.4950   23.5120   36.1600 C   0  0  0  0  0  0  0  0  0  0  0  0
   39.7910   23.1410   36.5110 C   0  0  0  0  0  0  0  0  0  0  0  0
   40.0290   22.9170   37.8360 N   0  0  0  0  0  0  0  0  0  0  0  0
   39.1040   23.0350   38.7780 C   0  0  0  0  0  0  0  0  0  0  0  0
   37.8410   23.3970   38.4340 N   0  0  0  0  0  0  0  0  0  0  0  0
   37.5620   26.1970   34.9800 N   0  0  0  0  0  0  0  0  0  0  0  0
   38.6590   27.0530   35.3440 C   0  0  0  0  0  0  0  0  0  0  0  0
   39.6590   27.0860   34.4800 N   0  0  0  0  0  0  0  0  0  0  0  0
   38.5740   27.7710   36.5750 N   0  0  0  0  0  0  0  0  0  0  0  0
   40.4420   27.7160   34.7580 H   0  0  0  0  0  0  0  0  0  0  0  0
   37.0950   25.6400   31.9540 N   0  0  0  0  0  0  0  0  0  0  0  0
   37.5930   26.7570   31.3830 C   0  0  0  0  0  0  0  0  0  0  0  0
   36.6690   27.1880   30.4380 C   0  0  0  0  0  0  0  0  0  0  0  0
   35.6420   26.3320   30.4560 N   0  0  0  0  0  0  0  0  0  0  0  0
   35.8970   25.3930   31.3740 C   0  0  0  0  0  0  0  0  0  0  0  0
   34.8880   24.4160   31.5010 O   0  0  0  0  0  0  0  0  0  0  0  0
   37.7513   22.9098   31.7021 H   0  0  0  0  0  0  0  0  0  0  0  0
   36.4972   23.9291   36.8830 H   0  0  0  0  0  0  0  0  0  0  0  0
   40.5843   23.0338   35.7566 H   0  0  0  0  0  0  0  0  0  0  0  0
   39.3575   22.8411   39.8307 H   0  0  0  0  0  0  0  0  0  0  0  0
   36.6029   26.4981   35.2045 H   0  0  0  0  0  0  0  0  0  0  0  0
   39.3436   28.3920   36.8632 H   0  0  0  0  0  0  0  0  0  0  0  0
   37.7431   27.6681   37.1749 H   0  0  0  0  0  0  0  0  0  0  0  0
   38.5532   27.2378   31.6215 H   0  0  0  0  0  0  0  0  0  0  0  0
   36.7653   28.0732   29.7922 H   0  0  0  0  0  0  0  0  0  0  0  0
   34.9903   23.6810   32.1563 H   0  0  0  0  0  0  0  0  0  0  0  0
  1  7  1  0
  2  1  1  0
  3  4  1  0
  3  2  2  0
  4  5  2  0
  5  1  1  0
  5 12  1  0
  6 11  2  0
  7  8  2  0
  7  6  1  0
  8  9  1  0
  9 10  2  0
 11 10  1  0
 12 13  1  0
 13 15  1  0
 14 16  1  0
 14 13  2  0
 17  4  1  0
 18 17  1  0
 19 20  1  0
 19 18  2  0
 20 21  2  0
 21 22  1  0
 21 17  1  0
  3 23  1  0
  6 24  1  0
  8 25  1  0
 10 26  1  0
 12 27  1  0
 15 28  1  0
 15 29  1  0
 18 30  1  0
 19 31  1  0
 22 32  1  0
M  ISO  7  23  14  24  14  25  14  26  14  30  14  31  14  32   3
M  END
>  <minimizedAffinity>  (1) 
-4.8512311

>  <minimizedRMSD>  (1) 
0.297013938

$$$$
