
     RDKit          3D

 37 39  0  0  0  0  0  0  0  0999 V2000
   38.9930   24.2730   33.7460 N   0  0  0  0  0  0  0  0  0  0  0  0
   39.1790   23.5780   32.6300 N   0  0  0  0  0  0  0  0  0  0  0  0
   38.8980   24.3160   31.5490 C   0  0  0  0  0  0  0  0  0  0  0  0
   38.5100   25.5540   32.0590 C   0  0  0  0  0  0  0  0  0  0  0  0
   38.5720   25.5230   33.4370 C   0  0  0  0  0  0  0  0  0  0  0  0
   38.0940   23.5470   35.8880 C   0  0  0  0  0  0  0  0  0  0  0  0
   39.2000   23.7790   35.0490 C   0  0  0  0  0  0  0  0  0  0  0  0
   40.4830   23.5210   35.5130 C   0  0  0  0  0  0  0  0  0  0  0  0
   40.5800   23.0430   36.7960 N   0  0  0  0  0  0  0  0  0  0  0  0
   39.5290   22.8260   37.5840 C   0  0  0  0  0  0  0  0  0  0  0  0
   38.2760   23.0780   37.1320 N   0  0  0  0  0  0  0  0  0  0  0  0
   38.2470   26.6100   34.2890 N   0  0  0  0  0  0  0  0  0  0  0  0
   39.1680   27.1280   35.2620 C   0  0  0  0  0  0  0  0  0  0  0  0
   40.4270   27.1330   34.8950 N   0  0  0  0  0  0  0  0  0  0  0  0
   38.6260   27.5780   36.5110 N   0  0  0  0  0  0  0  0  0  0  0  0
   41.0780   27.5180   35.6130 H   0  0  0  0  0  0  0  0  0  0  0  0
   38.1270   26.6140   31.1740 N   0  0  0  0  0  0  0  0  0  0  0  0
   38.8080   27.4770   30.3930 C   0  0  0  0  0  0  0  0  0  0  0  0
   37.8740   28.2820   29.7620 C   0  0  0  0  0  0  0  0  0  0  0  0
   36.6590   27.8980   30.1650 N   0  0  0  0  0  0  0  0  0  0  0  0
   36.7940   26.8700   31.0360 C   0  0  0  0  0  0  0  0  0  0  0  0
   35.6250   26.1810   31.6980 C   0  0  0  0  0  0  0  0  0  0  0  0
   34.9870   25.2160   30.7290 C   0  0  0  0  0  0  0  0  0  0  0  0
   38.9596   24.0130   30.4934 H   0  0  0  0  0  0  0  0  0  0  0  0
   37.0767   23.7509   35.5226 H   0  0  0  0  0  0  0  0  0  0  0  0
   41.3719   23.6902   34.8874 H   0  0  0  0  0  0  0  0  0  0  0  0
   39.6777   22.4415   38.6038 H   0  0  0  0  0  0  0  0  0  0  0  0
   37.3164   27.0436   34.2068 H   0  0  0  0  0  0  0  0  0  0  0  0
   39.2508   27.9567   37.2370 H   0  0  0  0  0  0  0  0  0  0  0  0
   37.6118   27.5225   36.6822 H   0  0  0  0  0  0  0  0  0  0  0  0
   39.9007   27.5315   30.2785 H   0  0  0  0  0  0  0  0  0  0  0  0
   38.0937   29.0945   29.0537 H   0  0  0  0  0  0  0  0  0  0  0  0
   35.9782   25.6308   32.5826 H   0  0  0  0  0  0  0  0  0  0  0  0
   34.8836   26.9343   32.0027 H   0  0  0  0  0  0  0  0  0  0  0  0
   34.4647   24.4260   31.2886 H   0  0  0  0  0  0  0  0  0  0  0  0
   34.2664   25.7546   30.0960 H   0  0  0  0  0  0  0  0  0  0  0  0
   35.7648   24.7639   30.0960 H   0  0  0  0  0  0  0  0  0  0  0  0
  1  7  1  0
  2  1  1  0
  3  4  1  0
  3  2  2  0
  4  5  2  0
  5  1  1  0
  5 12  1  0
  6 11  2  0
  7  8  2  0
  7  6  1  0
  8  9  1  0
  9 10  2  0
 11 10  1  0
 12 13  1  0
 13 15  1  0
 14 13  2  0
 14 16  1  0
 17  4  1  0
 18 17  1  0
 19 20  1  0
 19 18  2  0
 20 21  2  0
 21 17  1  0
 21 22  1  0
 23 22  1  0
  3 24  1  0
  6 25  1  0
  8 26  1  0
 10 27  1  0
 12 28  1  0
 15 29  1  0
 15 30  1  0
 18 31  1  0
 19 32  1  0
 22 33  1  0
 22 34  1  0
 23 35  1  0
 23 36  1  0
 23 37  1  0
M  ISO  8  24  14  25  14  26  14  27  14  31  14  32  14  33   8  34   8
M  ISO  3  35   8  36   8  37   8
M  END
>  <minimizedAffinity>  (1) 
-4.91603899

>  <minimizedRMSD>  (1) 
1.6620158

$$$$
