
     RDKit          3D

 44 47  0  0  0  0  0  0  0  0999 V2000
   38.3280   24.1800   34.0920 N   0  0  0  0  0  0  0  0  0  0  0  0
   38.3420   23.4040   33.0210 N   0  0  0  0  0  0  0  0  0  0  0  0
   38.0110   24.0990   31.9200 C   0  0  0  0  0  0  0  0  0  0  0  0
   37.7840   25.3780   32.3680 C   0  0  0  0  0  0  0  0  0  0  0  0
   37.9820   25.4490   33.7480 C   0  0  0  0  0  0  0  0  0  0  0  0
   37.4010   26.4240   31.4720 N   0  0  0  0  0  0  0  0  0  0  0  0
   36.2700   27.1090   31.2120 C   0  0  0  0  0  0  0  0  0  0  0  0
   36.5480   28.0150   30.1900 C   0  0  0  0  0  0  0  0  0  0  0  0
   37.8340   27.8700   29.8450 N   0  0  0  0  0  0  0  0  0  0  0  0
   38.3450   26.8990   30.6310 C   0  0  0  0  0  0  0  0  0  0  0  0
   39.7430   26.6300   30.3990 N   0  0  0  0  0  0  0  0  0  0  0  0
   40.0590   26.1770   29.0640 C   0  0  0  0  0  0  0  0  0  0  0  0
   41.2910   25.3260   29.0020 C   0  0  0  0  0  0  0  0  0  0  0  0
   42.0820   25.4050   30.1380 O   0  0  0  0  0  0  0  0  0  0  0  0
   42.0810   26.6650   30.7130 C   0  0  0  0  0  0  0  0  0  0  0  0
   40.7440   26.8100   31.4250 C   0  0  0  0  0  0  0  0  0  0  0  0
   37.6380   23.6800   36.3630 C   0  0  0  0  0  0  0  0  0  0  0  0
   38.6340   23.7490   35.4000 C   0  0  0  0  0  0  0  0  0  0  0  0
   39.9340   23.3920   35.7390 C   0  0  0  0  0  0  0  0  0  0  0  0
   40.1580   22.9880   37.0210 N   0  0  0  0  0  0  0  0  0  0  0  0
   39.1820   22.9290   37.9390 C   0  0  0  0  0  0  0  0  0  0  0  0
   37.9110   23.2750   37.6180 N   0  0  0  0  0  0  0  0  0  0  0  0
   37.8360   26.6070   34.5550 N   0  0  0  0  0  0  0  0  0  0  0  0
   38.9110   27.0980   35.3660 C   0  0  0  0  0  0  0  0  0  0  0  0
   40.1240   26.9840   34.8470 N   0  0  0  0  0  0  0  0  0  0  0  0
   38.5820   27.6630   36.6390 N   0  0  0  0  0  0  0  0  0  0  0  0
   40.8780   27.3740   35.4570 H   0  0  0  0  0  0  0  0  0  0  0  0
   37.9378   23.7264   30.8876 H   0  0  0  0  0  0  0  0  0  0  0  0
   35.3012   26.9768   31.7159 H   0  0  0  0  0  0  0  0  0  0  0  0
   35.8357   28.7251   29.7446 H   0  0  0  0  0  0  0  0  0  0  0  0
   39.2098   25.5898   28.6846 H   0  0  0  0  0  0  0  0  0  0  0  0
   40.2505   27.0718   28.4535 H   0  0  0  0  0  0  0  0  0  0  0  0
   40.9830   24.2788   28.8657 H   0  0  0  0  0  0  0  0  0  0  0  0
   41.8966   25.6986   28.1627 H   0  0  0  0  0  0  0  0  0  0  0  0
   42.9075   26.7554   31.4332 H   0  0  0  0  0  0  0  0  0  0  0  0
   42.2166   27.4501   29.9545 H   0  0  0  0  0  0  0  0  0  0  0  0
   40.6555   27.8083   31.8785 H   0  0  0  0  0  0  0  0  0  0  0  0
   40.6321   26.0789   32.2392 H   0  0  0  0  0  0  0  0  0  0  0  0
   36.6082   23.9607   36.0972 H   0  0  0  0  0  0  0  0  0  0  0  0
   40.7493   23.4339   35.0018 H   0  0  0  0  0  0  0  0  0  0  0  0
   39.4148   22.5969   38.9615 H   0  0  0  0  0  0  0  0  0  0  0  0
   36.9355   27.1070   34.5581 H   0  0  0  0  0  0  0  0  0  0  0  0
   39.3278   28.0262   37.2495 H   0  0  0  0  0  0  0  0  0  0  0  0
   37.5994   27.7065   36.9447 H   0  0  0  0  0  0  0  0  0  0  0  0
  1 18  1  0
  2  1  1  0
  3  4  1  0
  3  2  2  0
  4  5  2  0
  5  1  1  0
  5 23  1  0
  6  4  1  0
  7  6  1  0
  8  7  2  0
  9  8  1  0
  9 10  2  0
 10  6  1  0
 11 10  1  0
 11 16  1  0
 12 11  1  0
 13 12  1  0
 13 14  1  0
 14 15  1  0
 15 16  1  0
 17 22  2  0
 18 19  2  0
 18 17  1  0
 19 20  1  0
 20 21  2  0
 22 21  1  0
 23 24  1  0
 24 26  1  0
 25 24  2  0
 25 27  1  0
  3 28  1  0
  7 29  1  0
  8 30  1  0
 12 31  1  0
 12 32  1  0
 13 33  1  0
 13 34  1  0
 15 35  1  0
 15 36  1  0
 16 37  1  0
 16 38  1  0
 17 39  1  0
 19 40  1  0
 21 41  1  0
 23 42  1  0
 26 43  1  0
 26 44  1  0
M  ISO  8  28  14  29  14  30  14  31  13  32  13  33  13  34  13  35  13
M  ISO  6  36  13  37  13  38  13  39  14  40  14  41  14
M  END
>  <minimizedAffinity>  (1) 
-5.11264038

>  <minimizedRMSD>  (1) 
4.20486927

$$$$
