
     RDKit          3D

 27 29  0  0  0  0  0  0  0  0999 V2000
   37.6210   21.8960   35.3700 C   0  0  0  0  0  0  0  0  0  0  0  0
   36.4120   21.3430   35.3750 C   0  0  0  0  0  0  0  0  0  0  0  0
   35.7540   20.6830   34.4320 C   0  0  0  0  0  0  0  0  0  0  0  0
   36.6440   20.6340   33.2340 C   0  0  0  0  0  0  0  0  0  0  0  0
   38.2470   21.5360   33.6800 S   0  0  0  0  0  0  0  0  0  0  0  0
   39.8560   22.9660   37.9810 C   0  0  0  0  0  0  0  0  0  0  0  0
   39.0820   23.8460   38.7370 C   0  0  0  0  0  0  0  0  0  0  0  0
   37.7510   24.0880   38.3530 C   0  0  0  0  0  0  0  0  0  0  0  0
   37.2800   23.4350   37.2390 N   0  0  0  0  0  0  0  0  0  0  0  0
   38.0820   22.5810   36.5300 C   0  0  0  0  0  0  0  0  0  0  0  0
   39.3430   22.3540   36.8980 N   0  0  0  0  0  0  0  0  0  0  0  0
   36.6310   20.1240   31.9140 N   0  0  0  0  0  0  0  0  0  0  0  0
   37.3250   20.7570   30.9370 C   0  0  0  0  0  0  0  0  0  0  0  0
   37.2990   20.2450   29.6550 C   0  0  0  0  0  0  0  0  0  0  0  0
   36.5650   19.1050   29.4180 C   0  0  0  0  0  0  0  0  0  0  0  0
   36.5520   18.6460   28.2310 O   0  0  0  0  0  0  0  0  0  0  0  0
   35.8940   18.5140   30.4140 N   0  0  0  0  0  0  0  0  0  0  0  0
   35.9160   19.0100   31.6690 C   0  0  0  0  0  0  0  0  0  0  0  0
   35.2550   18.3950   32.5640 O   0  0  0  0  0  0  0  0  0  0  0  0
   35.8644   21.4515   36.3228 H   0  0  0  0  0  0  0  0  0  0  0  0
   34.7448   20.2534   34.5161 H   0  0  0  0  0  0  0  0  0  0  0  0
   40.8981   22.7699   38.2735 H   0  0  0  0  0  0  0  0  0  0  0  0
   39.5067   24.3438   39.6212 H   0  0  0  0  0  0  0  0  0  0  0  0
   37.1096   24.7755   38.9239 H   0  0  0  0  0  0  0  0  0  0  0  0
   37.9013   21.6665   31.1624 H   0  0  0  0  0  0  0  0  0  0  0  0
   37.8523   20.7370   28.8415 H   0  0  0  0  0  0  0  0  0  0  0  0
   35.3490   17.6622   30.2184 H   0  0  0  0  0  0  0  0  0  0  0  0
  1  2  2  0
  1 10  1  0
  3  2  1  0
  4  5  1  0
  4  3  2  0
  5  1  1  0
  6  7  2  0
  8  7  1  0
  9  8  2  0
 10 11  2  0
 10  9  1  0
 11  6  1  0
 12  4  1  0
 13 12  1  0
 14 13  2  0
 15 14  1  0
 15 17  1  0
 16 15  2  0
 17 18  1  0
 18 12  1  0
 18 19  2  0
  2 20  1  0
  3 21  1  0
  6 22  1  0
  7 23  1  0
  8 24  1  0
 13 25  1  0
 14 26  1  0
 17 27  1  0
M  ISO  8  20  14  21  14  22  14  23  14  24  14  25  14  26  14  27   9
M  END
>  <minimizedAffinity>  (1) 
-4.68337727

>  <minimizedRMSD>  (1) 
1.0350703

$$$$
