
     RDKit          3D

 30 32  0  0  0  0  0  0  0  0999 V2000
   37.3750   21.9150   35.1150 C   0  0  0  0  0  0  0  0  0  0  0  0
   36.3070   21.1310   35.2620 C   0  0  0  0  0  0  0  0  0  0  0  0
   35.5670   20.5350   34.3160 C   0  0  0  0  0  0  0  0  0  0  0  0
   36.1370   20.8870   32.9990 C   0  0  0  0  0  0  0  0  0  0  0  0
   37.6200   22.0020   33.3100 S   0  0  0  0  0  0  0  0  0  0  0  0
   39.9640   22.6940   37.4960 C   0  0  0  0  0  0  0  0  0  0  0  0
   39.2880   23.4290   38.4860 C   0  0  0  0  0  0  0  0  0  0  0  0
   37.9330   23.6680   38.3470 C   0  0  0  0  0  0  0  0  0  0  0  0
   37.3020   23.1670   37.2300 N   0  0  0  0  0  0  0  0  0  0  0  0
   37.9950   22.4580   36.2900 C   0  0  0  0  0  0  0  0  0  0  0  0
   39.3150   22.2260   36.4280 N   0  0  0  0  0  0  0  0  0  0  0  0
   35.8250   20.5820   31.5740 C   0  0  0  0  0  0  0  0  0  0  0  0
   37.0990   20.7220   30.7880 C   0  0  0  0  0  0  0  0  0  0  0  0
   36.9530   19.6430   29.7350 C   0  0  0  0  0  0  0  0  0  0  0  0
   36.5230   18.4620   30.5920 C   0  0  0  0  0  0  0  0  0  0  0  0
   35.5390   19.1200   31.5380 C   0  0  0  0  0  0  0  0  0  0  0  0
   35.9900   20.9484   36.2994 H   0  0  0  0  0  0  0  0  0  0  0  0
   34.6889   19.8957   34.4900 H   0  0  0  0  0  0  0  0  0  0  0  0
   41.0418   22.5023   37.6033 H   0  0  0  0  0  0  0  0  0  0  0  0
   39.8319   23.8103   39.3628 H   0  0  0  0  0  0  0  0  0  0  0  0
   37.3769   24.2400   39.1044 H   0  0  0  0  0  0  0  0  0  0  0  0
   35.0159   21.2213   31.1911 H   0  0  0  0  0  0  0  0  0  0  0  0
   37.1754   21.7185   30.3285 H   0  0  0  0  0  0  0  0  0  0  0  0
   38.0066   20.6177   31.4006 H   0  0  0  0  0  0  0  0  0  0  0  0
   37.9065   19.4455   29.2233 H   0  0  0  0  0  0  0  0  0  0  0  0
   36.2555   19.8926   28.9219 H   0  0  0  0  0  0  0  0  0  0  0  0
   36.0386   17.6814   29.9870 H   0  0  0  0  0  0  0  0  0  0  0  0
   37.3539   17.9462   31.0955 H   0  0  0  0  0  0  0  0  0  0  0  0
   34.5120   18.9512   31.1819 H   0  0  0  0  0  0  0  0  0  0  0  0
   35.6397   18.6908   32.5458 H   0  0  0  0  0  0  0  0  0  0  0  0
  1  2  2  0
  1 10  1  0
  3  2  1  0
  4  5  1  0
  4  3  2  0
  5  1  1  0
  6  7  2  0
  8  7  1  0
  9  8  2  0
 10 11  2  0
 10  9  1  0
 11  6  1  0
 12  4  1  0
 13 12  1  0
 14 15  1  0
 14 13  1  0
 15 16  1  0
 16 12  1  0
  2 17  1  0
  3 18  1  0
  6 19  1  0
  7 20  1  0
  8 21  1  0
 12 22  1  0
 13 23  1  0
 13 24  1  0
 14 25  1  0
 14 26  1  0
 15 27  1  0
 15 28  1  0
 16 29  1  0
 16 30  1  0
M  ISO  8  17  14  18  14  19  14  20  14  21  14  22  13  23  13  24  13
M  ISO  6  25  13  26  13  27  13  28  13  29  13  30  13
M  END
>  <minimizedAffinity>  (1) 
-4.79739952

>  <minimizedRMSD>  (1) 
0.118139505

$$$$
