
     RDKit          3D

 29 30  0  0  0  0  0  0  0  0999 V2000
   37.4240   21.9930   35.3120 C   0  0  0  0  0  0  0  0  0  0  0  0
   36.3880   21.1800   35.4900 C   0  0  0  0  0  0  0  0  0  0  0  0
   35.6100   20.5870   34.6110 C   0  0  0  0  0  0  0  0  0  0  0  0
   36.0760   20.9690   33.2470 C   0  0  0  0  0  0  0  0  0  0  0  0
   37.5640   22.1280   33.5020 S   0  0  0  0  0  0  0  0  0  0  0  0
   40.1040   22.7020   37.6280 C   0  0  0  0  0  0  0  0  0  0  0  0
   39.4880   23.5050   38.6040 C   0  0  0  0  0  0  0  0  0  0  0  0
   38.1230   23.8130   38.4740 C   0  0  0  0  0  0  0  0  0  0  0  0
   37.4430   23.3090   37.3870 N   0  0  0  0  0  0  0  0  0  0  0  0
   38.0940   22.5320   36.4660 C   0  0  0  0  0  0  0  0  0  0  0  0
   39.3880   22.2400   36.5910 N   0  0  0  0  0  0  0  0  0  0  0  0
   35.6700   20.6730   31.8330 C   0  0  0  0  0  0  0  0  0  0  0  0
   36.6780   19.8160   31.1040 C   0  0  0  0  0  0  0  0  0  0  0  0
   34.3650   19.9240   31.8630 C   0  0  0  0  0  0  0  0  0  0  0  0
   35.5220   21.9660   31.0580 C   0  0  0  0  0  0  0  0  0  0  0  0
   36.1417   20.9692   36.5411 H   0  0  0  0  0  0  0  0  0  0  0  0
   34.7628   19.9244   34.8418 H   0  0  0  0  0  0  0  0  0  0  0  0
   41.1719   22.4526   37.7142 H   0  0  0  0  0  0  0  0  0  0  0  0
   40.0667   23.8870   39.4579 H   0  0  0  0  0  0  0  0  0  0  0  0
   37.6115   24.4393   39.2197 H   0  0  0  0  0  0  0  0  0  0  0  0
   37.3040   19.2838   31.8354 H   0  0  0  0  0  0  0  0  0  0  0  0
   36.1503   19.0858   30.4729 H   0  0  0  0  0  0  0  0  0  0  0  0
   37.3138   20.4543   30.4729 H   0  0  0  0  0  0  0  0  0  0  0  0
   34.0650   19.7518   32.9072 H   0  0  0  0  0  0  0  0  0  0  0  0
   33.5910   20.5153   31.3519 H   0  0  0  0  0  0  0  0  0  0  0  0
   34.4852   18.9574   31.3519 H   0  0  0  0  0  0  0  0  0  0  0  0
   35.4258   22.8062   31.7615 H   0  0  0  0  0  0  0  0  0  0  0  0
   36.4087   22.1175   30.4249 H   0  0  0  0  0  0  0  0  0  0  0  0
   34.6240   21.9133   30.4249 H   0  0  0  0  0  0  0  0  0  0  0  0
  1  2  2  0
  1 10  1  0
  3  2  1  0
  4  5  1  0
  4  3  2  0
  5  1  1  0
  6  7  2  0
  8  7  1  0
  9  8  2  0
 10 11  2  0
 10  9  1  0
 11  6  1  0
 12 14  1  0
 12  4  1  0
 13 12  1  0
 15 12  1  0
  2 16  1  0
  3 17  1  0
  6 18  1  0
  7 19  1  0
  8 20  1  0
 13 21  1  0
 13 22  1  0
 13 23  1  0
 14 24  1  0
 14 25  1  0
 14 26  1  0
 15 27  1  0
 15 28  1  0
 15 29  1  0
M  ISO  8  16  14  17  14  18  14  19  14  20  14  21   8  22   8  23   8
M  ISO  6  24   8  25   8  26   8  27   8  28   8  29   8
M  END
>  <minimizedAffinity>  (1) 
-4.61254025

>  <minimizedRMSD>  (1) 
0.378095984

$$$$
