
     RDKit          3D

 27 29  0  0  0  0  0  0  0  0999 V2000
   38.1470   21.8490   34.6700 C   0  0  0  0  0  0  0  0  0  0  0  0
   36.8980   21.4840   34.3750 C   0  0  0  0  0  0  0  0  0  0  0  0
   36.4600   20.9500   33.2190 C   0  0  0  0  0  0  0  0  0  0  0  0
   37.5750   20.8090   32.2880 C   0  0  0  0  0  0  0  0  0  0  0  0
   39.1030   21.4540   33.1690 S   0  0  0  0  0  0  0  0  0  0  0  0
   39.9680   22.7330   37.6580 C   0  0  0  0  0  0  0  0  0  0  0  0
   39.0200   23.4670   38.4100 C   0  0  0  0  0  0  0  0  0  0  0  0
   37.7350   23.6680   37.8910 C   0  0  0  0  0  0  0  0  0  0  0  0
   37.4650   23.1300   36.6570 N   0  0  0  0  0  0  0  0  0  0  0  0
   38.4080   22.4260   35.9630 C   0  0  0  0  0  0  0  0  0  0  0  0
   39.6290   22.2400   36.4640 N   0  0  0  0  0  0  0  0  0  0  0  0
   37.6220   20.2990   30.9530 C   0  0  0  0  0  0  0  0  0  0  0  0
   38.6850   20.5420   30.1040 C   0  0  0  0  0  0  0  0  0  0  0  0
   38.6710   20.0230   28.8260 C   0  0  0  0  0  0  0  0  0  0  0  0
   37.6470   19.2600   28.3300 C   0  0  0  0  0  0  0  0  0  0  0  0
   36.6160   19.0460   29.2080 C   0  0  0  0  0  0  0  0  0  0  0  0
   36.5710   19.5390   30.4950 C   0  0  0  0  0  0  0  0  0  0  0  0
   36.1442   21.6358   35.1616 H   0  0  0  0  0  0  0  0  0  0  0  0
   35.4191   20.6634   33.0083 H   0  0  0  0  0  0  0  0  0  0  0  0
   40.9805   22.5691   38.0556 H   0  0  0  0  0  0  0  0  0  0  0  0
   39.2905   23.8764   39.3945 H   0  0  0  0  0  0  0  0  0  0  0  0
   36.9738   24.2333   38.4486 H   0  0  0  0  0  0  0  0  0  0  0  0
   39.5382   21.1464   30.4457 H   0  0  0  0  0  0  0  0  0  0  0  0
   39.5284   20.2331   28.1697 H   0  0  0  0  0  0  0  0  0  0  0  0
   37.6516   18.8516   27.3086 H   0  0  0  0  0  0  0  0  0  0  0  0
   35.7662   18.4393   28.8620 H   0  0  0  0  0  0  0  0  0  0  0  0
   35.7088   19.3280   31.1447 H   0  0  0  0  0  0  0  0  0  0  0  0
  1 10  1  0
  2  1  2  0
  3  2  1  0
  4  5  1  0
  4  3  2  0
  5  1  1  0
  6  7  2  0
  8  7  1  0
  9  8  2  0
 10 11  2  0
 10  9  1  0
 11  6  1  0
 12  4  1  0
 13 12  2  0
 14 13  1  0
 15 14  2  0
 15 16  1  0
 16 17  2  0
 17 12  1  0
  2 18  1  0
  3 19  1  0
  6 20  1  0
  7 21  1  0
  8 22  1  0
 13 23  1  0
 14 24  1  0
 15 25  1  0
 16 26  1  0
 17 27  1  0
M  ISO  8  18  14  19  14  20  14  21  14  22  14  23  14  24  14  25  14
M  ISO  2  26  14  27  14
M  END
>  <minimizedAffinity>  (1) 
-4.37804556

>  <minimizedRMSD>  (1) 
1.63808656

$$$$
