
     RDKit          3D

 24 26  0  0  0  0  0  0  0  0999 V2000
   37.3460   21.8690   35.0300 C   0  0  0  0  0  0  0  0  0  0  0  0
   36.2750   21.0840   35.1760 C   0  0  0  0  0  0  0  0  0  0  0  0
   35.5380   20.5150   34.1920 C   0  0  0  0  0  0  0  0  0  0  0  0
   36.0780   20.8760   32.9010 C   0  0  0  0  0  0  0  0  0  0  0  0
   37.5660   21.9770   33.2080 S   0  0  0  0  0  0  0  0  0  0  0  0
   39.9980   22.6300   37.3400 C   0  0  0  0  0  0  0  0  0  0  0  0
   39.3240   23.3200   38.3770 C   0  0  0  0  0  0  0  0  0  0  0  0
   37.9410   23.5320   38.2790 C   0  0  0  0  0  0  0  0  0  0  0  0
   37.3240   23.0550   37.1780 N   0  0  0  0  0  0  0  0  0  0  0  0
   37.9930   22.3930   36.1930 C   0  0  0  0  0  0  0  0  0  0  0  0
   39.3090   22.1880   36.2780 N   0  0  0  0  0  0  0  0  0  0  0  0
   35.7400   20.5900   31.5180 C   0  0  0  0  0  0  0  0  0  0  0  0
   36.8070   20.4060   30.5240 C   0  0  0  0  0  0  0  0  0  0  0  0
   36.1270   19.1870   31.0320 C   0  0  0  0  0  0  0  0  0  0  0  0
   35.9567   20.8769   36.2084 H   0  0  0  0  0  0  0  0  0  0  0  0
   34.6589   19.8734   34.3519 H   0  0  0  0  0  0  0  0  0  0  0  0
   41.0824   22.4574   37.4055 H   0  0  0  0  0  0  0  0  0  0  0  0
   39.8806   23.6866   39.2521 H   0  0  0  0  0  0  0  0  0  0  0  0
   37.3842   24.0635   39.0648 H   0  0  0  0  0  0  0  0  0  0  0  0
   34.8374   21.2180   31.5483 H   0  0  0  0  0  0  0  0  0  0  0  0
   37.8518   20.6023   30.8066 H   0  0  0  0  0  0  0  0  0  0  0  0
   36.9914   20.8134   29.5190 H   0  0  0  0  0  0  0  0  0  0  0  0
   35.4473   18.6185   30.3803 H   0  0  0  0  0  0  0  0  0  0  0  0
   36.4449   18.2478   31.5083 H   0  0  0  0  0  0  0  0  0  0  0  0
  1  2  2  0
  1 10  1  0
  3  2  1  0
  4  5  1  0
  4  3  2  0
  5  1  1  0
  6  7  2  0
  8  7  1  0
  9  8  2  0
 10 11  2  0
 10  9  1  0
 11  6  1  0
 12  4  1  0
 13 14  1  0
 13 12  1  0
 14 12  1  0
  2 15  1  0
  3 16  1  0
  6 17  1  0
  7 18  1  0
  8 19  1  0
 12 20  1  0
 13 21  1  0
 13 22  1  0
 14 23  1  0
 14 24  1  0
M  ISO  8  15  14  16  14  17  14  18  14  19  14  20  13  21  13  22  13
M  ISO  2  23  13  24  13
M  END
>  <minimizedAffinity>  (1) 
-4.37436628

>  <minimizedRMSD>  (1) 
0.728226125

$$$$
