
     RDKit          3D

 31 33  0  0  0  0  0  0  0  0999 V2000
   37.5700   21.9860   35.3990 C   0  0  0  0  0  0  0  0  0  0  0  0
   36.3980   21.3140   35.4920 C   0  0  0  0  0  0  0  0  0  0  0  0
   35.7890   20.6280   34.4970 C   0  0  0  0  0  0  0  0  0  0  0  0
   36.6160   20.7260   33.2670 C   0  0  0  0  0  0  0  0  0  0  0  0
   38.1250   21.7610   33.6740 S   0  0  0  0  0  0  0  0  0  0  0  0
   39.8570   22.9580   38.0060 C   0  0  0  0  0  0  0  0  0  0  0  0
   39.1010   23.8560   38.7970 C   0  0  0  0  0  0  0  0  0  0  0  0
   37.7980   24.1310   38.4270 C   0  0  0  0  0  0  0  0  0  0  0  0
   37.2870   23.5250   37.3100 N   0  0  0  0  0  0  0  0  0  0  0  0
   38.0530   22.6630   36.5770 C   0  0  0  0  0  0  0  0  0  0  0  0
   39.3120   22.3880   36.9210 N   0  0  0  0  0  0  0  0  0  0  0  0
   36.2430   20.1330   32.0580 N   0  0  0  0  0  0  0  0  0  0  0  0
   35.1910   19.1070   32.0070 C   0  0  0  0  0  0  0  0  0  0  0  0
   35.8910   17.8750   31.4840 C   0  0  0  0  0  0  0  0  0  0  0  0
   36.3320   18.0790   30.1360 N   0  0  0  0  0  0  0  0  0  0  0  0
   36.3970   19.4380   29.7000 C   0  0  0  0  0  0  0  0  0  0  0  0
   36.8450   20.4200   30.7610 C   0  0  0  0  0  0  0  0  0  0  0  0
   35.8930   21.3270   36.4691 H   0  0  0  0  0  0  0  0  0  0  0  0
   34.8360   20.0857   34.5849 H   0  0  0  0  0  0  0  0  0  0  0  0
   40.8962   22.7265   38.2824 H   0  0  0  0  0  0  0  0  0  0  0  0
   39.5418   24.3257   39.6886 H   0  0  0  0  0  0  0  0  0  0  0  0
   37.1824   24.8242   39.0190 H   0  0  0  0  0  0  0  0  0  0  0  0
   34.7777   18.9234   33.0097 H   0  0  0  0  0  0  0  0  0  0  0  0
   34.3433   19.4076   31.3737 H   0  0  0  0  0  0  0  0  0  0  0  0
   36.7616   17.6566   32.1199 H   0  0  0  0  0  0  0  0  0  0  0  0
   35.1850   17.0316   31.5022 H   0  0  0  0  0  0  0  0  0  0  0  0
   37.2748   17.6737   30.0476 H   0  0  0  0  0  0  0  0  0  0  0  0
   37.1041   19.4950   28.8594 H   0  0  0  0  0  0  0  0  0  0  0  0
   35.3721   19.7254   29.4224 H   0  0  0  0  0  0  0  0  0  0  0  0
   37.9394   20.3647   30.8571 H   0  0  0  0  0  0  0  0  0  0  0  0
   36.5238   21.4255   30.4516 H   0  0  0  0  0  0  0  0  0  0  0  0
  1  2  2  0
  1 10  1  0
  3  2  1  0
  4  5  1  0
  4  3  2  0
  5  1  1  0
  6  7  2  0
  8  7  1  0
  9  8  2  0
 10 11  2  0
 10  9  1  0
 11  6  1  0
 12  4  1  0
 13 12  1  0
 14 13  1  0
 15 14  1  0
 16 15  1  0
 16 17  1  0
 17 12  1  0
  2 18  1  0
  3 19  1  0
  6 20  1  0
  7 21  1  0
  8 22  1  0
 13 23  1  0
 13 24  1  0
 14 25  1  0
 14 26  1  0
 15 27  1  0
 16 28  1  0
 16 29  1  0
 17 30  1  0
 17 31  1  0
M  ISO  8  18  14  19  14  20  14  21  14  22  14  23  13  24  13  25  13
M  ISO  6  26  13  27   5  28  13  29  13  30  13  31  13
M  END
>  <minimizedAffinity>  (1) 
-4.43396711

>  <minimizedRMSD>  (1) 
0.993453741

$$$$
