
     RDKit          3D

 32 34  0  0  0  0  0  0  0  0999 V2000
   37.4530   22.0310   35.4460 C   0  0  0  0  0  0  0  0  0  0  0  0
   36.3640   21.2790   35.5970 C   0  0  0  0  0  0  0  0  0  0  0  0
   35.6610   20.6190   34.6690 C   0  0  0  0  0  0  0  0  0  0  0  0
   36.3020   20.8510   33.3540 C   0  0  0  0  0  0  0  0  0  0  0  0
   37.7970   21.9680   33.6540 S   0  0  0  0  0  0  0  0  0  0  0  0
   39.9410   22.8740   37.9200 C   0  0  0  0  0  0  0  0  0  0  0  0
   39.2690   23.7590   38.7630 C   0  0  0  0  0  0  0  0  0  0  0  0
   37.9490   24.0830   38.5000 C   0  0  0  0  0  0  0  0  0  0  0  0
   37.3460   23.5140   37.4040 N   0  0  0  0  0  0  0  0  0  0  0  0
   38.0360   22.6520   36.6010 C   0  0  0  0  0  0  0  0  0  0  0  0
   39.3080   22.3460   36.8630 N   0  0  0  0  0  0  0  0  0  0  0  0
   36.1110   20.4800   31.9890 N   0  0  0  0  0  0  0  0  0  0  0  0
   35.4290   19.3040   31.4870 C   0  0  0  0  0  0  0  0  0  0  0  0
   36.4600   18.5240   30.6820 C   0  0  0  0  0  0  0  0  0  0  0  0
   37.1480   19.3760   29.6550 C   0  0  0  0  0  0  0  0  0  0  0  0
   37.7630   20.6190   30.2960 C   0  0  0  0  0  0  0  0  0  0  0  0
   36.6490   21.3580   31.0080 C   0  0  0  0  0  0  0  0  0  0  0  0
   35.9906   21.1878   36.6277 H   0  0  0  0  0  0  0  0  0  0  0  0
   34.7632   20.0101   34.8511 H   0  0  0  0  0  0  0  0  0  0  0  0
   40.9894   22.6096   38.1224 H   0  0  0  0  0  0  0  0  0  0  0  0
   39.7843   24.1965   39.6308 H   0  0  0  0  0  0  0  0  0  0  0  0
   37.3975   24.7774   39.1509 H   0  0  0  0  0  0  0  0  0  0  0  0
   35.0569   18.6934   32.3229 H   0  0  0  0  0  0  0  0  0  0  0  0
   34.5619   19.5780   30.8680 H   0  0  0  0  0  0  0  0  0  0  0  0
   37.2166   18.1222   31.3720 H   0  0  0  0  0  0  0  0  0  0  0  0
   35.9314   17.7190   30.1504 H   0  0  0  0  0  0  0  0  0  0  0  0
   36.4145   19.6880   28.8969 H   0  0  0  0  0  0  0  0  0  0  0  0
   37.9531   18.7857   29.1931 H   0  0  0  0  0  0  0  0  0  0  0  0
   38.5403   20.3252   31.0168 H   0  0  0  0  0  0  0  0  0  0  0  0
   38.2293   21.2598   29.5331 H   0  0  0  0  0  0  0  0  0  0  0  0
   37.0474   22.2621   31.4915 H   0  0  0  0  0  0  0  0  0  0  0  0
   35.8702   21.6647   30.2943 H   0  0  0  0  0  0  0  0  0  0  0  0
  1  2  2  0
  1 10  1  0
  3  2  1  0
  4  5  1  0
  4  3  2  0
  5  1  1  0
  6  7  2  0
  8  7  1  0
  9  8  2  0
 10 11  2  0
 10  9  1  0
 11  6  1  0
 12  4  1  0
 13 12  1  0
 14 13  1  0
 15 16  1  0
 15 14  1  0
 16 17  1  0
 17 12  1  0
  2 18  1  0
  3 19  1  0
  6 20  1  0
  7 21  1  0
  8 22  1  0
 13 23  1  0
 13 24  1  0
 14 25  1  0
 14 26  1  0
 15 27  1  0
 15 28  1  0
 16 29  1  0
 16 30  1  0
 17 31  1  0
 17 32  1  0
M  ISO  8  18  14  19  14  20  14  21  14  22  14  23  13  24  13  25  13
M  ISO  7  26  13  27  13  28  13  29  13  30  13  31  13  32  13
M  END
>  <minimizedAffinity>  (1) 
-4.5047245

>  <minimizedRMSD>  (1) 
1.73510313

$$$$
