
     RDKit          3D

 29 31  0  0  0  0  0  0  0  0999 V2000
   37.5170   21.9320   35.3270 C   0  0  0  0  0  0  0  0  0  0  0  0
   36.3690   21.2680   35.4400 C   0  0  0  0  0  0  0  0  0  0  0  0
   35.6810   20.6060   34.4970 C   0  0  0  0  0  0  0  0  0  0  0  0
   36.4430   20.7290   33.2220 C   0  0  0  0  0  0  0  0  0  0  0  0
   37.9800   21.7500   33.5800 S   0  0  0  0  0  0  0  0  0  0  0  0
   39.9060   22.8590   37.8570 C   0  0  0  0  0  0  0  0  0  0  0  0
   39.1730   23.7190   38.7110 C   0  0  0  0  0  0  0  0  0  0  0  0
   37.8470   23.9830   38.4090 C   0  0  0  0  0  0  0  0  0  0  0  0
   37.2930   23.4000   37.2900 N   0  0  0  0  0  0  0  0  0  0  0  0
   38.0460   22.5770   36.5000 C   0  0  0  0  0  0  0  0  0  0  0  0
   39.3450   22.3100   36.7850 N   0  0  0  0  0  0  0  0  0  0  0  0
   36.2890   20.2640   31.8730 N   0  0  0  0  0  0  0  0  0  0  0  0
   36.5630   20.9040   30.6050 C   0  0  0  0  0  0  0  0  0  0  0  0
   37.3070   19.8580   29.7980 C   0  0  0  0  0  0  0  0  0  0  0  0
   36.6200   18.5860   30.2200 C   0  0  0  0  0  0  0  0  0  0  0  0
   35.8010   18.9470   31.4370 C   0  0  0  0  0  0  0  0  0  0  0  0
   35.9225   21.2609   36.4453 H   0  0  0  0  0  0  0  0  0  0  0  0
   34.7302   20.0713   34.6388 H   0  0  0  0  0  0  0  0  0  0  0  0
   40.9598   22.6415   38.0856 H   0  0  0  0  0  0  0  0  0  0  0  0
   39.6471   24.1682   39.5962 H   0  0  0  0  0  0  0  0  0  0  0  0
   37.2475   24.6457   39.0505 H   0  0  0  0  0  0  0  0  0  0  0  0
   35.6261   21.1870   30.1030 H   0  0  0  0  0  0  0  0  0  0  0  0
   37.1453   21.8296   30.7235 H   0  0  0  0  0  0  0  0  0  0  0  0
   38.3758   19.8394   30.0574 H   0  0  0  0  0  0  0  0  0  0  0  0
   37.2813   20.0357   28.7127 H   0  0  0  0  0  0  0  0  0  0  0  0
   35.9678   18.2172   29.4146 H   0  0  0  0  0  0  0  0  0  0  0  0
   37.3441   17.7879   30.4406 H   0  0  0  0  0  0  0  0  0  0  0  0
   34.7333   19.0008   31.1778 H   0  0  0  0  0  0  0  0  0  0  0  0
   35.9042   18.1938   32.2320 H   0  0  0  0  0  0  0  0  0  0  0  0
  1  2  2  0
  1 10  1  0
  3  2  1  0
  4  5  1  0
  4  3  2  0
  5  1  1  0
  6  7  2  0
  8  7  1  0
  9  8  2  0
 10 11  2  0
 10  9  1  0
 11  6  1  0
 12  4  1  0
 13 12  1  0
 14 15  1  0
 14 13  1  0
 15 16  1  0
 16 12  1  0
  2 17  1  0
  3 18  1  0
  6 19  1  0
  7 20  1  0
  8 21  1  0
 13 22  1  0
 13 23  1  0
 14 24  1  0
 14 25  1  0
 15 26  1  0
 15 27  1  0
 16 28  1  0
 16 29  1  0
M  ISO  8  17  14  18  14  19  14  20  14  21  14  22  13  23  13  24  13
M  ISO  5  25  13  26  13  27  13  28  13  29  13
M  END
>  <minimizedAffinity>  (1) 
-4.26832342

>  <minimizedRMSD>  (1) 
0.605668485

$$$$
