
     RDKit          3D

 24 26  0  0  0  0  0  0  0  0999 V2000
   37.7280   21.9020   35.2140 C   0  0  0  0  0  0  0  0  0  0  0  0
   36.5190   21.3370   35.1770 C   0  0  0  0  0  0  0  0  0  0  0  0
   35.9560   20.6920   34.1470 C   0  0  0  0  0  0  0  0  0  0  0  0
   36.8710   20.6760   33.0080 C   0  0  0  0  0  0  0  0  0  0  0  0
   38.4280   21.5920   33.5620 S   0  0  0  0  0  0  0  0  0  0  0  0
   39.8580   22.9300   37.9370 C   0  0  0  0  0  0  0  0  0  0  0  0
   39.0460   23.7810   38.6960 C   0  0  0  0  0  0  0  0  0  0  0  0
   37.7270   24.0180   38.2710 C   0  0  0  0  0  0  0  0  0  0  0  0
   37.3060   23.3910   37.1210 N   0  0  0  0  0  0  0  0  0  0  0  0
   38.1420   22.5690   36.4180 C   0  0  0  0  0  0  0  0  0  0  0  0
   39.3930   22.3510   36.8300 N   0  0  0  0  0  0  0  0  0  0  0  0
   36.6750   20.0860   31.6870 C   0  0  0  0  0  0  0  0  0  0  0  0
   37.0880   20.4900   30.4500 C   0  0  0  0  0  0  0  0  0  0  0  0
   36.6240   19.5580   29.5480 C   0  0  0  0  0  0  0  0  0  0  0  0
   35.9520   18.6220   30.2400 N   0  0  0  0  0  0  0  0  0  0  0  0
   35.9870   18.9490   31.5400 N   0  0  0  0  0  0  0  0  0  0  0  0
   35.9178   21.4093   36.0954 H   0  0  0  0  0  0  0  0  0  0  0  0
   34.9528   20.2409   34.1571 H   0  0  0  0  0  0  0  0  0  0  0  0
   40.8922   22.7368   38.2579 H   0  0  0  0  0  0  0  0  0  0  0  0
   39.4333   24.2562   39.6093 H   0  0  0  0  0  0  0  0  0  0  0  0
   37.0560   24.6806   38.8373 H   0  0  0  0  0  0  0  0  0  0  0  0
   37.6787   21.3885   30.2179 H   0  0  0  0  0  0  0  0  0  0  0  0
   36.7759   19.5764   28.4587 H   0  0  0  0  0  0  0  0  0  0  0  0
   35.4886   17.7938   29.8396 H   0  0  0  0  0  0  0  0  0  0  0  0
  1 10  1  0
  2  1  2  0
  3  2  1  0
  4  5  1  0
  4  3  2  0
  5  1  1  0
  6  7  2  0
  8  7  1  0
  9  8  2  0
 10 11  2  0
 10  9  1  0
 11  6  1  0
 12  4  1  0
 13 12  1  0
 14 15  1  0
 14 13  2  0
 15 16  1  0
 16 12  2  0
  2 17  1  0
  3 18  1  0
  6 19  1  0
  7 20  1  0
  8 21  1  0
 13 22  1  0
 14 23  1  0
 15 24  1  0
M  ISO  8  17  14  18  14  19  14  20  14  21  14  22  14  23  14  24   9
M  END
>  <minimizedAffinity>  (1) 
-4.21022606

>  <minimizedRMSD>  (1) 
0.90926379

$$$$
