
     RDKit          3D

 25 27  0  0  0  0  0  0  0  0999 V2000
   38.1260   21.8550   34.6800 C   0  0  0  0  0  0  0  0  0  0  0  0
   36.8780   21.4760   34.4000 C   0  0  0  0  0  0  0  0  0  0  0  0
   36.4200   20.9380   33.2590 C   0  0  0  0  0  0  0  0  0  0  0  0
   37.5210   20.8090   32.3050 C   0  0  0  0  0  0  0  0  0  0  0  0
   39.0620   21.4780   33.1700 S   0  0  0  0  0  0  0  0  0  0  0  0
   39.9640   22.7310   37.6600 C   0  0  0  0  0  0  0  0  0  0  0  0
   39.0300   23.4610   38.4230 C   0  0  0  0  0  0  0  0  0  0  0  0
   37.7370   23.6630   37.9090 C   0  0  0  0  0  0  0  0  0  0  0  0
   37.4640   23.1300   36.6790 N   0  0  0  0  0  0  0  0  0  0  0  0
   38.3980   22.4270   35.9710 C   0  0  0  0  0  0  0  0  0  0  0  0
   39.6210   22.2390   36.4640 N   0  0  0  0  0  0  0  0  0  0  0  0
   37.5600   20.2870   30.9240 C   0  0  0  0  0  0  0  0  0  0  0  0
   36.5350   19.5180   30.4180 C   0  0  0  0  0  0  0  0  0  0  0  0
   36.6490   19.0700   29.1230 C   0  0  0  0  0  0  0  0  0  0  0  0
   37.7540   19.3920   28.3910 N   0  0  0  0  0  0  0  0  0  0  0  0
   38.7230   20.1480   28.9460 C   0  0  0  0  0  0  0  0  0  0  0  0
   38.6210   20.5920   30.2100 N   0  0  0  0  0  0  0  0  0  0  0  0
   36.1363   21.6217   35.1992 H   0  0  0  0  0  0  0  0  0  0  0  0
   35.3780   20.6402   33.0705 H   0  0  0  0  0  0  0  0  0  0  0  0
   40.9792   22.5652   38.0496 H   0  0  0  0  0  0  0  0  0  0  0  0
   39.3089   23.8668   39.4066 H   0  0  0  0  0  0  0  0  0  0  0  0
   36.9775   24.2255   38.4718 H   0  0  0  0  0  0  0  0  0  0  0  0
   35.6548   19.2706   31.0296 H   0  0  0  0  0  0  0  0  0  0  0  0
   35.8525   18.4546   28.6793 H   0  0  0  0  0  0  0  0  0  0  0  0
   39.6130   20.4058   28.3532 H   0  0  0  0  0  0  0  0  0  0  0  0
  1 10  1  0
  2  1  2  0
  3  2  1  0
  4  5  1  0
  4  3  2  0
  5  1  1  0
  6  7  2  0
  8  7  1  0
  9  8  2  0
 10 11  2  0
 10  9  1  0
 11  6  1  0
 12  4  1  0
 13 12  2  0
 14 13  1  0
 15 16  1  0
 15 14  2  0
 16 17  2  0
 17 12  1  0
  2 18  1  0
  3 19  1  0
  6 20  1  0
  7 21  1  0
  8 22  1  0
 13 23  1  0
 14 24  1  0
 16 25  1  0
M  ISO  8  18  14  19  14  20  14  21  14  22  14  23  14  24  14  25  14
M  END
>  <minimizedAffinity>  (1) 
-4.20315218

>  <minimizedRMSD>  (1) 
1.61714315

$$$$
