
     RDKit          3D

 24 26  0  0  0  0  0  0  0  0999 V2000
   37.7090   21.6860   34.7390 C   0  0  0  0  0  0  0  0  0  0  0  0
   36.4580   21.2360   34.6200 C   0  0  0  0  0  0  0  0  0  0  0  0
   35.9020   20.6390   33.5510 C   0  0  0  0  0  0  0  0  0  0  0  0
   36.8890   20.5390   32.4810 C   0  0  0  0  0  0  0  0  0  0  0  0
   38.4860   21.3100   33.1360 S   0  0  0  0  0  0  0  0  0  0  0  0
   39.8620   22.7820   37.4180 C   0  0  0  0  0  0  0  0  0  0  0  0
   38.9960   23.4350   38.2980 C   0  0  0  0  0  0  0  0  0  0  0  0
   37.6520   23.5070   37.9740 C   0  0  0  0  0  0  0  0  0  0  0  0
   37.2180   22.9330   36.7990 N   0  0  0  0  0  0  0  0  0  0  0  0
   38.1070   22.3060   35.9740 C   0  0  0  0  0  0  0  0  0  0  0  0
   39.4250   22.2250   36.2730 N   0  0  0  0  0  0  0  0  0  0  0  0
   36.9120   20.0150   31.1250 C   0  0  0  0  0  0  0  0  0  0  0  0
   37.9260   20.3650   30.2800 C   0  0  0  0  0  0  0  0  0  0  0  0
   37.6960   19.7360   29.0910 N   0  0  0  0  0  0  0  0  0  0  0  0
   36.5630   19.0400   29.2690 C   0  0  0  0  0  0  0  0  0  0  0  0
   36.0620   19.1890   30.4960 N   0  0  0  0  0  0  0  0  0  0  0  0
   35.8073   21.3687   35.4969 H   0  0  0  0  0  0  0  0  0  0  0  0
   34.8635   20.2813   33.4923 H   0  0  0  0  0  0  0  0  0  0  0  0
   40.9316   22.7211   37.6676 H   0  0  0  0  0  0  0  0  0  0  0  0
   39.3740   23.8827   39.2290 H   0  0  0  0  0  0  0  0  0  0  0  0
   36.9420   24.0143   38.6438 H   0  0  0  0  0  0  0  0  0  0  0  0
   38.7705   21.0298   30.5140 H   0  0  0  0  0  0  0  0  0  0  0  0
   36.0993   18.4165   28.4904 H   0  0  0  0  0  0  0  0  0  0  0  0
   35.2064   18.7618   30.8786 H   0  0  0  0  0  0  0  0  0  0  0  0
  1 10  1  0
  2  1  2  0
  3  2  1  0
  4  5  1  0
  4  3  2  0
  5  1  1  0
  6  7  2  0
  8  7  1  0
  9  8  2  0
 10 11  2  0
 10  9  1  0
 11  6  1  0
 12  4  1  0
 13 12  2  0
 14 15  2  0
 14 13  1  0
 15 16  1  0
 16 12  1  0
  2 17  1  0
  3 18  1  0
  6 19  1  0
  7 20  1  0
  8 21  1  0
 13 22  1  0
 15 23  1  0
 16 24  1  0
M  ISO  8  17  14  18  14  19  14  20  14  21  14  22  14  23  14  24   9
M  END
>  <minimizedAffinity>  (1) 
-4.21903992

>  <minimizedRMSD>  (1) 
1.25044715

$$$$
