
     RDKit          3D

 35 36  0  0  0  0  0  0  0  0999 V2000
   38.1270   23.7220   37.1440 C   0  0  0  0  0  0  0  0  0  0  0  0
   41.4570   21.9670   36.9900 C   0  0  0  0  0  0  0  0  0  0  0  0
   40.1730   22.2730   37.4270 C   0  0  0  0  0  0  0  0  0  0  0  0
   39.4740   23.3020   36.7880 C   0  0  0  0  0  0  0  0  0  0  0  0
   40.0960   23.9540   35.7620 N   0  0  0  0  0  0  0  0  0  0  0  0
   41.3430   23.6320   35.3640 C   0  0  0  0  0  0  0  0  0  0  0  0
   42.0220   22.6430   35.9730 N   0  0  0  0  0  0  0  0  0  0  0  0
   42.1370   20.8520   37.7290 C   0  0  0  0  0  0  0  0  0  0  0  0
   43.0560   20.0730   36.8350 C   0  0  0  0  0  0  0  0  0  0  0  0
   38.2180   24.3110   38.5520 C   0  0  0  0  0  0  0  0  0  0  0  0
   37.4780   24.6730   36.2010 C   0  0  0  0  0  0  0  0  0  0  0  0
   37.2180   22.4970   37.2430 C   0  0  0  0  0  0  0  0  0  0  0  0
   36.8980   21.9210   35.9340 C   0  0  0  0  0  0  0  0  0  0  0  0
   35.8060   21.0540   35.8240 C   0  0  0  0  0  0  0  0  0  0  0  0
   35.7670   20.6850   34.4750 C   0  0  0  0  0  0  0  0  0  0  0  0
   36.7980   21.3190   33.8480 C   0  0  0  0  0  0  0  0  0  0  0  0
   37.4230   22.0270   34.7590 O   0  0  0  0  0  0  0  0  0  0  0  0
   39.7161   21.7168   38.2588 H   0  0  0  0  0  0  0  0  0  0  0  0
   41.8096   24.1827   34.5339 H   0  0  0  0  0  0  0  0  0  0  0  0
   42.7221   21.2781   38.5573 H   0  0  0  0  0  0  0  0  0  0  0  0
   41.3624   20.1673   38.1048 H   0  0  0  0  0  0  0  0  0  0  0  0
   43.7520   19.4830   37.4493 H   0  0  0  0  0  0  0  0  0  0  0  0
   42.4641   19.3973   36.2001 H   0  0  0  0  0  0  0  0  0  0  0  0
   43.6256   20.7675   36.2001 H   0  0  0  0  0  0  0  0  0  0  0  0
   38.0940   23.5084   39.2939 H   0  0  0  0  0  0  0  0  0  0  0  0
   39.2003   24.7870   38.6875 H   0  0  0  0  0  0  0  0  0  0  0  0
   37.4251   25.0613   38.6875 H   0  0  0  0  0  0  0  0  0  0  0  0
   36.9477   25.4501   36.7710 H   0  0  0  0  0  0  0  0  0  0  0  0
   38.2452   25.1422   35.5675 H   0  0  0  0  0  0  0  0  0  0  0  0
   36.7615   24.1296   35.5675 H   0  0  0  0  0  0  0  0  0  0  0  0
   37.7242   21.7317   37.8497 H   0  0  0  0  0  0  0  0  0  0  0  0
   36.2727   22.8218   37.7023 H   0  0  0  0  0  0  0  0  0  0  0  0
   35.1248   20.7317   36.6253 H   0  0  0  0  0  0  0  0  0  0  0  0
   35.0380   20.0075   34.0063 H   0  0  0  0  0  0  0  0  0  0  0  0
   37.0569   21.2502   32.7811 H   0  0  0  0  0  0  0  0  0  0  0  0
  1 12  1  0
  1 10  1  0
  2  3  2  0
  2  8  1  0
  4  1  1  0
  4  3  1  0
  5  4  2  0
  6  5  1  0
  6  7  2  0
  7  2  1  0
  9  8  1  0
 11  1  1  0
 13 12  1  0
 14 13  2  0
 15 14  1  0
 16 15  2  0
 16 17  1  0
 17 13  1  0
  3 18  1  0
  6 19  1  0
  8 20  1  0
  8 21  1  0
  9 22  1  0
  9 23  1  0
  9 24  1  0
 10 25  1  0
 10 26  1  0
 10 27  1  0
 11 28  1  0
 11 29  1  0
 11 30  1  0
 12 31  1  0
 12 32  1  0
 14 33  1  0
 15 34  1  0
 16 35  1  0
M  ISO  8  18  14  19  14  20   8  21   8  22   8  23   8  24   8  25   8
M  ISO  8  26   8  27   8  28   8  29   8  30   8  31   8  32   8  33  14
M  ISO  2  34  14  35  14
M  END
>  <minimizedAffinity>  (1) 
-4.22364902

>  <minimizedRMSD>  (1) 
0.89992404

$$$$
