
     RDKit          3D

 28 30  0  0  0  0  0  0  0  0999 V2000
   37.9200   21.9380   34.8090 C   0  0  0  0  0  0  0  0  0  0  0  0
   36.7040   21.4240   34.6180 C   0  0  0  0  0  0  0  0  0  0  0  0
   36.1640   20.8910   33.5200 C   0  0  0  0  0  0  0  0  0  0  0  0
   37.1900   20.9560   32.4500 C   0  0  0  0  0  0  0  0  0  0  0  0
   38.7380   21.7610   33.1930 S   0  0  0  0  0  0  0  0  0  0  0  0
   39.9410   22.7560   37.6850 C   0  0  0  0  0  0  0  0  0  0  0  0
   39.0290   23.3800   38.5520 C   0  0  0  0  0  0  0  0  0  0  0  0
   37.7100   23.5290   38.1650 C   0  0  0  0  0  0  0  0  0  0  0  0
   37.3410   23.0550   36.9320 N   0  0  0  0  0  0  0  0  0  0  0  0
   38.2500   22.4550   36.1100 C   0  0  0  0  0  0  0  0  0  0  0  0
   39.5390   22.3070   36.4840 N   0  0  0  0  0  0  0  0  0  0  0  0
   37.3360   20.5830   31.0240 N   0  0  0  0  0  0  0  0  0  0  0  0
   38.3330   21.0710   30.1270 C   0  0  0  0  0  0  0  0  0  0  0  0
   38.7930   19.8230   29.3580 C   0  0  0  0  0  0  0  0  0  0  0  0
   37.7310   19.4400   28.5870 O   0  0  0  0  0  0  0  0  0  0  0  0
   36.6300   18.9990   29.2810 C   0  0  0  0  0  0  0  0  0  0  0  0
   36.3580   19.6520   30.5980 C   0  0  0  0  0  0  0  0  0  0  0  0
   36.0463   21.4422   35.4995 H   0  0  0  0  0  0  0  0  0  0  0  0
   35.1479   20.4802   33.4258 H   0  0  0  0  0  0  0  0  0  0  0  0
   40.9905   22.6341   37.9910 H   0  0  0  0  0  0  0  0  0  0  0  0
   39.3623   23.7481   39.5335 H   0  0  0  0  0  0  0  0  0  0  0  0
   36.9775   24.0139   38.8271 H   0  0  0  0  0  0  0  0  0  0  0  0
   37.9078   21.8176   29.4401 H   0  0  0  0  0  0  0  0  0  0  0  0
   39.1609   21.5720   30.6501 H   0  0  0  0  0  0  0  0  0  0  0  0
   39.6587   20.0632   28.7232 H   0  0  0  0  0  0  0  0  0  0  0  0
   39.1025   19.0201   30.0432 H   0  0  0  0  0  0  0  0  0  0  0  0
   35.9802   18.2039   28.8865 H   0  0  0  0  0  0  0  0  0  0  0  0
   35.4616   19.4253   31.1939 H   0  0  0  0  0  0  0  0  0  0  0  0
  1 10  1  0
  2  1  2  0
  3  2  1  0
  4  5  1  0
  4  3  2  0
  5  1  1  0
  6  7  2  0
  8  7  1  0
  9  8  2  0
 10 11  2  0
 10  9  1  0
 11  6  1  0
 12  4  1  0
 13 12  1  0
 14 13  1  0
 15 16  1  0
 15 14  1  0
 16 17  2  0
 17 12  1  0
  2 18  1  0
  3 19  1  0
  6 20  1  0
  7 21  1  0
  8 22  1  0
 13 23  1  0
 13 24  1  0
 14 25  1  0
 14 26  1  0
 16 27  1  0
 17 28  1  0
M  ISO  8  18  14  19  14  20  14  21  14  22  14  23  13  24  13  25  13
M  ISO  3  26  13  27  13  28  13
M  END
>  <minimizedAffinity>  (1) 
-4.32172918

>  <minimizedRMSD>  (1) 
1.4995265

$$$$
