
     RDKit          3D

 43 44  0  0  0  0  0  0  0  0999 V2000
   42.9590   23.0520   35.3090 C   0  0  0  0  0  0  0  0  0  0  0  0
   39.5560   23.1780   36.9590 C   0  0  0  0  0  0  0  0  0  0  0  0
   40.9300   23.1110   36.8510 C   0  0  0  0  0  0  0  0  0  0  0  0
   41.5160   23.1190   35.5870 C   0  0  0  0  0  0  0  0  0  0  0  0
   40.6950   23.1930   34.4930 N   0  0  0  0  0  0  0  0  0  0  0  0
   39.3540   23.2580   34.6290 C   0  0  0  0  0  0  0  0  0  0  0  0
   38.7740   23.2520   35.8410 N   0  0  0  0  0  0  0  0  0  0  0  0
   39.0130   23.1670   38.3570 C   0  0  0  0  0  0  0  0  0  0  0  0
   37.9620   24.2440   38.5320 C   0  0  0  0  0  0  0  0  0  0  0  0
   43.2190   21.5550   35.0010 C   0  0  0  0  0  0  0  0  0  0  0  0
   43.4160   23.8550   34.1400 C   0  0  0  0  0  0  0  0  0  0  0  0
   43.7280   23.3780   36.5530 C   0  0  0  0  0  0  0  0  0  0  0  0
   44.7560   24.3740   36.5010 N   0  0  0  0  0  0  0  0  0  0  0  0
   46.0140   23.6790   36.7050 C   0  0  0  0  0  0  0  0  0  0  0  0
   47.1740   24.4530   37.1550 C   0  0  0  0  0  0  0  0  0  0  0  0
   46.9070   25.6580   37.9940 C   0  0  0  0  0  0  0  0  0  0  0  0
   45.5600   25.4010   38.6250 C   0  0  0  0  0  0  0  0  0  0  0  0
   44.5400   25.3790   37.5110 C   0  0  0  0  0  0  0  0  0  0  0  0
   41.5561   23.0519   37.7535 H   0  0  0  0  0  0  0  0  0  0  0  0
   38.7232   23.3171   33.7298 H   0  0  0  0  0  0  0  0  0  0  0  0
   38.5612   22.1851   38.5611 H   0  0  0  0  0  0  0  0  0  0  0  0
   39.8380   23.3608   39.0583 H   0  0  0  0  0  0  0  0  0  0  0  0
   37.7913   24.4189   39.6045 H   0  0  0  0  0  0  0  0  0  0  0  0
   38.3086   25.1748   38.0593 H   0  0  0  0  0  0  0  0  0  0  0  0
   37.0230   23.9203   38.0593 H   0  0  0  0  0  0  0  0  0  0  0  0
   43.3157   20.9979   35.9446 H   0  0  0  0  0  0  0  0  0  0  0  0
   42.3780   21.1488   34.4199 H   0  0  0  0  0  0  0  0  0  0  0  0
   44.1478   21.4561   34.4199 H   0  0  0  0  0  0  0  0  0  0  0  0
   43.9309   24.7597   34.4954 H   0  0  0  0  0  0  0  0  0  0  0  0
   44.1078   23.2548   33.5308 H   0  0  0  0  0  0  0  0  0  0  0  0
   42.5467   24.1433   33.5308 H   0  0  0  0  0  0  0  0  0  0  0  0
   42.9967   23.7106   37.3044 H   0  0  0  0  0  0  0  0  0  0  0  0
   44.2758   22.4495   36.7713 H   0  0  0  0  0  0  0  0  0  0  0  0
   45.8345   22.8959   37.4564 H   0  0  0  0  0  0  0  0  0  0  0  0
   46.2956   23.3301   35.7005 H   0  0  0  0  0  0  0  0  0  0  0  0
   47.8152   23.7777   37.7405 H   0  0  0  0  0  0  0  0  0  0  0  0
   47.6279   24.8449   36.2329 H   0  0  0  0  0  0  0  0  0  0  0  0
   47.6814   25.7707   38.7671 H   0  0  0  0  0  0  0  0  0  0  0  0
   46.9170   26.5852   37.4022 H   0  0  0  0  0  0  0  0  0  0  0  0
   45.5675   24.4332   39.1479 H   0  0  0  0  0  0  0  0  0  0  0  0
   45.3181   26.1831   39.3597 H   0  0  0  0  0  0  0  0  0  0  0  0
   44.5514   26.3631   37.0197 H   0  0  0  0  0  0  0  0  0  0  0  0
   43.5771   25.1349   37.9835 H   0  0  0  0  0  0  0  0  0  0  0  0
  1  4  1  0
  1 12  1  0
  2  8  1  0
  3  2  2  0
  4  3  1  0
  5  6  1  0
  5  4  2  0
  6  7  2  0
  7  2  1  0
  8  9  1  0
 10  1  1  0
 11  1  1  0
 13 12  1  0
 13 14  1  0
 13 18  1  0
 14 15  1  0
 15 16  1  0
 16 17  1  0
 18 17  1  0
  3 19  1  0
  6 20  1  0
  8 21  1  0
  8 22  1  0
  9 23  1  0
  9 24  1  0
  9 25  1  0
 10 26  1  0
 10 27  1  0
 10 28  1  0
 11 29  1  0
 11 30  1  0
 11 31  1  0
 12 32  1  0
 12 33  1  0
 14 34  1  0
 14 35  1  0
 15 36  1  0
 15 37  1  0
 16 38  1  0
 16 39  1  0
 17 40  1  0
 17 41  1  0
 18 42  1  0
 18 43  1  0
M  ISO  8  19  14  20  14  21   8  22   8  23   8  24   8  25   8  26   8
M  ISO  8  27   8  28   8  29   8  30   8  31   8  32   8  33   8  34  13
M  ISO  8  35  13  36  13  37  13  38  13  39  13  40  13  41  13  42  13
M  ISO  1  43  13
M  END
>  <minimizedAffinity>  (1) 
-4.16982031

>  <minimizedRMSD>  (1) 
7.71196747

$$$$
