
     RDKit          3D

 30 32  0  0  0  0  0  0  0  0999 V2000
   37.8600   21.9260   35.0690 C   0  0  0  0  0  0  0  0  0  0  0  0
   36.6270   21.4640   34.9250 C   0  0  0  0  0  0  0  0  0  0  0  0
   36.0920   20.9350   33.8380 C   0  0  0  0  0  0  0  0  0  0  0  0
   37.0810   20.9170   32.7490 C   0  0  0  0  0  0  0  0  0  0  0  0
   38.6390   21.6650   33.4520 S   0  0  0  0  0  0  0  0  0  0  0  0
   37.1340   20.4900   31.3460 N   0  0  0  0  0  0  0  0  0  0  0  0
   37.8540   21.2030   30.3330 C   0  0  0  0  0  0  0  0  0  0  0  0
   38.5110   20.0960   29.5010 C   0  0  0  0  0  0  0  0  0  0  0  0
   37.4570   19.4710   28.8590 O   0  0  0  0  0  0  0  0  0  0  0  0
   36.6140   18.7790   29.6930 C   0  0  0  0  0  0  0  0  0  0  0  0
   36.4290   19.3190   31.0470 C   0  0  0  0  0  0  0  0  0  0  0  0
   35.5890   18.5860   31.8990 C   0  0  0  0  0  0  0  0  0  0  0  0
   34.3380   18.5780   31.8210 O   0  0  0  0  0  0  0  0  0  0  0  0
   39.9970   22.8160   37.8440 C   0  0  0  0  0  0  0  0  0  0  0  0
   39.1250   23.5400   38.6890 C   0  0  0  0  0  0  0  0  0  0  0  0
   37.7930   23.7300   38.3190 C   0  0  0  0  0  0  0  0  0  0  0  0
   37.3960   23.1910   37.1290 N   0  0  0  0  0  0  0  0  0  0  0  0
   38.2700   22.4910   36.3280 C   0  0  0  0  0  0  0  0  0  0  0  0
   39.5390   22.3130   36.6880 N   0  0  0  0  0  0  0  0  0  0  0  0
   35.9752   21.5276   35.8088 H   0  0  0  0  0  0  0  0  0  0  0  0
   35.0597   20.5632   33.7594 H   0  0  0  0  0  0  0  0  0  0  0  0
   37.1698   21.8033   29.7153 H   0  0  0  0  0  0  0  0  0  0  0  0
   38.5850   21.9111   30.7503 H   0  0  0  0  0  0  0  0  0  0  0  0
   39.2125   20.5240   28.7698 H   0  0  0  0  0  0  0  0  0  0  0  0
   39.0951   19.3992   30.1201 H   0  0  0  0  0  0  0  0  0  0  0  0
   36.1012   17.8634   29.3631 H   0  0  0  0  0  0  0  0  0  0  0  0
   36.0589   17.9788   32.6867 H   0  0  0  0  0  0  0  0  0  0  0  0
   41.0475   22.6657   38.1336 H   0  0  0  0  0  0  0  0  0  0  0  0
   39.4965   23.9536   39.6382 H   0  0  0  0  0  0  0  0  0  0  0  0
   37.0937   24.2893   38.9579 H   0  0  0  0  0  0  0  0  0  0  0  0
  1 18  1  0
  2  1  2  0
  3  2  1  0
  4  5  1  0
  4  3  2  0
  5  1  1  0
  6  4  1  0
  7  6  1  0
  8  7  1  0
  9  8  1  0
  9 10  1  0
 10 11  2  0
 11  6  1  0
 11 12  1  0
 13 12  2  0
 14 15  2  0
 16 15  1  0
 17 16  2  0
 18 19  2  0
 18 17  1  0
 19 14  1  0
  2 20  1  0
  3 21  1  0
  7 22  1  0
  7 23  1  0
  8 24  1  0
  8 25  1  0
 10 26  1  0
 12 27  1  0
 14 28  1  0
 15 29  1  0
 16 30  1  0
M  ISO  8  20  14  21  14  22  13  23  13  24  13  25  13  26  13  27   6
M  ISO  3  28  14  29  14  30  14
M  END
>  <minimizedAffinity>  (1) 
-4.8186512

>  <minimizedRMSD>  (1) 
0.444808125

$$$$
