
     RDKit          3D

 37 39  0  0  0  0  0  0  0  0999 V2000
   38.0350   21.9960   34.9360 C   0  0  0  0  0  0  0  0  0  0  0  0
   36.7830   21.6330   34.7000 C   0  0  0  0  0  0  0  0  0  0  0  0
   36.2900   21.1870   33.5640 C   0  0  0  0  0  0  0  0  0  0  0  0
   37.3150   21.1260   32.5270 C   0  0  0  0  0  0  0  0  0  0  0  0
   38.8630   21.7250   33.3490 S   0  0  0  0  0  0  0  0  0  0  0  0
   37.4220   20.7640   31.1090 N   0  0  0  0  0  0  0  0  0  0  0  0
   38.2390   21.4350   30.1680 C   0  0  0  0  0  0  0  0  0  0  0  0
   38.9460   20.3630   29.3560 C   0  0  0  0  0  0  0  0  0  0  0  0
   38.0570   19.5790   28.7180 O   0  0  0  0  0  0  0  0  0  0  0  0
   37.0230   19.0460   29.4160 C   0  0  0  0  0  0  0  0  0  0  0  0
   36.6530   19.6790   30.7180 C   0  0  0  0  0  0  0  0  0  0  0  0
   35.5360   18.9880   31.3040 C   0  0  0  0  0  0  0  0  0  0  0  0
   34.5010   19.8560   32.0040 C   0  0  0  0  0  0  0  0  0  0  0  0
   36.0600   18.0760   32.4280 C   0  0  0  0  0  0  0  0  0  0  0  0
   40.0780   22.7360   37.8250 C   0  0  0  0  0  0  0  0  0  0  0  0
   39.1810   23.4130   38.6760 C   0  0  0  0  0  0  0  0  0  0  0  0
   37.8790   23.6200   38.2740 C   0  0  0  0  0  0  0  0  0  0  0  0
   37.5160   23.1480   37.0450 N   0  0  0  0  0  0  0  0  0  0  0  0
   38.4130   22.4890   36.2300 C   0  0  0  0  0  0  0  0  0  0  0  0
   39.6650   22.2940   36.6270 N   0  0  0  0  0  0  0  0  0  0  0  0
   36.0808   21.7128   35.5430 H   0  0  0  0  0  0  0  0  0  0  0  0
   35.2393   20.8972   33.4152 H   0  0  0  0  0  0  0  0  0  0  0  0
   37.6207   22.0626   29.5094 H   0  0  0  0  0  0  0  0  0  0  0  0
   38.9644   22.0905   30.6721 H   0  0  0  0  0  0  0  0  0  0  0  0
   39.5987   20.8454   28.6135 H   0  0  0  0  0  0  0  0  0  0  0  0
   39.5386   19.7377   30.0400 H   0  0  0  0  0  0  0  0  0  0  0  0
   36.4729   18.1731   29.0345 H   0  0  0  0  0  0  0  0  0  0  0  0
   35.0589   18.4871   30.4488 H   0  0  0  0  0  0  0  0  0  0  0  0
   34.6172   19.7586   33.0935 H   0  0  0  0  0  0  0  0  0  0  0  0
   34.6459   20.9067   31.7123 H   0  0  0  0  0  0  0  0  0  0  0  0
   33.4916   19.5303   31.7123 H   0  0  0  0  0  0  0  0  0  0  0  0
   35.8076   18.5154   33.4043 H   0  0  0  0  0  0  0  0  0  0  0  0
   35.5947   17.0830   32.3414 H   0  0  0  0  0  0  0  0  0  0  0  0
   37.1522   17.9779   32.3414 H   0  0  0  0  0  0  0  0  0  0  0  0
   41.1178   22.5698   38.1433 H   0  0  0  0  0  0  0  0  0  0  0  0
   39.5192   23.7751   39.6581 H   0  0  0  0  0  0  0  0  0  0  0  0
   37.1593   24.1456   38.9188 H   0  0  0  0  0  0  0  0  0  0  0  0
  1 19  1  0
  2  1  2  0
  3  2  1  0
  4  5  1  0
  4  3  2  0
  5  1  1  0
  6  4  1  0
  7  6  1  0
  8  7  1  0
  9  8  1  0
  9 10  1  0
 10 11  2  0
 11  6  1  0
 11 12  1  0
 12 13  1  0
 12 14  1  0
 15 16  2  0
 17 16  1  0
 18 17  2  0
 19 20  2  0
 19 18  1  0
 20 15  1  0
  2 21  1  0
  3 22  1  0
  7 23  1  0
  7 24  1  0
  8 25  1  0
  8 26  1  0
 10 27  1  0
 12 28  1  0
 13 29  1  0
 13 30  1  0
 13 31  1  0
 14 32  1  0
 14 33  1  0
 14 34  1  0
 15 35  1  0
 16 36  1  0
 17 37  1  0
M  ISO  8  21  14  22  14  23  13  24  13  25  13  26  13  27  13  28   8
M  ISO  8  29   8  30   8  31   8  32   8  33   8  34   8  35  14  36  14
M  ISO  1  37  14
M  END
>  <minimizedAffinity>  (1) 
-4.68238211

>  <minimizedRMSD>  (1) 
0.397891134

$$$$
