
     RDKit          3D

 37 40  0  0  0  0  0  0  0  0999 V2000
   38.6570   21.5440   30.4760 N   0  0  0  0  0  0  0  0  0  0  0  0
   39.5930   22.1940   29.5430 C   0  0  0  0  0  0  0  0  0  0  0  0
   40.1870   21.0500   28.8090 C   0  0  0  0  0  0  0  0  0  0  0  0
   39.1320   20.5520   28.0180 O   0  0  0  0  0  0  0  0  0  0  0  0
   38.2210   19.8480   28.8060 C   0  0  0  0  0  0  0  0  0  0  0  0
   37.9320   20.3370   30.1880 C   0  0  0  0  0  0  0  0  0  0  0  0
   38.5630   22.5640   34.3960 C   0  0  0  0  0  0  0  0  0  0  0  0
   37.6990   23.2390   33.6570 C   0  0  0  0  0  0  0  0  0  0  0  0
   37.4870   23.1490   32.3540 C   0  0  0  0  0  0  0  0  0  0  0  0
   38.3880   22.1310   31.7900 C   0  0  0  0  0  0  0  0  0  0  0  0
   39.4020   21.4690   33.2140 S   0  0  0  0  0  0  0  0  0  0  0  0
   39.9510   22.7120   37.7270 C   0  0  0  0  0  0  0  0  0  0  0  0
   38.9510   23.3070   38.4780 C   0  0  0  0  0  0  0  0  0  0  0  0
   37.7880   23.6620   37.8570 C   0  0  0  0  0  0  0  0  0  0  0  0
   37.6350   23.4240   36.5190 N   0  0  0  0  0  0  0  0  0  0  0  0
   38.6530   22.8310   35.8080 C   0  0  0  0  0  0  0  0  0  0  0  0
   39.7870   22.4860   36.4120 N   0  0  0  0  0  0  0  0  0  0  0  0
   37.0510   19.4890   30.9220 C   0  0  0  0  0  0  0  0  0  0  0  0
   37.1710   18.2630   31.5100 C   0  0  0  0  0  0  0  0  0  0  0  0
   36.3140   17.5500   32.2990 C   0  0  0  0  0  0  0  0  0  0  0  0
   35.1280   18.2090   32.5190 C   0  0  0  0  0  0  0  0  0  0  0  0
   34.9060   19.4470   31.9700 C   0  0  0  0  0  0  0  0  0  0  0  0
   35.8530   20.0080   31.2190 N   0  0  0  0  0  0  0  0  0  0  0  0
   39.0611   22.8697   28.8571 H   0  0  0  0  0  0  0  0  0  0  0  0
   40.3435   22.8188   30.0494 H   0  0  0  0  0  0  0  0  0  0  0  0
   41.0223   21.3853   28.1766 H   0  0  0  0  0  0  0  0  0  0  0  0
   40.5984   20.2869   29.4861 H   0  0  0  0  0  0  0  0  0  0  0  0
   37.7236   18.9476   28.4162 H   0  0  0  0  0  0  0  0  0  0  0  0
   37.0764   23.9693   34.1945 H   0  0  0  0  0  0  0  0  0  0  0  0
   36.7550   23.7400   31.7840 H   0  0  0  0  0  0  0  0  0  0  0  0
   40.8933   22.4201   38.2137 H   0  0  0  0  0  0  0  0  0  0  0  0
   39.0909   23.4900   39.5536 H   0  0  0  0  0  0  0  0  0  0  0  0
   36.9781   24.1371   38.4301 H   0  0  0  0  0  0  0  0  0  0  0  0
   38.1289   17.7594   31.3133 H   0  0  0  0  0  0  0  0  0  0  0  0
   36.5472   16.5578   32.7128 H   0  0  0  0  0  0  0  0  0  0  0  0
   34.3505   17.7403   33.1401 H   0  0  0  0  0  0  0  0  0  0  0  0
   33.9555   19.9711   32.1482 H   0  0  0  0  0  0  0  0  0  0  0  0
  1 10  1  0
  2  1  1  0
  3  2  1  0
  4  5  1  0
  4  3  1  0
  5  6  2  0
  6  1  1  0
  6 18  1  0
  7 16  1  0
  8  7  2  0
  9  8  1  0
 10  9  2  0
 10 11  1  0
 11  7  1  0
 12 13  2  0
 14 13  1  0
 15 14  2  0
 16 17  2  0
 16 15  1  0
 17 12  1  0
 18 23  1  0
 18 19  2  0
 19 20  1  0
 20 21  2  0
 22 21  1  0
 23 22  2  0
  2 24  1  0
  2 25  1  0
  3 26  1  0
  3 27  1  0
  5 28  1  0
  8 29  1  0
  9 30  1  0
 12 31  1  0
 13 32  1  0
 14 33  1  0
 19 34  1  0
 20 35  1  0
 21 36  1  0
 22 37  1  0
M  ISO  8  24  13  25  13  26  13  27  13  28  13  29  14  30  14  31  14
M  ISO  6  32  14  33  14  34  14  35  14  36  14  37  14
M  END
>  <minimizedAffinity>  (1) 
-4.83610344

>  <minimizedRMSD>  (1) 
1.68221831

$$$$
