
     RDKit          3D

 35 38  0  0  0  0  0  0  0  0999 V2000
   38.1140   20.7480   30.8370 N   0  0  0  0  0  0  0  0  0  0  0  0
   38.8780   21.6230   29.9170 C   0  0  0  0  0  0  0  0  0  0  0  0
   39.5890   20.6470   29.0480 C   0  0  0  0  0  0  0  0  0  0  0  0
   38.5740   20.0640   28.2710 O   0  0  0  0  0  0  0  0  0  0  0  0
   37.8210   19.1620   29.0340 C   0  0  0  0  0  0  0  0  0  0  0  0
   37.5570   19.4860   30.4630 C   0  0  0  0  0  0  0  0  0  0  0  0
   38.2940   22.0350   34.6650 C   0  0  0  0  0  0  0  0  0  0  0  0
   37.0490   21.7430   34.2780 C   0  0  0  0  0  0  0  0  0  0  0  0
   36.7050   21.3130   33.1110 C   0  0  0  0  0  0  0  0  0  0  0  0
   37.8640   21.1710   32.2170 C   0  0  0  0  0  0  0  0  0  0  0  0
   39.3440   21.6960   33.2120 S   0  0  0  0  0  0  0  0  0  0  0  0
   40.0330   22.6910   37.7560 C   0  0  0  0  0  0  0  0  0  0  0  0
   39.0630   23.2770   38.5690 C   0  0  0  0  0  0  0  0  0  0  0  0
   37.8010   23.4640   38.0740 C   0  0  0  0  0  0  0  0  0  0  0  0
   37.5780   23.0550   36.7940 N   0  0  0  0  0  0  0  0  0  0  0  0
   38.5240   22.4890   36.0160 C   0  0  0  0  0  0  0  0  0  0  0  0
   39.7470   22.3090   36.4990 N   0  0  0  0  0  0  0  0  0  0  0  0
   36.8780   18.4870   31.1530 N   0  0  0  0  0  0  0  0  0  0  0  0
   37.4800   17.3980   31.5460 N   0  0  0  0  0  0  0  0  0  0  0  0
   36.7160   16.6070   32.2850 C   0  0  0  0  0  0  0  0  0  0  0  0
   35.4820   17.1790   32.4230 C   0  0  0  0  0  0  0  0  0  0  0  0
   35.6710   18.3290   31.7000 C   0  0  0  0  0  0  0  0  0  0  0  0
   38.2043   22.2616   29.3268 H   0  0  0  0  0  0  0  0  0  0  0  0
   39.5549   22.3165   30.4374 H   0  0  0  0  0  0  0  0  0  0  0  0
   40.3232   21.1586   28.4083 H   0  0  0  0  0  0  0  0  0  0  0  0
   40.1516   19.9015   29.6291 H   0  0  0  0  0  0  0  0  0  0  0  0
   37.4333   18.2347   28.5871 H   0  0  0  0  0  0  0  0  0  0  0  0
   36.2475   21.8812   35.0186 H   0  0  0  0  0  0  0  0  0  0  0  0
   35.6699   21.0807   32.8201 H   0  0  0  0  0  0  0  0  0  0  0  0
   41.0488   22.5388   38.1497 H   0  0  0  0  0  0  0  0  0  0  0  0
   39.3095   23.5852   39.5958 H   0  0  0  0  0  0  0  0  0  0  0  0
   37.0056   23.9222   38.6801 H   0  0  0  0  0  0  0  0  0  0  0  0
   37.0251   15.6443   32.7181 H   0  0  0  0  0  0  0  0  0  0  0  0
   34.5920   16.8196   32.9603 H   0  0  0  0  0  0  0  0  0  0  0  0
   34.8742   19.0775   31.5781 H   0  0  0  0  0  0  0  0  0  0  0  0
  1 10  1  0
  2  1  1  0
  3  2  1  0
  4  5  1  0
  4  3  1  0
  5  6  2  0
  6  1  1  0
  6 18  1  0
  7 16  1  0
  8  7  2  0
  9  8  1  0
 10  9  2  0
 10 11  1  0
 11  7  1  0
 12 13  2  0
 14 13  1  0
 15 14  2  0
 16 17  2  0
 16 15  1  0
 17 12  1  0
 18 19  1  0
 18 22  1  0
 19 20  2  0
 20 21  1  0
 22 21  2  0
  2 23  1  0
  2 24  1  0
  3 25  1  0
  3 26  1  0
  5 27  1  0
  8 28  1  0
  9 29  1  0
 12 30  1  0
 13 31  1  0
 14 32  1  0
 20 33  1  0
 21 34  1  0
 22 35  1  0
M  ISO  8  23  13  24  13  25  13  26  13  27  13  28  14  29  14  30  14
M  ISO  5  31  14  32  14  33  14  34  14  35  14
M  END
>  <minimizedAffinity>  (1) 
-4.56422138

>  <minimizedRMSD>  (1) 
0.940618694

$$$$
