
     RDKit          3D

 41 44  0  0  0  0  0  0  0  0999 V2000
   38.1570   21.1070   30.8190 N   0  0  0  0  0  0  0  0  0  0  0  0
   38.5620   22.1080   29.8620 C   0  0  0  0  0  0  0  0  0  0  0  0
   39.6520   21.4210   29.0600 C   0  0  0  0  0  0  0  0  0  0  0  0
   39.0110   20.4520   28.3210 O   0  0  0  0  0  0  0  0  0  0  0  0
   38.4910   19.4140   29.0780 C   0  0  0  0  0  0  0  0  0  0  0  0
   38.0180   19.7390   30.4460 C   0  0  0  0  0  0  0  0  0  0  0  0
   38.2720   22.1030   34.7330 C   0  0  0  0  0  0  0  0  0  0  0  0
   37.0800   21.6380   34.3770 C   0  0  0  0  0  0  0  0  0  0  0  0
   36.7550   21.2350   33.1640 C   0  0  0  0  0  0  0  0  0  0  0  0
   37.8430   21.3490   32.2300 C   0  0  0  0  0  0  0  0  0  0  0  0
   39.2750   22.0450   33.2140 S   0  0  0  0  0  0  0  0  0  0  0  0
   40.0130   22.7450   37.8370 C   0  0  0  0  0  0  0  0  0  0  0  0
   39.0200   23.2680   38.6610 C   0  0  0  0  0  0  0  0  0  0  0  0
   37.7480   23.4090   38.1700 C   0  0  0  0  0  0  0  0  0  0  0  0
   37.4780   23.0310   36.8720 N   0  0  0  0  0  0  0  0  0  0  0  0
   38.5000   22.5190   36.1010 C   0  0  0  0  0  0  0  0  0  0  0  0
   39.7360   22.3790   36.5730 N   0  0  0  0  0  0  0  0  0  0  0  0
   37.5380   18.6140   31.1020 N   0  0  0  0  0  0  0  0  0  0  0  0
   38.6230   17.6610   31.4110 C   0  0  0  0  0  0  0  0  0  0  0  0
   37.9970   16.5630   32.2760 C   0  0  0  0  0  0  0  0  0  0  0  0
   36.7810   16.1940   31.7590 O   0  0  0  0  0  0  0  0  0  0  0  0
   35.7640   17.1200   31.9210 C   0  0  0  0  0  0  0  0  0  0  0  0
   36.1250   18.4900   31.4340 C   0  0  0  0  0  0  0  0  0  0  0  0
   37.7203   22.3945   29.2144 H   0  0  0  0  0  0  0  0  0  0  0  0
   38.9059   23.0379   30.3384 H   0  0  0  0  0  0  0  0  0  0  0  0
   40.1531   22.1414   28.3967 H   0  0  0  0  0  0  0  0  0  0  0  0
   40.4275   20.9909   29.7109 H   0  0  0  0  0  0  0  0  0  0  0  0
   38.4314   18.3901   28.6804 H   0  0  0  0  0  0  0  0  0  0  0  0
   36.3034   21.5849   35.1543 H   0  0  0  0  0  0  0  0  0  0  0  0
   35.7591   20.8528   32.8954 H   0  0  0  0  0  0  0  0  0  0  0  0
   41.0360   22.6298   38.2245 H   0  0  0  0  0  0  0  0  0  0  0  0
   39.2536   23.5646   39.6942 H   0  0  0  0  0  0  0  0  0  0  0  0
   36.9500   23.8200   38.8058 H   0  0  0  0  0  0  0  0  0  0  0  0
   39.0277   17.2306   30.4831 H   0  0  0  0  0  0  0  0  0  0  0  0
   39.4540   18.1570   31.9339 H   0  0  0  0  0  0  0  0  0  0  0  0
   38.6649   15.6892   32.2951 H   0  0  0  0  0  0  0  0  0  0  0  0
   37.8538   16.9458   33.2973 H   0  0  0  0  0  0  0  0  0  0  0  0
   34.8829   16.7719   31.3619 H   0  0  0  0  0  0  0  0  0  0  0  0
   35.5660   17.2002   33.0001 H   0  0  0  0  0  0  0  0  0  0  0  0
   35.8833   19.2186   32.2218 H   0  0  0  0  0  0  0  0  0  0  0  0
   35.5499   18.6785   30.5155 H   0  0  0  0  0  0  0  0  0  0  0  0
  1 10  1  0
  2  1  1  0
  3  2  1  0
  4  3  1  0
  4  5  1  0
  5  6  2  0
  6  1  1  0
  6 18  1  0
  7 16  1  0
  8  7  2  0
  9  8  1  0
 10  9  2  0
 10 11  1  0
 11  7  1  0
 12 13  2  0
 14 13  1  0
 15 14  2  0
 16 17  2  0
 16 15  1  0
 17 12  1  0
 18 19  1  0
 18 23  1  0
 19 20  1  0
 21 22  1  0
 21 20  1  0
 23 22  1  0
  2 24  1  0
  2 25  1  0
  3 26  1  0
  3 27  1  0
  5 28  1  0
  8 29  1  0
  9 30  1  0
 12 31  1  0
 13 32  1  0
 14 33  1  0
 19 34  1  0
 19 35  1  0
 20 36  1  0
 20 37  1  0
 22 38  1  0
 22 39  1  0
 23 40  1  0
 23 41  1  0
M  ISO  8  24  13  25  13  26  13  27  13  28  13  29  14  30  14  31  14
M  ISO  8  32  14  33  14  34  13  35  13  36  13  37  13  38  13  39  13
M  ISO  2  40  13  41  13
M  END
>  <minimizedAffinity>  (1) 
-4.30315733

>  <minimizedRMSD>  (1) 
1.99285579

$$$$
