
     RDKit          3D

 26 27  0  0  0  0  0  0  0  0999 V2000
   38.8850   23.4860   37.2290 C   0  0  0  0  0  0  0  0  0  0  0  0
   38.4040   24.2630   36.1740 C   0  0  0  0  0  0  0  0  0  0  0  0
   38.9170   24.0390   34.9050 C   0  0  0  0  0  0  0  0  0  0  0  0
   39.8560   23.0790   34.7540 N   0  0  0  0  0  0  0  0  0  0  0  0
   40.3070   22.3420   35.7780 C   0  0  0  0  0  0  0  0  0  0  0  0
   39.8320   22.5360   37.0090 N   0  0  0  0  0  0  0  0  0  0  0  0
   38.5600   24.7190   33.7120 N   0  0  0  0  0  0  0  0  0  0  0  0
   39.2070   25.9320   33.2210 C   0  0  0  0  0  0  0  0  0  0  0  0
   38.1710   27.0460   33.1420 C   0  0  0  0  0  0  0  0  0  0  0  0
   36.8810   26.5120   33.2580 O   0  0  0  0  0  0  0  0  0  0  0  0
   36.7020   25.4830   32.3340 C   0  0  0  0  0  0  0  0  0  0  0  0
   37.4990   24.2930   32.8190 C   0  0  0  0  0  0  0  0  0  0  0  0
   38.3260   23.7370   38.5850 C   0  0  0  0  0  0  0  0  0  0  0  0
   37.3270   22.8130   38.8810 F   0  0  0  0  0  0  0  0  0  0  0  0
   39.3220   23.7410   39.5300 F   0  0  0  0  0  0  0  0  0  0  0  0
   37.6660   24.9720   38.6000 F   0  0  0  0  0  0  0  0  0  0  0  0
   37.6376   25.0334   36.3446 H   0  0  0  0  0  0  0  0  0  0  0  0
   41.0733   21.5726   35.6024 H   0  0  0  0  0  0  0  0  0  0  0  0
   40.0130   26.2254   33.9097 H   0  0  0  0  0  0  0  0  0  0  0  0
   39.6346   25.7491   32.2241 H   0  0  0  0  0  0  0  0  0  0  0  0
   38.3434   27.7619   33.9591 H   0  0  0  0  0  0  0  0  0  0  0  0
   38.2639   27.5563   32.1720 H   0  0  0  0  0  0  0  0  0  0  0  0
   37.0640   25.7994   31.3446 H   0  0  0  0  0  0  0  0  0  0  0  0
   35.6366   25.2248   32.2432 H   0  0  0  0  0  0  0  0  0  0  0  0
   36.8299   23.6040   33.3553 H   0  0  0  0  0  0  0  0  0  0  0  0
   37.9475   23.7887   31.9504 H   0  0  0  0  0  0  0  0  0  0  0  0
  1 13  1  0
  2  1  2  0
  3  2  1  0
  4  3  2  0
  4  5  1  0
  5  6  2  0
  6  1  1  0
  7  3  1  0
  8  7  1  0
  9  8  1  0
  9 10  1  0
 11 12  1  0
 11 10  1  0
 12  7  1  0
 13 16  1  0
 13 14  1  0
 13 15  1  0
  2 17  1  0
  5 18  1  0
  8 19  1  0
  8 20  1  0
  9 21  1  0
  9 22  1  0
 11 23  1  0
 11 24  1  0
 12 25  1  0
 12 26  1  0
M  ISO  8  17  14  18  14  19  13  20  13  21  13  22  13  23  13  24  13
M  ISO  2  25  13  26  13
M  END
>  <minimizedAffinity>  (1) 
-4.7883296

>  <minimizedRMSD>  (1) 
1.56348526

$$$$
