
     RDKit          3D

 30 30  0  0  0  0  0  0  0  0999 V2000
   38.4560   23.6360   37.3510 C   0  0  0  0  0  0  0  0  0  0  0  0
   41.5530   21.6000   36.7750 C   0  0  0  0  0  0  0  0  0  0  0  0
   40.4560   22.1370   37.4220 C   0  0  0  0  0  0  0  0  0  0  0  0
   39.6330   23.0290   36.7280 C   0  0  0  0  0  0  0  0  0  0  0  0
   39.9420   23.3370   35.4430 N   0  0  0  0  0  0  0  0  0  0  0  0
   41.0180   22.7990   34.8350 C   0  0  0  0  0  0  0  0  0  0  0  0
   41.8230   21.9360   35.4880 N   0  0  0  0  0  0  0  0  0  0  0  0
   42.4050   20.6530   37.5690 C   0  0  0  0  0  0  0  0  0  0  0  0
   43.1580   19.7110   36.6900 C   0  0  0  0  0  0  0  0  0  0  0  0
   38.6970   23.7280   38.8390 C   0  0  0  0  0  0  0  0  0  0  0  0
   38.1070   25.0020   36.8120 C   0  0  0  0  0  0  0  0  0  0  0  0
   37.2430   22.7570   37.0850 C   0  0  0  0  0  0  0  0  0  0  0  0
   37.4940   21.8680   35.9870 N   0  0  0  0  0  0  0  0  0  0  0  0
   40.2343   21.8672   38.4651 H   0  0  0  0  0  0  0  0  0  0  0  0
   41.2426   23.0674   33.7922 H   0  0  0  0  0  0  0  0  0  0  0  0
   43.1237   21.2352   38.1644 H   0  0  0  0  0  0  0  0  0  0  0  0
   41.7425   20.0594   38.2162 H   0  0  0  0  0  0  0  0  0  0  0  0
   43.7244   19.0024   37.3121 H   0  0  0  0  0  0  0  0  0  0  0  0
   42.4508   19.1573   36.0550 H   0  0  0  0  0  0  0  0  0  0  0  0
   43.8539   20.2789   36.0550 H   0  0  0  0  0  0  0  0  0  0  0  0
   37.8009   23.3859   39.3774 H   0  0  0  0  0  0  0  0  0  0  0  0
   39.5532   23.0935   39.1117 H   0  0  0  0  0  0  0  0  0  0  0  0
   38.9125   24.7716   39.1117 H   0  0  0  0  0  0  0  0  0  0  0  0
   37.9305   25.6926   37.6498 H   0  0  0  0  0  0  0  0  0  0  0  0
   38.9382   25.3768   36.1967 H   0  0  0  0  0  0  0  0  0  0  0  0
   37.1979   24.9321   36.1967 H   0  0  0  0  0  0  0  0  0  0  0  0
   37.0208   22.1655   37.9854 H   0  0  0  0  0  0  0  0  0  0  0  0
   36.3877   23.4006   36.8316 H   0  0  0  0  0  0  0  0  0  0  0  0
   37.7560   20.9402   36.3494 H   0  0  0  0  0  0  0  0  0  0  0  0
   36.6438   21.7843   35.4117 H   0  0  0  0  0  0  0  0  0  0  0  0
  1 10  1  0
  2  3  2  0
  2  8  1  0
  4  1  1  0
  4  3  1  0
  5  4  2  0
  6  5  1  0
  6  7  2  0
  7  2  1  0
  9  8  1  0
 11  1  1  0
 12  1  1  0
 13 12  1  0
  3 14  1  0
  6 15  1  0
  8 16  1  0
  8 17  1  0
  9 18  1  0
  9 19  1  0
  9 20  1  0
 10 21  1  0
 10 22  1  0
 10 23  1  0
 11 24  1  0
 11 25  1  0
 11 26  1  0
 12 27  1  0
 12 28  1  0
 13 29  1  0
 13 30  1  0
M  ISO  8  14  14  15  14  16   8  17   8  18   8  19   8  20   8  21   8
M  ISO  8  22   8  23   8  24   8  25   8  26   8  27   8  28   8  29   5
M  ISO  1  30   5
M  END
>  <minimizedAffinity>  (1) 
-3.80743718

>  <minimizedRMSD>  (1) 
0.491402894

$$$$
