
     RDKit          3D

 35 36  0  0  0  0  0  0  0  0999 V2000
   38.5950   23.6030   36.9120 C   0  0  0  0  0  0  0  0  0  0  0  0
   41.8750   21.7670   36.9070 C   0  0  0  0  0  0  0  0  0  0  0  0
   40.5620   22.0690   37.2420 C   0  0  0  0  0  0  0  0  0  0  0  0
   39.9580   23.1980   36.6390 C   0  0  0  0  0  0  0  0  0  0  0  0
   40.6980   23.9170   35.7740 N   0  0  0  0  0  0  0  0  0  0  0  0
   41.9680   23.6090   35.4620 C   0  0  0  0  0  0  0  0  0  0  0  0
   42.5640   22.5340   36.0270 N   0  0  0  0  0  0  0  0  0  0  0  0
   42.4490   20.5550   37.5860 C   0  0  0  0  0  0  0  0  0  0  0  0
   43.2070   19.6880   36.6170 C   0  0  0  0  0  0  0  0  0  0  0  0
   38.3450   23.3800   38.4030 C   0  0  0  0  0  0  0  0  0  0  0  0
   38.2690   25.0190   36.5440 C   0  0  0  0  0  0  0  0  0  0  0  0
   37.6230   22.7180   36.1590 C   0  0  0  0  0  0  0  0  0  0  0  0
   38.1540   22.1290   34.9040 C   0  0  0  0  0  0  0  0  0  0  0  0
   37.1780   21.5190   33.9020 C   0  0  0  0  0  0  0  0  0  0  0  0
   37.6850   22.8800   33.6590 C   0  0  0  0  0  0  0  0  0  0  0  0
   40.0052   21.4466   37.9580 H   0  0  0  0  0  0  0  0  0  0  0  0
   42.5241   24.2320   34.7460 H   0  0  0  0  0  0  0  0  0  0  0  0
   43.1325   20.8820   38.3835 H   0  0  0  0  0  0  0  0  0  0  0  0
   41.6181   19.9652   38.0004 H   0  0  0  0  0  0  0  0  0  0  0  0
   43.8311   18.9741   37.1745 H   0  0  0  0  0  0  0  0  0  0  0  0
   42.4958   19.1370   35.9842 H   0  0  0  0  0  0  0  0  0  0  0  0
   43.8481   20.3193   35.9842 H   0  0  0  0  0  0  0  0  0  0  0  0
   39.0401   24.0001   38.9881 H   0  0  0  0  0  0  0  0  0  0  0  0
   37.3096   23.6600   38.6471 H   0  0  0  0  0  0  0  0  0  0  0  0
   38.5053   22.3195   38.6471 H   0  0  0  0  0  0  0  0  0  0  0  0
   38.1321   25.6135   37.4593 H   0  0  0  0  0  0  0  0  0  0  0  0
   39.0931   25.4428   35.9513 H   0  0  0  0  0  0  0  0  0  0  0  0
   37.3426   25.0398   35.9513 H   0  0  0  0  0  0  0  0  0  0  0  0
   37.3264   21.8936   36.8241 H   0  0  0  0  0  0  0  0  0  0  0  0
   36.7834   23.3646   35.8641 H   0  0  0  0  0  0  0  0  0  0  0  0
   39.0935   21.7770   35.3551 H   0  0  0  0  0  0  0  0  0  0  0  0
   37.5044   20.6907   33.2559 H   0  0  0  0  0  0  0  0  0  0  0  0
   36.1757   21.0721   33.9769 H   0  0  0  0  0  0  0  0  0  0  0  0
   38.3882   23.0623   32.8330 H   0  0  0  0  0  0  0  0  0  0  0  0
   37.2141   23.8579   33.4799 H   0  0  0  0  0  0  0  0  0  0  0  0
  1 10  1  0
  2  3  2  0
  2  8  1  0
  4  1  1  0
  4  3  1  0
  5  4  2  0
  6  5  1  0
  6  7  2  0
  7  2  1  0
  9  8  1  0
 11  1  1  0
 12  1  1  0
 13 12  1  0
 14 13  1  0
 15 14  1  0
 15 13  1  0
  3 16  1  0
  6 17  1  0
  8 18  1  0
  8 19  1  0
  9 20  1  0
  9 21  1  0
  9 22  1  0
 10 23  1  0
 10 24  1  0
 10 25  1  0
 11 26  1  0
 11 27  1  0
 11 28  1  0
 12 29  1  0
 12 30  1  0
 13 31  1  0
 14 32  1  0
 14 33  1  0
 15 34  1  0
 15 35  1  0
M  ISO  8  16  14  17  14  18   8  19   8  20   8  21   8  22   8  23   8
M  ISO  8  24   8  25   8  26   8  27   8  28   8  29   8  30   8  31  13
M  ISO  4  32  13  33  13  34  13  35  13
M  END
>  <minimizedAffinity>  (1) 
-3.75343204

>  <minimizedRMSD>  (1) 
1.14201963

$$$$
