
     RDKit          3D

 30 32  0  0  0  0  0  0  0  0999 V2000
   37.7400   26.5310   33.8210 C   0  0  0  0  0  0  0  0  0  0  0  0
   36.6840   27.4030   34.0870 C   0  0  0  0  0  0  0  0  0  0  0  0
   36.3710   28.3900   33.1790 C   0  0  0  0  0  0  0  0  0  0  0  0
   37.1230   28.4580   32.0530 N   0  0  0  0  0  0  0  0  0  0  0  0
   38.1340   27.6170   31.8050 C   0  0  0  0  0  0  0  0  0  0  0  0
   38.4460   26.6570   32.6810 N   0  0  0  0  0  0  0  0  0  0  0  0
   35.3440   29.3540   33.2880 N   0  0  0  0  0  0  0  0  0  0  0  0
   35.5140   30.6720   33.9050 C   0  0  0  0  0  0  0  0  0  0  0  0
   34.5730   30.7850   35.0910 C   0  0  0  0  0  0  0  0  0  0  0  0
   33.6190   29.7630   35.0470 O   0  0  0  0  0  0  0  0  0  0  0  0
   32.9940   29.7270   33.8030 C   0  0  0  0  0  0  0  0  0  0  0  0
   33.9940   29.1670   32.8030 C   0  0  0  0  0  0  0  0  0  0  0  0
   38.0190   25.5020   34.8360 C   0  0  0  0  0  0  0  0  0  0  0  0
   38.1390   25.7860   36.1960 C   0  0  0  0  0  0  0  0  0  0  0  0
   38.3900   24.6240   36.8110 N   0  0  0  0  0  0  0  0  0  0  0  0
   38.4250   23.6610   35.8820 C   0  0  0  0  0  0  0  0  0  0  0  0
   38.1990   24.1800   34.6600 N   0  0  0  0  0  0  0  0  0  0  0  0
   36.1047   27.3028   35.0167 H   0  0  0  0  0  0  0  0  0  0  0  0
   38.7119   27.7165   30.8743 H   0  0  0  0  0  0  0  0  0  0  0  0
   36.5533   30.7888   34.2459 H   0  0  0  0  0  0  0  0  0  0  0  0
   35.2852   31.4591   33.1715 H   0  0  0  0  0  0  0  0  0  0  0  0
   35.1512   30.7031   36.0232 H   0  0  0  0  0  0  0  0  0  0  0  0
   34.0606   31.7576   35.0525 H   0  0  0  0  0  0  0  0  0  0  0  0
   32.1057   29.0798   33.8479 H   0  0  0  0  0  0  0  0  0  0  0  0
   32.6706   30.7348   33.5034 H   0  0  0  0  0  0  0  0  0  0  0  0
   33.8777   29.6890   31.8418 H   0  0  0  0  0  0  0  0  0  0  0  0
   33.8058   28.0912   32.6714 H   0  0  0  0  0  0  0  0  0  0  0  0
   38.0455   26.7736   36.6713 H   0  0  0  0  0  0  0  0  0  0  0  0
   38.6119   22.5966   36.0875 H   0  0  0  0  0  0  0  0  0  0  0  0
   38.1697   23.6668   33.7675 H   0  0  0  0  0  0  0  0  0  0  0  0
  1  2  2  0
  1 13  1  0
  3  7  1  0
  3  2  1  0
  4  3  2  0
  5  4  1  0
  5  6  2  0
  6  1  1  0
  7  8  1  0
  8  9  1  0
 10  9  1  0
 11 10  1  0
 12  7  1  0
 12 11  1  0
 13 14  2  0
 14 15  1  0
 16 15  2  0
 17 13  1  0
 17 16  1  0
  2 18  1  0
  5 19  1  0
  8 20  1  0
  8 21  1  0
  9 22  1  0
  9 23  1  0
 11 24  1  0
 11 25  1  0
 12 26  1  0
 12 27  1  0
 14 28  1  0
 16 29  1  0
 17 30  1  0
M  ISO  8  18  14  19  14  20  13  21  13  22  13  23  13  24  13  25  13
M  ISO  5  26  13  27  13  28  14  29  14  30   9
M  END
>  <minimizedAffinity>  (1) 
-4.08840036

>  <minimizedRMSD>  (1) 
5.62220144

$$$$
