
     RDKit          3D

 26 27  0  0  0  0  0  0  0  0999 V2000
   38.9450   23.3480   37.1090 C   0  0  0  0  0  0  0  0  0  0  0  0
   38.4440   24.1790   36.1040 C   0  0  0  0  0  0  0  0  0  0  0  0
   38.9480   24.0530   34.8220 C   0  0  0  0  0  0  0  0  0  0  0  0
   39.9070   23.1230   34.6160 N   0  0  0  0  0  0  0  0  0  0  0  0
   40.3790   22.3340   35.5820 C   0  0  0  0  0  0  0  0  0  0  0  0
   39.9000   22.4400   36.8430 N   0  0  0  0  0  0  0  0  0  0  0  0
   38.5710   24.7950   33.6780 N   0  0  0  0  0  0  0  0  0  0  0  0
   39.1660   26.0480   33.2680 C   0  0  0  0  0  0  0  0  0  0  0  0
   38.0970   27.1320   33.2740 C   0  0  0  0  0  0  0  0  0  0  0  0
   36.8260   26.5600   33.3350 O   0  0  0  0  0  0  0  0  0  0  0  0
   36.6850   25.5870   32.3470 C   0  0  0  0  0  0  0  0  0  0  0  0
   37.5180   24.3850   32.7530 C   0  0  0  0  0  0  0  0  0  0  0  0
   38.3870   23.5110   38.4500 C   0  0  0  0  0  0  0  0  0  0  0  0
   37.9990   24.6580   38.7930 O   0  0  0  0  0  0  0  0  0  0  0  0
   38.2830   22.4490   39.3270 O   0  0  0  0  0  0  0  0  0  0  0  0
   37.6627   24.9202   36.3281 H   0  0  0  0  0  0  0  0  0  0  0  0
   41.1604   21.5945   35.3529 H   0  0  0  0  0  0  0  0  0  0  0  0
   39.5804   25.9448   32.2543 H   0  0  0  0  0  0  0  0  0  0  0  0
   39.9738   26.3200   33.9633 H   0  0  0  0  0  0  0  0  0  0  0  0
   38.2445   27.7820   34.1491 H   0  0  0  0  0  0  0  0  0  0  0  0
   38.1798   27.7206   32.3484 H   0  0  0  0  0  0  0  0  0  0  0  0
   37.0404   25.9794   31.3828 H   0  0  0  0  0  0  0  0  0  0  0  0
   35.6282   25.3016   32.2387 H   0  0  0  0  0  0  0  0  0  0  0  0
   36.8712   23.6428   33.2436 H   0  0  0  0  0  0  0  0  0  0  0  0
   37.9776   23.9451   31.8556 H   0  0  0  0  0  0  0  0  0  0  0  0
   37.9009   22.5880   40.2296 H   0  0  0  0  0  0  0  0  0  0  0  0
  1 13  1  0
  2  1  2  0
  3  2  1  0
  4  3  2  0
  4  5  1  0
  5  6  2  0
  6  1  1  0
  7  3  1  0
  8  9  1  0
  8  7  1  0
  9 10  1  0
 11 12  1  0
 11 10  1  0
 12  7  1  0
 13 14  2  0
 13 15  1  0
  2 16  1  0
  5 17  1  0
  8 18  1  0
  8 19  1  0
  9 20  1  0
  9 21  1  0
 11 22  1  0
 11 23  1  0
 12 24  1  0
 12 25  1  0
 15 26  1  0
M  ISO  8  16  14  17  14  18  13  19  13  20  13  21  13  22  13  23  13
M  ISO  3  24  13  25  13  26   3
M  END
>  <minimizedAffinity>  (1) 
-4.51721001

>  <minimizedRMSD>  (1) 
1.51192641

$$$$
