
     RDKit          3D

 24 25  0  0  0  0  0  0  0  0999 V2000
   39.1930   22.9350   37.9050 C   0  0  0  0  0  0  0  0  0  0  0  0
   38.6390   23.9470   37.1220 C   0  0  0  0  0  0  0  0  0  0  0  0
   39.3450   24.3970   36.0250 C   0  0  0  0  0  0  0  0  0  0  0  0
   40.5520   23.8320   35.7580 N   0  0  0  0  0  0  0  0  0  0  0  0
   41.0640   22.8600   36.5250 C   0  0  0  0  0  0  0  0  0  0  0  0
   40.3960   22.4050   37.5960 N   0  0  0  0  0  0  0  0  0  0  0  0
   38.9470   25.4150   35.1170 N   0  0  0  0  0  0  0  0  0  0  0  0
   39.2600   26.8370   35.2900 C   0  0  0  0  0  0  0  0  0  0  0  0
   37.9550   27.6120   35.3920 C   0  0  0  0  0  0  0  0  0  0  0  0
   36.8800   26.8200   34.9790 O   0  0  0  0  0  0  0  0  0  0  0  0
   37.1470   26.2640   33.7260 C   0  0  0  0  0  0  0  0  0  0  0  0
   38.1850   25.1830   33.9090 C   0  0  0  0  0  0  0  0  0  0  0  0
   38.3920   22.5530   38.9920 O   0  0  0  0  0  0  0  0  0  0  0  0
   37.6588   24.3781   37.3737 H   0  0  0  0  0  0  0  0  0  0  0  0
   42.0445   22.4295   36.2734 H   0  0  0  0  0  0  0  0  0  0  0  0
   39.8476   26.9780   36.2091 H   0  0  0  0  0  0  0  0  0  0  0  0
   39.8466   27.1997   34.4331 H   0  0  0  0  0  0  0  0  0  0  0  0
   37.7976   27.9194   36.4364 H   0  0  0  0  0  0  0  0  0  0  0  0
   38.0154   28.4963   34.7406 H   0  0  0  0  0  0  0  0  0  0  0  0
   37.5310   27.0397   33.0472 H   0  0  0  0  0  0  0  0  0  0  0  0
   36.2288   25.8434   33.2902 H   0  0  0  0  0  0  0  0  0  0  0  0
   37.6831   24.2067   33.9789 H   0  0  0  0  0  0  0  0  0  0  0  0
   38.8690   25.1955   33.0476 H   0  0  0  0  0  0  0  0  0  0  0  0
   38.6994   21.8410   39.6074 H   0  0  0  0  0  0  0  0  0  0  0  0
  1 13  1  0
  2  1  2  0
  3  2  1  0
  4  3  2  0
  4  5  1  0
  5  6  2  0
  6  1  1  0
  7  8  1  0
  7  3  1  0
  8  9  1  0
 10  9  1  0
 11 12  1  0
 11 10  1  0
 12  7  1  0
  2 14  1  0
  5 15  1  0
  8 16  1  0
  8 17  1  0
  9 18  1  0
  9 19  1  0
 11 20  1  0
 11 21  1  0
 12 22  1  0
 12 23  1  0
 13 24  1  0
M  ISO  8  14  14  15  14  16  13  17  13  18  13  19  13  20  13  21  13
M  ISO  3  22  13  23  13  24   3
M  END
>  <minimizedAffinity>  (1) 
-4.51549244

>  <minimizedRMSD>  (1) 
0.0552826561

$$$$
