
     RDKit          3D

 35 36  0  0  0  0  0  0  0  0999 V2000
   39.6880   23.2490   36.8060 C   0  0  0  0  0  0  0  0  0  0  0  0
   40.4900   23.9140   35.8860 C   0  0  0  0  0  0  0  0  0  0  0  0
   41.7860   23.4810   35.6970 C   0  0  0  0  0  0  0  0  0  0  0  0
   42.2050   22.4230   36.4280 N   0  0  0  0  0  0  0  0  0  0  0  0
   41.4290   21.7890   37.3120 C   0  0  0  0  0  0  0  0  0  0  0  0
   40.1570   22.2040   37.5050 N   0  0  0  0  0  0  0  0  0  0  0  0
   42.7410   24.0230   34.8150 N   0  0  0  0  0  0  0  0  0  0  0  0
   43.6770   25.0970   35.1660 C   0  0  0  0  0  0  0  0  0  0  0  0
   43.4350   26.2810   34.2560 C   0  0  0  0  0  0  0  0  0  0  0  0
   42.6320   25.9100   33.1810 O   0  0  0  0  0  0  0  0  0  0  0  0
   43.1760   24.7990   32.5420 C   0  0  0  0  0  0  0  0  0  0  0  0
   42.9320   23.5960   33.4400 C   0  0  0  0  0  0  0  0  0  0  0  0
   38.2900   23.7020   37.0220 C   0  0  0  0  0  0  0  0  0  0  0  0
   37.2860   22.6620   36.6520 C   0  0  0  0  0  0  0  0  0  0  0  0
   38.0520   24.0800   38.4810 C   0  0  0  0  0  0  0  0  0  0  0  0
   37.9960   24.9070   36.1230 C   0  0  0  0  0  0  0  0  0  0  0  0
   40.0980   24.7708   35.3184 H   0  0  0  0  0  0  0  0  0  0  0  0
   41.8234   20.9335   37.8800 H   0  0  0  0  0  0  0  0  0  0  0  0
   43.5174   25.3976   36.2120 H   0  0  0  0  0  0  0  0  0  0  0  0
   44.7110   24.7418   35.0452 H   0  0  0  0  0  0  0  0  0  0  0  0
   42.9342   27.0787   34.8243 H   0  0  0  0  0  0  0  0  0  0  0  0
   44.4015   26.6401   33.8726 H   0  0  0  0  0  0  0  0  0  0  0  0
   42.6866   24.6475   31.5686 H   0  0  0  0  0  0  0  0  0  0  0  0
   44.2523   24.9403   32.3643 H   0  0  0  0  0  0  0  0  0  0  0  0
   42.0324   23.0639   33.0971 H   0  0  0  0  0  0  0  0  0  0  0  0
   43.8060   22.9299   33.3906 H   0  0  0  0  0  0  0  0  0  0  0  0
   36.8607   22.2214   37.5658 H   0  0  0  0  0  0  0  0  0  0  0  0
   36.4824   23.1227   36.0587 H   0  0  0  0  0  0  0  0  0  0  0  0
   37.7748   21.8751   36.0587 H   0  0  0  0  0  0  0  0  0  0  0  0
   38.5232   23.3317   39.1352 H   0  0  0  0  0  0  0  0  0  0  0  0
   38.4907   25.0690   38.6798 H   0  0  0  0  0  0  0  0  0  0  0  0
   36.9706   24.1119   38.6798 H   0  0  0  0  0  0  0  0  0  0  0  0
   37.7814   25.7867   36.7475 H   0  0  0  0  0  0  0  0  0  0  0  0
   38.8703   25.1127   35.4880 H   0  0  0  0  0  0  0  0  0  0  0  0
   37.1252   24.6869   35.4880 H   0  0  0  0  0  0  0  0  0  0  0  0
  1 13  1  0
  1  6  2  0
  2  1  1  0
  3  2  2  0
  3  4  1  0
  4  5  2  0
  5  6  1  0
  7  8  1  0
  7  3  1  0
  9  8  1  0
 10  9  1  0
 11 10  1  0
 11 12  1  0
 12  7  1  0
 13 15  1  0
 14 13  1  0
 16 13  1  0
  2 17  1  0
  5 18  1  0
  8 19  1  0
  8 20  1  0
  9 21  1  0
  9 22  1  0
 11 23  1  0
 11 24  1  0
 12 25  1  0
 12 26  1  0
 14 27  1  0
 14 28  1  0
 14 29  1  0
 15 30  1  0
 15 31  1  0
 15 32  1  0
 16 33  1  0
 16 34  1  0
 16 35  1  0
M  ISO  8  17  14  18  14  19  13  20  13  21  13  22  13  23  13  24  13
M  ISO  8  25  13  26  13  27   8  28   8  29   8  30   8  31   8  32   8
M  ISO  3  33   8  34   8  35   8
M  END
>  <minimizedAffinity>  (1) 
-3.87338901

>  <minimizedRMSD>  (1) 
3.85001206

$$$$
