
     RDKit          3D

 30 31  0  0  0  0  0  0  0  0999 V2000
   40.1290   22.7170   37.4550 C   0  0  0  0  0  0  0  0  0  0  0  0
   40.1940   23.6860   36.4560 C   0  0  0  0  0  0  0  0  0  0  0  0
   41.1680   23.6060   35.4770 C   0  0  0  0  0  0  0  0  0  0  0  0
   42.0330   22.5720   35.5290 N   0  0  0  0  0  0  0  0  0  0  0  0
   41.9580   21.6370   36.5040 C   0  0  0  0  0  0  0  0  0  0  0  0
   41.0180   21.7070   37.4580 N   0  0  0  0  0  0  0  0  0  0  0  0
   41.3640   24.5000   34.4090 N   0  0  0  0  0  0  0  0  0  0  0  0
   42.2300   25.6810   34.4650 C   0  0  0  0  0  0  0  0  0  0  0  0
   41.3930   26.9130   34.1780 C   0  0  0  0  0  0  0  0  0  0  0  0
   40.1400   26.5580   33.6910 O   0  0  0  0  0  0  0  0  0  0  0  0
   40.2950   25.7150   32.5820 C   0  0  0  0  0  0  0  0  0  0  0  0
   40.7260   24.3640   33.1030 C   0  0  0  0  0  0  0  0  0  0  0  0
   39.1260   22.8030   38.4610 N   0  0  0  0  0  0  0  0  0  0  0  0
   37.7390   22.8000   38.0670 C   0  0  0  0  0  0  0  0  0  0  0  0
   37.5300   23.2790   36.8700 N   0  0  0  0  0  0  0  0  0  0  0  0
   36.7850   22.2850   39.0130 N   0  0  0  0  0  0  0  0  0  0  0  0
   36.5480   23.3130   36.5050 H   0  0  0  0  0  0  0  0  0  0  0  0
   39.4707   24.5147   36.4458 H   0  0  0  0  0  0  0  0  0  0  0  0
   42.6792   20.8065   36.5144 H   0  0  0  0  0  0  0  0  0  0  0  0
   42.6788   25.7636   35.4659 H   0  0  0  0  0  0  0  0  0  0  0  0
   43.0333   25.5920   33.7188 H   0  0  0  0  0  0  0  0  0  0  0  0
   41.2687   27.4886   35.1071 H   0  0  0  0  0  0  0  0  0  0  0  0
   41.9075   27.5186   33.4174 H   0  0  0  0  0  0  0  0  0  0  0  0
   41.0619   26.1199   31.9054 H   0  0  0  0  0  0  0  0  0  0  0  0
   39.3533   25.6337   32.0194 H   0  0  0  0  0  0  0  0  0  0  0  0
   39.8437   23.7139   33.1970 H   0  0  0  0  0  0  0  0  0  0  0  0
   41.4474   23.9244   32.3985 H   0  0  0  0  0  0  0  0  0  0  0  0
   39.3869   22.8664   39.4554 H   0  0  0  0  0  0  0  0  0  0  0  0
   35.7833   22.2635   38.7744 H   0  0  0  0  0  0  0  0  0  0  0  0
   37.1038   21.9379   39.9288 H   0  0  0  0  0  0  0  0  0  0  0  0
  1  6  2  0
  1 13  1  0
  2  1  1  0
  3  4  1  0
  3  2  2  0
  4  5  2  0
  5  6  1  0
  7  8  1  0
  7  3  1  0
  9  8  1  0
 10  9  1  0
 11 12  1  0
 11 10  1  0
 12  7  1  0
 14 13  1  0
 14 16  1  0
 15 14  2  0
 17 15  1  0
  2 18  1  0
  5 19  1  0
  8 20  1  0
  8 21  1  0
  9 22  1  0
  9 23  1  0
 11 24  1  0
 11 25  1  0
 12 26  1  0
 12 27  1  0
 13 28  1  0
 16 29  1  0
 16 30  1  0
M  ISO  8  18  14  19  14  20  13  21  13  22  13  23  13  24  13  25  13
M  ISO  2  26  13  27  13
M  END
>  <minimizedAffinity>  (1) 
-4.03495598

>  <minimizedRMSD>  (1) 
2.35312462

$$$$
