
     RDKit          3D

 32 33  0  0  0  0  0  0  0  0999 V2000
   38.3370   23.2200   36.5520 C   0  0  0  0  0  0  0  0  0  0  0  0
   37.9400   24.1590   35.6110 C   0  0  0  0  0  0  0  0  0  0  0  0
   38.4320   24.0490   34.3280 C   0  0  0  0  0  0  0  0  0  0  0  0
   39.2770   23.0350   34.0420 N   0  0  0  0  0  0  0  0  0  0  0  0
   39.6460   22.1400   34.9680 C   0  0  0  0  0  0  0  0  0  0  0  0
   39.1840   22.2190   36.2260 N   0  0  0  0  0  0  0  0  0  0  0  0
   38.1490   24.9010   33.2330 N   0  0  0  0  0  0  0  0  0  0  0  0
   38.9060   26.0920   32.8660 C   0  0  0  0  0  0  0  0  0  0  0  0
   38.0150   27.3080   32.9360 C   0  0  0  0  0  0  0  0  0  0  0  0
   36.6670   26.9180   33.0360 O   0  0  0  0  0  0  0  0  0  0  0  0
   36.3750   26.0420   32.0050 C   0  0  0  0  0  0  0  0  0  0  0  0
   37.0430   24.7020   32.3040 C   0  0  0  0  0  0  0  0  0  0  0  0
   37.8010   23.3700   37.8780 C   0  0  0  0  0  0  0  0  0  0  0  0
   38.0810   24.3140   38.6900 O   0  0  0  0  0  0  0  0  0  0  0  0
   36.8640   22.4220   38.4200 N   0  0  0  0  0  0  0  0  0  0  0  0
   36.1280   21.4490   37.7160 C   0  0  0  0  0  0  0  0  0  0  0  0
   36.3440   21.4340   36.4500 N   0  0  0  0  0  0  0  0  0  0  0  0
   35.2390   20.5870   38.4100 N   0  0  0  0  0  0  0  0  0  0  0  0
   35.8780   20.7780   35.8150 H   0  0  0  0  0  0  0  0  0  0  0  0
   37.2496   24.9713   35.8821 H   0  0  0  0  0  0  0  0  0  0  0  0
   40.3370   21.3293   34.6938 H   0  0  0  0  0  0  0  0  0  0  0  0
   39.2894   25.9792   31.8412 H   0  0  0  0  0  0  0  0  0  0  0  0
   39.7458   26.2174   33.5652 H   0  0  0  0  0  0  0  0  0  0  0  0
   38.2863   27.9068   33.8179 H   0  0  0  0  0  0  0  0  0  0  0  0
   38.1491   27.9041   32.0213 H   0  0  0  0  0  0  0  0  0  0  0  0
   36.7591   26.4445   31.0561 H   0  0  0  0  0  0  0  0  0  0  0  0
   35.2863   25.9097   31.9198 H   0  0  0  0  0  0  0  0  0  0  0  0
   36.3070   24.0185   32.7526 H   0  0  0  0  0  0  0  0  0  0  0  0
   37.4265   24.2692   31.3683 H   0  0  0  0  0  0  0  0  0  0  0  0
   36.7145   22.4591   39.4384 H   0  0  0  0  0  0  0  0  0  0  0  0
   34.7020   19.8763   37.8928 H   0  0  0  0  0  0  0  0  0  0  0  0
   35.1309   20.6722   39.4308 H   0  0  0  0  0  0  0  0  0  0  0  0
  1 13  1  0
  2  1  2  0
  3  2  1  0
  4  3  2  0
  4  5  1  0
  5  6  2  0
  6  1  1  0
  7  3  1  0
  8  9  1  0
  8  7  1  0
  9 10  1  0
 11 12  1  0
 11 10  1  0
 12  7  1  0
 13 15  1  0
 13 14  2  0
 16 18  1  0
 16 15  1  0
 17 16  2  0
 19 17  1  0
  2 20  1  0
  5 21  1  0
  8 22  1  0
  8 23  1  0
  9 24  1  0
  9 25  1  0
 11 26  1  0
 11 27  1  0
 12 28  1  0
 12 29  1  0
 15 30  1  0
 18 31  1  0
 18 32  1  0
M  ISO  8  20  14  21  14  22  13  23  13  24  13  25  13  26  13  27  13
M  ISO  2  28  13  29  13
M  END
>  <minimizedAffinity>  (1) 
-4.91914511

>  <minimizedRMSD>  (1) 
2.04689765

$$$$
