
     RDKit          3D

 34 36  0  0  0  0  0  0  0  0999 V2000
   39.5460   23.1400   36.4250 C   0  0  0  0  0  0  0  0  0  0  0  0
   39.8860   24.0290   35.4150 C   0  0  0  0  0  0  0  0  0  0  0  0
   41.2260   24.2400   35.1550 C   0  0  0  0  0  0  0  0  0  0  0  0
   42.1560   23.5800   35.8860 N   0  0  0  0  0  0  0  0  0  0  0  0
   41.8010   22.7290   36.8540 C   0  0  0  0  0  0  0  0  0  0  0  0
   40.5130   22.5000   37.1330 N   0  0  0  0  0  0  0  0  0  0  0  0
   41.7710   25.1060   34.1690 N   0  0  0  0  0  0  0  0  0  0  0  0
   42.1050   26.5050   34.3690 C   0  0  0  0  0  0  0  0  0  0  0  0
   41.2870   27.3710   33.4370 C   0  0  0  0  0  0  0  0  0  0  0  0
   40.6770   26.5780   32.4590 O   0  0  0  0  0  0  0  0  0  0  0  0
   41.6420   25.7970   31.8300 C   0  0  0  0  0  0  0  0  0  0  0  0
   42.0770   24.7190   32.8040 C   0  0  0  0  0  0  0  0  0  0  0  0
   38.1470   22.9410   36.6720 C   0  0  0  0  0  0  0  0  0  0  0  0
   37.5140   23.4370   37.6670 O   0  0  0  0  0  0  0  0  0  0  0  0
   37.3170   22.1200   35.7590 C   0  0  0  0  0  0  0  0  0  0  0  0
   36.2710   21.3840   36.2790 C   0  0  0  0  0  0  0  0  0  0  0  0
   35.5190   20.6280   35.3860 C   0  0  0  0  0  0  0  0  0  0  0  0
   35.8080   20.6170   34.0380 C   0  0  0  0  0  0  0  0  0  0  0  0
   36.8740   21.3740   33.5510 C   0  0  0  0  0  0  0  0  0  0  0  0
   37.6080   22.1120   34.4290 N   0  0  0  0  0  0  0  0  0  0  0  0
   39.1093   24.5514   34.8372 H   0  0  0  0  0  0  0  0  0  0  0  0
   42.5804   22.2089   37.4302 H   0  0  0  0  0  0  0  0  0  0  0  0
   41.8890   26.7857   35.4104 H   0  0  0  0  0  0  0  0  0  0  0  0
   43.1737   26.6549   34.1559 H   0  0  0  0  0  0  0  0  0  0  0  0
   40.5126   27.8972   34.0144 H   0  0  0  0  0  0  0  0  0  0  0  0
   41.9489   28.1012   32.9486 H   0  0  0  0  0  0  0  0  0  0  0  0
   41.2180   25.3350   30.9262 H   0  0  0  0  0  0  0  0  0  0  0  0
   42.5021   26.4155   31.5340 H   0  0  0  0  0  0  0  0  0  0  0  0
   41.5486   23.7838   32.5669 H   0  0  0  0  0  0  0  0  0  0  0  0
   43.1640   24.5776   32.7121 H   0  0  0  0  0  0  0  0  0  0  0  0
   36.0419   21.3951   37.3548 H   0  0  0  0  0  0  0  0  0  0  0  0
   34.6777   20.0275   35.7624 H   0  0  0  0  0  0  0  0  0  0  0  0
   35.1999   20.0131   33.3484 H   0  0  0  0  0  0  0  0  0  0  0  0
   37.1169   21.3747   32.4782 H   0  0  0  0  0  0  0  0  0  0  0  0
  1 13  1  0
  1  6  1  0
  2  1  2  0
  3  2  1  0
  3  4  2  0
  4  5  1  0
  5  6  2  0
  7  8  1  0
  7  3  1  0
  9  8  1  0
 10  9  1  0
 11 10  1  0
 11 12  1  0
 12  7  1  0
 13 14  2  0
 15 16  2  0
 15 13  1  0
 17 16  1  0
 18 17  2  0
 19 18  1  0
 19 20  2  0
 20 15  1  0
  2 21  1  0
  5 22  1  0
  8 23  1  0
  8 24  1  0
  9 25  1  0
  9 26  1  0
 11 27  1  0
 11 28  1  0
 12 29  1  0
 12 30  1  0
 16 31  1  0
 17 32  1  0
 18 33  1  0
 19 34  1  0
M  ISO  8  21  14  22  14  23  13  24  13  25  13  26  13  27  13  28  13
M  ISO  6  29  13  30  13  31  14  32  14  33  14  34  14
M  END
>  <minimizedAffinity>  (1) 
-4.64097691

>  <minimizedRMSD>  (1) 
3.92789626

$$$$
