
     RDKit          3D

 36 39  0  0  0  0  0  0  0  0999 V2000
   40.3470   22.8710   36.1350 C   0  0  0  0  0  0  0  0  0  0  0  0
   41.4900   23.5770   35.8110 C   0  0  0  0  0  0  0  0  0  0  0  0
   42.7080   23.1050   36.2410 C   0  0  0  0  0  0  0  0  0  0  0  0
   42.7410   21.9700   36.9650 N   0  0  0  0  0  0  0  0  0  0  0  0
   41.6290   21.2940   37.2740 C   0  0  0  0  0  0  0  0  0  0  0  0
   40.4310   21.7220   36.8730 N   0  0  0  0  0  0  0  0  0  0  0  0
   43.9870   23.6900   36.0070 N   0  0  0  0  0  0  0  0  0  0  0  0
   44.6290   24.6690   36.8430 C   0  0  0  0  0  0  0  0  0  0  0  0
   44.8560   25.9520   36.0740 C   0  0  0  0  0  0  0  0  0  0  0  0
   44.6680   25.7200   34.7050 O   0  0  0  0  0  0  0  0  0  0  0  0
   45.4560   24.6390   34.2990 C   0  0  0  0  0  0  0  0  0  0  0  0
   44.8390   23.3730   34.8700 C   0  0  0  0  0  0  0  0  0  0  0  0
   39.1070   23.4230   35.6510 C   0  0  0  0  0  0  0  0  0  0  0  0
   38.6450   24.5530   35.9520 O   0  0  0  0  0  0  0  0  0  0  0  0
   35.4700   20.5790   35.0930 N   0  0  0  0  0  0  0  0  0  0  0  0
   35.6280   20.9710   36.3910 C   0  0  0  0  0  0  0  0  0  0  0  0
   36.6930   21.7800   36.4400 N   0  0  0  0  0  0  0  0  0  0  0  0
   37.1970   21.8950   35.2000 C   0  0  0  0  0  0  0  0  0  0  0  0
   38.2900   22.6140   34.7230 C   0  0  0  0  0  0  0  0  0  0  0  0
   38.5910   22.5600   33.4000 N   0  0  0  0  0  0  0  0  0  0  0  0
   37.7950   21.8010   32.6260 C   0  0  0  0  0  0  0  0  0  0  0  0
   36.7250   21.0800   33.0080 N   0  0  0  0  0  0  0  0  0  0  0  0
   36.4300   21.1390   34.3360 C   0  0  0  0  0  0  0  0  0  0  0  0
   41.4265   24.5017   35.2186 H   0  0  0  0  0  0  0  0  0  0  0  0
   41.7036   20.3711   37.8678 H   0  0  0  0  0  0  0  0  0  0  0  0
   43.9901   24.8767   37.7140 H   0  0  0  0  0  0  0  0  0  0  0  0
   45.6012   24.2740   37.1729 H   0  0  0  0  0  0  0  0  0  0  0  0
   44.1423   26.7154   36.4172 H   0  0  0  0  0  0  0  0  0  0  0  0
   45.8838   26.3040   36.2467 H   0  0  0  0  0  0  0  0  0  0  0  0
   45.4764   24.5827   33.2006 H   0  0  0  0  0  0  0  0  0  0  0  0
   46.4882   24.7595   34.6597 H   0  0  0  0  0  0  0  0  0  0  0  0
   44.2366   22.8810   34.0921 H   0  0  0  0  0  0  0  0  0  0  0  0
   45.6451   22.7036   35.2048 H   0  0  0  0  0  0  0  0  0  0  0  0
   34.7301   19.9515   34.7470 H   0  0  0  0  0  0  0  0  0  0  0  0
   34.9956   20.6759   37.2413 H   0  0  0  0  0  0  0  0  0  0  0  0
   38.0481   21.7655   31.5561 H   0  0  0  0  0  0  0  0  0  0  0  0
  1  6  1  0
  2  1  2  0
  2  3  1  0
  3  4  2  0
  4  5  1  0
  6  5  2  0
  7  3  1  0
  7  8  1  0
  9  8  1  0
 10  9  1  0
 11 10  1  0
 11 12  1  0
 12  7  1  0
 13 14  2  0
 13  1  1  0
 15 16  1  0
 16 17  2  0
 18 17  1  0
 19 18  2  0
 19 13  1  0
 20 19  1  0
 21 22  1  0
 21 20  2  0
 22 23  2  0
 23 15  1  0
 23 18  1  0
  2 24  1  0
  5 25  1  0
  8 26  1  0
  8 27  1  0
  9 28  1  0
  9 29  1  0
 11 30  1  0
 11 31  1  0
 12 32  1  0
 12 33  1  0
 15 34  1  0
 16 35  1  0
 21 36  1  0
M  ISO  8  24  14  25  14  26  13  27  13  28  13  29  13  30  13  31  13
M  ISO  5  32  13  33  13  34   9  35  14  36  14
M  END
>  <minimizedAffinity>  (1) 
-4.89341116

>  <minimizedRMSD>  (1) 
5.61046839

$$$$
