
     RDKit          3D

 33 35  0  0  0  0  0  0  0  0999 V2000
   38.5100   24.6360   35.6470 C   0  0  0  0  0  0  0  0  0  0  0  0
   37.8440   23.8900   34.6970 C   0  0  0  0  0  0  0  0  0  0  0  0
   37.9370   22.5230   34.7250 C   0  0  0  0  0  0  0  0  0  0  0  0
   38.6900   21.9520   35.6960 N   0  0  0  0  0  0  0  0  0  0  0  0
   39.3280   22.6910   36.6070 C   0  0  0  0  0  0  0  0  0  0  0  0
   39.2530   24.0290   36.6010 N   0  0  0  0  0  0  0  0  0  0  0  0
   37.3250   21.5970   33.8370 N   0  0  0  0  0  0  0  0  0  0  0  0
   37.8960   21.1120   32.6020 C   0  0  0  0  0  0  0  0  0  0  0  0
   36.9990   21.4830   31.4490 C   0  0  0  0  0  0  0  0  0  0  0  0
   35.7470   21.9210   31.9240 O   0  0  0  0  0  0  0  0  0  0  0  0
   35.2140   20.9630   32.7730 C   0  0  0  0  0  0  0  0  0  0  0  0
   36.0040   21.0010   34.0640 C   0  0  0  0  0  0  0  0  0  0  0  0
   38.3690   26.0740   35.5590 C   0  0  0  0  0  0  0  0  0  0  0  0
   38.3530   26.8750   36.5320 O   0  0  0  0  0  0  0  0  0  0  0  0
   38.2310   26.6940   34.2250 C   0  0  0  0  0  0  0  0  0  0  0  0
   37.0210   27.3220   33.9060 C   0  0  0  0  0  0  0  0  0  0  0  0
   36.9530   27.8890   32.6300 C   0  0  0  0  0  0  0  0  0  0  0  0
   37.9830   27.8440   31.7420 N   0  0  0  0  0  0  0  0  0  0  0  0
   39.1210   27.2270   32.1050 C   0  0  0  0  0  0  0  0  0  0  0  0
   39.2630   26.6500   33.3340 N   0  0  0  0  0  0  0  0  0  0  0  0
   37.2426   24.3887   33.9226 H   0  0  0  0  0  0  0  0  0  0  0  0
   39.9290   22.1900   37.3802 H   0  0  0  0  0  0  0  0  0  0  0  0
   38.8875   21.5649   32.4546 H   0  0  0  0  0  0  0  0  0  0  0  0
   37.9941   20.0175   32.6504 H   0  0  0  0  0  0  0  0  0  0  0  0
   36.8549   20.6037   30.8040 H   0  0  0  0  0  0  0  0  0  0  0  0
   37.4693   22.2969   30.8776 H   0  0  0  0  0  0  0  0  0  0  0  0
   34.1562   21.1878   32.9744 H   0  0  0  0  0  0  0  0  0  0  0  0
   35.2741   19.9652   32.3139 H   0  0  0  0  0  0  0  0  0  0  0  0
   36.1290   19.9759   34.4429 H   0  0  0  0  0  0  0  0  0  0  0  0
   35.4584   21.6113   34.7987 H   0  0  0  0  0  0  0  0  0  0  0  0
   36.1793   27.3663   34.6128 H   0  0  0  0  0  0  0  0  0  0  0  0
   36.0236   28.3951   32.3299 H   0  0  0  0  0  0  0  0  0  0  0  0
   39.9590   27.1861   31.3936 H   0  0  0  0  0  0  0  0  0  0  0  0
  1  6  2  0
  2  3  2  0
  2  1  1  0
  3  4  1  0
  4  5  2  0
  6  5  1  0
  7 12  1  0
  7  3  1  0
  8  7  1  0
  9 10  1  0
  9  8  1  0
 10 11  1  0
 11 12  1  0
 13  1  1  0
 13 14  2  0
 15 13  1  0
 16 15  2  0
 17 16  1  0
 18 19  1  0
 18 17  2  0
 19 20  2  0
 20 15  1  0
  2 21  1  0
  5 22  1  0
  8 23  1  0
  8 24  1  0
  9 25  1  0
  9 26  1  0
 11 27  1  0
 11 28  1  0
 12 29  1  0
 12 30  1  0
 16 31  1  0
 17 32  1  0
 19 33  1  0
M  ISO  8  21  14  22  14  23  13  24  13  25  13  26  13  27  13  28  13
M  ISO  5  29  13  30  13  31  14  32  14  33  14
M  END
>  <minimizedAffinity>  (1) 
-4.66146326

>  <minimizedRMSD>  (1) 
5.18911123

$$$$
