
     RDKit          3D

 35 37  0  0  0  0  0  0  0  0999 V2000
   39.5720   23.0940   36.5700 C   0  0  0  0  0  0  0  0  0  0  0  0
   39.9560   23.9870   35.5750 C   0  0  0  0  0  0  0  0  0  0  0  0
   41.2830   24.0950   35.2370 C   0  0  0  0  0  0  0  0  0  0  0  0
   42.1750   23.3210   35.8910 N   0  0  0  0  0  0  0  0  0  0  0  0
   41.7880   22.4640   36.8490 C   0  0  0  0  0  0  0  0  0  0  0  0
   40.5190   22.3330   37.2010 N   0  0  0  0  0  0  0  0  0  0  0  0
   41.8530   24.9450   34.2550 N   0  0  0  0  0  0  0  0  0  0  0  0
   42.3020   26.3060   34.4790 C   0  0  0  0  0  0  0  0  0  0  0  0
   41.5080   27.2510   33.5880 C   0  0  0  0  0  0  0  0  0  0  0  0
   40.8280   26.5220   32.6150 O   0  0  0  0  0  0  0  0  0  0  0  0
   41.6950   25.6870   31.9340 C   0  0  0  0  0  0  0  0  0  0  0  0
   42.0670   24.5490   32.8610 C   0  0  0  0  0  0  0  0  0  0  0  0
   38.1520   23.0560   36.8500 C   0  0  0  0  0  0  0  0  0  0  0  0
   37.6140   23.6990   37.7920 O   0  0  0  0  0  0  0  0  0  0  0  0
   37.3330   22.2160   35.9750 C   0  0  0  0  0  0  0  0  0  0  0  0
   36.2930   21.5660   36.6070 C   0  0  0  0  0  0  0  0  0  0  0  0
   35.4710   20.7520   35.8420 C   0  0  0  0  0  0  0  0  0  0  0  0
   35.7380   20.6350   34.4820 C   0  0  0  0  0  0  0  0  0  0  0  0
   36.7830   21.2920   33.8580 C   0  0  0  0  0  0  0  0  0  0  0  0
   37.6060   22.1070   34.6270 C   0  0  0  0  0  0  0  0  0  0  0  0
   39.2021   24.6025   35.0623 H   0  0  0  0  0  0  0  0  0  0  0  0
   42.5484   21.8523   37.3566 H   0  0  0  0  0  0  0  0  0  0  0  0
   42.1443   26.5760   35.5336 H   0  0  0  0  0  0  0  0  0  0  0  0
   43.3724   26.3851   34.2384 H   0  0  0  0  0  0  0  0  0  0  0  0
   40.7833   27.8077   34.2003 H   0  0  0  0  0  0  0  0  0  0  0  0
   42.1977   27.9546   33.0989 H   0  0  0  0  0  0  0  0  0  0  0  0
   41.2026   25.2904   31.0338 H   0  0  0  0  0  0  0  0  0  0  0  0
   42.5945   26.2387   31.6233 H   0  0  0  0  0  0  0  0  0  0  0  0
   41.4419   23.6735   32.6314 H   0  0  0  0  0  0  0  0  0  0  0  0
   43.1285   24.2992   32.7165 H   0  0  0  0  0  0  0  0  0  0  0  0
   36.1208   21.6898   37.6864 H   0  0  0  0  0  0  0  0  0  0  0  0
   34.6287   20.2123   36.2995 H   0  0  0  0  0  0  0  0  0  0  0  0
   35.0873   19.9894   33.8739 H   0  0  0  0  0  0  0  0  0  0  0  0
   36.9588   21.1725   32.7787 H   0  0  0  0  0  0  0  0  0  0  0  0
   38.4496   22.6487   34.1743 H   0  0  0  0  0  0  0  0  0  0  0  0
  1 13  1  0
  1  6  1  0
  2  1  2  0
  3  2  1  0
  3  4  2  0
  4  5  1  0
  5  6  2  0
  7  8  1  0
  7  3  1  0
  9  8  1  0
 10  9  1  0
 11 10  1  0
 11 12  1  0
 12  7  1  0
 13 14  2  0
 15 16  2  0
 15 13  1  0
 17 16  1  0
 18 17  2  0
 19 18  1  0
 19 20  2  0
 20 15  1  0
  2 21  1  0
  5 22  1  0
  8 23  1  0
  8 24  1  0
  9 25  1  0
  9 26  1  0
 11 27  1  0
 11 28  1  0
 12 29  1  0
 12 30  1  0
 16 31  1  0
 17 32  1  0
 18 33  1  0
 19 34  1  0
 20 35  1  0
M  ISO  8  21  14  22  14  23  13  24  13  25  13  26  13  27  13  28  13
M  ISO  7  29  13  30  13  31  14  32  14  33  14  34  14  35  14
M  END
>  <minimizedAffinity>  (1) 
-4.62323427

>  <minimizedRMSD>  (1) 
3.70099306

$$$$
