
     RDKit          3D

 32 34  0  0  0  0  0  0  0  0999 V2000
   39.2310   23.1370   36.8370 C   0  0  0  0  0  0  0  0  0  0  0  0
   39.4950   24.0270   35.7990 C   0  0  0  0  0  0  0  0  0  0  0  0
   40.7850   24.0890   35.3060 C   0  0  0  0  0  0  0  0  0  0  0  0
   41.7230   23.2910   35.8450 N   0  0  0  0  0  0  0  0  0  0  0  0
   41.4370   22.4420   36.8450 C   0  0  0  0  0  0  0  0  0  0  0  0
   40.2080   22.3560   37.3440 N   0  0  0  0  0  0  0  0  0  0  0  0
   41.2530   24.9240   34.2590 N   0  0  0  0  0  0  0  0  0  0  0  0
   41.7670   26.2610   34.3960 C   0  0  0  0  0  0  0  0  0  0  0  0
   40.9110   27.2340   33.6290 C   0  0  0  0  0  0  0  0  0  0  0  0
   40.0580   26.5420   32.7570 O   0  0  0  0  0  0  0  0  0  0  0  0
   40.8020   25.6700   31.9680 C   0  0  0  0  0  0  0  0  0  0  0  0
   41.2770   24.5260   32.8490 C   0  0  0  0  0  0  0  0  0  0  0  0
   37.8600   23.1360   37.2920 C   0  0  0  0  0  0  0  0  0  0  0  0
   37.4040   23.9020   38.1830 O   0  0  0  0  0  0  0  0  0  0  0  0
   35.2170   20.8250   36.4540 N   0  0  0  0  0  0  0  0  0  0  0  0
   35.8550   21.6550   37.2600 N   0  0  0  0  0  0  0  0  0  0  0  0
   36.9320   22.1790   36.6760 C   0  0  0  0  0  0  0  0  0  0  0  0
   36.9780   21.6420   35.4130 C   0  0  0  0  0  0  0  0  0  0  0  0
   35.8890   20.7860   35.2810 C   0  0  0  0  0  0  0  0  0  0  0  0
   38.6995   24.6628   35.3831 H   0  0  0  0  0  0  0  0  0  0  0  0
   42.2338   21.8064   37.2586 H   0  0  0  0  0  0  0  0  0  0  0  0
   41.7696   26.5410   35.4598 H   0  0  0  0  0  0  0  0  0  0  0  0
   42.7905   26.2926   33.9941 H   0  0  0  0  0  0  0  0  0  0  0  0
   40.3085   27.8239   34.3354 H   0  0  0  0  0  0  0  0  0  0  0  0
   41.5606   27.9010   33.0433 H   0  0  0  0  0  0  0  0  0  0  0  0
   40.1759   25.2780   31.1530 H   0  0  0  0  0  0  0  0  0  0  0  0
   41.6625   26.1945   31.5269 H   0  0  0  0  0  0  0  0  0  0  0  0
   40.6152   23.6591   32.7057 H   0  0  0  0  0  0  0  0  0  0  0  0
   42.3082   24.2643   32.5693 H   0  0  0  0  0  0  0  0  0  0  0  0
   34.3596   20.3005   36.6791 H   0  0  0  0  0  0  0  0  0  0  0  0
   37.7376   21.8506   34.6452 H   0  0  0  0  0  0  0  0  0  0  0  0
   35.6254   20.1920   34.3935 H   0  0  0  0  0  0  0  0  0  0  0  0
  1 13  1  0
  1  6  1  0
  2  1  2  0
  3  2  1  0
  3  4  2  0
  4  5  1  0
  5  6  2  0
  7  8  1  0
  7  3  1  0
  9  8  1  0
 10  9  1  0
 11 10  1  0
 11 12  1  0
 12  7  1  0
 13 14  2  0
 15 16  1  0
 17 16  2  0
 17 13  1  0
 18 17  1  0
 19 18  2  0
 19 15  1  0
  2 20  1  0
  5 21  1  0
  8 22  1  0
  8 23  1  0
  9 24  1  0
  9 25  1  0
 11 26  1  0
 11 27  1  0
 12 28  1  0
 12 29  1  0
 15 30  1  0
 18 31  1  0
 19 32  1  0
M  ISO  8  20  14  21  14  22  13  23  13  24  13  25  13  26  13  27  13
M  ISO  5  28  13  29  13  30   9  31  14  32  14
M  END
>  <minimizedAffinity>  (1) 
-4.33263874

>  <minimizedRMSD>  (1) 
3.02875209

$$$$
