
     RDKit          3D

 32 34  0  0  0  0  0  0  0  0999 V2000
   38.8010   23.5160   35.9770 C   0  0  0  0  0  0  0  0  0  0  0  0
   38.2790   24.3310   34.9700 C   0  0  0  0  0  0  0  0  0  0  0  0
   39.1660   24.9110   34.0720 C   0  0  0  0  0  0  0  0  0  0  0  0
   40.4920   24.6550   34.2200 N   0  0  0  0  0  0  0  0  0  0  0  0
   40.9580   23.8660   35.2000 C   0  0  0  0  0  0  0  0  0  0  0  0
   40.1290   23.2960   36.0770 N   0  0  0  0  0  0  0  0  0  0  0  0
   38.8420   25.7640   32.9860 N   0  0  0  0  0  0  0  0  0  0  0  0
   38.7540   27.2030   33.0510 C   0  0  0  0  0  0  0  0  0  0  0  0
   37.3620   27.6490   32.6930 C   0  0  0  0  0  0  0  0  0  0  0  0
   36.6540   26.5880   32.1110 O   0  0  0  0  0  0  0  0  0  0  0  0
   37.3810   26.0610   31.0610 C   0  0  0  0  0  0  0  0  0  0  0  0
   38.5510   25.2910   31.6410 C   0  0  0  0  0  0  0  0  0  0  0  0
   37.8180   22.9510   36.8680 C   0  0  0  0  0  0  0  0  0  0  0  0
   36.8600   22.2000   36.5050 O   0  0  0  0  0  0  0  0  0  0  0  0
   37.8350   23.2020   38.3370 C   0  0  0  0  0  0  0  0  0  0  0  0
   38.9790   23.8060   39.0230 C   0  0  0  0  0  0  0  0  0  0  0  0
   37.8450   24.7240   38.6690 C   0  0  0  0  0  0  0  0  0  0  0  0
   37.1963   24.5085   34.8903 H   0  0  0  0  0  0  0  0  0  0  0  0
   42.0401   23.6861   35.2819 H   0  0  0  0  0  0  0  0  0  0  0  0
   38.9926   27.5370   34.0715 H   0  0  0  0  0  0  0  0  0  0  0  0
   39.4686   27.6415   32.3389 H   0  0  0  0  0  0  0  0  0  0  0  0
   36.8400   27.9797   33.6030 H   0  0  0  0  0  0  0  0  0  0  0  0
   37.4223   28.4802   31.9750 H   0  0  0  0  0  0  0  0  0  0  0  0
   37.7507   26.8734   30.4181 H   0  0  0  0  0  0  0  0  0  0  0  0
   36.7489   25.3958   30.4544 H   0  0  0  0  0  0  0  0  0  0  0  0
   38.3000   24.2207   31.6779 H   0  0  0  0  0  0  0  0  0  0  0  0
   39.4352   25.4458   31.0052 H   0  0  0  0  0  0  0  0  0  0  0  0
   37.2575   22.2935   38.5632 H   0  0  0  0  0  0  0  0  0  0  0  0
   39.1668   23.5613   40.0789 H   0  0  0  0  0  0  0  0  0  0  0  0
   40.0601   23.8246   38.8207 H   0  0  0  0  0  0  0  0  0  0  0  0
   37.9598   25.4689   37.8677 H   0  0  0  0  0  0  0  0  0  0  0  0
   37.1905   25.4230   39.2103 H   0  0  0  0  0  0  0  0  0  0  0  0
  1  6  1  0
  1 13  1  0
  2  1  2  0
  3  4  2  0
  3  2  1  0
  4  5  1  0
  5  6  2  0
  7  8  1  0
  7  3  1  0
  9  8  1  0
 10  9  1  0
 11 12  1  0
 11 10  1  0
 12  7  1  0
 13 15  1  0
 14 13  2  0
 15 17  1  0
 15 16  1  0
 17 16  1  0
  2 18  1  0
  5 19  1  0
  8 20  1  0
  8 21  1  0
  9 22  1  0
  9 23  1  0
 11 24  1  0
 11 25  1  0
 12 26  1  0
 12 27  1  0
 15 28  1  0
 16 29  1  0
 16 30  1  0
 17 31  1  0
 17 32  1  0
M  ISO  8  18  14  19  14  20  13  21  13  22  13  23  13  24  13  25  13
M  ISO  7  26  13  27  13  28  13  29  13  30  13  31  13  32  13
M  END
>  <minimizedAffinity>  (1) 
-4.11443901

>  <minimizedRMSD>  (1) 
2.79571366

$$$$
