
     RDKit          3D

 37 39  0  0  0  0  0  0  0  0999 V2000
   38.8270   23.8390   33.2240 C   0  0  0  0  0  0  0  0  0  0  0  0
   37.9100   22.8100   33.1080 C   0  0  0  0  0  0  0  0  0  0  0  0
   37.8140   22.1080   31.9280 C   0  0  0  0  0  0  0  0  0  0  0  0
   38.6260   22.4530   30.9140 N   0  0  0  0  0  0  0  0  0  0  0  0
   39.5130   23.4470   31.0260 C   0  0  0  0  0  0  0  0  0  0  0  0
   39.6260   24.1420   32.1560 N   0  0  0  0  0  0  0  0  0  0  0  0
   36.9320   21.0320   31.6420 N   0  0  0  0  0  0  0  0  0  0  0  0
   35.5900   21.1560   31.1160 C   0  0  0  0  0  0  0  0  0  0  0  0
   34.6000   20.5620   32.1030 C   0  0  0  0  0  0  0  0  0  0  0  0
   35.2740   19.8110   33.0630 O   0  0  0  0  0  0  0  0  0  0  0  0
   36.0900   18.8830   32.4390 C   0  0  0  0  0  0  0  0  0  0  0  0
   37.2650   19.6190   31.8430 C   0  0  0  0  0  0  0  0  0  0  0  0
   38.8690   24.5240   34.4840 C   0  0  0  0  0  0  0  0  0  0  0  0
   39.2570   23.9730   35.5700 O   0  0  0  0  0  0  0  0  0  0  0  0
   38.4580   25.9070   34.5520 N   0  0  0  0  0  0  0  0  0  0  0  0
   37.6160   26.7050   35.4550 C   0  0  0  0  0  0  0  0  0  0  0  0
   36.7890   27.6130   34.5490 C   0  0  0  0  0  0  0  0  0  0  0  0
   37.4420   27.4180   33.1870 C   0  0  0  0  0  0  0  0  0  0  0  0
   38.8210   26.9730   33.6320 C   0  0  0  0  0  0  0  0  0  0  0  0
   37.2590   22.5533   33.9567 H   0  0  0  0  0  0  0  0  0  0  0  0
   40.1596   23.6945   30.1712 H   0  0  0  0  0  0  0  0  0  0  0  0
   35.3557   22.2189   30.9570 H   0  0  0  0  0  0  0  0  0  0  0  0
   35.5208   20.6171   30.1595 H   0  0  0  0  0  0  0  0  0  0  0  0
   34.0479   21.3744   32.5982 H   0  0  0  0  0  0  0  0  0  0  0  0
   33.8993   19.9093   31.5617 H   0  0  0  0  0  0  0  0  0  0  0  0
   36.4455   18.1453   33.1734 H   0  0  0  0  0  0  0  0  0  0  0  0
   35.5329   18.3530   31.6523 H   0  0  0  0  0  0  0  0  0  0  0  0
   37.5235   19.1659   30.8746 H   0  0  0  0  0  0  0  0  0  0  0  0
   38.1189   19.5475   32.5328 H   0  0  0  0  0  0  0  0  0  0  0  0
   36.9586   26.0502   36.0458 H   0  0  0  0  0  0  0  0  0  0  0  0
   38.2198   27.2836   36.1696 H   0  0  0  0  0  0  0  0  0  0  0  0
   35.7345   27.3003   34.5310 H   0  0  0  0  0  0  0  0  0  0  0  0
   36.7765   28.6622   34.8792 H   0  0  0  0  0  0  0  0  0  0  0  0
   37.4789   28.3549   32.6117 H   0  0  0  0  0  0  0  0  0  0  0  0
   36.9204   26.7225   32.5130 H   0  0  0  0  0  0  0  0  0  0  0  0
   39.4207   26.5984   32.7894 H   0  0  0  0  0  0  0  0  0  0  0  0
   39.4461   27.7670   34.0665 H   0  0  0  0  0  0  0  0  0  0  0  0
  1 13  1  0
  2  1  2  0
  3  2  1  0
  4  5  1  0
  4  3  2  0
  5  6  2  0
  6  1  1  0
  7 12  1  0
  7  3  1  0
  8  7  1  0
  8  9  1  0
  9 10  1  0
 11 10  1  0
 12 11  1  0
 13 15  1  0
 13 14  2  0
 15 16  1  0
 17 16  1  0
 18 19  1  0
 18 17  1  0
 19 15  1  0
  2 20  1  0
  5 21  1  0
  8 22  1  0
  8 23  1  0
  9 24  1  0
  9 25  1  0
 11 26  1  0
 11 27  1  0
 12 28  1  0
 12 29  1  0
 16 30  1  0
 16 31  1  0
 17 32  1  0
 17 33  1  0
 18 34  1  0
 18 35  1  0
 19 36  1  0
 19 37  1  0
M  ISO  8  20  14  21  14  22  13  23  13  24  13  25  13  26  13  27  13
M  ISO  8  28  13  29  13  30  13  31  13  32  13  33  13  34  13  35  13
M  ISO  2  36  13  37  13
M  END
>  <minimizedAffinity>  (1) 
-4.07583618

>  <minimizedRMSD>  (1) 
5.24885798

$$$$
