
     RDKit          3D

 38 40  0  0  0  0  0  0  0  0999 V2000
   40.1740   22.7230   35.1700 C   0  0  0  0  0  0  0  0  0  0  0  0
   39.5890   22.3010   33.9860 C   0  0  0  0  0  0  0  0  0  0  0  0
   40.2560   21.3990   33.1890 C   0  0  0  0  0  0  0  0  0  0  0  0
   41.4710   20.9510   33.5990 N   0  0  0  0  0  0  0  0  0  0  0  0
   42.0220   21.3710   34.7510 C   0  0  0  0  0  0  0  0  0  0  0  0
   41.3990   22.2430   35.5370 N   0  0  0  0  0  0  0  0  0  0  0  0
   39.8180   20.8540   31.9480 N   0  0  0  0  0  0  0  0  0  0  0  0
   40.0830   21.4170   30.6460 C   0  0  0  0  0  0  0  0  0  0  0  0
   38.7580   21.7670   29.9830 C   0  0  0  0  0  0  0  0  0  0  0  0
   37.6950   21.1570   30.6600 O   0  0  0  0  0  0  0  0  0  0  0  0
   37.9580   19.7900   30.7870 C   0  0  0  0  0  0  0  0  0  0  0  0
   39.0260   19.6270   31.8470 C   0  0  0  0  0  0  0  0  0  0  0  0
   39.4340   23.6630   35.9560 C   0  0  0  0  0  0  0  0  0  0  0  0
   39.1250   23.5030   37.1850 O   0  0  0  0  0  0  0  0  0  0  0  0
   38.9760   24.9290   35.3380 C   0  0  0  0  0  0  0  0  0  0  0  0
   38.1780   25.7780   36.3190 C   0  0  0  0  0  0  0  0  0  0  0  0
   38.5530   27.2240   36.0030 C   0  0  0  0  0  0  0  0  0  0  0  0
   39.3400   27.1350   34.6880 C   0  0  0  0  0  0  0  0  0  0  0  0
   40.1230   25.8480   34.9780 C   0  0  0  0  0  0  0  0  0  0  0  0
   38.6019   22.6832   33.6868 H   0  0  0  0  0  0  0  0  0  0  0  0
   43.0081   20.9853   35.0490 H   0  0  0  0  0  0  0  0  0  0  0  0
   40.6938   22.3255   30.7536 H   0  0  0  0  0  0  0  0  0  0  0  0
   40.6287   20.6886   30.0283 H   0  0  0  0  0  0  0  0  0  0  0  0
   38.6208   22.8582   30.0020 H   0  0  0  0  0  0  0  0  0  0  0  0
   38.7731   21.4049   28.9444 H   0  0  0  0  0  0  0  0  0  0  0  0
   37.0439   19.2586   31.0904 H   0  0  0  0  0  0  0  0  0  0  0  0
   38.2975   19.3708   29.8283 H   0  0  0  0  0  0  0  0  0  0  0  0
   38.5493   19.4196   32.8164 H   0  0  0  0  0  0  0  0  0  0  0  0
   39.6859   18.7913   31.5712 H   0  0  0  0  0  0  0  0  0  0  0  0
   38.3981   24.5991   34.4621 H   0  0  0  0  0  0  0  0  0  0  0  0
   37.0989   25.6201   36.1752 H   0  0  0  0  0  0  0  0  0  0  0  0
   38.4030   25.5162   37.3634 H   0  0  0  0  0  0  0  0  0  0  0  0
   37.6514   27.8412   35.8761 H   0  0  0  0  0  0  0  0  0  0  0  0
   39.1359   27.6922   36.8099 H   0  0  0  0  0  0  0  0  0  0  0  0
   40.0037   28.0001   34.5429 H   0  0  0  0  0  0  0  0  0  0  0  0
   38.7355   27.1294   33.7690 H   0  0  0  0  0  0  0  0  0  0  0  0
   40.6701   25.4929   34.0922 H   0  0  0  0  0  0  0  0  0  0  0  0
   40.9055   25.9406   35.7456 H   0  0  0  0  0  0  0  0  0  0  0  0
  1  6  1  0
  1 13  1  0
  2  1  2  0
  3  4  2  0
  3  2  1  0
  4  5  1  0
  5  6  2  0
  7  3  1  0
  8  7  1  0
  9  8  1  0
  9 10  1  0
 10 11  1  0
 11 12  1  0
 12  7  1  0
 13 14  2  0
 15 13  1  0
 15 16  1  0
 17 16  1  0
 18 19  1  0
 18 17  1  0
 19 15  1  0
  2 20  1  0
  5 21  1  0
  8 22  1  0
  8 23  1  0
  9 24  1  0
  9 25  1  0
 11 26  1  0
 11 27  1  0
 12 28  1  0
 12 29  1  0
 15 30  1  0
 16 31  1  0
 16 32  1  0
 17 33  1  0
 17 34  1  0
 18 35  1  0
 18 36  1  0
 19 37  1  0
 19 38  1  0
M  ISO  8  20  14  21  14  22  13  23  13  24  13  25  13  26  13  27  13
M  ISO  8  28  13  29  13  30  13  31  13  32  13  33  13  34  13  35  13
M  ISO  3  36  13  37  13  38  13
M  END
>  <minimizedAffinity>  (1) 
-3.89168072

>  <minimizedRMSD>  (1) 
4.20899343

$$$$
