
     RDKit          3D

 27 28  0  0  0  0  0  0  0  0999 V2000
   38.8730   22.5880   33.7150 N   0  0  0  0  0  0  0  0  0  0  0  0
   39.1460   23.6280   32.7400 C   0  0  0  0  0  0  0  0  0  0  0  0
   37.8470   24.1260   32.1620 C   0  0  0  0  0  0  0  0  0  0  0  0
   36.7890   23.2730   32.5120 O   0  0  0  0  0  0  0  0  0  0  0  0
   37.1030   21.9830   32.1450 C   0  0  0  0  0  0  0  0  0  0  0  0
   38.1850   21.4720   33.0840 C   0  0  0  0  0  0  0  0  0  0  0  0
   38.9940   23.0560   37.4140 C   0  0  0  0  0  0  0  0  0  0  0  0
   38.4580   23.0880   36.1400 C   0  0  0  0  0  0  0  0  0  0  0  0
   39.2250   22.6430   35.0950 C   0  0  0  0  0  0  0  0  0  0  0  0
   40.4830   22.1880   35.3540 N   0  0  0  0  0  0  0  0  0  0  0  0
   40.9720   22.1710   36.6050 C   0  0  0  0  0  0  0  0  0  0  0  0
   40.2440   22.5990   37.6330 N   0  0  0  0  0  0  0  0  0  0  0  0
   38.1060   23.5480   38.4550 C   0  0  0  0  0  0  0  0  0  0  0  0
   38.0390   24.7400   38.8520 O   0  0  0  0  0  0  0  0  0  0  0  0
   37.3030   22.4990   38.9850 N   0  0  0  0  0  0  0  0  0  0  0  0
   39.6730   24.4604   33.2292 H   0  0  0  0  0  0  0  0  0  0  0  0
   39.7741   23.2203   31.9343 H   0  0  0  0  0  0  0  0  0  0  0  0
   37.9312   24.1659   31.0660 H   0  0  0  0  0  0  0  0  0  0  0  0
   37.6415   25.1284   32.5657 H   0  0  0  0  0  0  0  0  0  0  0  0
   36.2100   21.3455   32.2238 H   0  0  0  0  0  0  0  0  0  0  0  0
   37.4605   21.9601   31.1050 H   0  0  0  0  0  0  0  0  0  0  0  0
   37.7246   20.8434   33.8605 H   0  0  0  0  0  0  0  0  0  0  0  0
   38.9125   20.8834   32.5057 H   0  0  0  0  0  0  0  0  0  0  0  0
   37.4380   23.4625   35.9688 H   0  0  0  0  0  0  0  0  0  0  0  0
   41.9912   21.7970   36.7824 H   0  0  0  0  0  0  0  0  0  0  0  0
   36.6234   22.6983   39.7329 H   0  0  0  0  0  0  0  0  0  0  0  0
   37.4015   21.5407   38.6206 H   0  0  0  0  0  0  0  0  0  0  0  0
  1  9  1  0
  2  1  1  0
  3  4  1  0
  3  2  1  0
  5  4  1  0
  5  6  1  0
  6  1  1  0
  7 12  2  0
  7 13  1  0
  8  7  1  0
  9 10  1  0
  9  8  2  0
 10 11  2  0
 11 12  1  0
 13 14  2  0
 13 15  1  0
  2 16  1  0
  2 17  1  0
  3 18  1  0
  3 19  1  0
  5 20  1  0
  5 21  1  0
  6 22  1  0
  6 23  1  0
  8 24  1  0
 11 25  1  0
 15 26  1  0
 15 27  1  0
M  ISO  8  16  13  17  13  18  13  19  13  20  13  21  13  22  13  23  13
M  ISO  2  24  14  25  14
M  END
>  <minimizedAffinity>  (1) 
-3.93519044

>  <minimizedRMSD>  (1) 
0.370885193

$$$$
