
     RDKit          3D

 51 55  0  0  1  0  0  0  0  0999 V2000
   39.8190   22.1260   34.4510 C   0  0  0  0  0  0  0  0  0  0  0  0
   38.5800   21.9130   33.8580 C   0  0  0  0  0  0  0  0  0  0  0  0
   38.4890   21.0960   32.7500 C   0  0  0  0  0  0  0  0  0  0  0  0
   39.6310   20.5250   32.2760 N   0  0  0  0  0  0  0  0  0  0  0  0
   40.8160   20.7500   32.8720 C   0  0  0  0  0  0  0  0  0  0  0  0
   40.9270   21.5400   33.9500 N   0  0  0  0  0  0  0  0  0  0  0  0
   37.3290   20.7650   32.0210 N   0  0  0  0  0  0  0  0  0  0  0  0
   36.8020   21.4890   30.8970 C   0  0  0  0  0  0  0  0  0  0  0  0
   35.4090   21.9830   31.2190 C   0  0  0  0  0  0  0  0  0  0  0  0
   34.9210   21.3490   32.3800 O   0  0  0  0  0  0  0  0  0  0  0  0
   35.0170   19.9810   32.2230 C   0  0  0  0  0  0  0  0  0  0  0  0
   36.4810   19.6030   32.3250 C   0  0  0  0  0  0  0  0  0  0  0  0
   39.8530   22.9800   35.5930 C   0  0  0  0  0  0  0  0  0  0  0  0
   40.1650   22.5930   36.7790 O   0  0  0  0  0  0  0  0  0  0  0  0
   39.5400   24.4010   35.5710 C   0  0  0  0  0  0  0  0  0  0  0  0
   38.3470   24.8940   36.0530 C   0  0  0  0  0  0  0  0  0  0  0  0
   38.1050   26.2610   36.0070 C   0  0  0  0  0  0  0  0  0  0  0  0
   39.0250   27.1490   35.4920 C   0  0  0  0  0  0  0  0  0  0  0  0
   40.2310   26.6630   35.0040 C   0  0  0  0  0  0  0  0  0  0  0  0
   40.4500   25.2870   35.0610 C   0  0  0  0  0  0  0  0  0  0  0  0
   41.7530   24.9290   34.5070 C   0  0  0  0  0  0  0  0  0  0  0  0
   41.8830   24.9890   33.1130 C   0  0  0  0  0  0  0  0  0  0  0  0
   43.1500   24.6290   32.8430 N   0  0  0  0  0  0  0  0  0  0  0  0
   43.8280   24.3450   33.9930 C   0  0  0  0  0  0  0  0  0  0  0  0
   45.1040   23.9410   34.3170 C   0  0  0  0  0  0  0  0  0  0  0  0
   45.4660   23.7380   35.6520 C   0  0  0  0  0  0  0  0  0  0  0  0
   44.5410   23.9420   36.6730 C   0  0  0  0  0  0  0  0  0  0  0  0
   43.2370   24.3520   36.3870 C   0  0  0  0  0  0  0  0  0  0  0  0
   42.9580   24.5300   35.0470 C   0  0  0  0  0  0  0  0  0  0  0  0
   37.6791   22.3921   34.2689 H   0  0  0  0  0  0  0  0  0  0  0  0
   41.7190   20.2727   32.4637 H   0  0  0  0  0  0  0  0  0  0  0  0
   36.7616   20.8255   30.0206 H   0  0  0  0  0  0  0  0  0  0  0  0
   37.4528   22.3485   30.6786 H   0  0  0  0  0  0  0  0  0  0  0  0
   35.4387   23.0701   31.3845 H   0  0  0  0  0  0  0  0  0  0  0  0
   34.7424   21.7482   30.3761 H   0  0  0  0  0  0  0  0  0  0  0  0
   34.6232   19.6891   31.2383 H   0  0  0  0  0  0  0  0  0  0  0  0
   34.4325   19.4640   32.9982 H   0  0  0  0  0  0  0  0  0  0  0  0
   36.6987   18.7972   31.6086 H   0  0  0  0  0  0  0  0  0  0  0  0
   36.6928   19.2629   33.3494 H   0  0  0  0  0  0  0  0  0  0  0  0
   38.7965   22.7505   35.7960 H   0  0  0  0  0  0  0  0  0  0  0  0
   39.7048   23.1638   37.4442 H   0  0  0  0  0  0  0  0  0  0  0  0
   37.5927   24.2109   36.4706 H   0  0  0  0  0  0  0  0  0  0  0  0
   37.1500   26.6467   36.3933 H   0  0  0  0  0  0  0  0  0  0  0  0
   38.8071   28.2269   35.4679 H   0  0  0  0  0  0  0  0  0  0  0  0
   40.9891   27.3417   34.5860 H   0  0  0  0  0  0  0  0  0  0  0  0
   41.1065   25.2728   32.3874 H   0  0  0  0  0  0  0  0  0  0  0  0
   43.5540   24.5749   31.8971 H   0  0  0  0  0  0  0  0  0  0  0  0
   45.8438   23.7768   33.5196 H   0  0  0  0  0  0  0  0  0  0  0  0
   46.4884   23.4149   35.8977 H   0  0  0  0  0  0  0  0  0  0  0  0
   44.8415   23.7780   37.7184 H   0  0  0  0  0  0  0  0  0  0  0  0
   42.4863   24.5209   37.1731 H   0  0  0  0  0  0  0  0  0  0  0  0
  1 13  1  0
  2  1  2  0
  3  2  1  0
  4  3  2  0
  4  5  1  0
  5  6  2  0
  6  1  1  0
  7 12  1  0
  7  3  1  0
  8  9  1  0
  8  7  1  0
  9 10  1  0
 11 12  1  0
 11 10  1  0
 13 14  1  0
 15 13  1  0
 15 16  2  0
 17 16  1  0
 18 17  2  0
 19 20  2  0
 19 18  1  0
 20 15  1  0
 21 29  1  0
 21 20  1  0
 22 21  2  0
 23 22  1  0
 23 24  1  0
 24 25  2  0
 24 29  1  0
 25 26  1  0
 26 27  2  0
 28 27  1  0
 29 28  2  0
  2 30  1  0
  5 31  1  0
  8 32  1  0
  8 33  1  0
  9 34  1  0
  9 35  1  0
 11 36  1  0
 11 37  1  0
 12 38  1  0
 12 39  1  0
 13 40  1  0
 14 41  1  0
 16 42  1  0
 17 43  1  0
 18 44  1  0
 19 45  1  0
 22 46  1  0
 23 47  1  0
 25 48  1  0
 26 49  1  0
 27 50  1  0
 28 51  1  0
M  ISO  8  30  14  31  14  32  13  33  13  34  13  35  13  36  13  37  13
M  ISO  8  38  13  39  13  40   8  41   3  42  14  43  14  44  14  45  14
M  ISO  6  46  14  47   9  48  14  49  14  50  14  51  14
M  END
>  <minimizedAffinity>  (1) 
-5.99515772

>  <minimizedRMSD>  (1) 
0.616330862

$$$$
