
     RDKit          3D

 45 48  0  0  0  0  0  0  0  0999 V2000
   40.3920   22.1080   34.1140 C   0  0  0  0  0  0  0  0  0  0  0  0
   39.0810   22.0460   33.6660 C   0  0  0  0  0  0  0  0  0  0  0  0
   38.7500   21.1180   32.6950 C   0  0  0  0  0  0  0  0  0  0  0  0
   39.7310   20.2970   32.2190 N   0  0  0  0  0  0  0  0  0  0  0  0
   40.9830   20.3860   32.6760 C   0  0  0  0  0  0  0  0  0  0  0  0
   41.3210   21.2720   33.6090 N   0  0  0  0  0  0  0  0  0  0  0  0
   37.4790   20.9020   32.1130 N   0  0  0  0  0  0  0  0  0  0  0  0
   36.9740   21.5540   30.9330 C   0  0  0  0  0  0  0  0  0  0  0  0
   35.7290   22.3190   31.2680 C   0  0  0  0  0  0  0  0  0  0  0  0
   35.2510   21.9450   32.5500 O   0  0  0  0  0  0  0  0  0  0  0  0
   35.1010   20.5750   32.5940 C   0  0  0  0  0  0  0  0  0  0  0  0
   36.4850   19.9580   32.6480 C   0  0  0  0  0  0  0  0  0  0  0  0
   40.6940   23.0820   35.1200 C   0  0  0  0  0  0  0  0  0  0  0  0
   41.8110   23.7060   35.2100 O   0  0  0  0  0  0  0  0  0  0  0  0
   39.7690   23.4850   36.1650 C   0  0  0  0  0  0  0  0  0  0  0  0
   39.6890   22.7890   37.3650 C   0  0  0  0  0  0  0  0  0  0  0  0
   38.7820   23.1910   38.3430 C   0  0  0  0  0  0  0  0  0  0  0  0
   37.9550   24.2730   38.1460 C   0  0  0  0  0  0  0  0  0  0  0  0
   38.0310   24.9740   36.9500 C   0  0  0  0  0  0  0  0  0  0  0  0
   38.9480   24.5610   35.9750 C   0  0  0  0  0  0  0  0  0  0  0  0
   38.8860   25.4540   34.8240 C   0  0  0  0  0  0  0  0  0  0  0  0
   37.7700   25.3700   33.9820 C   0  0  0  0  0  0  0  0  0  0  0  0
   37.5280   26.1410   32.8650 C   0  0  0  0  0  0  0  0  0  0  0  0
   38.4780   27.0870   32.5430 C   0  0  0  0  0  0  0  0  0  0  0  0
   39.5960   27.2080   33.3410 C   0  0  0  0  0  0  0  0  0  0  0  0
   39.8080   26.4330   34.4380 C   0  0  0  0  0  0  0  0  0  0  0  0
   38.3173   22.7233   34.0758 H   0  0  0  0  0  0  0  0  0  0  0  0
   41.7520   19.7114   32.2717 H   0  0  0  0  0  0  0  0  0  0  0  0
   36.7430   20.7975   30.1685 H   0  0  0  0  0  0  0  0  0  0  0  0
   37.7349   22.2494   30.5489 H   0  0  0  0  0  0  0  0  0  0  0  0
   35.9529   23.3960   31.2642 H   0  0  0  0  0  0  0  0  0  0  0  0
   34.9569   22.0918   30.5181 H   0  0  0  0  0  0  0  0  0  0  0  0
   34.5291   20.2899   33.4894 H   0  0  0  0  0  0  0  0  0  0  0  0
   34.5566   20.2197   31.7067 H   0  0  0  0  0  0  0  0  0  0  0  0
   36.4968   19.0371   32.0465 H   0  0  0  0  0  0  0  0  0  0  0  0
   36.7353   19.7246   33.6934 H   0  0  0  0  0  0  0  0  0  0  0  0
   40.3413   21.9213   37.5426 H   0  0  0  0  0  0  0  0  0  0  0  0
   38.7259   22.6335   39.2896 H   0  0  0  0  0  0  0  0  0  0  0  0
   37.2426   24.5787   38.9264 H   0  0  0  0  0  0  0  0  0  0  0  0
   37.3798   25.8421   36.7705 H   0  0  0  0  0  0  0  0  0  0  0  0
   37.0121   24.6146   34.2370 H   0  0  0  0  0  0  0  0  0  0  0  0
   36.6196   26.0077   32.2591 H   0  0  0  0  0  0  0  0  0  0  0  0
   38.3462   27.7347   31.6637 H   0  0  0  0  0  0  0  0  0  0  0  0
   40.3497   27.9650   33.0785 H   0  0  0  0  0  0  0  0  0  0  0  0
   40.7216   26.5785   35.0332 H   0  0  0  0  0  0  0  0  0  0  0  0
  1 13  1  0
  2  1  2  0
  3  2  1  0
  4  5  1  0
  4  3  2  0
  5  6  2  0
  6  1  1  0
  7 12  1  0
  7  3  1  0
  8  9  1  0
  8  7  1  0
  9 10  1  0
 10 11  1  0
 11 12  1  0
 13 14  2  0
 13 15  1  0
 15 16  2  0
 16 17  1  0
 18 17  2  0
 19 18  1  0
 20 15  1  0
 20 19  2  0
 21 20  1  0
 22 21  2  0
 23 22  1  0
 24 23  2  0
 24 25  1  0
 25 26  2  0
 26 21  1  0
  2 27  1  0
  5 28  1  0
  8 29  1  0
  8 30  1  0
  9 31  1  0
  9 32  1  0
 11 33  1  0
 11 34  1  0
 12 35  1  0
 12 36  1  0
 16 37  1  0
 17 38  1  0
 18 39  1  0
 19 40  1  0
 22 41  1  0
 23 42  1  0
 24 43  1  0
 25 44  1  0
 26 45  1  0
M  ISO  8  27  14  28  14  29  13  30  13  31  13  32  13  33  13  34  13
M  ISO  8  35  13  36  13  37  14  38  14  39  14  40  14  41  14  42  14
M  ISO  3  43  14  44  14  45  14
M  END
>  <minimizedAffinity>  (1) 
-5.96780348

>  <minimizedRMSD>  (1) 
2.64654803

$$$$
