
     RDKit          3D

 45 48  0  0  1  0  0  0  0  0999 V2000
   39.7920   22.2520   34.5680 C   0  0  0  0  0  0  0  0  0  0  0  0
   38.5710   22.0260   33.9610 C   0  0  0  0  0  0  0  0  0  0  0  0
   38.5000   21.2060   32.8560 C   0  0  0  0  0  0  0  0  0  0  0  0
   39.6540   20.6420   32.3980 N   0  0  0  0  0  0  0  0  0  0  0  0
   40.8200   20.8800   33.0060 C   0  0  0  0  0  0  0  0  0  0  0  0
   40.8980   21.6680   34.0730 N   0  0  0  0  0  0  0  0  0  0  0  0
   37.3460   20.8570   32.1100 N   0  0  0  0  0  0  0  0  0  0  0  0
   36.8340   21.5740   30.9710 C   0  0  0  0  0  0  0  0  0  0  0  0
   35.4420   22.0530   31.2570 C   0  0  0  0  0  0  0  0  0  0  0  0
   34.9330   21.4240   32.4210 O   0  0  0  0  0  0  0  0  0  0  0  0
   35.0410   20.0580   32.2750 C   0  0  0  0  0  0  0  0  0  0  0  0
   36.5030   19.6880   32.4100 C   0  0  0  0  0  0  0  0  0  0  0  0
   39.8170   23.1150   35.7070 C   0  0  0  0  0  0  0  0  0  0  0  0
   40.1290   22.7350   36.8960 O   0  0  0  0  0  0  0  0  0  0  0  0
   39.4910   24.5260   35.6710 C   0  0  0  0  0  0  0  0  0  0  0  0
   38.3010   25.0130   36.2030 C   0  0  0  0  0  0  0  0  0  0  0  0
   37.9840   26.3620   36.1410 C   0  0  0  0  0  0  0  0  0  0  0  0
   38.8430   27.2610   35.5450 C   0  0  0  0  0  0  0  0  0  0  0  0
   40.0250   26.7840   35.0150 C   0  0  0  0  0  0  0  0  0  0  0  0
   40.3360   25.4160   35.0890 C   0  0  0  0  0  0  0  0  0  0  0  0
   41.6570   25.2550   34.5010 C   0  0  0  0  0  0  0  0  0  0  0  0
   42.8490   25.3980   35.1720 C   0  0  0  0  0  0  0  0  0  0  0  0
   44.1430   25.3530   34.7100 C   0  0  0  0  0  0  0  0  0  0  0  0
   44.2330   25.1290   33.3680 N   0  0  0  0  0  0  0  0  0  0  0  0
   43.0970   24.9780   32.6300 C   0  0  0  0  0  0  0  0  0  0  0  0
   41.8870   25.0420   33.2000 N   0  0  0  0  0  0  0  0  0  0  0  0
   37.6605   22.4984   34.3581 H   0  0  0  0  0  0  0  0  0  0  0  0
   41.7357   20.4131   32.6143 H   0  0  0  0  0  0  0  0  0  0  0  0
   36.8184   20.9071   30.0964 H   0  0  0  0  0  0  0  0  0  0  0  0
   37.4811   22.4394   30.7653 H   0  0  0  0  0  0  0  0  0  0  0  0
   35.4578   23.1421   31.4108 H   0  0  0  0  0  0  0  0  0  0  0  0
   34.7954   21.8015   30.4034 H   0  0  0  0  0  0  0  0  0  0  0  0
   34.6698   19.7578   31.2840 H   0  0  0  0  0  0  0  0  0  0  0  0
   34.4437   19.5430   33.0418 H   0  0  0  0  0  0  0  0  0  0  0  0
   36.7404   18.8769   31.7059 H   0  0  0  0  0  0  0  0  0  0  0  0
   36.6986   19.3556   33.4402 H   0  0  0  0  0  0  0  0  0  0  0  0
   38.7616   22.8794   35.9087 H   0  0  0  0  0  0  0  0  0  0  0  0
   39.6617   23.3042   37.5576 H   0  0  0  0  0  0  0  0  0  0  0  0
   37.5984   24.3150   36.6818 H   0  0  0  0  0  0  0  0  0  0  0  0
   37.0369   26.7185   36.5721 H   0  0  0  0  0  0  0  0  0  0  0  0
   38.5928   28.3309   35.4932 H   0  0  0  0  0  0  0  0  0  0  0  0
   40.7275   27.4791   34.5319 H   0  0  0  0  0  0  0  0  0  0  0  0
   42.7512   25.5773   36.2529 H   0  0  0  0  0  0  0  0  0  0  0  0
   45.0206   25.4849   35.3599 H   0  0  0  0  0  0  0  0  0  0  0  0
   43.1756   24.8005   31.5473 H   0  0  0  0  0  0  0  0  0  0  0  0
  1 13  1  0
  2  1  2  0
  3  2  1  0
  4  3  2  0
  4  5  1  0
  5  6  2  0
  6  1  1  0
  7 12  1  0
  7  3  1  0
  8  9  1  0
  8  7  1  0
  9 10  1  0
 11 12  1  0
 11 10  1  0
 13 14  1  0
 15 13  1  0
 15 16  2  0
 17 16  1  0
 18 17  2  0
 19 20  2  0
 19 18  1  0
 20 15  1  0
 21 20  1  0
 21 22  2  0
 23 22  1  0
 24 23  2  0
 25 26  2  0
 25 24  1  0
 26 21  1  0
  2 27  1  0
  5 28  1  0
  8 29  1  0
  8 30  1  0
  9 31  1  0
  9 32  1  0
 11 33  1  0
 11 34  1  0
 12 35  1  0
 12 36  1  0
 13 37  1  0
 14 38  1  0
 16 39  1  0
 17 40  1  0
 18 41  1  0
 19 42  1  0
 22 43  1  0
 23 44  1  0
 25 45  1  0
M  ISO  8  27  14  28  14  29  13  30  13  31  13  32  13  33  13  34  13
M  ISO  8  35  13  36  13  37   8  38   3  39  14  40  14  41  14  42  14
M  ISO  3  43  14  44  14  45  14
M  END
>  <minimizedAffinity>  (1) 
-5.41815472

>  <minimizedRMSD>  (1) 
0.344293058

$$$$
