
     RDKit          3D

 49 52  0  0  0  0  0  0  0  0999 V2000
   39.9910   22.2330   34.5140 C   0  0  0  0  0  0  0  0  0  0  0  0
   38.7390   22.0670   33.9490 C   0  0  0  0  0  0  0  0  0  0  0  0
   38.5990   21.2340   32.8570 C   0  0  0  0  0  0  0  0  0  0  0  0
   39.7100   20.6040   32.3780 N   0  0  0  0  0  0  0  0  0  0  0  0
   40.9150   20.7860   32.9490 C   0  0  0  0  0  0  0  0  0  0  0  0
   41.0570   21.5870   33.9990 N   0  0  0  0  0  0  0  0  0  0  0  0
   37.4150   20.9340   32.1440 N   0  0  0  0  0  0  0  0  0  0  0  0
   36.9160   21.6710   30.9970 C   0  0  0  0  0  0  0  0  0  0  0  0
   35.5570   22.2300   31.3090 C   0  0  0  0  0  0  0  0  0  0  0  0
   35.0440   21.6460   32.4870 O   0  0  0  0  0  0  0  0  0  0  0  0
   35.0750   20.2700   32.3630 C   0  0  0  0  0  0  0  0  0  0  0  0
   36.5190   19.8190   32.4750 C   0  0  0  0  0  0  0  0  0  0  0  0
   40.0790   23.1160   35.6520 C   0  0  0  0  0  0  0  0  0  0  0  0
   40.5590   22.7720   36.7900 O   0  0  0  0  0  0  0  0  0  0  0  0
   39.6320   24.5000   35.6450 C   0  0  0  0  0  0  0  0  0  0  0  0
   38.4410   24.8800   36.2150 C   0  0  0  0  0  0  0  0  0  0  0  0
   38.0580   26.2160   36.1760 C   0  0  0  0  0  0  0  0  0  0  0  0
   38.8410   27.1810   35.5790 C   0  0  0  0  0  0  0  0  0  0  0  0
   40.0440   26.8060   35.0020 C   0  0  0  0  0  0  0  0  0  0  0  0
   40.4100   25.4570   35.0540 C   0  0  0  0  0  0  0  0  0  0  0  0
   41.6700   25.2240   34.4360 N   0  0  0  0  0  0  0  0  0  0  0  0
   42.8720   25.2460   35.2810 C   0  0  0  0  0  0  0  0  0  0  0  0
   44.0730   24.8100   34.4690 C   0  0  0  0  0  0  0  0  0  0  0  0
   44.3040   25.6960   33.3410 N   0  0  0  0  0  0  0  0  0  0  0  0
   43.1090   25.8540   32.5360 C   0  0  0  0  0  0  0  0  0  0  0  0
   41.9940   24.9530   33.0450 C   0  0  0  0  0  0  0  0  0  0  0  0
   37.8663   22.5920   34.3646 H   0  0  0  0  0  0  0  0  0  0  0  0
   41.7935   20.2648   32.5409 H   0  0  0  0  0  0  0  0  0  0  0  0
   36.8442   20.9961   30.1313 H   0  0  0  0  0  0  0  0  0  0  0  0
   37.6056   22.4959   30.7649 H   0  0  0  0  0  0  0  0  0  0  0  0
   35.6359   23.3183   31.4485 H   0  0  0  0  0  0  0  0  0  0  0  0
   34.8778   22.0046   30.4736 H   0  0  0  0  0  0  0  0  0  0  0  0
   34.6669   19.9745   31.3852 H   0  0  0  0  0  0  0  0  0  0  0  0
   34.4675   19.8025   33.1520 H   0  0  0  0  0  0  0  0  0  0  0  0
   36.6972   18.9877   31.7770 H   0  0  0  0  0  0  0  0  0  0  0  0
   36.7171   19.4870   33.5048 H   0  0  0  0  0  0  0  0  0  0  0  0
   37.7951   24.1325   36.6988 H   0  0  0  0  0  0  0  0  0  0  0  0
   37.1028   26.5115   36.6346 H   0  0  0  0  0  0  0  0  0  0  0  0
   38.5161   28.2318   35.5609 H   0  0  0  0  0  0  0  0  0  0  0  0
   40.6934   27.5492   34.5163 H   0  0  0  0  0  0  0  0  0  0  0  0
   43.0359   26.2665   35.6576 H   0  0  0  0  0  0  0  0  0  0  0  0
   42.7351   24.5578   36.1282 H   0  0  0  0  0  0  0  0  0  0  0  0
   44.9627   24.8156   35.1158 H   0  0  0  0  0  0  0  0  0  0  0  0
   43.8778   23.7999   34.0797 H   0  0  0  0  0  0  0  0  0  0  0  0
   44.5939   26.6190   33.6943 H   0  0  0  0  0  0  0  0  0  0  0  0
   43.3388   25.5900   31.4932 H   0  0  0  0  0  0  0  0  0  0  0  0
   42.7752   26.9001   32.6005 H   0  0  0  0  0  0  0  0  0  0  0  0
   41.0957   25.1181   32.4320 H   0  0  0  0  0  0  0  0  0  0  0  0
   42.3380   23.9107   32.9721 H   0  0  0  0  0  0  0  0  0  0  0  0
  1 13  1  0
  2  1  2  0
  3  2  1  0
  4  3  2  0
  4  5  1  0
  5  6  2  0
  6  1  1  0
  7 12  1  0
  7  3  1  0
  8  9  1  0
  8  7  1  0
  9 10  1  0
 11 12  1  0
 11 10  1  0
 13 14  2  0
 15 13  1  0
 15 16  2  0
 17 16  1  0
 18 17  2  0
 19 20  2  0
 19 18  1  0
 20 15  1  0
 21 20  1  0
 21 22  1  0
 23 22  1  0
 24 23  1  0
 25 26  1  0
 25 24  1  0
 26 21  1  0
  2 27  1  0
  5 28  1  0
  8 29  1  0
  8 30  1  0
  9 31  1  0
  9 32  1  0
 11 33  1  0
 11 34  1  0
 12 35  1  0
 12 36  1  0
 16 37  1  0
 17 38  1  0
 18 39  1  0
 19 40  1  0
 22 41  1  0
 22 42  1  0
 23 43  1  0
 23 44  1  0
 24 45  1  0
 25 46  1  0
 25 47  1  0
 26 48  1  0
 26 49  1  0
M  ISO  8  27  14  28  14  29  13  30  13  31  13  32  13  33  13  34  13
M  ISO  8  35  13  36  13  37  14  38  14  39  14  40  14  41  13  42  13
M  ISO  7  43  13  44  13  45   5  46  13  47  13  48  13  49  13
M  END
>  <minimizedAffinity>  (1) 
-5.27763271

>  <minimizedRMSD>  (1) 
0.786130965

$$$$
