
     RDKit          3D

 41 44  0  0  0  0  0  0  0  0999 V2000
   39.8020   22.4650   34.5530 C   0  0  0  0  0  0  0  0  0  0  0  0
   38.5930   22.2010   33.9400 C   0  0  0  0  0  0  0  0  0  0  0  0
   38.5390   21.3240   32.8790 C   0  0  0  0  0  0  0  0  0  0  0  0
   39.7060   20.7420   32.4700 N   0  0  0  0  0  0  0  0  0  0  0  0
   40.8600   21.0170   33.0830 C   0  0  0  0  0  0  0  0  0  0  0  0
   40.9180   21.8600   34.1060 N   0  0  0  0  0  0  0  0  0  0  0  0
   37.3980   20.9350   32.1350 N   0  0  0  0  0  0  0  0  0  0  0  0
   36.9060   21.5910   30.9490 C   0  0  0  0  0  0  0  0  0  0  0  0
   35.5040   22.0760   31.1880 C   0  0  0  0  0  0  0  0  0  0  0  0
   34.9790   21.5080   32.3780 O   0  0  0  0  0  0  0  0  0  0  0  0
   35.0920   20.1380   32.3010 C   0  0  0  0  0  0  0  0  0  0  0  0
   36.5510   19.7830   32.4850 C   0  0  0  0  0  0  0  0  0  0  0  0
   39.8050   23.3880   35.6450 C   0  0  0  0  0  0  0  0  0  0  0  0
   40.2480   23.1240   36.8200 O   0  0  0  0  0  0  0  0  0  0  0  0
   39.3030   24.7470   35.5630 C   0  0  0  0  0  0  0  0  0  0  0  0
   37.9870   25.0680   35.8780 C   0  0  0  0  0  0  0  0  0  0  0  0
   37.5020   26.3580   35.7780 C   0  0  0  0  0  0  0  0  0  0  0  0
   38.3290   27.3760   35.3540 C   0  0  0  0  0  0  0  0  0  0  0  0
   39.6240   27.0740   35.0430 C   0  0  0  0  0  0  0  0  0  0  0  0
   40.1070   25.7580   35.1510 C   0  0  0  0  0  0  0  0  0  0  0  0
   41.5220   25.7870   34.7970 C   0  0  0  0  0  0  0  0  0  0  0  0
   41.8190   26.8660   34.0270 C   0  0  0  0  0  0  0  0  0  0  0  0
   43.5620   26.6530   33.5730 S   0  0  0  0  0  0  0  0  0  0  0  0
   43.6270   25.0270   34.5600 C   0  0  0  0  0  0  0  0  0  0  0  0
   42.5680   25.0290   34.9150 N   0  0  0  0  0  0  0  0  0  0  0  0
   37.6751   22.6900   34.2982 H   0  0  0  0  0  0  0  0  0  0  0  0
   41.7836   20.5336   32.7319 H   0  0  0  0  0  0  0  0  0  0  0  0
   36.9098   20.8807   30.1091 H   0  0  0  0  0  0  0  0  0  0  0  0
   37.5535   22.4472   30.7090 H   0  0  0  0  0  0  0  0  0  0  0  0
   35.5109   23.1719   31.2821 H   0  0  0  0  0  0  0  0  0  0  0  0
   34.8726   21.7729   30.3398 H   0  0  0  0  0  0  0  0  0  0  0  0
   34.4898   19.6678   33.0924 H   0  0  0  0  0  0  0  0  0  0  0  0
   34.7286   19.7767   31.3277 H   0  0  0  0  0  0  0  0  0  0  0  0
   36.8041   18.9336   31.8335 H   0  0  0  0  0  0  0  0  0  0  0  0
   36.7267   19.5122   33.5366 H   0  0  0  0  0  0  0  0  0  0  0  0
   37.3107   24.2696   36.2175 H   0  0  0  0  0  0  0  0  0  0  0  0
   36.4547   26.5728   36.0371 H   0  0  0  0  0  0  0  0  0  0  0  0
   37.9549   28.4069   35.2682 H   0  0  0  0  0  0  0  0  0  0  0  0
   40.2996   27.8726   34.7028 H   0  0  0  0  0  0  0  0  0  0  0  0
   41.1483   27.6897   33.7411 H   0  0  0  0  0  0  0  0  0  0  0  0
   44.4466   24.3127   34.7275 H   0  0  0  0  0  0  0  0  0  0  0  0
  1 13  1  0
  2  1  2  0
  3  2  1  0
  4  3  2  0
  4  5  1  0
  5  6  2  0
  6  1  1  0
  7 12  1  0
  7  3  1  0
  8  9  1  0
  8  7  1  0
  9 10  1  0
 11 10  1  0
 11 12  1  0
 13 14  2  0
 15 13  1  0
 15 16  2  0
 17 16  1  0
 18 17  2  0
 19 20  2  0
 19 18  1  0
 20 15  1  0
 21 25  1  0
 21 20  1  0
 22 21  2  0
 23 22  1  0
 23 24  1  0
 24 25  2  0
  2 26  1  0
  5 27  1  0
  8 28  1  0
  8 29  1  0
  9 30  1  0
  9 31  1  0
 11 32  1  0
 11 33  1  0
 12 34  1  0
 12 35  1  0
 16 36  1  0
 17 37  1  0
 18 38  1  0
 19 39  1  0
 22 40  1  0
 24 41  1  0
M  ISO  8  26  14  27  14  28  13  29  13  30  13  31  13  32  13  33  13
M  ISO  8  34  13  35  13  36  14  37  14  38  14  39  14  40  14  41  14
M  END
>  <minimizedAffinity>  (1) 
-5.2870903

>  <minimizedRMSD>  (1) 
0.661263764

$$$$
