
     RDKit          3D

 44 47  0  0  1  0  0  0  0  0999 V2000
   39.7670   22.2640   34.5950 C   0  0  0  0  0  0  0  0  0  0  0  0
   38.5510   22.0350   33.9830 C   0  0  0  0  0  0  0  0  0  0  0  0
   38.4900   21.2210   32.8690 C   0  0  0  0  0  0  0  0  0  0  0  0
   39.6560   20.6690   32.4110 N   0  0  0  0  0  0  0  0  0  0  0  0
   40.8140   20.9140   33.0300 C   0  0  0  0  0  0  0  0  0  0  0  0
   40.8800   21.6920   34.0990 N   0  0  0  0  0  0  0  0  0  0  0  0
   37.3440   20.8690   32.1160 N   0  0  0  0  0  0  0  0  0  0  0  0
   36.8340   21.5850   30.9750 C   0  0  0  0  0  0  0  0  0  0  0  0
   35.4390   22.0560   31.2550 C   0  0  0  0  0  0  0  0  0  0  0  0
   34.9260   21.4180   32.4130 O   0  0  0  0  0  0  0  0  0  0  0  0
   35.0420   20.0530   32.2680 C   0  0  0  0  0  0  0  0  0  0  0  0
   36.5060   19.6940   32.4100 C   0  0  0  0  0  0  0  0  0  0  0  0
   39.7790   23.1200   35.7420 C   0  0  0  0  0  0  0  0  0  0  0  0
   40.0560   22.7320   36.9360 O   0  0  0  0  0  0  0  0  0  0  0  0
   39.4750   24.5390   35.7040 C   0  0  0  0  0  0  0  0  0  0  0  0
   38.3220   25.0570   36.2850 C   0  0  0  0  0  0  0  0  0  0  0  0
   38.0250   26.4100   36.2170 C   0  0  0  0  0  0  0  0  0  0  0  0
   38.8690   27.2840   35.5670 C   0  0  0  0  0  0  0  0  0  0  0  0
   40.0020   26.7760   34.9960 C   0  0  0  0  0  0  0  0  0  0  0  0
   40.3120   25.4000   35.0650 C   0  0  0  0  0  0  0  0  0  0  0  0
   41.6750   25.2260   34.5490 C   0  0  0  0  0  0  0  0  0  0  0  0
   42.8610   25.3250   35.2380 C   0  0  0  0  0  0  0  0  0  0  0  0
   43.9780   25.1170   34.4680 C   0  0  0  0  0  0  0  0  0  0  0  0
   43.3850   24.8850   33.2490 C   0  0  0  0  0  0  0  0  0  0  0  0
   42.0910   24.9610   33.3620 O   0  0  0  0  0  0  0  0  0  0  0  0
   37.6358   22.4982   34.3804 H   0  0  0  0  0  0  0  0  0  0  0  0
   41.7364   20.4576   32.6415 H   0  0  0  0  0  0  0  0  0  0  0  0
   36.8261   20.9192   30.0994 H   0  0  0  0  0  0  0  0  0  0  0  0
   37.4777   22.4539   30.7732 H   0  0  0  0  0  0  0  0  0  0  0  0
   35.4489   23.1443   31.4149 H   0  0  0  0  0  0  0  0  0  0  0  0
   34.7985   21.8065   30.3962 H   0  0  0  0  0  0  0  0  0  0  0  0
   34.6772   19.7500   31.2755 H   0  0  0  0  0  0  0  0  0  0  0  0
   34.4438   19.5338   33.0313 H   0  0  0  0  0  0  0  0  0  0  0  0
   36.7527   18.8855   31.7061 H   0  0  0  0  0  0  0  0  0  0  0  0
   36.6980   19.3627   33.4412 H   0  0  0  0  0  0  0  0  0  0  0  0
   38.7156   22.9001   35.9172 H   0  0  0  0  0  0  0  0  0  0  0  0
   39.6234   23.3379   37.5886 H   0  0  0  0  0  0  0  0  0  0  0  0
   37.6317   24.3796   36.8091 H   0  0  0  0  0  0  0  0  0  0  0  0
   37.1057   26.7895   36.6870 H   0  0  0  0  0  0  0  0  0  0  0  0
   38.6379   28.3579   35.5094 H   0  0  0  0  0  0  0  0  0  0  0  0
   40.6890   27.4553   34.4700 H   0  0  0  0  0  0  0  0  0  0  0  0
   42.9102   25.5513   36.3133 H   0  0  0  0  0  0  0  0  0  0  0  0
   45.0422   25.1317   34.7461 H   0  0  0  0  0  0  0  0  0  0  0  0
   43.9252   24.6672   32.3158 H   0  0  0  0  0  0  0  0  0  0  0  0
  1 13  1  0
  2  1  2  0
  3  2  1  0
  4  3  2  0
  4  5  1  0
  5  6  2  0
  6  1  1  0
  7 12  1  0
  7  3  1  0
  8  9  1  0
  8  7  1  0
  9 10  1  0
 11 12  1  0
 11 10  1  0
 13 14  1  0
 15 13  1  0
 15 16  2  0
 17 16  1  0
 18 17  2  0
 19 20  2  0
 19 18  1  0
 20 15  1  0
 21 20  1  0
 21 22  2  0
 23 22  1  0
 24 25  1  0
 24 23  2  0
 25 21  1  0
  2 26  1  0
  5 27  1  0
  8 28  1  0
  8 29  1  0
  9 30  1  0
  9 31  1  0
 11 32  1  0
 11 33  1  0
 12 34  1  0
 12 35  1  0
 13 36  1  0
 14 37  1  0
 16 38  1  0
 17 39  1  0
 18 40  1  0
 19 41  1  0
 22 42  1  0
 23 43  1  0
 24 44  1  0
M  ISO  8  26  14  27  14  28  13  29  13  30  13  31  13  32  13  33  13
M  ISO  8  34  13  35  13  36   8  37   3  38  14  39  14  40  14  41  14
M  ISO  3  42  14  43  14  44  14
M  END
>  <minimizedAffinity>  (1) 
-5.36210632

>  <minimizedRMSD>  (1) 
0.479257345

$$$$
