
     RDKit          3D

 42 45  0  0  0  0  0  0  0  0999 V2000
   40.0380   22.2560   34.5030 C   0  0  0  0  0  0  0  0  0  0  0  0
   38.7900   22.0960   33.9390 C   0  0  0  0  0  0  0  0  0  0  0  0
   38.6360   21.2600   32.8510 C   0  0  0  0  0  0  0  0  0  0  0  0
   39.7380   20.6120   32.3660 N   0  0  0  0  0  0  0  0  0  0  0  0
   40.9430   20.7800   32.9310 C   0  0  0  0  0  0  0  0  0  0  0  0
   41.1140   21.5900   33.9880 N   0  0  0  0  0  0  0  0  0  0  0  0
   37.4360   20.9780   32.1480 N   0  0  0  0  0  0  0  0  0  0  0  0
   36.9390   21.7010   31.0080 C   0  0  0  0  0  0  0  0  0  0  0  0
   35.5860   22.2880   31.3280 C   0  0  0  0  0  0  0  0  0  0  0  0
   35.0740   21.7250   32.5170 O   0  0  0  0  0  0  0  0  0  0  0  0
   35.0840   20.3520   32.4030 C   0  0  0  0  0  0  0  0  0  0  0  0
   36.5240   19.8820   32.5030 C   0  0  0  0  0  0  0  0  0  0  0  0
   40.1560   23.1320   35.6300 C   0  0  0  0  0  0  0  0  0  0  0  0
   40.6840   22.8300   36.7420 O   0  0  0  0  0  0  0  0  0  0  0  0
   39.6650   24.5220   35.6210 C   0  0  0  0  0  0  0  0  0  0  0  0
   38.4780   24.8750   36.2130 C   0  0  0  0  0  0  0  0  0  0  0  0
   38.0480   26.1910   36.1840 C   0  0  0  0  0  0  0  0  0  0  0  0
   38.7930   27.1800   35.5670 C   0  0  0  0  0  0  0  0  0  0  0  0
   39.9770   26.8300   34.9770 C   0  0  0  0  0  0  0  0  0  0  0  0
   40.4020   25.5080   35.0080 C   0  0  0  0  0  0  0  0  0  0  0  0
   41.6390   25.1980   34.3790 N   0  0  0  0  0  0  0  0  0  0  0  0
   42.7170   25.2370   35.2140 C   0  0  0  0  0  0  0  0  0  0  0  0
   43.8380   24.9180   34.4790 C   0  0  0  0  0  0  0  0  0  0  0  0
   43.4360   24.6910   33.2170 N   0  0  0  0  0  0  0  0  0  0  0  0
   42.1020   24.8620   33.1610 C   0  0  0  0  0  0  0  0  0  0  0  0
   37.9227   22.6309   34.3532 H   0  0  0  0  0  0  0  0  0  0  0  0
   41.8099   20.2424   32.5193 H   0  0  0  0  0  0  0  0  0  0  0  0
   36.8472   21.0160   30.1522 H   0  0  0  0  0  0  0  0  0  0  0  0
   37.6383   22.5126   30.7583 H   0  0  0  0  0  0  0  0  0  0  0  0
   35.6839   23.3762   31.4551 H   0  0  0  0  0  0  0  0  0  0  0  0
   34.8956   22.0646   30.5013 H   0  0  0  0  0  0  0  0  0  0  0  0
   34.6613   20.0552   31.4318 H   0  0  0  0  0  0  0  0  0  0  0  0
   34.4783   19.8984   33.2014 H   0  0  0  0  0  0  0  0  0  0  0  0
   36.6810   19.0396   31.8133 H   0  0  0  0  0  0  0  0  0  0  0  0
   36.7286   19.5620   33.5353 H   0  0  0  0  0  0  0  0  0  0  0  0
   37.8659   24.1095   36.7124 H   0  0  0  0  0  0  0  0  0  0  0  0
   37.0933   26.4557   36.6620 H   0  0  0  0  0  0  0  0  0  0  0  0
   38.4421   28.2224   35.5511 H   0  0  0  0  0  0  0  0  0  0  0  0
   40.5913   27.5945   34.4789 H   0  0  0  0  0  0  0  0  0  0  0  0
   42.6952   25.4805   36.2865 H   0  0  0  0  0  0  0  0  0  0  0  0
   44.8700   24.8600   34.8553 H   0  0  0  0  0  0  0  0  0  0  0  0
   41.4849   24.7450   32.2580 H   0  0  0  0  0  0  0  0  0  0  0  0
  1 13  1  0
  2  1  2  0
  3  2  1  0
  4  3  2  0
  4  5  1  0
  5  6  2  0
  6  1  1  0
  7 12  1  0
  7  3  1  0
  8  9  1  0
  8  7  1  0
  9 10  1  0
 11 12  1  0
 11 10  1  0
 13 14  2  0
 15 13  1  0
 15 16  2  0
 17 16  1  0
 18 17  2  0
 19 20  2  0
 19 18  1  0
 20 15  1  0
 21 20  1  0
 21 22  1  0
 23 22  2  0
 24 23  1  0
 25 24  2  0
 25 21  1  0
  2 26  1  0
  5 27  1  0
  8 28  1  0
  8 29  1  0
  9 30  1  0
  9 31  1  0
 11 32  1  0
 11 33  1  0
 12 34  1  0
 12 35  1  0
 16 36  1  0
 17 37  1  0
 18 38  1  0
 19 39  1  0
 22 40  1  0
 23 41  1  0
 25 42  1  0
M  ISO  8  26  14  27  14  28  13  29  13  30  13  31  13  32  13  33  13
M  ISO  8  34  13  35  13  36  14  37  14  38  14  39  14  40  14  41  14
M  ISO  1  42  14
M  END
>  <minimizedAffinity>  (1) 
-5.16630936

>  <minimizedRMSD>  (1) 
0.674193501

$$$$
