
     RDKit          3D

 43 45  0  0  1  0  0  0  0  0999 V2000
   39.9110   22.2550   34.5600 C   0  0  0  0  0  0  0  0  0  0  0  0
   38.6790   22.0760   33.9620 C   0  0  0  0  0  0  0  0  0  0  0  0
   38.5650   21.2540   32.8590 C   0  0  0  0  0  0  0  0  0  0  0  0
   39.6840   20.6460   32.4010 N   0  0  0  0  0  0  0  0  0  0  0  0
   40.8740   20.8350   33.0010 C   0  0  0  0  0  0  0  0  0  0  0  0
   41.0040   21.6270   34.0700 N   0  0  0  0  0  0  0  0  0  0  0  0
   37.3950   20.9540   32.1250 N   0  0  0  0  0  0  0  0  0  0  0  0
   36.8920   21.6840   30.9920 C   0  0  0  0  0  0  0  0  0  0  0  0
   35.5130   22.2150   31.3020 C   0  0  0  0  0  0  0  0  0  0  0  0
   35.0000   21.6130   32.4700 O   0  0  0  0  0  0  0  0  0  0  0  0
   35.0570   20.2500   32.3170 C   0  0  0  0  0  0  0  0  0  0  0  0
   36.5070   19.8210   32.4290 C   0  0  0  0  0  0  0  0  0  0  0  0
   39.9750   23.1250   35.6890 C   0  0  0  0  0  0  0  0  0  0  0  0
   40.3830   22.7670   36.8560 O   0  0  0  0  0  0  0  0  0  0  0  0
   39.5790   24.5420   35.6530 C   0  0  0  0  0  0  0  0  0  0  0  0
   38.4040   24.9570   36.2690 C   0  0  0  0  0  0  0  0  0  0  0  0
   38.0540   26.2900   36.2370 C   0  0  0  0  0  0  0  0  0  0  0  0
   38.8580   27.2250   35.6000 C   0  0  0  0  0  0  0  0  0  0  0  0
   40.0140   26.8030   34.9960 C   0  0  0  0  0  0  0  0  0  0  0  0
   40.3680   25.4600   35.0270 C   0  0  0  0  0  0  0  0  0  0  0  0
   41.6250   25.2210   34.2750 C   0  0  0  0  0  0  0  0  0  0  0  0
   42.8610   25.3460   35.1630 C   0  0  0  0  0  0  0  0  0  0  0  0
   37.7914   22.5869   34.3635 H   0  0  0  0  0  0  0  0  0  0  0  0
   41.7626   20.3245   32.6013 H   0  0  0  0  0  0  0  0  0  0  0  0
   36.8392   21.0154   30.1201 H   0  0  0  0  0  0  0  0  0  0  0  0
   37.5658   22.5250   30.7714 H   0  0  0  0  0  0  0  0  0  0  0  0
   35.5699   23.3033   31.4514 H   0  0  0  0  0  0  0  0  0  0  0  0
   34.8453   21.9808   30.4598 H   0  0  0  0  0  0  0  0  0  0  0  0
   34.6607   19.9692   31.3300 H   0  0  0  0  0  0  0  0  0  0  0  0
   34.4533   19.7550   33.0920 H   0  0  0  0  0  0  0  0  0  0  0  0
   36.7011   19.0055   31.7168 H   0  0  0  0  0  0  0  0  0  0  0  0
   36.7020   19.4764   33.4553 H   0  0  0  0  0  0  0  0  0  0  0  0
   38.9469   22.8455   35.9627 H   0  0  0  0  0  0  0  0  0  0  0  0
   39.8515   23.2334   37.5489 H   0  0  0  0  0  0  0  0  0  0  0  0
   37.7580   24.2268   36.7784 H   0  0  0  0  0  0  0  0  0  0  0  0
   37.1235   26.6176   36.7237 H   0  0  0  0  0  0  0  0  0  0  0  0
   38.5723   28.2871   35.5801 H   0  0  0  0  0  0  0  0  0  0  0  0
   40.6630   27.5297   34.4854 H   0  0  0  0  0  0  0  0  0  0  0  0
   41.5958   24.2072   33.8492 H   0  0  0  0  0  0  0  0  0  0  0  0
   41.6971   25.9845   33.4864 H   0  0  0  0  0  0  0  0  0  0  0  0
   42.5578   25.3153   36.2199 H   0  0  0  0  0  0  0  0  0  0  0  0
   43.5482   24.5128   34.9544 H   0  0  0  0  0  0  0  0  0  0  0  0
   43.3674   26.2999   34.9544 H   0  0  0  0  0  0  0  0  0  0  0  0
  1 13  1  0
  2  1  2  0
  3  2  1  0
  4  3  2  0
  4  5  1  0
  5  6  2  0
  6  1  1  0
  7 12  1  0
  7  3  1  0
  8  9  1  0
  8  7  1  0
  9 10  1  0
 11 12  1  0
 11 10  1  0
 13 14  1  0
 15 13  1  0
 15 16  2  0
 17 16  1  0
 18 17  2  0
 19 20  2  0
 19 18  1  0
 20 15  1  0
 21 20  1  0
 21 22  1  0
  2 23  1  0
  5 24  1  0
  8 25  1  0
  8 26  1  0
  9 27  1  0
  9 28  1  0
 11 29  1  0
 11 30  1  0
 12 31  1  0
 12 32  1  0
 13 33  1  0
 14 34  1  0
 16 35  1  0
 17 36  1  0
 18 37  1  0
 19 38  1  0
 21 39  1  0
 21 40  1  0
 22 41  1  0
 22 42  1  0
 22 43  1  0
M  ISO  8  23  14  24  14  25  13  26  13  27  13  28  13  29  13  30  13
M  ISO  8  31  13  32  13  33   8  34   3  35  14  36  14  37  14  38  14
M  ISO  5  39   8  40   8  41   8  42   8  43   8
M  END
>  <minimizedAffinity>  (1) 
-5.04426527

>  <minimizedRMSD>  (1) 
0.325957775

$$$$
