
     RDKit          3D

 37 41  0  0  0  0  0  0  0  0999 V2000
   39.7030   22.8440   37.9380 C   0  0  0  0  0  0  0  0  0  0  0  0
   38.8610   23.6050   38.7520 C   0  0  0  0  0  0  0  0  0  0  0  0
   37.8650   24.3630   38.1400 C   0  0  0  0  0  0  0  0  0  0  0  0
   37.7970   24.2940   36.7660 N   0  0  0  0  0  0  0  0  0  0  0  0
   38.6160   23.5560   36.0110 C   0  0  0  0  0  0  0  0  0  0  0  0
   39.5810   22.8220   36.6080 N   0  0  0  0  0  0  0  0  0  0  0  0
   38.4110   23.5950   34.6100 N   0  0  0  0  0  0  0  0  0  0  0  0
   38.7220   22.5440   33.7840 C   0  0  0  0  0  0  0  0  0  0  0  0
   38.4190   22.8710   32.5090 N   0  0  0  0  0  0  0  0  0  0  0  0
   37.9160   24.1160   32.4870 C   0  0  0  0  0  0  0  0  0  0  0  0
   37.4290   25.0010   31.5160 C   0  0  0  0  0  0  0  0  0  0  0  0
   36.9830   26.2250   31.8580 N   0  0  0  0  0  0  0  0  0  0  0  0
   37.0090   26.5960   33.1490 C   0  0  0  0  0  0  0  0  0  0  0  0
   37.4680   25.7760   34.1180 N   0  0  0  0  0  0  0  0  0  0  0  0
   37.9190   24.5500   33.8080 C   0  0  0  0  0  0  0  0  0  0  0  0
   37.4770   24.4410   30.2090 N   0  0  0  0  0  0  0  0  0  0  0  0
   36.5120   27.9080   33.3800 N   0  0  0  0  0  0  0  0  0  0  0  0
   36.0360   28.3710   34.5500 C   0  0  0  0  0  0  0  0  0  0  0  0
   35.6460   29.6580   34.4300 N   0  0  0  0  0  0  0  0  0  0  0  0
   35.8710   30.0520   33.1490 C   0  0  0  0  0  0  0  0  0  0  0  0
   35.6430   31.2590   32.5390 C   0  0  0  0  0  0  0  0  0  0  0  0
   35.1440   32.2070   33.2200 O   0  0  0  0  0  0  0  0  0  0  0  0
   35.9830   31.3310   31.2320 N   0  0  0  0  0  0  0  0  0  0  0  0
   36.5080   30.2640   30.6010 C   0  0  0  0  0  0  0  0  0  0  0  0
   36.8200   30.4730   29.2320 N   0  0  0  0  0  0  0  0  0  0  0  0
   36.7270   29.0710   31.2300 N   0  0  0  0  0  0  0  0  0  0  0  0
   36.4080   28.9440   32.5290 C   0  0  0  0  0  0  0  0  0  0  0  0
   40.4942   22.2418   38.4085 H   0  0  0  0  0  0  0  0  0  0  0  0
   38.9808   23.6059   39.8455 H   0  0  0  0  0  0  0  0  0  0  0  0
   37.1694   24.9840   38.7235 H   0  0  0  0  0  0  0  0  0  0  0  0
   39.1511   21.5849   34.1096 H   0  0  0  0  0  0  0  0  0  0  0  0
   37.8416   23.4878   30.0702 H   0  0  0  0  0  0  0  0  0  0  0  0
   37.1471   24.9888   29.4016 H   0  0  0  0  0  0  0  0  0  0  0  0
   35.9732   27.7820   35.4769 H   0  0  0  0  0  0  0  0  0  0  0  0
   35.8390   32.2100   30.7148 H   0  0  0  0  0  0  0  0  0  0  0  0
   36.6388   31.3886   28.7965 H   0  0  0  0  0  0  0  0  0  0  0  0
   37.2276   29.7090   28.6742 H   0  0  0  0  0  0  0  0  0  0  0  0
  1  2  2  0
  3  2  1  0
  4  3  2  0
  5  6  2  0
  5  4  1  0
  6  1  1  0
  7  5  1  0
  8  7  1  0
  9  8  2  0
 10  9  1  0
 10 15  2  0
 11 12  2  0
 11 10  1  0
 12 13  1  0
 13 17  1  0
 13 14  2  0
 15 14  1  0
 15  7  1  0
 16 11  1  0
 17 18  1  0
 19 18  2  0
 20 19  1  0
 21 20  1  0
 21 22  2  0
 23 21  1  0
 24 26  2  0
 24 23  1  0
 25 24  1  0
 26 27  1  0
 27 20  2  0
 27 17  1  0
  1 28  1  0
  2 29  1  0
  3 30  1  0
  8 31  1  0
 16 32  1  0
 16 33  1  0
 18 34  1  0
 23 35  1  0
 25 36  1  0
 25 37  1  0
M  ISO  6  28  14  29  14  30  14  31  14  34  14  35   9
M  END
>  <minimizedAffinity>  (1) 
-6.98961544

>  <minimizedRMSD>  (1) 
1.7545706

$$$$
