
     RDKit          3D

 37 39  0  0  0  0  0  0  0  0999 V2000
   39.7380   22.2490   34.6120 C   0  0  0  0  0  0  0  0  0  0  0  0
   38.5240   22.0280   34.0100 C   0  0  0  0  0  0  0  0  0  0  0  0
   38.4790   21.2210   32.8850 C   0  0  0  0  0  0  0  0  0  0  0  0
   39.6370   20.6760   32.4140 N   0  0  0  0  0  0  0  0  0  0  0  0
   40.8090   20.9150   33.0320 C   0  0  0  0  0  0  0  0  0  0  0  0
   40.8750   21.6940   34.1230 N   0  0  0  0  0  0  0  0  0  0  0  0
   37.3320   20.8730   32.1240 N   0  0  0  0  0  0  0  0  0  0  0  0
   36.8410   21.6210   30.9760 C   0  0  0  0  0  0  0  0  0  0  0  0
   35.4450   22.1040   31.2550 C   0  0  0  0  0  0  0  0  0  0  0  0
   34.9230   21.4620   32.3900 O   0  0  0  0  0  0  0  0  0  0  0  0
   35.0290   20.1020   32.2320 C   0  0  0  0  0  0  0  0  0  0  0  0
   36.4820   19.7160   32.3900 C   0  0  0  0  0  0  0  0  0  0  0  0
   39.7420   23.0910   35.7760 C   0  0  0  0  0  0  0  0  0  0  0  0
   40.0300   22.7160   36.9500 O   0  0  0  0  0  0  0  0  0  0  0  0
   39.4060   24.5230   35.7460 C   0  0  0  0  0  0  0  0  0  0  0  0
   38.3090   25.0290   36.3910 C   0  0  0  0  0  0  0  0  0  0  0  0
   38.0430   26.3880   36.3260 C   0  0  0  0  0  0  0  0  0  0  0  0
   38.8560   27.2680   35.6250 C   0  0  0  0  0  0  0  0  0  0  0  0
   39.9530   26.7650   34.9790 C   0  0  0  0  0  0  0  0  0  0  0  0
   40.2210   25.4000   35.0430 C   0  0  0  0  0  0  0  0  0  0  0  0
   41.3820   24.9590   34.3430 N   0  0  0  0  0  0  0  0  0  0  0  0
   37.6065   22.4821   34.4125 H   0  0  0  0  0  0  0  0  0  0  0  0
   41.7301   20.4632   32.6352 H   0  0  0  0  0  0  0  0  0  0  0  0
   36.8338   20.9698   30.0895 H   0  0  0  0  0  0  0  0  0  0  0  0
   37.4982   22.4835   30.7909 H   0  0  0  0  0  0  0  0  0  0  0  0
   35.4652   23.1898   31.4298 H   0  0  0  0  0  0  0  0  0  0  0  0
   34.8074   21.8726   30.3890 H   0  0  0  0  0  0  0  0  0  0  0  0
   34.4236   19.5909   32.9950 H   0  0  0  0  0  0  0  0  0  0  0  0
   34.6654   19.8073   31.2365 H   0  0  0  0  0  0  0  0  0  0  0  0
   36.7259   18.9124   31.6795 H   0  0  0  0  0  0  0  0  0  0  0  0
   36.6555   19.3662   33.4184 H   0  0  0  0  0  0  0  0  0  0  0  0
   37.6430   24.3612   36.9572 H   0  0  0  0  0  0  0  0  0  0  0  0
   37.1582   26.7821   36.8473 H   0  0  0  0  0  0  0  0  0  0  0  0
   38.6245   28.3428   35.5895 H   0  0  0  0  0  0  0  0  0  0  0  0
   40.6180   27.4342   34.4134 H   0  0  0  0  0  0  0  0  0  0  0  0
   41.6390   23.9616   34.3487 H   0  0  0  0  0  0  0  0  0  0  0  0
   41.9638   25.6378   33.8315 H   0  0  0  0  0  0  0  0  0  0  0  0
  1 13  1  0
  2  1  2  0
  3  2  1  0
  4  3  2  0
  4  5  1  0
  5  6  2  0
  6  1  1  0
  7 12  1  0
  7  3  1  0
  8  9  1  0
  8  7  1  0
  9 10  1  0
 11 10  1  0
 11 12  1  0
 13 14  2  0
 15 13  1  0
 15 16  2  0
 17 16  1  0
 18 17  2  0
 19 20  2  0
 19 18  1  0
 20 15  1  0
 21 20  1  0
  2 22  1  0
  5 23  1  0
  8 24  1  0
  8 25  1  0
  9 26  1  0
  9 27  1  0
 11 28  1  0
 11 29  1  0
 12 30  1  0
 12 31  1  0
 16 32  1  0
 17 33  1  0
 18 34  1  0
 19 35  1  0
 21 36  1  0
 21 37  1  0
M  ISO  8  22  14  23  14  24  13  25  13  26  13  27  13  28  13  29  13
M  ISO  6  30  13  31  13  32  14  33  14  34  14  35  14
M  END
>  <minimizedAffinity>  (1) 
-5.03612185

>  <minimizedRMSD>  (1) 
0.0512955412

$$$$
