
     RDKit          3D

 36 39  0  0  0  0  0  0  0  0999 V2000
   39.7180   22.7650   37.8770 C   0  0  0  0  0  0  0  0  0  0  0  0
   38.7990   23.4920   38.6330 C   0  0  0  0  0  0  0  0  0  0  0  0
   37.7960   24.1950   37.9350 C   0  0  0  0  0  0  0  0  0  0  0  0
   37.7870   24.1190   36.5620 N   0  0  0  0  0  0  0  0  0  0  0  0
   38.6970   23.4020   35.8780 C   0  0  0  0  0  0  0  0  0  0  0  0
   39.6650   22.7240   36.5390 N   0  0  0  0  0  0  0  0  0  0  0  0
   38.5780   23.4070   34.4670 N   0  0  0  0  0  0  0  0  0  0  0  0
   38.9600   22.3650   33.6730 C   0  0  0  0  0  0  0  0  0  0  0  0
   38.7220   22.6670   32.3750 N   0  0  0  0  0  0  0  0  0  0  0  0
   38.1820   23.9050   32.3050 C   0  0  0  0  0  0  0  0  0  0  0  0
   37.7270   24.7640   31.3020 C   0  0  0  0  0  0  0  0  0  0  0  0
   37.2280   25.9780   31.6020 N   0  0  0  0  0  0  0  0  0  0  0  0
   37.1700   26.3610   32.8770 C   0  0  0  0  0  0  0  0  0  0  0  0
   37.6030   25.5510   33.8770 N   0  0  0  0  0  0  0  0  0  0  0  0
   38.1020   24.3440   33.6170 C   0  0  0  0  0  0  0  0  0  0  0  0
   37.8670   24.1900   30.0050 N   0  0  0  0  0  0  0  0  0  0  0  0
   35.6200   30.1490   33.9050 C   0  0  0  0  0  0  0  0  0  0  0  0
   36.0640   29.3310   34.9130 C   0  0  0  0  0  0  0  0  0  0  0  0
   36.5690   28.0900   34.5380 C   0  0  0  0  0  0  0  0  0  0  0  0
   36.6350   27.6680   33.2270 C   0  0  0  0  0  0  0  0  0  0  0  0
   36.1770   28.5200   32.2420 C   0  0  0  0  0  0  0  0  0  0  0  0
   35.6700   29.7600   32.5800 C   0  0  0  0  0  0  0  0  0  0  0  0
   34.9950   31.7060   34.4580 S   0  0  0  0  0  0  0  0  0  0  0  0
   36.1570   32.4710   35.0530 O   0  0  0  0  0  0  0  0  0  0  0  0
   34.0380   31.4170   35.5730 O   0  0  0  0  0  0  0  0  0  0  0  0
   40.5117   22.2074   38.3958 H   0  0  0  0  0  0  0  0  0  0  0  0
   38.8545   23.5160   39.7313 H   0  0  0  0  0  0  0  0  0  0  0  0
   37.0418   24.7876   38.4735 H   0  0  0  0  0  0  0  0  0  0  0  0
   39.3958   21.4215   34.0335 H   0  0  0  0  0  0  0  0  0  0  0  0
   38.2656   23.2461   29.8998 H   0  0  0  0  0  0  0  0  0  0  0  0
   37.5696   24.7191   29.1728 H   0  0  0  0  0  0  0  0  0  0  0  0
   36.0227   29.6415   35.9674 H   0  0  0  0  0  0  0  0  0  0  0  0
   36.9330   27.4132   35.3250 H   0  0  0  0  0  0  0  0  0  0  0  0
   36.2158   28.2113   31.1869 H   0  0  0  0  0  0  0  0  0  0  0  0
   35.3060   30.4379   31.7939 H   0  0  0  0  0  0  0  0  0  0  0  0
   34.4003   32.4067   33.4420 H   0  0  0  0  0  0  0  0  0  0  0  0
  1  2  2  0
  3  2  1  0
  4  3  2  0
  5  6  2  0
  5  4  1  0
  6  1  1  0
  7  5  1  0
  8  7  1  0
  9  8  2  0
 10  9  1  0
 10 15  2  0
 11 12  2  0
 11 10  1  0
 12 13  1  0
 13 20  1  0
 13 14  2  0
 15 14  1  0
 15  7  1  0
 16 11  1  0
 17 23  1  0
 17 18  2  0
 19 18  1  0
 20 19  2  0
 21 22  2  0
 21 20  1  0
 22 17  1  0
 23 24  2  0
 23 25  2  0
  1 26  1  0
  2 27  1  0
  3 28  1  0
  8 29  1  0
 16 30  1  0
 16 31  1  0
 18 32  1  0
 19 33  1  0
 21 34  1  0
 22 35  1  0
 23 36  1  0
M  ISO  8  26  14  27  14  28  14  29  14  32  14  33  14  34  14  35  14
M  ISO  1  36  11
M  END
>  <minimizedAffinity>  (1) 
-6.20921659

>  <minimizedRMSD>  (1) 
1.95064068

$$$$
