
     RDKit          3D

 34 37  0  0  0  0  0  0  0  0999 V2000
   39.7120   22.7910   37.8610 C   0  0  0  0  0  0  0  0  0  0  0  0
   38.7680   23.5130   38.5940 C   0  0  0  0  0  0  0  0  0  0  0  0
   37.7660   24.1770   37.8890 C   0  0  0  0  0  0  0  0  0  0  0  0
   37.7840   24.0700   36.5180 N   0  0  0  0  0  0  0  0  0  0  0  0
   38.7040   23.3700   35.8520 C   0  0  0  0  0  0  0  0  0  0  0  0
   39.6750   22.7260   36.5320 N   0  0  0  0  0  0  0  0  0  0  0  0
   38.6090   23.3400   34.4290 N   0  0  0  0  0  0  0  0  0  0  0  0
   39.0430   22.3060   33.6630 C   0  0  0  0  0  0  0  0  0  0  0  0
   38.8110   22.5820   32.3530 N   0  0  0  0  0  0  0  0  0  0  0  0
   38.2210   23.8050   32.2660 C   0  0  0  0  0  0  0  0  0  0  0  0
   37.7520   24.6210   31.2400 C   0  0  0  0  0  0  0  0  0  0  0  0
   37.2050   25.8090   31.5000 N   0  0  0  0  0  0  0  0  0  0  0  0
   37.1110   26.2130   32.7880 C   0  0  0  0  0  0  0  0  0  0  0  0
   37.5520   25.4540   33.8080 N   0  0  0  0  0  0  0  0  0  0  0  0
   38.1100   24.2480   33.5670 C   0  0  0  0  0  0  0  0  0  0  0  0
   37.9320   24.0360   29.9520 N   0  0  0  0  0  0  0  0  0  0  0  0
   36.5490   27.4490   33.1420 N   0  0  0  0  0  0  0  0  0  0  0  0
   35.9380   28.1330   32.1310 C   0  0  0  0  0  0  0  0  0  0  0  0
   35.3640   29.3510   32.4010 C   0  0  0  0  0  0  0  0  0  0  0  0
   35.4400   29.8210   33.7070 C   0  0  0  0  0  0  0  0  0  0  0  0
   34.8470   31.0840   33.9940 N   0  0  0  0  0  0  0  0  0  0  0  0
   36.0610   29.0830   34.6430 N   0  0  0  0  0  0  0  0  0  0  0  0
   36.6180   27.9020   34.3850 C   0  0  0  0  0  0  0  0  0  0  0  0
   37.2080   27.1840   35.2370 O   0  0  0  0  0  0  0  0  0  0  0  0
   40.5111   22.2594   38.3985 H   0  0  0  0  0  0  0  0  0  0  0  0
   38.8138   23.5562   39.6922 H   0  0  0  0  0  0  0  0  0  0  0  0
   36.9926   24.7625   38.4077 H   0  0  0  0  0  0  0  0  0  0  0  0
   39.5105   21.3863   34.0445 H   0  0  0  0  0  0  0  0  0  0  0  0
   38.3686   23.1072   29.8647 H   0  0  0  0  0  0  0  0  0  0  0  0
   37.6254   24.5423   29.1090 H   0  0  0  0  0  0  0  0  0  0  0  0
   35.9059   27.7144   31.1143 H   0  0  0  0  0  0  0  0  0  0  0  0
   34.8629   29.9328   31.6134 H   0  0  0  0  0  0  0  0  0  0  0  0
   34.8835   31.4647   34.9504 H   0  0  0  0  0  0  0  0  0  0  0  0
   34.3817   31.6166   33.2451 H   0  0  0  0  0  0  0  0  0  0  0  0
  1  2  2  0
  3  2  1  0
  4  3  2  0
  5  4  1  0
  5  6  2  0
  6  1  1  0
  7  5  1  0
  8  7  1  0
  9  8  2  0
 10  9  1  0
 10 15  2  0
 11 12  2  0
 11 10  1  0
 12 13  1  0
 13 17  1  0
 13 14  2  0
 15 14  1  0
 15  7  1  0
 16 11  1  0
 17 23  1  0
 18 19  2  0
 18 17  1  0
 19 20  1  0
 20 21  1  0
 20 22  2  0
 23 22  1  0
 23 24  2  0
  1 25  1  0
  2 26  1  0
  3 27  1  0
  8 28  1  0
 16 29  1  0
 16 30  1  0
 18 31  1  0
 19 32  1  0
 21 33  1  0
 21 34  1  0
M  ISO  6  25  14  26  14  27  14  28  14  31  14  32  14
M  END
>  <minimizedAffinity>  (1) 
-6.5276618

>  <minimizedRMSD>  (1) 
1.95472419

$$$$
