
     RDKit          3D

 34 38  0  0  0  0  0  0  0  0999 V2000
   39.7400   22.8250   37.9450 C   0  0  0  0  0  0  0  0  0  0  0  0
   38.8490   23.5890   38.7010 C   0  0  0  0  0  0  0  0  0  0  0  0
   37.8460   24.2860   38.0300 C   0  0  0  0  0  0  0  0  0  0  0  0
   37.8110   24.1650   36.6600 N   0  0  0  0  0  0  0  0  0  0  0  0
   38.6830   23.4220   35.9630 C   0  0  0  0  0  0  0  0  0  0  0  0
   39.6590   22.7430   36.6070 N   0  0  0  0  0  0  0  0  0  0  0  0
   38.5210   23.3930   34.5510 N   0  0  0  0  0  0  0  0  0  0  0  0
   38.8670   22.3220   33.7750 C   0  0  0  0  0  0  0  0  0  0  0  0
   38.5930   22.6020   32.4850 N   0  0  0  0  0  0  0  0  0  0  0  0
   38.0720   23.8390   32.3950 C   0  0  0  0  0  0  0  0  0  0  0  0
   37.6000   24.6810   31.3800 C   0  0  0  0  0  0  0  0  0  0  0  0
   37.1280   25.9110   31.6620 N   0  0  0  0  0  0  0  0  0  0  0  0
   37.1160   26.3200   32.9360 C   0  0  0  0  0  0  0  0  0  0  0  0
   37.5590   25.5470   33.9480 N   0  0  0  0  0  0  0  0  0  0  0  0
   38.0370   24.3120   33.7020 C   0  0  0  0  0  0  0  0  0  0  0  0
   37.6940   24.0710   30.0940 N   0  0  0  0  0  0  0  0  0  0  0  0
   36.6220   27.6140   33.2630 N   0  0  0  0  0  0  0  0  0  0  0  0
   36.2500   28.0250   34.4910 C   0  0  0  0  0  0  0  0  0  0  0  0
   35.8420   29.3110   34.3840 N   0  0  0  0  0  0  0  0  0  0  0  0
   35.9720   29.6640   33.0930 C   0  0  0  0  0  0  0  0  0  0  0  0
   35.6970   30.8670   32.4380 C   0  0  0  0  0  0  0  0  0  0  0  0
   35.9150   30.9630   31.1300 N   0  0  0  0  0  0  0  0  0  0  0  0
   36.3960   29.9320   30.4110 C   0  0  0  0  0  0  0  0  0  0  0  0
   36.6600   28.7740   31.0450 N   0  0  0  0  0  0  0  0  0  0  0  0
   36.4690   28.5940   32.3590 C   0  0  0  0  0  0  0  0  0  0  0  0
   40.5363   22.2708   38.4635 H   0  0  0  0  0  0  0  0  0  0  0  0
   38.9363   23.6394   39.7964 H   0  0  0  0  0  0  0  0  0  0  0  0
   37.1153   24.9049   38.5713 H   0  0  0  0  0  0  0  0  0  0  0  0
   39.3003   21.3809   34.1446 H   0  0  0  0  0  0  0  0  0  0  0  0
   38.0750   23.1185   30.0024 H   0  0  0  0  0  0  0  0  0  0  0  0
   37.3808   24.5831   29.2570 H   0  0  0  0  0  0  0  0  0  0  0  0
   36.2736   27.4248   35.4125 H   0  0  0  0  0  0  0  0  0  0  0  0
   35.3036   31.7272   32.9995 H   0  0  0  0  0  0  0  0  0  0  0  0
   36.5696   30.0332   29.3295 H   0  0  0  0  0  0  0  0  0  0  0  0
  1  2  2  0
  3  2  1  0
  4  3  2  0
  5  6  2  0
  5  4  1  0
  6  1  1  0
  7  5  1  0
  8  7  1  0
  9  8  2  0
 10  9  1  0
 10 15  2  0
 11 12  2  0
 11 10  1  0
 12 13  1  0
 13 17  1  0
 13 14  2  0
 15 14  1  0
 15  7  1  0
 16 11  1  0
 17 18  1  0
 19 18  2  0
 20 19  1  0
 21 20  2  0
 22 21  1  0
 23 24  1  0
 23 22  2  0
 24 25  2  0
 25 20  1  0
 25 17  1  0
  1 26  1  0
  2 27  1  0
  3 28  1  0
  8 29  1  0
 16 30  1  0
 16 31  1  0
 18 32  1  0
 21 33  1  0
 23 34  1  0
M  ISO  7  26  14  27  14  28  14  29  14  32  14  33  14  34  14
M  END
>  <minimizedAffinity>  (1) 
-6.52777624

>  <minimizedRMSD>  (1) 
1.97135246

$$$$
