
     RDKit          3D

 37 40  0  0  0  0  0  0  0  0999 V2000
   39.6510   22.8300   37.9490 C   0  0  0  0  0  0  0  0  0  0  0  0
   38.7780   23.6280   38.6870 C   0  0  0  0  0  0  0  0  0  0  0  0
   37.8150   24.3480   37.9800 C   0  0  0  0  0  0  0  0  0  0  0  0
   37.7940   24.2230   36.6140 N   0  0  0  0  0  0  0  0  0  0  0  0
   38.6530   23.4430   35.9460 C   0  0  0  0  0  0  0  0  0  0  0  0
   39.5800   22.7470   36.6160 N   0  0  0  0  0  0  0  0  0  0  0  0
   38.5170   23.4050   34.5280 N   0  0  0  0  0  0  0  0  0  0  0  0
   38.8500   22.3240   33.7670 C   0  0  0  0  0  0  0  0  0  0  0  0
   38.6110   22.5910   32.4630 N   0  0  0  0  0  0  0  0  0  0  0  0
   38.1180   23.8540   32.3650 C   0  0  0  0  0  0  0  0  0  0  0  0
   37.6890   24.6900   31.3320 C   0  0  0  0  0  0  0  0  0  0  0  0
   37.2410   25.9360   31.5950 N   0  0  0  0  0  0  0  0  0  0  0  0
   37.2170   26.3500   32.8610 C   0  0  0  0  0  0  0  0  0  0  0  0
   37.6180   25.5830   33.8850 N   0  0  0  0  0  0  0  0  0  0  0  0
   38.0710   24.3330   33.6560 C   0  0  0  0  0  0  0  0  0  0  0  0
   37.7950   24.0620   30.0570 N   0  0  0  0  0  0  0  0  0  0  0  0
   36.7490   27.6580   33.1570 N   0  0  0  0  0  0  0  0  0  0  0  0
   36.5840   28.6940   32.1560 C   0  0  0  0  0  0  0  0  0  0  0  0
   35.1150   29.0980   32.2330 C   0  0  0  0  0  0  0  0  0  0  0  0
   34.8040   29.6440   33.5170 N   0  0  0  0  0  0  0  0  0  0  0  0
   35.8140   29.4410   34.5080 C   0  0  0  0  0  0  0  0  0  0  0  0
   36.3940   28.0660   34.5030 C   0  0  0  0  0  0  0  0  0  0  0  0
   40.4216   22.2511   38.4791 H   0  0  0  0  0  0  0  0  0  0  0  0
   38.8459   23.6875   39.7833 H   0  0  0  0  0  0  0  0  0  0  0  0
   37.0949   24.9958   38.5014 H   0  0  0  0  0  0  0  0  0  0  0  0
   39.2526   21.3768   34.1553 H   0  0  0  0  0  0  0  0  0  0  0  0
   38.1548   23.0996   29.9853 H   0  0  0  0  0  0  0  0  0  0  0  0
   37.5118   24.5706   29.2073 H   0  0  0  0  0  0  0  0  0  0  0  0
   36.8247   28.3050   31.1556 H   0  0  0  0  0  0  0  0  0  0  0  0
   37.2540   29.5478   32.3352 H   0  0  0  0  0  0  0  0  0  0  0  0
   34.9080   29.8532   31.4605 H   0  0  0  0  0  0  0  0  0  0  0  0
   34.4951   28.2038   32.0712 H   0  0  0  0  0  0  0  0  0  0  0  0
   34.6587   30.6579   33.4088 H   0  0  0  0  0  0  0  0  0  0  0  0
   36.6261   30.1608   34.3282 H   0  0  0  0  0  0  0  0  0  0  0  0
   35.3350   29.5834   35.4879 H   0  0  0  0  0  0  0  0  0  0  0  0
   35.6534   27.3614   34.9092 H   0  0  0  0  0  0  0  0  0  0  0  0
   37.3038   28.0665   35.1212 H   0  0  0  0  0  0  0  0  0  0  0  0
  1  2  2  0
  3  2  1  0
  4  3  2  0
  5  4  1  0
  5  6  2  0
  6  1  1  0
  7  5  1  0
  8  7  1  0
  9  8  2  0
 10  9  1  0
 10 15  2  0
 11 12  2  0
 11 10  1  0
 12 13  1  0
 13 17  1  0
 13 14  2  0
 15 14  1  0
 15  7  1  0
 16 11  1  0
 17 22  1  0
 18 19  1  0
 18 17  1  0
 19 20  1  0
 20 21  1  0
 22 21  1  0
  1 23  1  0
  2 24  1  0
  3 25  1  0
  8 26  1  0
 16 27  1  0
 16 28  1  0
 18 29  1  0
 18 30  1  0
 19 31  1  0
 19 32  1  0
 20 33  1  0
 21 34  1  0
 21 35  1  0
 22 36  1  0
 22 37  1  0
M  ISO  8  23  14  24  14  25  14  26  14  29  13  30  13  31  13  32  13
M  ISO  5  33   5  34  13  35  13  36  13  37  13
M  END
>  <minimizedAffinity>  (1) 
-5.99785662

>  <minimizedRMSD>  (1) 
1.79803407

$$$$
