
     RDKit          3D

 30 33  0  0  0  0  0  0  0  0999 V2000
   39.7690   22.7370   37.9030 C   0  0  0  0  0  0  0  0  0  0  0  0
   38.8480   23.4460   38.6750 C   0  0  0  0  0  0  0  0  0  0  0  0
   37.8280   24.1540   38.0080 C   0  0  0  0  0  0  0  0  0  0  0  0
   37.8220   24.0880   36.6350 N   0  0  0  0  0  0  0  0  0  0  0  0
   38.7240   23.3960   35.9300 C   0  0  0  0  0  0  0  0  0  0  0  0
   39.6900   22.7270   36.5690 N   0  0  0  0  0  0  0  0  0  0  0  0
   38.5840   23.4250   34.5070 N   0  0  0  0  0  0  0  0  0  0  0  0
   38.9890   22.4180   33.6950 C   0  0  0  0  0  0  0  0  0  0  0  0
   38.7250   22.7340   32.4100 N   0  0  0  0  0  0  0  0  0  0  0  0
   38.1460   23.9480   32.3670 C   0  0  0  0  0  0  0  0  0  0  0  0
   37.6520   24.8110   31.3890 C   0  0  0  0  0  0  0  0  0  0  0  0
   37.1140   26.0060   31.7170 N   0  0  0  0  0  0  0  0  0  0  0  0
   37.0610   26.3580   33.0020 C   0  0  0  0  0  0  0  0  0  0  0  0
   37.5300   25.5510   33.9780 N   0  0  0  0  0  0  0  0  0  0  0  0
   38.0710   24.3560   33.6860 C   0  0  0  0  0  0  0  0  0  0  0  0
   37.7900   24.2730   30.0730 N   0  0  0  0  0  0  0  0  0  0  0  0
   36.5030   27.6090   33.3830 N   0  0  0  0  0  0  0  0  0  0  0  0
   35.8300   28.3170   32.4550 C   0  0  0  0  0  0  0  0  0  0  0  0
   35.4020   29.4790   33.1010 C   0  0  0  0  0  0  0  0  0  0  0  0
   35.8200   29.4540   34.3970 N   0  0  0  0  0  0  0  0  0  0  0  0
   36.5040   28.2870   34.5660 C   0  0  0  0  0  0  0  0  0  0  0  0
   40.5740   22.1766   38.4010 H   0  0  0  0  0  0  0  0  0  0  0  0
   38.9160   23.4522   39.7729 H   0  0  0  0  0  0  0  0  0  0  0  0
   37.0724   24.7321   38.5601 H   0  0  0  0  0  0  0  0  0  0  0  0
   39.4617   21.4839   34.0327 H   0  0  0  0  0  0  0  0  0  0  0  0
   38.2180   23.3459   29.9379 H   0  0  0  0  0  0  0  0  0  0  0  0
   37.4615   24.8121   29.2592 H   0  0  0  0  0  0  0  0  0  0  0  0
   35.6540   28.0377   31.4057 H   0  0  0  0  0  0  0  0  0  0  0  0
   34.8188   30.2875   32.6360 H   0  0  0  0  0  0  0  0  0  0  0  0
   36.9772   27.9491   35.4998 H   0  0  0  0  0  0  0  0  0  0  0  0
  1  2  2  0
  3  2  1  0
  4  3  2  0
  5  6  2  0
  5  4  1  0
  6  1  1  0
  7  5  1  0
  8  7  1  0
  9  8  2  0
 10  9  1  0
 10 15  2  0
 11 12  2  0
 11 10  1  0
 12 13  1  0
 13 17  1  0
 13 14  2  0
 15 14  1  0
 15  7  1  0
 16 11  1  0
 17 21  1  0
 18 19  2  0
 18 17  1  0
 19 20  1  0
 20 21  2  0
  1 22  1  0
  2 23  1  0
  3 24  1  0
  8 25  1  0
 16 26  1  0
 16 27  1  0
 18 28  1  0
 19 29  1  0
 21 30  1  0
M  ISO  7  22  14  23  14  24  14  25  14  28  14  29  14  30  14
M  END
>  <minimizedAffinity>  (1) 
-5.86919928

>  <minimizedRMSD>  (1) 
1.62256181

$$$$
