
     RDKit          3D

 38 41  0  0  0  0  0  0  0  0999 V2000
   39.8300   23.5520   35.9530 C   0  0  0  0  0  0  0  0  0  0  0  0
   38.9830   23.7230   37.0710 C   0  0  0  0  0  0  0  0  0  0  0  0
   37.8150   24.4720   36.9020 C   0  0  0  0  0  0  0  0  0  0  0  0
   37.5700   24.9920   35.6540 N   0  0  0  0  0  0  0  0  0  0  0  0
   38.3950   24.8110   34.6120 C   0  0  0  0  0  0  0  0  0  0  0  0
   39.5290   24.0860   34.7690 N   0  0  0  0  0  0  0  0  0  0  0  0
   38.0250   25.4020   33.3790 N   0  0  0  0  0  0  0  0  0  0  0  0
   38.3630   24.9070   32.1590 C   0  0  0  0  0  0  0  0  0  0  0  0
   37.8640   25.6900   31.1870 N   0  0  0  0  0  0  0  0  0  0  0  0
   37.1870   26.7170   31.7540 C   0  0  0  0  0  0  0  0  0  0  0  0
   36.4670   27.8280   31.3190 C   0  0  0  0  0  0  0  0  0  0  0  0
   35.9040   28.6750   32.1830 N   0  0  0  0  0  0  0  0  0  0  0  0
   36.0350   28.4480   33.5080 C   0  0  0  0  0  0  0  0  0  0  0  0
   36.7210   27.3890   33.9680 N   0  0  0  0  0  0  0  0  0  0  0  0
   37.3010   26.5160   33.1210 C   0  0  0  0  0  0  0  0  0  0  0  0
   36.4260   27.9190   29.8970 N   0  0  0  0  0  0  0  0  0  0  0  0
   35.4480   29.3310   34.4560 N   0  0  0  0  0  0  0  0  0  0  0  0
   36.2390   30.0460   35.4390 C   0  0  0  0  0  0  0  0  0  0  0  0
   35.9440   31.5090   35.3730 C   0  0  0  0  0  0  0  0  0  0  0  0
   34.4670   31.8030   35.4010 C   0  0  0  0  0  0  0  0  0  0  0  0
   33.7060   31.0120   34.3680 C   0  0  0  0  0  0  0  0  0  0  0  0
   34.0100   29.5290   34.4470 C   0  0  0  0  0  0  0  0  0  0  0  0
   40.7553   22.9672   36.0616 H   0  0  0  0  0  0  0  0  0  0  0  0
   39.2354   23.2798   38.0456 H   0  0  0  0  0  0  0  0  0  0  0  0
   37.1182   24.6389   37.7367 H   0  0  0  0  0  0  0  0  0  0  0  0
   38.9586   23.9975   31.9914 H   0  0  0  0  0  0  0  0  0  0  0  0
   35.9240   28.6965   29.4450 H   0  0  0  0  0  0  0  0  0  0  0  0
   36.8984   27.2072   29.3216 H   0  0  0  0  0  0  0  0  0  0  0  0
   35.9952   29.6711   36.4440 H   0  0  0  0  0  0  0  0  0  0  0  0
   37.3063   29.8850   35.2269 H   0  0  0  0  0  0  0  0  0  0  0  0
   36.3660   31.9119   34.4405 H   0  0  0  0  0  0  0  0  0  0  0  0
   36.3948   31.9805   36.2587 H   0  0  0  0  0  0  0  0  0  0  0  0
   34.0753   31.5520   36.3978 H   0  0  0  0  0  0  0  0  0  0  0  0
   34.3323   32.8707   35.1733 H   0  0  0  0  0  0  0  0  0  0  0  0
   33.9813   31.3776   33.3678 H   0  0  0  0  0  0  0  0  0  0  0  0
   32.6317   31.1481   34.5612 H   0  0  0  0  0  0  0  0  0  0  0  0
   33.5767   29.1142   35.3691 H   0  0  0  0  0  0  0  0  0  0  0  0
   33.5744   29.0179   33.5758 H   0  0  0  0  0  0  0  0  0  0  0  0
  1  2  2  0
  3  2  1  0
  4  3  2  0
  5  6  2  0
  5  4  1  0
  6  1  1  0
  7  5  1  0
  8  7  1  0
  9 10  1  0
  9  8  2  0
 10 15  2  0
 11 10  1  0
 11 12  2  0
 12 13  1  0
 13 14  2  0
 13 17  1  0
 15  7  1  0
 15 14  1  0
 16 11  1  0
 17 18  1  0
 19 20  1  0
 19 18  1  0
 21 22  1  0
 21 20  1  0
 22 17  1  0
  1 23  1  0
  2 24  1  0
  3 25  1  0
  8 26  1  0
 16 27  1  0
 16 28  1  0
 18 29  1  0
 18 30  1  0
 19 31  1  0
 19 32  1  0
 20 33  1  0
 20 34  1  0
 21 35  1  0
 21 36  1  0
 22 37  1  0
 22 38  1  0
M  ISO  8  23  14  24  14  25  14  26  14  29  13  30  13  31  13  32  13
M  ISO  6  33  13  34  13  35  13  36  13  37  13  38  13
M  END
>  <minimizedAffinity>  (1) 
-5.72089863

>  <minimizedRMSD>  (1) 
1.55088699

$$$$
