
     RDKit          3D

 29 32  0  0  0  0  0  0  0  0999 V2000
   39.7470   22.7770   37.9030 C   0  0  0  0  0  0  0  0  0  0  0  0
   38.8270   23.4990   38.6800 C   0  0  0  0  0  0  0  0  0  0  0  0
   37.8110   24.2040   38.0000 C   0  0  0  0  0  0  0  0  0  0  0  0
   37.7860   24.1390   36.6340 N   0  0  0  0  0  0  0  0  0  0  0  0
   38.6940   23.4300   35.9290 C   0  0  0  0  0  0  0  0  0  0  0  0
   39.6720   22.7510   36.5690 N   0  0  0  0  0  0  0  0  0  0  0  0
   38.5550   23.4460   34.5070 N   0  0  0  0  0  0  0  0  0  0  0  0
   38.9520   22.4050   33.7150 C   0  0  0  0  0  0  0  0  0  0  0  0
   38.6910   22.7160   32.4210 N   0  0  0  0  0  0  0  0  0  0  0  0
   38.1330   23.9390   32.3640 C   0  0  0  0  0  0  0  0  0  0  0  0
   37.6530   24.7910   31.3680 C   0  0  0  0  0  0  0  0  0  0  0  0
   37.1380   25.9920   31.6790 N   0  0  0  0  0  0  0  0  0  0  0  0
   37.0860   26.3730   32.9650 C   0  0  0  0  0  0  0  0  0  0  0  0
   37.5370   25.5810   33.9620 N   0  0  0  0  0  0  0  0  0  0  0  0
   38.0580   24.3710   33.6780 C   0  0  0  0  0  0  0  0  0  0  0  0
   37.7870   24.2290   30.0660 N   0  0  0  0  0  0  0  0  0  0  0  0
   36.5380   27.6510   33.3020 N   0  0  0  0  0  0  0  0  0  0  0  0
   36.4080   28.2130   34.5130 C   0  0  0  0  0  0  0  0  0  0  0  0
   35.8370   29.4400   34.3890 N   0  0  0  0  0  0  0  0  0  0  0  0
   35.6090   29.6360   33.0780 C   0  0  0  0  0  0  0  0  0  0  0  0
   36.0420   28.5420   32.4410 N   0  0  0  0  0  0  0  0  0  0  0  0
   40.5504   22.2182   38.4054 H   0  0  0  0  0  0  0  0  0  0  0  0
   38.8956   23.5146   39.7777 H   0  0  0  0  0  0  0  0  0  0  0  0
   37.0609   24.7888   38.5526 H   0  0  0  0  0  0  0  0  0  0  0  0
   39.4082   21.4688   34.0691 H   0  0  0  0  0  0  0  0  0  0  0  0
   38.2001   23.2927   29.9492 H   0  0  0  0  0  0  0  0  0  0  0  0
   37.4708   24.7589   29.2413 H   0  0  0  0  0  0  0  0  0  0  0  0
   36.7167   27.7509   35.4623 H   0  0  0  0  0  0  0  0  0  0  0  0
   35.1538   30.5253   32.6177 H   0  0  0  0  0  0  0  0  0  0  0  0
  1  2  2  0
  3  2  1  0
  4  3  2  0
  5  6  2  0
  5  4  1  0
  6  1  1  0
  7  5  1  0
  8  7  1  0
  9  8  2  0
 10  9  1  0
 10 15  2  0
 11 12  2  0
 11 10  1  0
 12 13  1  0
 13 17  1  0
 13 14  2  0
 15 14  1  0
 15  7  1  0
 16 11  1  0
 17 18  1  0
 19 18  2  0
 20 19  1  0
 21 20  2  0
 21 17  1  0
  1 22  1  0
  2 23  1  0
  3 24  1  0
  8 25  1  0
 16 26  1  0
 16 27  1  0
 18 28  1  0
 20 29  1  0
M  ISO  6  22  14  23  14  24  14  25  14  28  14  29  14
M  END
>  <minimizedAffinity>  (1) 
-5.86440325

>  <minimizedRMSD>  (1) 
1.63758218

$$$$
