
     RDKit          3D

 31 34  0  0  0  0  0  0  0  0999 V2000
   39.7070   22.8210   37.8720 C   0  0  0  0  0  0  0  0  0  0  0  0
   38.7330   23.5020   38.6020 C   0  0  0  0  0  0  0  0  0  0  0  0
   37.7220   24.1370   37.8830 C   0  0  0  0  0  0  0  0  0  0  0  0
   37.7570   24.0460   36.5070 N   0  0  0  0  0  0  0  0  0  0  0  0
   38.7240   23.3720   35.8430 C   0  0  0  0  0  0  0  0  0  0  0  0
   39.7150   22.7480   36.5240 N   0  0  0  0  0  0  0  0  0  0  0  0
   38.6220   23.3680   34.4290 N   0  0  0  0  0  0  0  0  0  0  0  0
   39.0820   22.3360   33.6580 C   0  0  0  0  0  0  0  0  0  0  0  0
   38.8520   22.6060   32.3520 N   0  0  0  0  0  0  0  0  0  0  0  0
   38.2450   23.8120   32.2650 C   0  0  0  0  0  0  0  0  0  0  0  0
   37.7620   24.6380   31.2400 C   0  0  0  0  0  0  0  0  0  0  0  0
   37.1900   25.8240   31.5140 N   0  0  0  0  0  0  0  0  0  0  0  0
   37.0910   26.2100   32.7870 C   0  0  0  0  0  0  0  0  0  0  0  0
   37.5400   25.4530   33.8030 N   0  0  0  0  0  0  0  0  0  0  0  0
   38.1140   24.2680   33.5710 C   0  0  0  0  0  0  0  0  0  0  0  0
   37.9590   24.0520   29.9460 N   0  0  0  0  0  0  0  0  0  0  0  0
   36.4720   27.4970   33.0880 C   0  0  0  0  0  0  0  0  0  0  0  0
   36.5390   28.0760   34.3370 C   0  0  0  0  0  0  0  0  0  0  0  0
   35.9660   29.2790   34.6300 C   0  0  0  0  0  0  0  0  0  0  0  0
   35.3000   29.9270   33.6400 N   0  0  0  0  0  0  0  0  0  0  0  0
   35.2320   29.3680   32.4270 C   0  0  0  0  0  0  0  0  0  0  0  0
   35.8010   28.1830   32.1460 N   0  0  0  0  0  0  0  0  0  0  0  0
   40.5127   22.3158   38.4249 H   0  0  0  0  0  0  0  0  0  0  0  0
   38.7617   23.5365   39.7011 H   0  0  0  0  0  0  0  0  0  0  0  0
   36.9227   24.6923   38.3957 H   0  0  0  0  0  0  0  0  0  0  0  0
   39.5653   21.4252   34.0412 H   0  0  0  0  0  0  0  0  0  0  0  0
   38.4126   23.1311   29.8613 H   0  0  0  0  0  0  0  0  0  0  0  0
   37.6469   24.5520   29.1013 H   0  0  0  0  0  0  0  0  0  0  0  0
   37.0791   27.5439   35.1339 H   0  0  0  0  0  0  0  0  0  0  0  0
   36.0414   29.7113   35.6387 H   0  0  0  0  0  0  0  0  0  0  0  0
   34.6903   29.8976   31.6295 H   0  0  0  0  0  0  0  0  0  0  0  0
  1  2  2  0
  3  2  1  0
  4  3  2  0
  5  4  1  0
  5  6  2  0
  6  1  1  0
  7  5  1  0
  8  7  1  0
  9  8  2  0
 10  9  1  0
 10 15  2  0
 11 12  2  0
 11 10  1  0
 12 13  1  0
 13 17  1  0
 13 14  2  0
 15 14  1  0
 15  7  1  0
 16 11  1  0
 17 18  2  0
 18 19  1  0
 20 19  2  0
 21 20  1  0
 22 21  2  0
 22 17  1  0
  1 23  1  0
  2 24  1  0
  3 25  1  0
  8 26  1  0
 16 27  1  0
 16 28  1  0
 18 29  1  0
 19 30  1  0
 21 31  1  0
M  ISO  7  23  14  24  14  25  14  26  14  29  14  30  14  31  14
M  END
>  <minimizedAffinity>  (1) 
-5.6850605

>  <minimizedRMSD>  (1) 
1.90682268

$$$$
