
     RDKit          3D

 26 28  0  0  0  0  0  0  0  0999 V2000
   39.7060   22.8390   37.7320 C   0  0  0  0  0  0  0  0  0  0  0  0
   38.9210   23.4570   38.7170 C   0  0  0  0  0  0  0  0  0  0  0  0
   37.8820   24.2970   38.2880 C   0  0  0  0  0  0  0  0  0  0  0  0
   37.6940   24.4650   36.9370 N   0  0  0  0  0  0  0  0  0  0  0  0
   38.4840   23.8430   36.0270 C   0  0  0  0  0  0  0  0  0  0  0  0
   39.4760   23.0400   36.4390 N   0  0  0  0  0  0  0  0  0  0  0  0
   38.1660   24.1120   34.6640 N   0  0  0  0  0  0  0  0  0  0  0  0
   38.3980   23.1930   33.6710 C   0  0  0  0  0  0  0  0  0  0  0  0
   38.0010   23.7110   32.4850 N   0  0  0  0  0  0  0  0  0  0  0  0
   37.5130   24.9570   32.6940 C   0  0  0  0  0  0  0  0  0  0  0  0
   36.9630   25.9940   31.9260 C   0  0  0  0  0  0  0  0  0  0  0  0
   36.5690   27.1440   32.4770 N   0  0  0  0  0  0  0  0  0  0  0  0
   36.7010   27.3100   33.8020 C   0  0  0  0  0  0  0  0  0  0  0  0
   37.2250   26.3410   34.5850 N   0  0  0  0  0  0  0  0  0  0  0  0
   37.6300   25.1760   34.0590 C   0  0  0  0  0  0  0  0  0  0  0  0
   36.9010   25.6340   30.5480 N   0  0  0  0  0  0  0  0  0  0  0  0
   36.2500   28.6060   34.3760 C   0  0  0  0  0  0  0  0  0  0  0  0
   34.9410   28.5820   34.7960 F   0  0  0  0  0  0  0  0  0  0  0  0
   36.3900   29.5780   33.3850 F   0  0  0  0  0  0  0  0  0  0  0  0
   37.0450   28.9860   35.4290 F   0  0  0  0  0  0  0  0  0  0  0  0
   40.5283   22.1748   38.0363 H   0  0  0  0  0  0  0  0  0  0  0  0
   39.1131   23.2891   39.7870 H   0  0  0  0  0  0  0  0  0  0  0  0
   37.2340   24.8084   39.0151 H   0  0  0  0  0  0  0  0  0  0  0  0
   38.8366   22.1947   33.8159 H   0  0  0  0  0  0  0  0  0  0  0  0
   37.2383   24.7104   30.2413 H   0  0  0  0  0  0  0  0  0  0  0  0
   36.5189   26.2975   29.8591 H   0  0  0  0  0  0  0  0  0  0  0  0
  1  2  2  0
  3  2  1  0
  4  3  2  0
  5  6  2  0
  5  4  1  0
  6  1  1  0
  7  5  1  0
  8  7  1  0
  9 10  1  0
  9  8  2  0
 10 15  2  0
 11 12  2  0
 11 10  1  0
 12 13  1  0
 13 17  1  0
 13 14  2  0
 15 14  1  0
 15  7  1  0
 16 11  1  0
 17 18  1  0
 17 20  1  0
 19 17  1  0
  1 21  1  0
  2 22  1  0
  3 23  1  0
  8 24  1  0
 16 25  1  0
 16 26  1  0
M  ISO  4  21  14  22  14  23  14  24  14
M  END
>  <minimizedAffinity>  (1) 
-5.57842016

>  <minimizedRMSD>  (1) 
0.503325224

$$$$
