
     RDKit          3D

 34 35  0  0  0  0  0  0  0  0999 V2000
   38.6440   23.6230   36.8970 C   0  0  0  0  0  0  0  0  0  0  0  0
   41.8960   21.7480   36.8830 C   0  0  0  0  0  0  0  0  0  0  0  0
   40.5830   22.0660   37.2000 C   0  0  0  0  0  0  0  0  0  0  0  0
   40.0060   23.2080   36.6220 C   0  0  0  0  0  0  0  0  0  0  0  0
   40.7600   23.9530   35.7740 N   0  0  0  0  0  0  0  0  0  0  0  0
   42.0380   23.6210   35.4810 C   0  0  0  0  0  0  0  0  0  0  0  0
   42.6030   22.5220   36.0350 N   0  0  0  0  0  0  0  0  0  0  0  0
   42.4750   20.5360   37.5370 C   0  0  0  0  0  0  0  0  0  0  0  0
   43.2070   19.6660   36.5760 C   0  0  0  0  0  0  0  0  0  0  0  0
   38.3890   23.4170   38.3860 C   0  0  0  0  0  0  0  0  0  0  0  0
   38.3270   25.0450   36.5090 C   0  0  0  0  0  0  0  0  0  0  0  0
   37.6810   22.7230   36.1360 C   0  0  0  0  0  0  0  0  0  0  0  0
   37.9460   22.7110   34.7310 N   0  0  0  0  0  0  0  0  0  0  0  0
   38.4750   21.7330   33.9440 C   0  0  0  0  0  0  0  0  0  0  0  0
   38.5390   22.1740   32.6570 N   0  0  0  0  0  0  0  0  0  0  0  0
   38.0480   23.4220   32.6530 C   0  0  0  0  0  0  0  0  0  0  0  0
   37.6960   23.7290   33.9070 N   0  0  0  0  0  0  0  0  0  0  0  0
   40.0050   21.4351   37.8913 H   0  0  0  0  0  0  0  0  0  0  0  0
   42.6213   24.2467   34.7894 H   0  0  0  0  0  0  0  0  0  0  0  0
   43.1731   20.8587   38.3234 H   0  0  0  0  0  0  0  0  0  0  0  0
   41.6422   19.9495   37.9522 H   0  0  0  0  0  0  0  0  0  0  0  0
   43.8183   18.9395   37.1314 H   0  0  0  0  0  0  0  0  0  0  0  0
   42.4845   19.1296   35.9433 H   0  0  0  0  0  0  0  0  0  0  0  0
   43.8590   20.2861   35.9433 H   0  0  0  0  0  0  0  0  0  0  0  0
   39.1155   24.0039   38.9671 H   0  0  0  0  0  0  0  0  0  0  0  0
   37.3693   23.7479   38.6326 H   0  0  0  0  0  0  0  0  0  0  0  0
   38.4981   22.3506   38.6326 H   0  0  0  0  0  0  0  0  0  0  0  0
   38.1918   25.6513   37.4168 H   0  0  0  0  0  0  0  0  0  0  0  0
   39.1556   25.4560   35.9136 H   0  0  0  0  0  0  0  0  0  0  0  0
   37.4023   25.0652   35.9136 H   0  0  0  0  0  0  0  0  0  0  0  0
   37.7747   21.6974   36.5226 H   0  0  0  0  0  0  0  0  0  0  0  0
   36.6644   23.1163   36.2837 H   0  0  0  0  0  0  0  0  0  0  0  0
   38.7998   20.7418   34.2934 H   0  0  0  0  0  0  0  0  0  0  0  0
   37.9517   24.0771   31.7746 H   0  0  0  0  0  0  0  0  0  0  0  0
  1 10  1  0
  2  3  2  0
  2  8  1  0
  4  1  1  0
  4  3  1  0
  5  4  2  0
  6  5  1  0
  6  7  2  0
  7  2  1  0
  9  8  1  0
 11  1  1  0
 12  1  1  0
 13 12  1  0
 14 13  1  0
 15 14  2  0
 16 15  1  0
 16 17  2  0
 17 13  1  0
  3 18  1  0
  6 19  1  0
  8 20  1  0
  8 21  1  0
  9 22  1  0
  9 23  1  0
  9 24  1  0
 10 25  1  0
 10 26  1  0
 10 27  1  0
 11 28  1  0
 11 29  1  0
 11 30  1  0
 12 31  1  0
 12 32  1  0
 14 33  1  0
 16 34  1  0
M  ISO  8  18  14  19  14  20   8  21   8  22   8  23   8  24   8  25   8
M  ISO  8  26   8  27   8  28   8  29   8  30   8  31   8  32   8  33  14
M  ISO  1  34  14
M  END
>  <minimizedAffinity>  (1) 
-3.84742284

>  <minimizedRMSD>  (1) 
1.35232842

$$$$
