
     RDKit          3D

 32 34  0  0  0  0  0  0  0  0999 V2000
   39.5820   22.8220   37.9410 C   0  0  0  0  0  0  0  0  0  0  0  0
   38.7440   23.6610   38.6770 C   0  0  0  0  0  0  0  0  0  0  0  0
   37.8140   24.4350   37.9700 C   0  0  0  0  0  0  0  0  0  0  0  0
   37.7810   24.3210   36.5960 N   0  0  0  0  0  0  0  0  0  0  0  0
   38.6200   23.4890   35.9330 C   0  0  0  0  0  0  0  0  0  0  0  0
   39.5160   22.7440   36.6060 N   0  0  0  0  0  0  0  0  0  0  0  0
   38.4860   23.4650   34.5220 N   0  0  0  0  0  0  0  0  0  0  0  0
   38.7670   22.3710   33.7630 C   0  0  0  0  0  0  0  0  0  0  0  0
   38.5440   22.6520   32.4540 N   0  0  0  0  0  0  0  0  0  0  0  0
   38.1180   23.9230   32.3500 C   0  0  0  0  0  0  0  0  0  0  0  0
   37.7310   24.7910   31.3250 C   0  0  0  0  0  0  0  0  0  0  0  0
   37.3450   26.0540   31.5860 N   0  0  0  0  0  0  0  0  0  0  0  0
   37.3350   26.4730   32.8500 C   0  0  0  0  0  0  0  0  0  0  0  0
   37.6950   25.6870   33.8760 N   0  0  0  0  0  0  0  0  0  0  0  0
   38.0870   24.4160   33.6450 C   0  0  0  0  0  0  0  0  0  0  0  0
   37.8070   24.1620   30.0390 N   0  0  0  0  0  0  0  0  0  0  0  0
   36.9150   27.8570   33.1760 C   0  0  0  0  0  0  0  0  0  0  0  0
   35.6960   28.2860   32.3990 C   0  0  0  0  0  0  0  0  0  0  0  0
   36.6180   28.0240   34.6650 C   0  0  0  0  0  0  0  0  0  0  0  0
   40.3201   22.2052   38.4746 H   0  0  0  0  0  0  0  0  0  0  0  0
   38.8112   23.7129   39.7737 H   0  0  0  0  0  0  0  0  0  0  0  0
   37.1287   25.1153   38.4969 H   0  0  0  0  0  0  0  0  0  0  0  0
   39.1213   21.4049   34.1517 H   0  0  0  0  0  0  0  0  0  0  0  0
   38.1187   23.1833   29.9620 H   0  0  0  0  0  0  0  0  0  0  0  0
   37.5499   24.6888   29.1921 H   0  0  0  0  0  0  0  0  0  0  0  0
   37.7654   28.4947   32.8928 H   0  0  0  0  0  0  0  0  0  0  0  0
   34.8955   28.5677   33.0989 H   0  0  0  0  0  0  0  0  0  0  0  0
   35.9498   29.1488   31.7657 H   0  0  0  0  0  0  0  0  0  0  0  0
   35.3535   27.4544   31.7657 H   0  0  0  0  0  0  0  0  0  0  0  0
   37.4279   27.5686   35.2538 H   0  0  0  0  0  0  0  0  0  0  0  0
   36.5463   29.0947   34.9068 H   0  0  0  0  0  0  0  0  0  0  0  0
   35.6659   27.5290   34.9068 H   0  0  0  0  0  0  0  0  0  0  0  0
  1  2  2  0
  3  2  1  0
  4  3  2  0
  5  4  1  0
  5  6  2  0
  6  1  1  0
  7  5  1  0
  8  7  1  0
  9  8  2  0
 10  9  1  0
 10 15  2  0
 11 12  2  0
 11 10  1  0
 12 13  1  0
 13 17  1  0
 13 14  2  0
 15 14  1  0
 15  7  1  0
 16 11  1  0
 17 19  1  0
 18 17  1  0
  1 20  1  0
  2 21  1  0
  3 22  1  0
  8 23  1  0
 16 24  1  0
 16 25  1  0
 17 26  1  0
 18 27  1  0
 18 28  1  0
 18 29  1  0
 19 30  1  0
 19 31  1  0
 19 32  1  0
M  ISO  8  20  14  21  14  22  14  23  14  26   8  27   8  28   8  29   8
M  ISO  3  30   8  31   8  32   8
M  END
>  <minimizedAffinity>  (1) 
-5.25899839

>  <minimizedRMSD>  (1) 
1.65162718

$$$$
