
     RDKit          3D

 25 27  0  0  0  0  0  0  0  0999 V2000
   39.7080   22.7880   37.7560 C   0  0  0  0  0  0  0  0  0  0  0  0
   38.9460   23.4060   38.7480 C   0  0  0  0  0  0  0  0  0  0  0  0
   37.9060   24.2670   38.3320 C   0  0  0  0  0  0  0  0  0  0  0  0
   37.7160   24.4370   36.9810 N   0  0  0  0  0  0  0  0  0  0  0  0
   38.4860   23.8120   36.0580 C   0  0  0  0  0  0  0  0  0  0  0  0
   39.4660   23.0000   36.4660 N   0  0  0  0  0  0  0  0  0  0  0  0
   38.1640   24.0900   34.7020 N   0  0  0  0  0  0  0  0  0  0  0  0
   38.3720   23.1680   33.7070 C   0  0  0  0  0  0  0  0  0  0  0  0
   37.9760   23.7040   32.5240 N   0  0  0  0  0  0  0  0  0  0  0  0
   37.5190   24.9480   32.7430 C   0  0  0  0  0  0  0  0  0  0  0  0
   36.9860   26.0000   31.9780 C   0  0  0  0  0  0  0  0  0  0  0  0
   36.6170   27.1580   32.5400 N   0  0  0  0  0  0  0  0  0  0  0  0
   36.7610   27.3160   33.8580 C   0  0  0  0  0  0  0  0  0  0  0  0
   37.2690   26.3390   34.6420 N   0  0  0  0  0  0  0  0  0  0  0  0
   37.6450   25.1700   34.1030 C   0  0  0  0  0  0  0  0  0  0  0  0
   36.9070   25.6490   30.5930 N   0  0  0  0  0  0  0  0  0  0  0  0
   36.3660   28.5700   34.4900 C   0  0  0  0  0  0  0  0  0  0  0  0
   35.2200   29.0680   34.3420 O   0  0  0  0  0  0  0  0  0  0  0  0
   40.5254   22.1118   38.0470 H   0  0  0  0  0  0  0  0  0  0  0  0
   39.1476   23.2293   39.8148 H   0  0  0  0  0  0  0  0  0  0  0  0
   37.2693   24.7843   39.0648 H   0  0  0  0  0  0  0  0  0  0  0  0
   38.7908   22.1603   33.8452 H   0  0  0  0  0  0  0  0  0  0  0  0
   37.2240   24.7210   30.2780 H   0  0  0  0  0  0  0  0  0  0  0  0
   36.5332   26.3244   29.9111 H   0  0  0  0  0  0  0  0  0  0  0  0
   37.0967   29.0996   35.1189 H   0  0  0  0  0  0  0  0  0  0  0  0
  1  2  2  0
  3  2  1  0
  4  3  2  0
  5  6  2  0
  5  4  1  0
  6  1  1  0
  7  5  1  0
  8  7  1  0
  9 10  1  0
  9  8  2  0
 10 15  2  0
 11 12  2  0
 11 10  1  0
 12 13  1  0
 13 17  1  0
 13 14  2  0
 15 14  1  0
 15  7  1  0
 16 11  1  0
 18 17  2  0
  1 19  1  0
  2 20  1  0
  3 21  1  0
  8 22  1  0
 16 23  1  0
 16 24  1  0
 17 25  1  0
M  ISO  5  19  14  20  14  21  14  22  14  25   6
M  END
>  <minimizedAffinity>  (1) 
-5.07696629

>  <minimizedRMSD>  (1) 
0.461875319

$$$$
