
     RDKit          3D

 29 31  0  0  0  0  0  0  0  0999 V2000
   39.7190   22.8130   37.6480 C   0  0  0  0  0  0  0  0  0  0  0  0
   38.9450   23.3910   38.6820 C   0  0  0  0  0  0  0  0  0  0  0  0
   37.9130   24.2670   38.3250 C   0  0  0  0  0  0  0  0  0  0  0  0
   37.7320   24.5000   36.9860 N   0  0  0  0  0  0  0  0  0  0  0  0
   38.4780   23.9400   36.0290 C   0  0  0  0  0  0  0  0  0  0  0  0
   39.4800   23.0900   36.3550 N   0  0  0  0  0  0  0  0  0  0  0  0
   38.1750   24.2730   34.6820 N   0  0  0  0  0  0  0  0  0  0  0  0
   38.3890   23.4270   33.6280 C   0  0  0  0  0  0  0  0  0  0  0  0
   38.0060   24.0210   32.4870 N   0  0  0  0  0  0  0  0  0  0  0  0
   37.5350   25.2650   32.7740 C   0  0  0  0  0  0  0  0  0  0  0  0
   37.0090   26.3360   32.0570 C   0  0  0  0  0  0  0  0  0  0  0  0
   36.6300   27.4550   32.6770 N   0  0  0  0  0  0  0  0  0  0  0  0
   36.7590   27.5450   34.0210 C   0  0  0  0  0  0  0  0  0  0  0  0
   37.2630   26.5280   34.7450 N   0  0  0  0  0  0  0  0  0  0  0  0
   37.6520   25.3960   34.1510 C   0  0  0  0  0  0  0  0  0  0  0  0
   36.9420   26.0750   30.6550 N   0  0  0  0  0  0  0  0  0  0  0  0
   36.3400   28.7860   34.7270 C   0  0  0  0  0  0  0  0  0  0  0  0
   35.1730   29.4200   33.9900 C   0  0  0  0  0  0  0  0  0  0  0  0
   40.5342   22.1218   37.9083 H   0  0  0  0  0  0  0  0  0  0  0  0
   39.1487   23.1583   39.7376 H   0  0  0  0  0  0  0  0  0  0  0  0
   37.2767   24.7462   39.0836 H   0  0  0  0  0  0  0  0  0  0  0  0
   38.8108   22.4140   33.7043 H   0  0  0  0  0  0  0  0  0  0  0  0
   37.2646   25.1701   30.2836 H   0  0  0  0  0  0  0  0  0  0  0  0
   36.5711   26.7916   30.0149 H   0  0  0  0  0  0  0  0  0  0  0  0
   36.0335   28.5377   35.7538 H   0  0  0  0  0  0  0  0  0  0  0  0
   37.1823   29.4929   34.7558 H   0  0  0  0  0  0  0  0  0  0  0  0
   34.4491   29.8133   34.7189 H   0  0  0  0  0  0  0  0  0  0  0  0
   35.5411   30.2421   33.3587 H   0  0  0  0  0  0  0  0  0  0  0  0
   34.6836   28.6637   33.3587 H   0  0  0  0  0  0  0  0  0  0  0  0
  1  2  2  0
  3  2  1  0
  4  3  2  0
  5  6  2  0
  5  4  1  0
  6  1  1  0
  7  5  1  0
  8  7  1  0
  9 10  1  0
  9  8  2  0
 10 15  2  0
 11 12  2  0
 11 10  1  0
 12 13  1  0
 13 17  1  0
 13 14  2  0
 15  7  1  0
 15 14  1  0
 16 11  1  0
 18 17  1  0
  1 19  1  0
  2 20  1  0
  3 21  1  0
  8 22  1  0
 16 23  1  0
 16 24  1  0
 17 25  1  0
 17 26  1  0
 18 27  1  0
 18 28  1  0
 18 29  1  0
M  ISO  8  19  14  20  14  21  14  22  14  25   8  26   8  27   8  28   8
M  ISO  1  29   8
M  END
>  <minimizedAffinity>  (1) 
-5.28066826

>  <minimizedRMSD>  (1) 
0.176719129

$$$$
