
     RDKit          3D

 30 33  0  0  0  0  0  0  0  0999 V2000
   36.9820   26.3290   32.6250 C   0  0  0  0  0  0  0  0  0  0  0  0
   37.5490   25.2570   33.3440 C   0  0  0  0  0  0  0  0  0  0  0  0
   37.7990   25.4350   34.6920 C   0  0  0  0  0  0  0  0  0  0  0  0
   37.4830   26.6410   35.2570 N   0  0  0  0  0  0  0  0  0  0  0  0
   36.9420   27.6450   34.5440 C   0  0  0  0  0  0  0  0  0  0  0  0
   36.6910   27.4890   33.2230 N   0  0  0  0  0  0  0  0  0  0  0  0
   38.3630   24.3770   35.4160 N   0  0  0  0  0  0  0  0  0  0  0  0
   37.8380   23.3280   36.1130 C   0  0  0  0  0  0  0  0  0  0  0  0
   38.8330   22.5710   36.6420 N   0  0  0  0  0  0  0  0  0  0  0  0
   40.0160   23.1480   36.2770 C   0  0  0  0  0  0  0  0  0  0  0  0
   41.3110   22.7430   36.5740 C   0  0  0  0  0  0  0  0  0  0  0  0
   41.6050   21.7490   37.2510 O   0  0  0  0  0  0  0  0  0  0  0  0
   42.3280   23.4850   36.0940 N   0  0  0  0  0  0  0  0  0  0  0  0
   42.0490   24.5880   35.3450 C   0  0  0  0  0  0  0  0  0  0  0  0
   43.0650   25.4390   34.7910 N   0  0  0  0  0  0  0  0  0  0  0  0
   40.7680   24.9430   35.0810 N   0  0  0  0  0  0  0  0  0  0  0  0
   39.7070   24.2630   35.5190 C   0  0  0  0  0  0  0  0  0  0  0  0
   37.8190   24.0780   32.6230 N   0  0  0  0  0  0  0  0  0  0  0  0
   38.9010   23.6260   31.9440 C   0  0  0  0  0  0  0  0  0  0  0  0
   38.6510   22.4090   31.4170 N   0  0  0  0  0  0  0  0  0  0  0  0
   37.3700   22.0950   31.7810 C   0  0  0  0  0  0  0  0  0  0  0  0
   36.8870   23.1250   32.5120 N   0  0  0  0  0  0  0  0  0  0  0  0
   36.7750   26.2088   31.5514 H   0  0  0  0  0  0  0  0  0  0  0  0
   36.7021   28.5985   35.0373 H   0  0  0  0  0  0  0  0  0  0  0  0
   36.7632   23.1249   36.2295 H   0  0  0  0  0  0  0  0  0  0  0  0
   43.3041   23.2215   36.2909 H   0  0  0  0  0  0  0  0  0  0  0  0
   42.7989   26.2616   34.2313 H   0  0  0  0  0  0  0  0  0  0  0  0
   44.0597   25.2266   34.9535 H   0  0  0  0  0  0  0  0  0  0  0  0
   39.8491   24.1736   31.8374 H   0  0  0  0  0  0  0  0  0  0  0  0
   36.8303   21.1713   31.5251 H   0  0  0  0  0  0  0  0  0  0  0  0
  1  6  2  0
  1  2  1  0
  2  3  2  0
  3  4  1  0
  3  7  1  0
  5  4  2  0
  6  5  1  0
  7 17  1  0
  7  8  1  0
  8  9  2  0
 10 11  1  0
 10  9  1  0
 11 12  2  0
 13 11  1  0
 14 13  1  0
 15 14  1  0
 16 14  2  0
 16 17  1  0
 17 10  2  0
 18  2  1  0
 19 18  1  0
 20 21  1  0
 20 19  2  0
 21 22  2  0
 22 18  1  0
  1 23  1  0
  5 24  1  0
  8 25  1  0
 13 26  1  0
 15 27  1  0
 15 28  1  0
 19 29  1  0
 21 30  1  0
M  ISO  6  23  14  24  14  25  14  26   9  29  14  30  14
M  END
>  <minimizedAffinity>  (1) 
-4.59985924

>  <minimizedRMSD>  (1) 
5.12442684

$$$$
