
     RDKit          3D

 32 34  0  0  0  0  0  0  0  0999 V2000
   37.4250   23.8590   37.1300 C   0  0  0  0  0  0  0  0  0  0  0  0
   38.4060   23.2010   36.3510 C   0  0  0  0  0  0  0  0  0  0  0  0
   39.5850   22.8140   36.9600 C   0  0  0  0  0  0  0  0  0  0  0  0
   39.7700   23.0720   38.2800 N   0  0  0  0  0  0  0  0  0  0  0  0
   38.8090   23.7050   39.0030 C   0  0  0  0  0  0  0  0  0  0  0  0
   37.6440   24.0960   38.4280 N   0  0  0  0  0  0  0  0  0  0  0  0
   38.0890   22.9950   35.0000 N   0  0  0  0  0  0  0  0  0  0  0  0
   38.2390   23.7390   33.8830 C   0  0  0  0  0  0  0  0  0  0  0  0
   37.7600   23.0930   32.8080 N   0  0  0  0  0  0  0  0  0  0  0  0
   37.2880   21.8940   33.2670 C   0  0  0  0  0  0  0  0  0  0  0  0
   37.5000   21.8610   34.5950 N   0  0  0  0  0  0  0  0  0  0  0  0
   40.6570   22.1310   36.2230 C   0  0  0  0  0  0  0  0  0  0  0  0
   41.5860   23.0400   35.4720 C   0  0  0  0  0  0  0  0  0  0  0  0
   42.2980   22.2100   34.4240 C   0  0  0  0  0  0  0  0  0  0  0  0
   42.9840   21.0740   35.1350 C   0  0  0  0  0  0  0  0  0  0  0  0
   42.9400   21.1790   36.6340 C   0  0  0  0  0  0  0  0  0  0  0  0
   41.5470   21.3200   37.1740 C   0  0  0  0  0  0  0  0  0  0  0  0
   36.4793   24.1766   36.6666 H   0  0  0  0  0  0  0  0  0  0  0  0
   38.9784   23.9035   40.0716 H   0  0  0  0  0  0  0  0  0  0  0  0
   38.6930   24.7406   33.8574 H   0  0  0  0  0  0  0  0  0  0  0  0
   36.8212   21.1028   32.6619 H   0  0  0  0  0  0  0  0  0  0  0  0
   40.1127   21.5026   35.5027 H   0  0  0  0  0  0  0  0  0  0  0  0
   41.0124   23.8435   34.9869 H   0  0  0  0  0  0  0  0  0  0  0  0
   42.3130   23.4989   36.1582 H   0  0  0  0  0  0  0  0  0  0  0  0
   43.0412   22.8269   33.8976 H   0  0  0  0  0  0  0  0  0  0  0  0
   41.5823   21.8265   33.6819 H   0  0  0  0  0  0  0  0  0  0  0  0
   42.4949   20.1342   34.8390 H   0  0  0  0  0  0  0  0  0  0  0  0
   44.0441   21.1081   34.8433 H   0  0  0  0  0  0  0  0  0  0  0  0
   43.3910   20.2715   37.0618 H   0  0  0  0  0  0  0  0  0  0  0  0
   43.4941   22.0866   36.9155 H   0  0  0  0  0  0  0  0  0  0  0  0
   41.5904   21.8315   38.1469 H   0  0  0  0  0  0  0  0  0  0  0  0
   41.1137   20.3146   37.2804 H   0  0  0  0  0  0  0  0  0  0  0  0
  1  6  2  0
  2  3  2  0
  2  1  1  0
  3  4  1  0
  4  5  2  0
  6  5  1  0
  7  2  1  0
  8  7  1  0
  9 10  1  0
  9  8  2  0
 10 11  2  0
 11  7  1  0
 12  3  1  0
 12 17  1  0
 13 12  1  0
 14 15  1  0
 14 13  1  0
 15 16  1  0
 16 17  1  0
  1 18  1  0
  5 19  1  0
  8 20  1  0
 10 21  1  0
 12 22  1  0
 13 23  1  0
 13 24  1  0
 14 25  1  0
 14 26  1  0
 15 27  1  0
 15 28  1  0
 16 29  1  0
 16 30  1  0
 17 31  1  0
 17 32  1  0
M  ISO  8  18  14  19  14  20  14  21  14  22  13  23  13  24  13  25  13
M  ISO  7  26  13  27  13  28  13  29  13  30  13  31  13  32  13
M  END
>  <minimizedAffinity>  (1) 
-4.23970509

>  <minimizedRMSD>  (1) 
1.52914953

$$$$
