
     RDKit          3D

 30 33  0  0  0  0  0  0  0  0999 V2000
   38.5150   24.3790   36.3330 C   0  0  0  0  0  0  0  0  0  0  0  0
   39.7370   23.8240   35.9150 C   0  0  0  0  0  0  0  0  0  0  0  0
   40.4610   23.0170   36.7760 C   0  0  0  0  0  0  0  0  0  0  0  0
   39.9360   22.7960   38.0230 N   0  0  0  0  0  0  0  0  0  0  0  0
   38.7620   23.3350   38.4130 C   0  0  0  0  0  0  0  0  0  0  0  0
   38.0640   24.1190   37.5660 N   0  0  0  0  0  0  0  0  0  0  0  0
   41.7040   22.4450   36.3390 C   0  0  0  0  0  0  0  0  0  0  0  0
   41.9710   21.2230   35.7510 C   0  0  0  0  0  0  0  0  0  0  0  0
   43.2790   21.0390   35.4770 N   0  0  0  0  0  0  0  0  0  0  0  0
   43.8940   22.1570   35.8880 C   0  0  0  0  0  0  0  0  0  0  0  0
   45.2570   22.4590   35.8250 C   0  0  0  0  0  0  0  0  0  0  0  0
   45.6460   23.6880   36.3190 C   0  0  0  0  0  0  0  0  0  0  0  0
   44.7590   24.6220   36.8670 C   0  0  0  0  0  0  0  0  0  0  0  0
   43.4280   24.2530   36.8980 C   0  0  0  0  0  0  0  0  0  0  0  0
   42.9680   23.0500   36.4240 C   0  0  0  0  0  0  0  0  0  0  0  0
   40.1540   24.1380   34.5880 N   0  0  0  0  0  0  0  0  0  0  0  0
   40.9240   25.1180   34.0630 C   0  0  0  0  0  0  0  0  0  0  0  0
   41.0050   24.9520   32.7170 N   0  0  0  0  0  0  0  0  0  0  0  0
   40.2750   23.8550   32.4100 C   0  0  0  0  0  0  0  0  0  0  0  0
   39.7640   23.3740   33.5650 N   0  0  0  0  0  0  0  0  0  0  0  0
   37.9351   25.0207   35.6534 H   0  0  0  0  0  0  0  0  0  0  0  0
   38.3739   23.1348   39.4226 H   0  0  0  0  0  0  0  0  0  0  0  0
   41.1950   20.4757   35.5288 H   0  0  0  0  0  0  0  0  0  0  0  0
   43.7141   20.2125   35.0429 H   0  0  0  0  0  0  0  0  0  0  0  0
   45.9851   21.7512   35.4020 H   0  0  0  0  0  0  0  0  0  0  0  0
   46.7141   23.9482   36.2797 H   0  0  0  0  0  0  0  0  0  0  0  0
   45.1021   25.5941   37.2509 H   0  0  0  0  0  0  0  0  0  0  0  0
   42.7001   24.9591   37.3241 H   0  0  0  0  0  0  0  0  0  0  0  0
   41.4084   25.9227   34.6355 H   0  0  0  0  0  0  0  0  0  0  0  0
   40.1251   23.4325   31.4055 H   0  0  0  0  0  0  0  0  0  0  0  0
  1  6  2  0
  2  1  1  0
  2  3  2  0
  3  4  1  0
  4  5  2  0
  6  5  1  0
  7 15  1  0
  7  3  1  0
  8  7  2  0
  9  8  1  0
  9 10  1  0
 10 15  2  0
 11 10  1  0
 11 12  2  0
 12 13  1  0
 13 14  2  0
 15 14  1  0
 16  2  1  0
 17 16  1  0
 18 17  2  0
 19 18  1  0
 19 20  2  0
 20 16  1  0
  1 21  1  0
  5 22  1  0
  8 23  1  0
  9 24  1  0
 11 25  1  0
 12 26  1  0
 13 27  1  0
 14 28  1  0
 17 29  1  0
 19 30  1  0
M  ISO  8  21  14  22  14  23  14  24   9  25  14  26  14  27  14  28  14
M  ISO  2  29  14  30  14
M  END
>  <minimizedAffinity>  (1) 
-4.45770264

>  <minimizedRMSD>  (1) 
3.3500402

$$$$
