
     RDKit          3D

 26 28  0  0  0  0  0  0  0  0999 V2000
   37.8960   23.4970   36.2910 C   0  0  0  0  0  0  0  0  0  0  0  0
   39.2320   23.1430   36.0090 C   0  0  0  0  0  0  0  0  0  0  0  0
   40.1080   22.9210   37.0570 C   0  0  0  0  0  0  0  0  0  0  0  0
   39.6070   23.0650   38.3200 N   0  0  0  0  0  0  0  0  0  0  0  0
   38.3380   23.4020   38.5730 C   0  0  0  0  0  0  0  0  0  0  0  0
   37.4850   23.6170   37.5480 N   0  0  0  0  0  0  0  0  0  0  0  0
   41.4880   22.5560   36.7690 C   0  0  0  0  0  0  0  0  0  0  0  0
   41.7610   21.1870   36.8270 C   0  0  0  0  0  0  0  0  0  0  0  0
   43.0150   20.6730   36.5750 C   0  0  0  0  0  0  0  0  0  0  0  0
   44.0210   21.5440   36.2580 C   0  0  0  0  0  0  0  0  0  0  0  0
   43.7910   22.9110   36.1900 C   0  0  0  0  0  0  0  0  0  0  0  0
   42.5380   23.3880   36.4450 C   0  0  0  0  0  0  0  0  0  0  0  0
   39.5740   23.0460   34.6330 N   0  0  0  0  0  0  0  0  0  0  0  0
   40.0560   23.9750   33.7400 C   0  0  0  0  0  0  0  0  0  0  0  0
   40.2200   23.3830   32.5400 N   0  0  0  0  0  0  0  0  0  0  0  0
   39.8410   22.0850   32.6920 C   0  0  0  0  0  0  0  0  0  0  0  0
   39.4420   21.8830   33.9890 N   0  0  0  0  0  0  0  0  0  0  0  0
   37.1910   23.6746   35.4655 H   0  0  0  0  0  0  0  0  0  0  0  0
   37.9902   23.5037   39.6116 H   0  0  0  0  0  0  0  0  0  0  0  0
   40.9458   20.4943   37.0830 H   0  0  0  0  0  0  0  0  0  0  0  0
   43.2019   19.5903   36.6275 H   0  0  0  0  0  0  0  0  0  0  0  0
   45.0292   21.1544   36.0535 H   0  0  0  0  0  0  0  0  0  0  0  0
   44.6083   23.6012   35.9338 H   0  0  0  0  0  0  0  0  0  0  0  0
   42.3602   24.4722   36.3901 H   0  0  0  0  0  0  0  0  0  0  0  0
   40.2723   25.0291   33.9680 H   0  0  0  0  0  0  0  0  0  0  0  0
   39.8527   21.3201   31.9015 H   0  0  0  0  0  0  0  0  0  0  0  0
  1  6  2  0
  2  1  1  0
  2  3  2  0
  3  4  1  0
  4  5  2  0
  6  5  1  0
  7  8  2  0
  7  3  1  0
  9  8  1  0
 10  9  2  0
 11 10  1  0
 11 12  2  0
 12  7  1  0
 13  2  1  0
 14 13  1  0
 15 16  1  0
 15 14  2  0
 16 17  2  0
 17 13  1  0
  1 18  1  0
  5 19  1  0
  8 20  1  0
  9 21  1  0
 10 22  1  0
 11 23  1  0
 12 24  1  0
 14 25  1  0
 16 26  1  0
M  ISO  8  18  14  19  14  20  14  21  14  22  14  23  14  24  14  25  14
M  ISO  1  26  14
M  END
>  <minimizedAffinity>  (1) 
-4.16688776

>  <minimizedRMSD>  (1) 
3.03009772

$$$$
