
     RDKit          3D

 27 29  0  0  0  0  0  0  0  0999 V2000
   37.2040   22.3200   35.9710 C   0  0  0  0  0  0  0  0  0  0  0  0
   38.0860   23.2320   35.3570 C   0  0  0  0  0  0  0  0  0  0  0  0
   38.7190   24.1590   36.1610 C   0  0  0  0  0  0  0  0  0  0  0  0
   38.4760   24.1640   37.5060 N   0  0  0  0  0  0  0  0  0  0  0  0
   37.6250   23.2740   38.0570 C   0  0  0  0  0  0  0  0  0  0  0  0
   36.9940   22.3580   37.2880 N   0  0  0  0  0  0  0  0  0  0  0  0
   39.6060   25.0780   35.5460 N   0  0  0  0  0  0  0  0  0  0  0  0
   40.8620   24.5770   35.3600 C   0  0  0  0  0  0  0  0  0  0  0  0
   41.8210   25.3680   34.7730 C   0  0  0  0  0  0  0  0  0  0  0  0
   41.4500   26.6490   34.3970 C   0  0  0  0  0  0  0  0  0  0  0  0
   42.4070   27.4990   33.7870 N   0  0  0  0  0  0  0  0  0  0  0  0
   40.2030   27.1000   34.5970 N   0  0  0  0  0  0  0  0  0  0  0  0
   39.2510   26.3240   35.1790 C   0  0  0  0  0  0  0  0  0  0  0  0
   38.0700   26.7080   35.3860 O   0  0  0  0  0  0  0  0  0  0  0  0
   38.2480   23.1200   33.9630 N   0  0  0  0  0  0  0  0  0  0  0  0
   37.7500   23.8240   32.9170 C   0  0  0  0  0  0  0  0  0  0  0  0
   38.2250   23.2970   31.7550 N   0  0  0  0  0  0  0  0  0  0  0  0
   39.0260   22.2570   32.0910 C   0  0  0  0  0  0  0  0  0  0  0  0
   39.0240   22.1680   33.4460 N   0  0  0  0  0  0  0  0  0  0  0  0
   36.6835   21.5693   35.3581 H   0  0  0  0  0  0  0  0  0  0  0  0
   37.4427   23.2936   39.1416 H   0  0  0  0  0  0  0  0  0  0  0  0
   41.1042   23.5517   35.6763 H   0  0  0  0  0  0  0  0  0  0  0  0
   42.8437   24.9981   34.6081 H   0  0  0  0  0  0  0  0  0  0  0  0
   43.3676   27.1629   33.6286 H   0  0  0  0  0  0  0  0  0  0  0  0
   42.1416   28.4526   33.5023 H   0  0  0  0  0  0  0  0  0  0  0  0
   37.0697   24.6849   32.9948 H   0  0  0  0  0  0  0  0  0  0  0  0
   39.5757   21.6059   31.3954 H   0  0  0  0  0  0  0  0  0  0  0  0
  1  6  2  0
  2  1  1  0
  2  3  2  0
  3  4  1  0
  4  5  2  0
  6  5  1  0
  7  3  1  0
  8  7  1  0
  9  8  2  0
 10 12  2  0
 10  9  1  0
 11 10  1  0
 12 13  1  0
 13 14  2  0
 13  7  1  0
 15  2  1  0
 16 15  1  0
 17 18  1  0
 17 16  2  0
 18 19  2  0
 19 15  1  0
  1 20  1  0
  5 21  1  0
  8 22  1  0
  9 23  1  0
 11 24  1  0
 11 25  1  0
 16 26  1  0
 18 27  1  0
M  ISO  6  20  14  21  14  22  14  23  14  26  14  27  14
M  END
>  <minimizedAffinity>  (1) 
-4.02445459

>  <minimizedRMSD>  (1) 
3.99767995

$$$$
