
     RDKit          3D

 23 25  0  0  0  0  0  0  0  0999 V2000
   37.4350   23.7660   37.1170 C   0  0  0  0  0  0  0  0  0  0  0  0
   38.4760   23.1360   36.3820 C   0  0  0  0  0  0  0  0  0  0  0  0
   39.6580   22.8210   37.0120 C   0  0  0  0  0  0  0  0  0  0  0  0
   39.7360   23.1610   38.3480 N   0  0  0  0  0  0  0  0  0  0  0  0
   38.7540   23.7520   39.0230 C   0  0  0  0  0  0  0  0  0  0  0  0
   37.6070   24.0540   38.4110 N   0  0  0  0  0  0  0  0  0  0  0  0
   38.2240   22.9350   35.0110 N   0  0  0  0  0  0  0  0  0  0  0  0
   38.4070   23.7190   33.8940 C   0  0  0  0  0  0  0  0  0  0  0  0
   37.9540   23.0500   32.8060 N   0  0  0  0  0  0  0  0  0  0  0  0
   37.4840   21.8380   33.2460 C   0  0  0  0  0  0  0  0  0  0  0  0
   37.6590   21.7820   34.6060 N   0  0  0  0  0  0  0  0  0  0  0  0
   40.7630   22.0730   36.4510 C   0  0  0  0  0  0  0  0  0  0  0  0
   41.3410   21.9390   35.2130 C   0  0  0  0  0  0  0  0  0  0  0  0
   42.3900   21.0680   35.2330 C   0  0  0  0  0  0  0  0  0  0  0  0
   42.4340   20.6720   36.5290 C   0  0  0  0  0  0  0  0  0  0  0  0
   41.4830   21.2760   37.1730 O   0  0  0  0  0  0  0  0  0  0  0  0
   36.4863   24.0169   36.6201 H   0  0  0  0  0  0  0  0  0  0  0  0
   38.8875   23.9924   40.0881 H   0  0  0  0  0  0  0  0  0  0  0  0
   38.8496   24.7260   33.8860 H   0  0  0  0  0  0  0  0  0  0  0  0
   37.0439   21.0492   32.6182 H   0  0  0  0  0  0  0  0  0  0  0  0
   40.9989   22.4706   34.3128 H   0  0  0  0  0  0  0  0  0  0  0  0
   43.0412   20.7616   34.4011 H   0  0  0  0  0  0  0  0  0  0  0  0
   43.1530   19.9603   36.9608 H   0  0  0  0  0  0  0  0  0  0  0  0
  1  6  2  0
  2  3  2  0
  2  1  1  0
  3  4  1  0
  4  5  2  0
  6  5  1  0
  7  2  1  0
  8  7  1  0
  9 10  1  0
  9  8  2  0
 10 11  2  0
 11  7  1  0
 12  3  1  0
 12 16  1  0
 13 14  1  0
 13 12  2  0
 14 15  2  0
 15 16  1  0
  1 17  1  0
  5 18  1  0
  8 19  1  0
 10 20  1  0
 13 21  1  0
 14 22  1  0
 15 23  1  0
M  ISO  7  17  14  18  14  19  14  20  14  21  14  22  14  23  14
M  END
>  <minimizedAffinity>  (1) 
-3.81737161

>  <minimizedRMSD>  (1) 
1.61327446

$$$$
