
     RDKit          3D

 19 20  0  0  0  0  0  0  0  0999 V2000
   37.3990   23.3630   37.0900 C   0  0  0  0  0  0  0  0  0  0  0  0
   38.4460   23.1130   36.1640 C   0  0  0  0  0  0  0  0  0  0  0  0
   39.7450   22.9440   36.6330 C   0  0  0  0  0  0  0  0  0  0  0  0
   39.9350   23.0330   37.9980 N   0  0  0  0  0  0  0  0  0  0  0  0
   38.9360   23.2690   38.8540 C   0  0  0  0  0  0  0  0  0  0  0  0
   37.6670   23.4340   38.4000 N   0  0  0  0  0  0  0  0  0  0  0  0
   38.0810   23.0370   34.8130 N   0  0  0  0  0  0  0  0  0  0  0  0
   38.0480   23.9370   33.8090 C   0  0  0  0  0  0  0  0  0  0  0  0
   37.6180   23.3680   32.6710 N   0  0  0  0  0  0  0  0  0  0  0  0
   37.3690   22.0560   32.9760 C   0  0  0  0  0  0  0  0  0  0  0  0
   37.6580   21.8660   34.2940 N   0  0  0  0  0  0  0  0  0  0  0  0
   40.9150   22.6990   35.7900 C   0  0  0  0  0  0  0  0  0  0  0  0
   42.0350   22.6150   36.6380 F   0  0  0  0  0  0  0  0  0  0  0  0
   40.8910   21.5970   35.0090 F   0  0  0  0  0  0  0  0  0  0  0  0
   41.2250   23.8240   34.9940 F   0  0  0  0  0  0  0  0  0  0  0  0
   36.3680   23.4983   36.7313 H   0  0  0  0  0  0  0  0  0  0  0  0
   39.1431   23.3299   39.9326 H   0  0  0  0  0  0  0  0  0  0  0  0
   38.3346   24.9943   33.9088 H   0  0  0  0  0  0  0  0  0  0  0  0
   37.0001   21.2895   32.2786 H   0  0  0  0  0  0  0  0  0  0  0  0
  1  6  2  0
  2  3  2  0
  2  1  1  0
  3  4  1  0
  4  5  2  0
  6  5  1  0
  7  2  1  0
  8  7  1  0
  9 10  1  0
  9  8  2  0
 10 11  2  0
 11  7  1  0
 12  3  1  0
 12 13  1  0
 14 12  1  0
 15 12  1  0
  1 16  1  0
  5 17  1  0
  8 18  1  0
 10 19  1  0
M  ISO  4  16  14  17  14  18  14  19  14
M  END
>  <minimizedAffinity>  (1) 
-3.61775231

>  <minimizedRMSD>  (1) 
1.60750628

$$$$
