
     RDKit          3D

 26 28  0  0  0  0  0  0  0  0999 V2000
   37.3970   23.2050   36.9790 C   0  0  0  0  0  0  0  0  0  0  0  0
   38.4450   23.0700   36.0430 C   0  0  0  0  0  0  0  0  0  0  0  0
   39.7500   23.0450   36.5090 C   0  0  0  0  0  0  0  0  0  0  0  0
   39.9600   23.1530   37.8530 N   0  0  0  0  0  0  0  0  0  0  0  0
   38.9460   23.2810   38.7210 C   0  0  0  0  0  0  0  0  0  0  0  0
   37.6640   23.3070   38.2840 N   0  0  0  0  0  0  0  0  0  0  0  0
   40.7880   22.9080   35.5440 N   0  0  0  0  0  0  0  0  0  0  0  0
   41.2960   21.6930   35.1820 C   0  0  0  0  0  0  0  0  0  0  0  0
   42.3030   21.5560   34.2470 C   0  0  0  0  0  0  0  0  0  0  0  0
   42.8140   22.7110   33.6560 C   0  0  0  0  0  0  0  0  0  0  0  0
   43.7230   22.6490   32.8070 O   0  0  0  0  0  0  0  0  0  0  0  0
   42.2800   23.8950   34.0450 N   0  0  0  0  0  0  0  0  0  0  0  0
   41.2970   23.9990   34.9610 C   0  0  0  0  0  0  0  0  0  0  0  0
   40.8390   25.1480   35.2830 O   0  0  0  0  0  0  0  0  0  0  0  0
   38.0600   22.9710   34.6860 N   0  0  0  0  0  0  0  0  0  0  0  0
   37.9120   23.9100   33.7140 C   0  0  0  0  0  0  0  0  0  0  0  0
   37.5200   23.3070   32.5660 N   0  0  0  0  0  0  0  0  0  0  0  0
   37.4270   21.9750   32.8410 C   0  0  0  0  0  0  0  0  0  0  0  0
   37.7620   21.8120   34.1400 N   0  0  0  0  0  0  0  0  0  0  0  0
   36.3535   23.2264   36.6315 H   0  0  0  0  0  0  0  0  0  0  0  0
   39.1570   23.3656   39.7973 H   0  0  0  0  0  0  0  0  0  0  0  0
   40.8868   20.7876   35.6540 H   0  0  0  0  0  0  0  0  0  0  0  0
   42.6913   20.5632   33.9759 H   0  0  0  0  0  0  0  0  0  0  0  0
   42.6442   24.7590   33.6187 H   0  0  0  0  0  0  0  0  0  0  0  0
   38.0835   24.9892   33.8399 H   0  0  0  0  0  0  0  0  0  0  0  0
   37.1342   21.1817   32.1375 H   0  0  0  0  0  0  0  0  0  0  0  0
  1  6  2  0
  2  3  2  0
  2  1  1  0
  3  4  1  0
  4  5  2  0
  6  5  1  0
  7  3  1  0
  8  7  1  0
  9  8  2  0
 10 12  1  0
 10  9  1  0
 11 10  2  0
 12 13  1  0
 13 14  2  0
 13  7  1  0
 15  2  1  0
 16 15  1  0
 17 18  1  0
 17 16  2  0
 18 19  2  0
 19 15  1  0
  1 20  1  0
  5 21  1  0
  8 22  1  0
  9 23  1  0
 12 24  1  0
 16 25  1  0
 18 26  1  0
M  ISO  7  20  14  21  14  22  14  23  14  24   9  25  14  26  14
M  END
>  <minimizedAffinity>  (1) 
-3.68626189

>  <minimizedRMSD>  (1) 
1.92010689

$$$$
