
     RDKit          3D

 18 19  0  0  0  0  0  0  0  0999 V2000
   37.4930   23.9130   37.0500 C   0  0  0  0  0  0  0  0  0  0  0  0
   38.3960   23.2030   36.2340 C   0  0  0  0  0  0  0  0  0  0  0  0
   39.5620   22.7010   36.7990 C   0  0  0  0  0  0  0  0  0  0  0  0
   39.7850   22.9160   38.1240 N   0  0  0  0  0  0  0  0  0  0  0  0
   38.9190   23.5920   38.8870 C   0  0  0  0  0  0  0  0  0  0  0  0
   37.7940   24.0790   38.3520 N   0  0  0  0  0  0  0  0  0  0  0  0
   38.0210   23.0620   34.8750 N   0  0  0  0  0  0  0  0  0  0  0  0
   38.0080   23.9690   33.8430 C   0  0  0  0  0  0  0  0  0  0  0  0
   37.5620   23.3470   32.7230 N   0  0  0  0  0  0  0  0  0  0  0  0
   37.3020   22.0530   33.0780 C   0  0  0  0  0  0  0  0  0  0  0  0
   37.5920   21.9070   34.4010 N   0  0  0  0  0  0  0  0  0  0  0  0
   40.4400   21.9960   35.9510 N   0  0  0  0  0  0  0  0  0  0  0  0
   36.5617   24.3231   36.6322 H   0  0  0  0  0  0  0  0  0  0  0  0
   39.1321   23.7475   39.9549 H   0  0  0  0  0  0  0  0  0  0  0  0
   38.3093   25.0246   33.9133 H   0  0  0  0  0  0  0  0  0  0  0  0
   36.9236   21.2650   32.4103 H   0  0  0  0  0  0  0  0  0  0  0  0
   41.3163   21.6061   36.3264 H   0  0  0  0  0  0  0  0  0  0  0  0
   40.2052   21.8708   34.9560 H   0  0  0  0  0  0  0  0  0  0  0  0
  1  6  2  0
  2  3  2  0
  2  1  1  0
  3  4  1  0
  4  5  2  0
  6  5  1  0
  7  2  1  0
  8  7  1  0
  9 10  1  0
  9  8  2  0
 10 11  2  0
 11  7  1  0
 12  3  1  0
  1 13  1  0
  5 14  1  0
  8 15  1  0
 10 16  1  0
 12 17  1  0
 12 18  1  0
M  ISO  4  13  14  14  14  15  14  16  14
M  END
>  <minimizedAffinity>  (1) 
-3.41913533

>  <minimizedRMSD>  (1) 
1.53383803

$$$$
