
     RDKit          3D

 22 24  0  0  0  0  0  0  0  0999 V2000
   37.3980   23.2520   37.0800 C   0  0  0  0  0  0  0  0  0  0  0  0
   38.4340   23.0890   36.1330 C   0  0  0  0  0  0  0  0  0  0  0  0
   39.7370   23.0050   36.5970 C   0  0  0  0  0  0  0  0  0  0  0  0
   39.9750   23.0810   37.9310 N   0  0  0  0  0  0  0  0  0  0  0  0
   38.9600   23.2380   38.8160 C   0  0  0  0  0  0  0  0  0  0  0  0
   37.6790   23.3230   38.3860 N   0  0  0  0  0  0  0  0  0  0  0  0
   38.0390   23.0260   34.7830 N   0  0  0  0  0  0  0  0  0  0  0  0
   37.9950   23.9810   33.8070 C   0  0  0  0  0  0  0  0  0  0  0  0
   37.5340   23.4070   32.6600 N   0  0  0  0  0  0  0  0  0  0  0  0
   37.2980   22.1010   32.9410 C   0  0  0  0  0  0  0  0  0  0  0  0
   37.6150   21.9030   34.2390 N   0  0  0  0  0  0  0  0  0  0  0  0
   40.7670   22.8410   35.6270 N   0  0  0  0  0  0  0  0  0  0  0  0
   41.3330   21.8170   34.9640 C   0  0  0  0  0  0  0  0  0  0  0  0
   42.2950   22.2820   34.1460 N   0  0  0  0  0  0  0  0  0  0  0  0
   42.3280   23.6170   34.3030 C   0  0  0  0  0  0  0  0  0  0  0  0
   41.3900   23.9500   35.2120 N   0  0  0  0  0  0  0  0  0  0  0  0
   36.3538   23.3210   36.7412 H   0  0  0  0  0  0  0  0  0  0  0  0
   39.1791   23.2968   39.8924 H   0  0  0  0  0  0  0  0  0  0  0  0
   38.2832   25.0358   33.9268 H   0  0  0  0  0  0  0  0  0  0  0  0
   36.9183   21.3426   32.2405 H   0  0  0  0  0  0  0  0  0  0  0  0
   41.0520   20.7592   35.0738 H   0  0  0  0  0  0  0  0  0  0  0  0
   43.0011   24.3138   33.7820 H   0  0  0  0  0  0  0  0  0  0  0  0
  1  6  2  0
  2  3  2  0
  2  1  1  0
  3  4  1  0
  4  5  2  0
  6  5  1  0
  7  2  1  0
  8  7  1  0
  9 10  1  0
  9  8  2  0
 10 11  2  0
 11  7  1  0
 12  3  1  0
 13 12  1  0
 14 15  1  0
 14 13  2  0
 15 16  2  0
 16 12  1  0
  1 17  1  0
  5 18  1  0
  8 19  1  0
 10 20  1  0
 13 21  1  0
 15 22  1  0
M  ISO  6  17  14  18  14  19  14  20  14  21  14  22  14
M  END
>  <minimizedAffinity>  (1) 
-3.53885555

>  <minimizedRMSD>  (1) 
1.69721472

$$$$
