
     RDKit          3D

 19 20  0  0  0  0  0  0  0  0999 V2000
   37.4570   23.8770   37.0950 C   0  0  0  0  0  0  0  0  0  0  0  0
   38.3960   23.1990   36.3050 C   0  0  0  0  0  0  0  0  0  0  0  0
   39.5550   22.7740   36.9250 C   0  0  0  0  0  0  0  0  0  0  0  0
   39.7720   23.0070   38.2400 N   0  0  0  0  0  0  0  0  0  0  0  0
   38.8300   23.6690   38.9640 C   0  0  0  0  0  0  0  0  0  0  0  0
   37.7090   24.0840   38.3840 N   0  0  0  0  0  0  0  0  0  0  0  0
   38.0890   22.9960   34.9480 N   0  0  0  0  0  0  0  0  0  0  0  0
   38.2840   23.7170   33.8200 C   0  0  0  0  0  0  0  0  0  0  0  0
   37.7920   23.0650   32.7550 N   0  0  0  0  0  0  0  0  0  0  0  0
   37.2670   21.8880   33.2350 C   0  0  0  0  0  0  0  0  0  0  0  0
   37.4590   21.8630   34.5900 N   0  0  0  0  0  0  0  0  0  0  0  0
   40.5650   22.0630   36.2470 C   0  0  0  0  0  0  0  0  0  0  0  0
   41.4220   21.2790   36.7150 O   0  0  0  0  0  0  0  0  0  0  0  0
   41.2060   21.7400   35.0810 O   0  0  0  0  0  0  0  0  0  0  0  0
   36.5168   24.2358   36.6508 H   0  0  0  0  0  0  0  0  0  0  0  0
   38.9969   23.8616   40.0341 H   0  0  0  0  0  0  0  0  0  0  0  0
   38.7767   24.6997   33.7811 H   0  0  0  0  0  0  0  0  0  0  0  0
   36.7790   21.1051   32.6359 H   0  0  0  0  0  0  0  0  0  0  0  0
   40.9051   22.1355   34.2248 H   0  0  0  0  0  0  0  0  0  0  0  0
  1  6  2  0
  2  3  2  0
  2  1  1  0
  3  4  1  0
  4  5  2  0
  6  5  1  0
  7  2  1  0
  8  7  1  0
  9 10  1  0
  9  8  2  0
 10 11  2  0
 11  7  1  0
 12 13  2  0
 12  3  1  0
 14 12  1  0
  1 15  1  0
  5 16  1  0
  8 17  1  0
 10 18  1  0
 14 19  1  0
M  ISO  5  15  14  16  14  17  14  18  14  19   3
M  END
>  <minimizedAffinity>  (1) 
-3.5989778

>  <minimizedRMSD>  (1) 
1.53963184

$$$$
