
     RDKit          3D

 23 25  0  0  0  0  0  0  0  0999 V2000
   37.4080   23.2470   37.0760 C   0  0  0  0  0  0  0  0  0  0  0  0
   38.4420   23.0790   36.1340 C   0  0  0  0  0  0  0  0  0  0  0  0
   39.7400   22.9990   36.6070 C   0  0  0  0  0  0  0  0  0  0  0  0
   39.9570   23.0860   37.9490 N   0  0  0  0  0  0  0  0  0  0  0  0
   38.9520   23.2450   38.8170 C   0  0  0  0  0  0  0  0  0  0  0  0
   37.6720   23.3260   38.3810 N   0  0  0  0  0  0  0  0  0  0  0  0
   38.0440   23.0080   34.7840 N   0  0  0  0  0  0  0  0  0  0  0  0
   37.9990   23.9790   33.8110 C   0  0  0  0  0  0  0  0  0  0  0  0
   37.5410   23.4120   32.6650 N   0  0  0  0  0  0  0  0  0  0  0  0
   37.3110   22.1040   32.9380 C   0  0  0  0  0  0  0  0  0  0  0  0
   37.6280   21.8850   34.2430 N   0  0  0  0  0  0  0  0  0  0  0  0
   40.7700   22.8300   35.6390 N   0  0  0  0  0  0  0  0  0  0  0  0
   41.2350   21.7810   34.9680 N   0  0  0  0  0  0  0  0  0  0  0  0
   42.2310   22.1370   34.1560 C   0  0  0  0  0  0  0  0  0  0  0  0
   42.4260   23.4810   34.3040 C   0  0  0  0  0  0  0  0  0  0  0  0
   41.5010   23.9000   35.2380 C   0  0  0  0  0  0  0  0  0  0  0  0
   36.3661   23.3141   36.7297 H   0  0  0  0  0  0  0  0  0  0  0  0
   39.1666   23.3105   39.8939 H   0  0  0  0  0  0  0  0  0  0  0  0
   38.2848   25.0335   33.9390 H   0  0  0  0  0  0  0  0  0  0  0  0
   36.9343   21.3520   32.2291 H   0  0  0  0  0  0  0  0  0  0  0  0
   42.7940   21.4690   33.4876 H   0  0  0  0  0  0  0  0  0  0  0  0
   43.1696   24.1029   33.7841 H   0  0  0  0  0  0  0  0  0  0  0  0
   41.3767   24.9319   35.5982 H   0  0  0  0  0  0  0  0  0  0  0  0
  1  6  2  0
  2  3  2  0
  2  1  1  0
  3  4  1  0
  4  5  2  0
  6  5  1  0
  7  2  1  0
  8  7  1  0
  9 10  1  0
  9  8  2  0
 10 11  2  0
 11  7  1  0
 12  3  1  0
 13 12  1  0
 14 15  1  0
 14 13  2  0
 15 16  2  0
 16 12  1  0
  1 17  1  0
  5 18  1  0
  8 19  1  0
 10 20  1  0
 14 21  1  0
 15 22  1  0
 16 23  1  0
M  ISO  7  17  14  18  14  19  14  20  14  21  14  22  14  23  14
M  END
>  <minimizedAffinity>  (1) 
-3.54983807

>  <minimizedRMSD>  (1) 
1.90626061

$$$$
