
     RDKit          3D

 36 39  0  0  0  0  0  0  0  0999 V2000
   37.3230   23.0620   36.9370 C   0  0  0  0  0  0  0  0  0  0  0  0
   38.2730   22.8130   35.9350 C   0  0  0  0  0  0  0  0  0  0  0  0
   39.6170   22.7970   36.2930 C   0  0  0  0  0  0  0  0  0  0  0  0
   39.9350   23.0240   37.5910 N   0  0  0  0  0  0  0  0  0  0  0  0
   39.0160   23.2580   38.5230 C   0  0  0  0  0  0  0  0  0  0  0  0
   37.6940   23.2780   38.1950 N   0  0  0  0  0  0  0  0  0  0  0  0
   37.7650   22.5970   34.6320 N   0  0  0  0  0  0  0  0  0  0  0  0
   37.7500   23.3930   33.5250 C   0  0  0  0  0  0  0  0  0  0  0  0
   37.1390   22.7140   32.5210 N   0  0  0  0  0  0  0  0  0  0  0  0
   36.7800   21.5030   33.0140 C   0  0  0  0  0  0  0  0  0  0  0  0
   37.1750   21.4560   34.3110 N   0  0  0  0  0  0  0  0  0  0  0  0
   40.5570   22.5450   35.2640 N   0  0  0  0  0  0  0  0  0  0  0  0
   40.9890   21.4540   34.6590 N   0  0  0  0  0  0  0  0  0  0  0  0
   41.9010   21.7410   33.7340 C   0  0  0  0  0  0  0  0  0  0  0  0
   42.0770   23.0790   33.7300 C   0  0  0  0  0  0  0  0  0  0  0  0
   41.2290   23.5860   34.6950 C   0  0  0  0  0  0  0  0  0  0  0  0
   41.1640   25.0590   34.9640 C   0  0  0  0  0  0  0  0  0  0  0  0
   42.3280   25.7170   34.2470 C   0  0  0  0  0  0  0  0  0  0  0  0
   41.9420   27.1180   33.9450 C   0  0  0  0  0  0  0  0  0  0  0  0
   40.4670   27.1900   34.2580 C   0  0  0  0  0  0  0  0  0  0  0  0
   39.9860   25.7380   34.3660 C   0  0  0  0  0  0  0  0  0  0  0  0
   36.2542   23.0787   36.6774 H   0  0  0  0  0  0  0  0  0  0  0  0
   39.3246   23.4363   39.5637 H   0  0  0  0  0  0  0  0  0  0  0  0
   38.1622   24.4106   33.4573 H   0  0  0  0  0  0  0  0  0  0  0  0
   36.2626   20.7040   32.4626 H   0  0  0  0  0  0  0  0  0  0  0  0
   42.4191   21.0171   33.0879 H   0  0  0  0  0  0  0  0  0  0  0  0
   42.7603   23.6520   33.0860 H   0  0  0  0  0  0  0  0  0  0  0  0
   41.1458   25.1546   36.0597 H   0  0  0  0  0  0  0  0  0  0  0  0
   43.2193   25.7052   34.8915 H   0  0  0  0  0  0  0  0  0  0  0  0
   42.5634   25.1750   33.3192 H   0  0  0  0  0  0  0  0  0  0  0  0
   42.5065   27.8198   34.5766 H   0  0  0  0  0  0  0  0  0  0  0  0
   42.1580   27.3915   32.9017 H   0  0  0  0  0  0  0  0  0  0  0  0
   40.3035   27.7184   35.2088 H   0  0  0  0  0  0  0  0  0  0  0  0
   39.9166   27.7398   33.4803 H   0  0  0  0  0  0  0  0  0  0  0  0
   39.1052   25.6576   35.0199 H   0  0  0  0  0  0  0  0  0  0  0  0
   39.6688   25.3061   33.4054 H   0  0  0  0  0  0  0  0  0  0  0  0
  1  6  2  0
  2  3  2  0
  2  1  1  0
  3  4  1  0
  4  5  2  0
  6  5  1  0
  7  2  1  0
  8  7  1  0
  9 10  1  0
  9  8  2  0
 10 11  2  0
 11  7  1  0
 12  3  1  0
 13 12  1  0
 14 13  2  0
 15 14  1  0
 15 16  2  0
 16 17  1  0
 16 12  1  0
 18 17  1  0
 19 18  1  0
 19 20  1  0
 20 21  1  0
 21 17  1  0
  1 22  1  0
  5 23  1  0
  8 24  1  0
 10 25  1  0
 14 26  1  0
 15 27  1  0
 17 28  1  0
 18 29  1  0
 18 30  1  0
 19 31  1  0
 19 32  1  0
 20 33  1  0
 20 34  1  0
 21 35  1  0
 21 36  1  0
M  ISO  8  22  14  23  14  24  14  25  14  26  14  27  14  28  13  29  13
M  ISO  7  30  13  31  13  32  13  33  13  34  13  35  13  36  13
M  END
>  <minimizedAffinity>  (1) 
-4.31943798

>  <minimizedRMSD>  (1) 
0.775623381

$$$$
