
     RDKit          3D

 39 43  0  0  0  0  0  0  0  0999 V2000
   38.4490   24.0080   30.9360 N   0  0  0  0  0  0  0  0  0  0  0  0
   38.6730   23.6090   29.6950 N   0  0  0  0  0  0  0  0  0  0  0  0
   39.0690   22.3460   29.6610 C   0  0  0  0  0  0  0  0  0  0  0  0
   39.1030   21.9070   30.9420 C   0  0  0  0  0  0  0  0  0  0  0  0
   38.7100   22.9560   31.7740 C   0  0  0  0  0  0  0  0  0  0  0  0
   38.6840   22.7400   33.2180 C   0  0  0  0  0  0  0  0  0  0  0  0
   37.6060   22.2050   33.8910 C   0  0  0  0  0  0  0  0  0  0  0  0
   37.5320   21.9980   35.2520 C   0  0  0  0  0  0  0  0  0  0  0  0
   38.6150   22.3500   36.0230 C   0  0  0  0  0  0  0  0  0  0  0  0
   39.7290   22.8900   35.4200 C   0  0  0  0  0  0  0  0  0  0  0  0
   40.7830   23.2340   36.2370 C   0  0  0  0  0  0  0  0  0  0  0  0
   41.9160   23.7880   35.7060 C   0  0  0  0  0  0  0  0  0  0  0  0
   41.9570   23.9850   34.3250 C   0  0  0  0  0  0  0  0  0  0  0  0
   40.8720   23.6220   33.5540 C   0  0  0  0  0  0  0  0  0  0  0  0
   39.7290   23.0670   34.0560 C   0  0  0  0  0  0  0  0  0  0  0  0
   38.4530   27.5780   31.8650 C   0  0  0  0  0  0  0  0  0  0  0  0
   38.8540   26.3460   31.3130 C   0  0  0  0  0  0  0  0  0  0  0  0
   38.0190   25.2500   31.4980 C   0  0  0  0  0  0  0  0  0  0  0  0
   36.8740   25.4390   32.1950 N   0  0  0  0  0  0  0  0  0  0  0  0
   36.5220   26.6120   32.7040 C   0  0  0  0  0  0  0  0  0  0  0  0
   37.3100   27.6870   32.5410 N   0  0  0  0  0  0  0  0  0  0  0  0
   40.0790   26.3500   30.6130 N   0  0  0  0  0  0  0  0  0  0  0  0
   41.3460   26.0440   31.0220 C   0  0  0  0  0  0  0  0  0  0  0  0
   42.1830   26.2070   29.9580 N   0  0  0  0  0  0  0  0  0  0  0  0
   41.4270   26.6100   28.9130 C   0  0  0  0  0  0  0  0  0  0  0  0
   40.1420   26.6910   29.3370 N   0  0  0  0  0  0  0  0  0  0  0  0
   39.3223   21.7637   28.7628 H   0  0  0  0  0  0  0  0  0  0  0  0
   39.3909   20.8973   31.2700 H   0  0  0  0  0  0  0  0  0  0  0  0
   36.7299   21.9188   33.2905 H   0  0  0  0  0  0  0  0  0  0  0  0
   36.6309   21.5630   35.7089 H   0  0  0  0  0  0  0  0  0  0  0  0
   38.5916   22.2014   37.1127 H   0  0  0  0  0  0  0  0  0  0  0  0
   40.7138   23.0626   37.3214 H   0  0  0  0  0  0  0  0  0  0  0  0
   42.7656   24.0685   36.3459 H   0  0  0  0  0  0  0  0  0  0  0  0
   42.8480   24.4265   33.8546 H   0  0  0  0  0  0  0  0  0  0  0  0
   40.9308   23.7897   32.4685 H   0  0  0  0  0  0  0  0  0  0  0  0
   39.0929   28.4634   31.7362 H   0  0  0  0  0  0  0  0  0  0  0  0
   35.5791   26.7048   33.2629 H   0  0  0  0  0  0  0  0  0  0  0  0
   41.6394   25.7226   32.0322 H   0  0  0  0  0  0  0  0  0  0  0  0
   41.7898   26.8327   27.8987 H   0  0  0  0  0  0  0  0  0  0  0  0
  1 18  1  0
  1  5  1  0
  2  1  1  0
  3  2  2  0
  3  4  1  0
  4  5  2  0
  5  6  1  0
  6  7  2  0
  6 15  1  0
  7  8  1  0
  8  9  2  0
 10  9  1  0
 10 11  2  0
 12 11  1  0
 13 12  2  0
 14 15  2  0
 14 13  1  0
 15 10  1  0
 16 21  2  0
 17 18  2  0
 17 16  1  0
 18 19  1  0
 19 20  2  0
 21 20  1  0
 22 23  1  0
 22 17  1  0
 24 23  2  0
 25 26  2  0
 25 24  1  0
 26 22  1  0
  3 27  1  0
  4 28  1  0
  7 29  1  0
  8 30  1  0
  9 31  1  0
 11 32  1  0
 12 33  1  0
 13 34  1  0
 14 35  1  0
 16 36  1  0
 20 37  1  0
 23 38  1  0
 25 39  1  0
M  ISO  8  27  14  28  14  29  14  30  14  31  14  32  14  33  14  34  14
M  ISO  5  35  14  36  14  37  14  38  14  39  14
M  END
>  <minimizedAffinity>  (1) 
-4.12459707

>  <minimizedRMSD>  (1) 
5.81689501

$$$$
