
     RDKit          3D

 30 33  0  0  0  0  0  0  0  0999 V2000
   37.2950   23.0390   36.9320 C   0  0  0  0  0  0  0  0  0  0  0  0
   38.2900   22.8100   35.9650 C   0  0  0  0  0  0  0  0  0  0  0  0
   39.5970   22.8480   36.3860 C   0  0  0  0  0  0  0  0  0  0  0  0
   39.8760   23.1000   37.6960 N   0  0  0  0  0  0  0  0  0  0  0  0
   38.9000   23.3140   38.5840 C   0  0  0  0  0  0  0  0  0  0  0  0
   37.6110   23.2840   38.2020 N   0  0  0  0  0  0  0  0  0  0  0  0
   37.8490   22.5600   34.6570 N   0  0  0  0  0  0  0  0  0  0  0  0
   37.7040   23.3860   33.5790 C   0  0  0  0  0  0  0  0  0  0  0  0
   37.2380   22.6570   32.5330 N   0  0  0  0  0  0  0  0  0  0  0  0
   37.0960   21.3760   32.9730 C   0  0  0  0  0  0  0  0  0  0  0  0
   37.4770   21.3480   34.2760 N   0  0  0  0  0  0  0  0  0  0  0  0
   40.6110   22.6190   35.3990 N   0  0  0  0  0  0  0  0  0  0  0  0
   41.2530   21.5130   35.0010 N   0  0  0  0  0  0  0  0  0  0  0  0
   42.1220   21.7890   34.0410 C   0  0  0  0  0  0  0  0  0  0  0  0
   42.0540   23.1210   33.7980 C   0  0  0  0  0  0  0  0  0  0  0  0
   41.0940   23.6330   34.6630 C   0  0  0  0  0  0  0  0  0  0  0  0
   40.7020   25.0480   34.7320 C   0  0  0  0  0  0  0  0  0  0  0  0
   41.3430   26.1000   34.1140 C   0  0  0  0  0  0  0  0  0  0  0  0
   40.6350   27.2460   34.4500 C   0  0  0  0  0  0  0  0  0  0  0  0
   39.5990   26.8320   35.2580 C   0  0  0  0  0  0  0  0  0  0  0  0
   39.6780   25.5300   35.3970 O   0  0  0  0  0  0  0  0  0  0  0  0
   36.2365   23.0153   36.6338 H   0  0  0  0  0  0  0  0  0  0  0  0
   39.1532   23.5162   39.6352 H   0  0  0  0  0  0  0  0  0  0  0  0
   37.9276   24.4629   33.5613 H   0  0  0  0  0  0  0  0  0  0  0  0
   36.7382   20.5206   32.3812 H   0  0  0  0  0  0  0  0  0  0  0  0
   42.7797   21.0684   33.5329 H   0  0  0  0  0  0  0  0  0  0  0  0
   42.6432   23.6860   33.0607 H   0  0  0  0  0  0  0  0  0  0  0  0
   42.2395   26.0429   33.4792 H   0  0  0  0  0  0  0  0  0  0  0  0
   40.8565   28.2763   34.1347 H   0  0  0  0  0  0  0  0  0  0  0  0
   38.8355   27.4824   35.7097 H   0  0  0  0  0  0  0  0  0  0  0  0
  1  6  2  0
  2  3  2  0
  2  1  1  0
  3  4  1  0
  4  5  2  0
  6  5  1  0
  7  2  1  0
  8  7  1  0
  9 10  1  0
  9  8  2  0
 10 11  2  0
 11  7  1  0
 12  3  1  0
 13 12  1  0
 14 13  2  0
 15 14  1  0
 15 16  2  0
 16 17  1  0
 16 12  1  0
 17 21  1  0
 18 19  1  0
 18 17  2  0
 19 20  2  0
 20 21  1  0
  1 22  1  0
  5 23  1  0
  8 24  1  0
 10 25  1  0
 14 26  1  0
 15 27  1  0
 18 28  1  0
 19 29  1  0
 20 30  1  0
M  ISO  8  22  14  23  14  24  14  25  14  26  14  27  14  28  14  29  14
M  ISO  1  30  14
M  END
>  <minimizedAffinity>  (1) 
-4.22473288

>  <minimizedRMSD>  (1) 
0.882087409

$$$$
