
     RDKit          3D

 30 33  0  0  0  0  0  0  0  0999 V2000
   37.3010   23.0250   36.9200 C   0  0  0  0  0  0  0  0  0  0  0  0
   38.3010   22.7860   35.9610 C   0  0  0  0  0  0  0  0  0  0  0  0
   39.6210   22.8180   36.3850 C   0  0  0  0  0  0  0  0  0  0  0  0
   39.8900   23.0740   37.6880 N   0  0  0  0  0  0  0  0  0  0  0  0
   38.9130   23.2980   38.5790 C   0  0  0  0  0  0  0  0  0  0  0  0
   37.6130   23.2740   38.1970 N   0  0  0  0  0  0  0  0  0  0  0  0
   37.8520   22.5360   34.6560 N   0  0  0  0  0  0  0  0  0  0  0  0
   37.7240   23.3870   33.5720 C   0  0  0  0  0  0  0  0  0  0  0  0
   37.2440   22.6740   32.5190 N   0  0  0  0  0  0  0  0  0  0  0  0
   37.0780   21.3920   32.9560 C   0  0  0  0  0  0  0  0  0  0  0  0
   37.4600   21.3560   34.2600 N   0  0  0  0  0  0  0  0  0  0  0  0
   40.6180   22.5710   35.3860 N   0  0  0  0  0  0  0  0  0  0  0  0
   41.2470   21.4780   34.9770 N   0  0  0  0  0  0  0  0  0  0  0  0
   42.1090   21.7700   33.9930 C   0  0  0  0  0  0  0  0  0  0  0  0
   42.0300   23.1200   33.7590 C   0  0  0  0  0  0  0  0  0  0  0  0
   41.0850   23.6180   34.6430 C   0  0  0  0  0  0  0  0  0  0  0  0
   40.7040   25.0080   34.7190 N   0  0  0  0  0  0  0  0  0  0  0  0
   39.7520   25.6870   35.3160 N   0  0  0  0  0  0  0  0  0  0  0  0
   39.9050   26.9850   35.0140 C   0  0  0  0  0  0  0  0  0  0  0  0
   41.0190   27.1150   34.1800 C   0  0  0  0  0  0  0  0  0  0  0  0
   41.5090   25.8340   34.0090 C   0  0  0  0  0  0  0  0  0  0  0  0
   36.2442   23.0070   36.6152 H   0  0  0  0  0  0  0  0  0  0  0  0
   39.1691   23.5030   39.6290 H   0  0  0  0  0  0  0  0  0  0  0  0
   37.9693   24.4593   33.5640 H   0  0  0  0  0  0  0  0  0  0  0  0
   36.7042   20.5445   32.3627 H   0  0  0  0  0  0  0  0  0  0  0  0
   42.7615   21.0568   33.4681 H   0  0  0  0  0  0  0  0  0  0  0  0
   42.6035   23.6940   33.0163 H   0  0  0  0  0  0  0  0  0  0  0  0
   39.2630   27.8071   35.3633 H   0  0  0  0  0  0  0  0  0  0  0  0
   41.4219   28.0435   33.7493 H   0  0  0  0  0  0  0  0  0  0  0  0
   42.3847   25.5415   33.4110 H   0  0  0  0  0  0  0  0  0  0  0  0
  1  6  2  0
  2  3  2  0
  2  1  1  0
  3  4  1  0
  4  5  2  0
  6  5  1  0
  7  2  1  0
  8  7  1  0
  9 10  1  0
  9  8  2  0
 10 11  2  0
 11  7  1  0
 12  3  1  0
 13 12  1  0
 14 13  2  0
 15 14  1  0
 15 16  2  0
 16 17  1  0
 16 12  1  0
 17 18  1  0
 19 18  2  0
 20 19  1  0
 21 20  2  0
 21 17  1  0
  1 22  1  0
  5 23  1  0
  8 24  1  0
 10 25  1  0
 14 26  1  0
 15 27  1  0
 19 28  1  0
 20 29  1  0
 21 30  1  0
M  ISO  8  22  14  23  14  24  14  25  14  26  14  27  14  28  14  29  14
M  ISO  1  30  14
M  END
>  <minimizedAffinity>  (1) 
-4.17897272

>  <minimizedRMSD>  (1) 
0.873202384

$$$$
