
     RDKit          3D

 44 46  0  0  0  0  0  0  0  0999 V2000
   38.7440   23.6460   36.8770 C   0  0  0  0  0  0  0  0  0  0  0  0
   41.9690   21.7240   36.8770 C   0  0  0  0  0  0  0  0  0  0  0  0
   40.6610   22.0690   37.1840 C   0  0  0  0  0  0  0  0  0  0  0  0
   40.1090   23.2180   36.6050 C   0  0  0  0  0  0  0  0  0  0  0  0
   40.8780   23.9400   35.7690 N   0  0  0  0  0  0  0  0  0  0  0  0
   42.1470   23.5970   35.4760 C   0  0  0  0  0  0  0  0  0  0  0  0
   42.6880   22.4800   36.0380 N   0  0  0  0  0  0  0  0  0  0  0  0
   42.5380   20.4950   37.5070 C   0  0  0  0  0  0  0  0  0  0  0  0
   43.1970   19.5900   36.5320 C   0  0  0  0  0  0  0  0  0  0  0  0
   38.4330   23.2950   38.3220 C   0  0  0  0  0  0  0  0  0  0  0  0
   38.5030   25.1230   36.6270 C   0  0  0  0  0  0  0  0  0  0  0  0
   37.7920   22.8720   35.9920 C   0  0  0  0  0  0  0  0  0  0  0  0
   37.8370   23.3030   34.6210 N   0  0  0  0  0  0  0  0  0  0  0  0
   38.1980   22.6270   33.5060 C   0  0  0  0  0  0  0  0  0  0  0  0
   38.0790   23.4500   32.4330 N   0  0  0  0  0  0  0  0  0  0  0  0
   37.6440   24.6340   32.8890 C   0  0  0  0  0  0  0  0  0  0  0  0
   37.5050   24.5190   34.2140 N   0  0  0  0  0  0  0  0  0  0  0  0
   37.4060   25.7480   32.0190 N   0  0  0  0  0  0  0  0  0  0  0  0
   38.2880   26.7880   32.0760 C   0  0  0  0  0  0  0  0  0  0  0  0
   38.0970   27.8880   31.2520 C   0  0  0  0  0  0  0  0  0  0  0  0
   36.9920   27.7990   30.4330 C   0  0  0  0  0  0  0  0  0  0  0  0
   36.7840   28.7940   29.6590 O   0  0  0  0  0  0  0  0  0  0  0  0
   36.1010   26.7950   30.3460 N   0  0  0  0  0  0  0  0  0  0  0  0
   36.3440   25.7450   31.1810 C   0  0  0  0  0  0  0  0  0  0  0  0
   35.5490   24.7760   31.1480 O   0  0  0  0  0  0  0  0  0  0  0  0
   40.0667   21.4494   37.8717 H   0  0  0  0  0  0  0  0  0  0  0  0
   42.7426   24.2145   34.7876 H   0  0  0  0  0  0  0  0  0  0  0  0
   43.2809   20.7994   38.2590 H   0  0  0  0  0  0  0  0  0  0  0  0
   41.7008   19.9395   37.9548 H   0  0  0  0  0  0  0  0  0  0  0  0
   43.7607   18.8159   37.0733 H   0  0  0  0  0  0  0  0  0  0  0  0
   42.4332   19.1131   35.9002 H   0  0  0  0  0  0  0  0  0  0  0  0
   43.8853   20.1705   35.9002 H   0  0  0  0  0  0  0  0  0  0  0  0
   39.0121   23.9486   38.9909 H   0  0  0  0  0  0  0  0  0  0  0  0
   37.3586   23.4367   38.5107 H   0  0  0  0  0  0  0  0  0  0  0  0
   38.7031   22.2455   38.5107 H   0  0  0  0  0  0  0  0  0  0  0  0
   38.4172   25.6486   37.5895 H   0  0  0  0  0  0  0  0  0  0  0  0
   39.3449   25.5402   36.0551 H   0  0  0  0  0  0  0  0  0  0  0  0
   37.5721   25.2510   36.0551 H   0  0  0  0  0  0  0  0  0  0  0  0
   38.0591   21.8058   36.0350 H   0  0  0  0  0  0  0  0  0  0  0  0
   36.7722   23.0502   36.3638 H   0  0  0  0  0  0  0  0  0  0  0  0
   38.5336   21.5799   33.4741 H   0  0  0  0  0  0  0  0  0  0  0  0
   39.1420   26.7545   32.7685 H   0  0  0  0  0  0  0  0  0  0  0  0
   38.7706   28.7576   31.2524 H   0  0  0  0  0  0  0  0  0  0  0  0
   35.2991   26.8177   29.7000 H   0  0  0  0  0  0  0  0  0  0  0  0
  1 10  1  0
  2  3  2  0
  2  8  1  0
  4  1  1  0
  4  3  1  0
  5  4  2  0
  6  5  1  0
  6  7  2  0
  7  2  1  0
  9  8  1  0
 11  1  1  0
 12  1  1  0
 13 12  1  0
 14 13  1  0
 15 16  1  0
 15 14  2  0
 16 17  2  0
 17 13  1  0
 18 19  1  0
 18 16  1  0
 20 19  2  0
 21 20  1  0
 22 21  2  0
 23 21  1  0
 23 24  1  0
 24 18  1  0
 25 24  2  0
  3 26  1  0
  6 27  1  0
  8 28  1  0
  8 29  1  0
  9 30  1  0
  9 31  1  0
  9 32  1  0
 10 33  1  0
 10 34  1  0
 10 35  1  0
 11 36  1  0
 11 37  1  0
 11 38  1  0
 12 39  1  0
 12 40  1  0
 14 41  1  0
 19 42  1  0
 20 43  1  0
 23 44  1  0
M  ISO  8  26  14  27  14  28   8  29   8  30   8  31   8  32   8  33   8
M  ISO  8  34   8  35   8  36   8  37   8  38   8  39   8  40   8  41  14
M  ISO  3  42  14  43  14  44   9
M  END
>  <minimizedAffinity>  (1) 
-5.55836582

>  <minimizedRMSD>  (1) 
1.38952374

$$$$
