
     RDKit          3D

 50 53  0  0  0  0  0  0  0  0999 V2000
   38.6530   23.6930   36.9080 C   0  0  0  0  0  0  0  0  0  0  0  0
   41.8680   21.7480   36.9070 C   0  0  0  0  0  0  0  0  0  0  0  0
   40.5700   22.1020   37.2130 C   0  0  0  0  0  0  0  0  0  0  0  0
   40.0110   23.2530   36.6380 C   0  0  0  0  0  0  0  0  0  0  0  0
   40.7840   23.9790   35.7960 N   0  0  0  0  0  0  0  0  0  0  0  0
   42.0580   23.6130   35.5080 C   0  0  0  0  0  0  0  0  0  0  0  0
   42.5900   22.4970   36.0690 N   0  0  0  0  0  0  0  0  0  0  0  0
   42.4210   20.5120   37.5500 C   0  0  0  0  0  0  0  0  0  0  0  0
   43.2110   19.6740   36.6120 C   0  0  0  0  0  0  0  0  0  0  0  0
   38.3900   23.4890   38.3920 C   0  0  0  0  0  0  0  0  0  0  0  0
   38.3700   25.1240   36.5310 C   0  0  0  0  0  0  0  0  0  0  0  0
   37.6710   22.8120   36.1310 C   0  0  0  0  0  0  0  0  0  0  0  0
   37.9320   22.8330   34.7150 N   0  0  0  0  0  0  0  0  0  0  0  0
   38.1140   21.8140   33.8460 C   0  0  0  0  0  0  0  0  0  0  0  0
   38.3360   22.3230   32.6150 N   0  0  0  0  0  0  0  0  0  0  0  0
   38.2960   23.6490   32.7000 C   0  0  0  0  0  0  0  0  0  0  0  0
   38.0520   23.9240   33.9790 N   0  0  0  0  0  0  0  0  0  0  0  0
   38.4440   24.8090   31.8030 C   0  0  0  0  0  0  0  0  0  0  0  0
   39.1720   24.7980   30.6100 C   0  0  0  0  0  0  0  0  0  0  0  0
   39.2810   25.9040   29.8070 C   0  0  0  0  0  0  0  0  0  0  0  0
   38.6760   27.0950   30.1340 C   0  0  0  0  0  0  0  0  0  0  0  0
   37.9500   27.1460   31.3010 C   0  0  0  0  0  0  0  0  0  0  0  0
   37.3600   28.3530   31.5920 C   0  0  0  0  0  0  0  0  0  0  0  0
   36.6160   28.4930   32.7390 C   0  0  0  0  0  0  0  0  0  0  0  0
   36.4860   27.4020   33.5670 C   0  0  0  0  0  0  0  0  0  0  0  0
   37.1030   26.2220   33.2150 C   0  0  0  0  0  0  0  0  0  0  0  0
   37.8560   26.0200   32.0900 C   0  0  0  0  0  0  0  0  0  0  0  0
   39.9768   21.4851   37.9040 H   0  0  0  0  0  0  0  0  0  0  0  0
   42.6614   24.2217   34.8185 H   0  0  0  0  0  0  0  0  0  0  0  0
   43.0714   20.8121   38.3848 H   0  0  0  0  0  0  0  0  0  0  0  0
   41.5671   19.9084   37.8914 H   0  0  0  0  0  0  0  0  0  0  0  0
   43.8553   18.9906   37.1846 H   0  0  0  0  0  0  0  0  0  0  0  0
   42.5279   19.0893   35.9784 H   0  0  0  0  0  0  0  0  0  0  0  0
   43.8349   20.3215   35.9784 H   0  0  0  0  0  0  0  0  0  0  0  0
   39.1262   24.0600   38.9767 H   0  0  0  0  0  0  0  0  0  0  0  0
   37.3763   23.8394   38.6363 H   0  0  0  0  0  0  0  0  0  0  0  0
   38.4773   22.4200   38.6363 H   0  0  0  0  0  0  0  0  0  0  0  0
   38.2508   25.7268   37.4434 H   0  0  0  0  0  0  0  0  0  0  0  0
   39.2074   25.5192   35.9372 H   0  0  0  0  0  0  0  0  0  0  0  0
   37.4452   25.1707   35.9372 H   0  0  0  0  0  0  0  0  0  0  0  0
   37.7592   21.7771   36.4931 H   0  0  0  0  0  0  0  0  0  0  0  0
   36.6573   23.2060   36.2957 H   0  0  0  0  0  0  0  0  0  0  0  0
   38.0859   20.7441   34.1001 H   0  0  0  0  0  0  0  0  0  0  0  0
   39.6755   23.8689   30.3044 H   0  0  0  0  0  0  0  0  0  0  0  0
   39.8668   25.8371   28.8784 H   0  0  0  0  0  0  0  0  0  0  0  0
   38.7696   27.9774   29.4839 H   0  0  0  0  0  0  0  0  0  0  0  0
   37.4832   29.2055   30.9078 H   0  0  0  0  0  0  0  0  0  0  0  0
   36.1374   29.4515   32.9883 H   0  0  0  0  0  0  0  0  0  0  0  0
   35.8990   27.4710   34.4947 H   0  0  0  0  0  0  0  0  0  0  0  0
   36.9799   25.3679   33.8971 H   0  0  0  0  0  0  0  0  0  0  0  0
  1 10  1  0
  2  3  2  0
  2  8  1  0
  4  1  1  0
  4  3  1  0
  5  4  2  0
  6  5  1  0
  6  7  2  0
  7  2  1  0
  9  8  1  0
 11  1  1  0
 12  1  1  0
 13 12  1  0
 14 13  1  0
 15 16  1  0
 15 14  2  0
 16 17  2  0
 17 13  1  0
 18 27  1  0
 18 16  1  0
 19 18  2  0
 20 21  2  0
 20 19  1  0
 21 22  1  0
 22 23  1  0
 22 27  2  0
 23 24  2  0
 24 25  1  0
 26 25  2  0
 27 26  1  0
  3 28  1  0
  6 29  1  0
  8 30  1  0
  8 31  1  0
  9 32  1  0
  9 33  1  0
  9 34  1  0
 10 35  1  0
 10 36  1  0
 10 37  1  0
 11 38  1  0
 11 39  1  0
 11 40  1  0
 12 41  1  0
 12 42  1  0
 14 43  1  0
 19 44  1  0
 20 45  1  0
 21 46  1  0
 23 47  1  0
 24 48  1  0
 25 49  1  0
 26 50  1  0
M  ISO  8  28  14  29  14  30   8  31   8  32   8  33   8  34   8  35   8
M  ISO  8  36   8  37   8  38   8  39   8  40   8  41   8  42   8  43  14
M  ISO  7  44  14  45  14  46  14  47  14  48  14  49  14  50  14
M  END
>  <minimizedAffinity>  (1) 
-5.52633524

>  <minimizedRMSD>  (1) 
0.730412066

$$$$
