
     RDKit          3D

 30 33  0  0  0  0  0  0  0  0999 V2000
   37.3330   22.9740   36.8140 C   0  0  0  0  0  0  0  0  0  0  0  0
   38.2500   22.7090   35.7800 C   0  0  0  0  0  0  0  0  0  0  0  0
   39.5940   22.7230   36.0740 C   0  0  0  0  0  0  0  0  0  0  0  0
   39.9720   22.9970   37.3640 N   0  0  0  0  0  0  0  0  0  0  0  0
   39.0710   23.2450   38.3250 C   0  0  0  0  0  0  0  0  0  0  0  0
   37.7530   23.2340   38.0520 N   0  0  0  0  0  0  0  0  0  0  0  0
   37.6890   22.4470   34.5120 N   0  0  0  0  0  0  0  0  0  0  0  0
   37.6440   23.2120   33.3690 C   0  0  0  0  0  0  0  0  0  0  0  0
   36.9860   22.5100   32.4080 N   0  0  0  0  0  0  0  0  0  0  0  0
   36.6350   21.3330   32.9620 C   0  0  0  0  0  0  0  0  0  0  0  0
   37.0730   21.3080   34.2520 N   0  0  0  0  0  0  0  0  0  0  0  0
   40.5030   22.4530   35.0180 N   0  0  0  0  0  0  0  0  0  0  0  0
   40.9940   21.3170   34.5110 N   0  0  0  0  0  0  0  0  0  0  0  0
   41.8260   21.5720   33.5100 C   0  0  0  0  0  0  0  0  0  0  0  0
   41.8810   22.9390   33.3530 C   0  0  0  0  0  0  0  0  0  0  0  0
   41.0380   23.4710   34.3150 C   0  0  0  0  0  0  0  0  0  0  0  0
   40.8410   24.8760   34.4530 N   0  0  0  0  0  0  0  0  0  0  0  0
   39.8420   25.6630   34.8890 C   0  0  0  0  0  0  0  0  0  0  0  0
   40.2380   26.9930   34.7850 C   0  0  0  0  0  0  0  0  0  0  0  0
   41.4870   27.0130   34.2820 N   0  0  0  0  0  0  0  0  0  0  0  0
   41.8330   25.7300   34.0900 C   0  0  0  0  0  0  0  0  0  0  0  0
   36.2545   22.9665   36.5976 H   0  0  0  0  0  0  0  0  0  0  0  0
   39.4126   23.4599   39.3483 H   0  0  0  0  0  0  0  0  0  0  0  0
   38.0683   24.2202   33.2525 H   0  0  0  0  0  0  0  0  0  0  0  0
   36.0854   20.5254   32.4562 H   0  0  0  0  0  0  0  0  0  0  0  0
   42.3728   20.8268   32.9135 H   0  0  0  0  0  0  0  0  0  0  0  0
   42.4745   23.4961   32.6131 H   0  0  0  0  0  0  0  0  0  0  0  0
   38.8700   25.3127   35.2664 H   0  0  0  0  0  0  0  0  0  0  0  0
   39.6377   27.8715   35.0640 H   0  0  0  0  0  0  0  0  0  0  0  0
   42.8046   25.4086   33.6866 H   0  0  0  0  0  0  0  0  0  0  0  0
  1  6  2  0
  2  3  2  0
  2  1  1  0
  3  4  1  0
  4  5  2  0
  6  5  1  0
  7  2  1  0
  8  7  1  0
  9 10  1  0
  9  8  2  0
 10 11  2  0
 11  7  1  0
 12  3  1  0
 13 12  1  0
 14 13  2  0
 15 14  1  0
 15 16  2  0
 16 17  1  0
 16 12  1  0
 17 18  1  0
 19 18  2  0
 20 19  1  0
 21 20  2  0
 21 17  1  0
  1 22  1  0
  5 23  1  0
  8 24  1  0
 10 25  1  0
 14 26  1  0
 15 27  1  0
 18 28  1  0
 19 29  1  0
 21 30  1  0
M  ISO  8  22  14  23  14  24  14  25  14  26  14  27  14  28  14  29  14
M  ISO  1  30  14
M  END
>  <minimizedAffinity>  (1) 
-3.9072578

>  <minimizedRMSD>  (1) 
1.06188762

$$$$
