
     RDKit          3D

 29 31  0  0  0  0  0  0  0  0999 V2000
   37.2800   22.4770   36.2140 C   0  0  0  0  0  0  0  0  0  0  0  0
   38.1380   23.3370   35.4990 C   0  0  0  0  0  0  0  0  0  0  0  0
   38.7990   24.3140   36.2150 C   0  0  0  0  0  0  0  0  0  0  0  0
   38.5970   24.4020   37.5600 N   0  0  0  0  0  0  0  0  0  0  0  0
   37.7800   23.5720   38.2010 C   0  0  0  0  0  0  0  0  0  0  0  0
   37.1210   22.6100   37.5310 N   0  0  0  0  0  0  0  0  0  0  0  0
   38.2300   23.1060   34.1140 N   0  0  0  0  0  0  0  0  0  0  0  0
   37.6490   23.7410   33.0560 C   0  0  0  0  0  0  0  0  0  0  0  0
   38.0560   23.1370   31.9110 N   0  0  0  0  0  0  0  0  0  0  0  0
   38.8830   22.1350   32.2670 C   0  0  0  0  0  0  0  0  0  0  0  0
   38.9790   22.1300   33.6310 N   0  0  0  0  0  0  0  0  0  0  0  0
   39.6640   25.1760   35.4700 N   0  0  0  0  0  0  0  0  0  0  0  0
   40.8580   25.0180   34.9050 N   0  0  0  0  0  0  0  0  0  0  0  0
   41.2650   26.1300   34.3130 C   0  0  0  0  0  0  0  0  0  0  0  0
   40.2900   27.0720   34.4970 C   0  0  0  0  0  0  0  0  0  0  0  0
   39.3030   26.4490   35.2230 C   0  0  0  0  0  0  0  0  0  0  0  0
   38.0550   27.1540   35.6300 C   0  0  0  0  0  0  0  0  0  0  0  0
   37.1280   27.2110   34.4520 C   0  0  0  0  0  0  0  0  0  0  0  0
   36.7346   21.6860   35.6784 H   0  0  0  0  0  0  0  0  0  0  0  0
   37.6419   23.6728   39.2876 H   0  0  0  0  0  0  0  0  0  0  0  0
   36.9645   24.5997   33.1201 H   0  0  0  0  0  0  0  0  0  0  0  0
   39.3919   21.4422   31.5807 H   0  0  0  0  0  0  0  0  0  0  0  0
   42.2127   26.2707   33.7726 H   0  0  0  0  0  0  0  0  0  0  0  0
   40.2949   28.1119   34.1384 H   0  0  0  0  0  0  0  0  0  0  0  0
   37.5731   26.6073   36.4540 H   0  0  0  0  0  0  0  0  0  0  0  0
   38.2939   28.1731   35.9682 H   0  0  0  0  0  0  0  0  0  0  0  0
   36.0885   27.2749   34.8062 H   0  0  0  0  0  0  0  0  0  0  0  0
   37.3630   28.0964   33.8430 H   0  0  0  0  0  0  0  0  0  0  0  0
   37.2527   26.3035   33.8430 H   0  0  0  0  0  0  0  0  0  0  0  0
  1  6  2  0
  2  1  1  0
  2  3  2  0
  3  4  1  0
  4  5  2  0
  6  5  1  0
  7  2  1  0
  8  7  1  0
  9 10  1  0
  9  8  2  0
 10 11  2  0
 11  7  1  0
 12  3  1  0
 13 12  1  0
 14 15  1  0
 14 13  2  0
 15 16  2  0
 16 12  1  0
 16 17  1  0
 18 17  1  0
  1 19  1  0
  5 20  1  0
  8 21  1  0
 10 22  1  0
 14 23  1  0
 15 24  1  0
 17 25  1  0
 17 26  1  0
 18 27  1  0
 18 28  1  0
 18 29  1  0
M  ISO  8  19  14  20  14  21  14  22  14  23  14  24  14  25   8  26   8
M  ISO  3  27   8  28   8  29   8
M  END
>  <minimizedAffinity>  (1) 
-3.9935739

>  <minimizedRMSD>  (1) 
2.52668285

$$$$
