
     RDKit          3D

 35 37  0  0  0  0  0  0  0  0999 V2000
   37.8260   23.2830   36.6490 C   0  0  0  0  0  0  0  0  0  0  0  0
   38.6060   23.0270   35.5130 C   0  0  0  0  0  0  0  0  0  0  0  0
   39.9590   22.7620   35.7110 C   0  0  0  0  0  0  0  0  0  0  0  0
   40.4410   22.7650   36.9890 N   0  0  0  0  0  0  0  0  0  0  0  0
   39.6610   23.0140   38.0420 C   0  0  0  0  0  0  0  0  0  0  0  0
   38.3520   23.2740   37.8730 N   0  0  0  0  0  0  0  0  0  0  0  0
   37.9560   23.0490   34.2780 N   0  0  0  0  0  0  0  0  0  0  0  0
   37.7980   24.0320   33.3500 C   0  0  0  0  0  0  0  0  0  0  0  0
   37.0820   23.5620   32.3090 N   0  0  0  0  0  0  0  0  0  0  0  0
   36.7890   22.2620   32.5990 C   0  0  0  0  0  0  0  0  0  0  0  0
   37.3360   21.9800   33.8070 N   0  0  0  0  0  0  0  0  0  0  0  0
   40.7620   22.5220   34.5570 N   0  0  0  0  0  0  0  0  0  0  0  0
   40.9170   21.4450   33.8090 N   0  0  0  0  0  0  0  0  0  0  0  0
   41.7710   21.6650   32.8260 C   0  0  0  0  0  0  0  0  0  0  0  0
   42.1890   22.9420   32.9420 C   0  0  0  0  0  0  0  0  0  0  0  0
   41.5460   23.5070   34.0540 C   0  0  0  0  0  0  0  0  0  0  0  0
   41.8490   24.8910   34.4130 C   0  0  0  0  0  0  0  0  0  0  0  0
   42.9120   24.8810   35.5300 C   0  0  0  0  0  0  0  0  0  0  0  0
   40.7590   25.7880   34.8350 C   0  0  0  0  0  0  0  0  0  0  0  0
   42.5350   25.6200   33.2730 C   0  0  0  0  0  0  0  0  0  0  0  0
   36.7538   23.4965   36.5270 H   0  0  0  0  0  0  0  0  0  0  0  0
   40.0907   23.0067   39.0546 H   0  0  0  0  0  0  0  0  0  0  0  0
   38.1943   25.0545   33.4363 H   0  0  0  0  0  0  0  0  0  0  0  0
   36.2137   21.5687   31.9678 H   0  0  0  0  0  0  0  0  0  0  0  0
   42.0828   20.9426   32.0572 H   0  0  0  0  0  0  0  0  0  0  0  0
   42.9069   23.4506   32.2818 H   0  0  0  0  0  0  0  0  0  0  0  0
   42.4135   24.8857   36.5106 H   0  0  0  0  0  0  0  0  0  0  0  0
   43.5319   23.9770   35.4381 H   0  0  0  0  0  0  0  0  0  0  0  0
   43.5488   25.7732   35.4381 H   0  0  0  0  0  0  0  0  0  0  0  0
   40.7171   25.8225   35.9337 H   0  0  0  0  0  0  0  0  0  0  0  0
   40.9438   26.7991   34.4432 H   0  0  0  0  0  0  0  0  0  0  0  0
   39.8023   25.4121   34.4432 H   0  0  0  0  0  0  0  0  0  0  0  0
   43.2349   26.3637   33.6818 H   0  0  0  0  0  0  0  0  0  0  0  0
   43.0879   24.8969   32.6553 H   0  0  0  0  0  0  0  0  0  0  0  0
   41.7797   26.1279   32.6553 H   0  0  0  0  0  0  0  0  0  0  0  0
  1  6  2  0
  2  3  2  0
  2  1  1  0
  3  4  1  0
  4  5  2  0
  6  5  1  0
  7  2  1  0
  8  7  1  0
  9 10  1  0
  9  8  2  0
 10 11  2  0
 11  7  1  0
 12  3  1  0
 13 12  1  0
 14 15  1  0
 14 13  2  0
 15 16  2  0
 16 17  1  0
 16 12  1  0
 17 19  1  0
 17 18  1  0
 20 17  1  0
  1 21  1  0
  5 22  1  0
  8 23  1  0
 10 24  1  0
 14 25  1  0
 15 26  1  0
 18 27  1  0
 18 28  1  0
 18 29  1  0
 19 30  1  0
 19 31  1  0
 19 32  1  0
 20 33  1  0
 20 34  1  0
 20 35  1  0
M  ISO  8  21  14  22  14  23  14  24  14  25  14  26  14  27   8  28   8
M  ISO  7  29   8  30   8  31   8  32   8  33   8  34   8  35   8
M  END
>  <minimizedAffinity>  (1) 
-3.72936821

>  <minimizedRMSD>  (1) 
1.05672204

$$$$
