
     RDKit          3D

 31 34  0  0  0  0  0  0  0  0999 V2000
   37.5740   22.7450   36.3290 C   0  0  0  0  0  0  0  0  0  0  0  0
   38.1990   22.4620   35.0950 C   0  0  0  0  0  0  0  0  0  0  0  0
   39.5730   22.4600   35.0490 C   0  0  0  0  0  0  0  0  0  0  0  0
   40.2750   22.7270   36.1800 N   0  0  0  0  0  0  0  0  0  0  0  0
   39.6660   22.9930   37.3350 C   0  0  0  0  0  0  0  0  0  0  0  0
   38.3200   23.0030   37.4120 N   0  0  0  0  0  0  0  0  0  0  0  0
   37.3280   22.2050   34.0170 N   0  0  0  0  0  0  0  0  0  0  0  0
   37.0990   22.9000   32.8660 C   0  0  0  0  0  0  0  0  0  0  0  0
   36.1590   22.2360   32.1420 N   0  0  0  0  0  0  0  0  0  0  0  0
   35.8140   21.1360   32.8550 C   0  0  0  0  0  0  0  0  0  0  0  0
   36.5420   21.1410   33.9930 N   0  0  0  0  0  0  0  0  0  0  0  0
   40.1810   22.1750   33.7810 N   0  0  0  0  0  0  0  0  0  0  0  0
   40.3880   21.0400   33.1020 N   0  0  0  0  0  0  0  0  0  0  0  0
   41.0000   21.2810   31.9540 C   0  0  0  0  0  0  0  0  0  0  0  0
   41.1990   22.6200   31.8780 C   0  0  0  0  0  0  0  0  0  0  0  0
   40.6770   23.1820   33.0400 C   0  0  0  0  0  0  0  0  0  0  0  0
   40.6880   24.6260   33.3620 C   0  0  0  0  0  0  0  0  0  0  0  0
   41.7960   25.1700   33.9750 C   0  0  0  0  0  0  0  0  0  0  0  0
   41.7330   26.5380   34.2480 C   0  0  0  0  0  0  0  0  0  0  0  0
   40.6470   27.2820   33.9280 N   0  0  0  0  0  0  0  0  0  0  0  0
   39.5860   26.7120   33.3310 C   0  0  0  0  0  0  0  0  0  0  0  0
   39.6370   25.3930   33.0640 N   0  0  0  0  0  0  0  0  0  0  0  0
   36.4764   22.7537   36.4013 H   0  0  0  0  0  0  0  0  0  0  0  0
   40.2658   23.2060   38.2321 H   0  0  0  0  0  0  0  0  0  0  0  0
   37.5915   23.8389   32.5730 H   0  0  0  0  0  0  0  0  0  0  0  0
   35.0749   20.3765   32.5603 H   0  0  0  0  0  0  0  0  0  0  0  0
   41.2928   20.5341   31.2014 H   0  0  0  0  0  0  0  0  0  0  0  0
   41.6829   23.1616   31.0519 H   0  0  0  0  0  0  0  0  0  0  0  0
   42.6765   24.5634   34.2335 H   0  0  0  0  0  0  0  0  0  0  0  0
   42.5895   27.0254   34.7368 H   0  0  0  0  0  0  0  0  0  0  0  0
   38.6994   27.3073   33.0675 H   0  0  0  0  0  0  0  0  0  0  0  0
  1  6  2  0
  2  1  1  0
  3  2  2  0
  3  4  1  0
  4  5  2  0
  5  6  1  0
  7  2  1  0
  8  7  1  0
  9 10  1  0
  9  8  2  0
 10 11  2  0
 11  7  1  0
 12  3  1  0
 13 12  1  0
 14 13  2  0
 15 14  1  0
 15 16  2  0
 16 17  1  0
 16 12  1  0
 17 18  2  0
 18 19  1  0
 20 19  2  0
 21 20  1  0
 22 21  2  0
 22 17  1  0
  1 23  1  0
  5 24  1  0
  8 25  1  0
 10 26  1  0
 14 27  1  0
 15 28  1  0
 18 29  1  0
 19 30  1  0
 21 31  1  0
M  ISO  8  23  14  24  14  25  14  26  14  27  14  28  14  29  14  30  14
M  ISO  1  31  14
M  END
>  <minimizedAffinity>  (1) 
-3.73577809

>  <minimizedRMSD>  (1) 
2.17414737

$$$$
