
     RDKit          3D

 45 48  0  0  0  0  0  0  0  0999 V2000
   38.6580   23.5620   37.0410 C   0  0  0  0  0  0  0  0  0  0  0  0
   41.9080   21.7090   36.9710 C   0  0  0  0  0  0  0  0  0  0  0  0
   40.6050   22.0230   37.2800 C   0  0  0  0  0  0  0  0  0  0  0  0
   40.0220   23.1780   36.7560 C   0  0  0  0  0  0  0  0  0  0  0  0
   40.7820   23.9640   35.9430 N   0  0  0  0  0  0  0  0  0  0  0  0
   42.0550   23.6350   35.6560 C   0  0  0  0  0  0  0  0  0  0  0  0
   42.6180   22.5090   36.1690 N   0  0  0  0  0  0  0  0  0  0  0  0
   42.4890   20.4640   37.5550 C   0  0  0  0  0  0  0  0  0  0  0  0
   43.2160   19.6340   36.5640 C   0  0  0  0  0  0  0  0  0  0  0  0
   38.3520   23.2300   38.4880 C   0  0  0  0  0  0  0  0  0  0  0  0
   38.3620   25.0280   36.7830 C   0  0  0  0  0  0  0  0  0  0  0  0
   37.7040   22.7670   36.1740 C   0  0  0  0  0  0  0  0  0  0  0  0
   37.9260   22.9730   34.7680 N   0  0  0  0  0  0  0  0  0  0  0  0
   38.1620   22.0790   33.7680 C   0  0  0  0  0  0  0  0  0  0  0  0
   38.3110   22.7430   32.5940 N   0  0  0  0  0  0  0  0  0  0  0  0
   38.1670   24.0440   32.8710 C   0  0  0  0  0  0  0  0  0  0  0  0
   37.9360   24.1650   34.1870 N   0  0  0  0  0  0  0  0  0  0  0  0
   38.2570   25.0740   31.8890 N   0  0  0  0  0  0  0  0  0  0  0  0
   39.2510   25.1370   30.9550 C   0  0  0  0  0  0  0  0  0  0  0  0
   39.1290   26.2000   30.1310 N   0  0  0  0  0  0  0  0  0  0  0  0
   38.0110   26.8440   30.5550 C   0  0  0  0  0  0  0  0  0  0  0  0
   37.3410   27.9910   30.1420 C   0  0  0  0  0  0  0  0  0  0  0  0
   36.2150   28.3780   30.7990 N   0  0  0  0  0  0  0  0  0  0  0  0
   35.7320   27.6650   31.8500 C   0  0  0  0  0  0  0  0  0  0  0  0
   36.3580   26.5340   32.2880 N   0  0  0  0  0  0  0  0  0  0  0  0
   37.4840   26.1520   31.6270 C   0  0  0  0  0  0  0  0  0  0  0  0
   40.0222   21.3638   37.9402 H   0  0  0  0  0  0  0  0  0  0  0  0
   42.6482   24.2862   34.9972 H   0  0  0  0  0  0  0  0  0  0  0  0
   43.1899   20.7474   38.3540 H   0  0  0  0  0  0  0  0  0  0  0  0
   41.6510   19.8600   37.9331 H   0  0  0  0  0  0  0  0  0  0  0  0
   43.8523   18.9075   37.0906 H   0  0  0  0  0  0  0  0  0  0  0  0
   42.4918   19.0977   35.9332 H   0  0  0  0  0  0  0  0  0  0  0  0
   43.8431   20.2812   35.9332 H   0  0  0  0  0  0  0  0  0  0  0  0
   38.9489   23.8777   39.1469 H   0  0  0  0  0  0  0  0  0  0  0  0
   37.2821   23.3944   38.6836 H   0  0  0  0  0  0  0  0  0  0  0  0
   38.6029   22.1770   38.6836 H   0  0  0  0  0  0  0  0  0  0  0  0
   38.2556   25.5550   37.7427 H   0  0  0  0  0  0  0  0  0  0  0  0
   39.1883   25.4735   36.2097 H   0  0  0  0  0  0  0  0  0  0  0  0
   37.4276   25.1180   36.2097 H   0  0  0  0  0  0  0  0  0  0  0  0
   37.8338   21.6978   36.3974 H   0  0  0  0  0  0  0  0  0  0  0  0
   36.6842   23.1104   36.4023 H   0  0  0  0  0  0  0  0  0  0  0  0
   38.2225   20.9878   33.8927 H   0  0  0  0  0  0  0  0  0  0  0  0
   40.0646   24.4003   30.8815 H   0  0  0  0  0  0  0  0  0  0  0  0
   37.7183   28.5791   29.2924 H   0  0  0  0  0  0  0  0  0  0  0  0
   34.8180   28.0062   32.3581 H   0  0  0  0  0  0  0  0  0  0  0  0
  1 10  1  0
  2  3  2  0
  2  8  1  0
  4  1  1  0
  4  3  1  0
  5  4  2  0
  6  5  1  0
  6  7  2  0
  7  2  1  0
  9  8  1  0
 11  1  1  0
 12  1  1  0
 13 12  1  0
 14 13  1  0
 15 16  1  0
 15 14  2  0
 16 17  2  0
 17 13  1  0
 18 16  1  0
 19 18  1  0
 20 21  1  0
 20 19  2  0
 21 26  2  0
 22 21  1  0
 22 23  2  0
 23 24  1  0
 24 25  2  0
 26 18  1  0
 26 25  1  0
  3 27  1  0
  6 28  1  0
  8 29  1  0
  8 30  1  0
  9 31  1  0
  9 32  1  0
  9 33  1  0
 10 34  1  0
 10 35  1  0
 10 36  1  0
 11 37  1  0
 11 38  1  0
 11 39  1  0
 12 40  1  0
 12 41  1  0
 14 42  1  0
 19 43  1  0
 22 44  1  0
 24 45  1  0
M  ISO  8  27  14  28  14  29   8  30   8  31   8  32   8  33   8  34   8
M  ISO  8  35   8  36   8  37   8  38   8  39   8  40   8  41   8  42  14
M  ISO  3  43  14  44  14  45  14
M  END
>  <minimizedAffinity>  (1) 
-5.36989832

>  <minimizedRMSD>  (1) 
1.03407681

$$$$
