
     RDKit          3D

 48 51  0  0  1  0  0  0  0  0999 V2000
   39.3190   24.7440   34.0040 N   0  0  0  0  0  0  0  0  0  0  0  0
   40.5600   24.6330   33.5030 N   0  0  0  0  0  0  0  0  0  0  0  0
   40.6750   25.3770   32.4020 C   0  0  0  0  0  0  0  0  0  0  0  0
   39.4760   25.9880   32.1790 C   0  0  0  0  0  0  0  0  0  0  0  0
   38.6210   25.5830   33.1960 C   0  0  0  0  0  0  0  0  0  0  0  0
   37.4500   22.3970   36.1180 C   0  0  0  0  0  0  0  0  0  0  0  0
   38.0770   22.9530   35.0080 C   0  0  0  0  0  0  0  0  0  0  0  0
   38.6760   24.1780   35.1450 C   0  0  0  0  0  0  0  0  0  0  0  0
   38.6250   24.7960   36.3710 N   0  0  0  0  0  0  0  0  0  0  0  0
   38.0210   24.2440   37.4130 C   0  0  0  0  0  0  0  0  0  0  0  0
   37.4210   23.0290   37.2990 N   0  0  0  0  0  0  0  0  0  0  0  0
   38.0440   22.1910   33.8130 N   0  0  0  0  0  0  0  0  0  0  0  0
   37.0920   22.0660   32.8460 C   0  0  0  0  0  0  0  0  0  0  0  0
   37.5530   21.2060   31.9040 N   0  0  0  0  0  0  0  0  0  0  0  0
   38.7870   20.8060   32.2920 C   0  0  0  0  0  0  0  0  0  0  0  0
   39.0700   21.4230   33.4720 N   0  0  0  0  0  0  0  0  0  0  0  0
   37.2130   26.0420   33.2730 C   0  0  2  0  0  0  0  0  0  0  0  0
   36.3880   25.6440   32.1010 C   0  0  0  0  0  0  0  0  0  0  0  0
   37.2300   27.5500   33.5110 C   0  0  0  0  0  0  0  0  0  0  0  0
   36.1920   28.2330   32.6630 C   0  0  0  0  0  0  0  0  0  0  0  0
   36.8420   29.0660   31.6080 C   0  0  0  0  0  0  0  0  0  0  0  0
   36.2520   30.4340   31.4350 C   0  0  0  0  0  0  0  0  0  0  0  0
   34.7570   30.4720   31.4920 C   0  0  0  0  0  0  0  0  0  0  0  0
   34.1680   29.5700   32.5290 C   0  0  0  0  0  0  0  0  0  0  0  0
   35.2890   29.1430   33.4610 C   0  0  0  0  0  0  0  0  0  0  0  0
   41.5782   25.4798   31.7826 H   0  0  0  0  0  0  0  0  0  0  0  0
   39.2327   26.6710   31.3518 H   0  0  0  0  0  0  0  0  0  0  0  0
   36.9658   21.4138   36.0239 H   0  0  0  0  0  0  0  0  0  0  0  0
   38.0047   24.7725   38.3776 H   0  0  0  0  0  0  0  0  0  0  0  0
   36.1170   22.5752   32.8319 H   0  0  0  0  0  0  0  0  0  0  0  0
   39.4429   20.1080   31.7510 H   0  0  0  0  0  0  0  0  0  0  0  0
   36.7141   25.5374   34.1135 H   0  0  0  0  0  0  0  0  0  0  0  0
   35.4487   25.1908   32.4507 H   0  0  0  0  0  0  0  0  0  0  0  0
   36.1624   26.5323   31.4928 H   0  0  0  0  0  0  0  0  0  0  0  0
   36.9429   24.9145   31.4928 H   0  0  0  0  0  0  0  0  0  0  0  0
   37.0190   27.7507   34.5718 H   0  0  0  0  0  0  0  0  0  0  0  0
   38.2219   27.9402   33.2391 H   0  0  0  0  0  0  0  0  0  0  0  0
   35.5892   27.4254   32.2222 H   0  0  0  0  0  0  0  0  0  0  0  0
   37.9042   29.1819   31.8695 H   0  0  0  0  0  0  0  0  0  0  0  0
   36.6848   28.5381   30.6558 H   0  0  0  0  0  0  0  0  0  0  0  0
   36.5694   30.8249   30.4570 H   0  0  0  0  0  0  0  0  0  0  0  0
   36.6147   31.0421   32.2768 H   0  0  0  0  0  0  0  0  0  0  0  0
   34.4447   31.5035   31.7122 H   0  0  0  0  0  0  0  0  0  0  0  0
   34.3908   30.1196   30.5165 H   0  0  0  0  0  0  0  0  0  0  0  0
   33.3934   30.1070   33.0962 H   0  0  0  0  0  0  0  0  0  0  0  0
   33.7043   28.6915   32.0567 H   0  0  0  0  0  0  0  0  0  0  0  0
   34.8776   28.6044   34.3274 H   0  0  0  0  0  0  0  0  0  0  0  0
   35.8414   30.0147   33.8418 H   0  0  0  0  0  0  0  0  0  0  0  0
  1  8  1  0
  2  1  1  0
  3  2  2  0
  4  3  1  0
  4  5  2  0
  5 17  1  0
  5  1  1  0
  6 11  2  0
  7  8  2  0
  7  6  1  0
  8  9  1  0
  9 10  2  0
 11 10  1  0
 12  7  1  0
 13 12  1  0
 14 15  1  0
 14 13  2  0
 15 16  2  0
 16 12  1  0
 17 19  1  0
 18 17  1  0
 20 25  1  0
 20 19  1  0
 21 20  1  0
 22 23  1  0
 22 21  1  0
 23 24  1  0
 24 25  1  0
  3 26  1  0
  4 27  1  0
  6 28  1  0
 10 29  1  0
 13 30  1  0
 15 31  1  0
 17 32  1  1
 18 33  1  0
 18 34  1  0
 18 35  1  0
 19 36  1  0
 19 37  1  0
 20 38  1  0
 21 39  1  0
 21 40  1  0
 22 41  1  0
 22 42  1  0
 23 43  1  0
 23 44  1  0
 24 45  1  0
 24 46  1  0
 25 47  1  0
 25 48  1  0
M  ISO  8  26  14  27  14  28  14  29  14  30  14  31  14  32   8  33   8
M  ISO  8  34   8  35   8  36   8  37   8  38  13  39  13  40  13  41  13
M  ISO  7  42  13  43  13  44  13  45  13  46  13  47  13  48  13
M  END
>  <minimizedAffinity>  (1) 
-4.79289055

>  <minimizedRMSD>  (1) 
1.1711905

$$$$
