
     RDKit          3D

 42 45  0  0  1  0  0  0  0  0999 V2000
   38.4150   22.9310   32.0370 N   0  0  0  0  0  0  0  0  0  0  0  0
   39.2070   22.2930   31.1660 N   0  0  0  0  0  0  0  0  0  0  0  0
   39.0370   22.7780   29.9360 C   0  0  0  0  0  0  0  0  0  0  0  0
   38.1000   23.7680   30.0070 C   0  0  0  0  0  0  0  0  0  0  0  0
   37.7110   23.8600   31.3360 C   0  0  0  0  0  0  0  0  0  0  0  0
   37.0870   21.7760   35.2580 C   0  0  0  0  0  0  0  0  0  0  0  0
   37.2860   21.8990   33.8830 C   0  0  0  0  0  0  0  0  0  0  0  0
   38.2130   22.8070   33.4450 C   0  0  0  0  0  0  0  0  0  0  0  0
   38.9030   23.5530   34.3700 N   0  0  0  0  0  0  0  0  0  0  0  0
   38.6900   23.4130   35.6770 C   0  0  0  0  0  0  0  0  0  0  0  0
   37.7760   22.5190   36.1310 N   0  0  0  0  0  0  0  0  0  0  0  0
   36.5000   21.0620   33.0500 N   0  0  0  0  0  0  0  0  0  0  0  0
   35.2020   21.1510   32.6470 C   0  0  0  0  0  0  0  0  0  0  0  0
   34.9430   20.0790   31.8450 N   0  0  0  0  0  0  0  0  0  0  0  0
   36.0750   19.3470   31.7620 C   0  0  0  0  0  0  0  0  0  0  0  0
   37.0170   19.9710   32.5110 N   0  0  0  0  0  0  0  0  0  0  0  0
   36.6920   24.8260   31.8010 C   0  0  2  0  0  0  0  0  0  0  0  0
   35.3130   24.5200   31.3420 C   0  0  0  0  0  0  0  0  0  0  0  0
   37.1440   26.2230   31.3820 C   0  0  0  0  0  0  0  0  0  0  0  0
   36.8010   27.1280   32.5120 C   0  0  0  0  0  0  0  0  0  0  0  0
   37.2550   26.9770   33.8060 C   0  0  0  0  0  0  0  0  0  0  0  0
   36.8640   27.8860   34.7690 C   0  0  0  0  0  0  0  0  0  0  0  0
   36.0190   28.9640   34.4800 C   0  0  0  0  0  0  0  0  0  0  0  0
   35.5920   29.0700   33.1700 C   0  0  0  0  0  0  0  0  0  0  0  0
   35.9630   28.1780   32.1790 C   0  0  0  0  0  0  0  0  0  0  0  0
   39.5579   22.4411   29.0276 H   0  0  0  0  0  0  0  0  0  0  0  0
   37.7250   24.3765   29.1709 H   0  0  0  0  0  0  0  0  0  0  0  0
   36.3477   21.0526   35.6324 H   0  0  0  0  0  0  0  0  0  0  0  0
   39.2582   24.0255   36.3925 H   0  0  0  0  0  0  0  0  0  0  0  0
   34.4908   21.9447   32.9194 H   0  0  0  0  0  0  0  0  0  0  0  0
   36.2081   18.4159   31.1916 H   0  0  0  0  0  0  0  0  0  0  0  0
   36.6231   24.7579   32.8967 H   0  0  0  0  0  0  0  0  0  0  0  0
   34.6597   24.3750   32.2150 H   0  0  0  0  0  0  0  0  0  0  0  0
   34.9344   25.3560   30.7355 H   0  0  0  0  0  0  0  0  0  0  0  0
   35.3236   23.6024   30.7355 H   0  0  0  0  0  0  0  0  0  0  0  0
   38.2289   26.2341   31.2006 H   0  0  0  0  0  0  0  0  0  0  0  0
   36.6516   26.5406   30.4511 H   0  0  0  0  0  0  0  0  0  0  0  0
   37.9211   26.1417   34.0677 H   0  0  0  0  0  0  0  0  0  0  0  0
   37.2291   27.7587   35.7988 H   0  0  0  0  0  0  0  0  0  0  0  0
   35.7124   29.6855   35.2516 H   0  0  0  0  0  0  0  0  0  0  0  0
   34.9255   29.9031   32.9021 H   0  0  0  0  0  0  0  0  0  0  0  0
   35.5994   28.3010   31.1481 H   0  0  0  0  0  0  0  0  0  0  0  0
  1  8  1  0
  2  1  1  0
  3  4  1  0
  3  2  2  0
  4  5  2  0
  5 17  1  0
  5  1  1  0
  6 11  2  0
  7  6  1  0
  8  7  2  0
  8  9  1  0
  9 10  2  0
 10 11  1  0
 12  7  1  0
 13 12  1  0
 14 13  2  0
 15 14  1  0
 15 16  2  0
 16 12  1  0
 18 17  1  0
 19 17  1  0
 19 20  1  0
 20 21  2  0
 21 22  1  0
 23 22  2  0
 24 23  1  0
 25 20  1  0
 25 24  2  0
  3 26  1  0
  4 27  1  0
  6 28  1  0
 10 29  1  0
 13 30  1  0
 15 31  1  0
 17 32  1  1
 18 33  1  0
 18 34  1  0
 18 35  1  0
 19 36  1  0
 19 37  1  0
 21 38  1  0
 22 39  1  0
 23 40  1  0
 24 41  1  0
 25 42  1  0
M  ISO  8  26  14  27  14  28  14  29  14  30  14  31  14  32   8  33   8
M  ISO  8  34   8  35   8  36   8  37   8  38  14  39  14  40  14  41  14
M  ISO  1  42  14
M  END
>  <minimizedAffinity>  (1) 
-5.07217121

>  <minimizedRMSD>  (1) 
2.79992247

$$$$
