
     RDKit          3D

 42 45  0  0  1  0  0  0  0  0999 V2000
   39.2330   24.7610   33.8710 N   0  0  0  0  0  0  0  0  0  0  0  0
   40.4390   24.6680   33.3260 N   0  0  0  0  0  0  0  0  0  0  0  0
   40.5130   25.4000   32.2150 C   0  0  0  0  0  0  0  0  0  0  0  0
   39.2960   25.9920   32.0340 C   0  0  0  0  0  0  0  0  0  0  0  0
   38.4900   25.5810   33.0900 C   0  0  0  0  0  0  0  0  0  0  0  0
   37.4530   22.4070   36.0700 C   0  0  0  0  0  0  0  0  0  0  0  0
   38.0390   22.9670   34.9290 C   0  0  0  0  0  0  0  0  0  0  0  0
   38.6370   24.1950   35.0410 C   0  0  0  0  0  0  0  0  0  0  0  0
   38.6320   24.8130   36.2690 N   0  0  0  0  0  0  0  0  0  0  0  0
   38.0670   24.2580   37.3380 C   0  0  0  0  0  0  0  0  0  0  0  0
   37.4720   23.0460   37.2430 N   0  0  0  0  0  0  0  0  0  0  0  0
   37.9610   22.2010   33.7370 N   0  0  0  0  0  0  0  0  0  0  0  0
   36.9880   22.1090   32.7860 C   0  0  0  0  0  0  0  0  0  0  0  0
   37.4030   21.2280   31.8400 N   0  0  0  0  0  0  0  0  0  0  0  0
   38.6290   20.7820   32.2130 C   0  0  0  0  0  0  0  0  0  0  0  0
   38.9510   21.3960   33.3850 N   0  0  0  0  0  0  0  0  0  0  0  0
   37.0770   26.0260   33.2140 C   0  0  2  0  0  0  0  0  0  0  0  0
   36.2910   25.8880   31.9580 C   0  0  0  0  0  0  0  0  0  0  0  0
   37.0870   27.4480   33.7620 C   0  0  0  0  0  0  0  0  0  0  0  0
   36.5030   28.4190   32.8110 C   0  0  0  0  0  0  0  0  0  0  0  0
   35.2700   28.9880   33.1420 C   0  0  0  0  0  0  0  0  0  0  0  0
   34.6280   29.9060   32.3320 C   0  0  0  0  0  0  0  0  0  0  0  0
   35.2510   30.2590   31.1540 C   0  0  0  0  0  0  0  0  0  0  0  0
   36.4770   29.7290   30.7720 C   0  0  0  0  0  0  0  0  0  0  0  0
   37.0610   28.8210   31.6220 C   0  0  0  0  0  0  0  0  0  0  0  0
   41.3928   25.5076   31.5635 H   0  0  0  0  0  0  0  0  0  0  0  0
   39.0087   26.6640   31.2119 H   0  0  0  0  0  0  0  0  0  0  0  0
   36.9677   21.4223   35.9996 H   0  0  0  0  0  0  0  0  0  0  0  0
   38.0835   24.7861   38.3028 H   0  0  0  0  0  0  0  0  0  0  0  0
   36.0325   22.6541   32.7854 H   0  0  0  0  0  0  0  0  0  0  0  0
   39.2501   20.0562   31.6676 H   0  0  0  0  0  0  0  0  0  0  0  0
   36.5493   25.3603   33.9128 H   0  0  0  0  0  0  0  0  0  0  0  0
   35.2352   25.7026   32.2047 H   0  0  0  0  0  0  0  0  0  0  0  0
   36.3731   26.8143   31.3704 H   0  0  0  0  0  0  0  0  0  0  0  0
   36.6837   25.0451   31.3704 H   0  0  0  0  0  0  0  0  0  0  0  0
   36.5045   27.4720   34.6948 H   0  0  0  0  0  0  0  0  0  0  0  0
   38.1346   27.7349   33.9358 H   0  0  0  0  0  0  0  0  0  0  0  0
   34.7903   28.6929   34.0869 H   0  0  0  0  0  0  0  0  0  0  0  0
   33.6573   30.3382   32.6165 H   0  0  0  0  0  0  0  0  0  0  0  0
   34.7593   30.9871   30.4922 H   0  0  0  0  0  0  0  0  0  0  0  0
   36.9600   30.0238   29.8287 H   0  0  0  0  0  0  0  0  0  0  0  0
   38.0316   28.3911   31.3336 H   0  0  0  0  0  0  0  0  0  0  0  0
  1  8  1  0
  2  1  1  0
  3  2  2  0
  4  3  1  0
  4  5  2  0
  5 17  1  0
  5  1  1  0
  6 11  2  0
  7  8  2  0
  7  6  1  0
  8  9  1  0
  9 10  2  0
 11 10  1  0
 12  7  1  0
 13 12  1  0
 14 15  1  0
 14 13  2  0
 15 16  2  0
 16 12  1  0
 17 19  1  0
 18 17  1  0
 20 21  2  0
 20 19  1  0
 22 21  1  0
 23 22  2  0
 24 23  1  0
 24 25  2  0
 25 20  1  0
  3 26  1  0
  4 27  1  0
  6 28  1  0
 10 29  1  0
 13 30  1  0
 15 31  1  0
 17 32  1  1
 18 33  1  0
 18 34  1  0
 18 35  1  0
 19 36  1  0
 19 37  1  0
 21 38  1  0
 22 39  1  0
 23 40  1  0
 24 41  1  0
 25 42  1  0
M  ISO  8  26  14  27  14  28  14  29  14  30  14  31  14  32   8  33   8
M  ISO  8  34   8  35   8  36   8  37   8  38  14  39  14  40  14  41  14
M  ISO  1  42  14
M  END
>  <minimizedAffinity>  (1) 
-4.85041714

>  <minimizedRMSD>  (1) 
1.67648184

$$$$
