
     RDKit          3D

 37 40  0  0  1  0  0  0  0  0999 V2000
   39.2660   24.8150   33.9620 N   0  0  0  0  0  0  0  0  0  0  0  0
   40.4950   24.7460   33.4460 N   0  0  0  0  0  0  0  0  0  0  0  0
   40.5830   25.4760   32.3400 C   0  0  0  0  0  0  0  0  0  0  0  0
   39.3620   26.0460   32.1250 C   0  0  0  0  0  0  0  0  0  0  0  0
   38.5320   25.6230   33.1570 C   0  0  0  0  0  0  0  0  0  0  0  0
   37.4750   22.4360   36.1150 C   0  0  0  0  0  0  0  0  0  0  0  0
   38.0780   23.0040   34.9880 C   0  0  0  0  0  0  0  0  0  0  0  0
   38.6510   24.2410   35.1150 C   0  0  0  0  0  0  0  0  0  0  0  0
   38.6100   24.8680   36.3370 N   0  0  0  0  0  0  0  0  0  0  0  0
   38.0260   24.2980   37.3970 C   0  0  0  0  0  0  0  0  0  0  0  0
   37.4520   23.0730   37.2900 N   0  0  0  0  0  0  0  0  0  0  0  0
   38.0420   22.2360   33.7970 N   0  0  0  0  0  0  0  0  0  0  0  0
   37.0920   22.1290   32.8220 C   0  0  0  0  0  0  0  0  0  0  0  0
   37.5490   21.2520   31.8880 N   0  0  0  0  0  0  0  0  0  0  0  0
   38.7630   20.8280   32.2910 C   0  0  0  0  0  0  0  0  0  0  0  0
   39.0440   21.4470   33.4660 N   0  0  0  0  0  0  0  0  0  0  0  0
   37.1130   26.0440   33.2390 C   0  0  2  0  0  0  0  0  0  0  0  0
   36.3550   25.8770   31.9710 C   0  0  0  0  0  0  0  0  0  0  0  0
   37.0790   27.4700   33.7800 C   0  0  0  0  0  0  0  0  0  0  0  0
   36.5050   28.3150   32.6990 C   0  0  0  0  0  0  0  0  0  0  0  0
   35.2400   28.7660   32.6310 N   0  0  0  0  0  0  0  0  0  0  0  0
   35.0950   29.4710   31.5520 O   0  0  0  0  0  0  0  0  0  0  0  0
   36.2260   29.5060   30.8940 C   0  0  0  0  0  0  0  0  0  0  0  0
   37.1330   28.7910   31.5840 N   0  0  0  0  0  0  0  0  0  0  0  0
   41.4775   25.5988   31.7116 H   0  0  0  0  0  0  0  0  0  0  0  0
   39.0871   26.7125   31.2942 H   0  0  0  0  0  0  0  0  0  0  0  0
   37.0093   21.4429   36.0326 H   0  0  0  0  0  0  0  0  0  0  0  0
   38.0110   24.8259   38.3619 H   0  0  0  0  0  0  0  0  0  0  0  0
   36.1280   22.6582   32.7964 H   0  0  0  0  0  0  0  0  0  0  0  0
   39.4089   20.1106   31.7636 H   0  0  0  0  0  0  0  0  0  0  0  0
   36.5825   25.3721   33.9298 H   0  0  0  0  0  0  0  0  0  0  0  0
   35.3042   25.6455   32.1997 H   0  0  0  0  0  0  0  0  0  0  0  0
   36.4067   26.8081   31.3875 H   0  0  0  0  0  0  0  0  0  0  0  0
   36.7932   25.0539   31.3875 H   0  0  0  0  0  0  0  0  0  0  0  0
   36.4471   27.5210   34.6790 H   0  0  0  0  0  0  0  0  0  0  0  0
   38.0849   27.8134   34.0633 H   0  0  0  0  0  0  0  0  0  0  0  0
   36.4039   30.0289   29.9427 H   0  0  0  0  0  0  0  0  0  0  0  0
  1  8  1  0
  2  1  1  0
  3  2  2  0
  4  3  1  0
  4  5  2  0
  5 17  1  0
  5  1  1  0
  6 11  2  0
  7  8  2  0
  7  6  1  0
  8  9  1  0
  9 10  2  0
 11 10  1  0
 12  7  1  0
 13 12  1  0
 14 15  1  0
 14 13  2  0
 15 16  2  0
 16 12  1  0
 17 19  1  0
 18 17  1  0
 20 19  1  0
 21 20  2  0
 22 21  1  0
 23 22  1  0
 23 24  2  0
 24 20  1  0
  3 25  1  0
  4 26  1  0
  6 27  1  0
 10 28  1  0
 13 29  1  0
 15 30  1  0
 17 31  1  1
 18 32  1  0
 18 33  1  0
 18 34  1  0
 19 35  1  0
 19 36  1  0
 23 37  1  0
M  ISO  8  25  14  26  14  27  14  28  14  29  14  30  14  31   8  32   8
M  ISO  5  33   8  34   8  35   8  36   8  37  14
M  END
>  <minimizedAffinity>  (1) 
-4.47439384

>  <minimizedRMSD>  (1) 
1.4712671

$$$$
