
     RDKit          3D

 44 47  0  0  1  0  0  0  0  0999 V2000
   37.7120   25.2020   33.8540 N   0  0  0  0  0  0  0  0  0  0  0  0
   37.3650   26.4570   34.1360 N   0  0  0  0  0  0  0  0  0  0  0  0
   36.6990   27.0080   33.1140 C   0  0  0  0  0  0  0  0  0  0  0  0
   36.6100   26.0750   32.1310 C   0  0  0  0  0  0  0  0  0  0  0  0
   37.2490   24.9380   32.6010 C   0  0  0  0  0  0  0  0  0  0  0  0
   40.4850   23.2680   35.2910 C   0  0  0  0  0  0  0  0  0  0  0  0
   39.7870   24.2590   34.5950 C   0  0  0  0  0  0  0  0  0  0  0  0
   38.4110   24.1840   34.5670 C   0  0  0  0  0  0  0  0  0  0  0  0
   37.7990   23.1500   35.2180 N   0  0  0  0  0  0  0  0  0  0  0  0
   38.4870   22.2200   35.8730 C   0  0  0  0  0  0  0  0  0  0  0  0
   39.8460   22.2760   35.9130 N   0  0  0  0  0  0  0  0  0  0  0  0
   40.5710   25.2630   33.9720 N   0  0  0  0  0  0  0  0  0  0  0  0
   41.0370   25.3650   32.6870 C   0  0  0  0  0  0  0  0  0  0  0  0
   41.7470   26.5280   32.5960 N   0  0  0  0  0  0  0  0  0  0  0  0
   41.7100   27.1210   33.8190 C   0  0  0  0  0  0  0  0  0  0  0  0
   40.9820   26.3210   34.6390 N   0  0  0  0  0  0  0  0  0  0  0  0
   37.3600   23.6980   31.7690 C   0  0  2  0  0  0  0  0  0  0  0  0
   37.8540   23.9460   30.3880 C   0  0  0  0  0  0  0  0  0  0  0  0
   36.0150   22.9990   31.8250 C   0  0  0  0  0  0  0  0  0  0  0  0
   36.0880   21.5950   31.6070 N   0  0  0  0  0  0  0  0  0  0  0  0
   37.2160   20.9420   32.2120 C   0  0  0  0  0  0  0  0  0  0  0  0
   36.7520   19.4910   32.2360 C   0  0  0  0  0  0  0  0  0  0  0  0
   35.3600   19.6980   32.8490 C   0  0  0  0  0  0  0  0  0  0  0  0
   34.8930   20.8880   32.0100 C   0  0  0  0  0  0  0  0  0  0  0  0
   36.2966   28.0311   33.0770 H   0  0  0  0  0  0  0  0  0  0  0  0
   36.1248   26.1978   31.1515 H   0  0  0  0  0  0  0  0  0  0  0  0
   41.5837   23.3070   35.3265 H   0  0  0  0  0  0  0  0  0  0  0  0
   37.9563   21.4031   36.3840 H   0  0  0  0  0  0  0  0  0  0  0  0
   40.8694   24.6411   31.8759 H   0  0  0  0  0  0  0  0  0  0  0  0
   42.1836   28.0750   34.0938 H   0  0  0  0  0  0  0  0  0  0  0  0
   38.1365   23.0385   32.1838 H   0  0  0  0  0  0  0  0  0  0  0  0
   38.8363   24.4391   30.4330 H   0  0  0  0  0  0  0  0  0  0  0  0
   37.9485   22.9885   29.8549 H   0  0  0  0  0  0  0  0  0  0  0  0
   37.1426   24.5938   29.8549 H   0  0  0  0  0  0  0  0  0  0  0  0
   35.5746   23.1734   32.8178 H   0  0  0  0  0  0  0  0  0  0  0  0
   35.4023   23.4178   31.0131 H   0  0  0  0  0  0  0  0  0  0  0  0
   38.1242   21.0632   31.6033 H   0  0  0  0  0  0  0  0  0  0  0  0
   37.4880   21.3417   33.2001 H   0  0  0  0  0  0  0  0  0  0  0  0
   36.6984   19.0577   31.2263 H   0  0  0  0  0  0  0  0  0  0  0  0
   37.4084   18.7918   32.7748 H   0  0  0  0  0  0  0  0  0  0  0  0
   34.7146   18.8183   32.7094 H   0  0  0  0  0  0  0  0  0  0  0  0
   35.3452   19.8563   33.9374 H   0  0  0  0  0  0  0  0  0  0  0  0
   34.2454   21.5453   32.6088 H   0  0  0  0  0  0  0  0  0  0  0  0
   34.3108   20.5575   31.1372 H   0  0  0  0  0  0  0  0  0  0  0  0
  1  2  1  0
  1  8  1  0
  3  2  2  0
  4  5  2  0
  4  3  1  0
  5  1  1  0
  6 11  2  0
  7  6  1  0
  8  7  2  0
  8  9  1  0
  9 10  2  0
 10 11  1  0
 12  7  1  0
 12 16  1  0
 13 12  1  0
 14 13  2  0
 14 15  1  0
 15 16  2  0
 17 19  1  0
 17  5  1  0
 18 17  1  0
 20 19  1  0
 20 24  1  0
 20 21  1  0
 21 22  1  0
 22 23  1  0
 24 23  1  0
  3 25  1  0
  4 26  1  0
  6 27  1  0
 10 28  1  0
 13 29  1  0
 15 30  1  0
 17 31  1  1
 18 32  1  0
 18 33  1  0
 18 34  1  0
 19 35  1  0
 19 36  1  0
 21 37  1  0
 21 38  1  0
 22 39  1  0
 22 40  1  0
 23 41  1  0
 23 42  1  0
 24 43  1  0
 24 44  1  0
M  ISO  8  25  14  26  14  27  14  28  14  29  14  30  14  31   8  32   8
M  ISO  8  33   8  34   8  35   8  36   8  37  13  38  13  39  13  40  13
M  ISO  4  41  13  42  13  43  13  44  13
M  END
>  <minimizedAffinity>  (1) 
-4.55946636

>  <minimizedRMSD>  (1) 
5.02713823

$$$$
