
     RDKit          3D

 39 42  0  0  1  0  0  0  0  0999 V2000
   39.2190   24.7670   33.8520 N   0  0  0  0  0  0  0  0  0  0  0  0
   40.4300   24.6790   33.3090 N   0  0  0  0  0  0  0  0  0  0  0  0
   40.5090   25.4040   32.1990 C   0  0  0  0  0  0  0  0  0  0  0  0
   39.2930   25.9910   32.0110 C   0  0  0  0  0  0  0  0  0  0  0  0
   38.4820   25.5820   33.0630 C   0  0  0  0  0  0  0  0  0  0  0  0
   37.4490   22.4190   36.0520 C   0  0  0  0  0  0  0  0  0  0  0  0
   38.0330   22.9730   34.9140 C   0  0  0  0  0  0  0  0  0  0  0  0
   38.6230   24.2040   35.0210 C   0  0  0  0  0  0  0  0  0  0  0  0
   38.6110   24.8310   36.2430 N   0  0  0  0  0  0  0  0  0  0  0  0
   38.0450   24.2780   37.3130 C   0  0  0  0  0  0  0  0  0  0  0  0
   37.4550   23.0580   37.2260 N   0  0  0  0  0  0  0  0  0  0  0  0
   37.9640   22.1990   33.7270 N   0  0  0  0  0  0  0  0  0  0  0  0
   36.9990   22.1020   32.7680 C   0  0  0  0  0  0  0  0  0  0  0  0
   37.4270   21.2110   31.8320 N   0  0  0  0  0  0  0  0  0  0  0  0
   38.6430   20.7710   32.2180 C   0  0  0  0  0  0  0  0  0  0  0  0
   38.9490   21.3930   33.3830 N   0  0  0  0  0  0  0  0  0  0  0  0
   37.0690   26.0210   33.1770 C   0  0  2  0  0  0  0  0  0  0  0  0
   36.3060   25.9240   31.9060 C   0  0  0  0  0  0  0  0  0  0  0  0
   37.0660   27.4230   33.7810 C   0  0  0  0  0  0  0  0  0  0  0  0
   36.5900   28.3390   32.7100 C   0  0  0  0  0  0  0  0  0  0  0  0
   35.3460   28.9770   32.6960 C   0  0  0  0  0  0  0  0  0  0  0  0
   35.2630   29.7460   31.5420 C   0  0  0  0  0  0  0  0  0  0  0  0
   36.4830   29.5290   30.9060 C   0  0  0  0  0  0  0  0  0  0  0  0
   37.2210   28.7090   31.6160 O   0  0  0  0  0  0  0  0  0  0  0  0
   41.3918   25.5110   31.5515 H   0  0  0  0  0  0  0  0  0  0  0  0
   39.0084   26.6598   31.1854 H   0  0  0  0  0  0  0  0  0  0  0  0
   36.9710   21.4307   35.9821 H   0  0  0  0  0  0  0  0  0  0  0  0
   38.0552   24.8127   38.2743 H   0  0  0  0  0  0  0  0  0  0  0  0
   36.0438   22.6473   32.7535 H   0  0  0  0  0  0  0  0  0  0  0  0
   39.2706   20.0415   31.6851 H   0  0  0  0  0  0  0  0  0  0  0  0
   36.5284   25.3310   33.8416 H   0  0  0  0  0  0  0  0  0  0  0  0
   35.2375   25.7882   32.1292 H   0  0  0  0  0  0  0  0  0  0  0  0
   36.4445   26.8470   31.3238 H   0  0  0  0  0  0  0  0  0  0  0  0
   36.6710   25.0650   31.3238 H   0  0  0  0  0  0  0  0  0  0  0  0
   36.3875   27.4635   34.6459 H   0  0  0  0  0  0  0  0  0  0  0  0
   38.0681   27.7079   34.1341 H   0  0  0  0  0  0  0  0  0  0  0  0
   34.5665   28.8857   33.4667 H   0  0  0  0  0  0  0  0  0  0  0  0
   34.4278   30.3792   31.2081 H   0  0  0  0  0  0  0  0  0  0  0  0
   36.7837   29.9793   29.9485 H   0  0  0  0  0  0  0  0  0  0  0  0
  1  8  1  0
  2  1  1  0
  3  2  2  0
  4  3  1  0
  4  5  2  0
  5 17  1  0
  5  1  1  0
  6 11  2  0
  7  8  2  0
  7  6  1  0
  8  9  1  0
  9 10  2  0
 11 10  1  0
 12  7  1  0
 13 12  1  0
 14 15  1  0
 14 13  2  0
 15 16  2  0
 16 12  1  0
 17 19  1  0
 18 17  1  0
 20 19  1  0
 21 20  2  0
 22 21  1  0
 23 22  2  0
 23 24  1  0
 24 20  1  0
  3 25  1  0
  4 26  1  0
  6 27  1  0
 10 28  1  0
 13 29  1  0
 15 30  1  0
 17 31  1  1
 18 32  1  0
 18 33  1  0
 18 34  1  0
 19 35  1  0
 19 36  1  0
 21 37  1  0
 22 38  1  0
 23 39  1  0
M  ISO  8  25  14  26  14  27  14  28  14  29  14  30  14  31   8  32   8
M  ISO  7  33   8  34   8  35   8  36   8  37  14  38  14  39  14
M  END
>  <minimizedAffinity>  (1) 
-4.52168274

>  <minimizedRMSD>  (1) 
1.53807116

$$$$
