
     RDKit          3D

 39 42  0  0  1  0  0  0  0  0999 V2000
   39.2940   24.8270   33.9980 N   0  0  0  0  0  0  0  0  0  0  0  0
   40.5390   24.7510   33.4970 N   0  0  0  0  0  0  0  0  0  0  0  0
   40.6430   25.4880   32.3930 C   0  0  0  0  0  0  0  0  0  0  0  0
   39.4300   26.0660   32.1630 C   0  0  0  0  0  0  0  0  0  0  0  0
   38.5870   25.6420   33.1840 C   0  0  0  0  0  0  0  0  0  0  0  0
   37.4740   22.4360   36.1170 C   0  0  0  0  0  0  0  0  0  0  0  0
   38.0970   23.0120   35.0010 C   0  0  0  0  0  0  0  0  0  0  0  0
   38.6630   24.2510   35.1360 C   0  0  0  0  0  0  0  0  0  0  0  0
   38.5920   24.8680   36.3620 N   0  0  0  0  0  0  0  0  0  0  0  0
   37.9970   24.3040   37.4060 C   0  0  0  0  0  0  0  0  0  0  0  0
   37.4320   23.0790   37.2880 N   0  0  0  0  0  0  0  0  0  0  0  0
   38.0850   22.2440   33.8080 N   0  0  0  0  0  0  0  0  0  0  0  0
   37.1500   22.1220   32.8200 C   0  0  0  0  0  0  0  0  0  0  0  0
   37.6300   21.2530   31.8930 N   0  0  0  0  0  0  0  0  0  0  0  0
   38.8500   20.8460   32.3100 C   0  0  0  0  0  0  0  0  0  0  0  0
   39.1000   21.4700   33.4860 N   0  0  0  0  0  0  0  0  0  0  0  0
   37.1610   26.0700   33.2550 C   0  0  2  0  0  0  0  0  0  0  0  0
   36.3700   25.7310   32.0420 C   0  0  0  0  0  0  0  0  0  0  0  0
   37.1400   27.5600   33.5820 C   0  0  0  0  0  0  0  0  0  0  0  0
   36.0820   28.1690   32.6730 C   0  0  0  0  0  0  0  0  0  0  0  0
   35.4400   29.4490   33.1000 C   0  0  0  0  0  0  0  0  0  0  0  0
   36.4090   29.4590   31.9750 C   0  0  0  0  0  0  0  0  0  0  0  0
   41.5461   25.6089   31.7768 H   0  0  0  0  0  0  0  0  0  0  0  0
   39.1690   26.7372   31.3315 H   0  0  0  0  0  0  0  0  0  0  0  0
   37.0134   21.4411   36.0277 H   0  0  0  0  0  0  0  0  0  0  0  0
   37.9628   24.8332   38.3697 H   0  0  0  0  0  0  0  0  0  0  0  0
   36.1788   22.6370   32.7817 H   0  0  0  0  0  0  0  0  0  0  0  0
   39.5152   20.1401   31.7912 H   0  0  0  0  0  0  0  0  0  0  0  0
   36.6564   25.5034   34.0515 H   0  0  0  0  0  0  0  0  0  0  0  0
   35.3975   25.3142   32.3430 H   0  0  0  0  0  0  0  0  0  0  0  0
   36.2099   26.6395   31.4429 H   0  0  0  0  0  0  0  0  0  0  0  0
   36.9175   24.9885   31.4429 H   0  0  0  0  0  0  0  0  0  0  0  0
   36.8742   27.7168   34.6378 H   0  0  0  0  0  0  0  0  0  0  0  0
   38.1251   28.0232   33.4238 H   0  0  0  0  0  0  0  0  0  0  0  0
   35.7185   27.1797   32.3581 H   0  0  0  0  0  0  0  0  0  0  0  0
   34.3708   29.6182   32.9044 H   0  0  0  0  0  0  0  0  0  0  0  0
   35.3540   29.9920   34.0528 H   0  0  0  0  0  0  0  0  0  0  0  0
   37.3993   29.9196   32.1062 H   0  0  0  0  0  0  0  0  0  0  0  0
   36.3856   29.8063   30.9315 H   0  0  0  0  0  0  0  0  0  0  0  0
  1  8  1  0
  2  1  1  0
  3  2  2  0
  4  3  1  0
  4  5  2  0
  5 17  1  0
  5  1  1  0
  6 11  2  0
  7  8  2  0
  7  6  1  0
  8  9  1  0
  9 10  2  0
 11 10  1  0
 12  7  1  0
 13 12  1  0
 14 15  1  0
 14 13  2  0
 15 16  2  0
 16 12  1  0
 17 19  1  0
 18 17  1  0
 20 21  1  0
 20 19  1  0
 22 20  1  0
 22 21  1  0
  3 23  1  0
  4 24  1  0
  6 25  1  0
 10 26  1  0
 13 27  1  0
 15 28  1  0
 17 29  1  1
 18 30  1  0
 18 31  1  0
 18 32  1  0
 19 33  1  0
 19 34  1  0
 20 35  1  0
 21 36  1  0
 21 37  1  0
 22 38  1  0
 22 39  1  0
M  ISO  8  23  14  24  14  25  14  26  14  27  14  28  14  29   8  30   8
M  ISO  8  31   8  32   8  33   8  34   8  35  13  36  13  37  13  38  13
M  ISO  1  39  13
M  END
>  <minimizedAffinity>  (1) 
-4.18714285

>  <minimizedRMSD>  (1) 
0.963221788

$$$$
