
     RDKit          3D

 39 41  0  0  1  0  0  0  0  0999 V2000
   39.4040   25.5040   34.9210 N   0  0  0  0  0  0  0  0  0  0  0  0
   40.6940   25.7090   34.6840 N   0  0  0  0  0  0  0  0  0  0  0  0
   40.8650   26.6770   33.7860 C   0  0  0  0  0  0  0  0  0  0  0  0
   39.6310   27.1180   33.4240 C   0  0  0  0  0  0  0  0  0  0  0  0
   38.7180   26.3780   34.1410 C   0  0  0  0  0  0  0  0  0  0  0  0
   37.6520   22.4940   36.0820 C   0  0  0  0  0  0  0  0  0  0  0  0
   38.3530   23.3840   35.2740 C   0  0  0  0  0  0  0  0  0  0  0  0
   38.6900   24.6180   35.7720 C   0  0  0  0  0  0  0  0  0  0  0  0
   38.3200   24.9170   37.0500 N   0  0  0  0  0  0  0  0  0  0  0  0
   37.6490   24.0510   37.8090 C   0  0  0  0  0  0  0  0  0  0  0  0
   37.3090   22.8280   37.3270 N   0  0  0  0  0  0  0  0  0  0  0  0
   38.6670   22.9170   33.9710 N   0  0  0  0  0  0  0  0  0  0  0  0
   37.9630   22.9700   32.8030 C   0  0  0  0  0  0  0  0  0  0  0  0
   38.7260   22.3710   31.8370 N   0  0  0  0  0  0  0  0  0  0  0  0
   39.8710   21.9630   32.4090 C   0  0  0  0  0  0  0  0  0  0  0  0
   39.8150   22.3100   33.7210 N   0  0  0  0  0  0  0  0  0  0  0  0
   37.2530   26.5820   33.9890 C   0  0  2  0  0  0  0  0  0  0  0  0
   36.7730   26.5040   32.5860 C   0  0  0  0  0  0  0  0  0  0  0  0
   36.8860   27.8960   34.6550 C   0  0  0  0  0  0  0  0  0  0  0  0
   35.9240   28.5810   33.7740 N   0  0  0  0  0  0  0  0  0  0  0  0
   35.1390   29.6890   34.2630 C   0  0  0  0  0  0  0  0  0  0  0  0
   35.7530   30.4820   35.1090 N   0  0  0  0  0  0  0  0  0  0  0  0
   33.7800   29.8620   33.8190 N   0  0  0  0  0  0  0  0  0  0  0  0
   35.2600   31.3070   35.5100 H   0  0  0  0  0  0  0  0  0  0  0  0
   41.8275   27.0510   33.4068 H   0  0  0  0  0  0  0  0  0  0  0  0
   39.4055   27.9130   32.6980 H   0  0  0  0  0  0  0  0  0  0  0  0
   37.3776   21.5037   35.6895 H   0  0  0  0  0  0  0  0  0  0  0  0
   37.3680   24.3296   38.8354 H   0  0  0  0  0  0  0  0  0  0  0  0
   36.9657   23.4127   32.6634 H   0  0  0  0  0  0  0  0  0  0  0  0
   40.7009   21.4437   31.9074 H   0  0  0  0  0  0  0  0  0  0  0  0
   36.7350   25.7491   34.4869 H   0  0  0  0  0  0  0  0  0  0  0  0
   35.6873   26.3276   32.5792 H   0  0  0  0  0  0  0  0  0  0  0  0
   36.9940   27.4498   32.0697 H   0  0  0  0  0  0  0  0  0  0  0  0
   37.2821   25.6768   32.0697 H   0  0  0  0  0  0  0  0  0  0  0  0
   36.4276   27.7052   35.6365 H   0  0  0  0  0  0  0  0  0  0  0  0
   37.7808   28.5164   34.8110 H   0  0  0  0  0  0  0  0  0  0  0  0
   35.8106   28.2661   32.7999 H   0  0  0  0  0  0  0  0  0  0  0  0
   33.2207   30.6531   34.1687 H   0  0  0  0  0  0  0  0  0  0  0  0
   33.3673   29.1946   33.1518 H   0  0  0  0  0  0  0  0  0  0  0  0
  1  8  1  0
  2  1  1  0
  3  2  2  0
  4  3  1  0
  4  5  2  0
  5  1  1  0
  6 11  2  0
  7  8  2  0
  7  6  1  0
  8  9  1  0
  9 10  2  0
 11 10  1  0
 12  7  1  0
 13 12  1  0
 14 15  1  0
 14 13  2  0
 15 16  2  0
 16 12  1  0
 17  5  1  0
 17 19  1  0
 18 17  1  0
 20 21  1  0
 20 19  1  0
 21 22  2  0
 22 24  1  0
 23 21  1  0
  3 25  1  0
  4 26  1  0
  6 27  1  0
 10 28  1  0
 13 29  1  0
 15 30  1  0
 17 31  1  1
 18 32  1  0
 18 33  1  0
 18 34  1  0
 19 35  1  0
 19 36  1  0
 20 37  1  0
 23 38  1  0
 23 39  1  0
M  ISO  8  25  14  26  14  27  14  28  14  29  14  30  14  31   8  32   8
M  ISO  4  33   8  34   8  35   8  36   8
M  END
>  <minimizedAffinity>  (1) 
-4.33908319

>  <minimizedRMSD>  (1) 
0.915361583

$$$$
