
     RDKit          3D

 39 42  0  0  1  0  0  0  0  0999 V2000
   39.3690   25.5170   34.8970 N   0  0  0  0  0  0  0  0  0  0  0  0
   40.6580   25.7100   34.6330 N   0  0  0  0  0  0  0  0  0  0  0  0
   40.8160   26.6640   33.7200 C   0  0  0  0  0  0  0  0  0  0  0  0
   39.5730   27.1130   33.3750 C   0  0  0  0  0  0  0  0  0  0  0  0
   38.6600   26.3790   34.1260 C   0  0  0  0  0  0  0  0  0  0  0  0
   37.6240   22.5380   36.1630 C   0  0  0  0  0  0  0  0  0  0  0  0
   38.3120   23.4030   35.3040 C   0  0  0  0  0  0  0  0  0  0  0  0
   38.6660   24.6390   35.7770 C   0  0  0  0  0  0  0  0  0  0  0  0
   38.3290   24.9680   37.0690 N   0  0  0  0  0  0  0  0  0  0  0  0
   37.6760   24.1300   37.8630 C   0  0  0  0  0  0  0  0  0  0  0  0
   37.3150   22.8950   37.4120 N   0  0  0  0  0  0  0  0  0  0  0  0
   38.5860   22.9150   34.0030 N   0  0  0  0  0  0  0  0  0  0  0  0
   37.8400   22.9270   32.8590 C   0  0  0  0  0  0  0  0  0  0  0  0
   38.5690   22.3260   31.8800 N   0  0  0  0  0  0  0  0  0  0  0  0
   39.7460   21.9510   32.4210 C   0  0  0  0  0  0  0  0  0  0  0  0
   39.7330   22.3240   33.7270 N   0  0  0  0  0  0  0  0  0  0  0  0
   37.1960   26.5900   34.0000 C   0  0  2  0  0  0  0  0  0  0  0  0
   36.6660   26.3420   32.6340 C   0  0  0  0  0  0  0  0  0  0  0  0
   36.8820   27.9890   34.5260 C   0  0  0  0  0  0  0  0  0  0  0  0
   36.1390   28.6610   33.4760 N   0  0  0  0  0  0  0  0  0  0  0  0
   34.8410   29.0750   33.5640 C   0  0  0  0  0  0  0  0  0  0  0  0
   34.4310   29.6860   32.3790 C   0  0  0  0  0  0  0  0  0  0  0  0
   35.5260   29.6270   31.5750 N   0  0  0  0  0  0  0  0  0  0  0  0
   36.5280   29.0190   32.2350 C   0  0  0  0  0  0  0  0  0  0  0  0
   41.7732   27.0256   33.3163 H   0  0  0  0  0  0  0  0  0  0  0  0
   39.3391   27.9019   32.6450 H   0  0  0  0  0  0  0  0  0  0  0  0
   37.3312   21.5414   35.8008 H   0  0  0  0  0  0  0  0  0  0  0  0
   37.4245   24.4328   38.8902 H   0  0  0  0  0  0  0  0  0  0  0  0
   36.8296   23.3477   32.7488 H   0  0  0  0  0  0  0  0  0  0  0  0
   40.5669   21.4368   31.8997 H   0  0  0  0  0  0  0  0  0  0  0  0
   36.6707   25.8379   34.6070 H   0  0  0  0  0  0  0  0  0  0  0  0
   35.6718   25.8768   32.7053 H   0  0  0  0  0  0  0  0  0  0  0  0
   36.5863   27.2963   32.0928 H   0  0  0  0  0  0  0  0  0  0  0  0
   37.3476   25.6693   32.0928 H   0  0  0  0  0  0  0  0  0  0  0  0
   36.2749   27.9246   35.4410 H   0  0  0  0  0  0  0  0  0  0  0  0
   37.8016   28.5370   34.7790 H   0  0  0  0  0  0  0  0  0  0  0  0
   34.2036   28.9442   34.4509 H   0  0  0  0  0  0  0  0  0  0  0  0
   33.4460   30.1174   32.1476 H   0  0  0  0  0  0  0  0  0  0  0  0
   37.5300   28.8380   31.8187 H   0  0  0  0  0  0  0  0  0  0  0  0
  1  8  1  0
  2  1  1  0
  3  2  2  0
  4  3  1  0
  4  5  2  0
  5  1  1  0
  6 11  2  0
  7  8  2  0
  7  6  1  0
  8  9  1  0
  9 10  2  0
 11 10  1  0
 12  7  1  0
 13 12  1  0
 14 15  1  0
 14 13  2  0
 15 16  2  0
 16 12  1  0
 17  5  1  0
 17 19  1  0
 18 17  1  0
 20 21  1  0
 20 19  1  0
 22 21  2  0
 23 24  2  0
 23 22  1  0
 24 20  1  0
  3 25  1  0
  4 26  1  0
  6 27  1  0
 10 28  1  0
 13 29  1  0
 15 30  1  0
 17 31  1  1
 18 32  1  0
 18 33  1  0
 18 34  1  0
 19 35  1  0
 19 36  1  0
 21 37  1  0
 22 38  1  0
 24 39  1  0
M  ISO  8  25  14  26  14  27  14  28  14  29  14  30  14  31   8  32   8
M  ISO  7  33   8  34   8  35   8  36   8  37  14  38  14  39  14
M  END
>  <minimizedAffinity>  (1) 
-4.36235523

>  <minimizedRMSD>  (1) 
1.36546302

$$$$
