
     RDKit          3D

 34 37  0  0  0  0  0  0  0  0999 V2000
   44.0850   20.2140   36.3760 C   0  0  0  0  0  0  0  0  0  0  0  0
   42.7340   20.4990   36.5740 C   0  0  0  0  0  0  0  0  0  0  0  0
   42.3030   21.7750   36.2830 C   0  0  0  0  0  0  0  0  0  0  0  0
   43.2520   22.6310   35.8280 N   0  0  0  0  0  0  0  0  0  0  0  0
   44.5350   22.3720   35.6360 C   0  0  0  0  0  0  0  0  0  0  0  0
   44.9370   21.1170   35.9270 N   0  0  0  0  0  0  0  0  0  0  0  0
   45.2730   23.5250   35.1370 C   0  0  0  0  0  0  0  0  0  0  0  0
   45.2690   23.8520   33.8010 C   0  0  0  0  0  0  0  0  0  0  0  0
   45.9520   24.9330   33.2880 C   0  0  0  0  0  0  0  0  0  0  0  0
   46.6890   25.7610   34.0980 C   0  0  0  0  0  0  0  0  0  0  0  0
   46.7210   25.4710   35.4440 C   0  0  0  0  0  0  0  0  0  0  0  0
   47.4600   26.2980   36.2620 C   0  0  0  0  0  0  0  0  0  0  0  0
   47.5360   26.0700   37.6090 C   0  0  0  0  0  0  0  0  0  0  0  0
   46.8350   24.9670   38.1040 C   0  0  0  0  0  0  0  0  0  0  0  0
   46.1110   24.1700   37.2460 C   0  0  0  0  0  0  0  0  0  0  0  0
   46.0220   24.3810   35.9070 C   0  0  0  0  0  0  0  0  0  0  0  0
   40.9100   22.1900   36.4540 C   0  0  0  0  0  0  0  0  0  0  0  0
   39.7950   22.1490   35.6640 N   0  0  0  0  0  0  0  0  0  0  0  0
   38.8000   22.6640   36.3250 O   0  0  0  0  0  0  0  0  0  0  0  0
   39.2060   23.0440   37.5200 C   0  0  0  0  0  0  0  0  0  0  0  0
   40.5120   22.7560   37.6110 N   0  0  0  0  0  0  0  0  0  0  0  0
   38.4100   23.6750   38.5940 C   0  0  0  0  0  0  0  0  0  0  0  0
   39.1980   23.8890   39.6990 F   0  0  0  0  0  0  0  0  0  0  0  0
   37.3420   22.8660   38.9710 F   0  0  0  0  0  0  0  0  0  0  0  0
   37.9480   24.9080   38.1740 F   0  0  0  0  0  0  0  0  0  0  0  0
   44.4531   19.2023   36.6017 H   0  0  0  0  0  0  0  0  0  0  0  0
   42.0385   19.7335   36.9486 H   0  0  0  0  0  0  0  0  0  0  0  0
   44.6929   23.2202   33.1090 H   0  0  0  0  0  0  0  0  0  0  0  0
   45.9059   25.1367   32.2080 H   0  0  0  0  0  0  0  0  0  0  0  0
   47.2337   26.6239   33.6872 H   0  0  0  0  0  0  0  0  0  0  0  0
   47.9964   27.1536   35.8258 H   0  0  0  0  0  0  0  0  0  0  0  0
   48.1216   26.7244   38.2714 H   0  0  0  0  0  0  0  0  0  0  0  0
   46.8617   24.7356   39.1791 H   0  0  0  0  0  0  0  0  0  0  0  0
   45.5719   23.3102   37.6705 H   0  0  0  0  0  0  0  0  0  0  0  0
  1  2  2  0
  3 17  1  0
  3  2  1  0
  4  3  2  0
  5  4  1  0
  5  6  2  0
  6  1  1  0
  7  5  1  0
  7 16  1  0
  8  7  2  0
  9  8  1  0
  9 10  2  0
 10 11  1  0
 11 16  2  0
 11 12  1  0
 12 13  2  0
 13 14  1  0
 15 14  2  0
 16 15  1  0
 17 21  1  0
 18 19  1  0
 18 17  2  0
 19 20  1  0
 20 21  2  0
 20 22  1  0
 22 24  1  0
 22 23  1  0
 25 22  1  0
  1 26  1  0
  2 27  1  0
  8 28  1  0
  9 29  1  0
 10 30  1  0
 12 31  1  0
 13 32  1  0
 14 33  1  0
 15 34  1  0
M  ISO  8  26  14  27  14  28  14  29  14  30  14  31  14  32  14  33  14
M  ISO  1  34  14
M  END
>  <minimizedAffinity>  (1) 
-5.61529589

>  <minimizedRMSD>  (1) 
3.48053908

$$$$
