
     RDKit          3D

 23 25  0  0  0  0  0  0  0  0999 V2000
   44.2750   20.6860   35.7780 C   0  0  0  0  0  0  0  0  0  0  0  0
   42.8970   20.8560   35.9660 C   0  0  0  0  0  0  0  0  0  0  0  0
   42.4200   22.1250   36.2790 C   0  0  0  0  0  0  0  0  0  0  0  0
   43.3440   23.1440   36.3850 N   0  0  0  0  0  0  0  0  0  0  0  0
   44.6560   22.9400   36.1980 C   0  0  0  0  0  0  0  0  0  0  0  0
   45.1240   21.6980   35.8910 N   0  0  0  0  0  0  0  0  0  0  0  0
   45.4630   24.1470   36.3550 C   0  0  0  0  0  0  0  0  0  0  0  0
   45.1760   25.4220   36.7520 N   0  0  0  0  0  0  0  0  0  0  0  0
   46.2710   26.1260   36.7180 O   0  0  0  0  0  0  0  0  0  0  0  0
   47.2920   25.3860   36.3130 C   0  0  0  0  0  0  0  0  0  0  0  0
   46.7880   24.1440   36.0850 N   0  0  0  0  0  0  0  0  0  0  0  0
   41.0020   22.3590   36.4840 C   0  0  0  0  0  0  0  0  0  0  0  0
   39.8840   22.0810   35.7360 N   0  0  0  0  0  0  0  0  0  0  0  0
   38.8440   22.5020   36.3780 O   0  0  0  0  0  0  0  0  0  0  0  0
   39.2020   23.0490   37.5190 C   0  0  0  0  0  0  0  0  0  0  0  0
   40.5410   22.9630   37.5900 N   0  0  0  0  0  0  0  0  0  0  0  0
   38.3270   23.6460   38.5370 C   0  0  0  0  0  0  0  0  0  0  0  0
   39.0810   23.9360   39.6670 F   0  0  0  0  0  0  0  0  0  0  0  0
   37.3240   22.7630   38.9360 F   0  0  0  0  0  0  0  0  0  0  0  0
   37.7820   24.8160   38.0860 F   0  0  0  0  0  0  0  0  0  0  0  0
   44.6626   19.6868   35.5302 H   0  0  0  0  0  0  0  0  0  0  0  0
   42.2073   20.0047   35.8683 H   0  0  0  0  0  0  0  0  0  0  0  0
   48.3355   25.7103   36.1868 H   0  0  0  0  0  0  0  0  0  0  0  0
  1  6  2  0
  1  2  1  0
  2  3  2  0
  3  4  1  0
  3 12  1  0
  5  7  1  0
  5  4  2  0
  6  5  1  0
  7  8  2  0
  9  8  1  0
 10  9  1  0
 11 10  2  0
 11  7  1  0
 12 16  1  0
 13 14  1  0
 13 12  2  0
 14 15  1  0
 15 16  2  0
 15 17  1  0
 17 19  1  0
 17 18  1  0
 20 17  1  0
  1 21  1  0
  2 22  1  0
 10 23  1  0
M  ISO  3  21  14  22  14  23  14
M  END
>  <minimizedAffinity>  (1) 
-4.66041422

>  <minimizedRMSD>  (1) 
3.42642617

$$$$
