
     RDKit          3D

 19 20  0  0  0  0  0  0  0  0999 V2000
   43.6510   19.7380   37.0720 C   0  0  0  0  0  0  0  0  0  0  0  0
   42.4940   20.4810   37.3050 C   0  0  0  0  0  0  0  0  0  0  0  0
   41.9710   21.2210   36.2330 C   0  0  0  0  0  0  0  0  0  0  0  0
   42.6430   21.1490   35.0530 N   0  0  0  0  0  0  0  0  0  0  0  0
   43.7480   20.4330   34.8490 C   0  0  0  0  0  0  0  0  0  0  0  0
   44.2540   19.7170   35.8840 N   0  0  0  0  0  0  0  0  0  0  0  0
   40.7630   21.9980   36.4110 C   0  0  0  0  0  0  0  0  0  0  0  0
   39.8260   22.4680   35.5200 N   0  0  0  0  0  0  0  0  0  0  0  0
   38.9120   23.1140   36.1820 O   0  0  0  0  0  0  0  0  0  0  0  0
   39.1900   23.1000   37.4680 C   0  0  0  0  0  0  0  0  0  0  0  0
   40.3340   22.4090   37.6010 N   0  0  0  0  0  0  0  0  0  0  0  0
   38.4200   23.7090   38.5570 C   0  0  0  0  0  0  0  0  0  0  0  0
   39.2470   23.8640   39.6590 F   0  0  0  0  0  0  0  0  0  0  0  0
   37.3710   22.8850   38.9690 F   0  0  0  0  0  0  0  0  0  0  0  0
   37.9570   24.9370   38.1910 F   0  0  0  0  0  0  0  0  0  0  0  0
   44.4490   20.4960   33.2060 S   0  0  0  0  0  0  0  0  0  0  0  0
   44.0801   19.1497   37.8965 H   0  0  0  0  0  0  0  0  0  0  0  0
   42.0092   20.4869   38.2924 H   0  0  0  0  0  0  0  0  0  0  0  0
   45.8106   20.6184   33.2948 H   0  0  0  0  0  0  0  0  0  0  0  0
  1  2  2  0
  3  7  1  0
  3  2  1  0
  4  3  2  0
  5  4  1  0
  5  6  2  0
  6  1  1  0
  7 11  1  0
  8  9  1  0
  8  7  2  0
  9 10  1  0
 10 11  2  0
 10 12  1  0
 12 14  1  0
 12 13  1  0
 15 12  1  0
 16  5  1  0
  1 17  1  0
  2 18  1  0
 16 19  1  0
M  ISO  3  17  14  18  14  19  11
M  END
>  <minimizedAffinity>  (1) 
-4.23282862

>  <minimizedRMSD>  (1) 
0.0849831551

$$$$
