
     RDKit          3D

 25 27  0  0  0  0  0  0  0  0999 V2000
   43.6290   19.7160   37.0800 C   0  0  0  0  0  0  0  0  0  0  0  0
   42.4800   20.4880   37.2980 C   0  0  0  0  0  0  0  0  0  0  0  0
   41.9820   21.2260   36.2340 C   0  0  0  0  0  0  0  0  0  0  0  0
   42.6480   21.1490   35.0430 N   0  0  0  0  0  0  0  0  0  0  0  0
   43.7400   20.4100   34.8540 C   0  0  0  0  0  0  0  0  0  0  0  0
   44.2350   19.6850   35.8870 N   0  0  0  0  0  0  0  0  0  0  0  0
   44.3900   20.3710   33.5900 N   0  0  0  0  0  0  0  0  0  0  0  0
   44.8400   19.2810   32.9490 C   0  0  0  0  0  0  0  0  0  0  0  0
   45.3970   19.7400   31.7580 C   0  0  0  0  0  0  0  0  0  0  0  0
   45.2790   21.0700   31.6980 N   0  0  0  0  0  0  0  0  0  0  0  0
   44.6620   21.4390   32.8230 C   0  0  0  0  0  0  0  0  0  0  0  0
   40.7900   22.0530   36.3880 C   0  0  0  0  0  0  0  0  0  0  0  0
   39.9250   22.6460   35.5030 N   0  0  0  0  0  0  0  0  0  0  0  0
   39.0140   23.2790   36.1610 O   0  0  0  0  0  0  0  0  0  0  0  0
   39.2240   23.1410   37.4620 C   0  0  0  0  0  0  0  0  0  0  0  0
   40.3110   22.3890   37.5890 N   0  0  0  0  0  0  0  0  0  0  0  0
   38.4210   23.7020   38.5690 C   0  0  0  0  0  0  0  0  0  0  0  0
   39.2480   23.8730   39.6760 F   0  0  0  0  0  0  0  0  0  0  0  0
   37.3910   22.8590   38.9370 F   0  0  0  0  0  0  0  0  0  0  0  0
   37.9410   24.9460   38.2200 F   0  0  0  0  0  0  0  0  0  0  0  0
   44.0424   19.1219   37.9083 H   0  0  0  0  0  0  0  0  0  0  0  0
   41.9884   20.5082   38.2818 H   0  0  0  0  0  0  0  0  0  0  0  0
   44.7809   18.2382   33.2939 H   0  0  0  0  0  0  0  0  0  0  0  0
   45.8613   19.1071   30.9874 H   0  0  0  0  0  0  0  0  0  0  0  0
   44.4106   22.4771   33.0859 H   0  0  0  0  0  0  0  0  0  0  0  0
  1  2  2  0
  3 12  1  0
  3  2  1  0
  4  3  2  0
  5  4  1  0
  5  6  2  0
  6  1  1  0
  7  5  1  0
  8  7  1  0
  9  8  2  0
 10  9  1  0
 10 11  2  0
 11  7  1  0
 12 16  1  0
 13 14  1  0
 13 12  2  0
 14 15  1  0
 15 16  2  0
 15 17  1  0
 17 19  1  0
 17 18  1  0
 20 17  1  0
  1 21  1  0
  2 22  1  0
  8 23  1  0
  9 24  1  0
 11 25  1  0
M  ISO  5  21  14  22  14  23  14  24  14  25  14
M  END
>  <minimizedAffinity>  (1) 
-4.30513239

>  <minimizedRMSD>  (1) 
0.031384062

$$$$
