
     RDKit          3D

 24 26  0  0  0  0  0  0  0  0999 V2000
   43.6250   19.7460   37.0830 C   0  0  0  0  0  0  0  0  0  0  0  0
   42.4720   20.5000   37.2890 C   0  0  0  0  0  0  0  0  0  0  0  0
   41.9530   21.2300   36.2110 C   0  0  0  0  0  0  0  0  0  0  0  0
   42.6220   21.1560   35.0030 N   0  0  0  0  0  0  0  0  0  0  0  0
   43.7210   20.4200   34.8620 C   0  0  0  0  0  0  0  0  0  0  0  0
   44.2270   19.7090   35.9090 N   0  0  0  0  0  0  0  0  0  0  0  0
   44.3260   20.4190   33.5740 N   0  0  0  0  0  0  0  0  0  0  0  0
   45.0840   21.4150   33.0800 C   0  0  0  0  0  0  0  0  0  0  0  0
   45.4910   21.0710   31.8280 N   0  0  0  0  0  0  0  0  0  0  0  0
   44.9730   19.8540   31.5610 C   0  0  0  0  0  0  0  0  0  0  0  0
   44.2640   19.4880   32.6570 N   0  0  0  0  0  0  0  0  0  0  0  0
   40.7560   22.0600   36.3570 C   0  0  0  0  0  0  0  0  0  0  0  0
   39.9060   22.6610   35.4900 N   0  0  0  0  0  0  0  0  0  0  0  0
   38.9980   23.3000   36.1630 O   0  0  0  0  0  0  0  0  0  0  0  0
   39.2120   23.1460   37.4640 C   0  0  0  0  0  0  0  0  0  0  0  0
   40.3020   22.3780   37.5780 N   0  0  0  0  0  0  0  0  0  0  0  0
   38.4220   23.7010   38.5730 C   0  0  0  0  0  0  0  0  0  0  0  0
   39.2510   23.8770   39.6790 F   0  0  0  0  0  0  0  0  0  0  0  0
   37.3920   22.8610   38.9360 F   0  0  0  0  0  0  0  0  0  0  0  0
   37.9380   24.9520   38.2360 F   0  0  0  0  0  0  0  0  0  0  0  0
   44.0441   19.1672   37.9193 H   0  0  0  0  0  0  0  0  0  0  0  0
   41.9811   20.5219   38.2731 H   0  0  0  0  0  0  0  0  0  0  0  0
   45.3331   22.3511   33.6013 H   0  0  0  0  0  0  0  0  0  0  0  0
   45.1009   19.2730   30.6358 H   0  0  0  0  0  0  0  0  0  0  0  0
  1  2  2  0
  3 12  1  0
  3  2  1  0
  4  3  2  0
  5  4  1  0
  5  6  2  0
  6  1  1  0
  7  5  1  0
  8  7  1  0
  9  8  2  0
 10  9  1  0
 10 11  2  0
 11  7  1  0
 12 16  1  0
 13 14  1  0
 13 12  2  0
 14 15  1  0
 15 16  2  0
 15 17  1  0
 17 19  1  0
 17 18  1  0
 20 17  1  0
  1 21  1  0
  2 22  1  0
  8 23  1  0
 10 24  1  0
M  ISO  4  21  14  22  14  23  14  24  14
M  END
>  <minimizedAffinity>  (1) 
-4.29246664

>  <minimizedRMSD>  (1) 
0.0535291396

$$$$
