
     RDKit          3D

 45 47  0  0  0  0  0  0  0  0999 V2000
   38.7520   23.5640   37.0280 C   0  0  0  0  0  0  0  0  0  0  0  0
   41.9830   21.6770   36.9190 C   0  0  0  0  0  0  0  0  0  0  0  0
   40.6800   22.0040   37.2660 C   0  0  0  0  0  0  0  0  0  0  0  0
   40.1000   23.1540   36.7210 C   0  0  0  0  0  0  0  0  0  0  0  0
   40.8420   23.9050   35.8710 N   0  0  0  0  0  0  0  0  0  0  0  0
   42.1140   23.5690   35.5430 C   0  0  0  0  0  0  0  0  0  0  0  0
   42.6750   22.4500   36.0760 N   0  0  0  0  0  0  0  0  0  0  0  0
   42.5790   20.4420   37.5180 C   0  0  0  0  0  0  0  0  0  0  0  0
   43.1980   19.5410   36.5230 C   0  0  0  0  0  0  0  0  0  0  0  0
   38.4730   23.1920   38.4800 C   0  0  0  0  0  0  0  0  0  0  0  0
   38.4690   25.0330   36.8160 C   0  0  0  0  0  0  0  0  0  0  0  0
   37.7760   22.7850   36.1550 C   0  0  0  0  0  0  0  0  0  0  0  0
   37.8510   23.1680   34.7750 N   0  0  0  0  0  0  0  0  0  0  0  0
   38.1690   22.4100   33.6930 C   0  0  0  0  0  0  0  0  0  0  0  0
   38.1090   23.2040   32.5790 N   0  0  0  0  0  0  0  0  0  0  0  0
   37.7590   24.4270   32.9860 C   0  0  0  0  0  0  0  0  0  0  0  0
   37.6070   24.3870   34.3190 N   0  0  0  0  0  0  0  0  0  0  0  0
   37.6280   25.4510   32.0050 N   0  0  0  0  0  0  0  0  0  0  0  0
   36.4800   26.1740   31.8570 C   0  0  0  0  0  0  0  0  0  0  0  0
   36.4150   27.1600   30.8780 C   0  0  0  0  0  0  0  0  0  0  0  0
   37.4940   27.4190   30.0560 C   0  0  0  0  0  0  0  0  0  0  0  0
   37.3390   28.4460   29.0830 N   0  0  0  0  0  0  0  0  0  0  0  0
   38.6200   26.6860   30.2260 N   0  0  0  0  0  0  0  0  0  0  0  0
   38.6660   25.7220   31.1920 C   0  0  0  0  0  0  0  0  0  0  0  0
   39.7690   25.1180   31.2420 O   0  0  0  0  0  0  0  0  0  0  0  0
   40.1112   21.3677   37.9600 H   0  0  0  0  0  0  0  0  0  0  0  0
   42.6900   24.1986   34.8488 H   0  0  0  0  0  0  0  0  0  0  0  0
   43.3508   20.7439   38.2413 H   0  0  0  0  0  0  0  0  0  0  0  0
   41.7574   19.8842   37.9912 H   0  0  0  0  0  0  0  0  0  0  0  0
   43.7468   18.7421   37.0431 H   0  0  0  0  0  0  0  0  0  0  0  0
   42.4136   19.0966   35.8927 H   0  0  0  0  0  0  0  0  0  0  0  0
   43.8942   20.1138   35.8927 H   0  0  0  0  0  0  0  0  0  0  0  0
   38.9985   23.8927   39.1455 H   0  0  0  0  0  0  0  0  0  0  0  0
   37.3911   23.2464   38.6710 H   0  0  0  0  0  0  0  0  0  0  0  0
   38.8281   22.1686   38.6710 H   0  0  0  0  0  0  0  0  0  0  0  0
   38.3728   25.5324   37.7914 H   0  0  0  0  0  0  0  0  0  0  0  0
   39.2960   25.4879   36.2511 H   0  0  0  0  0  0  0  0  0  0  0  0
   37.5322   25.1481   36.2511 H   0  0  0  0  0  0  0  0  0  0  0  0
   38.0071   21.7127   36.2370 H   0  0  0  0  0  0  0  0  0  0  0  0
   36.7586   23.0064   36.5096 H   0  0  0  0  0  0  0  0  0  0  0  0
   38.4299   21.3415   33.7092 H   0  0  0  0  0  0  0  0  0  0  0  0
   35.6137   25.9787   32.5062 H   0  0  0  0  0  0  0  0  0  0  0  0
   35.4898   27.7424   30.7567 H   0  0  0  0  0  0  0  0  0  0  0  0
   36.4494   28.9607   29.0147 H   0  0  0  0  0  0  0  0  0  0  0  0
   38.1164   28.6746   28.4471 H   0  0  0  0  0  0  0  0  0  0  0  0
  1 10  1  0
  2  3  2  0
  2  8  1  0
  4  1  1  0
  4  3  1  0
  5  4  2  0
  6  5  1  0
  6  7  2  0
  7  2  1  0
  9  8  1  0
 11  1  1  0
 12  1  1  0
 13 12  1  0
 14 13  1  0
 15 16  1  0
 15 14  2  0
 16 17  2  0
 17 13  1  0
 18 16  1  0
 19 18  1  0
 20 19  2  0
 21 23  2  0
 21 20  1  0
 22 21  1  0
 23 24  1  0
 24 25  2  0
 24 18  1  0
  3 26  1  0
  6 27  1  0
  8 28  1  0
  8 29  1  0
  9 30  1  0
  9 31  1  0
  9 32  1  0
 10 33  1  0
 10 34  1  0
 10 35  1  0
 11 36  1  0
 11 37  1  0
 11 38  1  0
 12 39  1  0
 12 40  1  0
 14 41  1  0
 19 42  1  0
 20 43  1  0
 22 44  1  0
 22 45  1  0
M  ISO  8  26  14  27  14  28   8  29   8  30   8  31   8  32   8  33   8
M  ISO  8  34   8  35   8  36   8  37   8  38   8  39   8  40   8  41  14
M  ISO  2  42  14  43  14
M  END
>  <minimizedAffinity>  (1) 
-5.04024458

>  <minimizedRMSD>  (1) 
1.20771325

$$$$
