
     RDKit          3D

 33 35  0  0  0  0  0  0  0  0999 V2000
   43.6280   19.7120   37.0900 C   0  0  0  0  0  0  0  0  0  0  0  0
   42.4810   20.4850   37.2990 C   0  0  0  0  0  0  0  0  0  0  0  0
   41.9690   21.2260   36.2260 C   0  0  0  0  0  0  0  0  0  0  0  0
   42.6460   21.1340   35.0340 N   0  0  0  0  0  0  0  0  0  0  0  0
   43.7370   20.3880   34.8680 C   0  0  0  0  0  0  0  0  0  0  0  0
   44.2270   19.6730   35.9110 N   0  0  0  0  0  0  0  0  0  0  0  0
   44.3820   20.3410   33.6140 N   0  0  0  0  0  0  0  0  0  0  0  0
   44.9170   21.5040   32.9840 C   0  0  0  0  0  0  0  0  0  0  0  0
   46.3380   21.3450   32.5110 C   0  0  0  0  0  0  0  0  0  0  0  0
   46.6950   19.9610   32.1050 C   0  0  0  0  0  0  0  0  0  0  0  0
   46.0640   18.8640   32.8960 C   0  0  0  0  0  0  0  0  0  0  0  0
   44.5490   19.1050   32.8730 C   0  0  0  0  0  0  0  0  0  0  0  0
   40.7820   22.0500   36.3710 C   0  0  0  0  0  0  0  0  0  0  0  0
   39.9220   22.6310   35.4980 N   0  0  0  0  0  0  0  0  0  0  0  0
   39.0070   23.2740   36.1640 O   0  0  0  0  0  0  0  0  0  0  0  0
   39.2280   23.1410   37.4620 C   0  0  0  0  0  0  0  0  0  0  0  0
   40.3180   22.3890   37.5810 N   0  0  0  0  0  0  0  0  0  0  0  0
   38.4330   23.7080   38.5740 C   0  0  0  0  0  0  0  0  0  0  0  0
   39.2450   23.8720   39.6800 F   0  0  0  0  0  0  0  0  0  0  0  0
   37.4010   22.8570   38.9550 F   0  0  0  0  0  0  0  0  0  0  0  0
   37.9310   24.9400   38.2170 F   0  0  0  0  0  0  0  0  0  0  0  0
   44.0405   19.1243   37.9233 H   0  0  0  0  0  0  0  0  0  0  0  0
   41.9919   20.5104   38.2840 H   0  0  0  0  0  0  0  0  0  0  0  0
   44.2881   21.7469   32.1148 H   0  0  0  0  0  0  0  0  0  0  0  0
   44.9206   22.3027   33.7403 H   0  0  0  0  0  0  0  0  0  0  0  0
   46.4897   22.0078   31.6463 H   0  0  0  0  0  0  0  0  0  0  0  0
   46.9847   21.6004   33.3634 H   0  0  0  0  0  0  0  0  0  0  0  0
   46.3983   19.8315   31.0537 H   0  0  0  0  0  0  0  0  0  0  0  0
   47.7769   19.8697   32.2818 H   0  0  0  0  0  0  0  0  0  0  0  0
   46.2979   17.8894   32.4428 H   0  0  0  0  0  0  0  0  0  0  0  0
   46.4437   18.8574   33.9284 H   0  0  0  0  0  0  0  0  0  0  0  0
   44.1857   19.2153   31.8406 H   0  0  0  0  0  0  0  0  0  0  0  0
   43.9795   18.2697   33.3066 H   0  0  0  0  0  0  0  0  0  0  0  0
  1  2  2  0
  3 13  1  0
  3  2  1  0
  4  3  2  0
  5  4  1  0
  5  6  2  0
  6  1  1  0
  7  5  1  0
  8  7  1  0
  9  8  1  0
 10  9  1  0
 10 11  1  0
 12 11  1  0
 12  7  1  0
 13 17  1  0
 14 15  1  0
 14 13  2  0
 15 16  1  0
 16 17  2  0
 16 18  1  0
 18 20  1  0
 18 19  1  0
 21 18  1  0
  1 22  1  0
  2 23  1  0
  8 24  1  0
  8 25  1  0
  9 26  1  0
  9 27  1  0
 10 28  1  0
 10 29  1  0
 11 30  1  0
 11 31  1  0
 12 32  1  0
 12 33  1  0
M  ISO  8  22  14  23  14  24  13  25  13  26  13  27  13  28  13  29  13
M  ISO  4  30  13  31  13  32  13  33  13
M  END
>  <minimizedAffinity>  (1) 
-4.32443619

>  <minimizedRMSD>  (1) 
0.0364650004

$$$$
