
     RDKit          3D

 19 20  0  0  0  0  0  0  0  0999 V2000
   43.6360   19.7410   37.0690 C   0  0  0  0  0  0  0  0  0  0  0  0
   42.4760   20.5060   37.2970 C   0  0  0  0  0  0  0  0  0  0  0  0
   41.9660   21.2210   36.2270 C   0  0  0  0  0  0  0  0  0  0  0  0
   42.6220   21.1360   35.0150 N   0  0  0  0  0  0  0  0  0  0  0  0
   43.7190   20.3980   34.8400 C   0  0  0  0  0  0  0  0  0  0  0  0
   44.2220   19.6970   35.8890 N   0  0  0  0  0  0  0  0  0  0  0  0
   40.7680   22.0530   36.3560 C   0  0  0  0  0  0  0  0  0  0  0  0
   39.9100   22.6520   35.4890 N   0  0  0  0  0  0  0  0  0  0  0  0
   39.0050   23.2900   36.1640 O   0  0  0  0  0  0  0  0  0  0  0  0
   39.2160   23.1460   37.4600 C   0  0  0  0  0  0  0  0  0  0  0  0
   40.2980   22.3860   37.5780 N   0  0  0  0  0  0  0  0  0  0  0  0
   38.4310   23.7000   38.5650 C   0  0  0  0  0  0  0  0  0  0  0  0
   39.2510   23.8690   39.6800 F   0  0  0  0  0  0  0  0  0  0  0  0
   37.4030   22.8670   38.9450 F   0  0  0  0  0  0  0  0  0  0  0  0
   37.9300   24.9450   38.2280 F   0  0  0  0  0  0  0  0  0  0  0  0
   44.3680   20.3170   33.6350 O   0  0  0  0  0  0  0  0  0  0  0  0
   44.0660   19.1629   37.9002 H   0  0  0  0  0  0  0  0  0  0  0  0
   41.9945   20.5343   38.2856 H   0  0  0  0  0  0  0  0  0  0  0  0
   45.1799   19.7575   33.5467 H   0  0  0  0  0  0  0  0  0  0  0  0
  1  2  2  0
  3  7  1  0
  3  2  1  0
  4  3  2  0
  5  4  1  0
  5  6  2  0
  6  1  1  0
  7 11  1  0
  8  9  1  0
  8  7  2  0
  9 10  1  0
 10 11  2  0
 10 12  1  0
 12 14  1  0
 12 13  1  0
 15 12  1  0
 16  5  1  0
  1 17  1  0
  2 18  1  0
 16 19  1  0
M  ISO  3  17  14  18  14  19   3
M  END
>  <minimizedAffinity>  (1) 
-4.21450901

>  <minimizedRMSD>  (1) 
0.0453334115

$$$$
