
     RDKit          3D

 21 22  0  0  0  0  0  0  0  0999 V2000
   43.6250   19.7290   37.0750 C   0  0  0  0  0  0  0  0  0  0  0  0
   42.4800   20.4990   37.3000 C   0  0  0  0  0  0  0  0  0  0  0  0
   41.9690   21.2250   36.2270 C   0  0  0  0  0  0  0  0  0  0  0  0
   42.6220   21.1380   35.0160 N   0  0  0  0  0  0  0  0  0  0  0  0
   43.7120   20.3910   34.8450 C   0  0  0  0  0  0  0  0  0  0  0  0
   44.2220   19.6780   35.8810 N   0  0  0  0  0  0  0  0  0  0  0  0
   40.7790   22.0500   36.3820 C   0  0  0  0  0  0  0  0  0  0  0  0
   39.9070   22.6390   35.4980 N   0  0  0  0  0  0  0  0  0  0  0  0
   38.9970   23.2800   36.1630 O   0  0  0  0  0  0  0  0  0  0  0  0
   39.2210   23.1470   37.4690 C   0  0  0  0  0  0  0  0  0  0  0  0
   40.3100   22.3950   37.5870 N   0  0  0  0  0  0  0  0  0  0  0  0
   38.4280   23.7150   38.5790 C   0  0  0  0  0  0  0  0  0  0  0  0
   39.2450   23.8710   39.6760 F   0  0  0  0  0  0  0  0  0  0  0  0
   37.3900   22.8520   38.9460 F   0  0  0  0  0  0  0  0  0  0  0  0
   37.9330   24.9400   38.2300 F   0  0  0  0  0  0  0  0  0  0  0  0
   44.3920   20.3090   33.5580 C   0  0  0  0  0  0  0  0  0  0  0  0
   45.2190   21.1690   33.1890 O   0  0  0  0  0  0  0  0  0  0  0  0
   44.1390   19.2580   32.6870 O   0  0  0  0  0  0  0  0  0  0  0  0
   44.0476   19.1469   37.9072 H   0  0  0  0  0  0  0  0  0  0  0  0
   41.9999   20.5303   38.2892 H   0  0  0  0  0  0  0  0  0  0  0  0
   44.6071   19.2134   31.8158 H   0  0  0  0  0  0  0  0  0  0  0  0
  1  2  2  0
  3  7  1  0
  3  2  1  0
  4  3  2  0
  5  4  1  0
  5  6  2  0
  6  1  1  0
  7 11  1  0
  8  9  1  0
  8  7  2  0
  9 10  1  0
 10 11  2  0
 10 12  1  0
 12 14  1  0
 12 13  1  0
 15 12  1  0
 16  5  1  0
 17 16  2  0
 18 16  1  0
  1 19  1  0
  2 20  1  0
 18 21  1  0
M  ISO  3  19  14  20  14  21   3
M  END
>  <minimizedAffinity>  (1) 
-4.07739162

>  <minimizedRMSD>  (1) 
0.0663710162

$$$$
