
     RDKit          3D

 24 26  0  0  0  0  0  0  0  0999 V2000
   43.6290   19.6930   37.1040 C   0  0  0  0  0  0  0  0  0  0  0  0
   42.4710   20.4510   37.2970 C   0  0  0  0  0  0  0  0  0  0  0  0
   42.0040   21.2330   36.2510 C   0  0  0  0  0  0  0  0  0  0  0  0
   42.7150   21.2140   35.0750 N   0  0  0  0  0  0  0  0  0  0  0  0
   43.8230   20.4730   34.9210 C   0  0  0  0  0  0  0  0  0  0  0  0
   44.2800   19.7080   35.9460 N   0  0  0  0  0  0  0  0  0  0  0  0
   44.4920   20.5450   33.6010 C   0  0  0  0  0  0  0  0  0  0  0  0
   44.7370   19.4250   32.7160 C   0  0  0  0  0  0  0  0  0  0  0  0
   45.5530   20.2070   31.3460 S   0  0  0  0  0  0  0  0  0  0  0  0
   45.4520   21.9470   32.1550 C   0  0  0  0  0  0  0  0  0  0  0  0
   44.8810   21.7520   33.2360 N   0  0  0  0  0  0  0  0  0  0  0  0
   40.7970   22.0490   36.3980 C   0  0  0  0  0  0  0  0  0  0  0  0
   39.9240   22.6100   35.5170 N   0  0  0  0  0  0  0  0  0  0  0  0
   39.0030   23.2470   36.1710 O   0  0  0  0  0  0  0  0  0  0  0  0
   39.2340   23.1290   37.4730 C   0  0  0  0  0  0  0  0  0  0  0  0
   40.3390   22.3910   37.6010 N   0  0  0  0  0  0  0  0  0  0  0  0
   38.4360   23.6970   38.5680 C   0  0  0  0  0  0  0  0  0  0  0  0
   39.2440   23.8750   39.6810 F   0  0  0  0  0  0  0  0  0  0  0  0
   37.3970   22.8640   38.9440 F   0  0  0  0  0  0  0  0  0  0  0  0
   37.9400   24.9380   38.2160 F   0  0  0  0  0  0  0  0  0  0  0  0
   44.0093   19.0711   37.9278 H   0  0  0  0  0  0  0  0  0  0  0  0
   41.9400   20.4279   38.2601 H   0  0  0  0  0  0  0  0  0  0  0  0
   44.4832   18.3639   32.8562 H   0  0  0  0  0  0  0  0  0  0  0  0
   45.8189   22.9013   31.7491 H   0  0  0  0  0  0  0  0  0  0  0  0
  1  2  2  0
  3 12  1  0
  3  2  1  0
  4  3  2  0
  5  4  1  0
  5  6  2  0
  6  1  1  0
  7  5  1  0
  8  7  2  0
  9 10  1  0
  9  8  1  0
 10 11  2  0
 11  7  1  0
 12 16  1  0
 13 14  1  0
 13 12  2  0
 14 15  1  0
 15 16  2  0
 15 17  1  0
 17 19  1  0
 17 18  1  0
 20 17  1  0
  1 21  1  0
  2 22  1  0
  8 23  1  0
 10 24  1  0
M  ISO  4  21  14  22  14  23  14  24  14
M  END
>  <minimizedAffinity>  (1) 
-4.09069586

>  <minimizedRMSD>  (1) 
0.238599136

$$$$
