
     RDKit          3D

 24 25  0  0  0  0  0  0  0  0999 V2000
   43.6660   19.7290   37.0810 C   0  0  0  0  0  0  0  0  0  0  0  0
   42.4930   20.4600   37.2860 C   0  0  0  0  0  0  0  0  0  0  0  0
   41.9830   21.2290   36.2370 C   0  0  0  0  0  0  0  0  0  0  0  0
   42.6900   21.2010   35.0740 N   0  0  0  0  0  0  0  0  0  0  0  0
   43.8080   20.5010   34.8870 C   0  0  0  0  0  0  0  0  0  0  0  0
   44.3020   19.7510   35.9160 N   0  0  0  0  0  0  0  0  0  0  0  0
   40.7720   21.9970   36.4110 C   0  0  0  0  0  0  0  0  0  0  0  0
   39.8340   22.4650   35.5230 N   0  0  0  0  0  0  0  0  0  0  0  0
   38.9150   23.1110   36.1810 O   0  0  0  0  0  0  0  0  0  0  0  0
   39.1970   23.0960   37.4710 C   0  0  0  0  0  0  0  0  0  0  0  0
   40.3360   22.4110   37.5980 N   0  0  0  0  0  0  0  0  0  0  0  0
   38.4250   23.7050   38.5660 C   0  0  0  0  0  0  0  0  0  0  0  0
   39.2470   23.8650   39.6570 F   0  0  0  0  0  0  0  0  0  0  0  0
   37.3710   22.8850   38.9700 F   0  0  0  0  0  0  0  0  0  0  0  0
   37.9630   24.9340   38.1940 F   0  0  0  0  0  0  0  0  0  0  0  0
   44.5010   20.5460   33.5620 C   0  0  0  0  0  0  0  0  0  0  0  0
   44.4640   21.9700   33.0490 C   0  0  0  0  0  0  0  0  0  0  0  0
   44.0716   19.1216   37.9035 H   0  0  0  0  0  0  0  0  0  0  0  0
   41.9791   20.4305   38.2581 H   0  0  0  0  0  0  0  0  0  0  0  0
   45.5453   20.2204   33.6781 H   0  0  0  0  0  0  0  0  0  0  0  0
   43.9973   19.8756   32.8501 H   0  0  0  0  0  0  0  0  0  0  0  0
   44.4459   22.6661   33.9005 H   0  0  0  0  0  0  0  0  0  0  0  0
   45.3574   22.1626   32.4369 H   0  0  0  0  0  0  0  0  0  0  0  0
   43.5618   22.1159   32.4369 H   0  0  0  0  0  0  0  0  0  0  0  0
  1  2  2  0
  3  7  1  0
  3  2  1  0
  4  3  2  0
  5  4  1  0
  5  6  2  0
  6  1  1  0
  7 11  1  0
  8  9  1  0
  8  7  2  0
  9 10  1  0
 10 11  2  0
 10 12  1  0
 12 14  1  0
 12 13  1  0
 15 12  1  0
 16  5  1  0
 17 16  1  0
  1 18  1  0
  2 19  1  0
 16 20  1  0
 16 21  1  0
 17 22  1  0
 17 23  1  0
 17 24  1  0
M  ISO  7  18  14  19  14  20   8  21   8  22   8  23   8  24   8
M  END
>  <minimizedAffinity>  (1) 
-4.05845404

>  <minimizedRMSD>  (1) 
0.133985072

$$$$
