
     RDKit          3D

 20 21  0  0  0  0  0  0  0  0999 V2000
   43.6250   19.7210   37.0720 C   0  0  0  0  0  0  0  0  0  0  0  0
   42.4800   20.5020   37.3030 C   0  0  0  0  0  0  0  0  0  0  0  0
   41.9630   21.2220   36.2190 C   0  0  0  0  0  0  0  0  0  0  0  0
   42.6090   21.1140   35.0150 N   0  0  0  0  0  0  0  0  0  0  0  0
   43.6960   20.3600   34.8390 C   0  0  0  0  0  0  0  0  0  0  0  0
   44.2070   19.6570   35.8830 N   0  0  0  0  0  0  0  0  0  0  0  0
   40.7790   22.0510   36.3840 C   0  0  0  0  0  0  0  0  0  0  0  0
   39.9170   22.6470   35.5040 N   0  0  0  0  0  0  0  0  0  0  0  0
   39.0110   23.2860   36.1690 O   0  0  0  0  0  0  0  0  0  0  0  0
   39.2270   23.1430   37.4710 C   0  0  0  0  0  0  0  0  0  0  0  0
   40.3110   22.3870   37.5930 N   0  0  0  0  0  0  0  0  0  0  0  0
   38.4230   23.7140   38.5710 C   0  0  0  0  0  0  0  0  0  0  0  0
   39.2430   23.8730   39.6810 F   0  0  0  0  0  0  0  0  0  0  0  0
   37.3870   22.8590   38.9430 F   0  0  0  0  0  0  0  0  0  0  0  0
   37.9260   24.9370   38.2300 F   0  0  0  0  0  0  0  0  0  0  0  0
   44.3540   20.2730   33.5400 C   0  0  0  0  0  0  0  0  0  0  0  0
   45.0800   21.2150   33.1230 O   0  0  0  0  0  0  0  0  0  0  0  0
   44.0523   19.1438   37.9052 H   0  0  0  0  0  0  0  0  0  0  0  0
   42.0085   20.5460   38.2959 H   0  0  0  0  0  0  0  0  0  0  0  0
   44.2151   19.3763   32.9182 H   0  0  0  0  0  0  0  0  0  0  0  0
  1  2  2  0
  3  7  1  0
  3  2  1  0
  4  3  2  0
  5  4  1  0
  5  6  2  0
  6  1  1  0
  7 11  1  0
  8  9  1  0
  8  7  2  0
  9 10  1  0
 10 11  2  0
 10 12  1  0
 12 14  1  0
 12 13  1  0
 15 12  1  0
 16  5  1  0
 17 16  2  0
  1 18  1  0
  2 19  1  0
 16 20  1  0
M  ISO  3  18  14  19  14  20   6
M  END
>  <minimizedAffinity>  (1) 
-4.04627943

>  <minimizedRMSD>  (1) 
0.0516280197

$$$$
