
     RDKit          3D

 47 49  0  0  0  0  0  0  0  0999 V2000
   38.6460   23.4410   36.6290 C   0  0  0  0  0  0  0  0  0  0  0  0
   41.9690   21.7000   36.8980 C   0  0  0  0  0  0  0  0  0  0  0  0
   40.6220   21.9680   37.0680 C   0  0  0  0  0  0  0  0  0  0  0  0
   40.0550   23.1050   36.4860 C   0  0  0  0  0  0  0  0  0  0  0  0
   40.8680   23.9110   35.7670 N   0  0  0  0  0  0  0  0  0  0  0  0
   42.1810   23.6450   35.6030 C   0  0  0  0  0  0  0  0  0  0  0  0
   42.7260   22.5380   36.1720 N   0  0  0  0  0  0  0  0  0  0  0  0
   42.5360   20.4860   37.5300 C   0  0  0  0  0  0  0  0  0  0  0  0
   43.2140   19.5790   36.5680 C   0  0  0  0  0  0  0  0  0  0  0  0
   38.3110   23.3890   38.1080 C   0  0  0  0  0  0  0  0  0  0  0  0
   38.2890   24.7970   36.0510 C   0  0  0  0  0  0  0  0  0  0  0  0
   37.8160   22.4090   35.8970 C   0  0  0  0  0  0  0  0  0  0  0  0
   37.9430   22.4920   34.4830 N   0  0  0  0  0  0  0  0  0  0  0  0
   38.7970   21.8560   33.6340 C   0  0  0  0  0  0  0  0  0  0  0  0
   38.5400   22.2590   32.3560 N   0  0  0  0  0  0  0  0  0  0  0  0
   37.5320   23.1390   32.4140 C   0  0  0  0  0  0  0  0  0  0  0  0
   37.1870   23.2670   33.6980 N   0  0  0  0  0  0  0  0  0  0  0  0
   36.8610   23.8850   31.2950 C   0  0  0  0  0  0  0  0  0  0  0  0
   37.2510   25.3480   31.3140 C   0  0  0  0  0  0  0  0  0  0  0  0
   35.9500   26.1250   31.3550 C   0  0  0  0  0  0  0  0  0  0  0  0
   34.9710   25.1510   30.7290 C   0  0  0  0  0  0  0  0  0  0  0  0
   35.3770   23.8580   31.4390 C   0  0  0  0  0  0  0  0  0  0  0  0
   39.9968   21.2852   37.6620 H   0  0  0  0  0  0  0  0  0  0  0  0
   42.8098   24.3243   35.0088 H   0  0  0  0  0  0  0  0  0  0  0  0
   43.2680   20.7983   38.2894 H   0  0  0  0  0  0  0  0  0  0  0  0
   41.6959   19.9257   37.9662 H   0  0  0  0  0  0  0  0  0  0  0  0
   43.7833   18.8174   37.1210 H   0  0  0  0  0  0  0  0  0  0  0  0
   42.4609   19.0863   35.9354 H   0  0  0  0  0  0  0  0  0  0  0  0
   43.8997   20.1618   35.9354 H   0  0  0  0  0  0  0  0  0  0  0  0
   39.2290   23.5315   38.6971 H   0  0  0  0  0  0  0  0  0  0  0  0
   37.5928   24.1864   38.3495 H   0  0  0  0  0  0  0  0  0  0  0  0
   37.8684   22.4114   38.3495 H   0  0  0  0  0  0  0  0  0  0  0  0
   38.1021   25.5070   36.8701 H   0  0  0  0  0  0  0  0  0  0  0  0
   39.1216   25.1624   35.4318 H   0  0  0  0  0  0  0  0  0  0  0  0
   37.3845   24.7051   35.4318 H   0  0  0  0  0  0  0  0  0  0  0  0
   38.1383   21.4079   36.2193 H   0  0  0  0  0  0  0  0  0  0  0  0
   36.7614   22.6013   36.1435 H   0  0  0  0  0  0  0  0  0  0  0  0
   39.5707   21.1327   33.9312 H   0  0  0  0  0  0  0  0  0  0  0  0
   37.1785   23.3924   30.3641 H   0  0  0  0  0  0  0  0  0  0  0  0
   37.8577   25.5706   32.2042 H   0  0  0  0  0  0  0  0  0  0  0  0
   37.8538   25.6164   30.4339 H   0  0  0  0  0  0  0  0  0  0  0  0
   35.6638   26.3681   32.3889 H   0  0  0  0  0  0  0  0  0  0  0  0
   35.9994   27.0938   30.8363 H   0  0  0  0  0  0  0  0  0  0  0  0
   33.9284   25.4251   30.9480 H   0  0  0  0  0  0  0  0  0  0  0  0
   35.0085   25.1036   29.6307 H   0  0  0  0  0  0  0  0  0  0  0  0
   34.9425   22.9763   30.9452 H   0  0  0  0  0  0  0  0  0  0  0  0
   35.0313   23.7943   32.4813 H   0  0  0  0  0  0  0  0  0  0  0  0
  1 10  1  0
  2  3  2  0
  2  8  1  0
  4  1  1  0
  4  3  1  0
  5  4  2  0
  6  5  1  0
  6  7  2  0
  7  2  1  0
  9  8  1  0
 11  1  1  0
 12  1  1  0
 13 12  1  0
 14 13  1  0
 15 16  1  0
 15 14  2  0
 16 17  2  0
 17 13  1  0
 18 19  1  0
 18 22  1  0
 18 16  1  0
 19 20  1  0
 21 20  1  0
 21 22  1  0
  3 23  1  0
  6 24  1  0
  8 25  1  0
  8 26  1  0
  9 27  1  0
  9 28  1  0
  9 29  1  0
 10 30  1  0
 10 31  1  0
 10 32  1  0
 11 33  1  0
 11 34  1  0
 11 35  1  0
 12 36  1  0
 12 37  1  0
 14 38  1  0
 18 39  1  0
 19 40  1  0
 19 41  1  0
 20 42  1  0
 20 43  1  0
 21 44  1  0
 21 45  1  0
 22 46  1  0
 22 47  1  0
M  ISO  8  23  14  24  14  25   8  26   8  27   8  28   8  29   8  30   8
M  ISO  8  31   8  32   8  33   8  34   8  35   8  36   8  37   8  38  14
M  ISO  8  39  13  40  13  41  13  42  13  43  13  44  13  45  13  46  13
M  ISO  1  47  13
M  END
>  <minimizedAffinity>  (1) 
-4.84816504

>  <minimizedRMSD>  (1) 
0.768596351

$$$$
