
     RDKit          3D

 26 28  0  0  0  0  0  0  0  0999 V2000
   43.6220   19.7240   37.0900 C   0  0  0  0  0  0  0  0  0  0  0  0
   42.4780   20.5030   37.3050 C   0  0  0  0  0  0  0  0  0  0  0  0
   41.9500   21.2210   36.2320 C   0  0  0  0  0  0  0  0  0  0  0  0
   42.5920   21.1180   35.0130 N   0  0  0  0  0  0  0  0  0  0  0  0
   43.6740   20.3690   34.8480 C   0  0  0  0  0  0  0  0  0  0  0  0
   44.1940   19.6640   35.8970 N   0  0  0  0  0  0  0  0  0  0  0  0
   44.3320   20.2890   33.5240 C   0  0  0  0  0  0  0  0  0  0  0  0
   45.7130   20.0190   33.3740 C   0  0  0  0  0  0  0  0  0  0  0  0
   46.2110   19.9670   32.1130 C   0  0  0  0  0  0  0  0  0  0  0  0
   45.3920   20.1740   31.0070 C   0  0  0  0  0  0  0  0  0  0  0  0
   43.7430   20.4710   31.8220 S   0  0  0  0  0  0  0  0  0  0  0  0
   45.5420   20.1930   29.6810 O   0  0  0  0  0  0  0  0  0  0  0  0
   40.7610   22.0590   36.3670 C   0  0  0  0  0  0  0  0  0  0  0  0
   39.9160   22.6570   35.4970 N   0  0  0  0  0  0  0  0  0  0  0  0
   39.0010   23.2990   36.1640 O   0  0  0  0  0  0  0  0  0  0  0  0
   39.2160   23.1430   37.4750 C   0  0  0  0  0  0  0  0  0  0  0  0
   40.2980   22.3800   37.5930 N   0  0  0  0  0  0  0  0  0  0  0  0
   38.4190   23.7020   38.5810 C   0  0  0  0  0  0  0  0  0  0  0  0
   39.2430   23.8850   39.6840 F   0  0  0  0  0  0  0  0  0  0  0  0
   37.3820   22.8780   38.9210 F   0  0  0  0  0  0  0  0  0  0  0  0
   37.9440   24.9600   38.2350 F   0  0  0  0  0  0  0  0  0  0  0  0
   44.0524   19.1527   37.9257 H   0  0  0  0  0  0  0  0  0  0  0  0
   42.0065   20.5476   38.2978 H   0  0  0  0  0  0  0  0  0  0  0  0
   46.3599   19.8570   34.2488 H   0  0  0  0  0  0  0  0  0  0  0  0
   47.2803   19.7577   31.9623 H   0  0  0  0  0  0  0  0  0  0  0  0
   46.4331   20.0310   29.2813 H   0  0  0  0  0  0  0  0  0  0  0  0
  1  2  2  0
  3 13  1  0
  3  2  1  0
  4  3  2  0
  5  4  1  0
  5  6  2  0
  6  1  1  0
  7  5  1  0
  8  7  2  0
  9  8  1  0
 10 11  1  0
 10  9  2  0
 11  7  1  0
 12 10  1  0
 13 17  1  0
 14 15  1  0
 14 13  2  0
 15 16  1  0
 16 17  2  0
 16 18  1  0
 18 20  1  0
 18 19  1  0
 21 18  1  0
  1 22  1  0
  2 23  1  0
  8 24  1  0
  9 25  1  0
 12 26  1  0
M  ISO  5  22  14  23  14  24  14  25  14  26   3
M  END
>  <minimizedAffinity>  (1) 
-4.08008385

>  <minimizedRMSD>  (1) 
0.0130438432

$$$$
