
     RDKit          3D

 39 43  0  0  0  0  0  0  0  0999 V2000
   44.1330   20.1880   33.3820 C   0  0  0  0  0  0  0  0  0  0  0  0
   45.5070   20.3750   33.1250 C   0  0  0  0  0  0  0  0  0  0  0  0
   45.9310   20.2250   31.8430 C   0  0  0  0  0  0  0  0  0  0  0  0
   45.0450   19.8990   30.8170 C   0  0  0  0  0  0  0  0  0  0  0  0
   43.4430   19.7920   31.7540 S   0  0  0  0  0  0  0  0  0  0  0  0
   45.1180   19.6810   29.4770 N   0  0  0  0  0  0  0  0  0  0  0  0
   45.8220   18.6380   28.9470 C   0  0  0  0  0  0  0  0  0  0  0  0
   45.7460   18.6300   27.5920 N   0  0  0  0  0  0  0  0  0  0  0  0
   44.9740   19.7000   27.2710 C   0  0  0  0  0  0  0  0  0  0  0  0
   44.5330   20.2240   26.0720 C   0  0  0  0  0  0  0  0  0  0  0  0
   44.8560   19.6720   24.9750 O   0  0  0  0  0  0  0  0  0  0  0  0
   43.7540   21.3310   26.0800 N   0  0  0  0  0  0  0  0  0  0  0  0
   43.3750   21.9640   27.2110 C   0  0  0  0  0  0  0  0  0  0  0  0
   42.5530   23.1250   27.1100 N   0  0  0  0  0  0  0  0  0  0  0  0
   43.8000   21.4630   28.4070 N   0  0  0  0  0  0  0  0  0  0  0  0
   44.5840   20.3520   28.4340 C   0  0  0  0  0  0  0  0  0  0  0  0
   43.6180   19.7730   37.0000 C   0  0  0  0  0  0  0  0  0  0  0  0
   42.4900   20.5560   37.2510 C   0  0  0  0  0  0  0  0  0  0  0  0
   41.9010   21.2280   36.1760 C   0  0  0  0  0  0  0  0  0  0  0  0
   42.4690   21.0810   34.9230 N   0  0  0  0  0  0  0  0  0  0  0  0
   43.5480   20.3230   34.7340 C   0  0  0  0  0  0  0  0  0  0  0  0
   44.1270   19.6640   35.7830 N   0  0  0  0  0  0  0  0  0  0  0  0
   40.7130   22.0750   36.3390 C   0  0  0  0  0  0  0  0  0  0  0  0
   39.8630   22.6950   35.4890 N   0  0  0  0  0  0  0  0  0  0  0  0
   38.9640   23.3290   36.1820 O   0  0  0  0  0  0  0  0  0  0  0  0
   39.1880   23.1490   37.4750 C   0  0  0  0  0  0  0  0  0  0  0  0
   40.2670   22.3760   37.5710 N   0  0  0  0  0  0  0  0  0  0  0  0
   38.4040   23.6940   38.5990 C   0  0  0  0  0  0  0  0  0  0  0  0
   39.2630   23.8800   39.6950 F   0  0  0  0  0  0  0  0  0  0  0  0
   37.4050   22.8420   38.9850 F   0  0  0  0  0  0  0  0  0  0  0  0
   37.9120   24.9390   38.2830 F   0  0  0  0  0  0  0  0  0  0  0  0
   46.2088   20.6325   33.9319 H   0  0  0  0  0  0  0  0  0  0  0  0
   46.9969   20.3638   31.6093 H   0  0  0  0  0  0  0  0  0  0  0  0
   46.3791   17.8992   29.5418 H   0  0  0  0  0  0  0  0  0  0  0  0
   43.4340   21.7099   25.1773 H   0  0  0  0  0  0  0  0  0  0  0  0
   42.2545   23.6204   27.9623 H   0  0  0  0  0  0  0  0  0  0  0  0
   42.2578   23.4681   26.1848 H   0  0  0  0  0  0  0  0  0  0  0  0
   44.0946   19.2344   37.8323 H   0  0  0  0  0  0  0  0  0  0  0  0
   42.0761   20.6419   38.2665 H   0  0  0  0  0  0  0  0  0  0  0  0
  1 21  1  0
  2  1  2  0
  3  2  1  0
  4  5  1  0
  4  3  2  0
  5  1  1  0
  6  4  1  0
  7  6  1  0
  8  7  2  0
  9  8  1  0
  9 16  2  0
 10 12  1  0
 10  9  1  0
 11 10  2  0
 12 13  1  0
 13 15  2  0
 14 13  1  0
 15 16  1  0
 16  6  1  0
 17 18  2  0
 19 23  1  0
 19 18  1  0
 20 19  2  0
 21 20  1  0
 21 22  2  0
 22 17  1  0
 23 27  1  0
 24 25  1  0
 24 23  2  0
 25 26  1  0
 26 27  2  0
 26 28  1  0
 28 30  1  0
 28 29  1  0
 31 28  1  0
  2 32  1  0
  3 33  1  0
  7 34  1  0
 12 35  1  0
 14 36  1  0
 14 37  1  0
 17 38  1  0
 18 39  1  0
M  ISO  6  32  14  33  14  34  14  35   9  38  14  39  14
M  END
>  <minimizedAffinity>  (1) 
-3.93145323

>  <minimizedRMSD>  (1) 
0.687343955

$$$$
