
     RDKit          3D

 40 43  0  0  0  0  0  0  0  0999 V2000
   43.6190   19.7300   37.0840 C   0  0  0  0  0  0  0  0  0  0  0  0
   42.4750   20.5070   37.3040 C   0  0  0  0  0  0  0  0  0  0  0  0
   41.9380   21.2370   36.2270 C   0  0  0  0  0  0  0  0  0  0  0  0
   42.5930   21.1310   35.0110 N   0  0  0  0  0  0  0  0  0  0  0  0
   43.6750   20.3830   34.8450 C   0  0  0  0  0  0  0  0  0  0  0  0
   44.1970   19.6720   35.8920 N   0  0  0  0  0  0  0  0  0  0  0  0
   44.3330   20.3070   33.5240 C   0  0  0  0  0  0  0  0  0  0  0  0
   45.7150   20.0580   33.3660 C   0  0  0  0  0  0  0  0  0  0  0  0
   46.2120   19.9990   32.1040 C   0  0  0  0  0  0  0  0  0  0  0  0
   45.3860   20.1810   30.9980 C   0  0  0  0  0  0  0  0  0  0  0  0
   43.7370   20.4640   31.8170 S   0  0  0  0  0  0  0  0  0  0  0  0
   45.6360   20.1480   29.6440 N   0  0  0  0  0  0  0  0  0  0  0  0
   46.2200   21.0790   28.7270 C   0  0  0  0  0  0  0  0  0  0  0  0
   45.5460   21.2350   27.4120 C   0  0  0  0  0  0  0  0  0  0  0  0
   44.9050   19.9980   26.8550 C   0  0  0  0  0  0  0  0  0  0  0  0
   44.1180   19.3830   28.0190 C   0  0  0  0  0  0  0  0  0  0  0  0
   45.2280   18.9290   28.9760 C   0  0  0  0  0  0  0  0  0  0  0  0
   40.7550   22.0650   36.3660 C   0  0  0  0  0  0  0  0  0  0  0  0
   39.9120   22.6620   35.4960 N   0  0  0  0  0  0  0  0  0  0  0  0
   38.9960   23.3020   36.1700 O   0  0  0  0  0  0  0  0  0  0  0  0
   39.2160   23.1410   37.4810 C   0  0  0  0  0  0  0  0  0  0  0  0
   40.2970   22.3820   37.6000 N   0  0  0  0  0  0  0  0  0  0  0  0
   38.4110   23.7000   38.5700 C   0  0  0  0  0  0  0  0  0  0  0  0
   39.2440   23.8840   39.6840 F   0  0  0  0  0  0  0  0  0  0  0  0
   37.3700   22.8840   38.9230 F   0  0  0  0  0  0  0  0  0  0  0  0
   37.9470   24.9660   38.2320 F   0  0  0  0  0  0  0  0  0  0  0  0
   44.0475   19.1552   37.9182 H   0  0  0  0  0  0  0  0  0  0  0  0
   42.0056   20.5461   38.2981 H   0  0  0  0  0  0  0  0  0  0  0  0
   46.3685   19.9162   34.2394 H   0  0  0  0  0  0  0  0  0  0  0  0
   47.2840   19.8044   31.9529 H   0  0  0  0  0  0  0  0  0  0  0  0
   46.2305   22.0649   29.2148 H   0  0  0  0  0  0  0  0  0  0  0  0
   47.2142   20.6697   28.4946 H   0  0  0  0  0  0  0  0  0  0  0  0
   44.7633   21.9999   27.5228 H   0  0  0  0  0  0  0  0  0  0  0  0
   46.3397   21.5061   26.7002 H   0  0  0  0  0  0  0  0  0  0  0  0
   44.2280   20.2556   26.0271 H   0  0  0  0  0  0  0  0  0  0  0  0
   45.6519   19.2977   26.4529 H   0  0  0  0  0  0  0  0  0  0  0  0
   43.4654   20.1299   28.4947 H   0  0  0  0  0  0  0  0  0  0  0  0
   43.4484   18.5669   27.7096 H   0  0  0  0  0  0  0  0  0  0  0  0
   44.8438   18.1960   29.7006 H   0  0  0  0  0  0  0  0  0  0  0  0
   46.0601   18.4336   28.4542 H   0  0  0  0  0  0  0  0  0  0  0  0
  1  2  2  0
  3 18  1  0
  3  2  1  0
  4  3  2  0
  5  4  1  0
  5  6  2  0
  6  1  1  0
  7  5  1  0
  8  7  2  0
  9  8  1  0
 10 11  1  0
 10  9  2  0
 11  7  1  0
 12 10  1  0
 13 12  1  0
 14 13  1  0
 15 14  1  0
 15 16  1  0
 16 17  1  0
 17 12  1  0
 18 22  1  0
 19 20  1  0
 19 18  2  0
 20 21  1  0
 21 22  2  0
 21 23  1  0
 23 25  1  0
 23 24  1  0
 26 23  1  0
  1 27  1  0
  2 28  1  0
  8 29  1  0
  9 30  1  0
 13 31  1  0
 13 32  1  0
 14 33  1  0
 14 34  1  0
 15 35  1  0
 15 36  1  0
 16 37  1  0
 16 38  1  0
 17 39  1  0
 17 40  1  0
M  ISO  8  27  14  28  14  29  14  30  14  31  13  32  13  33  13  34  13
M  ISO  6  35  13  36  13  37  13  38  13  39  13  40  13
M  END
>  <minimizedAffinity>  (1) 
-3.88928413

>  <minimizedRMSD>  (1) 
0.132783443

$$$$
