
     RDKit          3D

 36 39  0  0  0  0  0  0  0  0999 V2000
   43.6200   19.7260   37.0930 C   0  0  0  0  0  0  0  0  0  0  0  0
   42.4760   20.5080   37.3070 C   0  0  0  0  0  0  0  0  0  0  0  0
   41.9450   21.2240   36.2320 C   0  0  0  0  0  0  0  0  0  0  0  0
   42.5890   21.1090   35.0240 N   0  0  0  0  0  0  0  0  0  0  0  0
   43.6700   20.3610   34.8460 C   0  0  0  0  0  0  0  0  0  0  0  0
   44.1970   19.6580   35.8940 N   0  0  0  0  0  0  0  0  0  0  0  0
   44.3060   20.2900   33.5110 C   0  0  0  0  0  0  0  0  0  0  0  0
   45.6680   19.9920   33.3570 C   0  0  0  0  0  0  0  0  0  0  0  0
   46.2050   19.9330   32.1130 C   0  0  0  0  0  0  0  0  0  0  0  0
   45.3880   20.1720   31.0100 C   0  0  0  0  0  0  0  0  0  0  0  0
   43.7320   20.5050   31.8230 S   0  0  0  0  0  0  0  0  0  0  0  0
   45.5890   20.1980   29.5970 N   0  0  0  0  0  0  0  0  0  0  0  0
   46.0170   21.3390   29.0360 C   0  0  0  0  0  0  0  0  0  0  0  0
   46.2010   21.3220   27.6480 C   0  0  0  0  0  0  0  0  0  0  0  0
   45.9320   20.1500   26.9710 C   0  0  0  0  0  0  0  0  0  0  0  0
   46.0730   19.9780   25.5510 N   0  0  0  0  0  0  0  0  0  0  0  0
   45.4990   19.0080   27.5660 N   0  0  0  0  0  0  0  0  0  0  0  0
   45.3260   19.0500   28.9220 C   0  0  0  0  0  0  0  0  0  0  0  0
   44.9230   18.0260   29.5640 O   0  0  0  0  0  0  0  0  0  0  0  0
   40.7640   22.0530   36.3790 C   0  0  0  0  0  0  0  0  0  0  0  0
   39.9070   22.6480   35.5050 N   0  0  0  0  0  0  0  0  0  0  0  0
   38.9940   23.2930   36.1650 O   0  0  0  0  0  0  0  0  0  0  0  0
   39.2140   23.1480   37.4730 C   0  0  0  0  0  0  0  0  0  0  0  0
   40.3000   22.3870   37.5990 N   0  0  0  0  0  0  0  0  0  0  0  0
   38.4210   23.7120   38.5810 C   0  0  0  0  0  0  0  0  0  0  0  0
   39.2450   23.8790   39.6870 F   0  0  0  0  0  0  0  0  0  0  0  0
   37.3810   22.8650   38.9340 F   0  0  0  0  0  0  0  0  0  0  0  0
   37.9290   24.9450   38.2260 F   0  0  0  0  0  0  0  0  0  0  0  0
   44.0494   19.1577   37.9312 H   0  0  0  0  0  0  0  0  0  0  0  0
   42.0067   20.5565   38.3007 H   0  0  0  0  0  0  0  0  0  0  0  0
   46.2970   19.8072   34.2403 H   0  0  0  0  0  0  0  0  0  0  0  0
   47.2713   19.6996   31.9767 H   0  0  0  0  0  0  0  0  0  0  0  0
   46.2131   22.2406   29.6349 H   0  0  0  0  0  0  0  0  0  0  0  0
   46.5500   22.2173   27.1126 H   0  0  0  0  0  0  0  0  0  0  0  0
   46.3946   20.7628   24.9666 H   0  0  0  0  0  0  0  0  0  0  0  0
   45.8525   19.0699   25.1178 H   0  0  0  0  0  0  0  0  0  0  0  0
  1  2  2  0
  3 20  1  0
  3  2  1  0
  4  3  2  0
  5  4  1  0
  5  6  2  0
  6  1  1  0
  7  5  1  0
  8  7  2  0
  9  8  1  0
 10 11  1  0
 10  9  2  0
 11  7  1  0
 12 10  1  0
 13 12  1  0
 14 13  2  0
 15 17  2  0
 15 14  1  0
 16 15  1  0
 17 18  1  0
 18 19  2  0
 18 12  1  0
 20 24  1  0
 21 22  1  0
 21 20  2  0
 22 23  1  0
 23 24  2  0
 23 25  1  0
 25 27  1  0
 25 26  1  0
 28 25  1  0
  1 29  1  0
  2 30  1  0
  8 31  1  0
  9 32  1  0
 13 33  1  0
 14 34  1  0
 16 35  1  0
 16 36  1  0
M  ISO  6  29  14  30  14  31  14  32  14  33  14  34  14
M  END
>  <minimizedAffinity>  (1) 
-3.88662434

>  <minimizedRMSD>  (1) 
0.078764379

$$$$
