
     RDKit          3D

 46 48  0  0  0  0  0  0  0  0999 V2000
   38.8980   23.4700   36.9030 C   0  0  0  0  0  0  0  0  0  0  0  0
   42.1450   21.5980   36.8470 C   0  0  0  0  0  0  0  0  0  0  0  0
   40.8290   21.9090   37.1530 C   0  0  0  0  0  0  0  0  0  0  0  0
   40.2620   23.0720   36.6350 C   0  0  0  0  0  0  0  0  0  0  0  0
   41.0370   23.8620   35.8410 N   0  0  0  0  0  0  0  0  0  0  0  0
   42.3160   23.5390   35.5580 C   0  0  0  0  0  0  0  0  0  0  0  0
   42.8660   22.4060   36.0630 N   0  0  0  0  0  0  0  0  0  0  0  0
   42.7200   20.3410   37.4210 C   0  0  0  0  0  0  0  0  0  0  0  0
   43.3560   19.4740   36.4020 C   0  0  0  0  0  0  0  0  0  0  0  0
   38.6810   23.3790   38.4060 C   0  0  0  0  0  0  0  0  0  0  0  0
   38.5440   24.8560   36.4180 C   0  0  0  0  0  0  0  0  0  0  0  0
   37.9490   22.4980   36.2330 C   0  0  0  0  0  0  0  0  0  0  0  0
   37.9700   22.6070   34.8110 N   0  0  0  0  0  0  0  0  0  0  0  0
   38.6720   21.8850   33.8950 C   0  0  0  0  0  0  0  0  0  0  0  0
   38.3800   22.3390   32.6380 N   0  0  0  0  0  0  0  0  0  0  0  0
   37.5060   23.3290   32.7960 C   0  0  0  0  0  0  0  0  0  0  0  0
   37.2610   23.4900   34.0910 N   0  0  0  0  0  0  0  0  0  0  0  0
   36.9570   24.0630   31.7060 N   0  0  0  0  0  0  0  0  0  0  0  0
   35.7440   23.7360   30.9780 C   0  0  0  0  0  0  0  0  0  0  0  0
   35.0520   25.1020   30.9860 C   0  0  0  0  0  0  0  0  0  0  0  0
   36.1470   26.1160   31.1410 C   0  0  0  0  0  0  0  0  0  0  0  0
   37.4210   25.2720   31.0470 C   0  0  0  0  0  0  0  0  0  0  0  0
   40.2375   21.2436   37.7990 H   0  0  0  0  0  0  0  0  0  0  0  0
   42.9166   24.1982   34.9139 H   0  0  0  0  0  0  0  0  0  0  0  0
   43.4773   20.6132   38.1709 H   0  0  0  0  0  0  0  0  0  0  0  0
   41.8885   19.7721   37.8626 H   0  0  0  0  0  0  0  0  0  0  0  0
   43.9354   18.6842   36.9025 H   0  0  0  0  0  0  0  0  0  0  0  0
   42.5783   19.0158   35.7734 H   0  0  0  0  0  0  0  0  0  0  0  0
   44.0266   20.0782   35.7734 H   0  0  0  0  0  0  0  0  0  0  0  0
   39.5736   23.7533   38.9287 H   0  0  0  0  0  0  0  0  0  0  0  0
   37.8089   23.9872   38.6880 H   0  0  0  0  0  0  0  0  0  0  0  0
   38.5036   22.3307   38.6880 H   0  0  0  0  0  0  0  0  0  0  0  0
   38.3757   25.5151   37.2824 H   0  0  0  0  0  0  0  0  0  0  0  0
   39.3695   25.2534   35.8092 H   0  0  0  0  0  0  0  0  0  0  0  0
   37.6291   24.8089   35.8092 H   0  0  0  0  0  0  0  0  0  0  0  0
   38.2373   21.4739   36.5127 H   0  0  0  0  0  0  0  0  0  0  0  0
   36.9303   22.7380   36.5717 H   0  0  0  0  0  0  0  0  0  0  0  0
   39.3660   21.0643   34.1291 H   0  0  0  0  0  0  0  0  0  0  0  0
   35.1477   22.9733   31.5002 H   0  0  0  0  0  0  0  0  0  0  0  0
   35.9055   23.3045   29.9791 H   0  0  0  0  0  0  0  0  0  0  0  0
   34.5121   25.2631   30.0412 H   0  0  0  0  0  0  0  0  0  0  0  0
   34.3142   25.1765   31.7985 H   0  0  0  0  0  0  0  0  0  0  0  0
   36.1090   26.8639   30.3353 H   0  0  0  0  0  0  0  0  0  0  0  0
   36.0763   26.6875   32.0782 H   0  0  0  0  0  0  0  0  0  0  0  0
   37.7127   25.0842   30.0031 H   0  0  0  0  0  0  0  0  0  0  0  0
   38.3193   25.7297   31.4869 H   0  0  0  0  0  0  0  0  0  0  0  0
  1 10  1  0
  2  3  2  0
  2  8  1  0
  4  1  1  0
  4  3  1  0
  5  4  2  0
  6  5  1  0
  6  7  2  0
  7  2  1  0
  9  8  1  0
 11  1  1  0
 12  1  1  0
 13 12  1  0
 14 13  1  0
 15 16  1  0
 15 14  2  0
 16 17  2  0
 17 13  1  0
 18 16  1  0
 19 20  1  0
 19 18  1  0
 20 21  1  0
 22 21  1  0
 22 18  1  0
  3 23  1  0
  6 24  1  0
  8 25  1  0
  8 26  1  0
  9 27  1  0
  9 28  1  0
  9 29  1  0
 10 30  1  0
 10 31  1  0
 10 32  1  0
 11 33  1  0
 11 34  1  0
 11 35  1  0
 12 36  1  0
 12 37  1  0
 14 38  1  0
 19 39  1  0
 19 40  1  0
 20 41  1  0
 20 42  1  0
 21 43  1  0
 21 44  1  0
 22 45  1  0
 22 46  1  0
M  ISO  8  23  14  24  14  25   8  26   8  27   8  28   8  29   8  30   8
M  ISO  8  31   8  32   8  33   8  34   8  35   8  36   8  37   8  38  14
M  ISO  8  39  13  40  13  41  13  42  13  43  13  44  13  45  13  46  13
M  END
>  <minimizedAffinity>  (1) 
-4.82365942

>  <minimizedRMSD>  (1) 
0.791312218

$$$$
