
     RDKit          3D

 38 41  0  0  0  0  0  0  0  0999 V2000
   43.6230   19.7300   37.0850 C   0  0  0  0  0  0  0  0  0  0  0  0
   42.4780   20.5070   37.3050 C   0  0  0  0  0  0  0  0  0  0  0  0
   41.9500   21.2180   36.2320 C   0  0  0  0  0  0  0  0  0  0  0  0
   42.5870   21.1180   35.0090 N   0  0  0  0  0  0  0  0  0  0  0  0
   43.6730   20.3690   34.8410 C   0  0  0  0  0  0  0  0  0  0  0  0
   44.2020   19.6640   35.8870 N   0  0  0  0  0  0  0  0  0  0  0  0
   44.3200   20.2980   33.5090 C   0  0  0  0  0  0  0  0  0  0  0  0
   45.6940   20.0510   33.3610 C   0  0  0  0  0  0  0  0  0  0  0  0
   46.2340   20.0000   32.1120 C   0  0  0  0  0  0  0  0  0  0  0  0
   45.3800   20.2000   30.9970 C   0  0  0  0  0  0  0  0  0  0  0  0
   43.7380   20.4700   31.8170 S   0  0  0  0  0  0  0  0  0  0  0  0
   45.5920   20.2080   29.5990 C   0  0  0  0  0  0  0  0  0  0  0  0
   46.9040   20.7690   29.1070 C   0  0  0  0  0  0  0  0  0  0  0  0
   46.6700   22.2530   29.1210 C   0  0  0  0  0  0  0  0  0  0  0  0
   45.2240   22.4000   28.7760 C   0  0  0  0  0  0  0  0  0  0  0  0
   44.5840   21.0440   28.8880 C   0  0  0  0  0  0  0  0  0  0  0  0
   40.7550   22.0610   36.3640 C   0  0  0  0  0  0  0  0  0  0  0  0
   39.9150   22.6580   35.4980 N   0  0  0  0  0  0  0  0  0  0  0  0
   39.0010   23.3010   36.1650 O   0  0  0  0  0  0  0  0  0  0  0  0
   39.2150   23.1440   37.4690 C   0  0  0  0  0  0  0  0  0  0  0  0
   40.2940   22.3820   37.5880 N   0  0  0  0  0  0  0  0  0  0  0  0
   38.4150   23.7050   38.5710 C   0  0  0  0  0  0  0  0  0  0  0  0
   39.2460   23.8800   39.6850 F   0  0  0  0  0  0  0  0  0  0  0  0
   37.3910   22.8730   38.9300 F   0  0  0  0  0  0  0  0  0  0  0  0
   37.9520   24.9730   38.2320 F   0  0  0  0  0  0  0  0  0  0  0  0
   44.0542   19.1608   37.9216 H   0  0  0  0  0  0  0  0  0  0  0  0
   42.0093   20.5536   38.2990 H   0  0  0  0  0  0  0  0  0  0  0  0
   46.3290   19.8999   34.2464 H   0  0  0  0  0  0  0  0  0  0  0  0
   47.3079   19.8081   31.9708 H   0  0  0  0  0  0  0  0  0  0  0  0
   45.5422   19.1305   29.3833 H   0  0  0  0  0  0  0  0  0  0  0  0
   47.1279   20.4146   28.0900 H   0  0  0  0  0  0  0  0  0  0  0  0
   47.7623   20.4619   29.7227 H   0  0  0  0  0  0  0  0  0  0  0  0
   46.8778   22.6712   30.1170 H   0  0  0  0  0  0  0  0  0  0  0  0
   47.3267   22.7894   28.4203 H   0  0  0  0  0  0  0  0  0  0  0  0
   45.1212   22.7784   27.7483 H   0  0  0  0  0  0  0  0  0  0  0  0
   44.7369   23.1121   29.4584 H   0  0  0  0  0  0  0  0  0  0  0  0
   43.6504   21.1022   29.4668 H   0  0  0  0  0  0  0  0  0  0  0  0
   44.3160   20.6277   27.9057 H   0  0  0  0  0  0  0  0  0  0  0  0
  1  2  2  0
  3 17  1  0
  3  2  1  0
  4  3  2  0
  5  4  1  0
  5  6  2  0
  6  1  1  0
  7  5  1  0
  8  7  2  0
  9  8  1  0
 10 11  1  0
 10  9  2  0
 11  7  1  0
 12 10  1  0
 13 14  1  0
 13 12  1  0
 15 16  1  0
 15 14  1  0
 16 12  1  0
 17 21  1  0
 18 19  1  0
 18 17  2  0
 19 20  1  0
 20 21  2  0
 20 22  1  0
 22 24  1  0
 22 23  1  0
 25 22  1  0
  1 26  1  0
  2 27  1  0
  8 28  1  0
  9 29  1  0
 12 30  1  0
 13 31  1  0
 13 32  1  0
 14 33  1  0
 14 34  1  0
 15 35  1  0
 15 36  1  0
 16 37  1  0
 16 38  1  0
M  ISO  8  26  14  27  14  28  14  29  14  30  13  31  13  32  13  33  13
M  ISO  5  34  13  35  13  36  13  37  13  38  13
M  END
>  <minimizedAffinity>  (1) 
-3.88645697

>  <minimizedRMSD>  (1) 
0.0462909415

$$$$
