
     RDKit          3D

 41 42  0  0  0  0  0  0  0  0999 V2000
   38.6850   23.5890   36.9970 C   0  0  0  0  0  0  0  0  0  0  0  0
   41.9160   21.6890   36.9000 C   0  0  0  0  0  0  0  0  0  0  0  0
   40.6210   22.0330   37.2410 C   0  0  0  0  0  0  0  0  0  0  0  0
   40.0430   23.1710   36.6810 C   0  0  0  0  0  0  0  0  0  0  0  0
   40.7880   23.9010   35.8160 N   0  0  0  0  0  0  0  0  0  0  0  0
   42.0500   23.5560   35.4910 C   0  0  0  0  0  0  0  0  0  0  0  0
   42.6100   22.4450   36.0390 N   0  0  0  0  0  0  0  0  0  0  0  0
   42.5100   20.4600   37.5190 C   0  0  0  0  0  0  0  0  0  0  0  0
   43.2130   19.5970   36.5440 C   0  0  0  0  0  0  0  0  0  0  0  0
   38.4790   23.4030   38.4890 C   0  0  0  0  0  0  0  0  0  0  0  0
   38.3790   25.0200   36.6050 C   0  0  0  0  0  0  0  0  0  0  0  0
   37.6940   22.6990   36.2620 C   0  0  0  0  0  0  0  0  0  0  0  0
   37.8510   22.7680   34.8470 N   0  0  0  0  0  0  0  0  0  0  0  0
   38.0190   21.7690   33.9430 C   0  0  0  0  0  0  0  0  0  0  0  0
   38.1250   22.3160   32.6910 N   0  0  0  0  0  0  0  0  0  0  0  0
   38.0240   23.6370   32.8310 C   0  0  0  0  0  0  0  0  0  0  0  0
   37.8590   23.8990   34.1240 N   0  0  0  0  0  0  0  0  0  0  0  0
   38.0810   24.6000   31.7720 N   0  0  0  0  0  0  0  0  0  0  0  0
   37.1330   25.6680   31.7280 C   0  0  0  0  0  0  0  0  0  0  0  0
   36.6990   26.0710   32.8870 N   0  0  0  0  0  0  0  0  0  0  0  0
   36.7580   26.1840   30.4320 N   0  0  0  0  0  0  0  0  0  0  0  0
   35.9980   26.8620   32.8480 H   0  0  0  0  0  0  0  0  0  0  0  0
   40.0512   21.4132   37.9489 H   0  0  0  0  0  0  0  0  0  0  0  0
   42.6253   24.1719   34.7841 H   0  0  0  0  0  0  0  0  0  0  0  0
   43.2280   20.7704   38.2924 H   0  0  0  0  0  0  0  0  0  0  0  0
   41.6802   19.8714   37.9374 H   0  0  0  0  0  0  0  0  0  0  0  0
   43.8188   18.8533   37.0825 H   0  0  0  0  0  0  0  0  0  0  0  0
   42.4751   19.0808   35.9123 H   0  0  0  0  0  0  0  0  0  0  0  0
   43.8678   20.2153   35.9123 H   0  0  0  0  0  0  0  0  0  0  0  0
   39.1860   24.0414   39.0391 H   0  0  0  0  0  0  0  0  0  0  0  0
   37.4489   23.6830   38.7546 H   0  0  0  0  0  0  0  0  0  0  0  0
   38.6527   22.3498   38.7546 H   0  0  0  0  0  0  0  0  0  0  0  0
   38.2488   25.6288   37.5119 H   0  0  0  0  0  0  0  0  0  0  0  0
   39.2113   25.4230   36.0092 H   0  0  0  0  0  0  0  0  0  0  0  0
   37.4547   25.0473   36.0092 H   0  0  0  0  0  0  0  0  0  0  0  0
   37.8463   21.6584   36.5845 H   0  0  0  0  0  0  0  0  0  0  0  0
   36.6807   23.0509   36.5057 H   0  0  0  0  0  0  0  0  0  0  0  0
   38.0629   20.6952   34.1775 H   0  0  0  0  0  0  0  0  0  0  0  0
   38.8046   24.5226   31.0431 H   0  0  0  0  0  0  0  0  0  0  0  0
   36.0773   26.9538   30.3614 H   0  0  0  0  0  0  0  0  0  0  0  0
   37.1713   25.7822   29.5784 H   0  0  0  0  0  0  0  0  0  0  0  0
  1 10  1  0
  2  3  2  0
  2  8  1  0
  4  1  1  0
  4  3  1  0
  5  4  2  0
  6  5  1  0
  6  7  2  0
  7  2  1  0
  9  8  1  0
 11  1  1  0
 12  1  1  0
 13 12  1  0
 14 13  1  0
 15 16  1  0
 15 14  2  0
 16 17  2  0
 17 13  1  0
 18 16  1  0
 19 18  1  0
 19 20  2  0
 21 19  1  0
 22 20  1  0
  3 23  1  0
  6 24  1  0
  8 25  1  0
  8 26  1  0
  9 27  1  0
  9 28  1  0
  9 29  1  0
 10 30  1  0
 10 31  1  0
 10 32  1  0
 11 33  1  0
 11 34  1  0
 11 35  1  0
 12 36  1  0
 12 37  1  0
 14 38  1  0
 18 39  1  0
 21 40  1  0
 21 41  1  0
M  ISO  8  23  14  24  14  25   8  26   8  27   8  28   8  29   8  30   8
M  ISO  8  31   8  32   8  33   8  34   8  35   8  36   8  37   8  38  14
M  END
>  <minimizedAffinity>  (1) 
-4.81370115

>  <minimizedRMSD>  (1) 
0.435899228

$$$$
