
     RDKit          3D

 32 35  0  0  0  0  0  0  0  0999 V2000
   43.6220   19.7310   37.0840 C   0  0  0  0  0  0  0  0  0  0  0  0
   42.4810   20.5050   37.3040 C   0  0  0  0  0  0  0  0  0  0  0  0
   41.9490   21.2190   36.2380 C   0  0  0  0  0  0  0  0  0  0  0  0
   42.5880   21.1170   35.0160 N   0  0  0  0  0  0  0  0  0  0  0  0
   43.6760   20.3690   34.8430 C   0  0  0  0  0  0  0  0  0  0  0  0
   44.2030   19.6650   35.8880 N   0  0  0  0  0  0  0  0  0  0  0  0
   44.3150   20.3030   33.5070 C   0  0  0  0  0  0  0  0  0  0  0  0
   45.6900   20.0500   33.3640 C   0  0  0  0  0  0  0  0  0  0  0  0
   46.2310   19.9950   32.1170 C   0  0  0  0  0  0  0  0  0  0  0  0
   45.4010   20.1940   31.0150 C   0  0  0  0  0  0  0  0  0  0  0  0
   43.7340   20.4780   31.8180 S   0  0  0  0  0  0  0  0  0  0  0  0
   45.5350   20.2210   29.6260 C   0  0  0  0  0  0  0  0  0  0  0  0
   45.2210   21.3440   28.8930 C   0  0  0  0  0  0  0  0  0  0  0  0
   45.4610   21.0580   27.5440 C   0  0  0  0  0  0  0  0  0  0  0  0
   45.9160   19.7400   27.5740 C   0  0  0  0  0  0  0  0  0  0  0  0
   45.9440   19.2890   28.8110 O   0  0  0  0  0  0  0  0  0  0  0  0
   40.7540   22.0620   36.3650 C   0  0  0  0  0  0  0  0  0  0  0  0
   39.9070   22.6630   35.4950 N   0  0  0  0  0  0  0  0  0  0  0  0
   39.0020   23.3000   36.1660 O   0  0  0  0  0  0  0  0  0  0  0  0
   39.2150   23.1450   37.4700 C   0  0  0  0  0  0  0  0  0  0  0  0
   40.2930   22.3830   37.5860 N   0  0  0  0  0  0  0  0  0  0  0  0
   38.4170   23.7040   38.5750 C   0  0  0  0  0  0  0  0  0  0  0  0
   39.2490   23.8810   39.6860 F   0  0  0  0  0  0  0  0  0  0  0  0
   37.3890   22.8690   38.9300 F   0  0  0  0  0  0  0  0  0  0  0  0
   37.9370   24.9530   38.2270 F   0  0  0  0  0  0  0  0  0  0  0  0
   44.0521   19.1609   37.9207 H   0  0  0  0  0  0  0  0  0  0  0  0
   42.0140   20.5484   38.2990 H   0  0  0  0  0  0  0  0  0  0  0  0
   46.3223   19.8980   34.2512 H   0  0  0  0  0  0  0  0  0  0  0  0
   47.3044   19.7970   31.9808 H   0  0  0  0  0  0  0  0  0  0  0  0
   44.8477   22.2969   29.2963 H   0  0  0  0  0  0  0  0  0  0  0  0
   45.3240   21.7139   26.6716 H   0  0  0  0  0  0  0  0  0  0  0  0
   46.2104   19.1583   26.6880 H   0  0  0  0  0  0  0  0  0  0  0  0
  1  2  2  0
  3 17  1  0
  3  2  1  0
  4  3  2  0
  5  4  1  0
  5  6  2  0
  6  1  1  0
  7  5  1  0
  8  7  2  0
  9  8  1  0
 10 11  1  0
 10  9  2  0
 11  7  1  0
 12 10  1  0
 13 12  2  0
 14 15  2  0
 14 13  1  0
 15 16  1  0
 16 12  1  0
 17 21  1  0
 18 19  1  0
 18 17  2  0
 19 20  1  0
 20 21  2  0
 20 22  1  0
 22 24  1  0
 22 23  1  0
 25 22  1  0
  1 26  1  0
  2 27  1  0
  8 28  1  0
  9 29  1  0
 13 30  1  0
 14 31  1  0
 15 32  1  0
M  ISO  7  26  14  27  14  28  14  29  14  30  14  31  14  32  14
M  END
>  <minimizedAffinity>  (1) 
-3.88311791

>  <minimizedRMSD>  (1) 
0.0207044501

$$$$
