
     RDKit          3D

 39 43  0  0  0  0  0  0  0  0999 V2000
   44.3180   20.3070   33.5220 C   0  0  0  0  0  0  0  0  0  0  0  0
   45.6950   20.1510   33.3460 C   0  0  0  0  0  0  0  0  0  0  0  0
   46.2220   20.0940   32.0980 C   0  0  0  0  0  0  0  0  0  0  0  0
   45.3920   20.1930   30.9870 C   0  0  0  0  0  0  0  0  0  0  0  0
   43.7600   20.3760   31.8250 S   0  0  0  0  0  0  0  0  0  0  0  0
   45.3890   20.1510   29.5710 C   0  0  0  0  0  0  0  0  0  0  0  0
   45.4070   21.3240   28.8710 N   0  0  0  0  0  0  0  0  0  0  0  0
   45.3060   21.3990   27.5440 C   0  0  0  0  0  0  0  0  0  0  0  0
   45.1770   20.2910   26.8010 N   0  0  0  0  0  0  0  0  0  0  0  0
   45.1480   19.0680   27.3690 C   0  0  0  0  0  0  0  0  0  0  0  0
   45.0470   17.9250   26.6120 C   0  0  0  0  0  0  0  0  0  0  0  0
   45.0550   16.6840   27.2130 C   0  0  0  0  0  0  0  0  0  0  0  0
   45.1700   16.6720   28.6080 C   0  0  0  0  0  0  0  0  0  0  0  0
   45.2680   17.8470   29.3120 C   0  0  0  0  0  0  0  0  0  0  0  0
   45.2600   19.0930   28.7380 C   0  0  0  0  0  0  0  0  0  0  0  0
   43.6230   19.7320   37.0850 C   0  0  0  0  0  0  0  0  0  0  0  0
   42.4750   20.5060   37.3020 C   0  0  0  0  0  0  0  0  0  0  0  0
   41.9470   21.2170   36.2320 C   0  0  0  0  0  0  0  0  0  0  0  0
   42.5780   21.1230   35.0030 N   0  0  0  0  0  0  0  0  0  0  0  0
   43.6700   20.3750   34.8400 C   0  0  0  0  0  0  0  0  0  0  0  0
   44.2000   19.6720   35.8840 N   0  0  0  0  0  0  0  0  0  0  0  0
   40.7530   22.0610   36.3560 C   0  0  0  0  0  0  0  0  0  0  0  0
   39.9120   22.6710   35.4890 N   0  0  0  0  0  0  0  0  0  0  0  0
   39.0010   23.3110   36.1620 O   0  0  0  0  0  0  0  0  0  0  0  0
   39.2110   23.1470   37.4650 C   0  0  0  0  0  0  0  0  0  0  0  0
   40.2860   22.3790   37.5810 N   0  0  0  0  0  0  0  0  0  0  0  0
   38.4120   23.7010   38.5720 C   0  0  0  0  0  0  0  0  0  0  0  0
   39.2510   23.8820   39.6840 F   0  0  0  0  0  0  0  0  0  0  0  0
   37.3840   22.8740   38.9270 F   0  0  0  0  0  0  0  0  0  0  0  0
   37.9480   24.9690   38.2400 F   0  0  0  0  0  0  0  0  0  0  0  0
   46.3543   20.0741   34.2232 H   0  0  0  0  0  0  0  0  0  0  0  0
   47.3067   19.9694   31.9645 H   0  0  0  0  0  0  0  0  0  0  0  0
   45.3288   22.3828   27.0524 H   0  0  0  0  0  0  0  0  0  0  0  0
   44.9591   18.0010   25.5182 H   0  0  0  0  0  0  0  0  0  0  0  0
   44.9755   15.7553   26.6288 H   0  0  0  0  0  0  0  0  0  0  0  0
   45.1820   15.7123   29.1454 H   0  0  0  0  0  0  0  0  0  0  0  0
   45.3587   17.7851   30.4065 H   0  0  0  0  0  0  0  0  0  0  0  0
   44.0564   19.1633   37.9209 H   0  0  0  0  0  0  0  0  0  0  0  0
   42.0038   20.5494   38.2950 H   0  0  0  0  0  0  0  0  0  0  0  0
  1 20  1  0
  2  1  2  0
  3  2  1  0
  4  5  1  0
  4  3  2  0
  5  1  1  0
  6  4  1  0
  7  6  2  0
  8  7  1  0
  9 10  1  0
  9  8  2  0
 10 15  2  0
 11 12  2  0
 11 10  1  0
 12 13  1  0
 13 14  2  0
 15 14  1  0
 15  6  1  0
 16 17  2  0
 18 22  1  0
 18 17  1  0
 19 18  2  0
 20 19  1  0
 20 21  2  0
 21 16  1  0
 22 26  1  0
 23 24  1  0
 23 22  2  0
 24 25  1  0
 25 26  2  0
 25 27  1  0
 27 29  1  0
 27 28  1  0
 30 27  1  0
  2 31  1  0
  3 32  1  0
  8 33  1  0
 11 34  1  0
 12 35  1  0
 13 36  1  0
 14 37  1  0
 16 38  1  0
 17 39  1  0
M  ISO  8  31  14  32  14  33  14  34  14  35  14  36  14  37  14  38  14
M  ISO  1  39  14
M  END
>  <minimizedAffinity>  (1) 
-3.88384581

>  <minimizedRMSD>  (1) 
0.281045079

$$$$
