
     RDKit          3D

 38 41  0  0  0  0  0  0  0  0999 V2000
   43.6180   19.7280   37.0880 C   0  0  0  0  0  0  0  0  0  0  0  0
   42.4760   20.5060   37.3070 C   0  0  0  0  0  0  0  0  0  0  0  0
   41.9480   21.2180   36.2370 C   0  0  0  0  0  0  0  0  0  0  0  0
   42.5890   21.1140   35.0160 N   0  0  0  0  0  0  0  0  0  0  0  0
   43.6730   20.3630   34.8520 C   0  0  0  0  0  0  0  0  0  0  0  0
   44.2000   19.6610   35.8920 N   0  0  0  0  0  0  0  0  0  0  0  0
   44.3310   20.2880   33.5160 C   0  0  0  0  0  0  0  0  0  0  0  0
   45.7190   20.0270   33.3730 C   0  0  0  0  0  0  0  0  0  0  0  0
   46.1890   19.9930   32.1010 C   0  0  0  0  0  0  0  0  0  0  0  0
   45.3780   20.1960   30.9880 C   0  0  0  0  0  0  0  0  0  0  0  0
   43.7410   20.4750   31.8230 S   0  0  0  0  0  0  0  0  0  0  0  0
   45.9400   20.3250   26.8950 C   0  0  0  0  0  0  0  0  0  0  0  0
   46.0740   21.4990   27.6420 C   0  0  0  0  0  0  0  0  0  0  0  0
   45.8770   21.4040   29.0060 C   0  0  0  0  0  0  0  0  0  0  0  0
   45.5630   20.2210   29.6100 C   0  0  0  0  0  0  0  0  0  0  0  0
   45.4290   19.0610   28.8800 C   0  0  0  0  0  0  0  0  0  0  0  0
   45.6230   19.1220   27.5000 C   0  0  0  0  0  0  0  0  0  0  0  0
   46.1680   20.3370   25.1730 S   0  0  0  0  0  0  0  0  0  0  0  0
   45.8440   21.6950   24.6190 O   0  0  0  0  0  0  0  0  0  0  0  0
   45.2020   19.3690   24.5060 O   0  0  0  0  0  0  0  0  0  0  0  0
   40.7610   22.0570   36.3680 C   0  0  0  0  0  0  0  0  0  0  0  0
   39.9190   22.6590   35.5080 N   0  0  0  0  0  0  0  0  0  0  0  0
   39.0050   23.3010   36.1740 O   0  0  0  0  0  0  0  0  0  0  0  0
   39.2170   23.1430   37.4780 C   0  0  0  0  0  0  0  0  0  0  0  0
   40.2910   22.3810   37.5880 N   0  0  0  0  0  0  0  0  0  0  0  0
   38.4120   23.7050   38.5750 C   0  0  0  0  0  0  0  0  0  0  0  0
   39.2410   23.8890   39.6880 F   0  0  0  0  0  0  0  0  0  0  0  0
   37.3790   22.8740   38.9210 F   0  0  0  0  0  0  0  0  0  0  0  0
   37.9590   24.9770   38.2470 F   0  0  0  0  0  0  0  0  0  0  0  0
   44.0461   19.1570   37.9251 H   0  0  0  0  0  0  0  0  0  0  0  0
   42.0079   20.5528   38.3013 H   0  0  0  0  0  0  0  0  0  0  0  0
   46.3739   19.8623   34.2413 H   0  0  0  0  0  0  0  0  0  0  0  0
   47.2595   19.7961   31.9418 H   0  0  0  0  0  0  0  0  0  0  0  0
   46.3255   22.4573   27.1642 H   0  0  0  0  0  0  0  0  0  0  0  0
   45.9762   22.3087   29.6238 H   0  0  0  0  0  0  0  0  0  0  0  0
   45.1755   18.1107   29.3725 H   0  0  0  0  0  0  0  0  0  0  0  0
   45.5237   18.2112   26.8913 H   0  0  0  0  0  0  0  0  0  0  0  0
   47.4708   19.9907   24.9287 H   0  0  0  0  0  0  0  0  0  0  0  0
  1  2  2  0
  3 21  1  0
  3  2  1  0
  4  3  2  0
  5  4  1  0
  5  6  2  0
  6  1  1  0
  7  5  1  0
  8  7  2  0
  9  8  1  0
 10 11  1  0
 10  9  2  0
 11  7  1  0
 12 17  2  0
 12 13  1  0
 13 14  2  0
 14 15  1  0
 15 10  1  0
 16 15  2  0
 17 16  1  0
 18 12  1  0
 19 18  2  0
 20 18  2  0
 21 25  1  0
 22 23  1  0
 22 21  2  0
 23 24  1  0
 24 25  2  0
 24 26  1  0
 26 28  1  0
 26 27  1  0
 29 26  1  0
  1 30  1  0
  2 31  1  0
  8 32  1  0
  9 33  1  0
 13 34  1  0
 14 35  1  0
 16 36  1  0
 17 37  1  0
 18 38  1  0
M  ISO  8  30  14  31  14  32  14  33  14  34  14  35  14  36  14  37  14
M  ISO  1  38  11
M  END
>  <minimizedAffinity>  (1) 
-3.71395564

>  <minimizedRMSD>  (1) 
0.0113545805

$$$$
