
     RDKit          3D

 34 37  0  0  0  0  0  0  0  0999 V2000
   43.6230   19.7280   37.0860 C   0  0  0  0  0  0  0  0  0  0  0  0
   42.4780   20.5050   37.3070 C   0  0  0  0  0  0  0  0  0  0  0  0
   41.9510   21.2140   36.2360 C   0  0  0  0  0  0  0  0  0  0  0  0
   42.5880   21.1130   35.0150 N   0  0  0  0  0  0  0  0  0  0  0  0
   43.6770   20.3630   34.8460 C   0  0  0  0  0  0  0  0  0  0  0  0
   44.2020   19.6610   35.8940 N   0  0  0  0  0  0  0  0  0  0  0  0
   44.3170   20.3020   33.5070 C   0  0  0  0  0  0  0  0  0  0  0  0
   45.7000   20.0800   33.3590 C   0  0  0  0  0  0  0  0  0  0  0  0
   46.2220   20.0370   32.1050 C   0  0  0  0  0  0  0  0  0  0  0  0
   45.3870   20.2140   31.0040 C   0  0  0  0  0  0  0  0  0  0  0  0
   43.7410   20.4570   31.8140 S   0  0  0  0  0  0  0  0  0  0  0  0
   45.5970   20.2290   29.5880 C   0  0  0  0  0  0  0  0  0  0  0  0
   44.5050   20.5430   28.8090 C   0  0  0  0  0  0  0  0  0  0  0  0
   44.7080   20.5590   27.4260 C   0  0  0  0  0  0  0  0  0  0  0  0
   45.9900   20.2570   26.9610 C   0  0  0  0  0  0  0  0  0  0  0  0
   47.0580   19.9470   27.7790 C   0  0  0  0  0  0  0  0  0  0  0  0
   46.8220   19.9420   29.1240 N   0  0  0  0  0  0  0  0  0  0  0  0
   40.7560   22.0590   36.3590 C   0  0  0  0  0  0  0  0  0  0  0  0
   39.9100   22.6650   35.5010 N   0  0  0  0  0  0  0  0  0  0  0  0
   39.0010   23.3040   36.1620 O   0  0  0  0  0  0  0  0  0  0  0  0
   39.2150   23.1440   37.4700 C   0  0  0  0  0  0  0  0  0  0  0  0
   40.2920   22.3800   37.5820 N   0  0  0  0  0  0  0  0  0  0  0  0
   38.4200   23.7010   38.5820 C   0  0  0  0  0  0  0  0  0  0  0  0
   39.2480   23.8820   39.6840 F   0  0  0  0  0  0  0  0  0  0  0  0
   37.3820   22.8780   38.9220 F   0  0  0  0  0  0  0  0  0  0  0  0
   37.9420   24.9600   38.2310 F   0  0  0  0  0  0  0  0  0  0  0  0
   44.0533   19.1585   37.9230 H   0  0  0  0  0  0  0  0  0  0  0  0
   42.0098   20.5519   38.3013 H   0  0  0  0  0  0  0  0  0  0  0  0
   46.3442   19.9442   34.2402 H   0  0  0  0  0  0  0  0  0  0  0  0
   47.2985   19.8633   31.9601 H   0  0  0  0  0  0  0  0  0  0  0  0
   43.5241   20.7694   29.2523 H   0  0  0  0  0  0  0  0  0  0  0  0
   43.8901   20.8000   26.7311 H   0  0  0  0  0  0  0  0  0  0  0  0
   46.1594   20.2668   25.8742 H   0  0  0  0  0  0  0  0  0  0  0  0
   48.0513   19.7152   27.3672 H   0  0  0  0  0  0  0  0  0  0  0  0
  1  2  2  0
  3 18  1  0
  3  2  1  0
  4  3  2  0
  5  4  1  0
  5  6  2  0
  6  1  1  0
  7  5  1  0
  8  7  2  0
  9  8  1  0
 10 11  1  0
 10  9  2  0
 11  7  1  0
 12 10  1  0
 13 12  2  0
 14 13  1  0
 15 14  2  0
 15 16  1  0
 16 17  2  0
 17 12  1  0
 18 22  1  0
 19 20  1  0
 19 18  2  0
 20 21  1  0
 21 22  2  0
 21 23  1  0
 23 25  1  0
 23 24  1  0
 26 23  1  0
  1 27  1  0
  2 28  1  0
  8 29  1  0
  9 30  1  0
 13 31  1  0
 14 32  1  0
 15 33  1  0
 16 34  1  0
M  ISO  8  27  14  28  14  29  14  30  14  31  14  32  14  33  14  34  14
M  END
>  <minimizedAffinity>  (1) 
-3.88214874

>  <minimizedRMSD>  (1) 
0.151354

$$$$
