
     RDKit          3D

 27 29  0  0  0  0  0  0  0  0999 V2000
   42.7230   21.0080   36.9080 C   0  0  0  0  0  0  0  0  0  0  0  0
   41.3880   21.2880   37.2350 C   0  0  0  0  0  0  0  0  0  0  0  0
   40.9420   22.5930   37.0980 C   0  0  0  0  0  0  0  0  0  0  0  0
   41.8310   23.5310   36.6510 N   0  0  0  0  0  0  0  0  0  0  0  0
   43.1050   23.2240   36.3470 C   0  0  0  0  0  0  0  0  0  0  0  0
   43.5500   21.9770   36.4730 N   0  0  0  0  0  0  0  0  0  0  0  0
   43.8190   24.3840   35.9050 N   0  0  0  0  0  0  0  0  0  0  0  0
   44.7270   24.8370   36.7880 C   0  0  0  0  0  0  0  0  0  0  0  0
   45.4640   25.9620   36.4330 C   0  0  0  0  0  0  0  0  0  0  0  0
   45.2330   26.5650   35.1940 C   0  0  0  0  0  0  0  0  0  0  0  0
   45.9150   27.5840   34.8960 O   0  0  0  0  0  0  0  0  0  0  0  0
   44.3030   26.0510   34.3600 N   0  0  0  0  0  0  0  0  0  0  0  0
   43.5890   24.9570   34.7100 C   0  0  0  0  0  0  0  0  0  0  0  0
   42.7070   24.4530   33.9430 O   0  0  0  0  0  0  0  0  0  0  0  0
   39.5630   22.9250   37.4280 C   0  0  0  0  0  0  0  0  0  0  0  0
   38.6020   23.3390   36.5160 C   0  0  0  0  0  0  0  0  0  0  0  0
   37.4650   23.5410   37.2380 N   0  0  0  0  0  0  0  0  0  0  0  0
   37.7530   23.2560   38.5230 C   0  0  0  0  0  0  0  0  0  0  0  0
   39.0100   22.8850   38.6490 N   0  0  0  0  0  0  0  0  0  0  0  0
   43.1003   19.9797   37.0087 H   0  0  0  0  0  0  0  0  0  0  0  0
   40.7142   20.4943   37.5901 H   0  0  0  0  0  0  0  0  0  0  0  0
   44.8810   24.3362   37.7552 H   0  0  0  0  0  0  0  0  0  0  0  0
   46.2195   26.3719   37.1194 H   0  0  0  0  0  0  0  0  0  0  0  0
   44.1357   26.4974   33.4470 H   0  0  0  0  0  0  0  0  0  0  0  0
   38.7321   23.4759   35.4323 H   0  0  0  0  0  0  0  0  0  0  0  0
   37.0354   23.3240   39.3539 H   0  0  0  0  0  0  0  0  0  0  0  0
   39.4815   22.6141   39.5238 H   0  0  0  0  0  0  0  0  0  0  0  0
  1  2  2  0
  3  2  1  0
  3 15  1  0
  4  3  2  0
  5  6  2  0
  5  4  1  0
  6  1  1  0
  7  5  1  0
  7  8  1  0
  9  8  2  0
 10  9  1  0
 11 10  2  0
 12 13  1  0
 12 10  1  0
 13  7  1  0
 14 13  2  0
 15 19  1  0
 16 17  1  0
 16 15  2  0
 17 18  2  0
 18 19  1  0
  1 20  1  0
  2 21  1  0
  8 22  1  0
  9 23  1  0
 12 24  1  0
 16 25  1  0
 18 26  1  0
 19 27  1  0
M  ISO  8  20  14  21  14  22  14  23  14  24   9  25  14  26  14  27   9
M  END
>  <minimizedAffinity>  (1) 
-5.10996294

>  <minimizedRMSD>  (1) 
3.94511819

$$$$
