
     RDKit          3D

 24 25  0  0  0  0  0  0  0  0999 V2000
   42.5470   20.8300   37.0140 C   0  0  0  0  0  0  0  0  0  0  0  0
   41.4620   21.5050   37.5800 C   0  0  0  0  0  0  0  0  0  0  0  0
   40.5930   22.1460   36.7150 C   0  0  0  0  0  0  0  0  0  0  0  0
   40.8530   22.0750   35.3770 N   0  0  0  0  0  0  0  0  0  0  0  0
   41.8980   21.4230   34.8640 C   0  0  0  0  0  0  0  0  0  0  0  0
   42.7430   20.8010   35.6820 N   0  0  0  0  0  0  0  0  0  0  0  0
   42.0910   21.4020   33.4560 N   0  0  0  0  0  0  0  0  0  0  0  0
   41.0190   21.1530   32.5560 C   0  0  0  0  0  0  0  0  0  0  0  0
   39.8120   21.4850   32.9380 N   0  0  0  0  0  0  0  0  0  0  0  0
   41.3600   20.5540   31.2970 N   0  0  0  0  0  0  0  0  0  0  0  0
   39.0640   21.2710   32.2190 H   0  0  0  0  0  0  0  0  0  0  0  0
   39.4500   22.8610   37.2640 C   0  0  0  0  0  0  0  0  0  0  0  0
   38.5890   23.6700   36.5080 C   0  0  0  0  0  0  0  0  0  0  0  0
   37.6670   24.1440   37.3940 N   0  0  0  0  0  0  0  0  0  0  0  0
   37.9650   23.6440   38.6110 C   0  0  0  0  0  0  0  0  0  0  0  0
   39.0350   22.8710   38.5470 N   0  0  0  0  0  0  0  0  0  0  0  0
   43.2581   20.3098   37.6725 H   0  0  0  0  0  0  0  0  0  0  0  0
   41.3053   21.5258   38.6686 H   0  0  0  0  0  0  0  0  0  0  0  0
   43.0336   21.5719   33.0772 H   0  0  0  0  0  0  0  0  0  0  0  0
   42.3418   20.3268   31.0839 H   0  0  0  0  0  0  0  0  0  0  0  0
   40.6229   20.3514   30.6066 H   0  0  0  0  0  0  0  0  0  0  0  0
   38.6455   23.8780   35.4293 H   0  0  0  0  0  0  0  0  0  0  0  0
   37.3961   23.8510   39.5294 H   0  0  0  0  0  0  0  0  0  0  0  0
   39.4718   22.3684   39.3328 H   0  0  0  0  0  0  0  0  0  0  0  0
  1  2  2  0
  3 12  1  0
  3  2  1  0
  4  3  2  0
  5  4  1  0
  5  6  2  0
  6  1  1  0
  7  5  1  0
  8  9  2  0
  8  7  1  0
 10  8  1  0
 11  9  1  0
 12 16  1  0
 13 12  2  0
 13 14  1  0
 14 15  2  0
 16 15  1  0
  1 17  1  0
  2 18  1  0
  7 19  1  0
 10 20  1  0
 10 21  1  0
 13 22  1  0
 15 23  1  0
 16 24  1  0
M  ISO  5  17  14  18  14  22  14  23  14  24   9
M  END
>  <minimizedAffinity>  (1) 
-3.97396231

>  <minimizedRMSD>  (1) 
0.129086614

$$$$
