
     RDKit          3D

 30 33  0  0  0  0  0  0  0  0999 V2000
   42.4130   20.9430   36.3220 C   0  0  0  0  0  0  0  0  0  0  0  0
   41.4560   21.6080   37.1010 C   0  0  0  0  0  0  0  0  0  0  0  0
   40.4280   22.2730   36.4520 C   0  0  0  0  0  0  0  0  0  0  0  0
   40.4240   22.2290   35.0880 N   0  0  0  0  0  0  0  0  0  0  0  0
   41.3480   21.5890   34.3690 C   0  0  0  0  0  0  0  0  0  0  0  0
   42.3380   20.9480   34.9850 N   0  0  0  0  0  0  0  0  0  0  0  0
   41.2280   21.6220   32.9380 N   0  0  0  0  0  0  0  0  0  0  0  0
   42.1470   21.9590   32.0100 C   0  0  0  0  0  0  0  0  0  0  0  0
   41.5890   21.8430   30.7720 N   0  0  0  0  0  0  0  0  0  0  0  0
   40.3300   21.4350   30.9620 C   0  0  0  0  0  0  0  0  0  0  0  0
   39.2720   21.1410   30.1260 C   0  0  0  0  0  0  0  0  0  0  0  0
   38.0550   20.7320   30.5910 N   0  0  0  0  0  0  0  0  0  0  0  0
   37.8650   20.6040   31.9370 C   0  0  0  0  0  0  0  0  0  0  0  0
   38.8710   20.8820   32.7830 N   0  0  0  0  0  0  0  0  0  0  0  0
   40.0650   21.2840   32.3070 C   0  0  0  0  0  0  0  0  0  0  0  0
   39.4230   22.9700   37.2450 C   0  0  0  0  0  0  0  0  0  0  0  0
   38.5600   23.9440   36.7320 C   0  0  0  0  0  0  0  0  0  0  0  0
   37.7880   24.3430   37.7730 N   0  0  0  0  0  0  0  0  0  0  0  0
   38.1840   23.6320   38.8510 C   0  0  0  0  0  0  0  0  0  0  0  0
   39.1680   22.7950   38.5670 N   0  0  0  0  0  0  0  0  0  0  0  0
   39.4130   21.2550   28.7150 N   0  0  0  0  0  0  0  0  0  0  0  0
   43.2379   20.4091   36.8164 H   0  0  0  0  0  0  0  0  0  0  0  0
   41.5194   21.6021   38.1992 H   0  0  0  0  0  0  0  0  0  0  0  0
   43.1795   22.2761   32.2186 H   0  0  0  0  0  0  0  0  0  0  0  0
   36.8910   20.2742   32.3276 H   0  0  0  0  0  0  0  0  0  0  0  0
   38.5165   24.3112   35.6960 H   0  0  0  0  0  0  0  0  0  0  0  0
   37.7388   23.7371   39.8514 H   0  0  0  0  0  0  0  0  0  0  0  0
   39.6412   22.1469   39.2128 H   0  0  0  0  0  0  0  0  0  0  0  0
   40.3098   21.5594   28.3100 H   0  0  0  0  0  0  0  0  0  0  0  0
   38.6183   21.0331   28.0984 H   0  0  0  0  0  0  0  0  0  0  0  0
  1  2  2  0
  3  2  1  0
  3 16  1  0
  4  3  2  0
  5  6  2  0
  5  4  1  0
  6  1  1  0
  7  5  1  0
  8  7  1  0
  9 10  1  0
  9  8  2  0
 10 15  2  0
 11 12  2  0
 11 10  1  0
 12 13  1  0
 13 14  2  0
 15 14  1  0
 15  7  1  0
 16 20  1  0
 17 16  2  0
 17 18  1  0
 18 19  2  0
 20 19  1  0
 21 11  1  0
  1 22  1  0
  2 23  1  0
  8 24  1  0
 13 25  1  0
 17 26  1  0
 19 27  1  0
 20 28  1  0
 21 29  1  0
 21 30  1  0
M  ISO  7  22  14  23  14  24  14  25  14  26  14  27  14  28   9
M  END
>  <minimizedAffinity>  (1) 
-4.43376207

>  <minimizedRMSD>  (1) 
1.11952186

$$$$
