
     RDKit          3D

 40 42  0  0  0  0  0  0  0  0999 V2000
   38.6910   23.5430   37.0360 C   0  0  0  0  0  0  0  0  0  0  0  0
   41.9440   21.6960   36.9270 C   0  0  0  0  0  0  0  0  0  0  0  0
   40.6310   21.9920   37.2770 C   0  0  0  0  0  0  0  0  0  0  0  0
   40.0510   23.1550   36.7290 C   0  0  0  0  0  0  0  0  0  0  0  0
   40.7900   23.9180   35.8990 N   0  0  0  0  0  0  0  0  0  0  0  0
   42.0640   23.6020   35.5790 C   0  0  0  0  0  0  0  0  0  0  0  0
   42.6320   22.4880   36.0990 N   0  0  0  0  0  0  0  0  0  0  0  0
   42.5530   20.4590   37.5130 C   0  0  0  0  0  0  0  0  0  0  0  0
   43.1820   19.5800   36.4980 C   0  0  0  0  0  0  0  0  0  0  0  0
   38.4330   23.2200   38.5070 C   0  0  0  0  0  0  0  0  0  0  0  0
   38.3760   24.9900   36.7760 C   0  0  0  0  0  0  0  0  0  0  0  0
   37.7180   22.7120   36.1990 C   0  0  0  0  0  0  0  0  0  0  0  0
   37.9070   22.9150   34.8060 N   0  0  0  0  0  0  0  0  0  0  0  0
   38.2070   22.0390   33.8120 C   0  0  0  0  0  0  0  0  0  0  0  0
   38.2870   22.7020   32.6260 N   0  0  0  0  0  0  0  0  0  0  0  0
   38.0390   23.9860   32.8810 C   0  0  0  0  0  0  0  0  0  0  0  0
   37.8130   24.1010   34.1850 N   0  0  0  0  0  0  0  0  0  0  0  0
   38.0170   25.0520   31.9360 N   0  0  0  0  0  0  0  0  0  0  0  0
   36.9960   25.8960   31.6990 C   0  0  0  0  0  0  0  0  0  0  0  0
   37.3430   26.7720   30.7380 N   0  0  0  0  0  0  0  0  0  0  0  0
   38.5910   26.4770   30.3680 C   0  0  0  0  0  0  0  0  0  0  0  0
   39.0040   25.4110   31.1130 N   0  0  0  0  0  0  0  0  0  0  0  0
   40.0638   21.3409   37.9584 H   0  0  0  0  0  0  0  0  0  0  0  0
   42.6382   24.2476   34.8982 H   0  0  0  0  0  0  0  0  0  0  0  0
   43.3218   20.7588   38.2404 H   0  0  0  0  0  0  0  0  0  0  0  0
   41.7403   19.8858   37.9830 H   0  0  0  0  0  0  0  0  0  0  0  0
   43.7507   18.7853   37.0030 H   0  0  0  0  0  0  0  0  0  0  0  0
   42.4006   19.1286   35.8690 H   0  0  0  0  0  0  0  0  0  0  0  0
   43.8614   20.1740   35.8690 H   0  0  0  0  0  0  0  0  0  0  0  0
   38.9942   23.9226   39.1406 H   0  0  0  0  0  0  0  0  0  0  0  0
   37.3578   23.3130   38.7197 H   0  0  0  0  0  0  0  0  0  0  0  0
   38.7613   22.1919   38.7197 H   0  0  0  0  0  0  0  0  0  0  0  0
   38.2610   25.5181   37.7341 H   0  0  0  0  0  0  0  0  0  0  0  0
   39.1958   25.4463   36.2019 H   0  0  0  0  0  0  0  0  0  0  0  0
   37.4407   25.0642   36.2019 H   0  0  0  0  0  0  0  0  0  0  0  0
   37.8732   21.6471   36.4270 H   0  0  0  0  0  0  0  0  0  0  0  0
   36.6955   23.0283   36.4529 H   0  0  0  0  0  0  0  0  0  0  0  0
   38.3617   20.9581   33.9453 H   0  0  0  0  0  0  0  0  0  0  0  0
   36.0239   25.8733   32.2134 H   0  0  0  0  0  0  0  0  0  0  0  0
   39.1807   26.9994   29.6003 H   0  0  0  0  0  0  0  0  0  0  0  0
  1 10  1  0
  2  3  2  0
  2  8  1  0
  4  1  1  0
  4  3  1  0
  5  4  2  0
  6  5  1  0
  6  7  2  0
  7  2  1  0
  9  8  1  0
 11  1  1  0
 12  1  1  0
 13 12  1  0
 14 13  1  0
 15 16  1  0
 15 14  2  0
 16 17  2  0
 17 13  1  0
 18 16  1  0
 19 18  1  0
 20 19  2  0
 21 20  1  0
 21 22  2  0
 22 18  1  0
  3 23  1  0
  6 24  1  0
  8 25  1  0
  8 26  1  0
  9 27  1  0
  9 28  1  0
  9 29  1  0
 10 30  1  0
 10 31  1  0
 10 32  1  0
 11 33  1  0
 11 34  1  0
 11 35  1  0
 12 36  1  0
 12 37  1  0
 14 38  1  0
 19 39  1  0
 21 40  1  0
M  ISO  8  23  14  24  14  25   8  26   8  27   8  28   8  29   8  30   8
M  ISO  8  31   8  32   8  33   8  34   8  35   8  36   8  37   8  38  14
M  ISO  2  39  14  40  14
M  END
>  <minimizedAffinity>  (1) 
-4.59997272

>  <minimizedRMSD>  (1) 
0.594320178

$$$$
