
     RDKit          3D

 30 32  0  0  0  0  0  0  0  0999 V2000
   42.5350   20.8110   37.0120 C   0  0  0  0  0  0  0  0  0  0  0  0
   41.4450   21.4870   37.5900 C   0  0  0  0  0  0  0  0  0  0  0  0
   40.5950   22.1670   36.7340 C   0  0  0  0  0  0  0  0  0  0  0  0
   40.8520   22.1520   35.3730 N   0  0  0  0  0  0  0  0  0  0  0  0
   41.9040   21.4920   34.8860 C   0  0  0  0  0  0  0  0  0  0  0  0
   42.7410   20.8280   35.6780 N   0  0  0  0  0  0  0  0  0  0  0  0
   39.4410   22.8880   37.2870 C   0  0  0  0  0  0  0  0  0  0  0  0
   38.5960   23.7120   36.5500 C   0  0  0  0  0  0  0  0  0  0  0  0
   37.6710   24.1770   37.4340 N   0  0  0  0  0  0  0  0  0  0  0  0
   37.9750   23.6410   38.6320 C   0  0  0  0  0  0  0  0  0  0  0  0
   39.0420   22.8570   38.5670 N   0  0  0  0  0  0  0  0  0  0  0  0
   42.1440   21.5020   33.4180 C   0  0  0  0  0  0  0  0  0  0  0  0
   41.1940   20.6650   32.6320 C   0  0  0  0  0  0  0  0  0  0  0  0
   41.0550   21.3600   31.2780 C   0  0  0  0  0  0  0  0  0  0  0  0
   41.9900   22.5710   31.3540 C   0  0  0  0  0  0  0  0  0  0  0  0
   41.8830   22.8900   32.8390 C   0  0  0  0  0  0  0  0  0  0  0  0
   43.2322   20.2584   37.6590 H   0  0  0  0  0  0  0  0  0  0  0  0
   41.2750   21.4759   38.6767 H   0  0  0  0  0  0  0  0  0  0  0  0
   38.6618   23.9403   35.4760 H   0  0  0  0  0  0  0  0  0  0  0  0
   37.4059   23.8312   39.5539 H   0  0  0  0  0  0  0  0  0  0  0  0
   39.4753   22.3322   39.3402 H   0  0  0  0  0  0  0  0  0  0  0  0
   43.1786   21.1383   33.3325 H   0  0  0  0  0  0  0  0  0  0  0  0
   41.5946   19.6488   32.5024 H   0  0  0  0  0  0  0  0  0  0  0  0
   40.2232   20.5663   33.1398 H   0  0  0  0  0  0  0  0  0  0  0  0
   40.0164   21.6835   31.1146 H   0  0  0  0  0  0  0  0  0  0  0  0
   41.3126   20.6918   30.4430 H   0  0  0  0  0  0  0  0  0  0  0  0
   43.0191   22.3118   31.0646 H   0  0  0  0  0  0  0  0  0  0  0  0
   41.7309   23.4012   30.6805 H   0  0  0  0  0  0  0  0  0  0  0  0
   42.6446   23.6168   33.1579 H   0  0  0  0  0  0  0  0  0  0  0  0
   40.9356   23.3548   33.1496 H   0  0  0  0  0  0  0  0  0  0  0  0
  1  2  2  0
  3  7  1  0
  3  2  1  0
  4  3  2  0
  5  4  1  0
  5  6  2  0
  6  1  1  0
  7 11  1  0
  8  7  2  0
  8  9  1  0
  9 10  2  0
 11 10  1  0
 12  5  1  0
 13 12  1  0
 14 15  1  0
 14 13  1  0
 15 16  1  0
 16 12  1  0
  1 17  1  0
  2 18  1  0
  8 19  1  0
 10 20  1  0
 11 21  1  0
 12 22  1  0
 13 23  1  0
 13 24  1  0
 14 25  1  0
 14 26  1  0
 15 27  1  0
 15 28  1  0
 16 29  1  0
 16 30  1  0
M  ISO  8  17  14  18  14  19  14  20  14  21   9  22  13  23  13  24  13
M  ISO  6  25  13  26  13  27  13  28  13  29  13  30  13
M  END
>  <minimizedAffinity>  (1) 
-3.78107882

>  <minimizedRMSD>  (1) 
0.523534775

$$$$
