
     RDKit          3D

 19 20  0  0  0  0  0  0  0  0999 V2000
   42.5380   20.7910   37.0620 C   0  0  0  0  0  0  0  0  0  0  0  0
   41.4360   21.4680   37.5900 C   0  0  0  0  0  0  0  0  0  0  0  0
   40.6030   22.1560   36.7140 C   0  0  0  0  0  0  0  0  0  0  0  0
   40.9140   22.1280   35.3780 N   0  0  0  0  0  0  0  0  0  0  0  0
   41.9800   21.4650   34.9210 C   0  0  0  0  0  0  0  0  0  0  0  0
   42.7910   20.7990   35.7480 N   0  0  0  0  0  0  0  0  0  0  0  0
   42.2090   21.5010   33.5170 N   0  0  0  0  0  0  0  0  0  0  0  0
   39.4460   22.8690   37.2580 C   0  0  0  0  0  0  0  0  0  0  0  0
   38.6010   23.6540   36.4840 C   0  0  0  0  0  0  0  0  0  0  0  0
   37.6600   24.1380   37.3490 N   0  0  0  0  0  0  0  0  0  0  0  0
   37.9630   23.6440   38.5730 C   0  0  0  0  0  0  0  0  0  0  0  0
   39.0330   22.8750   38.5530 N   0  0  0  0  0  0  0  0  0  0  0  0
   43.2095   20.2417   37.7382 H   0  0  0  0  0  0  0  0  0  0  0  0
   41.2323   21.4573   38.6709 H   0  0  0  0  0  0  0  0  0  0  0  0
   43.0174   21.0059   33.1142 H   0  0  0  0  0  0  0  0  0  0  0  0
   41.5664   22.0222   32.9036 H   0  0  0  0  0  0  0  0  0  0  0  0
   38.6738   23.8456   35.4033 H   0  0  0  0  0  0  0  0  0  0  0  0
   37.3816   23.8602   39.4814 H   0  0  0  0  0  0  0  0  0  0  0  0
   39.4643   22.3834   39.3488 H   0  0  0  0  0  0  0  0  0  0  0  0
  1  2  2  0
  3  8  1  0
  3  2  1  0
  4  3  2  0
  5  4  1  0
  5  6  2  0
  6  1  1  0
  7  5  1  0
  8 12  1  0
  9  8  2  0
  9 10  1  0
 10 11  2  0
 12 11  1  0
  1 13  1  0
  2 14  1  0
  7 15  1  0
  7 16  1  0
  9 17  1  0
 11 18  1  0
 12 19  1  0
M  ISO  5  13  14  14  14  17  14  18  14  19   9
M  END
>  <minimizedAffinity>  (1) 
-3.783113

>  <minimizedRMSD>  (1) 
0.0267829765

$$$$
