
     RDKit          3D

 29 31  0  0  0  0  0  0  0  0999 V2000
   42.5370   20.8090   37.0590 C   0  0  0  0  0  0  0  0  0  0  0  0
   41.4470   21.5010   37.5930 C   0  0  0  0  0  0  0  0  0  0  0  0
   40.5880   22.1580   36.7290 C   0  0  0  0  0  0  0  0  0  0  0  0
   40.8490   22.1000   35.3700 N   0  0  0  0  0  0  0  0  0  0  0  0
   41.9090   21.4230   34.9150 C   0  0  0  0  0  0  0  0  0  0  0  0
   42.7470   20.7830   35.7280 N   0  0  0  0  0  0  0  0  0  0  0  0
   42.1510   21.3820   33.5120 N   0  0  0  0  0  0  0  0  0  0  0  0
   42.6790   22.4140   32.6360 C   0  0  0  0  0  0  0  0  0  0  0  0
   41.9290   22.2200   31.3120 C   0  0  0  0  0  0  0  0  0  0  0  0
   41.0910   20.9730   31.5460 C   0  0  0  0  0  0  0  0  0  0  0  0
   41.9200   20.2680   32.6070 C   0  0  0  0  0  0  0  0  0  0  0  0
   39.4510   22.8790   37.3020 C   0  0  0  0  0  0  0  0  0  0  0  0
   38.6210   23.7120   36.5460 C   0  0  0  0  0  0  0  0  0  0  0  0
   37.6900   24.1950   37.4170 N   0  0  0  0  0  0  0  0  0  0  0  0
   37.9670   23.6670   38.6210 C   0  0  0  0  0  0  0  0  0  0  0  0
   39.0260   22.8700   38.5720 N   0  0  0  0  0  0  0  0  0  0  0  0
   43.2297   20.2809   37.7307 H   0  0  0  0  0  0  0  0  0  0  0  0
   41.2748   21.5233   38.6792 H   0  0  0  0  0  0  0  0  0  0  0  0
   42.4819   23.4135   33.0509 H   0  0  0  0  0  0  0  0  0  0  0  0
   43.7694   22.3380   32.5124 H   0  0  0  0  0  0  0  0  0  0  0  0
   42.6340   22.0676   30.4815 H   0  0  0  0  0  0  0  0  0  0  0  0
   41.3209   23.0943   31.0367 H   0  0  0  0  0  0  0  0  0  0  0  0
   40.0866   21.2241   31.9177 H   0  0  0  0  0  0  0  0  0  0  0  0
   40.9031   20.3743   30.6425 H   0  0  0  0  0  0  0  0  0  0  0  0
   41.3599   19.4549   33.0919 H   0  0  0  0  0  0  0  0  0  0  0  0
   42.8283   19.7701   32.2366 H   0  0  0  0  0  0  0  0  0  0  0  0
   38.7022   23.9321   35.4713 H   0  0  0  0  0  0  0  0  0  0  0  0
   37.3877   23.8704   39.5337 H   0  0  0  0  0  0  0  0  0  0  0  0
   39.4402   22.3469   39.3566 H   0  0  0  0  0  0  0  0  0  0  0  0
  1  2  2  0
  3 12  1  0
  3  2  1  0
  4  3  2  0
  5  4  1  0
  5  6  2  0
  6  1  1  0
  7  5  1  0
  8  7  1  0
  9 10  1  0
  9  8  1  0
 10 11  1  0
 11  7  1  0
 12 16  1  0
 13 12  2  0
 13 14  1  0
 14 15  2  0
 16 15  1  0
  1 17  1  0
  2 18  1  0
  8 19  1  0
  8 20  1  0
  9 21  1  0
  9 22  1  0
 10 23  1  0
 10 24  1  0
 11 25  1  0
 11 26  1  0
 13 27  1  0
 15 28  1  0
 16 29  1  0
M  ISO  8  17  14  18  14  19  13  20  13  21  13  22  13  23  13  24  13
M  ISO  5  25  13  26  13  27  14  28  14  29   9
M  END
>  <minimizedAffinity>  (1) 
-3.94280386

>  <minimizedRMSD>  (1) 
0.11968822

$$$$
