
     RDKit          3D

 26 28  0  0  0  0  0  0  0  0999 V2000
   42.5530   20.8070   37.0770 C   0  0  0  0  0  0  0  0  0  0  0  0
   41.4480   21.4960   37.5990 C   0  0  0  0  0  0  0  0  0  0  0  0
   40.5890   22.1490   36.7090 C   0  0  0  0  0  0  0  0  0  0  0  0
   40.8690   22.0830   35.3670 N   0  0  0  0  0  0  0  0  0  0  0  0
   41.9330   21.4150   34.9140 C   0  0  0  0  0  0  0  0  0  0  0  0
   42.7690   20.7810   35.7570 N   0  0  0  0  0  0  0  0  0  0  0  0
   39.4540   22.8550   37.2770 C   0  0  0  0  0  0  0  0  0  0  0  0
   38.6010   23.6610   36.5020 C   0  0  0  0  0  0  0  0  0  0  0  0
   37.6710   24.1490   37.3600 N   0  0  0  0  0  0  0  0  0  0  0  0
   37.9630   23.6540   38.5850 C   0  0  0  0  0  0  0  0  0  0  0  0
   39.0280   22.8780   38.5480 N   0  0  0  0  0  0  0  0  0  0  0  0
   42.1860   21.3770   33.4710 C   0  0  0  0  0  0  0  0  0  0  0  0
   43.3760   21.8780   32.9580 C   0  0  0  0  0  0  0  0  0  0  0  0
   43.5700   21.8190   31.5810 C   0  0  0  0  0  0  0  0  0  0  0  0
   42.5940   21.2710   30.7540 C   0  0  0  0  0  0  0  0  0  0  0  0
   41.4260   20.7850   31.3170 C   0  0  0  0  0  0  0  0  0  0  0  0
   41.2500   20.8500   32.6560 N   0  0  0  0  0  0  0  0  0  0  0  0
   43.2445   20.2862   37.7557 H   0  0  0  0  0  0  0  0  0  0  0  0
   41.2615   21.5221   38.6828 H   0  0  0  0  0  0  0  0  0  0  0  0
   38.6733   23.8556   35.4218 H   0  0  0  0  0  0  0  0  0  0  0  0
   37.3854   23.8714   39.4956 H   0  0  0  0  0  0  0  0  0  0  0  0
   39.4527   22.3828   39.3451 H   0  0  0  0  0  0  0  0  0  0  0  0
   44.1418   22.3083   33.6201 H   0  0  0  0  0  0  0  0  0  0  0  0
   44.5011   22.2082   31.1434 H   0  0  0  0  0  0  0  0  0  0  0  0
   42.7486   21.2245   29.6659 H   0  0  0  0  0  0  0  0  0  0  0  0
   40.6448   20.3480   30.6777 H   0  0  0  0  0  0  0  0  0  0  0  0
  1  2  2  0
  3  7  1  0
  3  2  1  0
  4  3  2  0
  5  4  1  0
  5  6  2  0
  6  1  1  0
  7 11  1  0
  8  7  2  0
  8  9  1  0
  9 10  2  0
 11 10  1  0
 12  5  1  0
 13 12  2  0
 14 13  1  0
 15 16  1  0
 15 14  2  0
 16 17  2  0
 17 12  1  0
  1 18  1  0
  2 19  1  0
  8 20  1  0
 10 21  1  0
 11 22  1  0
 13 23  1  0
 14 24  1  0
 15 25  1  0
 16 26  1  0
M  ISO  8  18  14  19  14  20  14  21  14  22   9  23  14  24  14  25  14
M  ISO  1  26  14
M  END
>  <minimizedAffinity>  (1) 
-3.7373023

>  <minimizedRMSD>  (1) 
0.185710609

$$$$
