
     RDKit          3D

 18 19  0  0  0  0  0  0  0  0999 V2000
   42.5360   20.7910   37.0600 C   0  0  0  0  0  0  0  0  0  0  0  0
   41.4320   21.4680   37.5820 C   0  0  0  0  0  0  0  0  0  0  0  0
   40.6020   22.1620   36.7010 C   0  0  0  0  0  0  0  0  0  0  0  0
   40.9110   22.1430   35.3660 N   0  0  0  0  0  0  0  0  0  0  0  0
   41.9860   21.4760   34.9110 C   0  0  0  0  0  0  0  0  0  0  0  0
   42.7950   20.8030   35.7450 N   0  0  0  0  0  0  0  0  0  0  0  0
   39.4540   22.8630   37.2650 C   0  0  0  0  0  0  0  0  0  0  0  0
   38.5920   23.6640   36.4940 C   0  0  0  0  0  0  0  0  0  0  0  0
   37.6590   24.1440   37.3500 N   0  0  0  0  0  0  0  0  0  0  0  0
   37.9650   23.6410   38.5810 C   0  0  0  0  0  0  0  0  0  0  0  0
   39.0350   22.8750   38.5460 N   0  0  0  0  0  0  0  0  0  0  0  0
   42.3360   21.4900   33.1580 S   0  0  0  0  0  0  0  0  0  0  0  0
   43.2034   20.2393   37.7384 H   0  0  0  0  0  0  0  0  0  0  0  0
   41.2217   21.4545   38.6616 H   0  0  0  0  0  0  0  0  0  0  0  0
   38.6618   23.8607   35.4140 H   0  0  0  0  0  0  0  0  0  0  0  0
   37.3869   23.8505   39.4931 H   0  0  0  0  0  0  0  0  0  0  0  0
   39.4668   22.3821   39.3407 H   0  0  0  0  0  0  0  0  0  0  0  0
   43.6910   21.5442   32.9633 H   0  0  0  0  0  0  0  0  0  0  0  0
  1  2  2  0
  3  7  1  0
  3  2  1  0
  4  3  2  0
  5  4  1  0
  5  6  2  0
  6  1  1  0
  7 11  1  0
  8  7  2  0
  8  9  1  0
  9 10  2  0
 11 10  1  0
 12  5  1  0
  1 13  1  0
  2 14  1  0
  8 15  1  0
 10 16  1  0
 11 17  1  0
 12 18  1  0
M  ISO  6  13  14  14  14  15  14  16  14  17   9  18  11
M  END
>  <minimizedAffinity>  (1) 
-3.7617805

>  <minimizedRMSD>  (1) 
0.0525445081

$$$$
