
     RDKit          3D

 27 29  0  0  0  0  0  0  0  0999 V2000
   42.5470   20.8260   37.0200 C   0  0  0  0  0  0  0  0  0  0  0  0
   41.4630   21.5130   37.5880 C   0  0  0  0  0  0  0  0  0  0  0  0
   40.5920   22.1580   36.7270 C   0  0  0  0  0  0  0  0  0  0  0  0
   40.8450   22.0810   35.3890 N   0  0  0  0  0  0  0  0  0  0  0  0
   41.8850   21.4210   34.8780 C   0  0  0  0  0  0  0  0  0  0  0  0
   42.7380   20.7920   35.6910 N   0  0  0  0  0  0  0  0  0  0  0  0
   39.4510   22.8810   37.2850 C   0  0  0  0  0  0  0  0  0  0  0  0
   38.6220   23.7160   36.5520 C   0  0  0  0  0  0  0  0  0  0  0  0
   37.6980   24.1870   37.4370 N   0  0  0  0  0  0  0  0  0  0  0  0
   37.9790   23.6470   38.6390 C   0  0  0  0  0  0  0  0  0  0  0  0
   39.0310   22.8620   38.5590 N   0  0  0  0  0  0  0  0  0  0  0  0
   42.0470   21.4160   33.4240 C   0  0  0  0  0  0  0  0  0  0  0  0
   41.0660   20.8630   32.5990 C   0  0  0  0  0  0  0  0  0  0  0  0
   41.2720   20.8870   31.2450 C   0  0  0  0  0  0  0  0  0  0  0  0
   42.4140   21.4440   30.7380 C   0  0  0  0  0  0  0  0  0  0  0  0
   43.4060   22.0010   31.5280 C   0  0  0  0  0  0  0  0  0  0  0  0
   43.1990   21.9770   32.9050 C   0  0  0  0  0  0  0  0  0  0  0  0
   43.2565   20.3034   37.6784 H   0  0  0  0  0  0  0  0  0  0  0  0
   41.3112   21.5380   38.6772 H   0  0  0  0  0  0  0  0  0  0  0  0
   38.6946   23.9499   35.4796 H   0  0  0  0  0  0  0  0  0  0  0  0
   37.4076   23.8365   39.5597 H   0  0  0  0  0  0  0  0  0  0  0  0
   39.4548   22.3301   39.3326 H   0  0  0  0  0  0  0  0  0  0  0  0
   40.1532   20.4204   33.0243 H   0  0  0  0  0  0  0  0  0  0  0  0
   40.5199   20.4588   30.5660 H   0  0  0  0  0  0  0  0  0  0  0  0
   42.5515   21.4498   29.6466 H   0  0  0  0  0  0  0  0  0  0  0  0
   44.3135   22.4411   31.0890 H   0  0  0  0  0  0  0  0  0  0  0  0
   43.9537   22.4053   33.5810 H   0  0  0  0  0  0  0  0  0  0  0  0
  1  2  2  0
  3  7  1  0
  3  2  1  0
  4  3  2  0
  5  4  1  0
  5  6  2  0
  6  1  1  0
  7 11  1  0
  8  7  2  0
  8  9  1  0
  9 10  2  0
 11 10  1  0
 12  5  1  0
 13 12  2  0
 14 13  1  0
 15 14  2  0
 15 16  1  0
 16 17  2  0
 17 12  1  0
  1 18  1  0
  2 19  1  0
  8 20  1  0
 10 21  1  0
 11 22  1  0
 13 23  1  0
 14 24  1  0
 15 25  1  0
 16 26  1  0
 17 27  1  0
M  ISO  8  18  14  19  14  20  14  21  14  22   9  23  14  24  14  25  14
M  ISO  2  26  14  27  14
M  END
>  <minimizedAffinity>  (1) 
-3.74816585

>  <minimizedRMSD>  (1) 
0.193274334

$$$$
