
     RDKit          3D

 20 21  0  0  0  0  0  0  0  0999 V2000
   42.5310   20.8030   37.0570 C   0  0  0  0  0  0  0  0  0  0  0  0
   41.4360   21.4740   37.6060 C   0  0  0  0  0  0  0  0  0  0  0  0
   40.6080   22.1530   36.7310 C   0  0  0  0  0  0  0  0  0  0  0  0
   40.8980   22.1360   35.3780 N   0  0  0  0  0  0  0  0  0  0  0  0
   41.9610   21.4740   34.9160 C   0  0  0  0  0  0  0  0  0  0  0  0
   42.7750   20.8130   35.7340 N   0  0  0  0  0  0  0  0  0  0  0  0
   39.4480   22.8710   37.2730 C   0  0  0  0  0  0  0  0  0  0  0  0
   38.5980   23.6670   36.5090 C   0  0  0  0  0  0  0  0  0  0  0  0
   37.6640   24.1450   37.3760 N   0  0  0  0  0  0  0  0  0  0  0  0
   37.9550   23.6480   38.6000 C   0  0  0  0  0  0  0  0  0  0  0  0
   39.0240   22.8800   38.5600 N   0  0  0  0  0  0  0  0  0  0  0  0
   42.1800   21.5210   33.4360 C   0  0  0  0  0  0  0  0  0  0  0  0
   41.3460   20.6260   32.8400 F   0  0  0  0  0  0  0  0  0  0  0  0
   43.4800   21.0830   33.1830 F   0  0  0  0  0  0  0  0  0  0  0  0
   42.1090   22.7990   32.9530 F   0  0  0  0  0  0  0  0  0  0  0  0
   43.2113   20.2523   37.7233 H   0  0  0  0  0  0  0  0  0  0  0  0
   41.2405   21.4628   38.6884 H   0  0  0  0  0  0  0  0  0  0  0  0
   38.6671   23.8676   35.4297 H   0  0  0  0  0  0  0  0  0  0  0  0
   37.3743   23.8580   39.5103 H   0  0  0  0  0  0  0  0  0  0  0  0
   39.4542   22.3828   39.3529 H   0  0  0  0  0  0  0  0  0  0  0  0
  1  2  2  0
  3  7  1  0
  3  2  1  0
  4  3  2  0
  5  4  1  0
  5  6  2  0
  6  1  1  0
  7 11  1  0
  8  7  2  0
  8  9  1  0
  9 10  2  0
 11 10  1  0
 12  5  1  0
 13 12  1  0
 14 12  1  0
 15 12  1  0
  1 16  1  0
  2 17  1  0
  8 18  1  0
 10 19  1  0
 11 20  1  0
M  ISO  5  16  14  17  14  18  14  19  14  20   9
M  END
>  <minimizedAffinity>  (1) 
-3.72823167

>  <minimizedRMSD>  (1) 
0.368365824

$$$$
