
     RDKit          3D

 22 24  0  0  0  0  0  0  0  0999 V2000
   42.5460   20.8110   37.0220 C   0  0  0  0  0  0  0  0  0  0  0  0
   41.4530   21.4900   37.5840 C   0  0  0  0  0  0  0  0  0  0  0  0
   40.5950   22.1530   36.7220 C   0  0  0  0  0  0  0  0  0  0  0  0
   40.8640   22.1060   35.3830 N   0  0  0  0  0  0  0  0  0  0  0  0
   41.9110   21.4540   34.8740 C   0  0  0  0  0  0  0  0  0  0  0  0
   42.7570   20.8030   35.6960 N   0  0  0  0  0  0  0  0  0  0  0  0
   39.4450   22.8700   37.2730 C   0  0  0  0  0  0  0  0  0  0  0  0
   38.5970   23.6720   36.5140 C   0  0  0  0  0  0  0  0  0  0  0  0
   37.6640   24.1550   37.3810 N   0  0  0  0  0  0  0  0  0  0  0  0
   37.9620   23.6480   38.6100 C   0  0  0  0  0  0  0  0  0  0  0  0
   39.0290   22.8740   38.5610 N   0  0  0  0  0  0  0  0  0  0  0  0
   42.1550   21.4330   33.4350 C   0  0  0  0  0  0  0  0  0  0  0  0
   41.2060   20.9320   32.5910 N   0  0  0  0  0  0  0  0  0  0  0  0
   41.6220   21.0080   31.3720 O   0  0  0  0  0  0  0  0  0  0  0  0
   42.8320   21.5500   31.3650 C   0  0  0  0  0  0  0  0  0  0  0  0
   43.1770   21.8210   32.6490 N   0  0  0  0  0  0  0  0  0  0  0  0
   43.2439   20.2745   37.6817 H   0  0  0  0  0  0  0  0  0  0  0  0
   41.2840   21.4953   38.6709 H   0  0  0  0  0  0  0  0  0  0  0  0
   38.6663   23.8742   35.4350 H   0  0  0  0  0  0  0  0  0  0  0  0
   37.3874   23.8570   39.5244 H   0  0  0  0  0  0  0  0  0  0  0  0
   39.4612   22.3709   39.3490 H   0  0  0  0  0  0  0  0  0  0  0  0
   43.4479   21.7456   30.4748 H   0  0  0  0  0  0  0  0  0  0  0  0
  1  2  2  0
  3  7  1  0
  3  2  1  0
  4  3  2  0
  5  4  1  0
  5  6  2  0
  6  1  1  0
  7 11  1  0
  8  7  2  0
  8  9  1  0
  9 10  2  0
 11 10  1  0
 12  5  1  0
 13 12  2  0
 14 13  1  0
 15 14  1  0
 15 16  2  0
 16 12  1  0
  1 17  1  0
  2 18  1  0
  8 19  1  0
 10 20  1  0
 11 21  1  0
 15 22  1  0
M  ISO  6  17  14  18  14  19  14  20  14  21   9  22  14
M  END
>  <minimizedAffinity>  (1) 
-3.70625544

>  <minimizedRMSD>  (1) 
0.175899118

$$$$
