
     RDKit          3D

 40 43  0  0  1  0  0  0  0  0999 V2000
   44.1580   23.5620   35.6330 C   0  0  1  0  0  0  0  0  0  0  0  0
   43.9480   23.4250   34.1520 C   0  0  0  0  0  0  0  0  0  0  0  0
   44.7610   24.3850   33.3460 C   0  0  0  0  0  0  0  0  0  0  0  0
   44.8050   25.7510   33.9640 C   0  0  0  0  0  0  0  0  0  0  0  0
   43.7610   25.9180   35.0030 C   0  0  0  0  0  0  0  0  0  0  0  0
   43.9560   24.9730   36.1450 C   0  0  2  0  0  0  0  0  0  0  0  0
   42.5500   20.6560   37.1410 C   0  0  0  0  0  0  0  0  0  0  0  0
   41.2780   21.1070   37.4690 C   0  0  0  0  0  0  0  0  0  0  0  0
   40.9580   22.4180   37.1730 C   0  0  0  0  0  0  0  0  0  0  0  0
   41.9190   23.2030   36.5700 N   0  0  0  0  0  0  0  0  0  0  0  0
   43.1280   22.7100   36.2790 C   0  0  0  0  0  0  0  0  0  0  0  0
   43.4480   21.4600   36.5550 N   0  0  0  0  0  0  0  0  0  0  0  0
   39.6220   22.9150   37.5030 C   0  0  0  0  0  0  0  0  0  0  0  0
   38.7380   23.4830   36.5930 C   0  0  0  0  0  0  0  0  0  0  0  0
   37.6220   23.8000   37.3110 N   0  0  0  0  0  0  0  0  0  0  0  0
   37.8560   23.4310   38.5750 C   0  0  0  0  0  0  0  0  0  0  0  0
   39.0380   22.8980   38.7320 N   0  0  0  0  0  0  0  0  0  0  0  0
   45.0000   25.3940   37.1140 C   0  0  0  0  0  0  0  0  0  0  0  0
   44.7860   25.8270   38.4200 C   0  0  0  0  0  0  0  0  0  0  0  0
   45.9910   26.1320   39.0180 C   0  0  0  0  0  0  0  0  0  0  0  0
   46.9210   25.8680   38.0300 C   0  0  0  0  0  0  0  0  0  0  0  0
   46.3180   25.4530   36.9680 O   0  0  0  0  0  0  0  0  0  0  0  0
   45.1954   23.2761   35.8613 H   0  0  0  0  0  0  0  0  0  0  0  0
   44.2206   22.4017   33.8544 H   0  0  0  0  0  0  0  0  0  0  0  0
   42.8896   23.6482   33.9521 H   0  0  0  0  0  0  0  0  0  0  0  0
   44.3206   24.4651   32.3412 H   0  0  0  0  0  0  0  0  0  0  0  0
   45.7910   24.0012   33.3032 H   0  0  0  0  0  0  0  0  0  0  0  0
   45.7927   25.9023   34.4239 H   0  0  0  0  0  0  0  0  0  0  0  0
   44.6208   26.4913   33.1716 H   0  0  0  0  0  0  0  0  0  0  0  0
   43.7999   26.9492   35.3839 H   0  0  0  0  0  0  0  0  0  0  0  0
   42.7850   25.7018   34.5440 H   0  0  0  0  0  0  0  0  0  0  0  0
   43.0284   24.9942   36.7358 H   0  0  0  0  0  0  0  0  0  0  0  0
   42.8266   19.6157   37.3672 H   0  0  0  0  0  0  0  0  0  0  0  0
   40.5472   20.4403   37.9501 H   0  0  0  0  0  0  0  0  0  0  0  0
   38.9038   23.6435   35.5175 H   0  0  0  0  0  0  0  0  0  0  0  0
   37.1322   23.5621   39.3929 H   0  0  0  0  0  0  0  0  0  0  0  0
   39.4449   22.5383   39.6072 H   0  0  0  0  0  0  0  0  0  0  0  0
   43.8016   25.9131   38.9033 H   0  0  0  0  0  0  0  0  0  0  0  0
   46.1696   26.4986   40.0396 H   0  0  0  0  0  0  0  0  0  0  0  0
   48.0090   25.9928   38.1336 H   0  0  0  0  0  0  0  0  0  0  0  0
  1  6  1  0
  1 11  1  0
  2  1  1  0
  3  4  1  0
  3  2  1  0
  4  5  1  0
  5  6  1  0
  6 18  1  0
  7  8  2  0
  9  8  1  0
  9 13  1  0
 10  9  2  0
 11 12  2  0
 11 10  1  0
 12  7  1  0
 13 17  1  0
 14 15  1  0
 14 13  2  0
 15 16  2  0
 16 17  1  0
 18 19  2  0
 19 20  1  0
 21 20  2  0
 22 18  1  0
 22 21  1  0
  1 23  1  6
  2 24  1  0
  2 25  1  0
  3 26  1  0
  3 27  1  0
  4 28  1  0
  4 29  1  0
  5 30  1  0
  5 31  1  0
  6 32  1  1
  7 33  1  0
  8 34  1  0
 14 35  1  0
 16 36  1  0
 17 37  1  0
 19 38  1  0
 20 39  1  0
 21 40  1  0
M  ISO  8  23  13  24  13  25  13  26  13  27  13  28  13  29  13  30  13
M  ISO  8  31  13  32  13  33  14  34  14  35  14  36  14  37   9  38  14
M  ISO  2  39  14  40  14
M  END
>  <minimizedAffinity>  (1) 
-5.75569248

>  <minimizedRMSD>  (1) 
3.84430552

$$$$
