
     RDKit          3D

 46 49  0  0  1  0  0  0  0  0999 V2000
   43.6600   23.4780   34.4040 C   0  0  1  0  0  0  0  0  0  0  0  0
   42.6090   24.1010   33.4870 C   0  0  0  0  0  0  0  0  0  0  0  0
   43.1710   25.0410   32.4720 C   0  0  0  0  0  0  0  0  0  0  0  0
   44.3040   25.8470   33.0340 C   0  0  0  0  0  0  0  0  0  0  0  0
   44.2300   25.8920   34.5460 C   0  0  0  0  0  0  0  0  0  0  0  0
   44.5240   24.5100   35.0510 C   0  0  1  0  0  0  0  0  0  0  0  0
   42.7730   21.0450   36.9710 C   0  0  0  0  0  0  0  0  0  0  0  0
   41.5370   21.4780   37.4290 C   0  0  0  0  0  0  0  0  0  0  0  0
   40.9820   22.6100   36.8640 C   0  0  0  0  0  0  0  0  0  0  0  0
   41.6980   23.2390   35.8760 N   0  0  0  0  0  0  0  0  0  0  0  0
   42.8860   22.7880   35.4650 C   0  0  0  0  0  0  0  0  0  0  0  0
   43.4140   21.7030   36.0090 N   0  0  0  0  0  0  0  0  0  0  0  0
   39.6740   23.0720   37.3240 C   0  0  0  0  0  0  0  0  0  0  0  0
   38.8030   23.8510   36.5750 C   0  0  0  0  0  0  0  0  0  0  0  0
   37.7120   24.0420   37.3740 N   0  0  0  0  0  0  0  0  0  0  0  0
   37.9510   23.3990   38.5290 C   0  0  0  0  0  0  0  0  0  0  0  0
   39.1160   22.8040   38.5430 N   0  0  0  0  0  0  0  0  0  0  0  0
   44.6930   24.3470   36.4530 N   0  0  0  0  0  0  0  0  0  0  0  0
   44.4240   25.5060   37.2500 C   0  0  0  0  0  0  0  0  0  0  0  0
   45.0590   25.4260   38.6200 C   0  0  0  0  0  0  0  0  0  0  0  0
   46.4380   25.3470   38.5600 O   0  0  0  0  0  0  0  0  0  0  0  0
   46.8070   25.1720   37.2510 C   0  0  0  0  0  0  0  0  0  0  0  0
   46.0720   23.9670   36.6930 C   0  0  0  0  0  0  0  0  0  0  0  0
   44.3218   22.8134   33.8292 H   0  0  0  0  0  0  0  0  0  0  0  0
   42.0878   23.2902   32.9568 H   0  0  0  0  0  0  0  0  0  0  0  0
   41.9352   24.6890   34.1275 H   0  0  0  0  0  0  0  0  0  0  0  0
   42.3761   25.7253   32.1404 H   0  0  0  0  0  0  0  0  0  0  0  0
   43.5555   24.4478   31.6292 H   0  0  0  0  0  0  0  0  0  0  0  0
   45.2575   25.3888   32.7325 H   0  0  0  0  0  0  0  0  0  0  0  0
   44.2346   26.8738   32.6456 H   0  0  0  0  0  0  0  0  0  0  0  0
   44.9736   26.6016   34.9379 H   0  0  0  0  0  0  0  0  0  0  0  0
   43.2342   26.2226   34.8764 H   0  0  0  0  0  0  0  0  0  0  0  0
   45.5543   24.3288   34.7109 H   0  0  0  0  0  0  0  0  0  0  0  0
   43.2291   20.1452   37.4095 H   0  0  0  0  0  0  0  0  0  0  0  0
   41.0101   20.9316   38.2251 H   0  0  0  0  0  0  0  0  0  0  0  0
   38.9583   24.2331   35.5553 H   0  0  0  0  0  0  0  0  0  0  0  0
   37.2440   23.3754   39.3714 H   0  0  0  0  0  0  0  0  0  0  0  0
   39.5257   22.2512   39.3094 H   0  0  0  0  0  0  0  0  0  0  0  0
   44.8181   26.3914   36.7296 H   0  0  0  0  0  0  0  0  0  0  0  0
   43.3348   25.5707   37.3894 H   0  0  0  0  0  0  0  0  0  0  0  0
   44.7815   26.3246   39.1906 H   0  0  0  0  0  0  0  0  0  0  0  0
   44.6923   24.5097   39.1057 H   0  0  0  0  0  0  0  0  0  0  0  0
   46.5434   26.0678   36.6696 H   0  0  0  0  0  0  0  0  0  0  0  0
   47.8931   25.0101   37.1871 H   0  0  0  0  0  0  0  0  0  0  0  0
   46.1095   23.1400   37.4173 H   0  0  0  0  0  0  0  0  0  0  0  0
   46.5430   23.6358   35.7557 H   0  0  0  0  0  0  0  0  0  0  0  0
  1  6  1  0
  1 11  1  0
  2  1  1  0
  3  4  1  0
  3  2  1  0
  4  5  1  0
  5  6  1  0
  6 18  1  0
  7  8  2  0
  9 13  1  0
  9  8  1  0
 10  9  2  0
 11 10  1  0
 11 12  2  0
 12  7  1  0
 13 17  1  0
 14 13  2  0
 14 15  1  0
 15 16  2  0
 16 17  1  0
 18 23  1  0
 18 19  1  0
 19 20  1  0
 21 20  1  0
 22 21  1  0
 23 22  1  0
  1 24  1  6
  2 25  1  0
  2 26  1  0
  3 27  1  0
  3 28  1  0
  4 29  1  0
  4 30  1  0
  5 31  1  0
  5 32  1  0
  6 33  1  6
  7 34  1  0
  8 35  1  0
 14 36  1  0
 16 37  1  0
 17 38  1  0
 19 39  1  0
 19 40  1  0
 20 41  1  0
 20 42  1  0
 22 43  1  0
 22 44  1  0
 23 45  1  0
 23 46  1  0
M  ISO  8  24  13  25  13  26  13  27  13  28  13  29  13  30  13  31  13
M  ISO  8  32  13  33  13  34  14  35  14  36  14  37  14  38   9  39  13
M  ISO  7  40  13  41  13  42  13  43  13  44  13  45  13  46  13
M  END
>  <minimizedAffinity>  (1) 
-5.15817642

>  <minimizedRMSD>  (1) 
2.85857749

$$$$
