
     RDKit          3D

 41 43  0  0  0  0  0  0  0  0999 V2000
   38.7120   23.7540   36.5950 C   0  0  0  0  0  0  0  0  0  0  0  0
   41.8920   21.7970   36.9050 C   0  0  0  0  0  0  0  0  0  0  0  0
   40.5760   22.1670   37.0660 C   0  0  0  0  0  0  0  0  0  0  0  0
   40.0890   23.3250   36.4540 C   0  0  0  0  0  0  0  0  0  0  0  0
   40.9520   24.0530   35.7080 N   0  0  0  0  0  0  0  0  0  0  0  0
   42.2410   23.6800   35.5580 C   0  0  0  0  0  0  0  0  0  0  0  0
   42.7020   22.5530   36.1580 N   0  0  0  0  0  0  0  0  0  0  0  0
   42.3690   20.5540   37.5770 C   0  0  0  0  0  0  0  0  0  0  0  0
   43.2130   19.7020   36.7020 C   0  0  0  0  0  0  0  0  0  0  0  0
   38.2190   23.3250   37.9640 C   0  0  0  0  0  0  0  0  0  0  0  0
   38.5210   25.2500   36.4220 C   0  0  0  0  0  0  0  0  0  0  0  0
   37.8560   23.0800   35.5340 C   0  0  0  0  0  0  0  0  0  0  0  0
   38.0330   23.6560   34.2380 N   0  0  0  0  0  0  0  0  0  0  0  0
   38.6100   23.1370   33.1190 C   0  0  0  0  0  0  0  0  0  0  0  0
   38.5500   24.0560   32.1140 N   0  0  0  0  0  0  0  0  0  0  0  0
   37.9390   25.1330   32.6120 C   0  0  0  0  0  0  0  0  0  0  0  0
   37.6350   24.8730   33.8950 N   0  0  0  0  0  0  0  0  0  0  0  0
   37.6610   26.3690   31.8730 C   0  0  0  0  0  0  0  0  0  0  0  0
   38.4260   27.5190   31.7540 C   0  0  0  0  0  0  0  0  0  0  0  0
   37.6600   28.3560   30.9340 C   0  0  0  0  0  0  0  0  0  0  0  0
   36.4900   27.6640   30.6120 C   0  0  0  0  0  0  0  0  0  0  0  0
   36.5370   26.4940   31.1910 O   0  0  0  0  0  0  0  0  0  0  0  0
   39.9045   21.5482   37.6793 H   0  0  0  0  0  0  0  0  0  0  0  0
   42.9206   24.2921   34.9469 H   0  0  0  0  0  0  0  0  0  0  0  0
   42.9584   20.8389   38.4610 H   0  0  0  0  0  0  0  0  0  0  0  0
   41.4790   19.9658   37.8452 H   0  0  0  0  0  0  0  0  0  0  0  0
   43.8516   19.0573   37.3237 H   0  0  0  0  0  0  0  0  0  0  0  0
   42.5683   19.0766   36.0670 H   0  0  0  0  0  0  0  0  0  0  0  0
   43.8444   20.3408   36.0670 H   0  0  0  0  0  0  0  0  0  0  0  0
   38.8059   23.8357   38.7417 H   0  0  0  0  0  0  0  0  0  0  0  0
   37.1572   23.5917   38.0715 H   0  0  0  0  0  0  0  0  0  0  0  0
   38.3364   22.2366   38.0715 H   0  0  0  0  0  0  0  0  0  0  0  0
   38.4599   25.7286   37.4105 H   0  0  0  0  0  0  0  0  0  0  0  0
   39.3733   25.6665   35.8650 H   0  0  0  0  0  0  0  0  0  0  0  0
   37.5914   25.4390   35.8650 H   0  0  0  0  0  0  0  0  0  0  0  0
   38.1275   22.0151   35.4864 H   0  0  0  0  0  0  0  0  0  0  0  0
   36.8025   23.2176   35.8188 H   0  0  0  0  0  0  0  0  0  0  0  0
   39.0545   22.1340   33.0387 H   0  0  0  0  0  0  0  0  0  0  0  0
   39.4093   27.7263   32.2013 H   0  0  0  0  0  0  0  0  0  0  0  0
   37.9294   29.3703   30.6044 H   0  0  0  0  0  0  0  0  0  0  0  0
   35.6712   28.0392   29.9805 H   0  0  0  0  0  0  0  0  0  0  0  0
  1 10  1  0
  2  3  2  0
  2  8  1  0
  4  1  1  0
  4  3  1  0
  5  4  2  0
  6  5  1  0
  6  7  2  0
  7  2  1  0
  9  8  1  0
 11  1  1  0
 12  1  1  0
 13 12  1  0
 14 13  1  0
 15 16  1  0
 15 14  2  0
 16 17  2  0
 17 13  1  0
 18 16  1  0
 19 18  2  0
 20 19  1  0
 21 20  2  0
 21 22  1  0
 22 18  1  0
  3 23  1  0
  6 24  1  0
  8 25  1  0
  8 26  1  0
  9 27  1  0
  9 28  1  0
  9 29  1  0
 10 30  1  0
 10 31  1  0
 10 32  1  0
 11 33  1  0
 11 34  1  0
 11 35  1  0
 12 36  1  0
 12 37  1  0
 14 38  1  0
 19 39  1  0
 20 40  1  0
 21 41  1  0
M  ISO  8  23  14  24  14  25   8  26   8  27   8  28   8  29   8  30   8
M  ISO  8  31   8  32   8  33   8  34   8  35   8  36   8  37   8  38  14
M  ISO  3  39  14  40  14  41  14
M  END
>  <minimizedAffinity>  (1) 
-4.46603727

>  <minimizedRMSD>  (1) 
1.44161856

$$$$
