
     RDKit          3D

 44 48  0  0  1  0  0  0  0  0999 V2000
   43.2720   23.9700   34.4150 C   0  0  1  0  0  0  0  0  0  0  0  0
   42.4110   23.9210   33.1870 C   0  0  0  0  0  0  0  0  0  0  0  0
   42.8140   24.9030   32.1310 C   0  0  0  0  0  0  0  0  0  0  0  0
   43.2690   26.2110   32.7080 C   0  0  0  0  0  0  0  0  0  0  0  0
   42.7400   26.3790   34.0920 C   0  0  0  0  0  0  0  0  0  0  0  0
   43.3990   25.3640   35.0010 C   0  0  2  0  0  0  0  0  0  0  0  0
   44.7830   25.7250   35.2730 N   0  0  0  0  0  0  0  0  0  0  0  0
   45.7080   26.1810   34.4220 C   0  0  0  0  0  0  0  0  0  0  0  0
   46.8770   26.4040   35.0490 N   0  0  0  0  0  0  0  0  0  0  0  0
   46.7180   26.0850   36.3640 C   0  0  0  0  0  0  0  0  0  0  0  0
   47.5440   26.1030   37.4790 C   0  0  0  0  0  0  0  0  0  0  0  0
   47.0070   25.6970   38.6590 N   0  0  0  0  0  0  0  0  0  0  0  0
   45.7380   25.2940   38.7550 C   0  0  0  0  0  0  0  0  0  0  0  0
   44.9260   25.2720   37.6810 N   0  0  0  0  0  0  0  0  0  0  0  0
   45.4070   25.6650   36.4780 C   0  0  0  0  0  0  0  0  0  0  0  0
   42.6600   21.2740   36.8090 C   0  0  0  0  0  0  0  0  0  0  0  0
   41.4020   21.5730   37.3110 C   0  0  0  0  0  0  0  0  0  0  0  0
   40.7370   22.7080   36.8330 C   0  0  0  0  0  0  0  0  0  0  0  0
   41.3850   23.4540   35.8920 N   0  0  0  0  0  0  0  0  0  0  0  0
   42.5950   23.1340   35.4360 C   0  0  0  0  0  0  0  0  0  0  0  0
   43.2270   22.0660   35.8810 N   0  0  0  0  0  0  0  0  0  0  0  0
   39.4170   23.0060   37.3680 C   0  0  0  0  0  0  0  0  0  0  0  0
   38.3580   23.4730   36.5980 C   0  0  0  0  0  0  0  0  0  0  0  0
   37.3210   23.6250   37.4700 N   0  0  0  0  0  0  0  0  0  0  0  0
   37.7630   23.2650   38.6790 C   0  0  0  0  0  0  0  0  0  0  0  0
   39.0130   22.8860   38.6620 N   0  0  0  0  0  0  0  0  0  0  0  0
   44.2807   23.6265   34.1420 H   0  0  0  0  0  0  0  0  0  0  0  0
   42.4706   22.9086   32.7610 H   0  0  0  0  0  0  0  0  0  0  0  0
   41.3898   24.1849   33.4991 H   0  0  0  0  0  0  0  0  0  0  0  0
   41.9517   25.0881   31.4736 H   0  0  0  0  0  0  0  0  0  0  0  0
   43.6592   24.4698   31.5761 H   0  0  0  0  0  0  0  0  0  0  0  0
   44.3685   26.2328   32.7348 H   0  0  0  0  0  0  0  0  0  0  0  0
   42.8907   27.0302   32.0788 H   0  0  0  0  0  0  0  0  0  0  0  0
   42.9633   27.3946   34.4509 H   0  0  0  0  0  0  0  0  0  0  0  0
   41.6508   26.2255   34.0934 H   0  0  0  0  0  0  0  0  0  0  0  0
   42.8768   25.3641   35.9691 H   0  0  0  0  0  0  0  0  0  0  0  0
   45.5355   26.3515   33.3491 H   0  0  0  0  0  0  0  0  0  0  0  0
   48.5912   26.4327   37.4102 H   0  0  0  0  0  0  0  0  0  0  0  0
   45.3474   24.9731   39.7320 H   0  0  0  0  0  0  0  0  0  0  0  0
   43.1967   20.3849   37.1715 H   0  0  0  0  0  0  0  0  0  0  0  0
   40.9353   20.9295   38.0713 H   0  0  0  0  0  0  0  0  0  0  0  0
   38.3569   23.6763   35.5170 H   0  0  0  0  0  0  0  0  0  0  0  0
   37.1430   23.2856   39.5874 H   0  0  0  0  0  0  0  0  0  0  0  0
   39.5760   22.5633   39.4619 H   0  0  0  0  0  0  0  0  0  0  0  0
  1  6  1  0
  1 20  1  0
  2  1  1  0
  3  4  1  0
  3  2  1  0
  4  5  1  0
  5  6  1  0
  6  7  1  0
  7 15  1  0
  8  9  2  0
  8  7  1  0
  9 10  1  0
 10 15  2  0
 10 11  1  0
 11 12  2  0
 12 13  1  0
 14 13  2  0
 15 14  1  0
 16 17  2  0
 18 17  1  0
 18 22  1  0
 19 18  2  0
 20 21  2  0
 20 19  1  0
 21 16  1  0
 22 26  1  0
 23 22  2  0
 23 24  1  0
 24 25  2  0
 26 25  1  0
  1 27  1  6
  2 28  1  0
  2 29  1  0
  3 30  1  0
  3 31  1  0
  4 32  1  0
  4 33  1  0
  5 34  1  0
  5 35  1  0
  6 36  1  1
  8 37  1  0
 11 38  1  0
 13 39  1  0
 16 40  1  0
 17 41  1  0
 23 42  1  0
 25 43  1  0
 26 44  1  0
M  ISO  8  27  13  28  13  29  13  30  13  31  13  32  13  33  13  34  13
M  ISO  8  35  13  36  13  37  14  38  14  39  14  40  14  41  14  42  14
M  ISO  2  43  14  44   9
M  END
>  <minimizedAffinity>  (1) 
-5.60563755

>  <minimizedRMSD>  (1) 
3.17852187

$$$$
