
     RDKit          3D

 43 46  0  0  1  0  0  0  0  0999 V2000
   39.8610   22.6620   36.5290 C   0  0  1  0  0  0  0  0  0  0  0  0
   39.8810   22.9570   38.0120 C   0  0  0  0  0  0  0  0  0  0  0  0
   38.5450   23.3090   38.5820 C   0  0  0  0  0  0  0  0  0  0  0  0
   37.7120   24.0930   37.6290 C   0  0  0  0  0  0  0  0  0  0  0  0
   38.5760   24.7720   36.6160 C   0  0  0  0  0  0  0  0  0  0  0  0
   39.1780   23.7430   35.7190 C   0  0  1  0  0  0  0  0  0  0  0  0
   40.0200   24.3230   34.6490 C   0  0  0  0  0  0  0  0  0  0  0  0
   40.8810   25.4140   34.7420 C   0  0  0  0  0  0  0  0  0  0  0  0
   41.6220   25.8530   33.6740 C   0  0  0  0  0  0  0  0  0  0  0  0
   41.5500   25.2330   32.4450 C   0  0  0  0  0  0  0  0  0  0  0  0
   40.7210   24.1460   32.2680 C   0  0  0  0  0  0  0  0  0  0  0  0
   40.0040   23.7490   33.3720 C   0  0  0  0  0  0  0  0  0  0  0  0
   42.8350   21.6330   34.7050 C   0  0  0  0  0  0  0  0  0  0  0  0
   43.8460   22.4220   35.2580 C   0  0  0  0  0  0  0  0  0  0  0  0
   43.5140   23.3150   36.2650 C   0  0  0  0  0  0  0  0  0  0  0  0
   42.2050   23.3530   36.6440 N   0  0  0  0  0  0  0  0  0  0  0  0
   41.2690   22.5920   36.1010 C   0  0  0  0  0  0  0  0  0  0  0  0
   41.5760   21.7390   35.1410 N   0  0  0  0  0  0  0  0  0  0  0  0
   44.5660   24.1420   36.8410 C   0  0  0  0  0  0  0  0  0  0  0  0
   44.3360   25.2900   37.5890 C   0  0  0  0  0  0  0  0  0  0  0  0
   45.5680   25.7570   37.9350 N   0  0  0  0  0  0  0  0  0  0  0  0
   46.4710   24.9170   37.4110 C   0  0  0  0  0  0  0  0  0  0  0  0
   45.9070   23.9340   36.7480 N   0  0  0  0  0  0  0  0  0  0  0  0
   39.3012   21.7301   36.3613 H   0  0  0  0  0  0  0  0  0  0  0  0
   40.2565   22.0660   38.5365 H   0  0  0  0  0  0  0  0  0  0  0  0
   40.5273   23.8361   38.1520 H   0  0  0  0  0  0  0  0  0  0  0  0
   38.0129   22.3802   38.8355 H   0  0  0  0  0  0  0  0  0  0  0  0
   38.7131   23.9321   39.4728 H   0  0  0  0  0  0  0  0  0  0  0  0
   37.0152   23.4150   37.1145 H   0  0  0  0  0  0  0  0  0  0  0  0
   37.1530   24.8567   38.1895 H   0  0  0  0  0  0  0  0  0  0  0  0
   37.9676   25.4689   36.0208 H   0  0  0  0  0  0  0  0  0  0  0  0
   39.3741   25.3319   37.1255 H   0  0  0  0  0  0  0  0  0  0  0  0
   38.3591   23.2550   35.1701 H   0  0  0  0  0  0  0  0  0  0  0  0
   40.9698   25.9410   35.7034 H   0  0  0  0  0  0  0  0  0  0  0  0
   42.2883   26.7189   33.8013 H   0  0  0  0  0  0  0  0  0  0  0  0
   42.1544   25.6059   31.6050 H   0  0  0  0  0  0  0  0  0  0  0  0
   40.6381   23.6273   31.3015 H   0  0  0  0  0  0  0  0  0  0  0  0
   39.3420   22.8810   33.2365 H   0  0  0  0  0  0  0  0  0  0  0  0
   43.0768   20.9186   33.9042 H   0  0  0  0  0  0  0  0  0  0  0  0
   44.8834   22.3367   34.9022 H   0  0  0  0  0  0  0  0  0  0  0  0
   43.3618   25.7302   37.8479 H   0  0  0  0  0  0  0  0  0  0  0  0
   47.5586   25.0371   37.5233 H   0  0  0  0  0  0  0  0  0  0  0  0
   46.3827   23.1631   36.2578 H   0  0  0  0  0  0  0  0  0  0  0  0
  1  2  1  0
  2  3  1  0
  4  3  1  0
  5  4  1  0
  6  1  1  0
  6  5  1  0
  7  8  2  0
  7  6  1  0
  9  8  1  0
 10  9  2  0
 11 10  1  0
 11 12  2  0
 12  7  1  0
 13 18  2  0
 13 14  1  0
 14 15  2  0
 15 16  1  0
 15 19  1  0
 17  1  1  0
 17 16  2  0
 18 17  1  0
 19 20  2  0
 20 21  1  0
 22 21  2  0
 23 19  1  0
 23 22  1  0
  1 24  1  1
  2 25  1  0
  2 26  1  0
  3 27  1  0
  3 28  1  0
  4 29  1  0
  4 30  1  0
  5 31  1  0
  5 32  1  0
  6 33  1  6
  8 34  1  0
  9 35  1  0
 10 36  1  0
 11 37  1  0
 12 38  1  0
 13 39  1  0
 14 40  1  0
 20 41  1  0
 22 42  1  0
 23 43  1  0
M  ISO  8  24  13  25  13  26  13  27  13  28  13  29  13  30  13  31  13
M  ISO  8  32  13  33  13  34  14  35  14  36  14  37  14  38  14  39  14
M  ISO  4  40  14  41  14  42  14  43   9
M  END
>  <minimizedAffinity>  (1) 
-4.91291475

>  <minimizedRMSD>  (1) 
5.09167147

$$$$
