
     RDKit          3D

 47 50  0  0  1  0  0  0  0  0999 V2000
   39.8080   22.3020   37.0460 C   0  0  1  0  0  0  0  0  0  0  0  0
   39.7050   23.2210   38.2600 C   0  0  0  0  0  0  0  0  0  0  0  0
   38.3110   23.6360   38.6020 C   0  0  0  0  0  0  0  0  0  0  0  0
   37.4730   23.8350   37.3890 C   0  0  0  0  0  0  0  0  0  0  0  0
   38.3420   24.1150   36.1980 C   0  0  0  0  0  0  0  0  0  0  0  0
   39.0910   22.8400   35.8590 C   0  0  1  0  0  0  0  0  0  0  0  0
   43.0470   20.9350   36.0820 C   0  0  0  0  0  0  0  0  0  0  0  0
   43.9010   22.0350   36.1250 C   0  0  0  0  0  0  0  0  0  0  0  0
   43.3720   23.2580   36.4880 C   0  0  0  0  0  0  0  0  0  0  0  0
   42.0380   23.3240   36.7860 N   0  0  0  0  0  0  0  0  0  0  0  0
   41.2570   22.2350   36.7300 C   0  0  0  0  0  0  0  0  0  0  0  0
   41.7570   21.0640   36.3840 N   0  0  0  0  0  0  0  0  0  0  0  0
   44.2610   24.4190   36.5450 C   0  0  0  0  0  0  0  0  0  0  0  0
   44.4190   25.3440   35.5220 C   0  0  0  0  0  0  0  0  0  0  0  0
   45.3240   26.2580   35.9760 N   0  0  0  0  0  0  0  0  0  0  0  0
   45.6730   25.8710   37.2150 C   0  0  0  0  0  0  0  0  0  0  0  0
   45.0600   24.7770   37.5910 N   0  0  0  0  0  0  0  0  0  0  0  0
   39.8240   22.8910   34.6470 N   0  0  0  0  0  0  0  0  0  0  0  0
   39.3410   21.9080   33.7070 C   0  0  0  0  0  0  0  0  0  0  0  0
   38.7120   22.6180   32.4970 C   0  0  0  0  0  0  0  0  0  0  0  0
   39.7140   23.3160   31.7630 N   0  0  0  0  0  0  0  0  0  0  0  0
   40.6240   23.9840   32.6680 C   0  0  0  0  0  0  0  0  0  0  0  0
   39.9220   24.1500   33.9990 C   0  0  0  0  0  0  0  0  0  0  0  0
   39.3549   21.3261   37.2748 H   0  0  0  0  0  0  0  0  0  0  0  0
   40.1301   22.6946   39.1273 H   0  0  0  0  0  0  0  0  0  0  0  0
   40.2534   24.1401   38.0060 H   0  0  0  0  0  0  0  0  0  0  0  0
   37.8516   22.8555   39.2264 H   0  0  0  0  0  0  0  0  0  0  0  0
   38.3649   24.5952   39.1377 H   0  0  0  0  0  0  0  0  0  0  0  0
   36.8827   22.9258   37.2022 H   0  0  0  0  0  0  0  0  0  0  0  0
   36.8025   24.6915   37.5529 H   0  0  0  0  0  0  0  0  0  0  0  0
   37.7194   24.4212   35.3444 H   0  0  0  0  0  0  0  0  0  0  0  0
   39.0490   24.9276   36.4213 H   0  0  0  0  0  0  0  0  0  0  0  0
   38.3400   22.0752   35.6119 H   0  0  0  0  0  0  0  0  0  0  0  0
   43.4429   19.9495   35.7955 H   0  0  0  0  0  0  0  0  0  0  0  0
   44.9676   21.9322   35.8766 H   0  0  0  0  0  0  0  0  0  0  0  0
   43.9163   25.3406   34.5436 H   0  0  0  0  0  0  0  0  0  0  0  0
   46.3942   26.4137   37.8438 H   0  0  0  0  0  0  0  0  0  0  0  0
   45.1604   24.2873   38.4916 H   0  0  0  0  0  0  0  0  0  0  0  0
   40.1796   21.2816   33.3688 H   0  0  0  0  0  0  0  0  0  0  0  0
   38.5837   21.2767   34.1949 H   0  0  0  0  0  0  0  0  0  0  0  0
   38.2365   21.8714   31.8439 H   0  0  0  0  0  0  0  0  0  0  0  0
   37.9599   23.3375   32.8529 H   0  0  0  0  0  0  0  0  0  0  0  0
   40.2406   22.6459   31.1846 H   0  0  0  0  0  0  0  0  0  0  0  0
   41.5328   23.3781   32.7983 H   0  0  0  0  0  0  0  0  0  0  0  0
   40.9136   24.9651   32.2636 H   0  0  0  0  0  0  0  0  0  0  0  0
   40.4959   24.8433   34.6314 H   0  0  0  0  0  0  0  0  0  0  0  0
   38.9126   24.5536   33.8313 H   0  0  0  0  0  0  0  0  0  0  0  0
  1  2  1  0
  2  3  1  0
  4  3  1  0
  5  4  1  0
  6  5  1  0
  6  1  1  0
  7  8  2  0
  7 12  1  0
  8  9  1  0
  9 13  1  0
  9 10  2  0
 11 10  1  0
 11  1  1  0
 12 11  2  0
 13 17  1  0
 14 15  1  0
 14 13  2  0
 15 16  2  0
 16 17  1  0
 18  6  1  0
 19 18  1  0
 20 19  1  0
 21 20  1  0
 21 22  1  0
 22 23  1  0
 23 18  1  0
  1 24  1  1
  2 25  1  0
  2 26  1  0
  3 27  1  0
  3 28  1  0
  4 29  1  0
  4 30  1  0
  5 31  1  0
  5 32  1  0
  6 33  1  6
  7 34  1  0
  8 35  1  0
 14 36  1  0
 16 37  1  0
 17 38  1  0
 19 39  1  0
 19 40  1  0
 20 41  1  0
 20 42  1  0
 21 43  1  0
 22 44  1  0
 22 45  1  0
 23 46  1  0
 23 47  1  0
M  ISO  8  24  13  25  13  26  13  27  13  28  13  29  13  30  13  31  13
M  ISO  8  32  13  33  13  34  14  35  14  36  14  37  14  38   9  39  13
M  ISO  8  40  13  41  13  42  13  43   5  44  13  45  13  46  13  47  13
M  END
>  <minimizedAffinity>  (1) 
-4.89134741

>  <minimizedRMSD>  (1) 
5.1609478

$$$$
