
     RDKit          3D

 40 43  0  0  1  0  0  0  0  0999 V2000
   42.5020   21.8410   33.5380 C   0  0  1  0  0  0  0  0  0  0  0  0
   41.2240   22.0250   32.7690 C   0  0  0  0  0  0  0  0  0  0  0  0
   41.4290   22.4080   31.3330 C   0  0  0  0  0  0  0  0  0  0  0  0
   42.5750   23.3530   31.1700 C   0  0  0  0  0  0  0  0  0  0  0  0
   42.8760   24.0490   32.4590 C   0  0  0  0  0  0  0  0  0  0  0  0
   43.4230   23.0420   33.4520 C   0  0  1  0  0  0  0  0  0  0  0  0
   42.5160   20.8110   37.0460 C   0  0  0  0  0  0  0  0  0  0  0  0
   41.4050   21.4590   37.5880 C   0  0  0  0  0  0  0  0  0  0  0  0
   40.6370   22.2570   36.7590 C   0  0  0  0  0  0  0  0  0  0  0  0
   41.0160   22.3630   35.4480 N   0  0  0  0  0  0  0  0  0  0  0  0
   42.0910   21.7230   34.9690 C   0  0  0  0  0  0  0  0  0  0  0  0
   42.8240   20.9610   35.7580 N   0  0  0  0  0  0  0  0  0  0  0  0
   39.4650   22.9380   37.3130 C   0  0  0  0  0  0  0  0  0  0  0  0
   38.6220   23.7690   36.5880 C   0  0  0  0  0  0  0  0  0  0  0  0
   37.6720   24.1830   37.4760 N   0  0  0  0  0  0  0  0  0  0  0  0
   37.9600   23.6130   38.6600 C   0  0  0  0  0  0  0  0  0  0  0  0
   39.0320   22.8560   38.6040 N   0  0  0  0  0  0  0  0  0  0  0  0
   43.7380   23.6270   34.7200 N   0  0  0  0  0  0  0  0  0  0  0  0
   44.8410   23.2340   35.3880 C   0  0  0  0  0  0  0  0  0  0  0  0
   44.9020   23.9510   36.5670 C   0  0  0  0  0  0  0  0  0  0  0  0
   43.8340   24.7820   36.6150 N   0  0  0  0  0  0  0  0  0  0  0  0
   43.1300   24.5700   35.4730 C   0  0  0  0  0  0  0  0  0  0  0  0
   43.0408   20.9718   33.1327 H   0  0  0  0  0  0  0  0  0  0  0  0
   40.6626   21.0795   32.7986 H   0  0  0  0  0  0  0  0  0  0  0  0
   40.6804   22.8537   33.2463 H   0  0  0  0  0  0  0  0  0  0  0  0
   41.6306   21.4991   30.7472 H   0  0  0  0  0  0  0  0  0  0  0  0
   40.5171   22.9114   30.9794 H   0  0  0  0  0  0  0  0  0  0  0  0
   43.4636   22.7903   30.8478 H   0  0  0  0  0  0  0  0  0  0  0  0
   42.3058   24.1074   30.4161 H   0  0  0  0  0  0  0  0  0  0  0  0
   43.6226   24.8380   32.2857 H   0  0  0  0  0  0  0  0  0  0  0  0
   41.9565   24.5012   32.8590 H   0  0  0  0  0  0  0  0  0  0  0  0
   44.3921   22.6787   33.0795 H   0  0  0  0  0  0  0  0  0  0  0  0
   43.1418   20.1720   37.6864 H   0  0  0  0  0  0  0  0  0  0  0  0
   41.1459   21.3380   38.6502 H   0  0  0  0  0  0  0  0  0  0  0  0
   38.7026   24.0368   35.5241 H   0  0  0  0  0  0  0  0  0  0  0  0
   37.3646   23.7639   39.5726 H   0  0  0  0  0  0  0  0  0  0  0  0
   39.4556   22.3154   39.3716 H   0  0  0  0  0  0  0  0  0  0  0  0
   45.5646   22.4762   35.0533 H   0  0  0  0  0  0  0  0  0  0  0  0
   45.6842   23.8621   37.3353 H   0  0  0  0  0  0  0  0  0  0  0  0
   42.1999   25.0904   35.2006 H   0  0  0  0  0  0  0  0  0  0  0  0
  1 11  1  0
  2  1  1  0
  3  2  1  0
  4  3  1  0
  4  5  1  0
  5  6  1  0
  6  1  1  0
  6 18  1  0
  7  8  2  0
  9 13  1  0
  9  8  1  0
 10  9  2  0
 11 10  1  0
 11 12  2  0
 12  7  1  0
 13 17  1  0
 14 13  2  0
 14 15  1  0
 15 16  2  0
 17 16  1  0
 18 19  1  0
 18 22  1  0
 19 20  2  0
 20 21  1  0
 22 21  2  0
  1 23  1  6
  2 24  1  0
  2 25  1  0
  3 26  1  0
  3 27  1  0
  4 28  1  0
  4 29  1  0
  5 30  1  0
  5 31  1  0
  6 32  1  6
  7 33  1  0
  8 34  1  0
 14 35  1  0
 16 36  1  0
 17 37  1  0
 19 38  1  0
 20 39  1  0
 22 40  1  0
M  ISO  8  23  13  24  13  25  13  26  13  27  13  28  13  29  13  30  13
M  ISO  8  31  13  32  13  33  14  34  14  35  14  36  14  37   9  38  14
M  ISO  2  39  14  40  14
M  END
>  <minimizedAffinity>  (1) 
-4.41315842

>  <minimizedRMSD>  (1) 
1.07977104

$$$$
