
     RDKit          3D

 40 43  0  0  1  0  0  0  0  0999 V2000
   42.7150   22.0510   33.6530 C   0  0  1  0  0  0  0  0  0  0  0  0
   42.5130   20.7400   32.9490 C   0  0  0  0  0  0  0  0  0  0  0  0
   42.7240   20.8020   31.4730 C   0  0  0  0  0  0  0  0  0  0  0  0
   42.1870   22.0650   30.8770 C   0  0  0  0  0  0  0  0  0  0  0  0
   41.2210   22.7240   31.7960 C   0  0  0  0  0  0  0  0  0  0  0  0
   41.8820   23.1680   33.0570 C   0  0  2  0  0  0  0  0  0  0  0  0
   42.5110   20.8030   37.0820 C   0  0  0  0  0  0  0  0  0  0  0  0
   41.3750   21.4260   37.5940 C   0  0  0  0  0  0  0  0  0  0  0  0
   40.6540   22.2900   36.7650 C   0  0  0  0  0  0  0  0  0  0  0  0
   41.1240   22.4660   35.4880 N   0  0  0  0  0  0  0  0  0  0  0  0
   42.2190   21.8450   35.0440 C   0  0  0  0  0  0  0  0  0  0  0  0
   42.9060   21.0270   35.8190 N   0  0  0  0  0  0  0  0  0  0  0  0
   39.4790   22.9290   37.3130 C   0  0  0  0  0  0  0  0  0  0  0  0
   38.6090   23.7310   36.5530 C   0  0  0  0  0  0  0  0  0  0  0  0
   37.6460   24.1430   37.4140 N   0  0  0  0  0  0  0  0  0  0  0  0
   37.9340   23.6130   38.6100 C   0  0  0  0  0  0  0  0  0  0  0  0
   39.0250   22.8800   38.5910 N   0  0  0  0  0  0  0  0  0  0  0  0
   42.7370   24.3690   32.7350 C   0  0  0  0  0  0  0  0  0  0  0  0
   44.1110   24.5350   33.1040 C   0  0  0  0  0  0  0  0  0  0  0  0
   44.6790   25.7090   32.6860 C   0  0  0  0  0  0  0  0  0  0  0  0
   43.9140   26.6240   31.9610 C   0  0  0  0  0  0  0  0  0  0  0  0
   42.3270   25.8490   31.8360 S   0  0  0  0  0  0  0  0  0  0  0  0
   43.7747   22.3367   33.5792 H   0  0  0  0  0  0  0  0  0  0  0  0
   43.2207   20.0099   33.3687 H   0  0  0  0  0  0  0  0  0  0  0  0
   41.4629   20.4535   33.1075 H   0  0  0  0  0  0  0  0  0  0  0  0
   43.8029   20.7440   31.2668 H   0  0  0  0  0  0  0  0  0  0  0  0
   42.1833   19.9584   31.0192 H   0  0  0  0  0  0  0  0  0  0  0  0
   43.0226   22.7530   30.6810 H   0  0  0  0  0  0  0  0  0  0  0  0
   41.6639   21.8146   29.9423 H   0  0  0  0  0  0  0  0  0  0  0  0
   40.7885   23.6005   31.2913 H   0  0  0  0  0  0  0  0  0  0  0  0
   40.4385   21.9954   32.0545 H   0  0  0  0  0  0  0  0  0  0  0  0
   41.1237   23.4371   33.8070 H   0  0  0  0  0  0  0  0  0  0  0  0
   43.0908   20.1198   37.7200 H   0  0  0  0  0  0  0  0  0  0  0  0
   41.0521   21.2418   38.6293 H   0  0  0  0  0  0  0  0  0  0  0  0
   38.6924   23.9735   35.4833 H   0  0  0  0  0  0  0  0  0  0  0  0
   37.3235   23.7738   39.5108 H   0  0  0  0  0  0  0  0  0  0  0  0
   39.4477   22.3735   39.3820 H   0  0  0  0  0  0  0  0  0  0  0  0
   44.6665   23.7788   33.6781 H   0  0  0  0  0  0  0  0  0  0  0  0
   45.7310   25.9293   32.9201 H   0  0  0  0  0  0  0  0  0  0  0  0
   44.2249   27.6001   31.5603 H   0  0  0  0  0  0  0  0  0  0  0  0
  1 11  1  0
  2  1  1  0
  3  2  1  0
  4  3  1  0
  4  5  1  0
  5  6  1  0
  6  1  1  0
  7  8  2  0
  9 13  1  0
  9  8  1  0
 10  9  2  0
 11 10  1  0
 11 12  2  0
 12  7  1  0
 13 17  1  0
 14 13  2  0
 14 15  1  0
 15 16  2  0
 17 16  1  0
 18  6  1  0
 18 19  2  0
 20 19  1  0
 21 20  2  0
 22 21  1  0
 22 18  1  0
  1 23  1  1
  2 24  1  0
  2 25  1  0
  3 26  1  0
  3 27  1  0
  4 28  1  0
  4 29  1  0
  5 30  1  0
  5 31  1  0
  6 32  1  1
  7 33  1  0
  8 34  1  0
 14 35  1  0
 16 36  1  0
 17 37  1  0
 19 38  1  0
 20 39  1  0
 21 40  1  0
M  ISO  8  23  13  24  13  25  13  26  13  27  13  28  13  29  13  30  13
M  ISO  8  31  13  32  13  33  14  34  14  35  14  36  14  37   9  38  14
M  ISO  2  39  14  40  14
M  END
>  <minimizedAffinity>  (1) 
-3.92886353

>  <minimizedRMSD>  (1) 
1.60994756

$$$$
