
     RDKit          3D

 39 41  0  0  1  0  0  0  0  0999 V2000
   42.6810   22.2730   33.6220 C   0  0  1  0  0  0  0  0  0  0  0  0
   41.4520   22.2510   32.7570 C   0  0  0  0  0  0  0  0  0  0  0  0
   41.6740   22.7400   31.3640 C   0  0  0  0  0  0  0  0  0  0  0  0
   42.6650   23.8570   31.3070 C   0  0  0  0  0  0  0  0  0  0  0  0
   42.7570   24.5440   32.6490 C   0  0  0  0  0  0  0  0  0  0  0  0
   43.4080   23.5740   33.6210 C   0  0  1  0  0  0  0  0  0  0  0  0
   42.5630   20.9010   37.0090 C   0  0  0  0  0  0  0  0  0  0  0  0
   41.4070   21.4670   37.5460 C   0  0  0  0  0  0  0  0  0  0  0  0
   40.6590   22.3240   36.7480 C   0  0  0  0  0  0  0  0  0  0  0  0
   41.1110   22.5540   35.4800 N   0  0  0  0  0  0  0  0  0  0  0  0
   42.2160   21.9960   35.0030 C   0  0  0  0  0  0  0  0  0  0  0  0
   42.9280   21.1820   35.7600 N   0  0  0  0  0  0  0  0  0  0  0  0
   39.4460   22.9200   37.3090 C   0  0  0  0  0  0  0  0  0  0  0  0
   38.5540   23.7110   36.5770 C   0  0  0  0  0  0  0  0  0  0  0  0
   37.5730   24.0600   37.4610 N   0  0  0  0  0  0  0  0  0  0  0  0
   37.8830   23.5000   38.6370 C   0  0  0  0  0  0  0  0  0  0  0  0
   39.0020   22.8050   38.5920 N   0  0  0  0  0  0  0  0  0  0  0  0
   43.6860   24.2070   34.9300 C   0  0  0  0  0  0  0  0  0  0  0  0
   43.0360   25.6000   34.8780 C   0  0  0  0  0  0  0  0  0  0  0  0
   43.3920   21.5309   33.2298 H   0  0  0  0  0  0  0  0  0  0  0  0
   41.0859   21.2151   32.7045 H   0  0  0  0  0  0  0  0  0  0  0  0
   40.7275   22.9367   33.2205 H   0  0  0  0  0  0  0  0  0  0  0  0
   42.0456   21.9056   30.7511 H   0  0  0  0  0  0  0  0  0  0  0  0
   40.7147   23.1211   30.9839 H   0  0  0  0  0  0  0  0  0  0  0  0
   43.6521   23.4532   31.0375 H   0  0  0  0  0  0  0  0  0  0  0  0
   42.3383   24.5875   30.5523 H   0  0  0  0  0  0  0  0  0  0  0  0
   43.3681   25.4545   32.5626 H   0  0  0  0  0  0  0  0  0  0  0  0
   41.7564   24.8317   33.0039 H   0  0  0  0  0  0  0  0  0  0  0  0
   44.4191   23.3062   33.2805 H   0  0  0  0  0  0  0  0  0  0  0  0
   43.1749   20.2204   37.6192 H   0  0  0  0  0  0  0  0  0  0  0  0
   41.0950   21.2405   38.5762 H   0  0  0  0  0  0  0  0  0  0  0  0
   38.6271   23.9919   35.5160 H   0  0  0  0  0  0  0  0  0  0  0  0
   37.2695   23.6083   39.5436 H   0  0  0  0  0  0  0  0  0  0  0  0
   39.4462   22.2856   39.3626 H   0  0  0  0  0  0  0  0  0  0  0  0
   43.2463   23.6109   35.7432 H   0  0  0  0  0  0  0  0  0  0  0  0
   44.7671   24.2753   35.1213 H   0  0  0  0  0  0  0  0  0  0  0  0
   42.8662   25.9639   35.9021 H   0  0  0  0  0  0  0  0  0  0  0  0
   43.7024   26.2960   34.3474 H   0  0  0  0  0  0  0  0  0  0  0  0
   42.0746   25.5364   34.3474 H   0  0  0  0  0  0  0  0  0  0  0  0
  1 11  1  0
  2  1  1  0
  3  2  1  0
  4  3  1  0
  4  5  1  0
  5  6  1  0
  6  1  1  0
  6 18  1  0
  7  8  2  0
  9 13  1  0
  9  8  1  0
 10  9  2  0
 11 10  1  0
 11 12  2  0
 12  7  1  0
 13 17  1  0
 14 13  2  0
 14 15  1  0
 15 16  2  0
 17 16  1  0
 19 18  1  0
  1 20  1  6
  2 21  1  0
  2 22  1  0
  3 23  1  0
  3 24  1  0
  4 25  1  0
  4 26  1  0
  5 27  1  0
  5 28  1  0
  6 29  1  6
  7 30  1  0
  8 31  1  0
 14 32  1  0
 16 33  1  0
 17 34  1  0
 18 35  1  0
 18 36  1  0
 19 37  1  0
 19 38  1  0
 19 39  1  0
M  ISO  8  20  13  21  13  22  13  23  13  24  13  25  13  26  13  27  13
M  ISO  8  28  13  29  13  30  14  31  14  32  14  33  14  34   9  35   8
M  ISO  4  36   8  37   8  38   8  39   8
M  END
>  <minimizedAffinity>  (1) 
-3.94161963

>  <minimizedRMSD>  (1) 
0.962725639

$$$$
