
     RDKit          3D

 34 36  0  0  1  0  0  0  0  0999 V2000
   42.2280   21.4950   33.4490 C   0  0  1  0  0  0  0  0  0  0  0  0
   40.9840   21.0020   32.7690 C   0  0  0  0  0  0  0  0  0  0  0  0
   40.9910   21.1860   31.2750 C   0  0  0  0  0  0  0  0  0  0  0  0
   41.7290   22.4100   30.8530 C   0  0  0  0  0  0  0  0  0  0  0  0
   41.7320   23.4160   31.9660 C   0  0  0  0  0  0  0  0  0  0  0  0
   42.6130   22.9110   33.0630 C   0  0  2  0  0  0  0  0  0  0  0  0
   42.5210   20.8100   37.0230 C   0  0  0  0  0  0  0  0  0  0  0  0
   41.4330   21.4850   37.5750 C   0  0  0  0  0  0  0  0  0  0  0  0
   40.5900   22.1800   36.7290 C   0  0  0  0  0  0  0  0  0  0  0  0
   40.8700   22.1690   35.3820 N   0  0  0  0  0  0  0  0  0  0  0  0
   41.9310   21.5030   34.9030 C   0  0  0  0  0  0  0  0  0  0  0  0
   42.7390   20.8370   35.7040 N   0  0  0  0  0  0  0  0  0  0  0  0
   39.4390   22.8930   37.2850 C   0  0  0  0  0  0  0  0  0  0  0  0
   38.5820   23.7150   36.5630 C   0  0  0  0  0  0  0  0  0  0  0  0
   37.6640   24.1650   37.4670 N   0  0  0  0  0  0  0  0  0  0  0  0
   37.9830   23.6230   38.6520 C   0  0  0  0  0  0  0  0  0  0  0  0
   39.0370   22.8550   38.5940 N   0  0  0  0  0  0  0  0  0  0  0  0
   44.3690   23.0040   32.5980 S   0  0  0  0  0  0  0  0  0  0  0  0
   43.0612   20.8392   33.1563 H   0  0  0  0  0  0  0  0  0  0  0  0
   40.8733   19.9292   32.9852 H   0  0  0  0  0  0  0  0  0  0  0  0
   40.1481   21.6005   33.1602 H   0  0  0  0  0  0  0  0  0  0  0  0
   41.4695   20.3093   30.8141 H   0  0  0  0  0  0  0  0  0  0  0  0
   39.9467   21.2964   30.9475 H   0  0  0  0  0  0  0  0  0  0  0  0
   42.7657   22.1418   30.6014 H   0  0  0  0  0  0  0  0  0  0  0  0
   41.2327   22.8458   29.9734 H   0  0  0  0  0  0  0  0  0  0  0  0
   42.1162   24.3777   31.5952 H   0  0  0  0  0  0  0  0  0  0  0  0
   40.7090   23.5624   32.3429 H   0  0  0  0  0  0  0  0  0  0  0  0
   42.4672   23.5598   33.9393 H   0  0  0  0  0  0  0  0  0  0  0  0
   43.2055   20.2508   37.6778 H   0  0  0  0  0  0  0  0  0  0  0  0
   41.2499   21.4647   38.6595 H   0  0  0  0  0  0  0  0  0  0  0  0
   38.6328   23.9526   35.4902 H   0  0  0  0  0  0  0  0  0  0  0  0
   37.4155   23.8066   39.5763 H   0  0  0  0  0  0  0  0  0  0  0  0
   39.4730   22.3323   39.3670 H   0  0  0  0  0  0  0  0  0  0  0  0
   45.1396   23.0448   33.7300 H   0  0  0  0  0  0  0  0  0  0  0  0
  1 11  1  0
  2  1  1  0
  3  2  1  0
  4  3  1  0
  4  5  1  0
  5  6  1  0
  6  1  1  0
  7  8  2  0
  9 13  1  0
  9  8  1  0
 10  9  2  0
 11 10  1  0
 11 12  2  0
 12  7  1  0
 13 17  1  0
 14 13  2  0
 14 15  1  0
 15 16  2  0
 17 16  1  0
 18  6  1  0
  1 19  1  1
  2 20  1  0
  2 21  1  0
  3 22  1  0
  3 23  1  0
  4 24  1  0
  4 25  1  0
  5 26  1  0
  5 27  1  0
  6 28  1  1
  7 29  1  0
  8 30  1  0
 14 31  1  0
 16 32  1  0
 17 33  1  0
 18 34  1  0
M  ISO  8  19  13  20  13  21  13  22  13  23  13  24  13  25  13  26  13
M  ISO  8  27  13  28  13  29  14  30  14  31  14  32  14  33   9  34  11
M  END
>  <minimizedAffinity>  (1) 
-3.86809111

>  <minimizedRMSD>  (1) 
0.0199332312

$$$$
