
     RDKit          3D

 34 36  0  0  1  0  0  0  0  0999 V2000
   42.3380   21.4560   33.5010 C   0  0  1  0  0  0  0  0  0  0  0  0
   41.1370   20.8860   32.8020 C   0  0  0  0  0  0  0  0  0  0  0  0
   41.1860   20.9980   31.3150 C   0  0  0  0  0  0  0  0  0  0  0  0
   41.8060   22.2940   30.8780 C   0  0  0  0  0  0  0  0  0  0  0  0
   41.7260   23.3100   31.9690 C   0  0  0  0  0  0  0  0  0  0  0  0
   42.6250   22.8910   33.1060 C   0  0  2  0  0  0  0  0  0  0  0  0
   42.5200   20.7940   37.0910 C   0  0  0  0  0  0  0  0  0  0  0  0
   41.4170   21.4740   37.6100 C   0  0  0  0  0  0  0  0  0  0  0  0
   40.5880   22.1750   36.7250 C   0  0  0  0  0  0  0  0  0  0  0  0
   40.9180   22.1460   35.3940 N   0  0  0  0  0  0  0  0  0  0  0  0
   41.9910   21.4750   34.9560 C   0  0  0  0  0  0  0  0  0  0  0  0
   42.7810   20.8090   35.7860 N   0  0  0  0  0  0  0  0  0  0  0  0
   39.4410   22.8810   37.2690 C   0  0  0  0  0  0  0  0  0  0  0  0
   38.5910   23.6810   36.5150 C   0  0  0  0  0  0  0  0  0  0  0  0
   37.6600   24.1520   37.3940 N   0  0  0  0  0  0  0  0  0  0  0  0
   37.9700   23.6360   38.6080 C   0  0  0  0  0  0  0  0  0  0  0  0
   39.0280   22.8720   38.5700 N   0  0  0  0  0  0  0  0  0  0  0  0
   43.9740   23.0740   32.7920 O   0  0  0  0  0  0  0  0  0  0  0  0
   43.2188   20.8496   33.2431 H   0  0  0  0  0  0  0  0  0  0  0  0
   41.0573   19.8210   33.0655 H   0  0  0  0  0  0  0  0  0  0  0  0
   40.2684   21.4729   33.1353 H   0  0  0  0  0  0  0  0  0  0  0  0
   41.7811   20.1645   30.9137 H   0  0  0  0  0  0  0  0  0  0  0  0
   40.1549   20.9642   30.9334 H   0  0  0  0  0  0  0  0  0  0  0  0
   42.8617   22.1213   30.6218 H   0  0  0  0  0  0  0  0  0  0  0  0
   41.2581   22.6711   30.0019 H   0  0  0  0  0  0  0  0  0  0  0  0
   42.0507   24.2883   31.5849 H   0  0  0  0  0  0  0  0  0  0  0  0
   40.6888   23.3856   32.3274 H   0  0  0  0  0  0  0  0  0  0  0  0
   42.4081   23.5378   33.9689 H   0  0  0  0  0  0  0  0  0  0  0  0
   43.1829   20.2379   37.7702 H   0  0  0  0  0  0  0  0  0  0  0  0
   41.2038   21.4597   38.6890 H   0  0  0  0  0  0  0  0  0  0  0  0
   38.6552   23.8903   35.4370 H   0  0  0  0  0  0  0  0  0  0  0  0
   37.3945   23.8383   39.5234 H   0  0  0  0  0  0  0  0  0  0  0  0
   39.4606   22.3679   39.3571 H   0  0  0  0  0  0  0  0  0  0  0  0
   44.5005   23.1454   33.6273 H   0  0  0  0  0  0  0  0  0  0  0  0
  1 11  1  0
  2  1  1  0
  3  2  1  0
  4  3  1  0
  4  5  1  0
  5  6  1  0
  6  1  1  0
  7  8  2  0
  9 13  1  0
  9  8  1  0
 10  9  2  0
 11 10  1  0
 11 12  2  0
 12  7  1  0
 13 17  1  0
 14 13  2  0
 14 15  1  0
 15 16  2  0
 17 16  1  0
 18  6  1  0
  1 19  1  1
  2 20  1  0
  2 21  1  0
  3 22  1  0
  3 23  1  0
  4 24  1  0
  4 25  1  0
  5 26  1  0
  5 27  1  0
  6 28  1  1
  7 29  1  0
  8 30  1  0
 14 31  1  0
 16 32  1  0
 17 33  1  0
 18 34  1  0
M  ISO  8  19  13  20  13  21  13  22  13  23  13  24  13  25  13  26  13
M  ISO  8  27  13  28  13  29  14  30  14  31  14  32  14  33   9  34   3
M  END
>  <minimizedAffinity>  (1) 
-3.86632586

>  <minimizedRMSD>  (1) 
0.115330115

$$$$
