
     RDKit          3D

 36 38  0  0  1  0  0  0  0  0999 V2000
   42.4910   21.8730   33.5530 C   0  0  1  0  0  0  0  0  0  0  0  0
   41.6030   20.9470   32.7720 C   0  0  0  0  0  0  0  0  0  0  0  0
   41.6850   21.1190   31.2890 C   0  0  0  0  0  0  0  0  0  0  0  0
   41.8590   22.5460   30.8960 C   0  0  0  0  0  0  0  0  0  0  0  0
   41.4150   23.4570   31.9900 C   0  0  0  0  0  0  0  0  0  0  0  0
   42.3200   23.3310   33.1810 C   0  0  2  0  0  0  0  0  0  0  0  0
   42.5060   20.8240   37.0500 C   0  0  0  0  0  0  0  0  0  0  0  0
   41.3930   21.4570   37.5860 C   0  0  0  0  0  0  0  0  0  0  0  0
   40.6120   22.2590   36.7510 C   0  0  0  0  0  0  0  0  0  0  0  0
   40.9930   22.3770   35.4370 N   0  0  0  0  0  0  0  0  0  0  0  0
   42.0820   21.7390   34.9810 C   0  0  0  0  0  0  0  0  0  0  0  0
   42.8280   20.9780   35.7580 N   0  0  0  0  0  0  0  0  0  0  0  0
   39.4370   22.9280   37.3090 C   0  0  0  0  0  0  0  0  0  0  0  0
   38.5680   23.7220   36.5720 C   0  0  0  0  0  0  0  0  0  0  0  0
   37.6220   24.1440   37.4650 N   0  0  0  0  0  0  0  0  0  0  0  0
   37.9490   23.6060   38.6580 C   0  0  0  0  0  0  0  0  0  0  0  0
   39.0280   22.8720   38.6070 N   0  0  0  0  0  0  0  0  0  0  0  0
   43.6550   24.0390   32.9930 C   0  0  0  0  0  0  0  0  0  0  0  0
   44.0260   24.4700   34.2730 F   0  0  0  0  0  0  0  0  0  0  0  0
   44.6510   23.2250   32.5480 F   0  0  0  0  0  0  0  0  0  0  0  0
   43.4250   25.1390   32.2180 F   0  0  0  0  0  0  0  0  0  0  0  0
   43.5364   21.5990   33.3480 H   0  0  0  0  0  0  0  0  0  0  0  0
   41.8863   19.9122   33.0147 H   0  0  0  0  0  0  0  0  0  0  0  0
   40.5686   21.1864   33.0596 H   0  0  0  0  0  0  0  0  0  0  0  0
   42.5417   20.5409   30.9123 H   0  0  0  0  0  0  0  0  0  0  0  0
   40.7392   20.7624   30.8551 H   0  0  0  0  0  0  0  0  0  0  0  0
   42.9213   22.7332   30.6802 H   0  0  0  0  0  0  0  0  0  0  0  0
   41.2455   22.7424   30.0043 H   0  0  0  0  0  0  0  0  0  0  0  0
   41.4369   24.4953   31.6273 H   0  0  0  0  0  0  0  0  0  0  0  0
   40.3933   23.1806   32.2896 H   0  0  0  0  0  0  0  0  0  0  0  0
   41.8357   23.8494   34.0217 H   0  0  0  0  0  0  0  0  0  0  0  0
   43.1316   20.1880   37.6936 H   0  0  0  0  0  0  0  0  0  0  0  0
   41.1315   21.3295   38.6468 H   0  0  0  0  0  0  0  0  0  0  0  0
   38.6278   23.9604   35.4998 H   0  0  0  0  0  0  0  0  0  0  0  0
   37.3677   23.7685   39.5776 H   0  0  0  0  0  0  0  0  0  0  0  0
   39.4739   22.3606   39.3819 H   0  0  0  0  0  0  0  0  0  0  0  0
  1 11  1  0
  2  1  1  0
  3  2  1  0
  4  3  1  0
  4  5  1  0
  5  6  1  0
  6  1  1  0
  7  8  2  0
  9 13  1  0
  9  8  1  0
 10  9  2  0
 11 10  1  0
 11 12  2  0
 12  7  1  0
 13 17  1  0
 14 13  2  0
 14 15  1  0
 15 16  2  0
 17 16  1  0
 18  6  1  0
 18 19  1  0
 20 18  1  0
 21 18  1  0
  1 22  1  1
  2 23  1  0
  2 24  1  0
  3 25  1  0
  3 26  1  0
  4 27  1  0
  4 28  1  0
  5 29  1  0
  5 30  1  0
  6 31  1  1
  7 32  1  0
  8 33  1  0
 14 34  1  0
 16 35  1  0
 17 36  1  0
M  ISO  8  22  13  23  13  24  13  25  13  26  13  27  13  28  13  29  13
M  ISO  7  30  13  31  13  32  14  33  14  34  14  35  14  36   9
M  END
>  <minimizedAffinity>  (1) 
-3.84227586

>  <minimizedRMSD>  (1) 
0.734226704

$$$$
