
     RDKit          3D

 39 41  0  0  0  0  0  0  0  0999 V2000
   38.6900   23.5710   37.0670 C   0  0  0  0  0  0  0  0  0  0  0  0
   41.9430   21.6950   36.9310 C   0  0  0  0  0  0  0  0  0  0  0  0
   40.6500   22.0270   37.2710 C   0  0  0  0  0  0  0  0  0  0  0  0
   40.0480   23.1690   36.7490 C   0  0  0  0  0  0  0  0  0  0  0  0
   40.7880   23.9310   35.9010 N   0  0  0  0  0  0  0  0  0  0  0  0
   42.0580   23.6000   35.5710 C   0  0  0  0  0  0  0  0  0  0  0  0
   42.6280   22.4790   36.0920 N   0  0  0  0  0  0  0  0  0  0  0  0
   42.5370   20.4560   37.5230 C   0  0  0  0  0  0  0  0  0  0  0  0
   43.1870   19.5870   36.5000 C   0  0  0  0  0  0  0  0  0  0  0  0
   38.4320   23.1910   38.5200 C   0  0  0  0  0  0  0  0  0  0  0  0
   38.4070   25.0380   36.8500 C   0  0  0  0  0  0  0  0  0  0  0  0
   37.7260   22.7830   36.2100 C   0  0  0  0  0  0  0  0  0  0  0  0
   37.8670   23.0860   34.8120 N   0  0  0  0  0  0  0  0  0  0  0  0
   38.1240   22.2380   33.7730 C   0  0  0  0  0  0  0  0  0  0  0  0
   38.1740   22.9650   32.6160 N   0  0  0  0  0  0  0  0  0  0  0  0
   37.9510   24.2410   32.9510 C   0  0  0  0  0  0  0  0  0  0  0  0
   37.7690   24.2930   34.2690 N   0  0  0  0  0  0  0  0  0  0  0  0
   37.9420   25.2700   31.9170 C   0  0  0  0  0  0  0  0  0  0  0  0
   38.6580   25.5750   30.8080 N   0  0  0  0  0  0  0  0  0  0  0  0
   38.1640   26.6510   30.2690 O   0  0  0  0  0  0  0  0  0  0  0  0
   37.1380   27.0910   30.9700 C   0  0  0  0  0  0  0  0  0  0  0  0
   36.9880   26.2380   32.0030 N   0  0  0  0  0  0  0  0  0  0  0  0
   40.0869   21.3829   37.9624 H   0  0  0  0  0  0  0  0  0  0  0  0
   42.6303   24.2375   34.8810 H   0  0  0  0  0  0  0  0  0  0  0  0
   43.2917   20.7482   38.2680 H   0  0  0  0  0  0  0  0  0  0  0  0
   41.7190   19.8792   37.9793 H   0  0  0  0  0  0  0  0  0  0  0  0
   43.7729   18.8037   37.0031 H   0  0  0  0  0  0  0  0  0  0  0  0
   42.4145   19.1202   35.8712 H   0  0  0  0  0  0  0  0  0  0  0  0
   43.8530   20.1961   35.8712 H   0  0  0  0  0  0  0  0  0  0  0  0
   38.9254   23.9177   39.1822 H   0  0  0  0  0  0  0  0  0  0  0  0
   37.3491   23.1950   38.7133 H   0  0  0  0  0  0  0  0  0  0  0  0
   38.8353   22.1860   38.7133 H   0  0  0  0  0  0  0  0  0  0  0  0
   38.3100   25.5407   37.8236 H   0  0  0  0  0  0  0  0  0  0  0  0
   39.2343   25.4912   36.2841 H   0  0  0  0  0  0  0  0  0  0  0  0
   37.4705   25.1510   36.2841 H   0  0  0  0  0  0  0  0  0  0  0  0
   37.9148   21.7098   36.3603 H   0  0  0  0  0  0  0  0  0  0  0  0
   36.7046   23.0571   36.5127 H   0  0  0  0  0  0  0  0  0  0  0  0
   38.2671   21.1503   33.8535 H   0  0  0  0  0  0  0  0  0  0  0  0
   36.5253   27.9788   30.7546 H   0  0  0  0  0  0  0  0  0  0  0  0
  1 10  1  0
  2  3  2  0
  2  8  1  0
  4  1  1  0
  4  3  1  0
  5  4  2  0
  6  5  1  0
  6  7  2  0
  7  2  1  0
  9  8  1  0
 11  1  1  0
 12  1  1  0
 13 12  1  0
 14 13  1  0
 15 16  1  0
 15 14  2  0
 16 17  2  0
 17 13  1  0
 18 22  1  0
 18 16  1  0
 19 18  2  0
 20 19  1  0
 20 21  1  0
 21 22  2  0
  3 23  1  0
  6 24  1  0
  8 25  1  0
  8 26  1  0
  9 27  1  0
  9 28  1  0
  9 29  1  0
 10 30  1  0
 10 31  1  0
 10 32  1  0
 11 33  1  0
 11 34  1  0
 11 35  1  0
 12 36  1  0
 12 37  1  0
 14 38  1  0
 21 39  1  0
M  ISO  8  23  14  24  14  25   8  26   8  27   8  28   8  29   8  30   8
M  ISO  8  31   8  32   8  33   8  34   8  35   8  36   8  37   8  38  14
M  ISO  1  39  14
M  END
>  <minimizedAffinity>  (1) 
-4.33742952

>  <minimizedRMSD>  (1) 
0.824052095

$$$$
