
     RDKit          3D

 42 44  0  0  1  0  0  0  0  0999 V2000
   41.6390   22.6890   37.0290 C   0  0  1  0  0  0  0  0  0  0  0  0
   41.5720   21.1920   37.2670 C   0  0  0  0  0  0  0  0  0  0  0  0
   42.8890   20.5020   37.1810 C   0  0  0  0  0  0  0  0  0  0  0  0
   43.7550   21.0820   36.1240 C   0  0  0  0  0  0  0  0  0  0  0  0
   42.9510   21.8380   35.1310 C   0  0  0  0  0  0  0  0  0  0  0  0
   42.3430   23.0700   35.7590 C   0  0  2  0  0  0  0  0  0  0  0  0
   38.1870   23.4670   37.9320 C   0  0  0  0  0  0  0  0  0  0  0  0
   37.6710   23.9960   36.7560 C   0  0  0  0  0  0  0  0  0  0  0  0
   38.4780   24.0990   35.6420 C   0  0  0  0  0  0  0  0  0  0  0  0
   39.7710   23.6630   35.7660 N   0  0  0  0  0  0  0  0  0  0  0  0
   40.2360   23.1570   36.9170 C   0  0  0  0  0  0  0  0  0  0  0  0
   39.4740   23.0550   37.9860 N   0  0  0  0  0  0  0  0  0  0  0  0
   37.9260   24.6560   34.4270 C   0  0  0  0  0  0  0  0  0  0  0  0
   37.7620   23.9220   33.2450 C   0  0  0  0  0  0  0  0  0  0  0  0
   37.2260   24.7850   32.3230 N   0  0  0  0  0  0  0  0  0  0  0  0
   37.0950   25.9570   32.9610 C   0  0  0  0  0  0  0  0  0  0  0  0
   37.5020   25.9110   34.2150 N   0  0  0  0  0  0  0  0  0  0  0  0
   37.3910   27.0620   35.0440 C   0  0  0  0  0  0  0  0  0  0  0  0
   36.5210   28.1740   34.4670 C   0  0  0  0  0  0  0  0  0  0  0  0
   43.3470   24.1850   35.9530 C   0  0  0  0  0  0  0  0  0  0  0  0
   42.6370   25.3690   35.6720 F   0  0  0  0  0  0  0  0  0  0  0  0
   43.8010   24.3050   37.2280 F   0  0  0  0  0  0  0  0  0  0  0  0
   44.3230   24.0320   35.0190 F   0  0  0  0  0  0  0  0  0  0  0  0
   42.2037   23.1412   37.8576 H   0  0  0  0  0  0  0  0  0  0  0  0
   41.1572   21.0203   38.2712 H   0  0  0  0  0  0  0  0  0  0  0  0
   40.9419   20.7723   36.4690 H   0  0  0  0  0  0  0  0  0  0  0  0
   43.4017   20.5942   38.1498 H   0  0  0  0  0  0  0  0  0  0  0  0
   42.7034   19.4481   36.9265 H   0  0  0  0  0  0  0  0  0  0  0  0
   44.4836   21.7622   36.5893 H   0  0  0  0  0  0  0  0  0  0  0  0
   44.2705   20.2608   35.6045 H   0  0  0  0  0  0  0  0  0  0  0  0
   42.1457   21.1917   34.7519 H   0  0  0  0  0  0  0  0  0  0  0  0
   43.6105   22.1507   34.3081 H   0  0  0  0  0  0  0  0  0  0  0  0
   41.5987   23.4842   35.0630 H   0  0  0  0  0  0  0  0  0  0  0  0
   37.5467   23.3829   38.8225 H   0  0  0  0  0  0  0  0  0  0  0  0
   36.6242   24.3311   36.7132 H   0  0  0  0  0  0  0  0  0  0  0  0
   38.0134   22.8628   33.0873 H   0  0  0  0  0  0  0  0  0  0  0  0
   36.6899   26.8635   32.4875 H   0  0  0  0  0  0  0  0  0  0  0  0
   36.9588   26.7519   36.0068 H   0  0  0  0  0  0  0  0  0  0  0  0
   38.4052   27.4765   35.1421 H   0  0  0  0  0  0  0  0  0  0  0  0
   36.0701   28.7503   35.2883 H   0  0  0  0  0  0  0  0  0  0  0  0
   37.1401   28.8403   33.8483 H   0  0  0  0  0  0  0  0  0  0  0  0
   35.7254   27.7334   33.8483 H   0  0  0  0  0  0  0  0  0  0  0  0
  1  2  1  0
  3  2  1  0
  4  3  1  0
  5  6  1  0
  5  4  1  0
  6 20  1  0
  6  1  1  0
  7 12  2  0
  8  7  1  0
  9 10  1  0
  9  8  2  0
 10 11  2  0
 11  1  1  0
 11 12  1  0
 13  9  1  0
 14 13  2  0
 15 16  2  0
 15 14  1  0
 16 17  1  0
 17 13  1  0
 17 18  1  0
 19 18  1  0
 20 22  1  0
 21 20  1  0
 23 20  1  0
  1 24  1  1
  2 25  1  0
  2 26  1  0
  3 27  1  0
  3 28  1  0
  4 29  1  0
  4 30  1  0
  5 31  1  0
  5 32  1  0
  6 33  1  6
  7 34  1  0
  8 35  1  0
 14 36  1  0
 16 37  1  0
 18 38  1  0
 18 39  1  0
 19 40  1  0
 19 41  1  0
 19 42  1  0
M  ISO  8  24  13  25  13  26  13  27  13  28  13  29  13  30  13  31  13
M  ISO  8  32  13  33  13  34  14  35  14  36  14  37  14  38   8  39   8
M  ISO  3  40   8  41   8  42   8
M  END
>  <minimizedAffinity>  (1) 
-5.40288258

>  <minimizedRMSD>  (1) 
4.78034878

$$$$
