
     RDKit          3D

 40 42  0  0  0  0  0  0  0  0999 V2000
   38.6910   23.5620   37.0410 C   0  0  0  0  0  0  0  0  0  0  0  0
   41.9470   21.6950   36.9310 C   0  0  0  0  0  0  0  0  0  0  0  0
   40.6430   22.0080   37.2700 C   0  0  0  0  0  0  0  0  0  0  0  0
   40.0540   23.1670   36.7320 C   0  0  0  0  0  0  0  0  0  0  0  0
   40.7940   23.9290   35.9020 N   0  0  0  0  0  0  0  0  0  0  0  0
   42.0730   23.6100   35.5770 C   0  0  0  0  0  0  0  0  0  0  0  0
   42.6360   22.4870   36.1010 N   0  0  0  0  0  0  0  0  0  0  0  0
   42.5490   20.4610   37.5130 C   0  0  0  0  0  0  0  0  0  0  0  0
   43.1640   19.5740   36.4880 C   0  0  0  0  0  0  0  0  0  0  0  0
   38.4110   23.1600   38.4880 C   0  0  0  0  0  0  0  0  0  0  0  0
   38.4100   25.0320   36.8480 C   0  0  0  0  0  0  0  0  0  0  0  0
   37.7340   22.7930   36.1530 C   0  0  0  0  0  0  0  0  0  0  0  0
   37.8680   23.1440   34.7750 N   0  0  0  0  0  0  0  0  0  0  0  0
   38.1140   22.3480   33.6900 C   0  0  0  0  0  0  0  0  0  0  0  0
   38.1610   23.1100   32.5730 N   0  0  0  0  0  0  0  0  0  0  0  0
   37.9450   24.3770   32.9670 C   0  0  0  0  0  0  0  0  0  0  0  0
   37.7730   24.3680   34.2860 N   0  0  0  0  0  0  0  0  0  0  0  0
   37.9300   25.4740   31.9900 C   0  0  0  0  0  0  0  0  0  0  0  0
   39.0370   25.9560   31.3540 C   0  0  0  0  0  0  0  0  0  0  0  0
   38.3080   27.3300   30.2640 S   0  0  0  0  0  0  0  0  0  0  0  0
   36.5850   26.9210   30.9530 C   0  0  0  0  0  0  0  0  0  0  0  0
   36.8140   26.0770   31.6620 N   0  0  0  0  0  0  0  0  0  0  0  0
   40.0737   21.3590   37.9516 H   0  0  0  0  0  0  0  0  0  0  0  0
   42.6493   24.2536   34.8961 H   0  0  0  0  0  0  0  0  0  0  0  0
   43.3266   20.7564   38.2328 H   0  0  0  0  0  0  0  0  0  0  0  0
   41.7377   19.8947   37.9937 H   0  0  0  0  0  0  0  0  0  0  0  0
   43.7224   18.7686   36.9875 H   0  0  0  0  0  0  0  0  0  0  0  0
   42.3739   19.1372   35.8595 H   0  0  0  0  0  0  0  0  0  0  0  0
   43.8501   20.1607   35.8595 H   0  0  0  0  0  0  0  0  0  0  0  0
   38.9052   23.8696   39.1679 H   0  0  0  0  0  0  0  0  0  0  0  0
   37.3261   23.1738   38.6690 H   0  0  0  0  0  0  0  0  0  0  0  0
   38.8001   22.1472   38.6690 H   0  0  0  0  0  0  0  0  0  0  0  0
   38.3168   25.5195   37.8297 H   0  0  0  0  0  0  0  0  0  0  0  0
   39.2363   25.4927   36.2868 H   0  0  0  0  0  0  0  0  0  0  0  0
   37.4720   25.1554   36.2868 H   0  0  0  0  0  0  0  0  0  0  0  0
   37.9355   21.7174   36.2647 H   0  0  0  0  0  0  0  0  0  0  0  0
   36.7101   23.0460   36.4654 H   0  0  0  0  0  0  0  0  0  0  0  0
   38.2522   21.2572   33.7209 H   0  0  0  0  0  0  0  0  0  0  0  0
   40.0839   25.6317   31.4485 H   0  0  0  0  0  0  0  0  0  0  0  0
   35.6164   27.3873   30.7199 H   0  0  0  0  0  0  0  0  0  0  0  0
  1 10  1  0
  2  3  2  0
  2  8  1  0
  4  1  1  0
  4  3  1  0
  5  4  2  0
  6  5  1  0
  6  7  2  0
  7  2  1  0
  9  8  1  0
 11  1  1  0
 12  1  1  0
 13 12  1  0
 14 13  1  0
 15 16  1  0
 15 14  2  0
 16 17  2  0
 17 13  1  0
 18 16  1  0
 19 18  2  0
 20 21  1  0
 20 19  1  0
 21 22  2  0
 22 18  1  0
  3 23  1  0
  6 24  1  0
  8 25  1  0
  8 26  1  0
  9 27  1  0
  9 28  1  0
  9 29  1  0
 10 30  1  0
 10 31  1  0
 10 32  1  0
 11 33  1  0
 11 34  1  0
 11 35  1  0
 12 36  1  0
 12 37  1  0
 14 38  1  0
 19 39  1  0
 21 40  1  0
M  ISO  8  23  14  24  14  25   8  26   8  27   8  28   8  29   8  30   8
M  ISO  8  31   8  32   8  33   8  34   8  35   8  36   8  37   8  38  14
M  ISO  2  39  14  40  14
M  END
>  <minimizedAffinity>  (1) 
-4.3325572

>  <minimizedRMSD>  (1) 
0.953043938

$$$$
