
     RDKit          3D

 27 28  0  0  0  0  0  0  0  0999 V2000
   40.0300   23.2240   37.0080 C   0  0  0  0  0  0  0  0  0  0  0  0
   39.4810   24.0400   36.0170 C   0  0  0  0  0  0  0  0  0  0  0  0
   38.2560   24.6630   36.3170 C   0  0  0  0  0  0  0  0  0  0  0  0
   37.6830   24.4450   37.5240 N   0  0  0  0  0  0  0  0  0  0  0  0
   38.2570   23.6410   38.4560 C   0  0  0  0  0  0  0  0  0  0  0  0
   39.4340   23.0290   38.1970 N   0  0  0  0  0  0  0  0  0  0  0  0
   41.2960   22.5400   36.7860 C   0  0  0  0  0  0  0  0  0  0  0  0
   41.4700   21.2710   37.2940 C   0  0  0  0  0  0  0  0  0  0  0  0
   42.6460   20.5720   37.1170 C   0  0  0  0  0  0  0  0  0  0  0  0
   43.6990   21.1060   36.4240 C   0  0  0  0  0  0  0  0  0  0  0  0
   43.5490   22.3770   35.9050 C   0  0  0  0  0  0  0  0  0  0  0  0
   42.3660   23.0610   36.0920 C   0  0  0  0  0  0  0  0  0  0  0  0
   37.5950   25.5250   35.3810 N   0  0  0  0  0  0  0  0  0  0  0  0
   37.9760   26.9050   35.3340 C   0  0  0  0  0  0  0  0  0  0  0  0
   38.5500   27.4970   36.3400 N   0  0  0  0  0  0  0  0  0  0  0  0
   37.6920   27.5950   34.1210 N   0  0  0  0  0  0  0  0  0  0  0  0
   38.8420   28.4840   36.3390 H   0  0  0  0  0  0  0  0  0  0  0  0
   39.9819   24.1885   35.0490 H   0  0  0  0  0  0  0  0  0  0  0  0
   37.7618   23.4872   39.4261 H   0  0  0  0  0  0  0  0  0  0  0  0
   40.6487   20.8025   37.8561 H   0  0  0  0  0  0  0  0  0  0  0  0
   42.7399   19.5620   37.5426 H   0  0  0  0  0  0  0  0  0  0  0  0
   44.6330   20.5418   36.2852 H   0  0  0  0  0  0  0  0  0  0  0  0
   44.3719   22.8432   35.3433 H   0  0  0  0  0  0  0  0  0  0  0  0
   42.2724   24.0711   35.6666 H   0  0  0  0  0  0  0  0  0  0  0  0
   36.8622   25.1598   34.7561 H   0  0  0  0  0  0  0  0  0  0  0  0
   37.9413   28.5896   34.0238 H   0  0  0  0  0  0  0  0  0  0  0  0
   37.2373   27.0994   33.3409 H   0  0  0  0  0  0  0  0  0  0  0  0
  1  6  2  0
  2  3  2  0
  2  1  1  0
  3  4  1  0
  4  5  2  0
  6  5  1  0
  7  1  1  0
  7  8  2  0
  9  8  1  0
 10  9  2  0
 11 12  2  0
 11 10  1  0
 12  7  1  0
 13  3  1  0
 14 13  1  0
 14 15  2  0
 16 14  1  0
 17 15  1  0
  2 18  1  0
  5 19  1  0
  8 20  1  0
  9 21  1  0
 10 22  1  0
 11 23  1  0
 12 24  1  0
 13 25  1  0
 16 26  1  0
 16 27  1  0
M  ISO  7  18  14  19  14  20  14  21  14  22  14  23  14  24  14
M  END
>  <minimizedAffinity>  (1) 
-4.95912695

>  <minimizedRMSD>  (1) 
0.894087076

$$$$
