
     RDKit          3D

 25 26  0  0  0  0  0  0  0  0999 V2000
   39.7380   23.0550   36.9620 C   0  0  0  0  0  0  0  0  0  0  0  0
   39.1770   23.8870   35.9770 C   0  0  0  0  0  0  0  0  0  0  0  0
   38.1280   24.7340   36.4200 C   0  0  0  0  0  0  0  0  0  0  0  0
   37.7540   24.6830   37.7100 N   0  0  0  0  0  0  0  0  0  0  0  0
   38.3230   23.8680   38.6170 C   0  0  0  0  0  0  0  0  0  0  0  0
   39.3180   23.0520   38.2360 N   0  0  0  0  0  0  0  0  0  0  0  0
   37.4860   25.6250   35.4930 N   0  0  0  0  0  0  0  0  0  0  0  0
   37.9540   26.9550   35.3630 C   0  0  0  0  0  0  0  0  0  0  0  0
   38.6100   27.5310   36.3290 N   0  0  0  0  0  0  0  0  0  0  0  0
   37.6670   27.6080   34.1330 N   0  0  0  0  0  0  0  0  0  0  0  0
   38.9920   28.4930   36.2690 H   0  0  0  0  0  0  0  0  0  0  0  0
   40.8230   22.1720   36.5280 C   0  0  0  0  0  0  0  0  0  0  0  0
   41.5260   21.4670   37.4620 C   0  0  0  0  0  0  0  0  0  0  0  0
   42.5320   20.6560   36.9920 C   0  0  0  0  0  0  0  0  0  0  0  0
   42.7920   20.5760   35.6840 N   0  0  0  0  0  0  0  0  0  0  0  0
   42.0850   21.2830   34.7540 C   0  0  0  0  0  0  0  0  0  0  0  0
   41.1010   22.0760   35.2150 N   0  0  0  0  0  0  0  0  0  0  0  0
   39.5273   23.8817   34.9343 H   0  0  0  0  0  0  0  0  0  0  0  0
   37.9759   23.8706   39.6608 H   0  0  0  0  0  0  0  0  0  0  0  0
   36.6903   25.2981   34.9266 H   0  0  0  0  0  0  0  0  0  0  0  0
   37.9814   28.5766   33.9786 H   0  0  0  0  0  0  0  0  0  0  0  0
   37.1447   27.1124   33.3964 H   0  0  0  0  0  0  0  0  0  0  0  0
   41.2993   21.5438   38.5356 H   0  0  0  0  0  0  0  0  0  0  0  0
   43.1302   20.0657   37.7018 H   0  0  0  0  0  0  0  0  0  0  0  0
   42.3093   21.2077   33.6797 H   0  0  0  0  0  0  0  0  0  0  0  0
  1  6  2  0
  2  3  2  0
  2  1  1  0
  3  4  1  0
  4  5  2  0
  6  5  1  0
  7  3  1  0
  8  7  1  0
  8  9  2  0
 10  8  1  0
 11  9  1  0
 12  1  1  0
 12 13  2  0
 14 13  1  0
 15 14  2  0
 16 17  2  0
 16 15  1  0
 17 12  1  0
  2 18  1  0
  5 19  1  0
  7 20  1  0
 10 21  1  0
 10 22  1  0
 13 23  1  0
 14 24  1  0
 16 25  1  0
M  ISO  5  18  14  19  14  23  14  24  14  25  14
M  END
>  <minimizedAffinity>  (1) 
-4.67094755

>  <minimizedRMSD>  (1) 
0.812142909

$$$$
