
     RDKit          3D

 26 27  0  0  0  0  0  0  0  0999 V2000
   39.7520   23.0390   37.0260 C   0  0  0  0  0  0  0  0  0  0  0  0
   39.1950   23.8650   36.0400 C   0  0  0  0  0  0  0  0  0  0  0  0
   38.1400   24.7240   36.4140 C   0  0  0  0  0  0  0  0  0  0  0  0
   37.7420   24.6880   37.6940 N   0  0  0  0  0  0  0  0  0  0  0  0
   38.2890   23.8890   38.6250 C   0  0  0  0  0  0  0  0  0  0  0  0
   39.3000   23.0590   38.2860 N   0  0  0  0  0  0  0  0  0  0  0  0
   37.5260   25.5910   35.4660 N   0  0  0  0  0  0  0  0  0  0  0  0
   37.9760   26.9410   35.3560 C   0  0  0  0  0  0  0  0  0  0  0  0
   38.6000   27.5250   36.3310 N   0  0  0  0  0  0  0  0  0  0  0  0
   37.7010   27.5950   34.1270 N   0  0  0  0  0  0  0  0  0  0  0  0
   38.9430   28.4960   36.3000 H   0  0  0  0  0  0  0  0  0  0  0  0
   40.8410   22.1660   36.5990 C   0  0  0  0  0  0  0  0  0  0  0  0
   41.5450   21.4380   37.5630 C   0  0  0  0  0  0  0  0  0  0  0  0
   42.5560   20.6330   37.1230 C   0  0  0  0  0  0  0  0  0  0  0  0
   42.8260   20.5800   35.7780 C   0  0  0  0  0  0  0  0  0  0  0  0
   42.1310   21.3010   34.8050 C   0  0  0  0  0  0  0  0  0  0  0  0
   41.1540   22.0690   35.3140 N   0  0  0  0  0  0  0  0  0  0  0  0
   39.5691   23.8442   35.0058 H   0  0  0  0  0  0  0  0  0  0  0  0
   37.9154   23.9103   39.6594 H   0  0  0  0  0  0  0  0  0  0  0  0
   36.7637   25.2469   34.8648 H   0  0  0  0  0  0  0  0  0  0  0  0
   37.9997   28.5704   33.9845 H   0  0  0  0  0  0  0  0  0  0  0  0
   37.2027   27.0943   33.3774 H   0  0  0  0  0  0  0  0  0  0  0  0
   41.2946   21.5109   38.6316 H   0  0  0  0  0  0  0  0  0  0  0  0
   43.1450   20.0362   37.8350 H   0  0  0  0  0  0  0  0  0  0  0  0
   43.6448   19.9256   35.4445 H   0  0  0  0  0  0  0  0  0  0  0  0
   42.3604   21.2456   33.7306 H   0  0  0  0  0  0  0  0  0  0  0  0
  1  6  2  0
  2  3  2  0
  2  1  1  0
  3  4  1  0
  4  5  2  0
  6  5  1  0
  7  3  1  0
  8  7  1  0
  8  9  2  0
 10  8  1  0
 11  9  1  0
 12  1  1  0
 12 13  2  0
 14 13  1  0
 15 14  2  0
 16 17  2  0
 16 15  1  0
 17 12  1  0
  2 18  1  0
  5 19  1  0
  7 20  1  0
 10 21  1  0
 10 22  1  0
 13 23  1  0
 14 24  1  0
 15 25  1  0
 16 26  1  0
M  ISO  6  18  14  19  14  23  14  24  14  25  14  26  14
M  END
>  <minimizedAffinity>  (1) 
-4.77529669

>  <minimizedRMSD>  (1) 
0.864559352

$$$$
