
     RDKit          3D

 37 38  0  0  0  0  0  0  0  0999 V2000
   38.6040   23.6030   36.8540 C   0  0  0  0  0  0  0  0  0  0  0  0
   41.8700   21.7720   36.8840 C   0  0  0  0  0  0  0  0  0  0  0  0
   40.5490   22.0850   37.1770 C   0  0  0  0  0  0  0  0  0  0  0  0
   39.9730   23.2140   36.5960 C   0  0  0  0  0  0  0  0  0  0  0  0
   40.7440   23.9670   35.7600 N   0  0  0  0  0  0  0  0  0  0  0  0
   42.0280   23.6470   35.4870 C   0  0  0  0  0  0  0  0  0  0  0  0
   42.5790   22.5430   36.0580 N   0  0  0  0  0  0  0  0  0  0  0  0
   42.4650   20.5530   37.5250 C   0  0  0  0  0  0  0  0  0  0  0  0
   43.1970   19.6940   36.5690 C   0  0  0  0  0  0  0  0  0  0  0  0
   38.3250   23.3810   38.3330 C   0  0  0  0  0  0  0  0  0  0  0  0
   38.2920   25.0450   36.5010 C   0  0  0  0  0  0  0  0  0  0  0  0
   37.6690   22.7280   36.0560 C   0  0  0  0  0  0  0  0  0  0  0  0
   37.9170   22.7940   34.6490 N   0  0  0  0  0  0  0  0  0  0  0  0
   38.3890   21.8540   33.7990 C   0  0  0  0  0  0  0  0  0  0  0  0
   38.4580   22.3750   32.5450 N   0  0  0  0  0  0  0  0  0  0  0  0
   38.0300   23.6320   32.6280 C   0  0  0  0  0  0  0  0  0  0  0  0
   37.7060   23.8730   33.8980 N   0  0  0  0  0  0  0  0  0  0  0  0
   37.9190   24.6130   31.5280 C   0  0  0  0  0  0  0  0  0  0  0  0
   38.4240   25.7640   31.5880 O   0  0  0  0  0  0  0  0  0  0  0  0
   37.2340   24.2840   30.3650 O   0  0  0  0  0  0  0  0  0  0  0  0
   39.9644   21.4501   37.8590 H   0  0  0  0  0  0  0  0  0  0  0  0
   42.6231   24.2751   34.8078 H   0  0  0  0  0  0  0  0  0  0  0  0
   43.1633   20.8762   38.3110 H   0  0  0  0  0  0  0  0  0  0  0  0
   41.6344   19.9575   37.9318 H   0  0  0  0  0  0  0  0  0  0  0  0
   43.8132   18.9708   37.1233 H   0  0  0  0  0  0  0  0  0  0  0  0
   42.4775   19.1536   35.9363 H   0  0  0  0  0  0  0  0  0  0  0  0
   43.8447   20.3187   35.9363 H   0  0  0  0  0  0  0  0  0  0  0  0
   39.0467   23.9552   38.9325 H   0  0  0  0  0  0  0  0  0  0  0  0
   37.3041   23.7164   38.5679 H   0  0  0  0  0  0  0  0  0  0  0  0
   38.4225   22.3108   38.5679 H   0  0  0  0  0  0  0  0  0  0  0  0
   38.1656   25.6294   37.4243 H   0  0  0  0  0  0  0  0  0  0  0  0
   39.1199   25.4655   35.9114 H   0  0  0  0  0  0  0  0  0  0  0  0
   37.3643   25.0857   35.9114 H   0  0  0  0  0  0  0  0  0  0  0  0
   37.7937   21.6863   36.3868 H   0  0  0  0  0  0  0  0  0  0  0  0
   36.6451   23.0905   36.2302 H   0  0  0  0  0  0  0  0  0  0  0  0
   38.6727   20.8286   34.0784 H   0  0  0  0  0  0  0  0  0  0  0  0
   36.8193   23.3900   30.2709 H   0  0  0  0  0  0  0  0  0  0  0  0
  1 10  1  0
  2  3  2  0
  2  8  1  0
  4  1  1  0
  4  3  1  0
  5  4  2  0
  6  5  1  0
  6  7  2  0
  7  2  1  0
  9  8  1  0
 11  1  1  0
 12  1  1  0
 13 12  1  0
 14 13  1  0
 15 16  1  0
 15 14  2  0
 16 17  2  0
 17 13  1  0
 18 19  2  0
 18 16  1  0
 20 18  1  0
  3 21  1  0
  6 22  1  0
  8 23  1  0
  8 24  1  0
  9 25  1  0
  9 26  1  0
  9 27  1  0
 10 28  1  0
 10 29  1  0
 10 30  1  0
 11 31  1  0
 11 32  1  0
 11 33  1  0
 12 34  1  0
 12 35  1  0
 14 36  1  0
 20 37  1  0
M  ISO  8  21  14  22  14  23   8  24   8  25   8  26   8  27   8  28   8
M  ISO  8  29   8  30   8  31   8  32   8  33   8  34   8  35   8  36  14
M  ISO  1  37   3
M  END
>  <minimizedAffinity>  (1) 
-4.31734896

>  <minimizedRMSD>  (1) 
0.43968147

$$$$
