
     RDKit          3D

 20 21  0  0  0  0  0  0  0  0999 V2000
   37.9390   26.2200   35.8090 C   0  0  0  0  0  0  0  0  0  0  0  0
   38.4100   26.8880   36.7480 O   0  0  0  0  0  0  0  0  0  0  0  0
   37.6930   26.8740   34.5170 C   0  0  0  0  0  0  0  0  0  0  0  0
   38.5890   26.6320   33.4750 C   0  0  0  0  0  0  0  0  0  0  0  0
   38.3570   27.2550   32.2420 C   0  0  0  0  0  0  0  0  0  0  0  0
   37.2740   28.0540   32.1460 N   0  0  0  0  0  0  0  0  0  0  0  0
   36.4310   28.2720   33.1570 C   0  0  0  0  0  0  0  0  0  0  0  0
   36.6210   27.6900   34.3560 N   0  0  0  0  0  0  0  0  0  0  0  0
   37.6380   24.8750   35.9500 O   0  0  0  0  0  0  0  0  0  0  0  0
   38.9390   22.9170   38.5740 N   0  0  0  0  0  0  0  0  0  0  0  0
   38.0310   23.7160   38.0240 N   0  0  0  0  0  0  0  0  0  0  0  0
   38.4300   24.0340   36.7580 C   0  0  0  0  0  0  0  0  0  0  0  0
   39.6370   23.4100   36.5030 C   0  0  0  0  0  0  0  0  0  0  0  0
   39.9180   22.7230   37.6680 C   0  0  0  0  0  0  0  0  0  0  0  0
   39.4551   25.9691   33.6181 H   0  0  0  0  0  0  0  0  0  0  0  0
   39.0306   27.0991   31.3865 H   0  0  0  0  0  0  0  0  0  0  0  0
   35.5677   28.9373   33.0086 H   0  0  0  0  0  0  0  0  0  0  0  0
   38.9015   22.5175   39.5226 H   0  0  0  0  0  0  0  0  0  0  0  0
   40.2370   23.4512   35.5820 H   0  0  0  0  0  0  0  0  0  0  0  0
   40.8133   22.1055   37.8329 H   0  0  0  0  0  0  0  0  0  0  0  0
  1  9  1  0
  1  2  2  0
  3  1  1  0
  4  3  2  0
  5  4  1  0
  6  5  2  0
  6  7  1  0
  7  8  2  0
  8  3  1  0
  9 12  1  0
 11 10  1  0
 12 11  2  0
 13 12  1  0
 13 14  2  0
 14 10  1  0
  4 15  1  0
  5 16  1  0
  7 17  1  0
 10 18  1  0
 13 19  1  0
 14 20  1  0
M  ISO  6  15  14  16  14  17  14  18   9  19  14  20  14
M  END
>  <minimizedAffinity>  (1) 
-4.12493753

>  <minimizedRMSD>  (1) 
4.21405172

$$$$
