
     RDKit          3D

 26 26  0  0  0  0  0  0  0  0999 V2000
   40.1160   23.1260   36.8630 C   0  0  0  0  0  0  0  0  0  0  0  0
   39.4580   23.9800   35.9670 C   0  0  0  0  0  0  0  0  0  0  0  0
   38.3050   24.6280   36.4240 C   0  0  0  0  0  0  0  0  0  0  0  0
   37.8620   24.4180   37.6950 N   0  0  0  0  0  0  0  0  0  0  0  0
   38.5370   23.5790   38.5260 C   0  0  0  0  0  0  0  0  0  0  0  0
   39.6500   22.9390   38.1230 N   0  0  0  0  0  0  0  0  0  0  0  0
   37.5620   25.5200   35.5800 N   0  0  0  0  0  0  0  0  0  0  0  0
   37.9070   26.9000   35.5500 C   0  0  0  0  0  0  0  0  0  0  0  0
   38.5480   27.4580   36.5220 N   0  0  0  0  0  0  0  0  0  0  0  0
   37.5090   27.6290   34.3960 N   0  0  0  0  0  0  0  0  0  0  0  0
   38.7970   28.4610   36.5590 H   0  0  0  0  0  0  0  0  0  0  0  0
   41.3320   22.4430   36.3860 C   0  0  0  0  0  0  0  0  0  0  0  0
   42.4970   23.3600   36.1820 C   0  0  0  0  0  0  0  0  0  0  0  0
   41.6380   21.3010   37.3420 C   0  0  0  0  0  0  0  0  0  0  0  0
   39.8333   24.1347   34.9447 H   0  0  0  0  0  0  0  0  0  0  0  0
   38.1652   23.4203   39.5490 H   0  0  0  0  0  0  0  0  0  0  0  0
   36.7870   25.1648   35.0020 H   0  0  0  0  0  0  0  0  0  0  0  0
   37.7312   28.6317   34.3183 H   0  0  0  0  0  0  0  0  0  0  0  0
   36.9985   27.1544   33.6377 H   0  0  0  0  0  0  0  0  0  0  0  0
   41.1412   22.0422   35.3796 H   0  0  0  0  0  0  0  0  0  0  0  0
   42.8935   23.6721   37.1594 H   0  0  0  0  0  0  0  0  0  0  0  0
   43.2824   22.8352   35.6183 H   0  0  0  0  0  0  0  0  0  0  0  0
   42.1714   24.2467   35.6183 H   0  0  0  0  0  0  0  0  0  0  0  0
   41.5430   21.6555   38.3790 H   0  0  0  0  0  0  0  0  0  0  0  0
   40.9286   20.4782   37.1693 H   0  0  0  0  0  0  0  0  0  0  0  0
   42.6637   20.9431   37.1693 H   0  0  0  0  0  0  0  0  0  0  0  0
  1  6  2  0
  2  3  2  0
  2  1  1  0
  3  4  1  0
  4  5  2  0
  6  5  1  0
  7  3  1  0
  8  7  1  0
  8  9  2  0
  9 11  1  0
 10  8  1  0
 12  1  1  0
 12 14  1  0
 13 12  1  0
  2 15  1  0
  5 16  1  0
  7 17  1  0
 10 18  1  0
 10 19  1  0
 12 20  1  0
 13 21  1  0
 13 22  1  0
 13 23  1  0
 14 24  1  0
 14 25  1  0
 14 26  1  0
M  ISO  8  15  14  16  14  20   8  21   8  22   8  23   8  24   8  25   8
M  ISO  1  26   8
M  END
>  <minimizedAffinity>  (1) 
-4.31043339

>  <minimizedRMSD>  (1) 
0.554604113

$$$$
