
     RDKit          3D

 20 20  0  0  0  0  0  0  0  0999 V2000
   40.0130   23.0680   36.7280 C   0  0  0  0  0  0  0  0  0  0  0  0
   39.3150   23.9510   35.8720 C   0  0  0  0  0  0  0  0  0  0  0  0
   38.2350   24.6730   36.4360 C   0  0  0  0  0  0  0  0  0  0  0  0
   37.9490   24.4670   37.7420 N   0  0  0  0  0  0  0  0  0  0  0  0
   38.6340   23.6190   38.5270 C   0  0  0  0  0  0  0  0  0  0  0  0
   39.6560   22.9280   38.0210 N   0  0  0  0  0  0  0  0  0  0  0  0
   37.4930   25.5770   35.6280 N   0  0  0  0  0  0  0  0  0  0  0  0
   37.8710   26.9450   35.5710 C   0  0  0  0  0  0  0  0  0  0  0  0
   38.5940   27.4820   36.4930 N   0  0  0  0  0  0  0  0  0  0  0  0
   37.4120   27.6740   34.4520 N   0  0  0  0  0  0  0  0  0  0  0  0
   38.9170   28.4750   36.4790 H   0  0  0  0  0  0  0  0  0  0  0  0
   41.1510   22.3140   36.1200 C   0  0  0  0  0  0  0  0  0  0  0  0
   39.5980   24.0716   34.8159 H   0  0  0  0  0  0  0  0  0  0  0  0
   38.3529   23.4951   39.5832 H   0  0  0  0  0  0  0  0  0  0  0  0
   36.6842   25.2412   35.0858 H   0  0  0  0  0  0  0  0  0  0  0  0
   37.6524   28.6706   34.3527 H   0  0  0  0  0  0  0  0  0  0  0  0
   36.8369   27.2091   33.7351 H   0  0  0  0  0  0  0  0  0  0  0  0
   41.7820   21.8959   36.9182 H   0  0  0  0  0  0  0  0  0  0  0  0
   40.7583   21.4968   35.4971 H   0  0  0  0  0  0  0  0  0  0  0  0
   41.7504   22.9942   35.4971 H   0  0  0  0  0  0  0  0  0  0  0  0
  1  6  2  0
  2  3  2  0
  2  1  1  0
  3  4  1  0
  4  5  2  0
  6  5  1  0
  7  3  1  0
  8  7  1  0
  8  9  2  0
 10  8  1  0
 11  9  1  0
 12  1  1  0
  2 13  1  0
  5 14  1  0
  7 15  1  0
 10 16  1  0
 10 17  1  0
 12 18  1  0
 12 19  1  0
 12 20  1  0
M  ISO  5  13  14  14  14  18   8  19   8  20   8
M  END
>  <minimizedAffinity>  (1) 
-3.83657908

>  <minimizedRMSD>  (1) 
0.172521517

$$$$
