
     RDKit          3D

 18 18  0  0  0  0  0  0  0  0999 V2000
   39.8750   22.9860   36.7740 C   0  0  0  0  0  0  0  0  0  0  0  0
   39.1880   23.8680   35.9120 C   0  0  0  0  0  0  0  0  0  0  0  0
   38.1840   24.6740   36.4640 C   0  0  0  0  0  0  0  0  0  0  0  0
   37.9200   24.5670   37.8000 N   0  0  0  0  0  0  0  0  0  0  0  0
   38.6020   23.7130   38.5790 C   0  0  0  0  0  0  0  0  0  0  0  0
   39.5760   22.9200   38.0880 N   0  0  0  0  0  0  0  0  0  0  0  0
   37.4580   25.5810   35.6440 N   0  0  0  0  0  0  0  0  0  0  0  0
   37.8720   26.9390   35.5630 C   0  0  0  0  0  0  0  0  0  0  0  0
   38.6110   27.4780   36.4790 N   0  0  0  0  0  0  0  0  0  0  0  0
   37.4350   27.6720   34.4340 N   0  0  0  0  0  0  0  0  0  0  0  0
   38.9470   28.4560   36.4540 H   0  0  0  0  0  0  0  0  0  0  0  0
   40.8720   22.1840   36.2350 O   0  0  0  0  0  0  0  0  0  0  0  0
   39.4333   23.9207   34.8410 H   0  0  0  0  0  0  0  0  0  0  0  0
   38.3591   23.6582   39.6505 H   0  0  0  0  0  0  0  0  0  0  0  0
   36.6377   25.2565   35.1123 H   0  0  0  0  0  0  0  0  0  0  0  0
   37.7057   28.6598   34.3250 H   0  0  0  0  0  0  0  0  0  0  0  0
   36.8463   27.2177   33.7213 H   0  0  0  0  0  0  0  0  0  0  0  0
   41.0842   22.2396   35.2696 H   0  0  0  0  0  0  0  0  0  0  0  0
  1  6  2  0
  2  3  2  0
  2  1  1  0
  3  4  1  0
  4  5  2  0
  6  5  1  0
  7  3  1  0
  8  7  1  0
  8  9  2  0
 10  8  1  0
 11  9  1  0
 12  1  1  0
  2 13  1  0
  5 14  1  0
  7 15  1  0
 10 16  1  0
 10 17  1  0
 12 18  1  0
M  ISO  3  13  14  14  14  18   3
M  END
>  <minimizedAffinity>  (1) 
-3.7662611

>  <minimizedRMSD>  (1) 
0.26453656

$$$$
