
     RDKit          3D

 36 39  0  0  0  0  0  0  0  0999 V2000
   39.9060   22.6070   38.3700 N   0  0  0  0  0  0  0  0  0  0  0  0
   38.7770   23.2890   38.1980 N   0  0  0  0  0  0  0  0  0  0  0  0
   38.7170   23.7260   36.9210 C   0  0  0  0  0  0  0  0  0  0  0  0
   39.8610   23.2820   36.3140 C   0  0  0  0  0  0  0  0  0  0  0  0
   40.5850   22.5900   37.2390 C   0  0  0  0  0  0  0  0  0  0  0  0
   41.8820   22.0910   36.8230 C   0  0  0  0  0  0  0  0  0  0  0  0
   42.0880   20.7190   36.6210 C   0  0  0  0  0  0  0  0  0  0  0  0
   43.2610   20.1350   36.2160 C   0  0  0  0  0  0  0  0  0  0  0  0
   44.3590   20.9200   35.9740 C   0  0  0  0  0  0  0  0  0  0  0  0
   44.2320   22.2550   36.1460 C   0  0  0  0  0  0  0  0  0  0  0  0
   45.3370   23.0280   35.8670 C   0  0  0  0  0  0  0  0  0  0  0  0
   45.3050   24.3930   35.9780 C   0  0  0  0  0  0  0  0  0  0  0  0
   44.0980   24.9700   36.3860 C   0  0  0  0  0  0  0  0  0  0  0  0
   43.0360   24.1420   36.6480 C   0  0  0  0  0  0  0  0  0  0  0  0
   43.0340   22.7790   36.5520 C   0  0  0  0  0  0  0  0  0  0  0  0
   37.6510   24.4820   36.4040 O   0  0  0  0  0  0  0  0  0  0  0  0
   37.8830   25.7810   35.9370 C   0  0  0  0  0  0  0  0  0  0  0  0
   38.3890   26.6790   36.6560 O   0  0  0  0  0  0  0  0  0  0  0  0
   37.5210   26.1030   34.5560 C   0  0  0  0  0  0  0  0  0  0  0  0
   37.7860   25.1430   33.5630 C   0  0  0  0  0  0  0  0  0  0  0  0
   37.4440   25.4410   32.2390 C   0  0  0  0  0  0  0  0  0  0  0  0
   36.8770   26.6440   32.0060 N   0  0  0  0  0  0  0  0  0  0  0  0
   36.6330   27.5450   32.9700 C   0  0  0  0  0  0  0  0  0  0  0  0
   36.9470   27.2980   34.2600 N   0  0  0  0  0  0  0  0  0  0  0  0
   40.2038   22.1614   39.2496 H   0  0  0  0  0  0  0  0  0  0  0  0
   40.1457   23.4533   35.2654 H   0  0  0  0  0  0  0  0  0  0  0  0
   41.2328   20.0516   36.8036 H   0  0  0  0  0  0  0  0  0  0  0  0
   43.3206   19.0443   36.0862 H   0  0  0  0  0  0  0  0  0  0  0  0
   45.3127   20.4777   35.6503 H   0  0  0  0  0  0  0  0  0  0  0  0
   46.2681   22.5374   35.5472 H   0  0  0  0  0  0  0  0  0  0  0  0
   46.1895   25.0081   35.7561 H   0  0  0  0  0  0  0  0  0  0  0  0
   44.0026   26.0605   36.4941 H   0  0  0  0  0  0  0  0  0  0  0  0
   42.0977   24.6205   36.9652 H   0  0  0  0  0  0  0  0  0  0  0  0
   38.2513   24.1802   33.8210 H   0  0  0  0  0  0  0  0  0  0  0  0
   37.6291   24.7262   31.4236 H   0  0  0  0  0  0  0  0  0  0  0  0
   36.1673   28.5053   32.7038 H   0  0  0  0  0  0  0  0  0  0  0  0
  2  1  1  0
  3  2  2  0
  4  3  1  0
  4  5  2  0
  5  1  1  0
  6  5  1  0
  7  6  2  0
  8  7  1  0
  9 10  1  0
  9  8  2  0
 10 15  2  0
 11 12  2  0
 11 10  1  0
 12 13  1  0
 13 14  2  0
 15 14  1  0
 15  6  1  0
 16  3  1  0
 17 16  1  0
 17 18  2  0
 19 17  1  0
 20 19  2  0
 21 20  1  0
 22 21  2  0
 22 23  1  0
 23 24  2  0
 24 19  1  0
  1 25  1  0
  4 26  1  0
  7 27  1  0
  8 28  1  0
  9 29  1  0
 11 30  1  0
 12 31  1  0
 13 32  1  0
 14 33  1  0
 20 34  1  0
 21 35  1  0
 23 36  1  0
M  ISO  8  25   9  26  14  27  14  28  14  29  14  30  14  31  14  32  14
M  ISO  4  33  14  34  14  35  14  36  14
M  END
>  <minimizedAffinity>  (1) 
-5.94225407

>  <minimizedRMSD>  (1) 
1.38178766

$$$$
