
     RDKit          3D

 34 37  0  0  0  0  0  0  0  0999 V2000
   40.0020   22.4760   37.9120 N   0  0  0  0  0  0  0  0  0  0  0  0
   38.8320   23.0940   37.8120 N   0  0  0  0  0  0  0  0  0  0  0  0
   38.8290   23.8410   36.6680 C   0  0  0  0  0  0  0  0  0  0  0  0
   40.0370   23.6840   36.0340 C   0  0  0  0  0  0  0  0  0  0  0  0
   40.7460   22.8260   36.8360 C   0  0  0  0  0  0  0  0  0  0  0  0
   42.0620   22.3690   36.5840 N   0  0  0  0  0  0  0  0  0  0  0  0
   42.4580   21.0770   36.4260 C   0  0  0  0  0  0  0  0  0  0  0  0
   43.7890   21.0250   36.2000 N   0  0  0  0  0  0  0  0  0  0  0  0
   44.2500   22.2910   36.2110 C   0  0  0  0  0  0  0  0  0  0  0  0
   45.5650   22.7250   36.0210 C   0  0  0  0  0  0  0  0  0  0  0  0
   46.4960   21.9040   35.8080 O   0  0  0  0  0  0  0  0  0  0  0  0
   45.7320   24.0610   36.0870 N   0  0  0  0  0  0  0  0  0  0  0  0
   44.6930   24.8920   36.3190 C   0  0  0  0  0  0  0  0  0  0  0  0
   45.0670   26.2680   36.3530 N   0  0  0  0  0  0  0  0  0  0  0  0
   43.4320   24.4260   36.4980 N   0  0  0  0  0  0  0  0  0  0  0  0
   43.1780   23.1050   36.4480 C   0  0  0  0  0  0  0  0  0  0  0  0
   37.6910   24.6020   36.3230 O   0  0  0  0  0  0  0  0  0  0  0  0
   37.8280   25.9370   35.9450 C   0  0  0  0  0  0  0  0  0  0  0  0
   38.3230   26.7940   36.6840 O   0  0  0  0  0  0  0  0  0  0  0  0
   37.3600   26.3300   34.6110 C   0  0  0  0  0  0  0  0  0  0  0  0
   37.4650   25.4060   33.5630 C   0  0  0  0  0  0  0  0  0  0  0  0
   37.0220   25.7730   32.2920 C   0  0  0  0  0  0  0  0  0  0  0  0
   36.5170   27.0060   32.1510 N   0  0  0  0  0  0  0  0  0  0  0  0
   36.4170   27.8880   33.1600 C   0  0  0  0  0  0  0  0  0  0  0  0
   36.8370   27.5550   34.3900 N   0  0  0  0  0  0  0  0  0  0  0  0
   40.2921   21.8437   38.6716 H   0  0  0  0  0  0  0  0  0  0  0  0
   40.3642   24.1450   35.0904 H   0  0  0  0  0  0  0  0  0  0  0  0
   41.7921   20.2028   36.4751 H   0  0  0  0  0  0  0  0  0  0  0  0
   46.6739   24.4572   35.9575 H   0  0  0  0  0  0  0  0  0  0  0  0
   44.3538   26.9915   36.5230 H   0  0  0  0  0  0  0  0  0  0  0  0
   46.0502   26.5382   36.2076 H   0  0  0  0  0  0  0  0  0  0  0  0
   37.8900   24.4069   33.7396 H   0  0  0  0  0  0  0  0  0  0  0  0
   37.0847   25.0789   31.4410 H   0  0  0  0  0  0  0  0  0  0  0  0
   35.9899   28.8851   32.9771 H   0  0  0  0  0  0  0  0  0  0  0  0
  2  1  1  0
  3  2  2  0
  4  3  1  0
  4  5  2  0
  5  1  1  0
  6  5  1  0
  7  6  1  0
  8  9  1  0
  8  7  2  0
  9 16  2  0
 10 12  1  0
 10  9  1  0
 11 10  2  0
 12 13  1  0
 13 14  1  0
 13 15  2  0
 16 15  1  0
 16  6  1  0
 17  3  1  0
 18 17  1  0
 18 19  2  0
 20 18  1  0
 21 20  2  0
 22 21  1  0
 23 22  2  0
 23 24  1  0
 24 25  2  0
 25 20  1  0
  1 26  1  0
  4 27  1  0
  7 28  1  0
 12 29  1  0
 14 30  1  0
 14 31  1  0
 21 32  1  0
 22 33  1  0
 24 34  1  0
M  ISO  7  26   9  27  14  28  14  29   9  32  14  33  14  34  14
M  END
>  <minimizedAffinity>  (1) 
-5.49325657

>  <minimizedRMSD>  (1) 
1.84007537

$$$$
