
     RDKit          3D

 35 37  0  0  0  0  0  0  0  0999 V2000
   39.7210   22.5950   38.3080 N   0  0  0  0  0  0  0  0  0  0  0  0
   38.6090   23.2500   38.0280 N   0  0  0  0  0  0  0  0  0  0  0  0
   38.7020   23.8080   36.7980 C   0  0  0  0  0  0  0  0  0  0  0  0
   39.9410   23.4790   36.2930 C   0  0  0  0  0  0  0  0  0  0  0  0
   40.5510   22.7200   37.2640 C   0  0  0  0  0  0  0  0  0  0  0  0
   41.8660   22.2140   37.0460 N   0  0  0  0  0  0  0  0  0  0  0  0
   42.9840   22.9400   36.4700 C   0  0  0  0  0  0  0  0  0  0  0  0
   43.0760   22.4300   35.0260 C   0  0  0  0  0  0  0  0  0  0  0  0
   42.4670   21.0380   34.9180 C   0  0  0  0  0  0  0  0  0  0  0  0
   42.8850   20.2640   36.1640 C   0  0  0  0  0  0  0  0  0  0  0  0
   42.2400   20.8550   37.3960 C   0  0  0  0  0  0  0  0  0  0  0  0
   37.6660   24.5660   36.2350 O   0  0  0  0  0  0  0  0  0  0  0  0
   37.8400   25.9060   35.9270 C   0  0  0  0  0  0  0  0  0  0  0  0
   38.3810   26.6860   36.7180 O   0  0  0  0  0  0  0  0  0  0  0  0
   37.3660   26.4030   34.6280 C   0  0  0  0  0  0  0  0  0  0  0  0
   37.4550   25.5580   33.5240 C   0  0  0  0  0  0  0  0  0  0  0  0
   37.0030   26.0300   32.2820 C   0  0  0  0  0  0  0  0  0  0  0  0
   36.5080   27.2850   32.2460 N   0  0  0  0  0  0  0  0  0  0  0  0
   36.4340   28.0710   33.3090 C   0  0  0  0  0  0  0  0  0  0  0  0
   36.8570   27.6570   34.5240 N   0  0  0  0  0  0  0  0  0  0  0  0
   39.9161   22.0782   39.1774 H   0  0  0  0  0  0  0  0  0  0  0  0
   40.3564   23.7645   35.3152 H   0  0  0  0  0  0  0  0  0  0  0  0
   42.7936   24.0233   36.4876 H   0  0  0  0  0  0  0  0  0  0  0  0
   43.9176   22.7788   37.0289 H   0  0  0  0  0  0  0  0  0  0  0  0
   42.5304   23.1174   34.3628 H   0  0  0  0  0  0  0  0  0  0  0  0
   44.1343   22.3819   34.7299 H   0  0  0  0  0  0  0  0  0  0  0  0
   41.3704   21.1093   34.8690 H   0  0  0  0  0  0  0  0  0  0  0  0
   42.8158   20.5291   34.0073 H   0  0  0  0  0  0  0  0  0  0  0  0
   42.5724   19.2145   36.0599 H   0  0  0  0  0  0  0  0  0  0  0  0
   43.9781   20.3256   36.2707 H   0  0  0  0  0  0  0  0  0  0  0  0
   42.9523   20.8595   38.2343 H   0  0  0  0  0  0  0  0  0  0  0  0
   41.3652   20.2673   37.7112 H   0  0  0  0  0  0  0  0  0  0  0  0
   37.8700   24.5442   33.6235 H   0  0  0  0  0  0  0  0  0  0  0  0
   37.0501   25.4049   31.3781 H   0  0  0  0  0  0  0  0  0  0  0  0
   36.0188   29.0839   33.2007 H   0  0  0  0  0  0  0  0  0  0  0  0
  2  1  1  0
  3  2  2  0
  4  3  1  0
  4  5  2  0
  5  1  1  0
  6  5  1  0
  6 11  1  0
  7  6  1  0
  8  7  1  0
  9  8  1  0
  9 10  1  0
 10 11  1  0
 12  3  1  0
 13 12  1  0
 13 14  2  0
 15 13  1  0
 16 15  2  0
 17 16  1  0
 18 17  2  0
 18 19  1  0
 19 20  2  0
 20 15  1  0
  1 21  1  0
  4 22  1  0
  7 23  1  0
  7 24  1  0
  8 25  1  0
  8 26  1  0
  9 27  1  0
  9 28  1  0
 10 29  1  0
 10 30  1  0
 11 31  1  0
 11 32  1  0
 16 33  1  0
 17 34  1  0
 19 35  1  0
M  ISO  8  21   9  22  14  23  13  24  13  25  13  26  13  27  13  28  13
M  ISO  7  29  13  30  13  31  13  32  13  33  14  34  14  35  14
M  END
>  <minimizedAffinity>  (1) 
-4.96007013

>  <minimizedRMSD>  (1) 
1.02042747

$$$$
