
     RDKit          3D

 27 29  0  0  0  0  0  0  0  0999 V2000
   37.5470   24.8480   36.4890 O   0  0  0  0  0  0  0  0  0  0  0  0
   39.5890   22.6060   38.2690 N   0  0  0  0  0  0  0  0  0  0  0  0
   38.5820   23.4550   38.1720 N   0  0  0  0  0  0  0  0  0  0  0  0
   38.5310   23.9200   36.8850 C   0  0  0  0  0  0  0  0  0  0  0  0
   39.5450   23.3330   36.1680 C   0  0  0  0  0  0  0  0  0  0  0  0
   40.1900   22.5110   37.0770 C   0  0  0  0  0  0  0  0  0  0  0  0
   41.3170   21.6940   36.7790 N   0  0  0  0  0  0  0  0  0  0  0  0
   41.8960   21.5360   35.5640 C   0  0  0  0  0  0  0  0  0  0  0  0
   42.9600   20.6590   35.7140 C   0  0  0  0  0  0  0  0  0  0  0  0
   43.0160   20.2950   37.0190 N   0  0  0  0  0  0  0  0  0  0  0  0
   42.0140   20.9320   37.6430 C   0  0  0  0  0  0  0  0  0  0  0  0
   37.8860   26.0350   35.8730 C   0  0  0  0  0  0  0  0  0  0  0  0
   38.5720   26.9000   36.4580 O   0  0  0  0  0  0  0  0  0  0  0  0
   37.4370   26.2980   34.5060 C   0  0  0  0  0  0  0  0  0  0  0  0
   37.6020   25.2760   33.5600 C   0  0  0  0  0  0  0  0  0  0  0  0
   37.1740   25.5240   32.2470 C   0  0  0  0  0  0  0  0  0  0  0  0
   36.6290   26.7380   31.9930 N   0  0  0  0  0  0  0  0  0  0  0  0
   36.4840   27.6880   32.9080 C   0  0  0  0  0  0  0  0  0  0  0  0
   36.8790   27.4970   34.1770 N   0  0  0  0  0  0  0  0  0  0  0  0
   39.8663   22.1000   39.1222 H   0  0  0  0  0  0  0  0  0  0  0  0
   39.7905   23.4828   35.1063 H   0  0  0  0  0  0  0  0  0  0  0  0
   41.5790   22.0170   34.6269 H   0  0  0  0  0  0  0  0  0  0  0  0
   43.6375   20.3194   34.9167 H   0  0  0  0  0  0  0  0  0  0  0  0
   41.7915   20.8437   38.7166 H   0  0  0  0  0  0  0  0  0  0  0  0
   38.0522   24.3117   33.8382 H   0  0  0  0  0  0  0  0  0  0  0  0
   37.2766   24.7650   31.4575 H   0  0  0  0  0  0  0  0  0  0  0  0
   36.0321   28.6492   32.6218 H   0  0  0  0  0  0  0  0  0  0  0  0
  1  4  1  0
  3  2  1  0
  4  3  2  0
  5  4  1  0
  5  6  2  0
  6  2  1  0
  7  6  1  0
  7 11  1  0
  8  9  2  0
  8  7  1  0
  9 10  1  0
 10 11  2  0
 12 13  2  0
 12  1  1  0
 14 12  1  0
 15 14  2  0
 16 15  1  0
 17 16  2  0
 17 18  1  0
 18 19  2  0
 19 14  1  0
  2 20  1  0
  5 21  1  0
  8 22  1  0
  9 23  1  0
 11 24  1  0
 15 25  1  0
 16 26  1  0
 18 27  1  0
M  ISO  8  20   9  21  14  22  14  23  14  24  14  25  14  26  14  27  14
M  END
>  <minimizedAffinity>  (1) 
-4.78611088

>  <minimizedRMSD>  (1) 
1.14592314

$$$$
