
     RDKit          3D

 29 30  0  0  0  0  0  0  0  0999 V2000
   37.8690   25.9620   35.9280 C   0  0  0  0  0  0  0  0  0  0  0  0
   38.4260   26.8530   36.5780 O   0  0  0  0  0  0  0  0  0  0  0  0
   37.4350   26.2280   34.5430 C   0  0  0  0  0  0  0  0  0  0  0  0
   37.5990   25.2190   33.5980 C   0  0  0  0  0  0  0  0  0  0  0  0
   37.1830   25.4780   32.2850 C   0  0  0  0  0  0  0  0  0  0  0  0
   36.6500   26.7010   32.0340 N   0  0  0  0  0  0  0  0  0  0  0  0
   36.5060   27.6440   32.9570 C   0  0  0  0  0  0  0  0  0  0  0  0
   36.8960   27.4250   34.2290 N   0  0  0  0  0  0  0  0  0  0  0  0
   37.6470   24.7180   36.4750 O   0  0  0  0  0  0  0  0  0  0  0  0
   39.8270   22.5050   38.1180 N   0  0  0  0  0  0  0  0  0  0  0  0
   38.7390   23.2590   38.0410 N   0  0  0  0  0  0  0  0  0  0  0  0
   38.7130   23.8550   36.8120 C   0  0  0  0  0  0  0  0  0  0  0  0
   39.8210   23.4600   36.1040 C   0  0  0  0  0  0  0  0  0  0  0  0
   40.5000   22.6100   36.9550 C   0  0  0  0  0  0  0  0  0  0  0  0
   41.7780   21.9590   36.5510 C   0  0  0  0  0  0  0  0  0  0  0  0
   42.0860   20.9200   37.6200 C   0  0  0  0  0  0  0  0  0  0  0  0
   42.9260   22.9490   36.5570 C   0  0  0  0  0  0  0  0  0  0  0  0
   38.0408   24.2499   33.8729 H   0  0  0  0  0  0  0  0  0  0  0  0
   37.2841   24.7226   31.4918 H   0  0  0  0  0  0  0  0  0  0  0  0
   36.0644   28.6131   32.6816 H   0  0  0  0  0  0  0  0  0  0  0  0
   40.1097   21.9359   38.9286 H   0  0  0  0  0  0  0  0  0  0  0  0
   40.1055   23.7555   35.0833 H   0  0  0  0  0  0  0  0  0  0  0  0
   41.6726   21.5377   35.5404 H   0  0  0  0  0  0  0  0  0  0  0  0
   41.9532   21.3680   38.6158 H   0  0  0  0  0  0  0  0  0  0  0  0
   41.4026   20.0653   37.5083 H   0  0  0  0  0  0  0  0  0  0  0  0
   43.1248   20.5759   37.5083 H   0  0  0  0  0  0  0  0  0  0  0  0
   43.2006   23.1858   37.5955 H   0  0  0  0  0  0  0  0  0  0  0  0
   43.7918   22.5096   36.0399 H   0  0  0  0  0  0  0  0  0  0  0  0
   42.6187   23.8700   36.0399 H   0  0  0  0  0  0  0  0  0  0  0  0
  1  9  1  0
  1  2  2  0
  3  1  1  0
  4  3  2  0
  5  4  1  0
  6  5  2  0
  6  7  1  0
  7  8  2  0
  8  3  1  0
  9 12  1  0
 11 10  1  0
 12 11  2  0
 13 12  1  0
 13 14  2  0
 14 10  1  0
 15 17  1  0
 15 14  1  0
 15 16  1  0
  4 18  1  0
  5 19  1  0
  7 20  1  0
 10 21  1  0
 13 22  1  0
 15 23  1  0
 16 24  1  0
 16 25  1  0
 16 26  1  0
 17 27  1  0
 17 28  1  0
 17 29  1  0
M  ISO  8  18  14  19  14  20  14  21   9  22  14  23   8  24   8  25   8
M  ISO  4  26   8  27   8  28   8  29   8
M  END
>  <minimizedAffinity>  (1) 
-4.74605989

>  <minimizedRMSD>  (1) 
1.13000536

$$$$
