
     RDKit          3D

 26 27  0  0  0  0  0  0  0  0999 V2000
   37.8080   26.1690   35.8560 C   0  0  0  0  0  0  0  0  0  0  0  0
   38.6310   26.8810   36.4790 O   0  0  0  0  0  0  0  0  0  0  0  0
   37.2760   26.6440   34.5720 C   0  0  0  0  0  0  0  0  0  0  0  0
   37.3380   25.7810   33.4890 C   0  0  0  0  0  0  0  0  0  0  0  0
   36.8320   26.2270   32.2610 C   0  0  0  0  0  0  0  0  0  0  0  0
   36.3180   27.4750   32.2210 N   0  0  0  0  0  0  0  0  0  0  0  0
   36.2760   28.2760   33.2760 C   0  0  0  0  0  0  0  0  0  0  0  0
   36.7480   27.9000   34.4890 N   0  0  0  0  0  0  0  0  0  0  0  0
   37.3940   24.9470   36.3550 O   0  0  0  0  0  0  0  0  0  0  0  0
   39.0980   22.9000   38.6570 N   0  0  0  0  0  0  0  0  0  0  0  0
   38.1240   23.7280   38.3030 N   0  0  0  0  0  0  0  0  0  0  0  0
   38.2760   24.0790   37.0060 C   0  0  0  0  0  0  0  0  0  0  0  0
   39.4020   23.4430   36.5150 C   0  0  0  0  0  0  0  0  0  0  0  0
   39.8920   22.7090   37.5830 C   0  0  0  0  0  0  0  0  0  0  0  0
   41.1090   21.8680   37.4820 C   0  0  0  0  0  0  0  0  0  0  0  0
   42.2040   22.5270   36.6450 C   0  0  0  0  0  0  0  0  0  0  0  0
   37.7718   24.7753   33.5908 H   0  0  0  0  0  0  0  0  0  0  0  0
   36.8526   25.5870   31.3666 H   0  0  0  0  0  0  0  0  0  0  0  0
   35.8430   29.2808   33.1629 H   0  0  0  0  0  0  0  0  0  0  0  0
   39.2256   22.4774   39.5876 H   0  0  0  0  0  0  0  0  0  0  0  0
   39.8176   23.5062   35.4985 H   0  0  0  0  0  0  0  0  0  0  0  0
   41.4988   21.6875   38.4947 H   0  0  0  0  0  0  0  0  0  0  0  0
   40.8270   20.9279   36.9853 H   0  0  0  0  0  0  0  0  0  0  0  0
   42.9536   22.9782   37.3117 H   0  0  0  0  0  0  0  0  0  0  0  0
   42.6865   21.7691   36.0103 H   0  0  0  0  0  0  0  0  0  0  0  0
   41.7603   23.3082   36.0103 H   0  0  0  0  0  0  0  0  0  0  0  0
  1  9  1  0
  1  2  2  0
  3  1  1  0
  4  3  2  0
  5  4  1  0
  6  5  2  0
  6  7  1  0
  7  8  2  0
  8  3  1  0
  9 12  1  0
 11 10  1  0
 12 11  2  0
 13 12  1  0
 13 14  2  0
 14 10  1  0
 15 14  1  0
 16 15  1  0
  4 17  1  0
  5 18  1  0
  7 19  1  0
 10 20  1  0
 13 21  1  0
 15 22  1  0
 15 23  1  0
 16 24  1  0
 16 25  1  0
 16 26  1  0
M  ISO  8  17  14  18  14  19  14  20   9  21  14  22   8  23   8  24   8
M  ISO  2  25   8  26   8
M  END
>  <minimizedAffinity>  (1) 
-4.7254653

>  <minimizedRMSD>  (1) 
0.83151263

$$$$
