
     RDKit          3D

 41 45  0  0  0  0  0  0  0  0999 V2000
   37.2850   26.6210   34.6900 C   0  0  0  0  0  0  0  0  0  0  0  0
   37.3280   25.7910   33.5810 C   0  0  0  0  0  0  0  0  0  0  0  0
   36.7740   26.2560   32.3750 C   0  0  0  0  0  0  0  0  0  0  0  0
   36.2380   27.4890   32.3940 N   0  0  0  0  0  0  0  0  0  0  0  0
   36.2070   28.2680   33.4680 C   0  0  0  0  0  0  0  0  0  0  0  0
   36.7310   27.8560   34.6520 N   0  0  0  0  0  0  0  0  0  0  0  0
   35.6090   29.5530   33.3530 N   0  0  0  0  0  0  0  0  0  0  0  0
   35.0360   29.9590   32.1830 C   0  0  0  0  0  0  0  0  0  0  0  0
   34.5090   31.2150   32.2410 N   0  0  0  0  0  0  0  0  0  0  0  0
   34.7680   31.6150   33.5190 C   0  0  0  0  0  0  0  0  0  0  0  0
   34.5260   32.7650   34.2780 C   0  0  0  0  0  0  0  0  0  0  0  0
   34.9350   32.8200   35.5550 N   0  0  0  0  0  0  0  0  0  0  0  0
   35.5820   31.8060   36.1630 C   0  0  0  0  0  0  0  0  0  0  0  0
   35.8370   30.6690   35.4560 N   0  0  0  0  0  0  0  0  0  0  0  0
   35.4330   30.6020   34.1790 C   0  0  0  0  0  0  0  0  0  0  0  0
   33.8390   33.8440   33.6350 N   0  0  0  0  0  0  0  0  0  0  0  0
   37.8660   26.1240   35.9400 C   0  0  0  0  0  0  0  0  0  0  0  0
   38.6010   26.8840   36.6210 O   0  0  0  0  0  0  0  0  0  0  0  0
   37.5980   24.8310   36.3520 O   0  0  0  0  0  0  0  0  0  0  0  0
   39.6680   22.6320   38.1870 N   0  0  0  0  0  0  0  0  0  0  0  0
   38.5810   23.3910   38.0080 N   0  0  0  0  0  0  0  0  0  0  0  0
   38.6400   23.9750   36.7790 C   0  0  0  0  0  0  0  0  0  0  0  0
   39.7990   23.5740   36.1610 C   0  0  0  0  0  0  0  0  0  0  0  0
   40.4190   22.7410   37.0550 C   0  0  0  0  0  0  0  0  0  0  0  0
   41.7100   22.0670   36.8170 C   0  0  0  0  0  0  0  0  0  0  0  0
   42.7280   22.7600   36.1910 C   0  0  0  0  0  0  0  0  0  0  0  0
   43.8960   22.0500   36.0120 C   0  0  0  0  0  0  0  0  0  0  0  0
   44.1030   20.7780   36.3900 N   0  0  0  0  0  0  0  0  0  0  0  0
   43.0680   20.1310   37.0050 C   0  0  0  0  0  0  0  0  0  0  0  0
   41.9100   20.7940   37.1980 N   0  0  0  0  0  0  0  0  0  0  0  0
   37.7846   24.7922   33.6426 H   0  0  0  0  0  0  0  0  0  0  0  0
   36.7789   25.6421   31.4623 H   0  0  0  0  0  0  0  0  0  0  0  0
   35.0025   29.3327   31.2793 H   0  0  0  0  0  0  0  0  0  0  0  0
   35.8990   31.8946   37.2126 H   0  0  0  0  0  0  0  0  0  0  0  0
   33.6393   34.7102   34.1553 H   0  0  0  0  0  0  0  0  0  0  0  0
   33.5445   33.7541   32.6521 H   0  0  0  0  0  0  0  0  0  0  0  0
   39.8942   22.0720   39.0213 H   0  0  0  0  0  0  0  0  0  0  0  0
   40.1543   23.8608   35.1603 H   0  0  0  0  0  0  0  0  0  0  0  0
   42.6148   23.8027   35.8594 H   0  0  0  0  0  0  0  0  0  0  0  0
   44.7297   22.5697   35.5173 H   0  0  0  0  0  0  0  0  0  0  0  0
   43.1778   19.0879   37.3366 H   0  0  0  0  0  0  0  0  0  0  0  0
  1 17  1  0
  2  1  2  0
  3  4  2  0
  3  2  1  0
  4  5  1  0
  5  6  2  0
  6  1  1  0
  7  5  1  0
  7 15  1  0
  8  9  2  0
  8  7  1  0
  9 10  1  0
 10 15  2  0
 10 11  1  0
 11 12  2  0
 12 13  1  0
 14 13  2  0
 15 14  1  0
 16 11  1  0
 17 19  1  0
 17 18  2  0
 19 22  1  0
 21 20  1  0
 22 21  2  0
 23 22  1  0
 23 24  2  0
 24 20  1  0
 25 24  1  0
 25 30  1  0
 26 25  2  0
 27 26  1  0
 27 28  2  0
 28 29  1  0
 29 30  2  0
  2 31  1  0
  3 32  1  0
  8 33  1  0
 13 34  1  0
 16 35  1  0
 16 36  1  0
 20 37  1  0
 23 38  1  0
 26 39  1  0
 27 40  1  0
 29 41  1  0
M  ISO  8  31  14  32  14  33  14  34  14  37   9  38  14  39  14  40  14
M  ISO  1  41  14
M  END
>  <minimizedAffinity>  (1) 
-6.66574335

>  <minimizedRMSD>  (1) 
0.342595428

$$$$
