
     RDKit          3D

 28 30  0  0  0  0  0  0  0  0999 V2000
   39.6640   22.6220   38.2250 N   0  0  0  0  0  0  0  0  0  0  0  0
   38.5740   23.3720   38.0630 N   0  0  0  0  0  0  0  0  0  0  0  0
   38.6180   23.9620   36.8370 C   0  0  0  0  0  0  0  0  0  0  0  0
   39.7740   23.5750   36.1970 C   0  0  0  0  0  0  0  0  0  0  0  0
   40.3980   22.7420   37.0940 C   0  0  0  0  0  0  0  0  0  0  0  0
   41.6940   22.0760   36.8380 C   0  0  0  0  0  0  0  0  0  0  0  0
   42.7030   22.7820   36.2160 C   0  0  0  0  0  0  0  0  0  0  0  0
   43.8710   22.0730   36.0230 C   0  0  0  0  0  0  0  0  0  0  0  0
   44.0880   20.7950   36.3840 N   0  0  0  0  0  0  0  0  0  0  0  0
   43.0650   20.1440   36.9930 C   0  0  0  0  0  0  0  0  0  0  0  0
   41.9020   20.7980   37.2020 N   0  0  0  0  0  0  0  0  0  0  0  0
   37.5670   24.8140   36.4240 O   0  0  0  0  0  0  0  0  0  0  0  0
   37.8220   26.0940   35.9770 C   0  0  0  0  0  0  0  0  0  0  0  0
   38.4650   26.9110   36.6800 O   0  0  0  0  0  0  0  0  0  0  0  0
   37.3340   26.5130   34.6580 C   0  0  0  0  0  0  0  0  0  0  0  0
   37.4490   25.6110   33.6100 C   0  0  0  0  0  0  0  0  0  0  0  0
   36.9850   26.0030   32.3450 C   0  0  0  0  0  0  0  0  0  0  0  0
   36.4540   27.2440   32.2420 N   0  0  0  0  0  0  0  0  0  0  0  0
   36.3580   28.0820   33.2650 C   0  0  0  0  0  0  0  0  0  0  0  0
   36.7930   27.7470   34.4990 N   0  0  0  0  0  0  0  0  0  0  0  0
   39.9024   22.0583   39.0534 H   0  0  0  0  0  0  0  0  0  0  0  0
   40.1198   23.8667   35.1943 H   0  0  0  0  0  0  0  0  0  0  0  0
   42.5855   23.8286   35.8986 H   0  0  0  0  0  0  0  0  0  0  0  0
   44.7002   22.6006   35.5290 H   0  0  0  0  0  0  0  0  0  0  0  0
   43.1814   19.0978   37.3121 H   0  0  0  0  0  0  0  0  0  0  0  0
   37.8916   24.6162   33.7664 H   0  0  0  0  0  0  0  0  0  0  0  0
   37.0499   25.3319   31.4759 H   0  0  0  0  0  0  0  0  0  0  0  0
   35.9129   29.0751   33.1047 H   0  0  0  0  0  0  0  0  0  0  0  0
  2  1  1  0
  3  2  2  0
  4  3  1  0
  4  5  2  0
  5  1  1  0
  6  5  1  0
  6 11  1  0
  7  6  2  0
  8  7  1  0
  8  9  2  0
  9 10  1  0
 10 11  2  0
 12  3  1  0
 13 12  1  0
 13 14  2  0
 15 13  1  0
 16 15  2  0
 17 16  1  0
 18 17  2  0
 18 19  1  0
 19 20  2  0
 20 15  1  0
  1 21  1  0
  4 22  1  0
  7 23  1  0
  8 24  1  0
 10 25  1  0
 16 26  1  0
 17 27  1  0
 19 28  1  0
M  ISO  8  21   9  22  14  23  14  24  14  25  14  26  14  27  14  28  14
M  END
>  <minimizedAffinity>  (1) 
-4.96966553

>  <minimizedRMSD>  (1) 
1.15162826

$$$$
