
     RDKit          3D

 35 38  0  0  0  0  0  0  0  0999 V2000
   39.6730   22.6260   38.2400 N   0  0  0  0  0  0  0  0  0  0  0  0
   38.5890   23.3920   38.0830 N   0  0  0  0  0  0  0  0  0  0  0  0
   38.6410   24.0010   36.8690 C   0  0  0  0  0  0  0  0  0  0  0  0
   39.7920   23.6080   36.2420 C   0  0  0  0  0  0  0  0  0  0  0  0
   40.4100   22.7550   37.1190 C   0  0  0  0  0  0  0  0  0  0  0  0
   41.7010   22.0800   36.8550 C   0  0  0  0  0  0  0  0  0  0  0  0
   42.7100   22.7750   36.2240 C   0  0  0  0  0  0  0  0  0  0  0  0
   43.8700   22.0510   36.0280 C   0  0  0  0  0  0  0  0  0  0  0  0
   44.0760   20.7720   36.3950 N   0  0  0  0  0  0  0  0  0  0  0  0
   43.0510   20.1260   37.0160 C   0  0  0  0  0  0  0  0  0  0  0  0
   41.8920   20.7940   37.2300 N   0  0  0  0  0  0  0  0  0  0  0  0
   37.6040   24.8730   36.4580 O   0  0  0  0  0  0  0  0  0  0  0  0
   37.8870   26.0280   35.7400 C   0  0  0  0  0  0  0  0  0  0  0  0
   38.5320   26.9790   36.2580 O   0  0  0  0  0  0  0  0  0  0  0  0
   37.4270   26.1410   34.3520 C   0  0  0  0  0  0  0  0  0  0  0  0
   37.5850   25.0480   33.5300 C   0  0  0  0  0  0  0  0  0  0  0  0
   37.1490   25.1380   32.1960 C   0  0  0  0  0  0  0  0  0  0  0  0
   36.6020   26.3070   31.8230 N   0  0  0  0  0  0  0  0  0  0  0  0
   36.4600   27.3520   32.6430 C   0  0  0  0  0  0  0  0  0  0  0  0
   36.8680   27.2890   33.9210 N   0  0  0  0  0  0  0  0  0  0  0  0
   35.8600   28.5680   32.1540 N   0  0  0  0  0  0  0  0  0  0  0  0
   36.3980   29.3950   31.2370 C   0  0  0  0  0  0  0  0  0  0  0  0
   35.4940   30.4290   31.0660 C   0  0  0  0  0  0  0  0  0  0  0  0
   34.4230   30.2150   31.8800 N   0  0  0  0  0  0  0  0  0  0  0  0
   34.6690   29.0590   32.5440 C   0  0  0  0  0  0  0  0  0  0  0  0
   39.9015   22.0475   39.0610 H   0  0  0  0  0  0  0  0  0  0  0  0
   40.1460   23.9120   35.2459 H   0  0  0  0  0  0  0  0  0  0  0  0
   42.6005   23.8213   35.9025 H   0  0  0  0  0  0  0  0  0  0  0  0
   44.7019   22.5667   35.5260 H   0  0  0  0  0  0  0  0  0  0  0  0
   43.1620   19.0801   37.3383 H   0  0  0  0  0  0  0  0  0  0  0  0
   38.0432   24.1226   33.9091 H   0  0  0  0  0  0  0  0  0  0  0  0
   37.2504   24.2961   31.4953 H   0  0  0  0  0  0  0  0  0  0  0  0
   37.3642   29.2728   30.7255 H   0  0  0  0  0  0  0  0  0  0  0  0
   35.6198   31.2833   30.3846 H   0  0  0  0  0  0  0  0  0  0  0  0
   34.0007   28.5954   33.2846 H   0  0  0  0  0  0  0  0  0  0  0  0
  2  1  1  0
  3  2  2  0
  4  3  1  0
  4  5  2  0
  5  1  1  0
  6  5  1  0
  6 11  1  0
  7  6  2  0
  8  7  1  0
  8  9  2  0
  9 10  1  0
 10 11  2  0
 12  3  1  0
 13 14  2  0
 13 12  1  0
 15 13  1  0
 16 15  2  0
 17 16  1  0
 18 17  2  0
 18 19  1  0
 19 20  2  0
 20 15  1  0
 21 25  1  0
 21 19  1  0
 22 21  1  0
 23 22  2  0
 23 24  1  0
 24 25  2  0
  1 26  1  0
  4 27  1  0
  7 28  1  0
  8 29  1  0
 10 30  1  0
 16 31  1  0
 17 32  1  0
 22 33  1  0
 23 34  1  0
 25 35  1  0
M  ISO  8  26   9  27  14  28  14  29  14  30  14  31  14  32  14  33  14
M  ISO  2  34  14  35  14
M  END
>  <minimizedAffinity>  (1) 
-5.90628004

>  <minimizedRMSD>  (1) 
0.770760953

$$$$
