
     RDKit          3D

 38 41  0  0  0  0  0  0  0  0999 V2000
   37.8710   25.8810   36.0630 C   0  0  0  0  0  0  0  0  0  0  0  0
   38.3960   26.7620   36.7750 O   0  0  0  0  0  0  0  0  0  0  0  0
   37.4710   26.1970   34.6930 C   0  0  0  0  0  0  0  0  0  0  0  0
   37.6690   25.2500   33.7120 C   0  0  0  0  0  0  0  0  0  0  0  0
   37.2880   25.5390   32.3970 C   0  0  0  0  0  0  0  0  0  0  0  0
   36.7380   26.7690   32.1910 N   0  0  0  0  0  0  0  0  0  0  0  0
   36.5570   27.6630   33.1400 C   0  0  0  0  0  0  0  0  0  0  0  0
   36.9200   27.3890   34.4030 N   0  0  0  0  0  0  0  0  0  0  0  0
   35.9540   28.9710   32.8300 C   0  0  0  0  0  0  0  0  0  0  0  0
   35.7760   29.3480   31.4990 C   0  0  0  0  0  0  0  0  0  0  0  0
   35.2080   30.5800   31.2100 C   0  0  0  0  0  0  0  0  0  0  0  0
   34.8410   31.3850   32.2670 C   0  0  0  0  0  0  0  0  0  0  0  0
   34.9950   31.0570   33.5970 C   0  0  0  0  0  0  0  0  0  0  0  0
   35.5690   29.8120   33.8440 C   0  0  0  0  0  0  0  0  0  0  0  0
   37.6640   24.6040   36.5540 O   0  0  0  0  0  0  0  0  0  0  0  0
   39.8630   22.4880   38.3060 N   0  0  0  0  0  0  0  0  0  0  0  0
   38.7550   23.2150   38.1800 N   0  0  0  0  0  0  0  0  0  0  0  0
   38.7330   23.7810   36.9470 C   0  0  0  0  0  0  0  0  0  0  0  0
   39.8730   23.3980   36.2620 C   0  0  0  0  0  0  0  0  0  0  0  0
   40.5470   22.5960   37.1410 C   0  0  0  0  0  0  0  0  0  0  0  0
   41.8420   21.9470   36.8390 C   0  0  0  0  0  0  0  0  0  0  0  0
   42.8350   22.6720   36.2100 C   0  0  0  0  0  0  0  0  0  0  0  0
   44.0000   21.9780   35.9730 C   0  0  0  0  0  0  0  0  0  0  0  0
   44.2260   20.7020   36.3000 N   0  0  0  0  0  0  0  0  0  0  0  0
   43.2270   20.0140   36.9200 C   0  0  0  0  0  0  0  0  0  0  0  0
   42.0650   20.6580   37.1700 N   0  0  0  0  0  0  0  0  0  0  0  0
   38.1212   24.2783   33.9596 H   0  0  0  0  0  0  0  0  0  0  0  0
   37.4242   24.8168   31.5785 H   0  0  0  0  0  0  0  0  0  0  0  0
   36.0834   28.6742   30.6856 H   0  0  0  0  0  0  0  0  0  0  0  0
   35.0552   30.9044   30.1701 H   0  0  0  0  0  0  0  0  0  0  0  0
   34.3921   32.3613   32.0318 H   0  0  0  0  0  0  0  0  0  0  0  0
   34.6856   31.7325   34.4082 H   0  0  0  0  0  0  0  0  0  0  0  0
   35.7186   29.4924   34.8859 H   0  0  0  0  0  0  0  0  0  0  0  0
   40.1472   21.9451   39.1339 H   0  0  0  0  0  0  0  0  0  0  0  0
   40.1702   23.6762   35.2401 H   0  0  0  0  0  0  0  0  0  0  0  0
   42.7048   23.7251   35.9201 H   0  0  0  0  0  0  0  0  0  0  0  0
   44.8150   22.5203   35.4713 H   0  0  0  0  0  0  0  0  0  0  0  0
   43.3624   18.9615   37.2098 H   0  0  0  0  0  0  0  0  0  0  0  0
  1 15  1  0
  1  2  2  0
  3  1  1  0
  4  3  2  0
  5  4  1  0
  6  5  2  0
  6  7  1  0
  7  8  2  0
  8  3  1  0
  9  7  1  0
  9 14  1  0
 10  9  2  0
 11 10  1  0
 11 12  2  0
 12 13  1  0
 13 14  2  0
 15 18  1  0
 17 16  1  0
 18 17  2  0
 19 18  1  0
 19 20  2  0
 20 16  1  0
 21 20  1  0
 21 26  1  0
 22 21  2  0
 23 22  1  0
 23 24  2  0
 24 25  1  0
 25 26  2  0
  4 27  1  0
  5 28  1  0
 10 29  1  0
 11 30  1  0
 12 31  1  0
 13 32  1  0
 14 33  1  0
 16 34  1  0
 19 35  1  0
 22 36  1  0
 23 37  1  0
 25 38  1  0
M  ISO  8  27  14  28  14  29  14  30  14  31  14  32  14  33  14  34   9
M  ISO  4  35  14  36  14  37  14  38  14
M  END
>  <minimizedAffinity>  (1) 
-5.94775915

>  <minimizedRMSD>  (1) 
0.41325739

$$$$
