
     RDKit          3D

 37 40  0  0  0  0  0  0  0  0999 V2000
   37.6010   24.8460   36.4710 O   0  0  0  0  0  0  0  0  0  0  0  0
   39.6760   22.6130   38.2550 N   0  0  0  0  0  0  0  0  0  0  0  0
   38.5900   23.3800   38.0970 N   0  0  0  0  0  0  0  0  0  0  0  0
   38.6420   23.9800   36.8760 C   0  0  0  0  0  0  0  0  0  0  0  0
   39.7910   23.5870   36.2390 C   0  0  0  0  0  0  0  0  0  0  0  0
   40.4130   22.7340   37.1260 C   0  0  0  0  0  0  0  0  0  0  0  0
   41.6940   22.0610   36.8670 C   0  0  0  0  0  0  0  0  0  0  0  0
   42.7100   22.7550   36.2250 C   0  0  0  0  0  0  0  0  0  0  0  0
   43.8720   22.0330   36.0300 C   0  0  0  0  0  0  0  0  0  0  0  0
   44.0780   20.7660   36.4020 N   0  0  0  0  0  0  0  0  0  0  0  0
   43.0590   20.1170   37.0300 C   0  0  0  0  0  0  0  0  0  0  0  0
   41.9060   20.7930   37.2370 N   0  0  0  0  0  0  0  0  0  0  0  0
   37.8680   25.9900   35.7530 C   0  0  0  0  0  0  0  0  0  0  0  0
   38.4870   26.9580   36.2800 O   0  0  0  0  0  0  0  0  0  0  0  0
   37.4400   26.1080   34.3580 C   0  0  0  0  0  0  0  0  0  0  0  0
   37.6580   25.0310   33.5290 C   0  0  0  0  0  0  0  0  0  0  0  0
   37.2530   25.1290   32.1880 C   0  0  0  0  0  0  0  0  0  0  0  0
   36.6770   26.2840   31.8090 N   0  0  0  0  0  0  0  0  0  0  0  0
   36.4800   27.3070   32.6390 C   0  0  0  0  0  0  0  0  0  0  0  0
   36.8550   27.2470   33.9250 N   0  0  0  0  0  0  0  0  0  0  0  0
   35.8490   28.5500   32.1920 C   0  0  0  0  0  0  0  0  0  0  0  0
   36.4140   29.3550   31.2280 C   0  0  0  0  0  0  0  0  0  0  0  0
   35.8400   30.5300   30.7900 C   0  0  0  0  0  0  0  0  0  0  0  0
   34.6320   30.9380   31.3360 C   0  0  0  0  0  0  0  0  0  0  0  0
   34.0710   30.1300   32.3000 C   0  0  0  0  0  0  0  0  0  0  0  0
   34.6970   29.0000   32.6690 N   0  0  0  0  0  0  0  0  0  0  0  0
   39.9068   22.0398   39.0790 H   0  0  0  0  0  0  0  0  0  0  0  0
   40.1399   23.8865   35.2397 H   0  0  0  0  0  0  0  0  0  0  0  0
   42.5989   23.7990   35.8968 H   0  0  0  0  0  0  0  0  0  0  0  0
   44.7019   22.5472   35.5231 H   0  0  0  0  0  0  0  0  0  0  0  0
   43.1703   19.0734   37.3594 H   0  0  0  0  0  0  0  0  0  0  0  0
   38.1376   24.1163   33.9076 H   0  0  0  0  0  0  0  0  0  0  0  0
   37.3999   24.2998   31.4803 H   0  0  0  0  0  0  0  0  0  0  0  0
   37.3719   29.0450   30.7848 H   0  0  0  0  0  0  0  0  0  0  0  0
   36.3343   31.1364   30.0168 H   0  0  0  0  0  0  0  0  0  0  0  0
   34.1423   31.8684   31.0125 H   0  0  0  0  0  0  0  0  0  0  0  0
   33.1143   30.4087   32.7659 H   0  0  0  0  0  0  0  0  0  0  0  0
  1  4  1  0
  3  2  1  0
  4  3  2  0
  5  4  1  0
  5  6  2  0
  6  2  1  0
  7  6  1  0
  7 12  1  0
  8  7  2  0
  9  8  1  0
  9 10  2  0
 10 11  1  0
 11 12  2  0
 13 14  2  0
 13  1  1  0
 15 13  1  0
 16 15  2  0
 17 16  1  0
 18 17  2  0
 18 19  1  0
 19 20  2  0
 20 15  1  0
 21 19  1  0
 21 26  1  0
 22 21  2  0
 23 22  1  0
 23 24  2  0
 24 25  1  0
 25 26  2  0
  2 27  1  0
  5 28  1  0
  8 29  1  0
  9 30  1  0
 11 31  1  0
 16 32  1  0
 17 33  1  0
 22 34  1  0
 23 35  1  0
 24 36  1  0
 25 37  1  0
M  ISO  8  27   9  28  14  29  14  30  14  31  14  32  14  33  14  34  14
M  ISO  3  35  14  36  14  37  14
M  END
>  <minimizedAffinity>  (1) 
-5.91103983

>  <minimizedRMSD>  (1) 
0.89627254

$$$$
