
     RDKit          3D

 31 33  0  0  0  0  0  0  0  0999 V2000
   39.6900   22.6060   38.2640 N   0  0  0  0  0  0  0  0  0  0  0  0
   38.5970   23.3640   38.1150 N   0  0  0  0  0  0  0  0  0  0  0  0
   38.6430   23.9560   36.8870 C   0  0  0  0  0  0  0  0  0  0  0  0
   39.7840   23.5700   36.2370 C   0  0  0  0  0  0  0  0  0  0  0  0
   40.4120   22.7280   37.1240 C   0  0  0  0  0  0  0  0  0  0  0  0
   41.6980   22.0550   36.8620 C   0  0  0  0  0  0  0  0  0  0  0  0
   42.7090   22.7500   36.2320 C   0  0  0  0  0  0  0  0  0  0  0  0
   43.8710   22.0540   36.0260 C   0  0  0  0  0  0  0  0  0  0  0  0
   44.0890   20.7660   36.3890 N   0  0  0  0  0  0  0  0  0  0  0  0
   43.0760   20.1220   37.0030 C   0  0  0  0  0  0  0  0  0  0  0  0
   41.9110   20.7850   37.2220 N   0  0  0  0  0  0  0  0  0  0  0  0
   37.5870   24.8210   36.4840 O   0  0  0  0  0  0  0  0  0  0  0  0
   37.8470   26.0360   35.8830 C   0  0  0  0  0  0  0  0  0  0  0  0
   38.4410   26.9490   36.5080 O   0  0  0  0  0  0  0  0  0  0  0  0
   37.4240   26.2600   34.5010 C   0  0  0  0  0  0  0  0  0  0  0  0
   37.6830   25.2640   33.5690 C   0  0  0  0  0  0  0  0  0  0  0  0
   37.2770   25.4750   32.2350 C   0  0  0  0  0  0  0  0  0  0  0  0
   36.6620   26.6450   31.9670 N   0  0  0  0  0  0  0  0  0  0  0  0
   36.4320   27.5700   32.8760 C   0  0  0  0  0  0  0  0  0  0  0  0
   36.7990   27.4160   34.1580 N   0  0  0  0  0  0  0  0  0  0  0  0
   35.7580   28.7910   32.4520 C   0  0  0  0  0  0  0  0  0  0  0  0
   36.4610   29.7260   31.9470 O   0  0  0  0  0  0  0  0  0  0  0  0
   34.3920   29.0190   32.5550 O   0  0  0  0  0  0  0  0  0  0  0  0
   39.9353   22.0385   39.0878 H   0  0  0  0  0  0  0  0  0  0  0  0
   40.1218   23.8662   35.2329 H   0  0  0  0  0  0  0  0  0  0  0  0
   42.5900   23.7966   35.9151 H   0  0  0  0  0  0  0  0  0  0  0  0
   44.6947   22.5836   35.5250 H   0  0  0  0  0  0  0  0  0  0  0  0
   43.1913   19.0755   37.3217 H   0  0  0  0  0  0  0  0  0  0  0  0
   38.1918   24.3343   33.8635 H   0  0  0  0  0  0  0  0  0  0  0  0
   37.4532   24.7227   31.4520 H   0  0  0  0  0  0  0  0  0  0  0  0
   34.0085   29.8770   32.2438 H   0  0  0  0  0  0  0  0  0  0  0  0
  2  1  1  0
  3  2  2  0
  4  3  1  0
  4  5  2  0
  5  1  1  0
  6  5  1  0
  6 11  1  0
  7  6  2  0
  8  7  1  0
  8  9  2  0
  9 10  1  0
 10 11  2  0
 12  3  1  0
 13 12  1  0
 13 14  2  0
 15 13  1  0
 16 15  2  0
 17 16  1  0
 18 17  2  0
 18 19  1  0
 19 20  2  0
 20 15  1  0
 21 23  1  0
 21 19  1  0
 22 21  2  0
  1 24  1  0
  4 25  1  0
  7 26  1  0
  8 27  1  0
 10 28  1  0
 16 29  1  0
 17 30  1  0
 23 31  1  0
M  ISO  8  24   9  25  14  26  14  27  14  28  14  29  14  30  14  31   3
M  END
>  <minimizedAffinity>  (1) 
-5.29174519

>  <minimizedRMSD>  (1) 
0.440227807

$$$$
