
     RDKit          3D

 29 31  0  0  0  0  0  0  0  0999 V2000
   39.6650   22.6190   38.2330 N   0  0  0  0  0  0  0  0  0  0  0  0
   38.5700   23.3720   38.0690 N   0  0  0  0  0  0  0  0  0  0  0  0
   38.6190   23.9550   36.8400 C   0  0  0  0  0  0  0  0  0  0  0  0
   39.7680   23.5670   36.2080 C   0  0  0  0  0  0  0  0  0  0  0  0
   40.3910   22.7370   37.1050 C   0  0  0  0  0  0  0  0  0  0  0  0
   41.6860   22.0740   36.8470 C   0  0  0  0  0  0  0  0  0  0  0  0
   42.6980   22.7750   36.2220 C   0  0  0  0  0  0  0  0  0  0  0  0
   43.8710   22.0750   36.0210 C   0  0  0  0  0  0  0  0  0  0  0  0
   44.0860   20.7910   36.3850 N   0  0  0  0  0  0  0  0  0  0  0  0
   43.0670   20.1370   36.9950 C   0  0  0  0  0  0  0  0  0  0  0  0
   41.9030   20.8030   37.2040 N   0  0  0  0  0  0  0  0  0  0  0  0
   37.5660   24.8080   36.4230 O   0  0  0  0  0  0  0  0  0  0  0  0
   37.8130   26.0850   35.9750 C   0  0  0  0  0  0  0  0  0  0  0  0
   38.4600   26.8990   36.6890 O   0  0  0  0  0  0  0  0  0  0  0  0
   37.3270   26.5130   34.6600 C   0  0  0  0  0  0  0  0  0  0  0  0
   37.4480   25.6190   33.6150 C   0  0  0  0  0  0  0  0  0  0  0  0
   36.9880   26.0090   32.3490 C   0  0  0  0  0  0  0  0  0  0  0  0
   36.4580   27.2390   32.2480 N   0  0  0  0  0  0  0  0  0  0  0  0
   36.3550   28.0760   33.2720 C   0  0  0  0  0  0  0  0  0  0  0  0
   36.7830   27.7450   34.5110 N   0  0  0  0  0  0  0  0  0  0  0  0
   35.7780   29.3010   32.9670 O   0  0  0  0  0  0  0  0  0  0  0  0
   39.9057   22.0576   39.0623 H   0  0  0  0  0  0  0  0  0  0  0  0
   40.1149   23.8558   35.2049 H   0  0  0  0  0  0  0  0  0  0  0  0
   42.5778   23.8215   35.9053 H   0  0  0  0  0  0  0  0  0  0  0  0
   44.6973   22.6049   35.5246 H   0  0  0  0  0  0  0  0  0  0  0  0
   43.1811   19.0903   37.3133 H   0  0  0  0  0  0  0  0  0  0  0  0
   37.8940   24.6257   33.7715 H   0  0  0  0  0  0  0  0  0  0  0  0
   37.0579   25.3390   31.4794 H   0  0  0  0  0  0  0  0  0  0  0  0
   35.6636   29.9841   33.6744 H   0  0  0  0  0  0  0  0  0  0  0  0
  2  1  1  0
  3  2  2  0
  4  3  1  0
  4  5  2  0
  5  1  1  0
  6  5  1  0
  6 11  1  0
  7  6  2  0
  8  7  1  0
  8  9  2  0
  9 10  1  0
 10 11  2  0
 12  3  1  0
 13 12  1  0
 13 14  2  0
 15 13  1  0
 16 15  2  0
 17 16  1  0
 18 17  2  0
 18 19  1  0
 19 20  2  0
 20 15  1  0
 21 19  1  0
  1 22  1  0
  4 23  1  0
  7 24  1  0
  8 25  1  0
 10 26  1  0
 16 27  1  0
 17 28  1  0
 21 29  1  0
M  ISO  8  22   9  23  14  24  14  25  14  26  14  27  14  28  14  29   3
M  END
>  <minimizedAffinity>  (1) 
-5.15431404

>  <minimizedRMSD>  (1) 
0.00805832446

$$$$
