
     RDKit          3D

 29 31  0  0  0  0  0  0  0  0999 V2000
   39.6660   22.6230   38.2330 N   0  0  0  0  0  0  0  0  0  0  0  0
   38.5770   23.3710   38.0710 N   0  0  0  0  0  0  0  0  0  0  0  0
   38.6180   23.9580   36.8440 C   0  0  0  0  0  0  0  0  0  0  0  0
   39.7750   23.5690   36.2080 C   0  0  0  0  0  0  0  0  0  0  0  0
   40.4000   22.7350   37.1110 C   0  0  0  0  0  0  0  0  0  0  0  0
   41.6870   22.0780   36.8500 C   0  0  0  0  0  0  0  0  0  0  0  0
   42.7090   22.7790   36.2230 C   0  0  0  0  0  0  0  0  0  0  0  0
   43.8730   22.0670   36.0270 C   0  0  0  0  0  0  0  0  0  0  0  0
   44.0750   20.7880   36.3890 N   0  0  0  0  0  0  0  0  0  0  0  0
   43.0610   20.1360   36.9960 C   0  0  0  0  0  0  0  0  0  0  0  0
   41.9040   20.8050   37.2050 N   0  0  0  0  0  0  0  0  0  0  0  0
   37.5660   24.8070   36.4370 O   0  0  0  0  0  0  0  0  0  0  0  0
   37.8190   26.0820   35.9680 C   0  0  0  0  0  0  0  0  0  0  0  0
   38.4590   26.9110   36.6680 O   0  0  0  0  0  0  0  0  0  0  0  0
   37.3360   26.4740   34.6370 C   0  0  0  0  0  0  0  0  0  0  0  0
   37.4810   25.5590   33.6040 C   0  0  0  0  0  0  0  0  0  0  0  0
   37.0190   25.9390   32.3390 C   0  0  0  0  0  0  0  0  0  0  0  0
   36.4670   27.1680   32.2180 N   0  0  0  0  0  0  0  0  0  0  0  0
   36.3450   28.0190   33.2300 C   0  0  0  0  0  0  0  0  0  0  0  0
   36.7750   27.7050   34.4810 N   0  0  0  0  0  0  0  0  0  0  0  0
   35.5890   29.5970   32.8720 S   0  0  0  0  0  0  0  0  0  0  0  0
   39.9030   22.0621   39.0637 H   0  0  0  0  0  0  0  0  0  0  0  0
   40.1228   23.8582   35.2053 H   0  0  0  0  0  0  0  0  0  0  0  0
   42.5977   23.8264   35.9058 H   0  0  0  0  0  0  0  0  0  0  0  0
   44.7060   22.5888   35.5333 H   0  0  0  0  0  0  0  0  0  0  0  0
   43.1725   19.0884   37.3124 H   0  0  0  0  0  0  0  0  0  0  0  0
   37.9408   24.5741   33.7728 H   0  0  0  0  0  0  0  0  0  0  0  0
   37.1016   25.2633   31.4749 H   0  0  0  0  0  0  0  0  0  0  0  0
   35.2838   30.2340   34.0459 H   0  0  0  0  0  0  0  0  0  0  0  0
  2  1  1  0
  3  2  2  0
  4  3  1  0
  4  5  2  0
  5  1  1  0
  6  5  1  0
  6 11  1  0
  7  6  2  0
  8  7  1  0
  8  9  2  0
  9 10  1  0
 10 11  2  0
 12  3  1  0
 13 12  1  0
 13 14  2  0
 15 13  1  0
 16 15  2  0
 17 16  1  0
 18 17  2  0
 18 19  1  0
 19 20  2  0
 20 15  1  0
 21 19  1  0
  1 22  1  0
  4 23  1  0
  7 24  1  0
  8 25  1  0
 10 26  1  0
 16 27  1  0
 17 28  1  0
 21 29  1  0
M  ISO  8  22   9  23  14  24  14  25  14  26  14  27  14  28  14  29  11
M  END
>  <minimizedAffinity>  (1) 
-5.16507387

>  <minimizedRMSD>  (1) 
0.0429461934

$$$$
