
     RDKit          3D

 30 32  0  0  0  0  0  0  0  0999 V2000
   39.6830   22.6130   38.2550 N   0  0  0  0  0  0  0  0  0  0  0  0
   38.5920   23.3620   38.1070 N   0  0  0  0  0  0  0  0  0  0  0  0
   38.6220   23.9600   36.8810 C   0  0  0  0  0  0  0  0  0  0  0  0
   39.7670   23.5740   36.2430 C   0  0  0  0  0  0  0  0  0  0  0  0
   40.4110   22.7390   37.1110 C   0  0  0  0  0  0  0  0  0  0  0  0
   41.7000   22.0730   36.8500 C   0  0  0  0  0  0  0  0  0  0  0  0
   42.7000   22.7840   36.2230 C   0  0  0  0  0  0  0  0  0  0  0  0
   43.8700   22.0660   36.0250 C   0  0  0  0  0  0  0  0  0  0  0  0
   44.0870   20.7910   36.3840 N   0  0  0  0  0  0  0  0  0  0  0  0
   43.0640   20.1320   37.0010 C   0  0  0  0  0  0  0  0  0  0  0  0
   41.9050   20.7920   37.2150 N   0  0  0  0  0  0  0  0  0  0  0  0
   37.5740   24.8130   36.4750 O   0  0  0  0  0  0  0  0  0  0  0  0
   37.8360   26.0390   35.8960 C   0  0  0  0  0  0  0  0  0  0  0  0
   38.4360   26.9480   36.5260 O   0  0  0  0  0  0  0  0  0  0  0  0
   37.4080   26.2910   34.5220 C   0  0  0  0  0  0  0  0  0  0  0  0
   37.5930   25.2980   33.5870 C   0  0  0  0  0  0  0  0  0  0  0  0
   37.1890   25.5240   32.2690 C   0  0  0  0  0  0  0  0  0  0  0  0
   36.6370   26.7180   31.9980 N   0  0  0  0  0  0  0  0  0  0  0  0
   36.4620   27.6770   32.9140 C   0  0  0  0  0  0  0  0  0  0  0  0
   36.8470   27.4680   34.1840 N   0  0  0  0  0  0  0  0  0  0  0  0
   35.8500   28.9650   32.5500 C   0  0  0  0  0  0  0  0  0  0  0  0
   35.6700   29.2520   31.3190 O   0  0  0  0  0  0  0  0  0  0  0  0
   39.9296   22.0458   39.0787 H   0  0  0  0  0  0  0  0  0  0  0  0
   40.1008   23.8736   35.2386 H   0  0  0  0  0  0  0  0  0  0  0  0
   42.5807   23.8308   35.9068 H   0  0  0  0  0  0  0  0  0  0  0  0
   44.6983   22.5910   35.5267 H   0  0  0  0  0  0  0  0  0  0  0  0
   43.1806   19.0850   37.3176 H   0  0  0  0  0  0  0  0  0  0  0  0
   38.0523   24.3404   33.8734 H   0  0  0  0  0  0  0  0  0  0  0  0
   37.3171   24.7591   31.4889 H   0  0  0  0  0  0  0  0  0  0  0  0
   35.5495   29.6760   33.3337 H   0  0  0  0  0  0  0  0  0  0  0  0
  2  1  1  0
  3  2  2  0
  4  3  1  0
  4  5  2  0
  5  1  1  0
  6  5  1  0
  6 11  1  0
  7  6  2  0
  8  7  1  0
  8  9  2  0
  9 10  1  0
 10 11  2  0
 12  3  1  0
 13 12  1  0
 13 14  2  0
 15 13  1  0
 16 15  2  0
 17 16  1  0
 18 17  2  0
 18 19  1  0
 19 20  2  0
 20 15  1  0
 21 19  1  0
 22 21  2  0
  1 23  1  0
  4 24  1  0
  7 25  1  0
  8 26  1  0
 10 27  1  0
 16 28  1  0
 17 29  1  0
 21 30  1  0
M  ISO  8  23   9  24  14  25  14  26  14  27  14  28  14  29  14  30   6
M  END
>  <minimizedAffinity>  (1) 
-5.11187649

>  <minimizedRMSD>  (1) 
0.346101344

$$$$
