
     RDKit          3D

 53 56  0  0  0  0  0  0  0  0999 V2000
   37.3030   26.4710   34.6860 C   0  0  0  0  0  0  0  0  0  0  0  0
   37.4410   25.5710   33.6410 C   0  0  0  0  0  0  0  0  0  0  0  0
   36.9490   25.9510   32.3720 C   0  0  0  0  0  0  0  0  0  0  0  0
   36.3790   27.1610   32.2640 N   0  0  0  0  0  0  0  0  0  0  0  0
   36.2600   28.0030   33.2800 C   0  0  0  0  0  0  0  0  0  0  0  0
   36.7230   27.6720   34.5190 N   0  0  0  0  0  0  0  0  0  0  0  0
   37.8180   26.0670   35.9990 C   0  0  0  0  0  0  0  0  0  0  0  0
   38.4680   26.8760   36.6790 O   0  0  0  0  0  0  0  0  0  0  0  0
   37.5820   24.8090   36.4650 O   0  0  0  0  0  0  0  0  0  0  0  0
   39.6890   22.6050   38.2450 N   0  0  0  0  0  0  0  0  0  0  0  0
   38.5930   23.3590   38.0950 N   0  0  0  0  0  0  0  0  0  0  0  0
   38.6350   23.9530   36.8680 C   0  0  0  0  0  0  0  0  0  0  0  0
   39.7790   23.5650   36.2330 C   0  0  0  0  0  0  0  0  0  0  0  0
   40.4090   22.7310   37.1100 C   0  0  0  0  0  0  0  0  0  0  0  0
   41.7040   22.0610   36.8470 C   0  0  0  0  0  0  0  0  0  0  0  0
   42.7120   22.7780   36.2160 C   0  0  0  0  0  0  0  0  0  0  0  0
   43.8790   22.0600   36.0170 C   0  0  0  0  0  0  0  0  0  0  0  0
   44.0950   20.7820   36.3750 N   0  0  0  0  0  0  0  0  0  0  0  0
   43.0770   20.1300   36.9880 C   0  0  0  0  0  0  0  0  0  0  0  0
   41.9200   20.7780   37.2060 N   0  0  0  0  0  0  0  0  0  0  0  0
   35.6090   29.3360   33.0470 C   0  0  0  0  0  0  0  0  0  0  0  0
   35.5370   30.0160   34.4240 C   0  0  0  0  0  0  0  0  0  0  0  0
   34.1970   29.0650   32.5990 C   0  0  0  0  0  0  0  0  0  0  0  0
   36.3890   30.1880   32.0970 C   0  0  0  0  0  0  0  0  0  0  0  0
   36.0070   30.2780   30.7470 N   0  0  0  0  0  0  0  0  0  0  0  0
   35.9370   31.7140   30.4180 C   0  0  0  0  0  0  0  0  0  0  0  0
   37.3240   32.2020   30.2680 C   0  0  0  0  0  0  0  0  0  0  0  0
   37.8680   31.7310   29.0870 O   0  0  0  0  0  0  0  0  0  0  0  0
   37.3880   30.4990   28.7110 C   0  0  0  0  0  0  0  0  0  0  0  0
   36.9080   29.6420   29.8480 C   0  0  0  0  0  0  0  0  0  0  0  0
   37.9184   24.5920   33.7946 H   0  0  0  0  0  0  0  0  0  0  0  0
   37.0303   25.2795   31.5045 H   0  0  0  0  0  0  0  0  0  0  0  0
   39.9356   22.0376   39.0685 H   0  0  0  0  0  0  0  0  0  0  0  0
   40.1198   23.8610   35.2299 H   0  0  0  0  0  0  0  0  0  0  0  0
   42.5936   23.8254   35.9016 H   0  0  0  0  0  0  0  0  0  0  0  0
   44.7077   22.5846   35.5190 H   0  0  0  0  0  0  0  0  0  0  0  0
   43.1964   19.0829   37.3033 H   0  0  0  0  0  0  0  0  0  0  0  0
   35.6176   29.2545   35.2137 H   0  0  0  0  0  0  0  0  0  0  0  0
   36.3641   30.7346   34.5218 H   0  0  0  0  0  0  0  0  0  0  0  0
   34.5778   30.5455   34.5218 H   0  0  0  0  0  0  0  0  0  0  0  0
   33.5502   28.9409   33.4801 H   0  0  0  0  0  0  0  0  0  0  0  0
   33.8354   29.9101   31.9949 H   0  0  0  0  0  0  0  0  0  0  0  0
   34.1740   28.1460   31.9949 H   0  0  0  0  0  0  0  0  0  0  0  0
   36.3684   31.2112   32.5002 H   0  0  0  0  0  0  0  0  0  0  0  0
   37.3628   29.6788   32.0473 H   0  0  0  0  0  0  0  0  0  0  0  0
   35.3843   31.8577   29.4779 H   0  0  0  0  0  0  0  0  0  0  0  0
   35.4141   32.2687   31.2110 H   0  0  0  0  0  0  0  0  0  0  0  0
   37.3234   33.3019   30.2552 H   0  0  0  0  0  0  0  0  0  0  0  0
   37.9272   31.8381   31.1128 H   0  0  0  0  0  0  0  0  0  0  0  0
   36.5467   30.6548   28.0196 H   0  0  0  0  0  0  0  0  0  0  0  0
   38.2309   29.9630   28.2503 H   0  0  0  0  0  0  0  0  0  0  0  0
   36.4006   28.7640   29.4218 H   0  0  0  0  0  0  0  0  0  0  0  0
   37.8011   29.3894   30.4383 H   0  0  0  0  0  0  0  0  0  0  0  0
  1  7  1  0
  2  1  2  0
  3  2  1  0
  4  3  2  0
  4  5  1  0
  5  6  2  0
  6  1  1  0
  7  9  1  0
  7  8  2  0
  9 12  1  0
 11 10  1  0
 12 11  2  0
 13 12  1  0
 13 14  2  0
 14 10  1  0
 15 14  1  0
 15 20  1  0
 16 15  2  0
 17 16  1  0
 17 18  2  0
 18 19  1  0
 19 20  2  0
 21  5  1  0
 21 22  1  0
 23 21  1  0
 24 21  1  0
 25 24  1  0
 26 25  1  0
 27 26  1  0
 28 27  1  0
 29 28  1  0
 29 30  1  0
 30 25  1  0
  2 31  1  0
  3 32  1  0
 10 33  1  0
 13 34  1  0
 16 35  1  0
 17 36  1  0
 19 37  1  0
 22 38  1  0
 22 39  1  0
 22 40  1  0
 23 41  1  0
 23 42  1  0
 23 43  1  0
 24 44  1  0
 24 45  1  0
 26 46  1  0
 26 47  1  0
 27 48  1  0
 27 49  1  0
 29 50  1  0
 29 51  1  0
 30 52  1  0
 30 53  1  0
M  ISO  8  31  14  32  14  33   9  34  14  35  14  36  14  37  14  38   8
M  ISO  8  39   8  40   8  41   8  42   8  43   8  44   8  45   8  46  13
M  ISO  7  47  13  48  13  49  13  50  13  51  13  52  13  53  13
M  END
>  <minimizedAffinity>  (1) 
-5.83443832

>  <minimizedRMSD>  (1) 
1.23211277

$$$$
