
     RDKit          3D

 52 55  0  0  0  0  0  0  0  0999 V2000
   37.1150   27.0630   34.4980 C   0  0  0  0  0  0  0  0  0  0  0  0
   37.2830   26.4650   33.2700 C   0  0  0  0  0  0  0  0  0  0  0  0
   36.6070   27.0140   32.1630 C   0  0  0  0  0  0  0  0  0  0  0  0
   35.8340   28.1000   32.3920 N   0  0  0  0  0  0  0  0  0  0  0  0
   35.6920   28.6580   33.5990 C   0  0  0  0  0  0  0  0  0  0  0  0
   36.3250   28.1540   34.6740 N   0  0  0  0  0  0  0  0  0  0  0  0
   37.8210   26.4810   35.6450 C   0  0  0  0  0  0  0  0  0  0  0  0
   38.7320   27.1380   36.2050 O   0  0  0  0  0  0  0  0  0  0  0  0
   37.4790   25.2400   36.0880 O   0  0  0  0  0  0  0  0  0  0  0  0
   39.3310   22.9580   38.0510 N   0  0  0  0  0  0  0  0  0  0  0  0
   38.2950   23.7620   37.8040 N   0  0  0  0  0  0  0  0  0  0  0  0
   38.4530   24.3360   36.5910 C   0  0  0  0  0  0  0  0  0  0  0  0
   39.6270   23.8880   36.0400 C   0  0  0  0  0  0  0  0  0  0  0  0
   40.1500   23.0350   36.9700 C   0  0  0  0  0  0  0  0  0  0  0  0
   41.4190   22.3060   36.8140 C   0  0  0  0  0  0  0  0  0  0  0  0
   42.4880   22.9250   36.1990 C   0  0  0  0  0  0  0  0  0  0  0  0
   43.6420   22.1660   36.0970 C   0  0  0  0  0  0  0  0  0  0  0  0
   43.7820   20.8940   36.5500 N   0  0  0  0  0  0  0  0  0  0  0  0
   42.6950   20.3300   37.1480 C   0  0  0  0  0  0  0  0  0  0  0  0
   41.5690   21.0470   37.2570 N   0  0  0  0  0  0  0  0  0  0  0  0
   34.8060   29.8460   33.6920 C   0  0  0  0  0  0  0  0  0  0  0  0
   33.6990   29.4410   34.7050 C   0  0  0  0  0  0  0  0  0  0  0  0
   34.1410   30.0510   32.3710 C   0  0  0  0  0  0  0  0  0  0  0  0
   35.5060   31.0710   34.2110 C   0  0  0  0  0  0  0  0  0  0  0  0
   36.0090   31.8910   33.2300 N   0  0  0  0  0  0  0  0  0  0  0  0
   35.9100   31.7370   31.8670 C   0  0  0  0  0  0  0  0  0  0  0  0
   37.0970   32.5440   31.3140 C   0  0  0  0  0  0  0  0  0  0  0  0
   37.1370   33.7140   32.2640 C   0  0  0  0  0  0  0  0  0  0  0  0
   36.4420   33.2020   33.5180 C   0  0  0  0  0  0  0  0  0  0  0  0
   37.9283   25.5815   33.1560 H   0  0  0  0  0  0  0  0  0  0  0  0
   36.7034   26.5790   31.1573 H   0  0  0  0  0  0  0  0  0  0  0  0
   39.4806   22.3896   38.8968 H   0  0  0  0  0  0  0  0  0  0  0  0
   40.0539   24.1570   35.0626 H   0  0  0  0  0  0  0  0  0  0  0  0
   42.4276   23.9540   35.8149 H   0  0  0  0  0  0  0  0  0  0  0  0
   44.5129   22.6300   35.6111 H   0  0  0  0  0  0  0  0  0  0  0  0
   42.7417   19.3015   37.5353 H   0  0  0  0  0  0  0  0  0  0  0  0
   34.0726   29.5777   35.7305 H   0  0  0  0  0  0  0  0  0  0  0  0
   32.8119   30.0728   34.5507 H   0  0  0  0  0  0  0  0  0  0  0  0
   33.4290   28.3859   34.5507 H   0  0  0  0  0  0  0  0  0  0  0  0
   33.1008   30.3716   32.5300 H   0  0  0  0  0  0  0  0  0  0  0  0
   34.6807   30.8245   31.8049 H   0  0  0  0  0  0  0  0  0  0  0  0
   34.1515   29.1079   31.8049 H   0  0  0  0  0  0  0  0  0  0  0  0
   34.7883   31.6504   34.8103 H   0  0  0  0  0  0  0  0  0  0  0  0
   36.3659   30.7180   34.7992 H   0  0  0  0  0  0  0  0  0  0  0  0
   35.9934   30.6767   31.5863 H   0  0  0  0  0  0  0  0  0  0  0  0
   34.9431   32.0812   31.4712 H   0  0  0  0  0  0  0  0  0  0  0  0
   38.0303   31.9631   31.3531 H   0  0  0  0  0  0  0  0  0  0  0  0
   36.9905   32.8293   30.2570 H   0  0  0  0  0  0  0  0  0  0  0  0
   38.1755   34.0025   32.4839 H   0  0  0  0  0  0  0  0  0  0  0  0
   36.6513   34.6097   31.8494 H   0  0  0  0  0  0  0  0  0  0  0  0
   35.5809   33.8412   33.7629 H   0  0  0  0  0  0  0  0  0  0  0  0
   37.1219   33.2150   34.3826 H   0  0  0  0  0  0  0  0  0  0  0  0
  1  6  1  0
  1  7  1  0
  2  1  2  0
  3  4  2  0
  3  2  1  0
  4  5  1  0
  5 21  1  0
  5  6  2  0
  7  9  1  0
  7  8  2  0
  9 12  1  0
 11 10  1  0
 12 11  2  0
 13 12  1  0
 13 14  2  0
 14 10  1  0
 15 14  1  0
 15 20  1  0
 16 15  2  0
 17 16  1  0
 17 18  2  0
 18 19  1  0
 19 20  2  0
 21 24  1  0
 21 22  1  0
 23 21  1  0
 25 29  1  0
 25 24  1  0
 26 25  1  0
 27 26  1  0
 27 28  1  0
 28 29  1  0
  2 30  1  0
  3 31  1  0
 10 32  1  0
 13 33  1  0
 16 34  1  0
 17 35  1  0
 19 36  1  0
 22 37  1  0
 22 38  1  0
 22 39  1  0
 23 40  1  0
 23 41  1  0
 23 42  1  0
 24 43  1  0
 24 44  1  0
 26 45  1  0
 26 46  1  0
 27 47  1  0
 27 48  1  0
 28 49  1  0
 28 50  1  0
 29 51  1  0
 29 52  1  0
M  ISO  8  30  14  31  14  32   9  33  14  34  14  35  14  36  14  37   8
M  ISO  8  38   8  39   8  40   8  41   8  42   8  43   8  44   8  45  13
M  ISO  7  46  13  47  13  48  13  49  13  50  13  51  13  52  13
M  END
>  <minimizedAffinity>  (1) 
-5.59578562

>  <minimizedRMSD>  (1) 
2.02640295

$$$$
