
     RDKit          3D

 41 43  0  0  0  0  0  0  0  0999 V2000
   37.1530   26.6900   34.3170 C   0  0  0  0  0  0  0  0  0  0  0  0
   37.2230   25.7630   33.2800 C   0  0  0  0  0  0  0  0  0  0  0  0
   36.6140   26.0890   32.0550 C   0  0  0  0  0  0  0  0  0  0  0  0
   35.9990   27.2850   31.9650 N   0  0  0  0  0  0  0  0  0  0  0  0
   35.9420   28.1640   32.9720 C   0  0  0  0  0  0  0  0  0  0  0  0
   36.5220   27.8770   34.1680 N   0  0  0  0  0  0  0  0  0  0  0  0
   37.7900   26.3510   35.5940 C   0  0  0  0  0  0  0  0  0  0  0  0
   38.6280   27.1310   36.0860 O   0  0  0  0  0  0  0  0  0  0  0  0
   37.4420   25.1740   36.2190 O   0  0  0  0  0  0  0  0  0  0  0  0
   39.3620   22.9040   38.1330 N   0  0  0  0  0  0  0  0  0  0  0  0
   38.3100   23.6940   37.9110 N   0  0  0  0  0  0  0  0  0  0  0  0
   38.4360   24.2830   36.6900 C   0  0  0  0  0  0  0  0  0  0  0  0
   39.6000   23.8520   36.1260 C   0  0  0  0  0  0  0  0  0  0  0  0
   40.1470   23.0000   37.0430 C   0  0  0  0  0  0  0  0  0  0  0  0
   41.4400   22.2850   36.8460 C   0  0  0  0  0  0  0  0  0  0  0  0
   42.4840   22.9310   36.2140 C   0  0  0  0  0  0  0  0  0  0  0  0
   43.6300   22.1840   36.0840 C   0  0  0  0  0  0  0  0  0  0  0  0
   43.8010   20.9030   36.5170 N   0  0  0  0  0  0  0  0  0  0  0  0
   42.7350   20.3190   37.1330 C   0  0  0  0  0  0  0  0  0  0  0  0
   41.5950   21.0120   37.2830 N   0  0  0  0  0  0  0  0  0  0  0  0
   35.2420   29.4560   32.7810 C   0  0  0  0  0  0  0  0  0  0  0  0
   35.6640   30.3770   33.9060 C   0  0  0  0  0  0  0  0  0  0  0  0
   33.7590   29.1880   32.8640 C   0  0  0  0  0  0  0  0  0  0  0  0
   35.5910   30.0760   31.4340 C   0  0  0  0  0  0  0  0  0  0  0  0
   36.9640   29.8620   31.2400 O   0  0  0  0  0  0  0  0  0  0  0  0
   37.7406   24.8019   33.4154 H   0  0  0  0  0  0  0  0  0  0  0  0
   36.6386   25.3942   31.2025 H   0  0  0  0  0  0  0  0  0  0  0  0
   39.5388   22.3335   38.9721 H   0  0  0  0  0  0  0  0  0  0  0  0
   40.0103   24.1304   35.1441 H   0  0  0  0  0  0  0  0  0  0  0  0
   42.4045   23.9636   35.8433 H   0  0  0  0  0  0  0  0  0  0  0  0
   44.4860   22.6627   35.5859 H   0  0  0  0  0  0  0  0  0  0  0  0
   42.8081   19.2864   37.5050 H   0  0  0  0  0  0  0  0  0  0  0  0
   35.4452   29.8994   34.8725 H   0  0  0  0  0  0  0  0  0  0  0  0
   36.7432   30.5763   33.8315 H   0  0  0  0  0  0  0  0  0  0  0  0
   35.1102   31.3245   33.8315 H   0  0  0  0  0  0  0  0  0  0  0  0
   33.4549   29.1330   33.9197 H   0  0  0  0  0  0  0  0  0  0  0  0
   33.2109   30.0017   32.3664 H   0  0  0  0  0  0  0  0  0  0  0  0
   33.5304   28.2340   32.3664 H   0  0  0  0  0  0  0  0  0  0  0  0
   35.0141   29.5921   30.6321 H   0  0  0  0  0  0  0  0  0  0  0  0
   35.3494   31.1490   31.4157 H   0  0  0  0  0  0  0  0  0  0  0  0
   37.4144   29.7918   32.1188 H   0  0  0  0  0  0  0  0  0  0  0  0
  1  7  1  0
  2  1  2  0
  3  2  1  0
  4  3  2  0
  4  5  1  0
  5  6  2  0
  6  1  1  0
  7  8  2  0
  7  9  1  0
  9 12  1  0
 11 10  1  0
 12 11  2  0
 13 12  1  0
 13 14  2  0
 14 10  1  0
 15 14  1  0
 15 20  1  0
 16 15  2  0
 17 16  1  0
 17 18  2  0
 18 19  1  0
 19 20  2  0
 21 23  1  0
 21  5  1  0
 21 22  1  0
 24 21  1  0
 25 24  1  0
  2 26  1  0
  3 27  1  0
 10 28  1  0
 13 29  1  0
 16 30  1  0
 17 31  1  0
 19 32  1  0
 22 33  1  0
 22 34  1  0
 22 35  1  0
 23 36  1  0
 23 37  1  0
 23 38  1  0
 24 39  1  0
 24 40  1  0
 25 41  1  0
M  ISO  8  26  14  27  14  28   9  29  14  30  14  31  14  32  14  33   8
M  ISO  8  34   8  35   8  36   8  37   8  38   8  39   8  40   8  41   3
M  END
>  <minimizedAffinity>  (1) 
-5.35281754

>  <minimizedRMSD>  (1) 
0.497695416

$$$$
