
     RDKit          3D

 54 57  0  0  0  0  0  0  0  0999 V2000
   37.1790   26.6440   34.2980 C   0  0  0  0  0  0  0  0  0  0  0  0
   37.2520   25.6520   33.3090 C   0  0  0  0  0  0  0  0  0  0  0  0
   36.6560   25.9270   32.0720 C   0  0  0  0  0  0  0  0  0  0  0  0
   36.0550   27.1190   31.9120 N   0  0  0  0  0  0  0  0  0  0  0  0
   35.9970   28.0500   32.8670 C   0  0  0  0  0  0  0  0  0  0  0  0
   36.5650   27.8260   34.0930 N   0  0  0  0  0  0  0  0  0  0  0  0
   37.8030   26.3590   35.5980 C   0  0  0  0  0  0  0  0  0  0  0  0
   38.6430   27.1600   36.0580 O   0  0  0  0  0  0  0  0  0  0  0  0
   37.4400   25.2160   36.2740 O   0  0  0  0  0  0  0  0  0  0  0  0
   39.3340   22.8910   38.1490 N   0  0  0  0  0  0  0  0  0  0  0  0
   38.2950   23.7090   37.9500 N   0  0  0  0  0  0  0  0  0  0  0  0
   38.4090   24.3030   36.7330 C   0  0  0  0  0  0  0  0  0  0  0  0
   39.5530   23.8440   36.1500 C   0  0  0  0  0  0  0  0  0  0  0  0
   40.0970   22.9790   37.0440 C   0  0  0  0  0  0  0  0  0  0  0  0
   41.3640   22.2350   36.8270 C   0  0  0  0  0  0  0  0  0  0  0  0
   42.3300   22.7620   35.9920 C   0  0  0  0  0  0  0  0  0  0  0  0
   43.4670   22.0090   35.8490 C   0  0  0  0  0  0  0  0  0  0  0  0
   43.7110   20.8170   36.4470 N   0  0  0  0  0  0  0  0  0  0  0  0
   42.7250   20.3340   37.2640 C   0  0  0  0  0  0  0  0  0  0  0  0
   41.6010   21.0540   37.4210 N   0  0  0  0  0  0  0  0  0  0  0  0
   35.3140   29.3380   32.6110 C   0  0  0  0  0  0  0  0  0  0  0  0
   35.8330   30.3450   33.6030 C   0  0  0  0  0  0  0  0  0  0  0  0
   33.8390   29.1230   32.8130 C   0  0  0  0  0  0  0  0  0  0  0  0
   35.5770   29.8200   31.1910 C   0  0  0  0  0  0  0  0  0  0  0  0
   36.7130   30.6520   31.2550 O   0  0  0  0  0  0  0  0  0  0  0  0
   37.5050   30.5140   30.1270 C   0  0  0  0  0  0  0  0  0  0  0  0
   37.0290   31.4520   29.0560 C   0  0  0  0  0  0  0  0  0  0  0  0
   37.6730   30.8870   27.8080 C   0  0  0  0  0  0  0  0  0  0  0  0
   38.0610   29.4490   28.1330 C   0  0  0  0  0  0  0  0  0  0  0  0
   37.3680   29.1650   29.4730 C   0  0  0  0  0  0  0  0  0  0  0  0
   37.7584   24.6940   33.4980 H   0  0  0  0  0  0  0  0  0  0  0  0
   36.6789   25.1899   31.2558 H   0  0  0  0  0  0  0  0  0  0  0  0
   39.5140   22.3105   38.9806 H   0  0  0  0  0  0  0  0  0  0  0  0
   39.9518   24.1174   35.1619 H   0  0  0  0  0  0  0  0  0  0  0  0
   42.1958   23.7237   35.4751 H   0  0  0  0  0  0  0  0  0  0  0  0
   44.2519   22.4081   35.1897 H   0  0  0  0  0  0  0  0  0  0  0  0
   42.8503   19.3725   37.7835 H   0  0  0  0  0  0  0  0  0  0  0  0
   35.6464   29.9829   34.6248 H   0  0  0  0  0  0  0  0  0  0  0  0
   36.9142   30.4824   33.4544 H   0  0  0  0  0  0  0  0  0  0  0  0
   35.3175   31.3053   33.4544 H   0  0  0  0  0  0  0  0  0  0  0  0
   33.6173   29.0907   33.8899 H   0  0  0  0  0  0  0  0  0  0  0  0
   33.2810   29.9493   32.3484 H   0  0  0  0  0  0  0  0  0  0  0  0
   33.5401   28.1718   32.3484 H   0  0  0  0  0  0  0  0  0  0  0  0
   34.7119   30.3862   30.8155 H   0  0  0  0  0  0  0  0  0  0  0  0
   35.7415   28.9739   30.5076 H   0  0  0  0  0  0  0  0  0  0  0  0
   38.5323   30.6939   30.4767 H   0  0  0  0  0  0  0  0  0  0  0  0
   35.9319   31.4394   28.9766 H   0  0  0  0  0  0  0  0  0  0  0  0
   37.2941   32.5024   29.2465 H   0  0  0  0  0  0  0  0  0  0  0  0
   38.5669   31.4712   27.5441 H   0  0  0  0  0  0  0  0  0  0  0  0
   36.9840   30.9288   26.9515 H   0  0  0  0  0  0  0  0  0  0  0  0
   37.6997   28.7619   27.3537 H   0  0  0  0  0  0  0  0  0  0  0  0
   39.1507   29.3082   28.1843 H   0  0  0  0  0  0  0  0  0  0  0  0
   36.3137   28.8826   29.3359 H   0  0  0  0  0  0  0  0  0  0  0  0
   37.7911   28.3265   30.0457 H   0  0  0  0  0  0  0  0  0  0  0  0
  1  7  1  0
  2  1  2  0
  3  2  1  0
  4  3  2  0
  4  5  1  0
  5  6  2  0
  6  1  1  0
  7  8  2  0
  7  9  1  0
  9 12  1  0
 11 10  1  0
 12 11  2  0
 13 12  1  0
 13 14  2  0
 14 10  1  0
 15 14  1  0
 15 20  1  0
 16 15  2  0
 17 16  1  0
 17 18  2  0
 18 19  1  0
 19 20  2  0
 21 23  1  0
 21  5  1  0
 21 22  1  0
 24 25  1  0
 24 21  1  0
 26 25  1  0
 27 26  1  0
 28 29  1  0
 28 27  1  0
 29 30  1  0
 30 26  1  0
  2 31  1  0
  3 32  1  0
 10 33  1  0
 13 34  1  0
 16 35  1  0
 17 36  1  0
 19 37  1  0
 22 38  1  0
 22 39  1  0
 22 40  1  0
 23 41  1  0
 23 42  1  0
 23 43  1  0
 24 44  1  0
 24 45  1  0
 26 46  1  0
 27 47  1  0
 27 48  1  0
 28 49  1  0
 28 50  1  0
 29 51  1  0
 29 52  1  0
 30 53  1  0
 30 54  1  0
M  ISO  8  31  14  32  14  33   9  34  14  35  14  36  14  37  14  38   8
M  ISO  8  39   8  40   8  41   8  42   8  43   8  44   8  45   8  46  13
M  ISO  8  47  13  48  13  49  13  50  13  51  13  52  13  53  13  54  13
M  END
>  <minimizedAffinity>  (1) 
-5.65108824

>  <minimizedRMSD>  (1) 
0.456280172

$$$$
