
     RDKit          3D

 53 55  0  0  0  0  0  0  0  0999 V2000
   37.1440   26.7270   34.3020 C   0  0  0  0  0  0  0  0  0  0  0  0
   37.2430   25.8220   33.2440 C   0  0  0  0  0  0  0  0  0  0  0  0
   36.6280   26.1600   32.0300 C   0  0  0  0  0  0  0  0  0  0  0  0
   35.9790   27.3420   31.9610 N   0  0  0  0  0  0  0  0  0  0  0  0
   35.8940   28.1950   32.9840 C   0  0  0  0  0  0  0  0  0  0  0  0
   36.4750   27.9010   34.1720 N   0  0  0  0  0  0  0  0  0  0  0  0
   37.7850   26.3790   35.5790 C   0  0  0  0  0  0  0  0  0  0  0  0
   38.6300   27.1550   36.0640 O   0  0  0  0  0  0  0  0  0  0  0  0
   37.4340   25.2090   36.1990 O   0  0  0  0  0  0  0  0  0  0  0  0
   39.3360   22.9260   38.1140 N   0  0  0  0  0  0  0  0  0  0  0  0
   38.2860   23.7210   37.8890 N   0  0  0  0  0  0  0  0  0  0  0  0
   38.4120   24.3180   36.6760 C   0  0  0  0  0  0  0  0  0  0  0  0
   39.5850   23.8830   36.1180 C   0  0  0  0  0  0  0  0  0  0  0  0
   40.1280   23.0250   37.0330 C   0  0  0  0  0  0  0  0  0  0  0  0
   41.4170   22.3120   36.8390 C   0  0  0  0  0  0  0  0  0  0  0  0
   42.4570   22.9500   36.2060 C   0  0  0  0  0  0  0  0  0  0  0  0
   43.6060   22.2000   36.0780 C   0  0  0  0  0  0  0  0  0  0  0  0
   43.7730   20.9300   36.5170 N   0  0  0  0  0  0  0  0  0  0  0  0
   42.7080   20.3480   37.1370 C   0  0  0  0  0  0  0  0  0  0  0  0
   41.5660   21.0420   37.2850 N   0  0  0  0  0  0  0  0  0  0  0  0
   35.1620   29.4610   32.8100 C   0  0  0  0  0  0  0  0  0  0  0  0
   35.5540   30.3800   33.9460 C   0  0  0  0  0  0  0  0  0  0  0  0
   33.6850   29.1610   32.8890 C   0  0  0  0  0  0  0  0  0  0  0  0
   35.5020   30.1310   31.4730 C   0  0  0  0  0  0  0  0  0  0  0  0
   36.6950   30.8070   31.6560 O   0  0  0  0  0  0  0  0  0  0  0  0
   36.7810   32.0330   31.0380 C   0  0  0  0  0  0  0  0  0  0  0  0
   37.7770   32.0570   29.9000 C   0  0  0  0  0  0  0  0  0  0  0  0
   35.4340   32.2980   30.3920 C   0  0  0  0  0  0  0  0  0  0  0  0
   37.0560   33.1890   31.9530 C   0  0  0  0  0  0  0  0  0  0  0  0
   37.7868   24.8728   33.3590 H   0  0  0  0  0  0  0  0  0  0  0  0
   36.6728   25.4847   31.1628 H   0  0  0  0  0  0  0  0  0  0  0  0
   39.5051   22.3505   38.9513 H   0  0  0  0  0  0  0  0  0  0  0  0
   40.0020   24.1648   35.1399 H   0  0  0  0  0  0  0  0  0  0  0  0
   42.3781   23.9808   35.8302 H   0  0  0  0  0  0  0  0  0  0  0  0
   44.4619   22.6743   35.5755 H   0  0  0  0  0  0  0  0  0  0  0  0
   42.7822   19.3172   37.5139 H   0  0  0  0  0  0  0  0  0  0  0  0
   35.3435   29.8864   34.9062 H   0  0  0  0  0  0  0  0  0  0  0  0
   36.6279   30.6085   33.8789 H   0  0  0  0  0  0  0  0  0  0  0  0
   34.9757   31.3133   33.8789 H   0  0  0  0  0  0  0  0  0  0  0  0
   33.3794   29.0989   33.9439 H   0  0  0  0  0  0  0  0  0  0  0  0
   33.1208   29.9629   32.3904 H   0  0  0  0  0  0  0  0  0  0  0  0
   33.4783   28.2025   32.3904 H   0  0  0  0  0  0  0  0  0  0  0  0
   34.7068   30.8363   31.1900 H   0  0  0  0  0  0  0  0  0  0  0  0
   35.5905   29.3852   30.6693 H   0  0  0  0  0  0  0  0  0  0  0  0
   38.7985   32.0816   30.3073 H   0  0  0  0  0  0  0  0  0  0  0  0
   37.6501   31.1555   29.2825 H   0  0  0  0  0  0  0  0  0  0  0  0
   37.6068   32.9513   29.2825 H   0  0  0  0  0  0  0  0  0  0  0  0
   34.6752   32.4473   31.1743 H   0  0  0  0  0  0  0  0  0  0  0  0
   35.4985   33.2007   29.7667 H   0  0  0  0  0  0  0  0  0  0  0  0
   35.1517   31.4382   29.7667 H   0  0  0  0  0  0  0  0  0  0  0  0
   36.9768   32.8561   32.9984 H   0  0  0  0  0  0  0  0  0  0  0  0
   38.0702   33.5716   31.7659 H   0  0  0  0  0  0  0  0  0  0  0  0
   36.3227   33.9873   31.7659 H   0  0  0  0  0  0  0  0  0  0  0  0
  1  7  1  0
  2  1  2  0
  3  2  1  0
  4  3  2  0
  4  5  1  0
  5  6  2  0
  6  1  1  0
  7  8  2  0
  7  9  1  0
  9 12  1  0
 11 10  1  0
 12 11  2  0
 13 12  1  0
 13 14  2  0
 14 10  1  0
 15 14  1  0
 15 20  1  0
 16 15  2  0
 17 16  1  0
 17 18  2  0
 18 19  1  0
 19 20  2  0
 21 23  1  0
 21  5  1  0
 21 22  1  0
 24 25  1  0
 24 21  1  0
 26 25  1  0
 26 29  1  0
 27 26  1  0
 28 26  1  0
  2 30  1  0
  3 31  1  0
 10 32  1  0
 13 33  1  0
 16 34  1  0
 17 35  1  0
 19 36  1  0
 22 37  1  0
 22 38  1  0
 22 39  1  0
 23 40  1  0
 23 41  1  0
 23 42  1  0
 24 43  1  0
 24 44  1  0
 27 45  1  0
 27 46  1  0
 27 47  1  0
 28 48  1  0
 28 49  1  0
 28 50  1  0
 29 51  1  0
 29 52  1  0
 29 53  1  0
M  ISO  8  30  14  31  14  32   9  33  14  34  14  35  14  36  14  37   8
M  ISO  8  38   8  39   8  40   8  41   8  42   8  43   8  44   8  45   8
M  ISO  8  46   8  47   8  48   8  49   8  50   8  51   8  52   8  53   8
M  END
>  <minimizedAffinity>  (1) 
-5.45883608

>  <minimizedRMSD>  (1) 
0.931109488

$$$$
