
     RDKit          3D

 45 47  0  0  0  0  0  0  0  0999 V2000
   37.1660   26.6460   34.2880 C   0  0  0  0  0  0  0  0  0  0  0  0
   37.1950   25.6540   33.2990 C   0  0  0  0  0  0  0  0  0  0  0  0
   36.5730   25.9300   32.0740 C   0  0  0  0  0  0  0  0  0  0  0  0
   35.9820   27.1310   31.9180 N   0  0  0  0  0  0  0  0  0  0  0  0
   35.9630   28.0660   32.8750 C   0  0  0  0  0  0  0  0  0  0  0  0
   36.5580   27.8340   34.0790 N   0  0  0  0  0  0  0  0  0  0  0  0
   37.8110   26.3690   35.5660 C   0  0  0  0  0  0  0  0  0  0  0  0
   38.6690   27.1480   36.0070 O   0  0  0  0  0  0  0  0  0  0  0  0
   37.4520   25.2400   36.2640 O   0  0  0  0  0  0  0  0  0  0  0  0
   39.3360   22.9030   38.1400 N   0  0  0  0  0  0  0  0  0  0  0  0
   38.3080   23.7200   37.9380 N   0  0  0  0  0  0  0  0  0  0  0  0
   38.4290   24.3150   36.7210 C   0  0  0  0  0  0  0  0  0  0  0  0
   39.5690   23.8580   36.1420 C   0  0  0  0  0  0  0  0  0  0  0  0
   40.1150   22.9860   37.0350 C   0  0  0  0  0  0  0  0  0  0  0  0
   41.3780   22.2450   36.8110 C   0  0  0  0  0  0  0  0  0  0  0  0
   42.3360   22.7550   35.9740 C   0  0  0  0  0  0  0  0  0  0  0  0
   43.4700   22.0040   35.8270 C   0  0  0  0  0  0  0  0  0  0  0  0
   43.7050   20.8160   36.4390 N   0  0  0  0  0  0  0  0  0  0  0  0
   42.7210   20.3380   37.2690 C   0  0  0  0  0  0  0  0  0  0  0  0
   41.5970   21.0560   37.4320 N   0  0  0  0  0  0  0  0  0  0  0  0
   35.2890   29.3560   32.6090 C   0  0  0  0  0  0  0  0  0  0  0  0
   35.8580   30.3710   33.5870 C   0  0  0  0  0  0  0  0  0  0  0  0
   33.8100   29.1610   32.8850 C   0  0  0  0  0  0  0  0  0  0  0  0
   35.5140   29.8320   31.1890 C   0  0  0  0  0  0  0  0  0  0  0  0
   36.8920   29.9280   31.0100 O   0  0  0  0  0  0  0  0  0  0  0  0
   37.5530   29.4800   29.8740 C   0  0  0  0  0  0  0  0  0  0  0  0
   37.0420   28.3450   29.1850 N   0  0  0  0  0  0  0  0  0  0  0  0
   38.5860   30.0380   29.4320 O   0  0  0  0  0  0  0  0  0  0  0  0
   37.6906   24.6885   33.4785 H   0  0  0  0  0  0  0  0  0  0  0  0
   36.5673   25.1873   31.2626 H   0  0  0  0  0  0  0  0  0  0  0  0
   39.5069   22.3212   38.9726 H   0  0  0  0  0  0  0  0  0  0  0  0
   39.9691   24.1348   35.1554 H   0  0  0  0  0  0  0  0  0  0  0  0
   42.2009   23.7130   35.4506 H   0  0  0  0  0  0  0  0  0  0  0  0
   44.2530   22.3940   35.1601 H   0  0  0  0  0  0  0  0  0  0  0  0
   42.8512   19.3799   37.7935 H   0  0  0  0  0  0  0  0  0  0  0  0
   35.6690   30.0338   34.6168 H   0  0  0  0  0  0  0  0  0  0  0  0
   36.9418   30.4677   33.4260 H   0  0  0  0  0  0  0  0  0  0  0  0
   35.3750   31.3461   33.4260 H   0  0  0  0  0  0  0  0  0  0  0  0
   33.6396   29.1385   33.9715 H   0  0  0  0  0  0  0  0  0  0  0  0
   33.2416   29.9920   32.4418 H   0  0  0  0  0  0  0  0  0  0  0  0
   33.4764   28.2111   32.4418 H   0  0  0  0  0  0  0  0  0  0  0  0
   35.0889   29.1103   30.4759 H   0  0  0  0  0  0  0  0  0  0  0  0
   35.0251   30.8021   31.0159 H   0  0  0  0  0  0  0  0  0  0  0  0
   37.5184   27.9977   28.3404 H   0  0  0  0  0  0  0  0  0  0  0  0
   36.1957   27.8706   29.5308 H   0  0  0  0  0  0  0  0  0  0  0  0
  1  7  1  0
  2  1  2  0
  3  2  1  0
  4  3  2  0
  4  5  1  0
  5  6  2  0
  6  1  1  0
  7  8  2  0
  7  9  1  0
  9 12  1  0
 11 10  1  0
 12 11  2  0
 13 12  1  0
 13 14  2  0
 14 10  1  0
 15 14  1  0
 15 20  1  0
 16 15  2  0
 17 16  1  0
 17 18  2  0
 18 19  1  0
 19 20  2  0
 21  5  1  0
 21 23  1  0
 21 22  1  0
 24 21  1  0
 25 24  1  0
 26 25  1  0
 27 26  1  0
 28 26  2  0
  2 29  1  0
  3 30  1  0
 10 31  1  0
 13 32  1  0
 16 33  1  0
 17 34  1  0
 19 35  1  0
 22 36  1  0
 22 37  1  0
 22 38  1  0
 23 39  1  0
 23 40  1  0
 23 41  1  0
 24 42  1  0
 24 43  1  0
 27 44  1  0
 27 45  1  0
M  ISO  8  29  14  30  14  31   9  32  14  33  14  34  14  35  14  36   8
M  ISO  7  37   8  38   8  39   8  40   8  41   8  42   8  43   8
M  END
>  <minimizedAffinity>  (1) 
-5.49638844

>  <minimizedRMSD>  (1) 
0.471484929

$$$$
