
     RDKit          3D

 43 45  0  0  0  0  0  0  0  0999 V2000
   37.1470   26.9070   34.5600 C   0  0  0  0  0  0  0  0  0  0  0  0
   37.2720   26.1870   33.3730 C   0  0  0  0  0  0  0  0  0  0  0  0
   36.6370   26.6800   32.2200 C   0  0  0  0  0  0  0  0  0  0  0  0
   35.9430   27.8270   32.3380 N   0  0  0  0  0  0  0  0  0  0  0  0
   35.8310   28.5070   33.4820 C   0  0  0  0  0  0  0  0  0  0  0  0
   36.4360   28.0530   34.6170 N   0  0  0  0  0  0  0  0  0  0  0  0
   37.8100   26.3860   35.7520 C   0  0  0  0  0  0  0  0  0  0  0  0
   38.6850   27.0800   36.3160 O   0  0  0  0  0  0  0  0  0  0  0  0
   37.4670   25.1540   36.2340 O   0  0  0  0  0  0  0  0  0  0  0  0
   39.3750   22.8490   38.1240 N   0  0  0  0  0  0  0  0  0  0  0  0
   38.3390   23.6570   37.9130 N   0  0  0  0  0  0  0  0  0  0  0  0
   38.4580   24.2430   36.6910 C   0  0  0  0  0  0  0  0  0  0  0  0
   39.6100   23.7900   36.1050 C   0  0  0  0  0  0  0  0  0  0  0  0
   40.1480   22.9370   37.0130 C   0  0  0  0  0  0  0  0  0  0  0  0
   41.4280   22.1940   36.8030 C   0  0  0  0  0  0  0  0  0  0  0  0
   42.3950   22.7390   35.9850 C   0  0  0  0  0  0  0  0  0  0  0  0
   43.5330   21.9820   35.8560 C   0  0  0  0  0  0  0  0  0  0  0  0
   43.7680   20.7880   36.4500 N   0  0  0  0  0  0  0  0  0  0  0  0
   42.7730   20.3020   37.2480 C   0  0  0  0  0  0  0  0  0  0  0  0
   41.6390   21.0070   37.4050 N   0  0  0  0  0  0  0  0  0  0  0  0
   35.0440   29.7610   33.5100 C   0  0  0  0  0  0  0  0  0  0  0  0
   35.6540   30.6470   34.5830 C   0  0  0  0  0  0  0  0  0  0  0  0
   33.6330   29.4090   33.8920 C   0  0  0  0  0  0  0  0  0  0  0  0
   35.0780   30.4790   32.1720 C   0  0  0  0  0  0  0  0  0  0  0  0
   36.2310   31.2780   32.1850 O   0  0  0  0  0  0  0  0  0  0  0  0
   36.8000   31.7560   31.0170 C   0  0  0  0  0  0  0  0  0  0  0  0
   37.5090   32.7950   31.0000 O   0  0  0  0  0  0  0  0  0  0  0  0
   37.8543   25.2543   33.3394 H   0  0  0  0  0  0  0  0  0  0  0  0
   36.7046   26.1491   31.2590 H   0  0  0  0  0  0  0  0  0  0  0  0
   39.5534   22.2743   38.9600 H   0  0  0  0  0  0  0  0  0  0  0  0
   40.0108   24.0584   35.1164 H   0  0  0  0  0  0  0  0  0  0  0  0
   42.2648   23.7051   35.4755 H   0  0  0  0  0  0  0  0  0  0  0  0
   44.3280   22.3827   35.2099 H   0  0  0  0  0  0  0  0  0  0  0  0
   42.8985   19.3370   37.7608 H   0  0  0  0  0  0  0  0  0  0  0  0
   35.3859   30.2576   35.5762 H   0  0  0  0  0  0  0  0  0  0  0  0
   36.7487   30.6531   34.4748 H   0  0  0  0  0  0  0  0  0  0  0  0
   35.2691   31.6718   34.4748 H   0  0  0  0  0  0  0  0  0  0  0  0
   33.5446   29.3869   34.9882 H   0  0  0  0  0  0  0  0  0  0  0  0
   32.9437   30.1627   33.4836 H   0  0  0  0  0  0  0  0  0  0  0  0
   33.3785   28.4198   33.4836 H   0  0  0  0  0  0  0  0  0  0  0  0
   34.1816   31.1052   32.0526 H   0  0  0  0  0  0  0  0  0  0  0  0
   35.0945   29.7656   31.3349 H   0  0  0  0  0  0  0  0  0  0  0  0
   36.6272   31.2117   30.0769 H   0  0  0  0  0  0  0  0  0  0  0  0
  1  6  1  0
  1  7  1  0
  2  1  2  0
  3  4  2  0
  3  2  1  0
  4  5  1  0
  5 21  1  0
  5  6  2  0
  7  9  1  0
  7  8  2  0
  9 12  1  0
 11 10  1  0
 12 11  2  0
 13 12  1  0
 13 14  2  0
 14 10  1  0
 15 14  1  0
 15 20  1  0
 16 15  2  0
 17 16  1  0
 17 18  2  0
 18 19  1  0
 19 20  2  0
 21 23  1  0
 21 22  1  0
 24 25  1  0
 24 21  1  0
 26 25  1  0
 27 26  2  0
  2 28  1  0
  3 29  1  0
 10 30  1  0
 13 31  1  0
 16 32  1  0
 17 33  1  0
 19 34  1  0
 22 35  1  0
 22 36  1  0
 22 37  1  0
 23 38  1  0
 23 39  1  0
 23 40  1  0
 24 41  1  0
 24 42  1  0
 26 43  1  0
M  ISO  8  28  14  29  14  30   9  31  14  32  14  33  14  34  14  35   8
M  ISO  8  36   8  37   8  38   8  39   8  40   8  41   8  42   8  43   6
M  END
>  <minimizedAffinity>  (1) 
-5.18878984

>  <minimizedRMSD>  (1) 
0.880025089

$$$$
