
     RDKit          3D

 28 29  0  0  0  0  0  0  0  0999 V2000
   36.4790   21.3020   33.7240 C   0  0  0  0  0  0  0  0  0  0  0  0
   36.8120   22.0100   32.5670 C   0  0  0  0  0  0  0  0  0  0  0  0
   37.8880   22.8790   32.6170 C   0  0  0  0  0  0  0  0  0  0  0  0
   38.5650   22.9920   33.8020 N   0  0  0  0  0  0  0  0  0  0  0  0
   38.2180   22.3020   34.8810 C   0  0  0  0  0  0  0  0  0  0  0  0
   37.1750   21.4490   34.8630 N   0  0  0  0  0  0  0  0  0  0  0  0
   39.0020   22.4970   36.0640 N   0  0  0  0  0  0  0  0  0  0  0  0
   40.0610   21.7390   36.1050 N   0  0  0  0  0  0  0  0  0  0  0  0
   40.7230   21.9960   37.2630 C   0  0  0  0  0  0  0  0  0  0  0  0
   40.0170   22.9640   37.9500 C   0  0  0  0  0  0  0  0  0  0  0  0
   38.9410   23.2620   37.1750 C   0  0  0  0  0  0  0  0  0  0  0  0
   35.3600   20.4120   33.6740 N   0  0  0  0  0  0  0  0  0  0  0  0
   37.8310   24.1900   37.3350 C   0  0  0  0  0  0  0  0  0  0  0  0
   37.8740   24.6520   38.7970 C   0  0  0  0  0  0  0  0  0  0  0  0
   38.1480   25.4440   36.5250 C   0  0  0  0  0  0  0  0  0  0  0  0
   36.2340   21.8803   31.6401 H   0  0  0  0  0  0  0  0  0  0  0  0
   38.1897   23.4603   31.7332 H   0  0  0  0  0  0  0  0  0  0  0  0
   41.6563   21.5177   37.5949 H   0  0  0  0  0  0  0  0  0  0  0  0
   40.2732   23.4039   38.9251 H   0  0  0  0  0  0  0  0  0  0  0  0
   34.8284   20.3017   32.7987 H   0  0  0  0  0  0  0  0  0  0  0  0
   35.0860   19.8816   34.5133 H   0  0  0  0  0  0  0  0  0  0  0  0
   36.8787   23.7270   37.0369 H   0  0  0  0  0  0  0  0  0  0  0  0
   37.7927   23.7782   39.4602 H   0  0  0  0  0  0  0  0  0  0  0  0
   38.8244   25.1713   38.9896 H   0  0  0  0  0  0  0  0  0  0  0  0
   37.0358   25.3378   38.9896 H   0  0  0  0  0  0  0  0  0  0  0  0
   38.3591   26.2789   37.2094 H   0  0  0  0  0  0  0  0  0  0  0  0
   39.0275   25.2583   35.8909 H   0  0  0  0  0  0  0  0  0  0  0  0
   37.2860   25.6986   35.8909 H   0  0  0  0  0  0  0  0  0  0  0  0
  1  6  2  0
  2  3  2  0
  2  1  1  0
  3  4  1  0
  4  5  2  0
  5  7  1  0
  6  5  1  0
  7  8  1  0
  7 11  1  0
  8  9  2  0
  9 10  1  0
 11 13  1  0
 11 10  2  0
 12  1  1  0
 13 14  1  0
 15 13  1  0
  2 16  1  0
  3 17  1  0
  9 18  1  0
 10 19  1  0
 12 20  1  0
 12 21  1  0
 13 22  1  0
 14 23  1  0
 14 24  1  0
 14 25  1  0
 15 26  1  0
 15 27  1  0
 15 28  1  0
M  ISO  8  16  14  17  14  18  14  19  14  22   8  23   8  24   8  25   8
M  ISO  3  26   8  27   8  28   8
M  END
>  <minimizedAffinity>  (1) 
-4.53031588

>  <minimizedRMSD>  (1) 
0.969586849

$$$$
