
     RDKit          3D

 22 23  0  0  0  0  0  0  0  0999 V2000
   36.4880   21.3440   33.8310 C   0  0  0  0  0  0  0  0  0  0  0  0
   36.7660   22.1400   32.7090 C   0  0  0  0  0  0  0  0  0  0  0  0
   37.7900   23.0890   32.8140 C   0  0  0  0  0  0  0  0  0  0  0  0
   38.4570   23.1810   34.0070 N   0  0  0  0  0  0  0  0  0  0  0  0
   38.1590   22.4060   35.0430 C   0  0  0  0  0  0  0  0  0  0  0  0
   37.1780   21.4860   34.9650 N   0  0  0  0  0  0  0  0  0  0  0  0
   38.9250   22.5900   36.2440 N   0  0  0  0  0  0  0  0  0  0  0  0
   40.0430   21.9150   36.2390 N   0  0  0  0  0  0  0  0  0  0  0  0
   40.6840   22.1610   37.4140 C   0  0  0  0  0  0  0  0  0  0  0  0
   39.9100   23.0250   38.1570 C   0  0  0  0  0  0  0  0  0  0  0  0
   38.7930   23.2880   37.3950 C   0  0  0  0  0  0  0  0  0  0  0  0
   35.4470   20.3850   33.7140 N   0  0  0  0  0  0  0  0  0  0  0  0
   37.6040   24.1090   37.5920 C   0  0  0  0  0  0  0  0  0  0  0  0
   36.1965   22.0218   31.7753 H   0  0  0  0  0  0  0  0  0  0  0  0
   38.0505   23.7396   31.9661 H   0  0  0  0  0  0  0  0  0  0  0  0
   41.6543   21.7416   37.7184 H   0  0  0  0  0  0  0  0  0  0  0  0
   40.1378   23.4241   39.1564 H   0  0  0  0  0  0  0  0  0  0  0  0
   34.9282   20.2934   32.8289 H   0  0  0  0  0  0  0  0  0  0  0  0
   35.2108   19.7811   34.5142 H   0  0  0  0  0  0  0  0  0  0  0  0
   37.4203   24.2358   38.6691 H   0  0  0  0  0  0  0  0  0  0  0  0
   37.7577   25.0943   37.1277 H   0  0  0  0  0  0  0  0  0  0  0  0
   36.7371   23.6162   37.1277 H   0  0  0  0  0  0  0  0  0  0  0  0
  1  6  2  0
  2  3  2  0
  2  1  1  0
  3  4  1  0
  4  5  2  0
  5  7  1  0
  6  5  1  0
  7 11  1  0
  8  7  1  0
  8  9  2  0
  9 10  1  0
 11 13  1  0
 11 10  2  0
 12  1  1  0
  2 14  1  0
  3 15  1  0
  9 16  1  0
 10 17  1  0
 12 18  1  0
 12 19  1  0
 13 20  1  0
 13 21  1  0
 13 22  1  0
M  ISO  7  14  14  15  14  16  14  17  14  20   8  21   8  22   8
M  END
>  <minimizedAffinity>  (1) 
-3.99110222

>  <minimizedRMSD>  (1) 
0.694201529

$$$$
