
     RDKit          3D

 26 27  0  0  0  0  0  0  0  0999 V2000
   36.3580   21.2770   33.9530 C   0  0  0  0  0  0  0  0  0  0  0  0
   36.0510   21.7410   32.6500 C   0  0  0  0  0  0  0  0  0  0  0  0
   36.9430   22.6070   32.0230 C   0  0  0  0  0  0  0  0  0  0  0  0
   38.0740   22.9590   32.7200 N   0  0  0  0  0  0  0  0  0  0  0  0
   38.3220   22.4920   33.9600 C   0  0  0  0  0  0  0  0  0  0  0  0
   37.4850   21.6650   34.5720 N   0  0  0  0  0  0  0  0  0  0  0  0
   39.5410   22.9310   34.5680 N   0  0  0  0  0  0  0  0  0  0  0  0
   40.5750   22.2170   34.2370 N   0  0  0  0  0  0  0  0  0  0  0  0
   41.6490   22.7640   34.8960 C   0  0  0  0  0  0  0  0  0  0  0  0
   41.2320   23.8440   35.6480 C   0  0  0  0  0  0  0  0  0  0  0  0
   39.8880   23.9390   35.4300 C   0  0  0  0  0  0  0  0  0  0  0  0
   35.4400   20.3960   34.5680 N   0  0  0  0  0  0  0  0  0  0  0  0
   38.9150   24.8270   35.9110 N   0  0  0  0  0  0  0  0  0  0  0  0
   38.8890   26.1810   35.4710 C   0  0  0  0  0  0  0  0  0  0  0  0
   39.3230   26.4770   34.2710 N   0  0  0  0  0  0  0  0  0  0  0  0
   38.3790   27.1780   36.3820 N   0  0  0  0  0  0  0  0  0  0  0  0
   39.2700   27.4900   34.0260 H   0  0  0  0  0  0  0  0  0  0  0  0
   35.1272   21.4237   32.1442 H   0  0  0  0  0  0  0  0  0  0  0  0
   36.7504   22.9936   31.0113 H   0  0  0  0  0  0  0  0  0  0  0  0
   42.6842   22.3972   34.8339 H   0  0  0  0  0  0  0  0  0  0  0  0
   41.8513   24.4906   36.2871 H   0  0  0  0  0  0  0  0  0  0  0  0
   34.5833   20.1149   34.0700 H   0  0  0  0  0  0  0  0  0  0  0  0
   35.6276   20.0350   35.5142 H   0  0  0  0  0  0  0  0  0  0  0  0
   38.2130   24.4969   36.5885 H   0  0  0  0  0  0  0  0  0  0  0  0
   38.3456   28.1672   36.0968 H   0  0  0  0  0  0  0  0  0  0  0  0
   38.0485   26.9002   37.3171 H   0  0  0  0  0  0  0  0  0  0  0  0
  1 12  1  0
  1  6  2  0
  2  1  1  0
  3  2  2  0
  3  4  1  0
  4  5  2  0
  5  7  1  0
  5  6  1  0
  7 11  1  0
  8  7  1  0
  8  9  2  0
  9 10  1  0
 11 10  2  0
 11 13  1  0
 14 13  1  0
 14 16  1  0
 15 14  2  0
 17 15  1  0
  2 18  1  0
  3 19  1  0
  9 20  1  0
 10 21  1  0
 12 22  1  0
 12 23  1  0
 13 24  1  0
 16 25  1  0
 16 26  1  0
M  ISO  4  18  14  19  14  20  14  21  14
M  END
>  <minimizedAffinity>  (1) 
-3.97490978

>  <minimizedRMSD>  (1) 
2.45893025

$$$$
