
     RDKit          3D

 31 32  0  0  0  0  0  0  0  0999 V2000
   36.8140   21.7260   33.3070 C   0  0  0  0  0  0  0  0  0  0  0  0
   36.9630   22.7560   32.3750 C   0  0  0  0  0  0  0  0  0  0  0  0
   37.9670   23.6970   32.5830 C   0  0  0  0  0  0  0  0  0  0  0  0
   38.7560   23.5570   33.6950 N   0  0  0  0  0  0  0  0  0  0  0  0
   38.5760   22.5480   34.5650 C   0  0  0  0  0  0  0  0  0  0  0  0
   37.6210   21.6480   34.3740 N   0  0  0  0  0  0  0  0  0  0  0  0
   39.4570   22.5060   35.6840 N   0  0  0  0  0  0  0  0  0  0  0  0
   40.5800   21.9230   35.4530 N   0  0  0  0  0  0  0  0  0  0  0  0
   41.3330   21.9440   36.5820 C   0  0  0  0  0  0  0  0  0  0  0  0
   40.6240   22.5770   37.5560 C   0  0  0  0  0  0  0  0  0  0  0  0
   39.4200   22.9380   36.9780 C   0  0  0  0  0  0  0  0  0  0  0  0
   35.7860   20.7620   33.0980 N   0  0  0  0  0  0  0  0  0  0  0  0
   38.2480   23.6330   37.4890 C   0  0  0  0  0  0  0  0  0  0  0  0
   36.9540   22.8760   37.2480 C   0  0  0  0  0  0  0  0  0  0  0  0
   38.2980   24.0520   38.9200 C   0  0  0  0  0  0  0  0  0  0  0  0
   38.1130   24.9260   36.6750 C   0  0  0  0  0  0  0  0  0  0  0  0
   36.3026   22.8216   31.4978 H   0  0  0  0  0  0  0  0  0  0  0  0
   38.1224   24.5266   31.8776 H   0  0  0  0  0  0  0  0  0  0  0  0
   42.3429   21.5219   36.6910 H   0  0  0  0  0  0  0  0  0  0  0  0
   40.9432   22.7636   38.5920 H   0  0  0  0  0  0  0  0  0  0  0  0
   35.1727   20.8337   32.2736 H   0  0  0  0  0  0  0  0  0  0  0  0
   35.6561   19.9934   33.7713 H   0  0  0  0  0  0  0  0  0  0  0  0
   36.4994   22.6101   38.2137 H   0  0  0  0  0  0  0  0  0  0  0  0
   36.2590   23.5100   36.6778 H   0  0  0  0  0  0  0  0  0  0  0  0
   37.1661   21.9595   36.6778 H   0  0  0  0  0  0  0  0  0  0  0  0
   38.1924   23.1672   39.5650 H   0  0  0  0  0  0  0  0  0  0  0  0
   39.2610   24.5424   39.1250 H   0  0  0  0  0  0  0  0  0  0  0  0
   37.4774   24.7553   39.1250 H   0  0  0  0  0  0  0  0  0  0  0  0
   38.0236   25.7825   37.3594 H   0  0  0  0  0  0  0  0  0  0  0  0
   39.0026   25.0547   36.0409 H   0  0  0  0  0  0  0  0  0  0  0  0
   37.2160   24.8681   36.0409 H   0  0  0  0  0  0  0  0  0  0  0  0
  1  6  2  0
  2  3  2  0
  2  1  1  0
  3  4  1  0
  4  5  2  0
  5  7  1  0
  6  5  1  0
  7 11  1  0
  8  7  1  0
  8  9  2  0
  9 10  1  0
 11 13  1  0
 11 10  2  0
 12  1  1  0
 13 15  1  0
 14 13  1  0
 16 13  1  0
  2 17  1  0
  3 18  1  0
  9 19  1  0
 10 20  1  0
 12 21  1  0
 12 22  1  0
 14 23  1  0
 14 24  1  0
 14 25  1  0
 15 26  1  0
 15 27  1  0
 15 28  1  0
 16 29  1  0
 16 30  1  0
 16 31  1  0
M  ISO  8  17  14  18  14  19  14  20  14  23   8  24   8  25   8  26   8
M  ISO  5  27   8  28   8  29   8  30   8  31   8
M  END
>  <minimizedAffinity>  (1) 
-4.40892935

>  <minimizedRMSD>  (1) 
1.49536812

$$$$
