
     RDKit          3D

 31 34  0  0  0  0  0  0  0  0999 V2000
   39.4960   24.5090   32.9350 C   0  0  0  0  0  0  0  0  0  0  0  0
   38.6360   25.5100   32.4490 C   0  0  0  0  0  0  0  0  0  0  0  0
   37.5950   25.9330   33.2520 C   0  0  0  0  0  0  0  0  0  0  0  0
   37.4580   25.3490   34.4850 N   0  0  0  0  0  0  0  0  0  0  0  0
   38.3020   24.3950   34.9120 C   0  0  0  0  0  0  0  0  0  0  0  0
   39.3220   23.9610   34.1590 N   0  0  0  0  0  0  0  0  0  0  0  0
   38.0510   23.8640   36.2190 N   0  0  0  0  0  0  0  0  0  0  0  0
   38.5700   24.5790   37.1760 N   0  0  0  0  0  0  0  0  0  0  0  0
   38.2710   23.9860   38.3630 C   0  0  0  0  0  0  0  0  0  0  0  0
   37.5390   22.8640   38.1100 C   0  0  0  0  0  0  0  0  0  0  0  0
   37.4070   22.7990   36.7450 C   0  0  0  0  0  0  0  0  0  0  0  0
   40.5700   24.0640   32.1170 N   0  0  0  0  0  0  0  0  0  0  0  0
   36.7670   21.8960   35.7850 C   0  0  0  0  0  0  0  0  0  0  0  0
   35.7460   21.0510   35.8910 N   0  0  0  0  0  0  0  0  0  0  0  0
   35.5260   20.4480   34.7590 O   0  0  0  0  0  0  0  0  0  0  0  0
   36.4330   20.9260   33.9120 C   0  0  0  0  0  0  0  0  0  0  0  0
   37.2330   21.8370   34.5130 N   0  0  0  0  0  0  0  0  0  0  0  0
   36.5070   20.4920   32.5470 N   0  0  0  0  0  0  0  0  0  0  0  0
   37.5930   20.9210   31.8860 N   0  0  0  0  0  0  0  0  0  0  0  0
   37.5470   20.4490   30.6170 C   0  0  0  0  0  0  0  0  0  0  0  0
   36.3950   19.7000   30.4790 C   0  0  0  0  0  0  0  0  0  0  0  0
   35.7600   19.7470   31.7140 C   0  0  0  0  0  0  0  0  0  0  0  0
   38.7891   25.9465   31.4510 H   0  0  0  0  0  0  0  0  0  0  0  0
   36.8979   26.7136   32.9132 H   0  0  0  0  0  0  0  0  0  0  0  0
   38.5690   24.3497   39.3575 H   0  0  0  0  0  0  0  0  0  0  0  0
   37.1363   22.1554   38.8488 H   0  0  0  0  0  0  0  0  0  0  0  0
   40.7108   24.4752   31.1832 H   0  0  0  0  0  0  0  0  0  0  0  0
   41.2074   23.3303   32.4581 H   0  0  0  0  0  0  0  0  0  0  0  0
   38.2968   20.6307   29.8329 H   0  0  0  0  0  0  0  0  0  0  0  0
   36.0507   19.1740   29.5764 H   0  0  0  0  0  0  0  0  0  0  0  0
   34.8079   19.2577   31.9670 H   0  0  0  0  0  0  0  0  0  0  0  0
  1  6  2  0
  2  1  1  0
  2  3  2  0
  3  4  1  0
  4  5  2  0
  5  7  1  0
  6  5  1  0
  7 11  1  0
  7  8  1  0
  8  9  2  0
 10  9  1  0
 11 10  2  0
 12  1  1  0
 13 14  2  0
 13 11  1  0
 15 14  1  0
 16 17  2  0
 16 15  1  0
 17 13  1  0
 18 16  1  0
 19 18  1  0
 20 19  2  0
 21 20  1  0
 21 22  2  0
 22 18  1  0
  2 23  1  0
  3 24  1  0
  9 25  1  0
 10 26  1  0
 12 27  1  0
 12 28  1  0
 20 29  1  0
 21 30  1  0
 22 31  1  0
M  ISO  7  23  14  24  14  25  14  26  14  29  14  30  14  31  14
M  END
>  <minimizedAffinity>  (1) 
-4.93931961

>  <minimizedRMSD>  (1) 
3.41081047

$$$$
