
     RDKit          3D

 30 32  0  0  0  0  0  0  0  0999 V2000
   39.6730   22.2990   37.3990 C   0  0  0  0  0  0  0  0  0  0  0  0
   39.0270   23.2110   38.2440 C   0  0  0  0  0  0  0  0  0  0  0  0
   37.8130   23.7570   37.8380 C   0  0  0  0  0  0  0  0  0  0  0  0
   37.3250   23.3600   36.6220 N   0  0  0  0  0  0  0  0  0  0  0  0
   37.9760   22.4850   35.8450 C   0  0  0  0  0  0  0  0  0  0  0  0
   39.1400   21.9460   36.2090 N   0  0  0  0  0  0  0  0  0  0  0  0
   37.3530   22.1560   34.5980 N   0  0  0  0  0  0  0  0  0  0  0  0
   36.4610   21.2150   34.6920 N   0  0  0  0  0  0  0  0  0  0  0  0
   35.9380   20.9820   33.4650 C   0  0  0  0  0  0  0  0  0  0  0  0
   36.5400   21.8210   32.5800 C   0  0  0  0  0  0  0  0  0  0  0  0
   37.4380   22.5640   33.3100 C   0  0  0  0  0  0  0  0  0  0  0  0
   40.9150   21.7390   37.8140 N   0  0  0  0  0  0  0  0  0  0  0  0
   38.4050   23.6270   33.0350 C   0  0  0  0  0  0  0  0  0  0  0  0
   39.6910   23.6030   32.7240 N   0  0  0  0  0  0  0  0  0  0  0  0
   40.1470   24.8190   32.5680 O   0  0  0  0  0  0  0  0  0  0  0  0
   39.1200   25.6220   32.7870 C   0  0  0  0  0  0  0  0  0  0  0  0
   38.0000   24.9270   33.0850 N   0  0  0  0  0  0  0  0  0  0  0  0
   39.2040   27.1230   32.7100 C   0  0  0  0  0  0  0  0  0  0  0  0
   37.9260   27.6520   32.1130 C   0  0  0  0  0  0  0  0  0  0  0  0
   39.4713   23.4904   39.2107 H   0  0  0  0  0  0  0  0  0  0  0  0
   37.2688   24.4767   38.4672 H   0  0  0  0  0  0  0  0  0  0  0  0
   35.1604   20.2418   33.2254 H   0  0  0  0  0  0  0  0  0  0  0  0
   36.3476   21.8911   31.4992 H   0  0  0  0  0  0  0  0  0  0  0  0
   41.4053   21.0668   37.2069 H   0  0  0  0  0  0  0  0  0  0  0  0
   41.3229   22.0062   38.7213 H   0  0  0  0  0  0  0  0  0  0  0  0
   39.3395   27.5378   33.7198 H   0  0  0  0  0  0  0  0  0  0  0  0
   40.0586   27.4173   32.0831 H   0  0  0  0  0  0  0  0  0  0  0  0
   37.2352   27.9379   32.9199 H   0  0  0  0  0  0  0  0  0  0  0  0
   38.1483   28.5320   31.4916 H   0  0  0  0  0  0  0  0  0  0  0  0
   37.4613   26.8723   31.4916 H   0  0  0  0  0  0  0  0  0  0  0  0
  1 12  1  0
  1  2  2  0
  3  2  1  0
  4  3  2  0
  5  6  2  0
  5  4  1  0
  6  1  1  0
  7  8  1  0
  7  5  1  0
  9  8  2  0
 10 11  2  0
 10  9  1  0
 11  7  1  0
 13 17  1  0
 13 11  1  0
 14 13  2  0
 15 14  1  0
 15 16  1  0
 16 17  2  0
 18 16  1  0
 19 18  1  0
  2 20  1  0
  3 21  1  0
  9 22  1  0
 10 23  1  0
 12 24  1  0
 12 25  1  0
 18 26  1  0
 18 27  1  0
 19 28  1  0
 19 29  1  0
 19 30  1  0
M  ISO  8  20  14  21  14  22  14  23  14  26   8  27   8  28   8  29   8
M  ISO  1  30   8
M  END
>  <minimizedAffinity>  (1) 
-4.78117561

>  <minimizedRMSD>  (1) 
5.82530308

$$$$
