
     RDKit          3D

 31 34  0  0  0  0  0  0  0  0999 V2000
   40.1500   22.4550   31.3570 C   0  0  0  0  0  0  0  0  0  0  0  0
   39.7010   23.4020   30.4180 C   0  0  0  0  0  0  0  0  0  0  0  0
   38.3420   23.4960   30.1590 C   0  0  0  0  0  0  0  0  0  0  0  0
   37.5070   22.6450   30.8420 N   0  0  0  0  0  0  0  0  0  0  0  0
   37.9830   21.7530   31.7330 C   0  0  0  0  0  0  0  0  0  0  0  0
   39.2920   21.6420   32.0030 N   0  0  0  0  0  0  0  0  0  0  0  0
   37.0130   20.9270   32.3790 N   0  0  0  0  0  0  0  0  0  0  0  0
   36.4590   21.4760   33.4170 N   0  0  0  0  0  0  0  0  0  0  0  0
   35.5570   20.6130   33.9550 C   0  0  0  0  0  0  0  0  0  0  0  0
   35.5640   19.4850   33.2060 C   0  0  0  0  0  0  0  0  0  0  0  0
   36.4870   19.6930   32.2120 C   0  0  0  0  0  0  0  0  0  0  0  0
   41.5480   22.3570   31.6260 N   0  0  0  0  0  0  0  0  0  0  0  0
   37.0040   18.9190   31.0700 C   0  0  0  0  0  0  0  0  0  0  0  0
   38.0860   18.1920   30.8780 N   0  0  0  0  0  0  0  0  0  0  0  0
   38.1060   17.6930   29.6760 O   0  0  0  0  0  0  0  0  0  0  0  0
   36.9950   18.1150   29.0760 C   0  0  0  0  0  0  0  0  0  0  0  0
   36.2660   18.8950   29.9170 N   0  0  0  0  0  0  0  0  0  0  0  0
   36.5210   17.8580   27.7370 N   0  0  0  0  0  0  0  0  0  0  0  0
   36.3310   16.7440   27.0070 C   0  0  0  0  0  0  0  0  0  0  0  0
   35.8500   17.1390   25.7750 C   0  0  0  0  0  0  0  0  0  0  0  0
   35.7420   18.4990   25.7410 N   0  0  0  0  0  0  0  0  0  0  0  0
   36.1640   18.9210   26.9660 C   0  0  0  0  0  0  0  0  0  0  0  0
   40.4160   24.0567   29.8982 H   0  0  0  0  0  0  0  0  0  0  0  0
   37.9476   24.2238   29.4346 H   0  0  0  0  0  0  0  0  0  0  0  0
   34.9324   20.7981   34.8413 H   0  0  0  0  0  0  0  0  0  0  0  0
   34.9531   18.5837   33.3627 H   0  0  0  0  0  0  0  0  0  0  0  0
   42.2112   22.9747   31.1366 H   0  0  0  0  0  0  0  0  0  0  0  0
   41.8939   21.6685   32.3096 H   0  0  0  0  0  0  0  0  0  0  0  0
   36.5232   15.7107   27.3316 H   0  0  0  0  0  0  0  0  0  0  0  0
   35.5931   16.4614   24.9474 H   0  0  0  0  0  0  0  0  0  0  0  0
   36.2096   19.9723   27.2864 H   0  0  0  0  0  0  0  0  0  0  0  0
  1 12  1  0
  1  6  2  0
  2  1  1  0
  3  2  2  0
  3  4  1  0
  4  5  2  0
  5  6  1  0
  5  7  1  0
  7  8  1  0
  8  9  2  0
 10  9  1  0
 11  7  1  0
 11 10  2  0
 13 11  1  0
 14 13  2  0
 15 14  1  0
 16 15  1  0
 16 17  2  0
 17 13  1  0
 18 16  1  0
 19 18  1  0
 20 19  2  0
 21 20  1  0
 21 22  2  0
 22 18  1  0
  2 23  1  0
  3 24  1  0
  9 25  1  0
 10 26  1  0
 12 27  1  0
 12 28  1  0
 19 29  1  0
 20 30  1  0
 22 31  1  0
M  ISO  7  23  14  24  14  25  14  26  14  29  14  30  14  31  14
M  END
>  <minimizedAffinity>  (1) 
-3.87472749

>  <minimizedRMSD>  (1) 
3.74925423

$$$$
