
     RDKit          3D

 26 28  0  0  0  0  0  0  0  0999 V2000
   39.1300   24.4300   30.9180 C   0  0  0  0  0  0  0  0  0  0  0  0
   38.1480   25.3470   30.5510 C   0  0  0  0  0  0  0  0  0  0  0  0
   37.0530   25.5190   31.3740 C   0  0  0  0  0  0  0  0  0  0  0  0
   37.0040   24.7620   32.5210 N   0  0  0  0  0  0  0  0  0  0  0  0
   37.9720   23.8830   32.8440 C   0  0  0  0  0  0  0  0  0  0  0  0
   39.0410   23.7040   32.0570 N   0  0  0  0  0  0  0  0  0  0  0  0
   37.8030   23.1620   34.0560 N   0  0  0  0  0  0  0  0  0  0  0  0
   38.2150   23.8020   35.1040 N   0  0  0  0  0  0  0  0  0  0  0  0
   38.0120   23.0370   36.2050 C   0  0  0  0  0  0  0  0  0  0  0  0
   37.4430   21.8670   35.7960 C   0  0  0  0  0  0  0  0  0  0  0  0
   37.3180   21.9620   34.4340 C   0  0  0  0  0  0  0  0  0  0  0  0
   40.2700   24.2510   30.0610 N   0  0  0  0  0  0  0  0  0  0  0  0
   36.8060   21.1050   33.3600 C   0  0  0  0  0  0  0  0  0  0  0  0
   37.3540   20.5940   32.2770 N   0  0  0  0  0  0  0  0  0  0  0  0
   36.5050   19.8830   31.6070 O   0  0  0  0  0  0  0  0  0  0  0  0
   35.3690   19.9420   32.2900 C   0  0  0  0  0  0  0  0  0  0  0  0
   35.5060   20.7060   33.4110 N   0  0  0  0  0  0  0  0  0  0  0  0
   34.1120   19.3160   31.9610 N   0  0  0  0  0  0  0  0  0  0  0  0
   38.2434   25.9251   29.6200 H   0  0  0  0  0  0  0  0  0  0  0  0
   36.2535   26.2315   31.1229 H   0  0  0  0  0  0  0  0  0  0  0  0
   38.2612   23.3106   37.2409 H   0  0  0  0  0  0  0  0  0  0  0  0
   37.1448   21.0191   36.4302 H   0  0  0  0  0  0  0  0  0  0  0  0
   40.3511   24.7966   29.1911 H   0  0  0  0  0  0  0  0  0  0  0  0
   41.0058   23.5771   30.3168 H   0  0  0  0  0  0  0  0  0  0  0  0
   33.2975   19.4401   32.5791 H   0  0  0  0  0  0  0  0  0  0  0  0
   34.0288   18.7448   31.1079 H   0  0  0  0  0  0  0  0  0  0  0  0
  1  6  2  0
  2  1  1  0
  2  3  2  0
  3  4  1  0
  4  5  2  0
  5  7  1  0
  6  5  1  0
  7 11  1  0
  7  8  1  0
  8  9  2  0
 10  9  1  0
 11 10  2  0
 12  1  1  0
 13 17  1  0
 13 11  1  0
 14 13  2  0
 15 14  1  0
 15 16  1  0
 16 17  2  0
 18 16  1  0
  2 19  1  0
  3 20  1  0
  9 21  1  0
 10 22  1  0
 12 23  1  0
 12 24  1  0
 18 25  1  0
 18 26  1  0
M  ISO  4  19  14  20  14  21  14  22  14
M  END
>  <minimizedAffinity>  (1) 
-4.12919807

>  <minimizedRMSD>  (1) 
1.47989464

$$$$
