
     RDKit          3D

 29 32  0  0  0  0  0  0  0  0999 V2000
   41.7740   25.0840   34.7070 C   0  0  0  0  0  0  0  0  0  0  0  0
   41.4490   26.3930   34.3630 C   0  0  0  0  0  0  0  0  0  0  0  0
   40.1860   26.8720   34.6860 C   0  0  0  0  0  0  0  0  0  0  0  0
   39.3350   26.0080   35.3290 N   0  0  0  0  0  0  0  0  0  0  0  0
   39.6830   24.7620   35.6410 C   0  0  0  0  0  0  0  0  0  0  0  0
   40.9010   24.2750   35.3390 N   0  0  0  0  0  0  0  0  0  0  0  0
   38.7050   23.9680   36.3090 N   0  0  0  0  0  0  0  0  0  0  0  0
   38.6860   24.1490   37.5930 N   0  0  0  0  0  0  0  0  0  0  0  0
   37.7200   23.3450   38.1320 C   0  0  0  0  0  0  0  0  0  0  0  0
   37.1380   22.6550   37.1170 C   0  0  0  0  0  0  0  0  0  0  0  0
   37.7640   23.0530   35.9680 C   0  0  0  0  0  0  0  0  0  0  0  0
   43.0750   24.5970   34.3720 N   0  0  0  0  0  0  0  0  0  0  0  0
   37.6660   22.7420   34.5360 C   0  0  0  0  0  0  0  0  0  0  0  0
   37.8950   23.4590   33.4480 N   0  0  0  0  0  0  0  0  0  0  0  0
   37.6720   22.7590   32.3740 O   0  0  0  0  0  0  0  0  0  0  0  0
   37.2870   21.5560   32.8020 C   0  0  0  0  0  0  0  0  0  0  0  0
   37.2670   21.4930   34.1530 N   0  0  0  0  0  0  0  0  0  0  0  0
   36.9430   20.4800   31.8730 C   0  0  0  0  0  0  0  0  0  0  0  0
   36.5870   20.7420   30.5900 N   0  0  0  0  0  0  0  0  0  0  0  0
   36.3400   19.6150   30.0030 O   0  0  0  0  0  0  0  0  0  0  0  0
   36.5100   18.6030   30.8230 C   0  0  0  0  0  0  0  0  0  0  0  0
   36.8910   19.1250   32.0060 N   0  0  0  0  0  0  0  0  0  0  0  0
   42.1775   27.0349   33.8460 H   0  0  0  0  0  0  0  0  0  0  0  0
   39.8809   27.8992   34.4373 H   0  0  0  0  0  0  0  0  0  0  0  0
   37.4604   23.2703   39.1983 H   0  0  0  0  0  0  0  0  0  0  0  0
   36.3235   21.9206   37.2024 H   0  0  0  0  0  0  0  0  0  0  0  0
   43.7462   25.2111   33.8889 H   0  0  0  0  0  0  0  0  0  0  0  0
   43.3416   23.6319   34.6136 H   0  0  0  0  0  0  0  0  0  0  0  0
   36.3690   17.5373   30.5898 H   0  0  0  0  0  0  0  0  0  0  0  0
  1  6  2  0
  2  3  2  0
  2  1  1  0
  3  4  1  0
  4  5  2  0
  5  7  1  0
  6  5  1  0
  7  8  1  0
  8  9  2  0
 10  9  1  0
 11  7  1  0
 11 10  2  0
 12  1  1  0
 13 11  1  0
 14 13  2  0
 15 16  1  0
 15 14  1  0
 16 17  2  0
 17 13  1  0
 18 22  1  0
 18 16  1  0
 19 18  2  0
 20 19  1  0
 20 21  1  0
 21 22  2  0
  2 23  1  0
  3 24  1  0
  9 25  1  0
 10 26  1  0
 12 27  1  0
 12 28  1  0
 21 29  1  0
M  ISO  5  23  14  24  14  25  14  26  14  29  14
M  END
>  <minimizedAffinity>  (1) 
-4.57883883

>  <minimizedRMSD>  (1) 
4.26626587

$$$$
