
     RDKit          3D

 31 34  0  0  0  0  0  0  0  0999 V2000
   37.3470   22.1720   33.4000 C   0  0  0  0  0  0  0  0  0  0  0  0
   38.2850   21.8930   34.4010 C   0  0  0  0  0  0  0  0  0  0  0  0
   39.0560   22.9260   34.8920 C   0  0  0  0  0  0  0  0  0  0  0  0
   38.8550   24.1720   34.3650 N   0  0  0  0  0  0  0  0  0  0  0  0
   37.9450   24.4050   33.4040 C   0  0  0  0  0  0  0  0  0  0  0  0
   37.1850   23.4180   32.9120 N   0  0  0  0  0  0  0  0  0  0  0  0
   37.8290   25.7530   32.9340 N   0  0  0  0  0  0  0  0  0  0  0  0
   37.0450   26.4800   33.6720 N   0  0  0  0  0  0  0  0  0  0  0  0
   37.0030   27.7390   33.1400 C   0  0  0  0  0  0  0  0  0  0  0  0
   37.8040   27.7590   32.0320 C   0  0  0  0  0  0  0  0  0  0  0  0
   38.3200   26.4890   31.9160 C   0  0  0  0  0  0  0  0  0  0  0  0
   36.5420   21.1100   32.8840 N   0  0  0  0  0  0  0  0  0  0  0  0
   39.2250   25.7960   30.9970 C   0  0  0  0  0  0  0  0  0  0  0  0
   40.5370   25.6620   30.9570 N   0  0  0  0  0  0  0  0  0  0  0  0
   40.8870   24.9380   29.9230 O   0  0  0  0  0  0  0  0  0  0  0  0
   39.7770   24.6120   29.3040 C   0  0  0  0  0  0  0  0  0  0  0  0
   38.6940   25.1220   29.9310 N   0  0  0  0  0  0  0  0  0  0  0  0
   39.7410   23.7990   28.0910 C   0  0  0  0  0  0  0  0  0  0  0  0
   39.6740   24.2720   26.8000 C   0  0  0  0  0  0  0  0  0  0  0  0
   39.6580   23.1920   25.9420 C   0  0  0  0  0  0  0  0  0  0  0  0
   39.7180   22.0880   26.7850 C   0  0  0  0  0  0  0  0  0  0  0  0
   39.7660   22.4710   28.0380 O   0  0  0  0  0  0  0  0  0  0  0  0
   38.4048   20.8704   34.7883 H   0  0  0  0  0  0  0  0  0  0  0  0
   39.8052   22.7539   35.6788 H   0  0  0  0  0  0  0  0  0  0  0  0
   36.4254   28.5879   33.5347 H   0  0  0  0  0  0  0  0  0  0  0  0
   37.9964   28.6154   31.3690 H   0  0  0  0  0  0  0  0  0  0  0  0
   35.8479   21.3011   32.1474 H   0  0  0  0  0  0  0  0  0  0  0  0
   36.6559   20.1535   33.2487 H   0  0  0  0  0  0  0  0  0  0  0  0
   39.6392   25.3306   26.5032 H   0  0  0  0  0  0  0  0  0  0  0  0
   39.6090   23.2019   24.8431 H   0  0  0  0  0  0  0  0  0  0  0  0
   39.7243   21.0409   26.4482 H   0  0  0  0  0  0  0  0  0  0  0  0
  1  2  2  0
  2  3  1  0
  4  3  2  0
  5  4  1  0
  6  1  1  0
  6  5  2  0
  7  5  1  0
  7  8  1  0
  9  8  2  0
 10  9  1  0
 11 10  2  0
 11  7  1  0
 12  1  1  0
 13 11  1  0
 14 13  2  0
 15 14  1  0
 16 15  1  0
 16 17  2  0
 17 13  1  0
 18 16  1  0
 19 18  2  0
 20 21  2  0
 20 19  1  0
 21 22  1  0
 22 18  1  0
  2 23  1  0
  3 24  1  0
  9 25  1  0
 10 26  1  0
 12 27  1  0
 12 28  1  0
 19 29  1  0
 20 30  1  0
 21 31  1  0
M  ISO  7  23  14  24  14  25  14  26  14  29  14  30  14  31  14
M  END
>  <minimizedAffinity>  (1) 
-3.85896444

>  <minimizedRMSD>  (1) 
6.29773951

$$$$
