
     RDKit          3D

 38 42  0  0  1  0  0  0  0  0999 V2000
   37.0100   22.7580   31.0450 C   0  0  0  0  0  0  0  0  0  0  0  0
   35.6730   23.1680   31.2390 C   0  0  0  0  0  0  0  0  0  0  0  0
   35.4000   24.5110   31.4010 C   0  0  0  0  0  0  0  0  0  0  0  0
   36.4540   25.3840   31.3640 N   0  0  0  0  0  0  0  0  0  0  0  0
   37.7080   24.9620   31.1780 C   0  0  0  0  0  0  0  0  0  0  0  0
   37.9970   23.6580   31.0180 N   0  0  0  0  0  0  0  0  0  0  0  0
   38.7240   25.9690   31.1570 N   0  0  0  0  0  0  0  0  0  0  0  0
   38.8790   26.5350   29.9960 N   0  0  0  0  0  0  0  0  0  0  0  0
   39.8560   27.4640   30.0810 C   0  0  0  0  0  0  0  0  0  0  0  0
   40.3210   27.4660   31.3570 C   0  0  0  0  0  0  0  0  0  0  0  0
   39.5870   26.5020   32.0350 C   0  0  0  0  0  0  0  0  0  0  0  0
   39.5520   25.9840   33.3910 C   0  0  0  0  0  0  0  0  0  0  0  0
   40.5120   25.5810   34.2270 N   0  0  0  0  0  0  0  0  0  0  0  0
   40.0000   25.1960   35.3520 O   0  0  0  0  0  0  0  0  0  0  0  0
   38.6760   25.3580   35.2290 C   0  0  0  0  0  0  0  0  0  0  0  0
   38.3380   25.8460   34.0270 N   0  0  0  0  0  0  0  0  0  0  0  0
   37.6750   25.0430   36.2860 C   0  0  2  0  0  0  0  0  0  0  0  0
   38.0400   25.1470   37.7320 C   0  0  0  0  0  0  0  0  0  0  0  0
   37.7970   23.7980   37.0990 C   0  0  2  0  0  0  0  0  0  0  0  0
   39.0400   22.9720   37.0410 C   0  0  0  0  0  0  0  0  0  0  0  0
   40.0630   22.8030   37.9530 C   0  0  0  0  0  0  0  0  0  0  0  0
   41.0130   21.9330   37.4560 C   0  0  0  0  0  0  0  0  0  0  0  0
   40.5080   21.5980   36.2150 C   0  0  0  0  0  0  0  0  0  0  0  0
   39.3690   22.2160   36.0100 O   0  0  0  0  0  0  0  0  0  0  0  0
   37.3020   21.3690   30.8740 N   0  0  0  0  0  0  0  0  0  0  0  0
   34.8602   22.4272   31.2607 H   0  0  0  0  0  0  0  0  0  0  0  0
   34.3709   24.8678   31.5546 H   0  0  0  0  0  0  0  0  0  0  0  0
   40.2121   28.1055   29.2615 H   0  0  0  0  0  0  0  0  0  0  0  0
   41.1177   28.1024   31.7697 H   0  0  0  0  0  0  0  0  0  0  0  0
   36.8881   25.4794   35.6532 H   0  0  0  0  0  0  0  0  0  0  0  0
   39.0583   25.4438   38.0236 H   0  0  0  0  0  0  0  0  0  0  0  0
   37.6360   25.6850   38.6022 H   0  0  0  0  0  0  0  0  0  0  0  0
   37.1269   22.9341   37.2200 H   0  0  0  0  0  0  0  0  0  0  0  0
   40.1139   23.2925   38.9368 H   0  0  0  0  0  0  0  0  0  0  0  0
   41.9438   21.5907   37.9318 H   0  0  0  0  0  0  0  0  0  0  0  0
   40.9904   20.9129   35.5023 H   0  0  0  0  0  0  0  0  0  0  0  0
   38.2745   21.0609   30.7319 H   0  0  0  0  0  0  0  0  0  0  0  0
   36.5399   20.6764   30.8929 H   0  0  0  0  0  0  0  0  0  0  0  0
  1  2  2  0
  2  3  1  0
  4  3  2  0
  5  4  1  0
  6  1  1  0
  6  5  2  0
  7  5  1  0
  7 11  1  0
  8  9  2  0
  8  7  1  0
  9 10  1  0
 10 11  2  0
 11 12  1  0
 12 16  1  0
 12 13  2  0
 13 14  1  0
 15 14  1  0
 15 17  1  0
 16 15  2  0
 17 19  1  0
 17 18  1  0
 19 18  1  0
 20 19  1  0
 20 21  2  0
 22 21  1  0
 23 22  2  0
 24 23  1  0
 24 20  1  0
 25  1  1  0
  2 26  1  0
  3 27  1  0
  9 28  1  0
 10 29  1  0
 17 30  1  1
 18 31  1  0
 18 32  1  0
 19 33  1  1
 21 34  1  0
 22 35  1  0
 23 36  1  0
 25 37  1  0
 25 38  1  0
M  ISO  8  26  14  27  14  28  14  29  14  30  13  31  13  32  13  33  13
M  ISO  3  34  14  35  14  36  14
M  END
>  <minimizedAffinity>  (1) 
-5.50436783

>  <minimizedRMSD>  (1) 
1.94050813

$$$$
