
     RDKit          3D

 45 50  0  0  1  0  0  0  0  0999 V2000
   37.6910   24.3600   31.8970 C   0  0  0  0  0  0  0  0  0  0  0  0
   36.9040   24.4820   30.8280 N   0  0  0  0  0  0  0  0  0  0  0  0
   35.9590   23.6010   30.8630 O   0  0  0  0  0  0  0  0  0  0  0  0
   36.1460   22.8950   31.9860 C   0  0  0  0  0  0  0  0  0  0  0  0
   37.2140   23.3270   32.6700 N   0  0  0  0  0  0  0  0  0  0  0  0
   36.2730   28.8570   31.5410 C   0  0  0  0  0  0  0  0  0  0  0  0
   35.5900   29.1010   32.7510 C   0  0  0  0  0  0  0  0  0  0  0  0
   35.9820   28.4190   33.8900 C   0  0  0  0  0  0  0  0  0  0  0  0
   37.0240   27.5360   33.7770 N   0  0  0  0  0  0  0  0  0  0  0  0
   37.6460   27.3310   32.6190 C   0  0  0  0  0  0  0  0  0  0  0  0
   37.2850   27.9800   31.4970 N   0  0  0  0  0  0  0  0  0  0  0  0
   38.7130   26.3910   32.6210 N   0  0  0  0  0  0  0  0  0  0  0  0
   39.8640   26.8900   32.9940 N   0  0  0  0  0  0  0  0  0  0  0  0
   40.8060   25.9120   32.9580 C   0  0  0  0  0  0  0  0  0  0  0  0
   40.2070   24.7810   32.5480 C   0  0  0  0  0  0  0  0  0  0  0  0
   38.8770   25.0870   32.3340 C   0  0  0  0  0  0  0  0  0  0  0  0
   35.8780   29.5530   30.3590 N   0  0  0  0  0  0  0  0  0  0  0  0
   35.2870   21.7630   32.4370 C   0  0  2  0  0  0  0  0  0  0  0  0
   35.8570   20.6960   33.3200 C   0  0  0  0  0  0  0  0  0  0  0  0
   35.4570   20.4010   31.8730 C   0  0  2  0  0  0  0  0  0  0  0  0
   36.5080   20.0680   30.8990 C   0  0  0  0  0  0  0  0  0  0  0  0
   36.4560   19.6820   29.5750 C   0  0  0  0  0  0  0  0  0  0  0  0
   37.6840   19.4770   29.0630 N   0  0  0  0  0  0  0  0  0  0  0  0
   38.5520   19.7340   30.0710 C   0  0  0  0  0  0  0  0  0  0  0  0
   39.9300   19.6660   30.0480 C   0  0  0  0  0  0  0  0  0  0  0  0
   40.6580   19.9640   31.1790 C   0  0  0  0  0  0  0  0  0  0  0  0
   39.9950   20.3360   32.3440 C   0  0  0  0  0  0  0  0  0  0  0  0
   38.6190   20.3930   32.3290 C   0  0  0  0  0  0  0  0  0  0  0  0
   37.8590   20.1000   31.2130 C   0  0  0  0  0  0  0  0  0  0  0  0
   34.7596   29.8214   32.7888 H   0  0  0  0  0  0  0  0  0  0  0  0
   35.4747   28.5802   34.8526 H   0  0  0  0  0  0  0  0  0  0  0  0
   41.8688   26.0254   33.2179 H   0  0  0  0  0  0  0  0  0  0  0  0
   40.6843   23.7997   32.4094 H   0  0  0  0  0  0  0  0  0  0  0  0
   36.3710   29.3812   29.4711 H   0  0  0  0  0  0  0  0  0  0  0  0
   35.1000   30.2271   30.3940 H   0  0  0  0  0  0  0  0  0  0  0  0
   34.4354   22.4553   32.5109 H   0  0  0  0  0  0  0  0  0  0  0  0
   36.9187   20.7231   33.6063 H   0  0  0  0  0  0  0  0  0  0  0  0
   35.6073   20.2754   34.3053 H   0  0  0  0  0  0  0  0  0  0  0  0
   34.7810   19.7070   31.3521 H   0  0  0  0  0  0  0  0  0  0  0  0
   35.5228   19.5568   29.0062 H   0  0  0  0  0  0  0  0  0  0  0  0
   37.9159   19.1850   28.1029 H   0  0  0  0  0  0  0  0  0  0  0  0
   40.4490   19.3729   29.1235 H   0  0  0  0  0  0  0  0  0  0  0  0
   41.7564   19.9081   31.1610 H   0  0  0  0  0  0  0  0  0  0  0  0
   40.5576   20.5794   33.2574 H   0  0  0  0  0  0  0  0  0  0  0  0
   38.0986   20.6867   33.2525 H   0  0  0  0  0  0  0  0  0  0  0  0
  1 16  1  0
  1  5  1  0
  2  3  1  0
  2  1  2  0
  3  4  1  0
  4 18  1  0
  4  5  2  0
  6  7  2  0
  7  8  1  0
  9  8  2  0
 10 12  1  0
 10  9  1  0
 11  6  1  0
 11 10  2  0
 12 13  1  0
 14 13  2  0
 15 14  1  0
 16 15  2  0
 16 12  1  0
 17  6  1  0
 18 19  1  0
 20 18  1  0
 20 19  1  0
 21 29  1  0
 21 20  1  0
 22 21  2  0
 23 22  1  0
 23 24  1  0
 24 29  2  0
 25 24  1  0
 25 26  2  0
 26 27  1  0
 28 27  2  0
 29 28  1  0
  7 30  1  0
  8 31  1  0
 14 32  1  0
 15 33  1  0
 17 34  1  0
 17 35  1  0
 18 36  1  1
 19 37  1  0
 19 38  1  0
 20 39  1  1
 22 40  1  0
 23 41  1  0
 25 42  1  0
 26 43  1  0
 27 44  1  0
 28 45  1  0
M  ISO  8  30  14  31  14  32  14  33  14  36  13  37  13  38  13  39  13
M  ISO  6  40  14  41   9  42  14  43  14  44  14  45  14
M  END
>  <minimizedAffinity>  (1) 
-5.51114702

>  <minimizedRMSD>  (1) 
6.27938318

$$$$
