
     RDKit          3D

 46 47  0  0  0  0  0  0  0  0999 V2000
   38.6800   23.6030   36.8290 C   0  0  0  0  0  0  0  0  0  0  0  0
   41.9320   21.7250   36.8780 C   0  0  0  0  0  0  0  0  0  0  0  0
   40.6180   22.0570   37.1650 C   0  0  0  0  0  0  0  0  0  0  0  0
   40.0540   23.1980   36.5690 C   0  0  0  0  0  0  0  0  0  0  0  0
   40.8190   23.9350   35.7330 N   0  0  0  0  0  0  0  0  0  0  0  0
   42.1010   23.5920   35.4680 C   0  0  0  0  0  0  0  0  0  0  0  0
   42.6500   22.4830   36.0450 N   0  0  0  0  0  0  0  0  0  0  0  0
   42.5050   20.5150   37.5180 C   0  0  0  0  0  0  0  0  0  0  0  0
   43.2130   19.6200   36.5660 C   0  0  0  0  0  0  0  0  0  0  0  0
   38.4340   23.4890   38.3180 C   0  0  0  0  0  0  0  0  0  0  0  0
   38.3610   25.0090   36.3720 C   0  0  0  0  0  0  0  0  0  0  0  0
   37.7330   22.6620   36.1040 C   0  0  0  0  0  0  0  0  0  0  0  0
   37.9100   22.6900   34.6900 N   0  0  0  0  0  0  0  0  0  0  0  0
   38.4700   21.7650   33.8530 C   0  0  0  0  0  0  0  0  0  0  0  0
   38.4180   22.2330   32.5750 N   0  0  0  0  0  0  0  0  0  0  0  0
   37.8310   23.4370   32.6190 C   0  0  0  0  0  0  0  0  0  0  0  0
   37.5320   23.6990   33.8920 N   0  0  0  0  0  0  0  0  0  0  0  0
   37.5700   24.3140   31.4310 C   0  0  0  0  0  0  0  0  0  0  0  0
   36.0810   24.2210   31.1110 C   0  0  0  0  0  0  0  0  0  0  0  0
   38.2930   23.7670   30.2080 C   0  0  0  0  0  0  0  0  0  0  0  0
   37.8940   25.7520   31.6960 C   0  0  0  0  0  0  0  0  0  0  0  0
   40.0236   21.4354   37.8507 H   0  0  0  0  0  0  0  0  0  0  0  0
   42.7032   24.2091   34.7850 H   0  0  0  0  0  0  0  0  0  0  0  0
   43.2187   20.8350   38.2915 H   0  0  0  0  0  0  0  0  0  0  0  0
   41.6648   19.9419   37.9372 H   0  0  0  0  0  0  0  0  0  0  0  0
   43.7998   18.8782   37.1275 H   0  0  0  0  0  0  0  0  0  0  0  0
   42.4772   19.1025   35.9329 H   0  0  0  0  0  0  0  0  0  0  0  0
   43.8860   20.2169   35.9329 H   0  0  0  0  0  0  0  0  0  0  0  0
   39.3001   23.8904   38.8645 H   0  0  0  0  0  0  0  0  0  0  0  0
   37.5339   24.0618   38.5858 H   0  0  0  0  0  0  0  0  0  0  0  0
   38.2892   22.4320   38.5858 H   0  0  0  0  0  0  0  0  0  0  0  0
   38.2143   25.6555   37.2498 H   0  0  0  0  0  0  0  0  0  0  0  0
   39.1942   25.3958   35.7669 H   0  0  0  0  0  0  0  0  0  0  0  0
   37.4424   24.9983   35.7669 H   0  0  0  0  0  0  0  0  0  0  0  0
   37.9121   21.6372   36.4614 H   0  0  0  0  0  0  0  0  0  0  0  0
   36.7058   22.9921   36.3182 H   0  0  0  0  0  0  0  0  0  0  0  0
   38.8943   20.7983   34.1621 H   0  0  0  0  0  0  0  0  0  0  0  0
   35.5061   24.1851   32.0481 H   0  0  0  0  0  0  0  0  0  0  0  0
   35.7757   25.1018   30.5271 H   0  0  0  0  0  0  0  0  0  0  0  0
   35.8877   23.3090   30.5271 H   0  0  0  0  0  0  0  0  0  0  0  0
   39.1315   23.1326   30.5310 H   0  0  0  0  0  0  0  0  0  0  0  0
   37.5930   23.1703   29.6046 H   0  0  0  0  0  0  0  0  0  0  0  0
   38.6768   24.6028   29.6046 H   0  0  0  0  0  0  0  0  0  0  0  0
   37.9330   25.9250   32.7816 H   0  0  0  0  0  0  0  0  0  0  0  0
   38.8697   25.9962   31.2505 H   0  0  0  0  0  0  0  0  0  0  0  0
   37.1173   26.3910   31.2505 H   0  0  0  0  0  0  0  0  0  0  0  0
  1 10  1  0
  2  3  2  0
  2  8  1  0
  4  1  1  0
  4  3  1  0
  5  4  2  0
  6  5  1  0
  6  7  2  0
  7  2  1  0
  9  8  1  0
 11  1  1  0
 12  1  1  0
 13 12  1  0
 14 13  1  0
 15 16  1  0
 15 14  2  0
 16 17  2  0
 17 13  1  0
 18 21  1  0
 18 16  1  0
 19 18  1  0
 20 18  1  0
  3 22  1  0
  6 23  1  0
  8 24  1  0
  8 25  1  0
  9 26  1  0
  9 27  1  0
  9 28  1  0
 10 29  1  0
 10 30  1  0
 10 31  1  0
 11 32  1  0
 11 33  1  0
 11 34  1  0
 12 35  1  0
 12 36  1  0
 14 37  1  0
 19 38  1  0
 19 39  1  0
 19 40  1  0
 20 41  1  0
 20 42  1  0
 20 43  1  0
 21 44  1  0
 21 45  1  0
 21 46  1  0
M  ISO  8  22  14  23  14  24   8  25   8  26   8  27   8  28   8  29   8
M  ISO  8  30   8  31   8  32   8  33   8  34   8  35   8  36   8  37  14
M  ISO  8  38   8  39   8  40   8  41   8  42   8  43   8  44   8  45   8
M  ISO  1  46   8
M  END
>  <minimizedAffinity>  (1) 
-4.48014021

>  <minimizedRMSD>  (1) 
0.477761298

$$$$
