
     RDKit          3D

 38 41  0  0  1  0  0  0  0  0999 V2000
   38.7260   24.3940   35.0890 C   0  0  0  0  0  0  0  0  0  0  0  0
   38.0150   23.9900   34.0400 N   0  0  0  0  0  0  0  0  0  0  0  0
   37.5060   25.0060   33.4050 O   0  0  0  0  0  0  0  0  0  0  0  0
   37.9060   26.0750   34.0670 C   0  0  0  0  0  0  0  0  0  0  0  0
   38.6710   25.7610   35.1330 N   0  0  0  0  0  0  0  0  0  0  0  0
   42.9070   23.8060   32.9580 C   0  0  0  0  0  0  0  0  0  0  0  0
   43.5950   25.0150   33.2110 C   0  0  0  0  0  0  0  0  0  0  0  0
   43.3190   25.7120   34.3800 C   0  0  0  0  0  0  0  0  0  0  0  0
   42.3910   25.1830   35.2270 N   0  0  0  0  0  0  0  0  0  0  0  0
   41.7610   24.0430   34.9600 C   0  0  0  0  0  0  0  0  0  0  0  0
   42.0070   23.3460   33.8360 N   0  0  0  0  0  0  0  0  0  0  0  0
   40.8100   23.5880   35.9200 N   0  0  0  0  0  0  0  0  0  0  0  0
   41.3310   22.9130   36.9000 N   0  0  0  0  0  0  0  0  0  0  0  0
   40.3530   22.5280   37.7510 C   0  0  0  0  0  0  0  0  0  0  0  0
   39.1800   22.9920   37.2680 C   0  0  0  0  0  0  0  0  0  0  0  0
   39.4750   23.6680   36.0980 C   0  0  0  0  0  0  0  0  0  0  0  0
   43.1830   23.0910   31.7620 N   0  0  0  0  0  0  0  0  0  0  0  0
   37.5800   27.5240   33.7300 C   0  0  2  0  0  0  0  0  0  0  0  0
   36.4490   28.1980   34.4360 C   0  0  0  0  0  0  0  0  0  0  0  0
   36.3280   27.7990   32.9830 C   0  0  1  0  0  0  0  0  0  0  0  0
   36.1560   28.7530   31.9580 N   0  0  0  0  0  0  0  0  0  0  0  0
   36.5890   28.6600   30.6220 C   0  0  0  0  0  0  0  0  0  0  0  0
   36.4220   27.6330   29.9170 N   0  0  0  0  0  0  0  0  0  0  0  0
   37.2590   29.7780   30.0000 N   0  0  0  0  0  0  0  0  0  0  0  0
   35.9630   26.7880   30.2410 H   0  0  0  0  0  0  0  0  0  0  0  0
   44.3365   25.3971   32.4939 H   0  0  0  0  0  0  0  0  0  0  0  0
   43.8309   26.6571   34.6141 H   0  0  0  0  0  0  0  0  0  0  0  0
   40.4885   21.9418   38.6719 H   0  0  0  0  0  0  0  0  0  0  0  0
   38.1849   22.8584   37.7173 H   0  0  0  0  0  0  0  0  0  0  0  0
   42.6897   22.2088   31.5639 H   0  0  0  0  0  0  0  0  0  0  0  0
   43.8764   23.4548   31.0929 H   0  0  0  0  0  0  0  0  0  0  0  0
   38.6432   27.7654   33.5841 H   0  0  0  0  0  0  0  0  0  0  0  0
   35.8786   27.6583   35.2063 H   0  0  0  0  0  0  0  0  0  0  0  0
   36.3262   29.1319   35.0041 H   0  0  0  0  0  0  0  0  0  0  0  0
   35.6626   27.1728   32.3706 H   0  0  0  0  0  0  0  0  0  0  0  0
   35.6567   29.6159   32.2168 H   0  0  0  0  0  0  0  0  0  0  0  0
   37.5757   29.7095   29.0223 H   0  0  0  0  0  0  0  0  0  0  0  0
   37.4201   30.6438   30.5341 H   0  0  0  0  0  0  0  0  0  0  0  0
  1  5  1  0
  1 16  1  0
  2  1  2  0
  3  2  1  0
  3  4  1  0
  4  5  2  0
  6  7  2  0
  6 11  1  0
  7  8  1  0
  8  9  2  0
 10  9  1  0
 10 12  1  0
 11 10  2  0
 12 16  1  0
 12 13  1  0
 13 14  2  0
 15 14  1  0
 16 15  2  0
 17  6  1  0
 18  4  1  0
 18 19  1  0
 20 18  1  0
 20 19  1  0
 21 20  1  0
 22 21  1  0
 23 25  1  0
 23 22  2  0
 24 22  1  0
  7 26  1  0
  8 27  1  0
 14 28  1  0
 15 29  1  0
 17 30  1  0
 17 31  1  0
 18 32  1  6
 19 33  1  0
 19 34  1  0
 20 35  1  1
 21 36  1  0
 24 37  1  0
 24 38  1  0
M  ISO  8  26  14  27  14  28  14  29  14  32  13  33  13  34  13  35  13
M  END
>  <minimizedAffinity>  (1) 
-5.1541667

>  <minimizedRMSD>  (1) 
6.75127029

$$$$
