
     RDKit          3D

 40 44  0  0  1  0  0  0  0  0999 V2000
   38.1360   23.8830   34.7230 C   0  0  0  0  0  0  0  0  0  0  0  0
   38.2300   22.7370   35.3700 N   0  0  0  0  0  0  0  0  0  0  0  0
   37.7530   21.7620   34.6540 O   0  0  0  0  0  0  0  0  0  0  0  0
   37.3410   22.3240   33.5080 C   0  0  0  0  0  0  0  0  0  0  0  0
   37.5550   23.6450   33.4960 N   0  0  0  0  0  0  0  0  0  0  0  0
   42.8550   23.5740   34.8750 C   0  0  0  0  0  0  0  0  0  0  0  0
   43.2570   23.7320   33.5310 C   0  0  0  0  0  0  0  0  0  0  0  0
   42.4840   24.5120   32.6890 C   0  0  0  0  0  0  0  0  0  0  0  0
   41.3600   25.0920   33.2120 N   0  0  0  0  0  0  0  0  0  0  0  0
   41.0090   24.9230   34.4840 C   0  0  0  0  0  0  0  0  0  0  0  0
   41.7420   24.1710   35.3240 N   0  0  0  0  0  0  0  0  0  0  0  0
   39.8140   25.5760   34.9230 N   0  0  0  0  0  0  0  0  0  0  0  0
   39.9920   26.8130   35.2750 N   0  0  0  0  0  0  0  0  0  0  0  0
   38.8080   27.3320   35.6700 C   0  0  0  0  0  0  0  0  0  0  0  0
   37.8730   26.3680   35.5520 C   0  0  0  0  0  0  0  0  0  0  0  0
   38.5150   25.2420   35.0740 C   0  0  0  0  0  0  0  0  0  0  0  0
   43.6470   22.7710   35.7520 N   0  0  0  0  0  0  0  0  0  0  0  0
   36.7090   21.5850   32.3520 C   0  0  2  0  0  0  0  0  0  0  0  0
   35.2600   21.2170   32.4300 C   0  0  0  0  0  0  0  0  0  0  0  0
   36.3450   20.1510   32.5220 C   0  0  1  0  0  0  0  0  0  0  0  0
   36.5220   19.2000   31.4000 C   0  0  0  0  0  0  0  0  0  0  0  0
   36.6540   19.6310   30.0790 C   0  0  0  0  0  0  0  0  0  0  0  0
   36.8210   18.7560   29.0220 C   0  0  0  0  0  0  0  0  0  0  0  0
   36.8450   17.4100   29.3940 C   0  0  0  0  0  0  0  0  0  0  0  0
   36.7170   16.9580   30.6910 C   0  0  0  0  0  0  0  0  0  0  0  0
   36.5570   17.8730   31.6760 N   0  0  0  0  0  0  0  0  0  0  0  0
   44.1696   23.2432   33.1592 H   0  0  0  0  0  0  0  0  0  0  0  0
   42.7633   24.6608   31.6355 H   0  0  0  0  0  0  0  0  0  0  0  0
   38.6376   28.3591   36.0249 H   0  0  0  0  0  0  0  0  0  0  0  0
   36.8032   26.4604   35.7907 H   0  0  0  0  0  0  0  0  0  0  0  0
   44.5013   22.3146   35.4016 H   0  0  0  0  0  0  0  0  0  0  0  0
   43.3637   22.6485   36.7347 H   0  0  0  0  0  0  0  0  0  0  0  0
   37.3241   22.1425   31.6303 H   0  0  0  0  0  0  0  0  0  0  0  0
   34.6695   21.4826   33.3193 H   0  0  0  0  0  0  0  0  0  0  0  0
   34.3750   21.3813   31.7977 H   0  0  0  0  0  0  0  0  0  0  0  0
   36.6137   19.3633   33.2413 H   0  0  0  0  0  0  0  0  0  0  0  0
   36.6239   20.7107   29.8706 H   0  0  0  0  0  0  0  0  0  0  0  0
   36.9258   19.0905   27.9793 H   0  0  0  0  0  0  0  0  0  0  0  0
   36.9746   16.6602   28.5996 H   0  0  0  0  0  0  0  0  0  0  0  0
   36.7442   15.8822   30.9190 H   0  0  0  0  0  0  0  0  0  0  0  0
  1 16  1  0
  1  2  2  0
  3  2  1  0
  4  3  1  0
  5  4  2  0
  5  1  1  0
  6 11  2  0
  6 17  1  0
  7  6  1  0
  8  9  1  0
  8  7  2  0
  9 10  2  0
 10 12  1  0
 10 11  1  0
 12 16  1  0
 12 13  1  0
 13 14  2  0
 15 14  1  0
 16 15  2  0
 18 19  1  0
 18 20  1  0
 18  4  1  0
 19 20  1  0
 21 26  1  0
 21 20  1  0
 22 21  2  0
 23 24  2  0
 23 22  1  0
 24 25  1  0
 25 26  2  0
  7 27  1  0
  8 28  1  0
 14 29  1  0
 15 30  1  0
 17 31  1  0
 17 32  1  0
 18 33  1  6
 19 34  1  0
 19 35  1  0
 20 36  1  1
 22 37  1  0
 23 38  1  0
 24 39  1  0
 25 40  1  0
M  ISO  8  27  14  28  14  29  14  30  14  33  13  34  13  35  13  36  13
M  ISO  4  37  14  38  14  39  14  40  14
M  END
>  <minimizedAffinity>  (1) 
-5.19890451

>  <minimizedRMSD>  (1) 
6.40189648

$$$$
