
     RDKit          3D

 32 35  0  0  1  0  0  0  0  0999 V2000
   38.0270   23.5440   30.9190 C   0  0  0  0  0  0  0  0  0  0  0  0
   36.7230   24.0670   31.0240 C   0  0  0  0  0  0  0  0  0  0  0  0
   36.5290   25.2670   31.6890 C   0  0  0  0  0  0  0  0  0  0  0  0
   37.6320   25.8870   32.2150 N   0  0  0  0  0  0  0  0  0  0  0  0
   38.8540   25.3630   32.0990 C   0  0  0  0  0  0  0  0  0  0  0  0
   39.0640   24.2000   31.4570 N   0  0  0  0  0  0  0  0  0  0  0  0
   39.9280   26.0980   32.6880 N   0  0  0  0  0  0  0  0  0  0  0  0
   40.4000   27.0300   31.9230 N   0  0  0  0  0  0  0  0  0  0  0  0
   41.4140   27.6640   32.5810 C   0  0  0  0  0  0  0  0  0  0  0  0
   41.5480   27.0800   33.7870 C   0  0  0  0  0  0  0  0  0  0  0  0
   40.5970   26.0780   33.8550 C   0  0  0  0  0  0  0  0  0  0  0  0
   40.1940   25.0870   34.8330 C   0  0  0  0  0  0  0  0  0  0  0  0
   40.7360   23.9250   35.2050 N   0  0  0  0  0  0  0  0  0  0  0  0
   40.0210   23.3670   36.1300 O   0  0  0  0  0  0  0  0  0  0  0  0
   38.9940   24.1990   36.3530 C   0  0  0  0  0  0  0  0  0  0  0  0
   39.0600   25.2830   35.5680 N   0  0  0  0  0  0  0  0  0  0  0  0
   37.8810   23.9830   37.3530 C   0  0  2  0  0  0  0  0  0  0  0  0
   37.9320   24.7030   38.6610 C   0  0  0  0  0  0  0  0  0  0  0  0
   38.1590   23.2030   38.5900 C   0  0  1  0  0  0  0  0  0  0  0  0
   37.1400   22.3340   38.9650 O   0  0  0  0  0  0  0  0  0  0  0  0
   38.2330   22.3090   30.2350 N   0  0  0  0  0  0  0  0  0  0  0  0
   35.8701   23.5297   30.5838 H   0  0  0  0  0  0  0  0  0  0  0  0
   35.5256   25.7062   31.7910 H   0  0  0  0  0  0  0  0  0  0  0  0
   42.0139   28.5015   32.1954 H   0  0  0  0  0  0  0  0  0  0  0  0
   42.2744   27.3484   34.5682 H   0  0  0  0  0  0  0  0  0  0  0  0
   37.1399   23.9049   36.5438 H   0  0  0  0  0  0  0  0  0  0  0  0
   38.7704   25.3782   38.8873 H   0  0  0  0  0  0  0  0  0  0  0  0
   37.2522   25.3660   39.2162 H   0  0  0  0  0  0  0  0  0  0  0  0
   38.9528   22.5444   38.9722 H   0  0  0  0  0  0  0  0  0  0  0  0
   37.0897   22.2911   39.9528 H   0  0  0  0  0  0  0  0  0  0  0  0
   39.1823   21.9180   30.1526 H   0  0  0  0  0  0  0  0  0  0  0  0
   37.4324   21.8084   29.8236 H   0  0  0  0  0  0  0  0  0  0  0  0
  1  2  2  0
  1  6  1  0
  2  3  1  0
  3  4  2  0
  5  4  1  0
  5  7  1  0
  6  5  2  0
  7 11  1  0
  8  9  2  0
  8  7  1  0
  9 10  1  0
 10 11  2  0
 11 12  1  0
 12 13  2  0
 12 16  1  0
 13 14  1  0
 14 15  1  0
 15 17  1  0
 16 15  2  0
 17 19  1  0
 17 18  1  0
 19 18  1  0
 19 20  1  0
 21  1  1  0
  2 22  1  0
  3 23  1  0
  9 24  1  0
 10 25  1  0
 17 26  1  6
 18 27  1  0
 18 28  1  0
 19 29  1  6
 20 30  1  0
 21 31  1  0
 21 32  1  0
M  ISO  8  22  14  23  14  24  14  25  14  26  13  27  13  28  13  29  13
M  ISO  1  30   3
M  END
>  <minimizedAffinity>  (1) 
-5.01032686

>  <minimizedRMSD>  (1) 
0.14210622

$$$$
