
     RDKit          3D

 33 36  0  0  1  0  0  0  0  0999 V2000
   38.0510   23.6060   30.9020 C   0  0  0  0  0  0  0  0  0  0  0  0
   36.7550   24.1610   30.9880 C   0  0  0  0  0  0  0  0  0  0  0  0
   36.5750   25.3480   31.6720 C   0  0  0  0  0  0  0  0  0  0  0  0
   37.6800   25.9280   32.2380 N   0  0  0  0  0  0  0  0  0  0  0  0
   38.8960   25.3700   32.1330 C   0  0  0  0  0  0  0  0  0  0  0  0
   39.0940   24.2220   31.4770 N   0  0  0  0  0  0  0  0  0  0  0  0
   39.9640   26.0760   32.7660 N   0  0  0  0  0  0  0  0  0  0  0  0
   40.4640   27.0330   32.0350 N   0  0  0  0  0  0  0  0  0  0  0  0
   41.4670   27.6310   32.7330 C   0  0  0  0  0  0  0  0  0  0  0  0
   41.5790   27.0210   33.9240 C   0  0  0  0  0  0  0  0  0  0  0  0
   40.6130   26.0250   33.9390 C   0  0  0  0  0  0  0  0  0  0  0  0
   40.1760   25.0010   34.8910 C   0  0  0  0  0  0  0  0  0  0  0  0
   40.6470   23.8150   35.2270 N   0  0  0  0  0  0  0  0  0  0  0  0
   39.9070   23.2630   36.1380 O   0  0  0  0  0  0  0  0  0  0  0  0
   38.9250   24.1420   36.3870 C   0  0  0  0  0  0  0  0  0  0  0  0
   39.0450   25.2440   35.6340 N   0  0  0  0  0  0  0  0  0  0  0  0
   37.8020   23.9570   37.3830 C   0  0  2  0  0  0  0  0  0  0  0  0
   37.9170   24.6010   38.7300 C   0  0  0  0  0  0  0  0  0  0  0  0
   38.0350   23.1030   38.5840 C   0  0  1  0  0  0  0  0  0  0  0  0
   36.8610   22.3070   38.9540 N   0  0  0  0  0  0  0  0  0  0  0  0
   38.2420   22.3810   30.1960 N   0  0  0  0  0  0  0  0  0  0  0  0
   35.8999   23.6547   30.5164 H   0  0  0  0  0  0  0  0  0  0  0  0
   35.5808   25.8106   31.7590 H   0  0  0  0  0  0  0  0  0  0  0  0
   42.0823   28.4722   32.3811 H   0  0  0  0  0  0  0  0  0  0  0  0
   42.2924   27.2622   34.7258 H   0  0  0  0  0  0  0  0  0  0  0  0
   37.0518   23.9724   36.5786 H   0  0  0  0  0  0  0  0  0  0  0  0
   38.8036   25.2022   38.9799 H   0  0  0  0  0  0  0  0  0  0  0  0
   37.2906   25.2804   39.3267 H   0  0  0  0  0  0  0  0  0  0  0  0
   38.7821   22.3657   38.9130 H   0  0  0  0  0  0  0  0  0  0  0  0
   36.7889   22.2581   39.9803 H   0  0  0  0  0  0  0  0  0  0  0  0
   36.0126   22.7479   38.5708 H   0  0  0  0  0  0  0  0  0  0  0  0
   39.1829   21.9676   30.1272 H   0  0  0  0  0  0  0  0  0  0  0  0
   37.4390   21.9101   29.7551 H   0  0  0  0  0  0  0  0  0  0  0  0
  1  2  2  0
  1  6  1  0
  2  3  1  0
  3  4  2  0
  5  4  1  0
  5  7  1  0
  6  5  2  0
  7 11  1  0
  8  9  2  0
  8  7  1  0
  9 10  1  0
 10 11  2  0
 11 12  1  0
 12 13  2  0
 12 16  1  0
 13 14  1  0
 14 15  1  0
 15 17  1  0
 16 15  2  0
 17 19  1  0
 17 18  1  0
 19 18  1  0
 19 20  1  0
 21  1  1  0
  2 22  1  0
  3 23  1  0
  9 24  1  0
 10 25  1  0
 17 26  1  6
 18 27  1  0
 18 28  1  0
 19 29  1  6
 20 30  1  0
 20 31  1  0
 21 32  1  0
 21 33  1  0
M  ISO  8  22  14  23  14  24  14  25  14  26  13  27  13  28  13  29  13
M  ISO  2  30   5  31   5
M  END
>  <minimizedAffinity>  (1) 
-4.81346798

>  <minimizedRMSD>  (1) 
0.129996181

$$$$
