
     RDKit          3D

 45 49  0  0  1  0  0  0  0  0999 V2000
   42.1020   24.9880   34.7910 C   0  0  0  0  0  0  0  0  0  0  0  0
   41.6110   24.5010   33.6420 N   0  0  0  0  0  0  0  0  0  0  0  0
   40.4510   25.0180   33.3970 O   0  0  0  0  0  0  0  0  0  0  0  0
   40.1960   25.8550   34.4130 C   0  0  0  0  0  0  0  0  0  0  0  0
   41.1910   25.8780   35.3150 N   0  0  0  0  0  0  0  0  0  0  0  0
   45.3620   26.3080   31.6320 C   0  0  0  0  0  0  0  0  0  0  0  0
   45.4620   27.6950   31.7970 C   0  0  0  0  0  0  0  0  0  0  0  0
   45.2230   28.2360   33.0400 C   0  0  0  0  0  0  0  0  0  0  0  0
   44.8950   27.3760   34.0570 N   0  0  0  0  0  0  0  0  0  0  0  0
   44.8090   26.0510   33.8540 C   0  0  0  0  0  0  0  0  0  0  0  0
   45.0380   25.5160   32.6600 N   0  0  0  0  0  0  0  0  0  0  0  0
   44.4610   25.2640   34.9900 N   0  0  0  0  0  0  0  0  0  0  0  0
   45.4730   24.9500   35.7510 N   0  0  0  0  0  0  0  0  0  0  0  0
   45.0320   24.2070   36.7930 C   0  0  0  0  0  0  0  0  0  0  0  0
   43.6850   24.0540   36.6720 C   0  0  0  0  0  0  0  0  0  0  0  0
   43.3400   24.7370   35.5110 C   0  0  0  0  0  0  0  0  0  0  0  0
   45.6110   25.7390   30.3440 N   0  0  0  0  0  0  0  0  0  0  0  0
   38.9570   26.6710   34.5490 C   0  0  2  0  0  0  0  0  0  0  0  0
   38.4510   27.1150   35.8820 C   0  0  0  0  0  0  0  0  0  0  0  0
   37.6940   26.0720   35.0510 C   0  0  2  0  0  0  0  0  0  0  0  0
   37.7640   24.7200   35.5760 N   0  0  0  0  0  0  0  0  0  0  0  0
   38.7760   24.7550   36.6430 C   0  0  0  0  0  0  0  0  0  0  0  0
   38.8510   23.3860   37.2960 C   0  0  0  0  0  0  0  0  0  0  0  0
   37.9700   22.4510   36.5750 N   0  0  0  0  0  0  0  0  0  0  0  0
   38.4730   22.4100   35.2240 C   0  0  0  0  0  0  0  0  0  0  0  0
   38.2110   23.7530   34.5780 C   0  0  0  0  0  0  0  0  0  0  0  0
   45.7271   28.3415   30.9474 H   0  0  0  0  0  0  0  0  0  0  0  0
   45.2926   29.3203   33.2117 H   0  0  0  0  0  0  0  0  0  0  0  0
   45.6562   23.7966   37.6004 H   0  0  0  0  0  0  0  0  0  0  0  0
   43.0124   23.5065   37.3487 H   0  0  0  0  0  0  0  0  0  0  0  0
   45.5409   24.7203   30.2087 H   0  0  0  0  0  0  0  0  0  0  0  0
   45.8605   26.3478   29.5515 H   0  0  0  0  0  0  0  0  0  0  0  0
   39.2459   27.1992   33.6284 H   0  0  0  0  0  0  0  0  0  0  0  0
   38.9760   26.8154   36.8011 H   0  0  0  0  0  0  0  0  0  0  0  0
   38.2018   28.0812   36.3451 H   0  0  0  0  0  0  0  0  0  0  0  0
   36.6801   25.9610   34.6392 H   0  0  0  0  0  0  0  0  0  0  0  0
   39.7555   25.0137   36.2144 H   0  0  0  0  0  0  0  0  0  0  0  0
   38.5002   25.5108   37.3932 H   0  0  0  0  0  0  0  0  0  0  0  0
   39.8868   23.0175   37.2580 H   0  0  0  0  0  0  0  0  0  0  0  0
   38.5276   23.4609   38.3447 H   0  0  0  0  0  0  0  0  0  0  0  0
   38.0115   21.5150   37.0029 H   0  0  0  0  0  0  0  0  0  0  0  0
   39.5542   22.2076   35.2357 H   0  0  0  0  0  0  0  0  0  0  0  0
   37.9708   21.6124   34.6569 H   0  0  0  0  0  0  0  0  0  0  0  0
   39.1377   24.1171   34.1104 H   0  0  0  0  0  0  0  0  0  0  0  0
   37.4245   23.6356   33.8180 H   0  0  0  0  0  0  0  0  0  0  0  0
  1  5  1  0
  1 16  1  0
  2  1  2  0
  3  2  1  0
  3  4  1  0
  4 18  1  0
  4  5  2  0
  6  7  2  0
  6 11  1  0
  7  8  1  0
  8  9  2  0
 10  9  1  0
 10 12  1  0
 11 10  2  0
 12 16  1  0
 12 13  1  0
 13 14  2  0
 15 14  1  0
 16 15  2  0
 17  6  1  0
 18 20  1  0
 18 19  1  0
 20 21  1  0
 20 19  1  0
 21 22  1  0
 22 23  1  0
 24 23  1  0
 25 24  1  0
 26 25  1  0
 26 21  1  0
  7 27  1  0
  8 28  1  0
 14 29  1  0
 15 30  1  0
 17 31  1  0
 17 32  1  0
 18 33  1  6
 19 34  1  0
 19 35  1  0
 20 36  1  6
 22 37  1  0
 22 38  1  0
 23 39  1  0
 23 40  1  0
 24 41  1  0
 25 42  1  0
 25 43  1  0
 26 44  1  0
 26 45  1  0
M  ISO  8  27  14  28  14  29  14  30  14  33  13  34  13  35  13  36  13
M  ISO  8  37  13  38  13  39  13  40  13  41   5  42  13  43  13  44  13
M  ISO  1  45  13
M  END
>  <minimizedAffinity>  (1) 
-4.74424314

>  <minimizedRMSD>  (1) 
5.38159752

$$$$
