
     RDKit          3D

 37 41  0  0  1  0  0  0  0  0999 V2000
   38.3330   23.5990   30.4850 C   0  0  0  0  0  0  0  0  0  0  0  0
   37.0130   24.0520   30.6820 C   0  0  0  0  0  0  0  0  0  0  0  0
   36.8240   25.3250   31.2010 C   0  0  0  0  0  0  0  0  0  0  0  0
   37.9280   26.0670   31.4890 N   0  0  0  0  0  0  0  0  0  0  0  0
   39.1610   25.6010   31.2870 C   0  0  0  0  0  0  0  0  0  0  0  0
   39.3860   24.3720   30.7870 N   0  0  0  0  0  0  0  0  0  0  0  0
   40.2460   26.4650   31.6260 N   0  0  0  0  0  0  0  0  0  0  0  0
   40.5590   27.3080   30.6790 N   0  0  0  0  0  0  0  0  0  0  0  0
   41.6000   28.0760   31.1100 C   0  0  0  0  0  0  0  0  0  0  0  0
   41.9260   27.6830   32.3590 C   0  0  0  0  0  0  0  0  0  0  0  0
   41.0610   26.6540   32.6880 C   0  0  0  0  0  0  0  0  0  0  0  0
   40.8460   25.7910   33.8370 C   0  0  0  0  0  0  0  0  0  0  0  0
   41.6790   25.2540   34.7160 N   0  0  0  0  0  0  0  0  0  0  0  0
   41.0320   24.5460   35.5890 O   0  0  0  0  0  0  0  0  0  0  0  0
   39.7400   24.6390   35.2480 C   0  0  0  0  0  0  0  0  0  0  0  0
   39.5670   25.4040   34.1620 N   0  0  0  0  0  0  0  0  0  0  0  0
   38.6130   23.9810   35.9750 C   0  0  2  0  0  0  0  0  0  0  0  0
   38.8480   23.3620   37.3170 C   0  0  0  0  0  0  0  0  0  0  0  0
   38.5720   22.4970   36.0980 C   0  0  1  0  0  0  0  0  0  0  0  0
   37.3030   21.8470   35.9430 N   0  0  0  0  0  0  0  0  0  0  0  0
   36.6880   21.1990   34.9200 C   0  0  0  0  0  0  0  0  0  0  0  0
   35.4630   20.7730   35.3400 N   0  0  0  0  0  0  0  0  0  0  0  0
   35.3630   21.1780   36.6240 C   0  0  0  0  0  0  0  0  0  0  0  0
   36.4660   21.8230   36.9890 N   0  0  0  0  0  0  0  0  0  0  0  0
   38.5480   22.2880   29.9490 N   0  0  0  0  0  0  0  0  0  0  0  0
   36.1541   23.4124   30.4306 H   0  0  0  0  0  0  0  0  0  0  0  0
   35.8130   25.7222   31.3743 H   0  0  0  0  0  0  0  0  0  0  0  0
   42.0897   28.8779   30.5380 H   0  0  0  0  0  0  0  0  0  0  0  0
   42.7235   28.0992   32.9920 H   0  0  0  0  0  0  0  0  0  0  0  0
   37.9192   24.7419   35.5883 H   0  0  0  0  0  0  0  0  0  0  0  0
   39.8523   23.3802   37.7653 H   0  0  0  0  0  0  0  0  0  0  0  0
   38.4030   23.4696   38.3172 H   0  0  0  0  0  0  0  0  0  0  0  0
   39.0890   21.6462   35.6303 H   0  0  0  0  0  0  0  0  0  0  0  0
   37.1097   21.0433   33.9160 H   0  0  0  0  0  0  0  0  0  0  0  0
   34.4938   20.9998   37.2742 H   0  0  0  0  0  0  0  0  0  0  0  0
   39.5072   21.9436   29.7997 H   0  0  0  0  0  0  0  0  0  0  0  0
   37.7434   21.6898   29.7130 H   0  0  0  0  0  0  0  0  0  0  0  0
  1  2  2  0
  1  6  1  0
  2  3  1  0
  3  4  2  0
  5  4  1  0
  5  7  1  0
  6  5  2  0
  7 11  1  0
  8  9  2  0
  8  7  1  0
  9 10  1  0
 10 11  2  0
 11 12  1  0
 12 16  1  0
 12 13  2  0
 13 14  1  0
 15 14  1  0
 15 17  1  0
 16 15  2  0
 17 19  1  0
 17 18  1  0
 19 18  1  0
 20 19  1  0
 20 24  1  0
 21 22  2  0
 21 20  1  0
 22 23  1  0
 23 24  2  0
 25  1  1  0
  2 26  1  0
  3 27  1  0
  9 28  1  0
 10 29  1  0
 17 30  1  1
 18 31  1  0
 18 32  1  0
 19 33  1  6
 21 34  1  0
 23 35  1  0
 25 36  1  0
 25 37  1  0
M  ISO  8  26  14  27  14  28  14  29  14  30  13  31  13  32  13  33  13
M  ISO  2  34  14  35  14
M  END
>  <minimizedAffinity>  (1) 
-4.43083572

>  <minimizedRMSD>  (1) 
2.03040361

$$$$
