
     RDKit          3D

 34 37  0  0  1  0  0  0  0  0999 V2000
   38.1700   23.7040   30.8460 C   0  0  0  0  0  0  0  0  0  0  0  0
   36.8810   24.2770   30.9020 C   0  0  0  0  0  0  0  0  0  0  0  0
   36.7120   25.5020   31.5340 C   0  0  0  0  0  0  0  0  0  0  0  0
   37.8190   26.0960   32.0770 N   0  0  0  0  0  0  0  0  0  0  0  0
   39.0210   25.5270   32.0040 C   0  0  0  0  0  0  0  0  0  0  0  0
   39.2140   24.3410   31.3980 N   0  0  0  0  0  0  0  0  0  0  0  0
   40.1020   26.2410   32.6070 N   0  0  0  0  0  0  0  0  0  0  0  0
   40.6340   27.1450   31.8400 N   0  0  0  0  0  0  0  0  0  0  0  0
   41.6420   27.7580   32.5050 C   0  0  0  0  0  0  0  0  0  0  0  0
   41.7310   27.2000   33.7350 C   0  0  0  0  0  0  0  0  0  0  0  0
   40.7450   26.2320   33.7960 C   0  0  0  0  0  0  0  0  0  0  0  0
   40.2790   25.2730   34.7830 C   0  0  0  0  0  0  0  0  0  0  0  0
   40.7900   24.1230   35.2230 N   0  0  0  0  0  0  0  0  0  0  0  0
   40.0210   23.5980   36.1280 O   0  0  0  0  0  0  0  0  0  0  0  0
   38.9900   24.4450   36.2630 C   0  0  0  0  0  0  0  0  0  0  0  0
   39.1030   25.5010   35.4490 N   0  0  0  0  0  0  0  0  0  0  0  0
   37.8290   24.2550   37.2100 C   0  0  2  0  0  0  0  0  0  0  0  0
   37.9750   24.6880   38.6340 C   0  0  0  0  0  0  0  0  0  0  0  0
   37.9060   23.2100   38.2640 C   0  0  1  0  0  0  0  0  0  0  0  0
   36.7000   22.4050   38.6430 C   0  0  0  0  0  0  0  0  0  0  0  0
   38.3530   22.4540   30.2070 N   0  0  0  0  0  0  0  0  0  0  0  0
   36.0214   23.7598   30.4508 H   0  0  0  0  0  0  0  0  0  0  0  0
   35.7225   25.9785   31.5960 H   0  0  0  0  0  0  0  0  0  0  0  0
   42.2767   28.5670   32.1143 H   0  0  0  0  0  0  0  0  0  0  0  0
   42.4456   27.4640   34.5285 H   0  0  0  0  0  0  0  0  0  0  0  0
   37.1140   24.4791   36.4046 H   0  0  0  0  0  0  0  0  0  0  0  0
   38.9209   25.1267   38.9843 H   0  0  0  0  0  0  0  0  0  0  0  0
   37.4202   25.3532   39.3120 H   0  0  0  0  0  0  0  0  0  0  0  0
   38.5383   22.3254   38.4305 H   0  0  0  0  0  0  0  0  0  0  0  0
   36.6231   22.3537   39.7391 H   0  0  0  0  0  0  0  0  0  0  0  0
   35.7972   22.8823   38.2340 H   0  0  0  0  0  0  0  0  0  0  0  0
   36.7945   21.3882   38.2340 H   0  0  0  0  0  0  0  0  0  0  0  0
   39.2909   22.0306   30.1628 H   0  0  0  0  0  0  0  0  0  0  0  0
   37.5482   21.9679   29.7863 H   0  0  0  0  0  0  0  0  0  0  0  0
  1  2  2  0
  1  6  1  0
  2  3  1  0
  3  4  2  0
  5  4  1  0
  5  7  1  0
  6  5  2  0
  7 11  1  0
  8  9  2  0
  8  7  1  0
  9 10  1  0
 10 11  2  0
 11 12  1  0
 12 13  2  0
 12 16  1  0
 13 14  1  0
 14 15  1  0
 15 17  1  0
 16 15  2  0
 17 19  1  0
 17 18  1  0
 19 18  1  0
 19 20  1  0
 21  1  1  0
  2 22  1  0
  3 23  1  0
  9 24  1  0
 10 25  1  0
 17 26  1  6
 18 27  1  0
 18 28  1  0
 19 29  1  6
 20 30  1  0
 20 31  1  0
 20 32  1  0
 21 33  1  0
 21 34  1  0
M  ISO  8  22  14  23  14  24  14  25  14  26  13  27  13  28  13  29  13
M  ISO  3  30   8  31   8  32   8
M  END
>  <minimizedAffinity>  (1) 
-4.09967661

>  <minimizedRMSD>  (1) 
0.245703995

$$$$
