
     RDKit          3D

 44 48  0  0  1  0  0  0  0  0999 V2000
   39.9940   26.6220   32.8540 C   0  0  0  0  0  0  0  0  0  0  0  0
   39.4580   27.2010   33.9340 N   0  0  0  0  0  0  0  0  0  0  0  0
   39.6940   26.4850   34.9850 O   0  0  0  0  0  0  0  0  0  0  0  0
   40.4040   25.4180   34.5490 C   0  0  0  0  0  0  0  0  0  0  0  0
   40.6210   25.4490   33.2320 N   0  0  0  0  0  0  0  0  0  0  0  0
   36.6300   23.8380   31.0450 C   0  0  0  0  0  0  0  0  0  0  0  0
   35.4250   24.5440   31.2920 C   0  0  0  0  0  0  0  0  0  0  0  0
   35.4560   25.9190   31.3260 C   0  0  0  0  0  0  0  0  0  0  0  0
   36.6680   26.5240   31.1160 N   0  0  0  0  0  0  0  0  0  0  0  0
   37.7970   25.8090   30.8850 C   0  0  0  0  0  0  0  0  0  0  0  0
   37.7890   24.4940   30.8470 N   0  0  0  0  0  0  0  0  0  0  0  0
   38.9840   26.5810   30.6850 N   0  0  0  0  0  0  0  0  0  0  0  0
   39.1370   26.9940   29.4620 N   0  0  0  0  0  0  0  0  0  0  0  0
   40.2910   27.7120   29.3930 C   0  0  0  0  0  0  0  0  0  0  0  0
   40.8600   27.7310   30.6300 C   0  0  0  0  0  0  0  0  0  0  0  0
   40.0160   27.0040   31.4470 C   0  0  0  0  0  0  0  0  0  0  0  0
   36.6050   22.4110   31.0070 N   0  0  0  0  0  0  0  0  0  0  0  0
   40.8980   24.3120   35.4400 C   0  0  2  0  0  0  0  0  0  0  0  0
   41.5380   23.0990   34.8060 C   0  0  0  0  0  0  0  0  0  0  0  0
   40.1860   23.0200   35.4930 C   0  0  1  0  0  0  0  0  0  0  0  0
   40.1580   22.1680   36.7160 C   0  0  0  0  0  0  0  0  0  0  0  0
   39.7880   22.9300   37.9670 C   0  0  0  0  0  0  0  0  0  0  0  0
   38.3110   23.1980   38.0730 C   0  0  0  0  0  0  0  0  0  0  0  0
   37.9940   24.5610   38.6990 C   0  0  0  0  0  0  0  0  0  0  0  0
   37.6280   24.2280   37.2820 C   0  0  0  0  0  0  0  0  0  0  0  0
   34.4818   24.0015   31.4536 H   0  0  0  0  0  0  0  0  0  0  0  0
   34.5463   26.5082   31.5138 H   0  0  0  0  0  0  0  0  0  0  0  0
   40.6954   28.1949   28.4912 H   0  0  0  0  0  0  0  0  0  0  0  0
   41.7996   28.2244   30.9195 H   0  0  0  0  0  0  0  0  0  0  0  0
   37.4726   21.8853   30.8286 H   0  0  0  0  0  0  0  0  0  0  0  0
   35.7194   21.9072   31.1579 H   0  0  0  0  0  0  0  0  0  0  0  0
   41.1999   25.0467   36.2010 H   0  0  0  0  0  0  0  0  0  0  0  0
   41.6094   23.0180   33.7113 H   0  0  0  0  0  0  0  0  0  0  0  0
   42.5014   22.5767   34.9010 H   0  0  0  0  0  0  0  0  0  0  0  0
   39.1508   22.7480   35.2391 H   0  0  0  0  0  0  0  0  0  0  0  0
   39.4212   21.3652   36.5654 H   0  0  0  0  0  0  0  0  0  0  0  0
   41.1749   21.7752   36.8627 H   0  0  0  0  0  0  0  0  0  0  0  0
   40.1019   22.3420   38.8421 H   0  0  0  0  0  0  0  0  0  0  0  0
   40.2983   23.9035   37.9241 H   0  0  0  0  0  0  0  0  0  0  0  0
   38.0781   22.1337   38.2245 H   0  0  0  0  0  0  0  0  0  0  0  0
   37.2130   24.6513   39.4683 H   0  0  0  0  0  0  0  0  0  0  0  0
   38.5689   25.3528   39.2015 H   0  0  0  0  0  0  0  0  0  0  0  0
   38.1594   24.7188   36.4533 H   0  0  0  0  0  0  0  0  0  0  0  0
   36.6901   24.2547   36.7079 H   0  0  0  0  0  0  0  0  0  0  0  0
  1  5  1  0
  1  2  2  0
  2  3  1  0
  4  3  1  0
  4 18  1  0
  5  4  2  0
  6  7  2  0
  7  8  1  0
  9  8  2  0
 10  9  1  0
 11 10  2  0
 11  6  1  0
 12 10  1  0
 12 16  1  0
 13 12  1  0
 14 13  2  0
 14 15  1  0
 15 16  2  0
 16  1  1  0
 17  6  1  0
 18 20  1  0
 19 18  1  0
 19 20  1  0
 20 21  1  0
 21 22  1  0
 22 23  1  0
 23 24  1  0
 25 23  1  0
 25 24  1  0
  7 26  1  0
  8 27  1  0
 14 28  1  0
 15 29  1  0
 17 30  1  0
 17 31  1  0
 18 32  1  1
 19 33  1  0
 19 34  1  0
 20 35  1  6
 21 36  1  0
 21 37  1  0
 22 38  1  0
 22 39  1  0
 23 40  1  0
 24 41  1  0
 24 42  1  0
 25 43  1  0
 25 44  1  0
M  ISO  8  26  14  27  14  28  14  29  14  32  13  33  13  34  13  35  13
M  ISO  8  36   8  37   8  38   8  39   8  40  13  41  13  42  13  43  13
M  ISO  1  44  13
M  END
>  <minimizedAffinity>  (1) 
-5.25277185

>  <minimizedRMSD>  (1) 
1.62882447

$$$$
