
     RDKit          3D

 43 47  0  0  1  0  0  0  0  0999 V2000
   40.3790   26.8150   32.7460 C   0  0  0  0  0  0  0  0  0  0  0  0
   39.8100   27.2880   33.8610 N   0  0  0  0  0  0  0  0  0  0  0  0
   40.1580   26.5640   34.8690 O   0  0  0  0  0  0  0  0  0  0  0  0
   40.9740   25.5990   34.3890 C   0  0  0  0  0  0  0  0  0  0  0  0
   41.1440   25.7120   33.0680 N   0  0  0  0  0  0  0  0  0  0  0  0
   36.8650   24.1450   31.0500 C   0  0  0  0  0  0  0  0  0  0  0  0
   35.6890   24.8610   31.3950 C   0  0  0  0  0  0  0  0  0  0  0  0
   35.7470   26.2350   31.4780 C   0  0  0  0  0  0  0  0  0  0  0  0
   36.9510   26.8300   31.2170 N   0  0  0  0  0  0  0  0  0  0  0  0
   38.0520   26.1080   30.8900 C   0  0  0  0  0  0  0  0  0  0  0  0
   38.0220   24.7900   30.8040 N   0  0  0  0  0  0  0  0  0  0  0  0
   39.2380   26.8640   30.6450 N   0  0  0  0  0  0  0  0  0  0  0  0
   39.3350   27.3220   29.4270 N   0  0  0  0  0  0  0  0  0  0  0  0
   40.4930   28.0190   29.3120 C   0  0  0  0  0  0  0  0  0  0  0  0
   41.1310   27.9830   30.5130 C   0  0  0  0  0  0  0  0  0  0  0  0
   40.3230   27.2440   31.3540 C   0  0  0  0  0  0  0  0  0  0  0  0
   36.8200   22.7160   30.9610 N   0  0  0  0  0  0  0  0  0  0  0  0
   41.6060   24.5370   35.2260 C   0  0  2  0  0  0  0  0  0  0  0  0
   42.7110   23.7020   34.6200 C   0  0  0  0  0  0  0  0  0  0  0  0
   41.3510   23.1090   34.9540 C   0  0  1  0  0  0  0  0  0  0  0  0
   41.3810   22.0800   36.0170 C   0  0  0  0  0  0  0  0  0  0  0  0
   40.9460   22.5730   37.3570 C   0  0  0  0  0  0  0  0  0  0  0  0
   39.5180   22.7960   37.3450 N   0  0  0  0  0  0  0  0  0  0  0  0
   38.5150   22.6130   36.4700 C   0  0  0  0  0  0  0  0  0  0  0  0
   37.3400   22.9900   37.0080 N   0  0  0  0  0  0  0  0  0  0  0  0
   37.6220   23.4190   38.2520 C   0  0  0  0  0  0  0  0  0  0  0  0
   38.9460   23.3000   38.4540 N   0  0  0  0  0  0  0  0  0  0  0  0
   34.7473   24.3279   31.5927 H   0  0  0  0  0  0  0  0  0  0  0  0
   34.8607   26.8299   31.7435 H   0  0  0  0  0  0  0  0  0  0  0  0
   40.8537   28.5256   28.4047 H   0  0  0  0  0  0  0  0  0  0  0  0
   42.0956   28.4486   30.7634 H   0  0  0  0  0  0  0  0  0  0  0  0
   37.6687   22.1886   30.7113 H   0  0  0  0  0  0  0  0  0  0  0  0
   35.9389   22.2159   31.1467 H   0  0  0  0  0  0  0  0  0  0  0  0
   41.5008   25.1682   36.1207 H   0  0  0  0  0  0  0  0  0  0  0  0
   43.5950   23.4339   35.2172 H   0  0  0  0  0  0  0  0  0  0  0  0
   43.3445   23.7647   33.7229 H   0  0  0  0  0  0  0  0  0  0  0  0
   40.5231   22.6049   34.4339 H   0  0  0  0  0  0  0  0  0  0  0  0
   40.7150   21.2567   35.7193 H   0  0  0  0  0  0  0  0  0  0  0  0
   42.4292   21.7632   36.1213 H   0  0  0  0  0  0  0  0  0  0  0  0
   41.1941   21.8230   38.1225 H   0  0  0  0  0  0  0  0  0  0  0  0
   41.4636   23.5157   37.5880 H   0  0  0  0  0  0  0  0  0  0  0  0
   38.6372   22.2104   35.4536 H   0  0  0  0  0  0  0  0  0  0  0  0
   36.8925   23.8023   38.9806 H   0  0  0  0  0  0  0  0  0  0  0  0
  1  5  1  0
  1  2  2  0
  2  3  1  0
  4  3  1  0
  4 18  1  0
  5  4  2  0
  6  7  2  0
  7  8  1  0
  9  8  2  0
 10  9  1  0
 11 10  2  0
 11  6  1  0
 12 10  1  0
 12 16  1  0
 13 12  1  0
 14 13  2  0
 14 15  1  0
 15 16  2  0
 16  1  1  0
 17  6  1  0
 19 20  1  0
 19 18  1  0
 20 18  1  0
 20 21  1  0
 21 22  1  0
 23 22  1  0
 23 27  1  0
 24 25  2  0
 24 23  1  0
 25 26  1  0
 26 27  2  0
  7 28  1  0
  8 29  1  0
 14 30  1  0
 15 31  1  0
 17 32  1  0
 17 33  1  0
 18 34  1  1
 19 35  1  0
 19 36  1  0
 20 37  1  6
 21 38  1  0
 21 39  1  0
 22 40  1  0
 22 41  1  0
 24 42  1  0
 26 43  1  0
M  ISO  8  28  14  29  14  30  14  31  14  34  13  35  13  36  13  37  13
M  ISO  6  38   8  39   8  40   8  41   8  42  14  43  14
M  END
>  <minimizedAffinity>  (1) 
-5.16264009

>  <minimizedRMSD>  (1) 
2.59134412

$$$$
