
     RDKit          3D

 26 27  0  0  0  0  0  0  0  0999 V2000
   37.4540   20.8450   32.1260 C   0  0  0  0  0  0  0  0  0  0  0  0
   36.4510   21.0510   33.0360 C   0  0  0  0  0  0  0  0  0  0  0  0
   36.8310   21.5500   34.2640 C   0  0  0  0  0  0  0  0  0  0  0  0
   38.1270   21.8410   34.6130 C   0  0  0  0  0  0  0  0  0  0  0  0
   39.1000   21.6150   33.6590 C   0  0  0  0  0  0  0  0  0  0  0  0
   38.8010   21.1170   32.4000 C   0  0  0  0  0  0  0  0  0  0  0  0
   39.9470   22.7490   37.6620 C   0  0  0  0  0  0  0  0  0  0  0  0
   38.9580   23.3720   38.4430 C   0  0  0  0  0  0  0  0  0  0  0  0
   37.6670   23.4700   37.9010 C   0  0  0  0  0  0  0  0  0  0  0  0
   37.4620   22.9600   36.6640 N   0  0  0  0  0  0  0  0  0  0  0  0
   38.4350   22.3660   35.9400 C   0  0  0  0  0  0  0  0  0  0  0  0
   39.6690   22.2600   36.4320 N   0  0  0  0  0  0  0  0  0  0  0  0
   37.0740   20.2230   30.5590 S   0  0  0  0  0  0  0  0  0  0  0  0
   38.0980   20.5150   29.5180 O   0  0  0  0  0  0  0  0  0  0  0  0
   36.8470   18.7460   30.7110 O   0  0  0  0  0  0  0  0  0  0  0  0
   35.0400   20.7380   32.6710 C   0  0  0  0  0  0  0  0  0  0  0  0
   36.0449   21.7265   35.0129 H   0  0  0  0  0  0  0  0  0  0  0  0
   40.1483   21.8378   33.9067 H   0  0  0  0  0  0  0  0  0  0  0  0
   39.5863   20.9432   31.6496 H   0  0  0  0  0  0  0  0  0  0  0  0
   40.9685   22.6573   38.0596 H   0  0  0  0  0  0  0  0  0  0  0  0
   39.1877   23.7685   39.4430 H   0  0  0  0  0  0  0  0  0  0  0  0
   36.8493   23.9453   38.4626 H   0  0  0  0  0  0  0  0  0  0  0  0
   35.9501   20.8579   30.1001 H   0  0  0  0  0  0  0  0  0  0  0  0
   34.4450   20.6060   33.5867 H   0  0  0  0  0  0  0  0  0  0  0  0
   34.6224   21.5653   32.0785 H   0  0  0  0  0  0  0  0  0  0  0  0
   35.0114   19.8117   32.0785 H   0  0  0  0  0  0  0  0  0  0  0  0
  1  6  2  0
  1  2  1  0
  2  3  2  0
  3  4  1  0
  4 11  1  0
  5  4  2  0
  6  5  1  0
  7  8  2  0
  9  8  1  0
 10  9  2  0
 11 12  2  0
 11 10  1  0
 12  7  1  0
 13 15  2  0
 13  1  1  0
 14 13  2  0
 16  2  1  0
  3 17  1  0
  5 18  1  0
  6 19  1  0
  7 20  1  0
  8 21  1  0
  9 22  1  0
 13 23  1  0
 16 24  1  0
 16 25  1  0
 16 26  1  0
M  ISO  8  17  14  18  14  19  14  20  14  21  14  22  14  23  11  24   8
M  ISO  2  25   8  26   8
M  END
>  <minimizedAffinity>  (1) 
-4.17955399

>  <minimizedRMSD>  (1) 
1.50570512

$$$$
