
     RDKit          3D

 25 26  0  0  0  0  0  0  0  0999 V2000
   36.5810   25.7740   32.0340 C   0  0  0  0  0  0  0  0  0  0  0  0
   37.4250   24.9620   32.7370 C   0  0  0  0  0  0  0  0  0  0  0  0
   37.2280   23.5960   32.6430 C   0  0  0  0  0  0  0  0  0  0  0  0
   36.2320   23.0360   31.8840 C   0  0  0  0  0  0  0  0  0  0  0  0
   35.4160   23.9010   31.1990 C   0  0  0  0  0  0  0  0  0  0  0  0
   35.5530   25.2800   31.2450 C   0  0  0  0  0  0  0  0  0  0  0  0
   34.7450   19.6870   32.0470 C   0  0  0  0  0  0  0  0  0  0  0  0
   35.8370   18.8580   31.6690 C   0  0  0  0  0  0  0  0  0  0  0  0
   37.0660   19.4700   31.3640 C   0  0  0  0  0  0  0  0  0  0  0  0
   37.1270   20.8160   31.4500 N   0  0  0  0  0  0  0  0  0  0  0  0
   36.0580   21.5770   31.8170 C   0  0  0  0  0  0  0  0  0  0  0  0
   34.8830   21.0320   32.1120 N   0  0  0  0  0  0  0  0  0  0  0  0
   36.8310   27.4790   32.1540 S   0  0  0  0  0  0  0  0  0  0  0  0
   36.2640   28.2160   30.9660 O   0  0  0  0  0  0  0  0  0  0  0  0
   36.2220   27.9570   33.4360 O   0  0  0  0  0  0  0  0  0  0  0  0
   38.5200   25.3420   33.5770 C   0  0  0  0  0  0  0  0  0  0  0  0
   38.5050   25.5270   34.8140 O   0  0  0  0  0  0  0  0  0  0  0  0
   37.9004   22.9287   33.2021 H   0  0  0  0  0  0  0  0  0  0  0  0
   34.6106   23.4779   30.5807 H   0  0  0  0  0  0  0  0  0  0  0  0
   34.8814   25.9473   30.6850 H   0  0  0  0  0  0  0  0  0  0  0  0
   33.7749   19.2289   32.2899 H   0  0  0  0  0  0  0  0  0  0  0  0
   35.7232   17.7652   31.6165 H   0  0  0  0  0  0  0  0  0  0  0  0
   37.9427   18.8756   31.0672 H   0  0  0  0  0  0  0  0  0  0  0  0
   38.1761   27.7392   32.1553 H   0  0  0  0  0  0  0  0  0  0  0  0
   39.4882   25.4885   33.0759 H   0  0  0  0  0  0  0  0  0  0  0  0
  1 13  1  0
  1  2  2  0
  2 16  1  0
  3  2  1  0
  4  3  2  0
  5  6  2  0
  5  4  1  0
  6  1  1  0
  7 12  2  0
  8  7  1  0
  9 10  1  0
  9  8  2  0
 10 11  2  0
 11  4  1  0
 11 12  1  0
 13 15  2  0
 14 13  2  0
 16 17  2  0
  3 18  1  0
  5 19  1  0
  6 20  1  0
  7 21  1  0
  8 22  1  0
  9 23  1  0
 13 24  1  0
 16 25  1  0
M  ISO  8  18  14  19  14  20  14  21  14  22  14  23  14  24  11  25   6
M  END
>  <minimizedAffinity>  (1) 
-4.04347897

>  <minimizedRMSD>  (1) 
6.72394371

$$$$
