
     RDKit          3D

 32 33  0  0  0  0  0  0  0  0999 V2000
   36.2550   22.0280   32.5430 C   0  0  0  0  0  0  0  0  0  0  0  0
   37.3940   22.6200   33.0420 C   0  0  0  0  0  0  0  0  0  0  0  0
   37.6380   23.9030   32.5940 C   0  0  0  0  0  0  0  0  0  0  0  0
   36.8240   24.5930   31.7030 C   0  0  0  0  0  0  0  0  0  0  0  0
   35.7060   23.9420   31.2470 C   0  0  0  0  0  0  0  0  0  0  0  0
   35.3880   22.6510   31.6490 C   0  0  0  0  0  0  0  0  0  0  0  0
   36.5370   28.0560   30.5320 C   0  0  0  0  0  0  0  0  0  0  0  0
   37.8900   28.4960   30.5490 C   0  0  0  0  0  0  0  0  0  0  0  0
   38.8700   27.5800   30.9670 C   0  0  0  0  0  0  0  0  0  0  0  0
   38.4780   26.3330   31.3290 N   0  0  0  0  0  0  0  0  0  0  0  0
   37.1900   25.9570   31.2990 C   0  0  0  0  0  0  0  0  0  0  0  0
   36.2370   26.7970   30.9100 N   0  0  0  0  0  0  0  0  0  0  0  0
   35.8530   20.4210   33.0570 S   0  0  0  0  0  0  0  0  0  0  0  0
   35.4210   20.3370   34.4780 O   0  0  0  0  0  0  0  0  0  0  0  0
   34.7760   19.9250   32.1530 O   0  0  0  0  0  0  0  0  0  0  0  0
   38.3230   21.9790   33.9860 C   0  0  0  0  0  0  0  0  0  0  0  0
   39.7650   22.3180   33.5600 C   0  0  0  0  0  0  0  0  0  0  0  0
   38.2040   22.4400   35.4040 C   0  0  0  0  0  0  0  0  0  0  0  0
   38.5377   24.4139   32.9675 H   0  0  0  0  0  0  0  0  0  0  0  0
   35.0400   24.4589   30.5404 H   0  0  0  0  0  0  0  0  0  0  0  0
   34.4874   22.1412   31.2761 H   0  0  0  0  0  0  0  0  0  0  0  0
   35.7382   28.7409   30.2114 H   0  0  0  0  0  0  0  0  0  0  0  0
   38.1595   29.5183   30.2453 H   0  0  0  0  0  0  0  0  0  0  0  0
   39.9312   27.8677   30.9999 H   0  0  0  0  0  0  0  0  0  0  0  0
   36.9799   19.6456   32.9811 H   0  0  0  0  0  0  0  0  0  0  0  0
   38.0734   20.9082   33.9526 H   0  0  0  0  0  0  0  0  0  0  0  0
   40.3871   22.4642   34.4554 H   0  0  0  0  0  0  0  0  0  0  0  0
   40.1741   21.4915   32.9603 H   0  0  0  0  0  0  0  0  0  0  0  0
   39.7630   23.2402   32.9603 H   0  0  0  0  0  0  0  0  0  0  0  0
   38.4206   21.6011   36.0817 H   0  0  0  0  0  0  0  0  0  0  0  0
   38.9216   23.2535   35.5865 H   0  0  0  0  0  0  0  0  0  0  0  0
   37.1823   22.8045   35.5865 H   0  0  0  0  0  0  0  0  0  0  0  0
  1  2  2  0
  1 13  1  0
  2 16  1  0
  3  2  1  0
  4  3  2  0
  5  6  2  0
  5  4  1  0
  6  1  1  0
  7  8  2  0
  7 12  1  0
  8  9  1  0
  9 10  2  0
 11 10  1  0
 11  4  1  0
 12 11  2  0
 13 14  2  0
 15 13  2  0
 16 18  1  0
 17 16  1  0
  3 19  1  0
  5 20  1  0
  6 21  1  0
  7 22  1  0
  8 23  1  0
  9 24  1  0
 13 25  1  0
 16 26  1  0
 17 27  1  0
 17 28  1  0
 17 29  1  0
 18 30  1  0
 18 31  1  0
 18 32  1  0
M  ISO  8  19  14  20  14  21  14  22  14  23  14  24  14  25  11  26   8
M  ISO  6  27   8  28   8  29   8  30   8  31   8  32   8
M  END
>  <minimizedAffinity>  (1) 
-4.21630287

>  <minimizedRMSD>  (1) 
5.73446894

$$$$
