
     RDKit          3D

 38 41  0  0  1  0  0  0  0  0999 V2000
   39.9630   26.6690   32.8350 C   0  0  0  0  0  0  0  0  0  0  0  0
   39.3820   27.2400   33.8960 N   0  0  0  0  0  0  0  0  0  0  0  0
   39.6240   26.5430   34.9610 O   0  0  0  0  0  0  0  0  0  0  0  0
   40.3800   25.4990   34.5530 C   0  0  0  0  0  0  0  0  0  0  0  0
   40.6240   25.5250   33.2420 N   0  0  0  0  0  0  0  0  0  0  0  0
   36.6210   23.8620   31.0150 C   0  0  0  0  0  0  0  0  0  0  0  0
   35.4120   24.5770   31.2390 C   0  0  0  0  0  0  0  0  0  0  0  0
   35.4460   25.9520   31.2590 C   0  0  0  0  0  0  0  0  0  0  0  0
   36.6590   26.5570   31.0590 N   0  0  0  0  0  0  0  0  0  0  0  0
   37.7860   25.8320   30.8490 C   0  0  0  0  0  0  0  0  0  0  0  0
   37.7790   24.5170   30.8240 N   0  0  0  0  0  0  0  0  0  0  0  0
   38.9810   26.5990   30.6540 N   0  0  0  0  0  0  0  0  0  0  0  0
   39.1520   26.9970   29.4260 N   0  0  0  0  0  0  0  0  0  0  0  0
   40.3100   27.7100   29.3630 C   0  0  0  0  0  0  0  0  0  0  0  0
   40.8540   27.7400   30.6040 C   0  0  0  0  0  0  0  0  0  0  0  0
   40.0040   27.0320   31.4210 C   0  0  0  0  0  0  0  0  0  0  0  0
   36.5960   22.4340   30.9920 N   0  0  0  0  0  0  0  0  0  0  0  0
   40.8910   24.4250   35.4730 C   0  0  2  0  0  0  0  0  0  0  0  0
   41.1000   23.0360   34.9130 C   0  0  0  0  0  0  0  0  0  0  0  0
   40.0060   23.3340   35.9230 C   0  0  1  0  0  0  0  0  0  0  0  0
   40.1750   22.6580   37.2310 C   0  0  0  0  0  0  0  0  0  0  0  0
   39.1820   23.1180   38.2770 C   0  0  0  0  0  0  0  0  0  0  0  0
   37.7300   23.9190   37.5770 S   0  0  0  0  0  0  0  0  0  0  0  0
   34.4651   24.0391   31.3937 H   0  0  0  0  0  0  0  0  0  0  0  0
   34.5342   26.5433   31.4291 H   0  0  0  0  0  0  0  0  0  0  0  0
   40.7309   28.1799   28.4619 H   0  0  0  0  0  0  0  0  0  0  0  0
   41.7914   28.2338   30.8997 H   0  0  0  0  0  0  0  0  0  0  0  0
   37.4657   21.9062   30.8306 H   0  0  0  0  0  0  0  0  0  0  0  0
   35.7083   21.9321   31.1368 H   0  0  0  0  0  0  0  0  0  0  0  0
   41.5157   25.1607   36.0007 H   0  0  0  0  0  0  0  0  0  0  0  0
   40.8436   22.8155   33.8663 H   0  0  0  0  0  0  0  0  0  0  0  0
   41.9419   22.3310   34.8483 H   0  0  0  0  0  0  0  0  0  0  0  0
   38.9101   23.2674   35.9899 H   0  0  0  0  0  0  0  0  0  0  0  0
   40.0494   21.5753   37.0830 H   0  0  0  0  0  0  0  0  0  0  0  0
   41.1790   22.9127   37.6014 H   0  0  0  0  0  0  0  0  0  0  0  0
   38.8528   22.2419   38.8550 H   0  0  0  0  0  0  0  0  0  0  0  0
   39.6928   23.8618   38.9062 H   0  0  0  0  0  0  0  0  0  0  0  0
   36.9218   24.3649   38.5894 H   0  0  0  0  0  0  0  0  0  0  0  0
  1  5  1  0
  1  2  2  0
  2  3  1  0
  4  3  1  0
  4 18  1  0
  5  4  2  0
  6  7  2  0
  7  8  1  0
  9  8  2  0
 10  9  1  0
 11 10  2  0
 11  6  1  0
 12 10  1  0
 12 16  1  0
 13 12  1  0
 14 13  2  0
 14 15  1  0
 15 16  2  0
 16  1  1  0
 17  6  1  0
 18 20  1  0
 19 18  1  0
 19 20  1  0
 20 21  1  0
 21 22  1  0
 23 22  1  0
  7 24  1  0
  8 25  1  0
 14 26  1  0
 15 27  1  0
 17 28  1  0
 17 29  1  0
 18 30  1  1
 19 31  1  0
 19 32  1  0
 20 33  1  6
 21 34  1  0
 21 35  1  0
 22 36  1  0
 22 37  1  0
 23 38  1  0
M  ISO  8  24  14  25  14  26  14  27  14  30  13  31  13  32  13  33  13
M  ISO  5  34   8  35   8  36   8  37   8  38  11
M  END
>  <minimizedAffinity>  (1) 
-4.60938215

>  <minimizedRMSD>  (1) 
1.4104495

$$$$
