
     RDKit          3D

 32 34  0  0  0  0  0  0  0  0999 V2000
   36.4730   21.9690   32.3030 C   0  0  0  0  0  0  0  0  0  0  0  0
   37.4440   22.6680   32.9710 C   0  0  0  0  0  0  0  0  0  0  0  0
   37.4250   24.0480   32.8350 C   0  0  0  0  0  0  0  0  0  0  0  0
   36.5110   24.7290   32.0850 C   0  0  0  0  0  0  0  0  0  0  0  0
   35.5410   23.9760   31.4220 C   0  0  0  0  0  0  0  0  0  0  0  0
   35.5000   22.5870   31.5150 C   0  0  0  0  0  0  0  0  0  0  0  0
   36.4080   28.1430   30.7480 C   0  0  0  0  0  0  0  0  0  0  0  0
   36.6090   28.9280   31.8920 C   0  0  0  0  0  0  0  0  0  0  0  0
   36.7770   28.2640   33.1050 C   0  0  0  0  0  0  0  0  0  0  0  0
   36.7380   26.9030   33.1270 N   0  0  0  0  0  0  0  0  0  0  0  0
   36.5380   26.1880   31.9760 C   0  0  0  0  0  0  0  0  0  0  0  0
   36.3740   26.7830   30.7940 N   0  0  0  0  0  0  0  0  0  0  0  0
   36.4540   20.2430   32.4420 S   0  0  0  0  0  0  0  0  0  0  0  0
   35.5240   19.7610   33.5240 O   0  0  0  0  0  0  0  0  0  0  0  0
   36.0920   19.6920   31.0930 O   0  0  0  0  0  0  0  0  0  0  0  0
   38.6930   21.9290   33.9790 S   0  0  0  0  0  0  0  0  0  0  0  0
   38.6150   22.4910   35.6770 C   0  0  0  0  0  0  0  0  0  0  0  0
   39.8410   22.3290   36.3230 C   0  0  0  0  0  0  0  0  0  0  0  0
   40.0010   22.7040   37.6550 C   0  0  0  0  0  0  0  0  0  0  0  0
   38.9180   23.2270   38.2800 N   0  0  0  0  0  0  0  0  0  0  0  0
   37.7360   23.3690   37.6150 C   0  0  0  0  0  0  0  0  0  0  0  0
   37.5690   23.0150   36.3380 N   0  0  0  0  0  0  0  0  0  0  0  0
   38.1942   24.6294   33.3644 H   0  0  0  0  0  0  0  0  0  0  0  0
   34.7883   24.4936   30.8092 H   0  0  0  0  0  0  0  0  0  0  0  0
   34.7322   22.0006   30.9890 H   0  0  0  0  0  0  0  0  0  0  0  0
   36.2729   28.6442   29.7782 H   0  0  0  0  0  0  0  0  0  0  0  0
   36.6331   30.0262   31.8340 H   0  0  0  0  0  0  0  0  0  0  0  0
   36.9391   28.8318   34.0331 H   0  0  0  0  0  0  0  0  0  0  0  0
   37.6904   19.7913   32.8216 H   0  0  0  0  0  0  0  0  0  0  0  0
   40.6919   21.8998   35.7736 H   0  0  0  0  0  0  0  0  0  0  0  0
   40.9622   22.5813   38.1757 H   0  0  0  0  0  0  0  0  0  0  0  0
   36.8787   23.7957   38.1564 H   0  0  0  0  0  0  0  0  0  0  0  0
  1 13  1  0
  1  2  2  0
  2 16  1  0
  3  2  1  0
  4  3  2  0
  5  6  2  0
  5  4  1  0
  6  1  1  0
  7 12  2  0
  7  8  1  0
  8  9  2  0
  9 10  1  0
 11  4  1  0
 11 10  2  0
 12 11  1  0
 13 14  2  0
 15 13  2  0
 16 17  1  0
 17 18  2  0
 17 22  1  0
 18 19  1  0
 19 20  2  0
 21 20  1  0
 22 21  2  0
  3 23  1  0
  5 24  1  0
  6 25  1  0
  7 26  1  0
  8 27  1  0
  9 28  1  0
 13 29  1  0
 18 30  1  0
 19 31  1  0
 21 32  1  0
M  ISO  8  23  14  24  14  25  14  26  14  27  14  28  14  29  11  30  14
M  ISO  2  31  14  32  14
M  END
>  <minimizedAffinity>  (1) 
-5.51452208

>  <minimizedRMSD>  (1) 
6.24871969

$$$$
