
     RDKit          3D

 37 39  0  0  0  0  0  0  0  0999 V2000
   38.8470   23.8430   31.5890 C   0  0  0  0  0  0  0  0  0  0  0  0
   37.6370   23.6260   32.2290 C   0  0  0  0  0  0  0  0  0  0  0  0
   37.7260   23.5390   33.6160 C   0  0  0  0  0  0  0  0  0  0  0  0
   38.8810   23.6490   34.3370 C   0  0  0  0  0  0  0  0  0  0  0  0
   40.0510   23.8640   33.6270 C   0  0  0  0  0  0  0  0  0  0  0  0
   40.0650   23.9670   32.2410 C   0  0  0  0  0  0  0  0  0  0  0  0
   39.8000   22.8050   37.7780 C   0  0  0  0  0  0  0  0  0  0  0  0
   38.7650   23.3650   38.5270 C   0  0  0  0  0  0  0  0  0  0  0  0
   37.7640   24.0270   37.8360 C   0  0  0  0  0  0  0  0  0  0  0  0
   37.8220   24.1080   36.4740 N   0  0  0  0  0  0  0  0  0  0  0  0
   38.8610   23.5390   35.7970 C   0  0  0  0  0  0  0  0  0  0  0  0
   39.8540   22.8880   36.4240 N   0  0  0  0  0  0  0  0  0  0  0  0
   38.8120   24.0040   29.8650 S   0  0  0  0  0  0  0  0  0  0  0  0
   39.5890   25.1870   29.3570 O   0  0  0  0  0  0  0  0  0  0  0  0
   39.2960   22.7290   29.2820 O   0  0  0  0  0  0  0  0  0  0  0  0
   36.0710   23.5010   31.4440 S   0  0  0  0  0  0  0  0  0  0  0  0
   35.5510   21.8190   31.2400 C   0  0  0  0  0  0  0  0  0  0  0  0
   36.7350   20.8720   31.0010 C   0  0  0  0  0  0  0  0  0  0  0  0
   36.0170   19.5370   30.9690 C   0  0  0  0  0  0  0  0  0  0  0  0
   35.0030   19.6530   32.0780 C   0  0  0  0  0  0  0  0  0  0  0  0
   34.9400   21.1520   32.4330 C   0  0  0  0  0  0  0  0  0  0  0  0
   36.7937   23.3684   34.1744 H   0  0  0  0  0  0  0  0  0  0  0  0
   40.9988   23.9561   34.1775 H   0  0  0  0  0  0  0  0  0  0  0  0
   40.9993   24.1390   31.6865 H   0  0  0  0  0  0  0  0  0  0  0  0
   40.6057   22.2742   38.3063 H   0  0  0  0  0  0  0  0  0  0  0  0
   38.7447   23.2839   39.6238 H   0  0  0  0  0  0  0  0  0  0  0  0
   36.9261   24.4855   38.3816 H   0  0  0  0  0  0  0  0  0  0  0  0
   37.5237   24.2516   29.4702 H   0  0  0  0  0  0  0  0  0  0  0  0
   34.8343   21.9428   30.4147 H   0  0  0  0  0  0  0  0  0  0  0  0
   37.2396   21.0850   30.0470 H   0  0  0  0  0  0  0  0  0  0  0  0
   37.5381   20.9434   31.7493 H   0  0  0  0  0  0  0  0  0  0  0  0
   35.5221   19.3804   29.9992 H   0  0  0  0  0  0  0  0  0  0  0  0
   36.6974   18.6826   31.0997 H   0  0  0  0  0  0  0  0  0  0  0  0
   34.0193   19.2984   31.7365 H   0  0  0  0  0  0  0  0  0  0  0  0
   35.2829   19.0417   32.9486 H   0  0  0  0  0  0  0  0  0  0  0  0
   35.5201   21.3654   33.3429 H   0  0  0  0  0  0  0  0  0  0  0  0
   33.9178   21.5004   32.6423 H   0  0  0  0  0  0  0  0  0  0  0  0
  1  2  2  0
  1  6  1  0
  2  3  1  0
  3  4  2  0
  4 11  1  0
  5  4  1  0
  6  5  2  0
  7  8  2  0
  9  8  1  0
 10  9  2  0
 11 12  2  0
 11 10  1  0
 12  7  1  0
 13  1  1  0
 14 13  2  0
 15 13  2  0
 16  2  1  0
 17 16  1  0
 17 21  1  0
 18 17  1  0
 19 18  1  0
 19 20  1  0
 20 21  1  0
  3 22  1  0
  5 23  1  0
  6 24  1  0
  7 25  1  0
  8 26  1  0
  9 27  1  0
 13 28  1  0
 17 29  1  0
 18 30  1  0
 18 31  1  0
 19 32  1  0
 19 33  1  0
 20 34  1  0
 20 35  1  0
 21 36  1  0
 21 37  1  0
M  ISO  8  22  14  23  14  24  14  25  14  26  14  27  14  28  11  29  13
M  ISO  8  30  13  31  13  32  13  33  13  34  13  35  13  36  13  37  13
M  END
>  <minimizedAffinity>  (1) 
-4.89076805

>  <minimizedRMSD>  (1) 
2.78848553

$$$$
