
     RDKit          3D

 27 28  0  0  0  0  0  0  0  0999 V2000
   38.4380   21.4540   31.8950 C   0  0  0  0  0  0  0  0  0  0  0  0
   37.3170   21.9560   32.5440 C   0  0  0  0  0  0  0  0  0  0  0  0
   37.5000   22.2910   33.8670 C   0  0  0  0  0  0  0  0  0  0  0  0
   38.6720   22.1610   34.5420 C   0  0  0  0  0  0  0  0  0  0  0  0
   39.7580   21.6510   33.8370 C   0  0  0  0  0  0  0  0  0  0  0  0
   39.6730   21.2860   32.5030 C   0  0  0  0  0  0  0  0  0  0  0  0
   40.0280   22.7490   37.9070 C   0  0  0  0  0  0  0  0  0  0  0  0
   38.9530   23.3410   38.5730 C   0  0  0  0  0  0  0  0  0  0  0  0
   37.7660   23.5250   37.8470 C   0  0  0  0  0  0  0  0  0  0  0  0
   37.7240   23.1270   36.5560 N   0  0  0  0  0  0  0  0  0  0  0  0
   38.8120   22.5520   35.9510 C   0  0  0  0  0  0  0  0  0  0  0  0
   39.9560   22.3590   36.6060 N   0  0  0  0  0  0  0  0  0  0  0  0
   38.2730   21.0300   30.2200 S   0  0  0  0  0  0  0  0  0  0  0  0
   39.5150   21.3410   29.4170 O   0  0  0  0  0  0  0  0  0  0  0  0
   37.8970   19.5910   30.1540 O   0  0  0  0  0  0  0  0  0  0  0  0
   35.7380   22.1710   31.7930 S   0  0  0  0  0  0  0  0  0  0  0  0
   35.4810   23.8580   31.2290 C   0  0  0  0  0  0  0  0  0  0  0  0
   36.6358   22.6925   34.4166 H   0  0  0  0  0  0  0  0  0  0  0  0
   40.7196   21.5333   34.3581 H   0  0  0  0  0  0  0  0  0  0  0  0
   40.5386   20.8846   31.9557 H   0  0  0  0  0  0  0  0  0  0  0  0
   40.9687   22.5921   38.4552 H   0  0  0  0  0  0  0  0  0  0  0  0
   39.0333   23.6510   39.6254 H   0  0  0  0  0  0  0  0  0  0  0  0
   36.8858   23.9848   38.3201 H   0  0  0  0  0  0  0  0  0  0  0  0
   37.2914   21.7932   29.6447 H   0  0  0  0  0  0  0  0  0  0  0  0
   35.3796   24.5239   32.0986 H   0  0  0  0  0  0  0  0  0  0  0  0
   36.3410   24.1766   30.6216 H   0  0  0  0  0  0  0  0  0  0  0  0
   34.5652   23.9060   30.6216 H   0  0  0  0  0  0  0  0  0  0  0  0
  1  6  2  0
  1  2  1  0
  2  3  2  0
  3  4  1  0
  4 11  1  0
  5  4  2  0
  6  5  1  0
  7  8  2  0
  9  8  1  0
 10  9  2  0
 11 10  1  0
 11 12  2  0
 12  7  1  0
 13  1  1  0
 14 13  2  0
 15 13  2  0
 16  2  1  0
 17 16  1  0
  3 18  1  0
  5 19  1  0
  6 20  1  0
  7 21  1  0
  8 22  1  0
  9 23  1  0
 13 24  1  0
 17 25  1  0
 17 26  1  0
 17 27  1  0
M  ISO  8  18  14  19  14  20  14  21  14  22  14  23  14  24  11  25   8
M  ISO  2  26   8  27   8
M  END
>  <minimizedAffinity>  (1) 
-3.73325872

>  <minimizedRMSD>  (1) 
0.886643767

$$$$
