
     RDKit          3D

 33 34  0  0  0  0  0  0  0  0999 V2000
   38.6280   23.8780   31.8070 C   0  0  0  0  0  0  0  0  0  0  0  0
   37.6260   23.2070   32.4660 C   0  0  0  0  0  0  0  0  0  0  0  0
   37.7340   23.1210   33.8450 C   0  0  0  0  0  0  0  0  0  0  0  0
   38.7610   23.6570   34.5570 C   0  0  0  0  0  0  0  0  0  0  0  0
   39.7470   24.3260   33.8360 C   0  0  0  0  0  0  0  0  0  0  0  0
   39.7080   24.4540   32.4510 C   0  0  0  0  0  0  0  0  0  0  0  0
   39.8820   22.8310   37.9580 C   0  0  0  0  0  0  0  0  0  0  0  0
   38.8650   23.4220   38.7480 C   0  0  0  0  0  0  0  0  0  0  0  0
   37.8270   24.0840   38.1010 C   0  0  0  0  0  0  0  0  0  0  0  0
   37.8410   24.1310   36.7410 N   0  0  0  0  0  0  0  0  0  0  0  0
   38.8430   23.5470   36.0120 C   0  0  0  0  0  0  0  0  0  0  0  0
   39.8410   22.9110   36.6070 N   0  0  0  0  0  0  0  0  0  0  0  0
   38.5210   24.0030   30.0820 S   0  0  0  0  0  0  0  0  0  0  0  0
   39.2040   25.2390   29.5490 O   0  0  0  0  0  0  0  0  0  0  0  0
   39.0850   22.7520   29.4970 O   0  0  0  0  0  0  0  0  0  0  0  0
   36.2220   22.4530   31.6730 S   0  0  0  0  0  0  0  0  0  0  0  0
   35.9270   20.8470   32.4320 C   0  0  0  0  0  0  0  0  0  0  0  0
   36.9800   19.8300   32.0210 C   0  0  0  0  0  0  0  0  0  0  0  0
   34.5760   20.2660   32.0370 C   0  0  0  0  0  0  0  0  0  0  0  0
   36.9438   22.5888   34.3949 H   0  0  0  0  0  0  0  0  0  0  0  0
   40.5908   24.7712   34.3836 H   0  0  0  0  0  0  0  0  0  0  0  0
   40.4955   24.9858   31.8969 H   0  0  0  0  0  0  0  0  0  0  0  0
   40.7131   22.3019   38.4472 H   0  0  0  0  0  0  0  0  0  0  0  0
   38.8957   23.3588   39.8458 H   0  0  0  0  0  0  0  0  0  0  0  0
   37.0158   24.5573   38.6737 H   0  0  0  0  0  0  0  0  0  0  0  0
   37.2083   24.1382   29.7139 H   0  0  0  0  0  0  0  0  0  0  0  0
   35.9622   21.0277   33.5165 H   0  0  0  0  0  0  0  0  0  0  0  0
   37.4356   19.3900   32.9204 H   0  0  0  0  0  0  0  0  0  0  0  0
   36.5092   19.0361   31.4226 H   0  0  0  0  0  0  0  0  0  0  0  0
   37.7571   20.3282   31.4226 H   0  0  0  0  0  0  0  0  0  0  0  0
   34.0036   20.0198   32.9435 H   0  0  0  0  0  0  0  0  0  0  0  0
   34.0194   21.0043   31.4411 H   0  0  0  0  0  0  0  0  0  0  0  0
   34.7291   19.3542   31.4411 H   0  0  0  0  0  0  0  0  0  0  0  0
  1  6  2  0
  1  2  1  0
  2  3  2  0
  3  4  1  0
  4 11  1  0
  5  4  2  0
  6  5  1  0
  7  8  2  0
  9  8  1  0
 10  9  2  0
 11 12  2  0
 11 10  1  0
 12  7  1  0
 13  1  1  0
 14 13  2  0
 15 13  2  0
 16 17  1  0
 16  2  1  0
 18 17  1  0
 19 17  1  0
  3 20  1  0
  5 21  1  0
  6 22  1  0
  7 23  1  0
  8 24  1  0
  9 25  1  0
 13 26  1  0
 17 27  1  0
 18 28  1  0
 18 29  1  0
 18 30  1  0
 19 31  1  0
 19 32  1  0
 19 33  1  0
M  ISO  8  20  14  21  14  22  14  23  14  24  14  25  14  26  11  27   8
M  ISO  6  28   8  29   8  30   8  31   8  32   8  33   8
M  END
>  <minimizedAffinity>  (1) 
-4.15222168

>  <minimizedRMSD>  (1) 
2.41298556

$$$$
