
     RDKit          3D

 27 28  0  0  0  0  0  0  0  0999 V2000
   38.6650   22.3310   31.8940 C   0  0  0  0  0  0  0  0  0  0  0  0
   37.8820   21.5710   32.7190 C   0  0  0  0  0  0  0  0  0  0  0  0
   37.9580   21.8260   34.0730 C   0  0  0  0  0  0  0  0  0  0  0  0
   38.7600   22.7840   34.6240 C   0  0  0  0  0  0  0  0  0  0  0  0
   39.5460   23.5420   33.7510 C   0  0  0  0  0  0  0  0  0  0  0  0
   39.5170   23.3350   32.3790 C   0  0  0  0  0  0  0  0  0  0  0  0
   39.7890   22.8590   38.1470 C   0  0  0  0  0  0  0  0  0  0  0  0
   38.7550   23.5730   38.7540 C   0  0  0  0  0  0  0  0  0  0  0  0
   37.7180   24.0140   37.9380 C   0  0  0  0  0  0  0  0  0  0  0  0
   37.7540   23.7370   36.6080 N   0  0  0  0  0  0  0  0  0  0  0  0
   38.8000   23.0310   36.0690 C   0  0  0  0  0  0  0  0  0  0  0  0
   39.8020   22.5960   36.8150 N   0  0  0  0  0  0  0  0  0  0  0  0
   38.6140   22.0410   30.1930 S   0  0  0  0  0  0  0  0  0  0  0  0
   38.8810   23.2830   29.3850 O   0  0  0  0  0  0  0  0  0  0  0  0
   39.6270   20.9600   29.8900 O   0  0  0  0  0  0  0  0  0  0  0  0
   36.7980   20.2820   32.1590 S   0  0  0  0  0  0  0  0  0  0  0  0
   35.1340   20.8940   31.8210 C   0  0  0  0  0  0  0  0  0  0  0  0
   34.1840   19.9030   31.8790 F   0  0  0  0  0  0  0  0  0  0  0  0
   34.8010   21.8010   32.8170 F   0  0  0  0  0  0  0  0  0  0  0  0
   35.1600   21.5260   30.5850 F   0  0  0  0  0  0  0  0  0  0  0  0
   37.3353   21.2214   34.7489 H   0  0  0  0  0  0  0  0  0  0  0  0
   40.2039   24.3220   34.1618 H   0  0  0  0  0  0  0  0  0  0  0  0
   40.1382   23.9350   31.6977 H   0  0  0  0  0  0  0  0  0  0  0  0
   40.6214   22.4971   38.7684 H   0  0  0  0  0  0  0  0  0  0  0  0
   38.7596   23.7789   39.8345 H   0  0  0  0  0  0  0  0  0  0  0  0
   36.8776   24.5810   38.3650 H   0  0  0  0  0  0  0  0  0  0  0  0
   37.3532   21.6412   29.8360 H   0  0  0  0  0  0  0  0  0  0  0  0
  1  6  2  0
  1  2  1  0
  2  3  2  0
  3  4  1  0
  4 11  1  0
  5  4  2  0
  6  5  1  0
  7  8  2  0
  9  8  1  0
 10  9  2  0
 11 10  1  0
 11 12  2  0
 12  7  1  0
 13  1  1  0
 14 13  2  0
 15 13  2  0
 16  2  1  0
 17 18  1  0
 17 16  1  0
 17 19  1  0
 20 17  1  0
  3 21  1  0
  5 22  1  0
  6 23  1  0
  7 24  1  0
  8 25  1  0
  9 26  1  0
 13 27  1  0
M  ISO  7  21  14  22  14  23  14  24  14  25  14  26  14  27  11
M  END
>  <minimizedAffinity>  (1) 
-4.43821526

>  <minimizedRMSD>  (1) 
1.58585882

$$$$
