
     RDKit          3D

 34 36  0  0  0  0  0  0  0  0999 V2000
   38.8530   21.0900   31.9290 C   0  0  0  0  0  0  0  0  0  0  0  0
   37.6970   21.4210   32.5570 C   0  0  0  0  0  0  0  0  0  0  0  0
   37.7100   21.8670   33.8570 C   0  0  0  0  0  0  0  0  0  0  0  0
   38.8770   21.9990   34.5740 C   0  0  0  0  0  0  0  0  0  0  0  0
   40.0740   21.6590   33.9310 C   0  0  0  0  0  0  0  0  0  0  0  0
   40.0920   21.2070   32.6220 C   0  0  0  0  0  0  0  0  0  0  0  0
   39.8710   22.8790   37.9980 C   0  0  0  0  0  0  0  0  0  0  0  0
   38.7230   23.4490   38.5200 C   0  0  0  0  0  0  0  0  0  0  0  0
   37.6210   23.5200   37.6820 C   0  0  0  0  0  0  0  0  0  0  0  0
   37.7130   23.0390   36.4160 N   0  0  0  0  0  0  0  0  0  0  0  0
   38.8830   22.4860   35.9560 C   0  0  0  0  0  0  0  0  0  0  0  0
   39.9380   22.4050   36.7260 N   0  0  0  0  0  0  0  0  0  0  0  0
   38.8550   20.3810   30.3920 S   0  0  0  0  0  0  0  0  0  0  0  0
   38.7180   21.5040   29.3190 O   0  0  0  0  0  0  0  0  0  0  0  0
   40.1580   19.6760   30.2460 O   0  0  0  0  0  0  0  0  0  0  0  0
   36.3670   17.9280   28.7280 N   0  0  0  0  0  0  0  0  0  0  0  0
   36.8560   19.1090   28.9290 N   0  0  0  0  0  0  0  0  0  0  0  0
   37.9110   19.1270   29.8140 C   0  0  0  0  0  0  0  0  0  0  0  0
   38.0060   17.7500   30.1370 C   0  0  0  0  0  0  0  0  0  0  0  0
   37.0530   17.0760   29.4560 C   0  0  0  0  0  0  0  0  0  0  0  0
   36.1370   21.3430   31.7120 S   0  0  0  0  0  0  0  0  0  0  0  0
   35.0370   20.1070   32.4080 C   0  0  0  0  0  0  0  0  0  0  0  0
   33.7510   20.2470   31.9690 F   0  0  0  0  0  0  0  0  0  0  0  0
   35.4650   18.8820   31.9210 F   0  0  0  0  0  0  0  0  0  0  0  0
   35.1600   20.0190   33.7710 F   0  0  0  0  0  0  0  0  0  0  0  0
   36.7565   22.1269   34.3400 H   0  0  0  0  0  0  0  0  0  0  0  0
   41.0230   21.7533   34.4791 H   0  0  0  0  0  0  0  0  0  0  0  0
   41.0400   20.9447   32.1295 H   0  0  0  0  0  0  0  0  0  0  0  0
   40.7634   22.8068   38.6371 H   0  0  0  0  0  0  0  0  0  0  0  0
   38.6867   23.8281   39.5520 H   0  0  0  0  0  0  0  0  0  0  0  0
   36.6797   23.9625   38.0400 H   0  0  0  0  0  0  0  0  0  0  0  0
   35.5788   17.6965   28.1067 H   0  0  0  0  0  0  0  0  0  0  0  0
   38.7357   17.3034   30.8285 H   0  0  0  0  0  0  0  0  0  0  0  0
   36.8798   15.9908   29.5034 H   0  0  0  0  0  0  0  0  0  0  0  0
  1  2  2  0
  1  6  1  0
  2  3  1  0
  3  4  2  0
  4 11  1  0
  5  4  1  0
  6  5  2  0
  7  8  2  0
  9  8  1  0
 10  9  2  0
 11 10  1  0
 11 12  2  0
 12  7  1  0
 13  1  1  0
 14 13  2  0
 15 13  2  0
 16 17  1  0
 16 20  1  0
 17 18  2  0
 18 19  1  0
 18 13  1  0
 20 19  2  0
 21 22  1  0
 21  2  1  0
 22 25  1  0
 23 22  1  0
 24 22  1  0
  3 26  1  0
  5 27  1  0
  6 28  1  0
  7 29  1  0
  8 30  1  0
  9 31  1  0
 16 32  1  0
 19 33  1  0
 20 34  1  0
M  ISO  8  26  14  27  14  28  14  29  14  30  14  31  14  32   9  33  14
M  ISO  1  34  14
M  END
>  <minimizedAffinity>  (1) 
-4.956141

>  <minimizedRMSD>  (1) 
1.82949901

$$$$
