
     RDKit          3D

 34 36  0  0  0  0  0  0  0  0999 V2000
   38.8530   21.0880   31.9280 C   0  0  0  0  0  0  0  0  0  0  0  0
   37.6990   21.4210   32.5540 C   0  0  0  0  0  0  0  0  0  0  0  0
   37.7100   21.8700   33.8550 C   0  0  0  0  0  0  0  0  0  0  0  0
   38.8760   22.0020   34.5740 C   0  0  0  0  0  0  0  0  0  0  0  0
   40.0700   21.6620   33.9300 C   0  0  0  0  0  0  0  0  0  0  0  0
   40.0930   21.2070   32.6220 C   0  0  0  0  0  0  0  0  0  0  0  0
   39.8720   22.8770   37.9970 C   0  0  0  0  0  0  0  0  0  0  0  0
   38.7220   23.4460   38.5180 C   0  0  0  0  0  0  0  0  0  0  0  0
   37.6250   23.5190   37.6830 C   0  0  0  0  0  0  0  0  0  0  0  0
   37.7110   23.0420   36.4150 N   0  0  0  0  0  0  0  0  0  0  0  0
   38.8790   22.4880   35.9550 C   0  0  0  0  0  0  0  0  0  0  0  0
   39.9370   22.4060   36.7250 N   0  0  0  0  0  0  0  0  0  0  0  0
   38.8550   20.3710   30.3930 S   0  0  0  0  0  0  0  0  0  0  0  0
   38.7200   21.4920   29.3190 O   0  0  0  0  0  0  0  0  0  0  0  0
   40.1570   19.6650   30.2520 O   0  0  0  0  0  0  0  0  0  0  0  0
   37.9110   19.1190   29.8200 C   0  0  0  0  0  0  0  0  0  0  0  0
   37.9970   17.7430   30.1480 C   0  0  0  0  0  0  0  0  0  0  0  0
   37.0490   17.0660   29.4710 C   0  0  0  0  0  0  0  0  0  0  0  0
   36.3680   17.9180   28.7360 N   0  0  0  0  0  0  0  0  0  0  0  0
   36.8560   19.1030   28.9310 N   0  0  0  0  0  0  0  0  0  0  0  0
   36.1390   21.3460   31.7120 S   0  0  0  0  0  0  0  0  0  0  0  0
   35.0360   20.1110   32.4100 C   0  0  0  0  0  0  0  0  0  0  0  0
   33.7510   20.2490   31.9700 F   0  0  0  0  0  0  0  0  0  0  0  0
   35.4670   18.8860   31.9260 F   0  0  0  0  0  0  0  0  0  0  0  0
   35.1560   20.0290   33.7730 F   0  0  0  0  0  0  0  0  0  0  0  0
   36.7559   22.1318   34.3357 H   0  0  0  0  0  0  0  0  0  0  0  0
   41.0187   21.7588   34.4783 H   0  0  0  0  0  0  0  0  0  0  0  0
   41.0421   20.9445   32.1318 H   0  0  0  0  0  0  0  0  0  0  0  0
   40.7643   22.8040   38.6361 H   0  0  0  0  0  0  0  0  0  0  0  0
   38.6843   23.8229   39.5507 H   0  0  0  0  0  0  0  0  0  0  0  0
   36.6850   23.9619   38.0438 H   0  0  0  0  0  0  0  0  0  0  0  0
   38.7227   17.2982   30.8448 H   0  0  0  0  0  0  0  0  0  0  0  0
   36.8738   15.9813   29.5241 H   0  0  0  0  0  0  0  0  0  0  0  0
   35.5821   17.6839   28.1127 H   0  0  0  0  0  0  0  0  0  0  0  0
  1  2  2  0
  1  6  1  0
  2  3  1  0
  3  4  2  0
  4 11  1  0
  5  4  1  0
  6  5  2  0
  7  8  2  0
  9  8  1  0
 10  9  2  0
 11 10  1  0
 11 12  2  0
 12  7  1  0
 13  1  1  0
 14 13  2  0
 15 13  2  0
 16 17  1  0
 16 13  1  0
 18 17  2  0
 19 20  1  0
 19 18  1  0
 20 16  2  0
 21 22  1  0
 21  2  1  0
 22 25  1  0
 23 22  1  0
 24 22  1  0
  3 26  1  0
  5 27  1  0
  6 28  1  0
  7 29  1  0
  8 30  1  0
  9 31  1  0
 17 32  1  0
 18 33  1  0
 19 34  1  0
M  ISO  8  26  14  27  14  28  14  29  14  30  14  31  14  32  14  33  14
M  ISO  1  34   9
M  END
>  <minimizedAffinity>  (1) 
-4.95826244

>  <minimizedRMSD>  (1) 
1.79554772

$$$$
