
     RDKit          3D

 59 61  0  0  0  0  0  0  0  0999 V2000
   37.8840   22.6790   34.8150 N   0  0  0  0  0  0  0  0  0  0  0  0
   38.2970   21.7070   33.9540 C   0  0  0  0  0  0  0  0  0  0  0  0
   38.3120   22.1940   32.6820 N   0  0  0  0  0  0  0  0  0  0  0  0
   37.9070   23.4710   32.7560 C   0  0  0  0  0  0  0  0  0  0  0  0
   37.6540   23.7490   34.0400 N   0  0  0  0  0  0  0  0  0  0  0  0
   37.7120   22.6430   36.2290 C   0  0  0  0  0  0  0  0  0  0  0  0
   38.6730   23.5520   36.9610 C   0  0  0  0  0  0  0  0  0  0  0  0
   41.9390   21.7050   36.8860 C   0  0  0  0  0  0  0  0  0  0  0  0
   40.6300   22.0240   37.2240 C   0  0  0  0  0  0  0  0  0  0  0  0
   40.0350   23.1650   36.6500 C   0  0  0  0  0  0  0  0  0  0  0  0
   40.7700   23.9060   35.7880 N   0  0  0  0  0  0  0  0  0  0  0  0
   42.0410   23.5670   35.4820 C   0  0  0  0  0  0  0  0  0  0  0  0
   42.6190   22.4620   36.0370 N   0  0  0  0  0  0  0  0  0  0  0  0
   42.5410   20.4930   37.5090 C   0  0  0  0  0  0  0  0  0  0  0  0
   43.1930   19.5910   36.5270 C   0  0  0  0  0  0  0  0  0  0  0  0
   38.4590   23.3920   38.4460 C   0  0  0  0  0  0  0  0  0  0  0  0
   38.3350   24.9750   36.5540 C   0  0  0  0  0  0  0  0  0  0  0  0
   37.7620   24.4220   31.5980 C   0  0  0  0  0  0  0  0  0  0  0  0
   36.4340   24.1230   30.9360 C   0  0  0  0  0  0  0  0  0  0  0  0
   38.8260   24.0920   30.5570 C   0  0  0  0  0  0  0  0  0  0  0  0
   37.8050   25.8480   32.0210 C   0  0  0  0  0  0  0  0  0  0  0  0
   37.7450   26.8140   30.9730 N   0  0  0  0  0  0  0  0  0  0  0  0
   38.8810   27.0540   30.2610 C   0  0  0  0  0  0  0  0  0  0  0  0
   38.9830   27.9510   29.2220 C   0  0  0  0  0  0  0  0  0  0  0  0
   40.2820   28.1360   28.5080 C   0  0  0  0  0  0  0  0  0  0  0  0
   37.8440   28.6610   28.8770 C   0  0  0  0  0  0  0  0  0  0  0  0
   37.8790   29.4940   27.9350 O   0  0  0  0  0  0  0  0  0  0  0  0
   36.7350   28.4050   29.5960 N   0  0  0  0  0  0  0  0  0  0  0  0
   36.6620   27.5230   30.6060 C   0  0  0  0  0  0  0  0  0  0  0  0
   35.5960   27.3270   31.2430 O   0  0  0  0  0  0  0  0  0  0  0  0
   38.5763   20.6830   34.2427 H   0  0  0  0  0  0  0  0  0  0  0  0
   36.6841   22.9550   36.4658 H   0  0  0  0  0  0  0  0  0  0  0  0
   37.9134   21.6136   36.5603 H   0  0  0  0  0  0  0  0  0  0  0  0
   40.0664   21.3954   37.9291 H   0  0  0  0  0  0  0  0  0  0  0  0
   42.6159   24.1874   34.7787 H   0  0  0  0  0  0  0  0  0  0  0  0
   43.2954   20.8151   38.2418 H   0  0  0  0  0  0  0  0  0  0  0  0
   41.7228   19.9271   37.9783 H   0  0  0  0  0  0  0  0  0  0  0  0
   43.7560   18.8121   37.0621 H   0  0  0  0  0  0  0  0  0  0  0  0
   42.4252   19.1201   35.8956 H   0  0  0  0  0  0  0  0  0  0  0  0
   43.8810   20.1724   35.8956 H   0  0  0  0  0  0  0  0  0  0  0  0
   39.2245   23.9643   38.9905 H   0  0  0  0  0  0  0  0  0  0  0  0
   37.4604   23.7668   38.7150 H   0  0  0  0  0  0  0  0  0  0  0  0
   38.5361   22.3282   38.7150 H   0  0  0  0  0  0  0  0  0  0  0  0
   38.1891   25.5892   37.4548 H   0  0  0  0  0  0  0  0  0  0  0  0
   39.1593   25.3910   35.9561 H   0  0  0  0  0  0  0  0  0  0  0  0
   37.4117   24.9759   35.9561 H   0  0  0  0  0  0  0  0  0  0  0  0
   35.6698   23.9509   31.7083 H   0  0  0  0  0  0  0  0  0  0  0  0
   36.1363   24.9766   30.3093 H   0  0  0  0  0  0  0  0  0  0  0  0
   36.5308   23.2242   30.3093 H   0  0  0  0  0  0  0  0  0  0  0  0
   39.7582   23.8029   31.0644 H   0  0  0  0  0  0  0  0  0  0  0  0
   38.4777   23.2597   29.9278 H   0  0  0  0  0  0  0  0  0  0  0  0
   39.0098   24.9754   29.9278 H   0  0  0  0  0  0  0  0  0  0  0  0
   36.9514   26.0258   32.6917 H   0  0  0  0  0  0  0  0  0  0  0  0
   38.7876   25.9866   32.4957 H   0  0  0  0  0  0  0  0  0  0  0  0
   39.7838   26.4892   30.5367 H   0  0  0  0  0  0  0  0  0  0  0  0
   41.0916   28.2513   29.2437 H   0  0  0  0  0  0  0  0  0  0  0  0
   40.4821   27.2573   27.8773 H   0  0  0  0  0  0  0  0  0  0  0  0
   40.2288   29.0356   27.8773 H   0  0  0  0  0  0  0  0  0  0  0  0
   35.8791   28.9241   29.3535 H   0  0  0  0  0  0  0  0  0  0  0  0
  1  6  1  0
  2  1  1  0
  3  4  1  0
  3  2  2  0
  4  5  2  0
  5  1  1  0
  6  7  1  0
  7 16  1  0
  8  9  2  0
  8 14  1  0
 10  7  1  0
 10  9  1  0
 11 10  2  0
 12 11  1  0
 12 13  2  0
 13  8  1  0
 15 14  1  0
 17  7  1  0
 18 21  1  0
 18  4  1  0
 19 18  1  0
 20 18  1  0
 22 21  1  0
 23 22  1  0
 24 23  2  0
 25 24  1  0
 26 24  1  0
 26 28  1  0
 27 26  2  0
 28 29  1  0
 29 22  1  0
 29 30  2  0
  2 31  1  0
  6 32  1  0
  6 33  1  0
  9 34  1  0
 12 35  1  0
 14 36  1  0
 14 37  1  0
 15 38  1  0
 15 39  1  0
 15 40  1  0
 16 41  1  0
 16 42  1  0
 16 43  1  0
 17 44  1  0
 17 45  1  0
 17 46  1  0
 19 47  1  0
 19 48  1  0
 19 49  1  0
 20 50  1  0
 20 51  1  0
 20 52  1  0
 21 53  1  0
 21 54  1  0
 23 55  1  0
 25 56  1  0
 25 57  1  0
 25 58  1  0
 28 59  1  0
M  ISO  8  31  14  32   8  33   8  34  14  35  14  36   8  37   8  38   8
M  ISO  8  39   8  40   8  41   8  42   8  43   8  44   8  45   8  46   8
M  ISO  8  47   8  48   8  49   8  50   8  51   8  52   8  53   8  54   8
M  ISO  5  55  14  56   8  57   8  58   8  59   9
M  END
>  <minimizedAffinity>  (1) 
-5.71689939

>  <minimizedRMSD>  (1) 
0.386092335

$$$$
