
     RDKit          3D

 37 39  0  0  0  0  0  0  0  0999 V2000
   39.0780   20.8260   31.5570 C   0  0  0  0  0  0  0  0  0  0  0  0
   37.8770   21.0140   32.1710 C   0  0  0  0  0  0  0  0  0  0  0  0
   37.8180   21.5110   33.4490 C   0  0  0  0  0  0  0  0  0  0  0  0
   38.9480   21.8410   34.1610 C   0  0  0  0  0  0  0  0  0  0  0  0
   40.1870   21.6520   33.5320 C   0  0  0  0  0  0  0  0  0  0  0  0
   40.2800   21.1530   32.2420 C   0  0  0  0  0  0  0  0  0  0  0  0
   39.7270   22.7610   37.6310 C   0  0  0  0  0  0  0  0  0  0  0  0
   38.5890   23.4410   38.0330 C   0  0  0  0  0  0  0  0  0  0  0  0
   37.5700   23.5710   37.1030 C   0  0  0  0  0  0  0  0  0  0  0  0
   37.7220   23.0400   35.8610 N   0  0  0  0  0  0  0  0  0  0  0  0
   38.8780   22.3760   35.5230 C   0  0  0  0  0  0  0  0  0  0  0  0
   39.8570   22.2390   36.3850 N   0  0  0  0  0  0  0  0  0  0  0  0
   39.1760   20.0380   30.0630 S   0  0  0  0  0  0  0  0  0  0  0  0
   39.0930   21.1430   28.9450 O   0  0  0  0  0  0  0  0  0  0  0  0
   40.4810   19.3420   30.0060 O   0  0  0  0  0  0  0  0  0  0  0  0
   38.2390   18.8630   29.3730 C   0  0  0  0  0  0  0  0  0  0  0  0
   38.0590   17.5380   29.8670 C   0  0  0  0  0  0  0  0  0  0  0  0
   37.2940   16.5120   29.3530 C   0  0  0  0  0  0  0  0  0  0  0  0
   36.6370   16.8480   28.2170 C   0  0  0  0  0  0  0  0  0  0  0  0
   36.6680   18.0460   27.5820 C   0  0  0  0  0  0  0  0  0  0  0  0
   37.4660   18.9900   28.1930 C   0  0  0  0  0  0  0  0  0  0  0  0
   36.3420   20.6770   31.3440 S   0  0  0  0  0  0  0  0  0  0  0  0
   34.9280   20.8790   32.4160 C   0  0  0  0  0  0  0  0  0  0  0  0
   33.8170   20.2280   31.9580 F   0  0  0  0  0  0  0  0  0  0  0  0
   35.2460   20.2620   33.6310 F   0  0  0  0  0  0  0  0  0  0  0  0
   34.7030   22.1900   32.7280 F   0  0  0  0  0  0  0  0  0  0  0  0
   36.8337   21.6502   33.9200 H   0  0  0  0  0  0  0  0  0  0  0  0
   41.1086   21.9062   34.0761 H   0  0  0  0  0  0  0  0  0  0  0  0
   41.2592   21.0136   31.7606 H   0  0  0  0  0  0  0  0  0  0  0  0
   40.5538   22.6400   38.3464 H   0  0  0  0  0  0  0  0  0  0  0  0
   38.4982   23.8595   39.0462 H   0  0  0  0  0  0  0  0  0  0  0  0
   36.6433   24.1009   37.3683 H   0  0  0  0  0  0  0  0  0  0  0  0
   38.6086   17.2999   30.7897 H   0  0  0  0  0  0  0  0  0  0  0  0
   37.2242   15.5184   29.8197 H   0  0  0  0  0  0  0  0  0  0  0  0
   36.0119   16.0661   27.7611 H   0  0  0  0  0  0  0  0  0  0  0  0
   36.1049   18.2473   26.6588 H   0  0  0  0  0  0  0  0  0  0  0  0
   37.5078   19.9717   27.6985 H   0  0  0  0  0  0  0  0  0  0  0  0
  1  2  2  0
  1  6  1  0
  2  3  1  0
  3  4  2  0
  4 11  1  0
  5  4  1  0
  6  5  2  0
  7  8  2  0
  9  8  1  0
 10  9  2  0
 11 10  1  0
 11 12  2  0
 12  7  1  0
 13  1  1  0
 14 13  2  0
 15 13  2  0
 16 17  2  0
 16 13  1  0
 18 17  1  0
 19 18  2  0
 20 21  2  0
 20 19  1  0
 21 16  1  0
 22  2  1  0
 22 23  1  0
 23 26  1  0
 23 25  1  0
 24 23  1  0
  3 27  1  0
  5 28  1  0
  6 29  1  0
  7 30  1  0
  8 31  1  0
  9 32  1  0
 17 33  1  0
 18 34  1  0
 19 35  1  0
 20 36  1  0
 21 37  1  0
M  ISO  8  27  14  28  14  29  14  30  14  31  14  32  14  33  14  34  14
M  ISO  3  35  14  36  14  37  14
M  END
>  <minimizedAffinity>  (1) 
-4.79764271

>  <minimizedRMSD>  (1) 
1.99636471

$$$$
