
     RDKit          3D

 34 36  0  0  0  0  0  0  0  0999 V2000
   39.0210   21.0840   31.9530 C   0  0  0  0  0  0  0  0  0  0  0  0
   37.8440   21.2870   32.5990 C   0  0  0  0  0  0  0  0  0  0  0  0
   37.8230   21.7410   33.9010 C   0  0  0  0  0  0  0  0  0  0  0  0
   38.9800   22.0070   34.5960 C   0  0  0  0  0  0  0  0  0  0  0  0
   40.1950   21.8000   33.9320 C   0  0  0  0  0  0  0  0  0  0  0  0
   40.2450   21.3440   32.6250 C   0  0  0  0  0  0  0  0  0  0  0  0
   39.8990   22.8920   38.0380 C   0  0  0  0  0  0  0  0  0  0  0  0
   38.7350   23.4580   38.5330 C   0  0  0  0  0  0  0  0  0  0  0  0
   37.6550   23.5250   37.6740 C   0  0  0  0  0  0  0  0  0  0  0  0
   37.7640   23.0460   36.4060 N   0  0  0  0  0  0  0  0  0  0  0  0
   38.9550   22.4940   35.9760 C   0  0  0  0  0  0  0  0  0  0  0  0
   39.9940   22.4190   36.7690 N   0  0  0  0  0  0  0  0  0  0  0  0
   39.0620   20.3430   30.4310 S   0  0  0  0  0  0  0  0  0  0  0  0
   38.8940   21.4800   29.3530 O   0  0  0  0  0  0  0  0  0  0  0  0
   40.3790   19.6880   30.2870 O   0  0  0  0  0  0  0  0  0  0  0  0
   38.1150   19.1350   29.7930 C   0  0  0  0  0  0  0  0  0  0  0  0
   37.3430   19.1390   28.5930 C   0  0  0  0  0  0  0  0  0  0  0  0
   36.7100   17.9670   28.4420 N   0  0  0  0  0  0  0  0  0  0  0  0
   37.0110   17.1850   29.4590 C   0  0  0  0  0  0  0  0  0  0  0  0
   37.8310   17.8660   30.2470 N   0  0  0  0  0  0  0  0  0  0  0  0
   36.2860   21.0310   31.7870 S   0  0  0  0  0  0  0  0  0  0  0  0
   35.2590   19.8350   32.6310 C   0  0  0  0  0  0  0  0  0  0  0  0
   34.1130   19.5410   31.9500 F   0  0  0  0  0  0  0  0  0  0  0  0
   35.9850   18.6450   32.6750 F   0  0  0  0  0  0  0  0  0  0  0  0
   35.0470   20.1700   33.9400 F   0  0  0  0  0  0  0  0  0  0  0  0
   36.8537   21.8948   34.3978 H   0  0  0  0  0  0  0  0  0  0  0  0
   41.1362   22.0052   34.4630 H   0  0  0  0  0  0  0  0  0  0  0  0
   41.2094   21.1870   32.1197 H   0  0  0  0  0  0  0  0  0  0  0  0
   40.7773   22.8235   38.6967 H   0  0  0  0  0  0  0  0  0  0  0  0
   38.6736   23.8370   39.5638 H   0  0  0  0  0  0  0  0  0  0  0  0
   36.7069   23.9658   38.0158 H   0  0  0  0  0  0  0  0  0  0  0  0
   37.2767   19.9837   27.8915 H   0  0  0  0  0  0  0  0  0  0  0  0
   36.6495   16.1592   29.6233 H   0  0  0  0  0  0  0  0  0  0  0  0
   38.2204   17.4812   31.1195 H   0  0  0  0  0  0  0  0  0  0  0  0
  1  2  2  0
  1  6  1  0
  2  3  1  0
  3  4  2  0
  4 11  1  0
  5  4  1  0
  6  5  2  0
  7  8  2  0
  9  8  1  0
 10  9  2  0
 11 10  1  0
 11 12  2  0
 12  7  1  0
 13  1  1  0
 14 13  2  0
 15 13  2  0
 16 20  1  0
 16 13  1  0
 17 16  2  0
 18 17  1  0
 18 19  2  0
 19 20  1  0
 21  2  1  0
 21 22  1  0
 22 24  1  0
 22 25  1  0
 23 22  1  0
  3 26  1  0
  5 27  1  0
  6 28  1  0
  7 29  1  0
  8 30  1  0
  9 31  1  0
 17 32  1  0
 19 33  1  0
 20 34  1  0
M  ISO  8  26  14  27  14  28  14  29  14  30  14  31  14  32  14  33  14
M  ISO  1  34   9
M  END
>  <minimizedAffinity>  (1) 
-4.72606993

>  <minimizedRMSD>  (1) 
1.91788471

$$$$
