
     RDKit          3D

 32 34  0  0  0  0  0  0  0  0999 V2000
   39.0260   21.1200   31.9470 C   0  0  0  0  0  0  0  0  0  0  0  0
   37.8390   21.3190   32.5920 C   0  0  0  0  0  0  0  0  0  0  0  0
   37.8310   21.7630   33.8940 C   0  0  0  0  0  0  0  0  0  0  0  0
   38.9840   22.0230   34.5940 C   0  0  0  0  0  0  0  0  0  0  0  0
   40.1970   21.8190   33.9300 C   0  0  0  0  0  0  0  0  0  0  0  0
   40.2510   21.3730   32.6180 C   0  0  0  0  0  0  0  0  0  0  0  0
   39.8960   22.8900   38.0440 C   0  0  0  0  0  0  0  0  0  0  0  0
   38.7310   23.4440   38.5430 C   0  0  0  0  0  0  0  0  0  0  0  0
   37.6530   23.5100   37.6850 C   0  0  0  0  0  0  0  0  0  0  0  0
   37.7740   23.0410   36.4160 N   0  0  0  0  0  0  0  0  0  0  0  0
   38.9560   22.5020   35.9780 C   0  0  0  0  0  0  0  0  0  0  0  0
   39.9970   22.4270   36.7710 N   0  0  0  0  0  0  0  0  0  0  0  0
   39.0540   20.3850   30.4190 S   0  0  0  0  0  0  0  0  0  0  0  0
   38.8780   21.5280   29.3440 O   0  0  0  0  0  0  0  0  0  0  0  0
   40.3560   19.7220   30.2580 O   0  0  0  0  0  0  0  0  0  0  0  0
   38.0860   19.1770   29.8050 C   0  0  0  0  0  0  0  0  0  0  0  0
   37.2330   19.1980   28.7180 N   0  0  0  0  0  0  0  0  0  0  0  0
   36.6320   18.0900   28.5710 O   0  0  0  0  0  0  0  0  0  0  0  0
   36.9810   17.2480   29.4740 C   0  0  0  0  0  0  0  0  0  0  0  0
   37.8660   17.8890   30.2350 N   0  0  0  0  0  0  0  0  0  0  0  0
   36.2810   21.0520   31.7810 S   0  0  0  0  0  0  0  0  0  0  0  0
   35.2740   19.8440   32.6320 C   0  0  0  0  0  0  0  0  0  0  0  0
   34.1310   19.5290   31.9590 F   0  0  0  0  0  0  0  0  0  0  0  0
   36.0110   18.6600   32.6720 F   0  0  0  0  0  0  0  0  0  0  0  0
   35.0670   20.1760   33.9430 F   0  0  0  0  0  0  0  0  0  0  0  0
   36.8633   21.9158   34.3942 H   0  0  0  0  0  0  0  0  0  0  0  0
   41.1375   22.0183   34.4645 H   0  0  0  0  0  0  0  0  0  0  0  0
   41.2155   21.2197   32.1118 H   0  0  0  0  0  0  0  0  0  0  0  0
   40.7740   22.8218   38.7031 H   0  0  0  0  0  0  0  0  0  0  0  0
   38.6671   23.8149   39.5766 H   0  0  0  0  0  0  0  0  0  0  0  0
   36.7001   23.9403   38.0267 H   0  0  0  0  0  0  0  0  0  0  0  0
   36.6243   16.2144   29.5942 H   0  0  0  0  0  0  0  0  0  0  0  0
  1  2  2  0
  1  6  1  0
  2  3  1  0
  3  4  2  0
  4 11  1  0
  5  4  1  0
  6  5  2  0
  7  8  2  0
  9  8  1  0
 10  9  2  0
 11 10  1  0
 11 12  2  0
 12  7  1  0
 13  1  1  0
 14 13  2  0
 15 13  2  0
 16 20  1  0
 16 13  1  0
 17 16  2  0
 18 17  1  0
 18 19  1  0
 19 20  2  0
 21  2  1  0
 21 22  1  0
 22 24  1  0
 22 25  1  0
 23 22  1  0
  3 26  1  0
  5 27  1  0
  6 28  1  0
  7 29  1  0
  8 30  1  0
  9 31  1  0
 19 32  1  0
M  ISO  7  26  14  27  14  28  14  29  14  30  14  31  14  32  14
M  END
>  <minimizedAffinity>  (1) 
-4.75129795

>  <minimizedRMSD>  (1) 
1.82587922

$$$$
