
     RDKit          3D

 38 41  0  0  0  0  0  0  0  0999 V2000
   39.1150   21.1210   31.9680 C   0  0  0  0  0  0  0  0  0  0  0  0
   37.9120   21.3740   32.5820 C   0  0  0  0  0  0  0  0  0  0  0  0
   37.8910   21.8120   33.8900 C   0  0  0  0  0  0  0  0  0  0  0  0
   39.0330   22.0110   34.6180 C   0  0  0  0  0  0  0  0  0  0  0  0
   40.2570   21.7520   33.9840 C   0  0  0  0  0  0  0  0  0  0  0  0
   40.3200   21.3110   32.6710 C   0  0  0  0  0  0  0  0  0  0  0  0
   39.9150   22.8850   38.0720 C   0  0  0  0  0  0  0  0  0  0  0  0
   38.7470   23.4450   38.5590 C   0  0  0  0  0  0  0  0  0  0  0  0
   37.6740   23.5120   37.6930 C   0  0  0  0  0  0  0  0  0  0  0  0
   37.8050   23.0370   36.4260 N   0  0  0  0  0  0  0  0  0  0  0  0
   38.9980   22.4900   36.0010 C   0  0  0  0  0  0  0  0  0  0  0  0
   40.0320   22.4140   36.8020 N   0  0  0  0  0  0  0  0  0  0  0  0
   39.1420   20.4060   30.4330 S   0  0  0  0  0  0  0  0  0  0  0  0
   38.7720   21.5370   29.3920 O   0  0  0  0  0  0  0  0  0  0  0  0
   40.5000   19.9000   30.1850 O   0  0  0  0  0  0  0  0  0  0  0  0
   37.2860   18.0310   26.5590 N   0  0  0  0  0  0  0  0  0  0  0  0
   37.9910   19.1170   26.2120 C   0  0  0  0  0  0  0  0  0  0  0  0
   38.4270   19.6360   27.3620 N   0  0  0  0  0  0  0  0  0  0  0  0
   38.0050   18.8920   28.4280 C   0  0  0  0  0  0  0  0  0  0  0  0
   38.2780   19.1440   29.8030 C   0  0  0  0  0  0  0  0  0  0  0  0
   37.6710   18.1600   30.5500 N   0  0  0  0  0  0  0  0  0  0  0  0
   36.9620   17.1590   30.0630 C   0  0  0  0  0  0  0  0  0  0  0  0
   36.7550   17.0000   28.7510 N   0  0  0  0  0  0  0  0  0  0  0  0
   37.2690   17.8590   27.8910 C   0  0  0  0  0  0  0  0  0  0  0  0
   36.3630   21.1870   31.7360 S   0  0  0  0  0  0  0  0  0  0  0  0
   35.1800   20.2450   32.6850 C   0  0  0  0  0  0  0  0  0  0  0  0
   34.0400   19.9540   31.9950 F   0  0  0  0  0  0  0  0  0  0  0  0
   35.7710   19.0060   32.9520 F   0  0  0  0  0  0  0  0  0  0  0  0
   34.9490   20.7940   33.9160 F   0  0  0  0  0  0  0  0  0  0  0  0
   36.9192   22.0089   34.3662 H   0  0  0  0  0  0  0  0  0  0  0  0
   41.1920   21.9028   34.5434 H   0  0  0  0  0  0  0  0  0  0  0  0
   41.2893   21.1141   32.1896 H   0  0  0  0  0  0  0  0  0  0  0  0
   40.7857   22.8181   38.7408 H   0  0  0  0  0  0  0  0  0  0  0  0
   38.6766   23.8202   39.5906 H   0  0  0  0  0  0  0  0  0  0  0  0
   36.7199   23.9466   38.0258 H   0  0  0  0  0  0  0  0  0  0  0  0
   36.8161   17.4065   25.8881 H   0  0  0  0  0  0  0  0  0  0  0  0
   38.1717   19.4990   25.1964 H   0  0  0  0  0  0  0  0  0  0  0  0
   36.5257   16.4293   30.7610 H   0  0  0  0  0  0  0  0  0  0  0  0
  1  2  2  0
  1  6  1  0
  2  3  1  0
  3  4  2  0
  4 11  1  0
  5  4  1  0
  6  5  2  0
  7  8  2  0
  9  8  1  0
 10  9  2  0
 11 10  1  0
 11 12  2  0
 12  7  1  0
 13  1  1  0
 14 13  2  0
 15 13  2  0
 16 24  1  0
 17 16  1  0
 17 18  2  0
 18 19  1  0
 19 20  1  0
 20 13  1  0
 20 21  2  0
 22 21  1  0
 23 22  2  0
 24 19  2  0
 24 23  1  0
 25  2  1  0
 25 26  1  0
 26 28  1  0
 26 29  1  0
 27 26  1  0
  3 30  1  0
  5 31  1  0
  6 32  1  0
  7 33  1  0
  8 34  1  0
  9 35  1  0
 16 36  1  0
 17 37  1  0
 22 38  1  0
M  ISO  8  30  14  31  14  32  14  33  14  34  14  35  14  36   9  37  14
M  ISO  1  38  14
M  END
>  <minimizedAffinity>  (1) 
-4.91298294

>  <minimizedRMSD>  (1) 
2.0240941

$$$$
