
     RDKit          3D

 36 37  0  0  0  0  0  0  0  0999 V2000
   39.1410   21.5390   31.7310 C   0  0  0  0  0  0  0  0  0  0  0  0
   38.0570   21.1720   32.5030 C   0  0  0  0  0  0  0  0  0  0  0  0
   38.0040   21.5410   33.8310 C   0  0  0  0  0  0  0  0  0  0  0  0
   39.0060   22.2710   34.4200 C   0  0  0  0  0  0  0  0  0  0  0  0
   40.0990   22.6410   33.6330 C   0  0  0  0  0  0  0  0  0  0  0  0
   40.1810   22.2850   32.2970 C   0  0  0  0  0  0  0  0  0  0  0  0
   39.7970   22.8360   37.9700 C   0  0  0  0  0  0  0  0  0  0  0  0
   38.6470   23.4430   38.4460 C   0  0  0  0  0  0  0  0  0  0  0  0
   37.6210   23.6500   37.5460 C   0  0  0  0  0  0  0  0  0  0  0  0
   37.7790   23.2560   36.2530 N   0  0  0  0  0  0  0  0  0  0  0  0
   38.9340   22.6600   35.8340 C   0  0  0  0  0  0  0  0  0  0  0  0
   39.9210   22.4540   36.6730 N   0  0  0  0  0  0  0  0  0  0  0  0
   39.3040   20.9160   30.1780 S   0  0  0  0  0  0  0  0  0  0  0  0
   39.0880   22.1010   29.1730 O   0  0  0  0  0  0  0  0  0  0  0  0
   40.6770   20.3760   30.0900 O   0  0  0  0  0  0  0  0  0  0  0  0
   38.4850   19.7600   29.3260 C   0  0  0  0  0  0  0  0  0  0  0  0
   38.7120   19.6940   27.8270 C   0  0  0  0  0  0  0  0  0  0  0  0
   39.0900   18.3140   29.5980 C   0  0  0  0  0  0  0  0  0  0  0  0
   36.6760   20.2680   31.8320 S   0  0  0  0  0  0  0  0  0  0  0  0
   35.1170   20.8480   32.5030 C   0  0  0  0  0  0  0  0  0  0  0  0
   34.0420   20.1830   31.9910 F   0  0  0  0  0  0  0  0  0  0  0  0
   35.1220   20.5450   33.8580 F   0  0  0  0  0  0  0  0  0  0  0  0
   35.0040   22.2040   32.4610 F   0  0  0  0  0  0  0  0  0  0  0  0
   37.1345   21.2419   34.4348 H   0  0  0  0  0  0  0  0  0  0  0  0
   40.9125   23.2280   34.0842 H   0  0  0  0  0  0  0  0  0  0  0  0
   41.0491   22.5836   31.6910 H   0  0  0  0  0  0  0  0  0  0  0  0
   40.6334   22.6583   38.6620 H   0  0  0  0  0  0  0  0  0  0  0  0
   38.5548   23.7479   39.4989 H   0  0  0  0  0  0  0  0  0  0  0  0
   36.6853   24.1285   37.8706 H   0  0  0  0  0  0  0  0  0  0  0  0
   37.4581   20.0136   29.6279 H   0  0  0  0  0  0  0  0  0  0  0  0
   39.7505   19.3920   27.6264 H   0  0  0  0  0  0  0  0  0  0  0  0
   38.0242   18.9586   27.3840 H   0  0  0  0  0  0  0  0  0  0  0  0
   38.5258   20.6835   27.3840 H   0  0  0  0  0  0  0  0  0  0  0  0
   39.1610   18.1443   30.6825 H   0  0  0  0  0  0  0  0  0  0  0  0
   38.4351   17.5523   29.1498 H   0  0  0  0  0  0  0  0  0  0  0  0
   40.0922   18.2456   29.1498 H   0  0  0  0  0  0  0  0  0  0  0  0
  1  6  2  0
  1  2  1  0
  2  3  2  0
  3  4  1  0
  4 11  1  0
  5  4  2  0
  6  5  1  0
  7  8  2  0
  9  8  1  0
 10  9  2  0
 11 10  1  0
 11 12  2  0
 12  7  1  0
 13  1  1  0
 14 13  2  0
 15 13  2  0
 16 18  1  0
 16 13  1  0
 17 16  1  0
 19  2  1  0
 19 20  1  0
 20 22  1  0
 21 20  1  0
 23 20  1  0
  3 24  1  0
  5 25  1  0
  6 26  1  0
  7 27  1  0
  8 28  1  0
  9 29  1  0
 16 30  1  0
 17 31  1  0
 17 32  1  0
 17 33  1  0
 18 34  1  0
 18 35  1  0
 18 36  1  0
M  ISO  8  24  14  25  14  26  14  27  14  28  14  29  14  30   8  31   8
M  ISO  5  32   8  33   8  34   8  35   8  36   8
M  END
>  <minimizedAffinity>  (1) 
-4.41823816

>  <minimizedRMSD>  (1) 
1.18999147

$$$$
