
     RDKit          3D

 30 32  0  0  0  0  0  0  0  0999 V2000
   39.8470   22.8030   37.2610 C   0  0  0  0  0  0  0  0  0  0  0  0
   39.1170   23.2050   38.4010 C   0  0  0  0  0  0  0  0  0  0  0  0
   37.7020   23.2000   38.2950 C   0  0  0  0  0  0  0  0  0  0  0  0
   37.1250   22.8150   37.1220 N   0  0  0  0  0  0  0  0  0  0  0  0
   37.8780   22.4380   36.0570 C   0  0  0  0  0  0  0  0  0  0  0  0
   39.2160   22.4360   36.1370 N   0  0  0  0  0  0  0  0  0  0  0  0
   37.2930   22.0320   34.8170 N   0  0  0  0  0  0  0  0  0  0  0  0
   37.9030   22.5190   33.6870 C   0  0  0  0  0  0  0  0  0  0  0  0
   37.3490   22.1350   32.4750 C   0  0  0  0  0  0  0  0  0  0  0  0
   36.2360   21.2990   32.4700 C   0  0  0  0  0  0  0  0  0  0  0  0
   35.7450   20.9600   31.3520 O   0  0  0  0  0  0  0  0  0  0  0  0
   35.6920   20.8600   33.6230 N   0  0  0  0  0  0  0  0  0  0  0  0
   36.2270   21.2310   34.8000 C   0  0  0  0  0  0  0  0  0  0  0  0
   35.7810   20.8670   35.9060 O   0  0  0  0  0  0  0  0  0  0  0  0
   37.9680   22.6310   31.2970 N   0  0  0  0  0  0  0  0  0  0  0  0
   38.9410   21.8490   30.7940 C   0  0  0  0  0  0  0  0  0  0  0  0
   39.5890   22.2700   29.6470 C   0  0  0  0  0  0  0  0  0  0  0  0
   39.2260   23.4660   29.0540 C   0  0  0  0  0  0  0  0  0  0  0  0
   39.8070   23.8730   27.9990 O   0  0  0  0  0  0  0  0  0  0  0  0
   38.2330   24.2050   29.6190 N   0  0  0  0  0  0  0  0  0  0  0  0
   37.5870   23.8020   30.7500 C   0  0  0  0  0  0  0  0  0  0  0  0
   36.6660   24.5020   31.2620 O   0  0  0  0  0  0  0  0  0  0  0  0
   40.9464   22.7909   37.2959 H   0  0  0  0  0  0  0  0  0  0  0  0
   39.6226   23.5084   39.3296 H   0  0  0  0  0  0  0  0  0  0  0  0
   37.0786   23.5031   39.1491 H   0  0  0  0  0  0  0  0  0  0  0  0
   38.7826   23.1774   33.7403 H   0  0  0  0  0  0  0  0  0  0  0  0
   34.8684   20.2418   33.6025 H   0  0  0  0  0  0  0  0  0  0  0  0
   39.2133   20.9013   31.2816 H   0  0  0  0  0  0  0  0  0  0  0  0
   40.3896   21.6565   29.2081 H   0  0  0  0  0  0  0  0  0  0  0  0
   37.9611   25.0957   29.1790 H   0  0  0  0  0  0  0  0  0  0  0  0
  1  2  2  0
  3  2  1  0
  4  3  2  0
  5  6  2  0
  5  4  1  0
  6  1  1  0
  7  5  1  0
  8  7  1  0
  9  8  2  0
 10  9  1  0
 10 12  1  0
 11 10  2  0
 12 13  1  0
 13  7  1  0
 13 14  2  0
 15  9  1  0
 16 15  1  0
 17 16  2  0
 18 20  1  0
 18 17  1  0
 19 18  2  0
 20 21  1  0
 21 22  2  0
 21 15  1  0
  1 23  1  0
  2 24  1  0
  3 25  1  0
  8 26  1  0
 12 27  1  0
 16 28  1  0
 17 29  1  0
 20 30  1  0
M  ISO  8  23  14  24  14  25  14  26  14  27   9  28  14  29  14  30   9
M  END
>  <minimizedAffinity>  (1) 
-5.51570559

>  <minimizedRMSD>  (1) 
1.2225728

$$$$
