
     RDKit          3D

 33 35  0  0  0  0  0  0  0  0999 V2000
   39.8790   22.8080   37.3350 C   0  0  0  0  0  0  0  0  0  0  0  0
   39.1310   23.2070   38.4780 C   0  0  0  0  0  0  0  0  0  0  0  0
   37.7350   23.2090   38.3500 C   0  0  0  0  0  0  0  0  0  0  0  0
   37.1480   22.8430   37.1710 N   0  0  0  0  0  0  0  0  0  0  0  0
   37.9170   22.4710   36.1090 C   0  0  0  0  0  0  0  0  0  0  0  0
   39.2610   22.4550   36.1910 N   0  0  0  0  0  0  0  0  0  0  0  0
   37.3550   22.0780   34.8510 N   0  0  0  0  0  0  0  0  0  0  0  0
   37.9540   22.5590   33.7350 C   0  0  0  0  0  0  0  0  0  0  0  0
   37.4320   22.1950   32.5150 C   0  0  0  0  0  0  0  0  0  0  0  0
   36.3150   21.3510   32.4930 C   0  0  0  0  0  0  0  0  0  0  0  0
   35.8060   20.9940   31.3870 O   0  0  0  0  0  0  0  0  0  0  0  0
   35.7560   20.9000   33.6390 N   0  0  0  0  0  0  0  0  0  0  0  0
   36.2780   21.2650   34.8390 C   0  0  0  0  0  0  0  0  0  0  0  0
   35.8230   20.8940   35.9340 O   0  0  0  0  0  0  0  0  0  0  0  0
   38.0150   22.6660   31.3060 N   0  0  0  0  0  0  0  0  0  0  0  0
   38.9420   21.9830   30.6060 C   0  0  0  0  0  0  0  0  0  0  0  0
   39.5090   22.4300   29.4390 C   0  0  0  0  0  0  0  0  0  0  0  0
   40.5320   21.6510   28.6870 C   0  0  0  0  0  0  0  0  0  0  0  0
   39.1030   23.6590   28.9500 C   0  0  0  0  0  0  0  0  0  0  0  0
   39.6050   24.1070   27.8730 O   0  0  0  0  0  0  0  0  0  0  0  0
   38.1700   24.3490   29.6520 N   0  0  0  0  0  0  0  0  0  0  0  0
   37.6580   23.8540   30.7840 C   0  0  0  0  0  0  0  0  0  0  0  0
   36.8020   24.5960   31.3340 O   0  0  0  0  0  0  0  0  0  0  0  0
   40.9776   22.7875   37.3862 H   0  0  0  0  0  0  0  0  0  0  0  0
   39.6244   23.4997   39.4166 H   0  0  0  0  0  0  0  0  0  0  0  0
   37.1082   23.5069   39.2034 H   0  0  0  0  0  0  0  0  0  0  0  0
   38.8306   23.2201   33.8021 H   0  0  0  0  0  0  0  0  0  0  0  0
   34.9345   20.2798   33.6020 H   0  0  0  0  0  0  0  0  0  0  0  0
   39.2645   21.0057   30.9944 H   0  0  0  0  0  0  0  0  0  0  0  0
   41.2004   21.1421   29.3971 H   0  0  0  0  0  0  0  0  0  0  0  0
   40.0314   20.9033   28.0543 H   0  0  0  0  0  0  0  0  0  0  0  0
   41.1197   22.3324   28.0543 H   0  0  0  0  0  0  0  0  0  0  0  0
   37.8515   25.2664   29.3088 H   0  0  0  0  0  0  0  0  0  0  0  0
  1  2  2  0
  3  2  1  0
  4  3  2  0
  5  6  2  0
  5  4  1  0
  6  1  1  0
  7  5  1  0
  8  7  1  0
  9  8  2  0
 10  9  1  0
 10 12  1  0
 11 10  2  0
 12 13  1  0
 13  7  1  0
 13 14  2  0
 15  9  1  0
 16 15  1  0
 17 16  2  0
 18 17  1  0
 19 17  1  0
 19 21  1  0
 20 19  2  0
 21 22  1  0
 22 15  1  0
 22 23  2  0
  1 24  1  0
  2 25  1  0
  3 26  1  0
  8 27  1  0
 12 28  1  0
 16 29  1  0
 18 30  1  0
 18 31  1  0
 18 32  1  0
 21 33  1  0
M  ISO  8  24  14  25  14  26  14  27  14  28   9  29  14  30   8  31   8
M  ISO  2  32   8  33   9
M  END
>  <minimizedAffinity>  (1) 
-5.60410357

>  <minimizedRMSD>  (1) 
1.67846632

$$$$
