
     RDKit          3D

 23 24  0  0  0  0  0  0  0  0999 V2000
   39.9350   22.7620   36.9520 C   0  0  0  0  0  0  0  0  0  0  0  0
   39.4050   23.3580   38.1200 C   0  0  0  0  0  0  0  0  0  0  0  0
   37.9960   23.3760   38.2450 C   0  0  0  0  0  0  0  0  0  0  0  0
   37.2430   22.8320   37.2550 N   0  0  0  0  0  0  0  0  0  0  0  0
   37.8130   22.2690   36.1480 C   0  0  0  0  0  0  0  0  0  0  0  0
   39.1440   22.2330   35.9950 N   0  0  0  0  0  0  0  0  0  0  0  0
   37.0210   21.6980   35.1110 N   0  0  0  0  0  0  0  0  0  0  0  0
   37.4210   21.9730   33.8340 C   0  0  0  0  0  0  0  0  0  0  0  0
   36.6750   21.4350   32.7980 C   0  0  0  0  0  0  0  0  0  0  0  0
   35.5710   20.6540   33.1160 C   0  0  0  0  0  0  0  0  0  0  0  0
   34.8810   20.1570   32.1630 O   0  0  0  0  0  0  0  0  0  0  0  0
   35.2170   20.4120   34.4020 N   0  0  0  0  0  0  0  0  0  0  0  0
   35.9590   20.9470   35.3930 C   0  0  0  0  0  0  0  0  0  0  0  0
   35.6980   20.7720   36.6000 O   0  0  0  0  0  0  0  0  0  0  0  0
   37.0120   21.6630   31.3700 C   0  0  0  0  0  0  0  0  0  0  0  0
   37.1200   20.4430   30.7210 F   0  0  0  0  0  0  0  0  0  0  0  0
   38.2060   22.3450   31.2530 F   0  0  0  0  0  0  0  0  0  0  0  0
   35.9800   22.3650   30.7730 F   0  0  0  0  0  0  0  0  0  0  0  0
   41.0265   22.7286   36.8194 H   0  0  0  0  0  0  0  0  0  0  0  0
   40.0575   23.7872   38.8946 H   0  0  0  0  0  0  0  0  0  0  0  0
   37.5186   23.8232   39.1294 H   0  0  0  0  0  0  0  0  0  0  0  0
   38.3035   22.5990   33.6356 H   0  0  0  0  0  0  0  0  0  0  0  0
   34.3955   19.8296   34.6185 H   0  0  0  0  0  0  0  0  0  0  0  0
  1  2  2  0
  2  3  1  0
  4  3  2  0
  5  4  1  0
  6  5  2  0
  6  1  1  0
  7 13  1  0
  7  5  1  0
  8  7  1  0
  9 10  1  0
  9  8  2  0
 10 12  1  0
 11 10  2  0
 12 13  1  0
 13 14  2  0
 15  9  1  0
 16 15  1  0
 17 15  1  0
 18 15  1  0
  1 19  1  0
  2 20  1  0
  3 21  1  0
  8 22  1  0
 12 23  1  0
M  ISO  5  19  14  20  14  21  14  22  14  23   9
M  END
>  <minimizedAffinity>  (1) 
-5.23122978

>  <minimizedRMSD>  (1) 
0.430125147

$$$$
