
     RDKit          3D

 34 36  0  0  0  0  0  0  0  0999 V2000
   39.8860   22.7740   37.3080 C   0  0  0  0  0  0  0  0  0  0  0  0
   39.2490   23.4260   38.4090 C   0  0  0  0  0  0  0  0  0  0  0  0
   37.8330   23.4820   38.4010 C   0  0  0  0  0  0  0  0  0  0  0  0
   37.1710   22.9200   37.3610 N   0  0  0  0  0  0  0  0  0  0  0  0
   37.8140   22.3100   36.3350 C   0  0  0  0  0  0  0  0  0  0  0  0
   39.1520   22.2430   36.3190 N   0  0  0  0  0  0  0  0  0  0  0  0
   37.1090   21.7210   35.2440 N   0  0  0  0  0  0  0  0  0  0  0  0
   37.6420   21.9490   33.9990 C   0  0  0  0  0  0  0  0  0  0  0  0
   36.9770   21.3880   32.9210 C   0  0  0  0  0  0  0  0  0  0  0  0
   35.8170   20.6330   33.1530 C   0  0  0  0  0  0  0  0  0  0  0  0
   35.2150   20.1270   32.1730 O   0  0  0  0  0  0  0  0  0  0  0  0
   35.3520   20.4530   34.4140 N   0  0  0  0  0  0  0  0  0  0  0  0
   36.0050   21.0010   35.4560 C   0  0  0  0  0  0  0  0  0  0  0  0
   35.6310   20.8740   36.6400 O   0  0  0  0  0  0  0  0  0  0  0  0
   37.4440   21.5630   31.5840 N   0  0  0  0  0  0  0  0  0  0  0  0
   38.1930   20.6490   30.7650 C   0  0  0  0  0  0  0  0  0  0  0  0
   39.4440   21.3520   30.2930 C   0  0  0  0  0  0  0  0  0  0  0  0
   39.0250   22.4700   29.4530 N   0  0  0  0  0  0  0  0  0  0  0  0
   38.4350   23.4410   30.3570 C   0  0  0  0  0  0  0  0  0  0  0  0
   37.1620   22.8100   30.8830 C   0  0  0  0  0  0  0  0  0  0  0  0
   40.9834   22.7074   37.2717 H   0  0  0  0  0  0  0  0  0  0  0  0
   39.8344   23.8666   39.2295 H   0  0  0  0  0  0  0  0  0  0  0  0
   37.2843   23.9702   39.2199 H   0  0  0  0  0  0  0  0  0  0  0  0
   38.5541   22.5489   33.8641 H   0  0  0  0  0  0  0  0  0  0  0  0
   34.4997   19.8974   34.5745 H   0  0  0  0  0  0  0  0  0  0  0  0
   38.4651   19.7600   31.3528 H   0  0  0  0  0  0  0  0  0  0  0  0
   37.5890   20.3300   29.9028 H   0  0  0  0  0  0  0  0  0  0  0  0
   40.0151   21.7237   31.1565 H   0  0  0  0  0  0  0  0  0  0  0  0
   40.0883   20.6618   29.7286 H   0  0  0  0  0  0  0  0  0  0  0  0
   39.8364   22.8782   28.9673 H   0  0  0  0  0  0  0  0  0  0  0  0
   39.1242   23.6576   31.1865 H   0  0  0  0  0  0  0  0  0  0  0  0
   38.2287   24.3922   29.8444 H   0  0  0  0  0  0  0  0  0  0  0  0
   36.6746   23.5101   31.5775 H   0  0  0  0  0  0  0  0  0  0  0  0
   36.5034   22.5896   30.0299 H   0  0  0  0  0  0  0  0  0  0  0  0
  1  2  2  0
  3  2  1  0
  4  3  2  0
  5  4  1  0
  6  5  2  0
  6  1  1  0
  7 13  1  0
  7  5  1  0
  8  7  1  0
  9 10  1  0
  9  8  2  0
 10 12  1  0
 11 10  2  0
 12 13  1  0
 13 14  2  0
 15  9  1  0
 16 15  1  0
 17 16  1  0
 18 17  1  0
 18 19  1  0
 19 20  1  0
 20 15  1  0
  1 21  1  0
  2 22  1  0
  3 23  1  0
  8 24  1  0
 12 25  1  0
 16 26  1  0
 16 27  1  0
 17 28  1  0
 17 29  1  0
 18 30  1  0
 19 31  1  0
 19 32  1  0
 20 33  1  0
 20 34  1  0
M  ISO  8  21  14  22  14  23  14  24  14  25   9  26  13  27  13  28  13
M  ISO  6  29  13  30   5  31  13  32  13  33  13  34  13
M  END
>  <minimizedAffinity>  (1) 
-5.28607893

>  <minimizedRMSD>  (1) 
0.199658915

$$$$
