
     RDKit          3D

 27 29  0  0  0  0  0  0  0  0999 V2000
   39.8910   22.7100   37.3920 C   0  0  0  0  0  0  0  0  0  0  0  0
   39.2340   23.4900   38.3960 C   0  0  0  0  0  0  0  0  0  0  0  0
   37.8270   23.6330   38.2960 C   0  0  0  0  0  0  0  0  0  0  0  0
   37.1780   23.0320   37.2640 N   0  0  0  0  0  0  0  0  0  0  0  0
   37.8520   22.2960   36.3280 C   0  0  0  0  0  0  0  0  0  0  0  0
   39.1810   22.1480   36.4060 N   0  0  0  0  0  0  0  0  0  0  0  0
   37.1740   21.6660   35.2440 N   0  0  0  0  0  0  0  0  0  0  0  0
   37.7940   21.7660   34.0280 C   0  0  0  0  0  0  0  0  0  0  0  0
   37.1580   21.1680   32.9550 C   0  0  0  0  0  0  0  0  0  0  0  0
   35.9540   20.5120   33.1590 C   0  0  0  0  0  0  0  0  0  0  0  0
   35.3600   19.9610   32.1910 O   0  0  0  0  0  0  0  0  0  0  0  0
   35.4010   20.4510   34.3840 N   0  0  0  0  0  0  0  0  0  0  0  0
   36.0130   21.0330   35.4450 C   0  0  0  0  0  0  0  0  0  0  0  0
   35.5670   21.0230   36.6110 O   0  0  0  0  0  0  0  0  0  0  0  0
   37.7970   21.2610   31.6510 C   0  0  0  0  0  0  0  0  0  0  0  0
   38.1460   22.3350   30.8670 C   0  0  0  0  0  0  0  0  0  0  0  0
   38.7400   21.9120   29.6950 C   0  0  0  0  0  0  0  0  0  0  0  0
   38.7220   20.5380   29.8290 C   0  0  0  0  0  0  0  0  0  0  0  0
   38.1740   20.2170   30.9610 O   0  0  0  0  0  0  0  0  0  0  0  0
   40.9816   22.5720   37.4306 H   0  0  0  0  0  0  0  0  0  0  0  0
   39.7991   23.9606   39.2141 H   0  0  0  0  0  0  0  0  0  0  0  0
   37.2701   24.2203   39.0409 H   0  0  0  0  0  0  0  0  0  0  0  0
   38.7508   22.2957   33.9098 H   0  0  0  0  0  0  0  0  0  0  0  0
   34.5061   19.9586   34.5169 H   0  0  0  0  0  0  0  0  0  0  0  0
   37.9752   23.3876   31.1368 H   0  0  0  0  0  0  0  0  0  0  0  0
   39.1297   22.5174   28.8634 H   0  0  0  0  0  0  0  0  0  0  0  0
   39.1126   19.8240   29.0890 H   0  0  0  0  0  0  0  0  0  0  0  0
  1  2  2  0
  3  2  1  0
  4  3  2  0
  5  6  2  0
  5  4  1  0
  6  1  1  0
  7 13  1  0
  7  5  1  0
  8  7  1  0
  9 10  1  0
  9  8  2  0
 10 12  1  0
 11 10  2  0
 12 13  1  0
 13 14  2  0
 15  9  1  0
 16 15  2  0
 17 18  2  0
 17 16  1  0
 18 19  1  0
 19 15  1  0
  1 20  1  0
  2 21  1  0
  3 22  1  0
  8 23  1  0
 12 24  1  0
 16 25  1  0
 17 26  1  0
 18 27  1  0
M  ISO  8  20  14  21  14  22  14  23  14  24   9  25  14  26  14  27  14
M  END
>  <minimizedAffinity>  (1) 
-5.01615906

>  <minimizedRMSD>  (1) 
0.208353192

$$$$
