
     RDKit          3D

 28 30  0  0  0  0  0  0  0  0999 V2000
   39.8710   22.7350   37.4370 C   0  0  0  0  0  0  0  0  0  0  0  0
   39.0900   23.2710   38.5110 C   0  0  0  0  0  0  0  0  0  0  0  0
   37.7020   23.3450   38.3230 C   0  0  0  0  0  0  0  0  0  0  0  0
   37.1650   22.9130   37.1520 N   0  0  0  0  0  0  0  0  0  0  0  0
   37.9440   22.4090   36.1580 C   0  0  0  0  0  0  0  0  0  0  0  0
   39.2950   22.3160   36.2920 N   0  0  0  0  0  0  0  0  0  0  0  0
   37.4210   21.9450   34.9170 N   0  0  0  0  0  0  0  0  0  0  0  0
   38.0980   22.2800   33.7930 C   0  0  0  0  0  0  0  0  0  0  0  0
   37.6110   21.8400   32.5850 C   0  0  0  0  0  0  0  0  0  0  0  0
   36.4510   21.0750   32.5820 C   0  0  0  0  0  0  0  0  0  0  0  0
   35.9960   20.6650   31.4650 O   0  0  0  0  0  0  0  0  0  0  0  0
   35.7990   20.7580   33.7290 N   0  0  0  0  0  0  0  0  0  0  0  0
   36.2970   21.2030   34.9080 C   0  0  0  0  0  0  0  0  0  0  0  0
   35.7670   20.9620   36.0090 O   0  0  0  0  0  0  0  0  0  0  0  0
   38.2390   22.1270   31.3030 C   0  0  0  0  0  0  0  0  0  0  0  0
   38.1830   23.3690   30.7110 C   0  0  0  0  0  0  0  0  0  0  0  0
   38.7650   23.6910   29.4920 C   0  0  0  0  0  0  0  0  0  0  0  0
   39.4350   22.6830   28.8600 N   0  0  0  0  0  0  0  0  0  0  0  0
   39.4910   21.4520   29.4450 C   0  0  0  0  0  0  0  0  0  0  0  0
   38.9090   21.2060   30.6220 N   0  0  0  0  0  0  0  0  0  0  0  0
   40.9630   22.6636   37.5483 H   0  0  0  0  0  0  0  0  0  0  0  0
   39.5597   23.6110   39.4458 H   0  0  0  0  0  0  0  0  0  0  0  0
   37.0548   23.7487   39.1155 H   0  0  0  0  0  0  0  0  0  0  0  0
   39.0132   22.8880   33.8452 H   0  0  0  0  0  0  0  0  0  0  0  0
   34.9407   20.1892   33.7039 H   0  0  0  0  0  0  0  0  0  0  0  0
   37.6380   24.1633   31.2420 H   0  0  0  0  0  0  0  0  0  0  0  0
   38.6905   24.7000   29.0604 H   0  0  0  0  0  0  0  0  0  0  0  0
   40.0297   20.6404   28.9340 H   0  0  0  0  0  0  0  0  0  0  0  0
  1  2  2  0
  3  2  1  0
  4  3  2  0
  5  6  2  0
  5  4  1  0
  6  1  1  0
  7  5  1  0
  8  7  1  0
  9  8  2  0
 10  9  1  0
 10 12  1  0
 11 10  2  0
 12 13  1  0
 13  7  1  0
 13 14  2  0
 15  9  1  0
 16 15  2  0
 17 16  1  0
 18 19  1  0
 18 17  2  0
 19 20  2  0
 20 15  1  0
  1 21  1  0
  2 22  1  0
  3 23  1  0
  8 24  1  0
 12 25  1  0
 16 26  1  0
 17 27  1  0
 19 28  1  0
M  ISO  8  21  14  22  14  23  14  24  14  25   9  26  14  27  14  28  14
M  END
>  <minimizedAffinity>  (1) 
-4.92285061

>  <minimizedRMSD>  (1) 
0.966320872

$$$$
