
     RDKit          3D

 28 30  0  0  0  0  0  0  0  0999 V2000
   39.8680   22.7300   37.3910 C   0  0  0  0  0  0  0  0  0  0  0  0
   39.1020   23.2440   38.4730 C   0  0  0  0  0  0  0  0  0  0  0  0
   37.7050   23.3090   38.3020 C   0  0  0  0  0  0  0  0  0  0  0  0
   37.1570   22.8860   37.1320 N   0  0  0  0  0  0  0  0  0  0  0  0
   37.9380   22.3990   36.1200 C   0  0  0  0  0  0  0  0  0  0  0  0
   39.2810   22.3220   36.2470 N   0  0  0  0  0  0  0  0  0  0  0  0
   37.3980   21.9500   34.8890 N   0  0  0  0  0  0  0  0  0  0  0  0
   38.0580   22.2970   33.7600 C   0  0  0  0  0  0  0  0  0  0  0  0
   37.5710   21.8830   32.5440 C   0  0  0  0  0  0  0  0  0  0  0  0
   36.4120   21.1220   32.5370 C   0  0  0  0  0  0  0  0  0  0  0  0
   35.9300   20.7190   31.4280 O   0  0  0  0  0  0  0  0  0  0  0  0
   35.7720   20.7900   33.6850 N   0  0  0  0  0  0  0  0  0  0  0  0
   36.2700   21.2090   34.8810 C   0  0  0  0  0  0  0  0  0  0  0  0
   35.7490   20.9500   35.9730 O   0  0  0  0  0  0  0  0  0  0  0  0
   38.2010   22.2000   31.2690 C   0  0  0  0  0  0  0  0  0  0  0  0
   38.1380   23.4480   30.6900 C   0  0  0  0  0  0  0  0  0  0  0  0
   38.7690   23.6760   29.4660 C   0  0  0  0  0  0  0  0  0  0  0  0
   39.4430   22.7320   28.8110 N   0  0  0  0  0  0  0  0  0  0  0  0
   39.4910   21.5050   29.4020 C   0  0  0  0  0  0  0  0  0  0  0  0
   38.8890   21.2690   30.5830 N   0  0  0  0  0  0  0  0  0  0  0  0
   40.9616   22.6637   37.4888 H   0  0  0  0  0  0  0  0  0  0  0  0
   39.5806   23.5773   39.4056 H   0  0  0  0  0  0  0  0  0  0  0  0
   37.0642   23.6981   39.1070 H   0  0  0  0  0  0  0  0  0  0  0  0
   38.9740   22.9036   33.8152 H   0  0  0  0  0  0  0  0  0  0  0  0
   34.9126   20.2232   33.6527 H   0  0  0  0  0  0  0  0  0  0  0  0
   37.5926   24.2619   31.1901 H   0  0  0  0  0  0  0  0  0  0  0  0
   38.7069   24.6806   29.0222 H   0  0  0  0  0  0  0  0  0  0  0  0
   40.0339   20.6888   28.9029 H   0  0  0  0  0  0  0  0  0  0  0  0
  1  2  2  0
  3  2  1  0
  4  3  2  0
  5  6  2  0
  5  4  1  0
  6  1  1  0
  7  5  1  0
  8  7  1  0
  9  8  2  0
 10  9  1  0
 10 12  1  0
 11 10  2  0
 12 13  1  0
 13  7  1  0
 13 14  2  0
 15  9  1  0
 16 15  2  0
 17 16  1  0
 18 19  1  0
 18 17  2  0
 19 20  2  0
 20 15  1  0
  1 21  1  0
  2 22  1  0
  3 23  1  0
  8 24  1  0
 12 25  1  0
 16 26  1  0
 17 27  1  0
 19 28  1  0
M  ISO  8  21  14  22  14  23  14  24  14  25   9  26  14  27  14  28  14
M  END
>  <minimizedAffinity>  (1) 
-4.93263245

>  <minimizedRMSD>  (1) 
0.969040036

$$$$
