
     RDKit          3D

 21 22  0  0  0  0  0  0  0  0999 V2000
   39.9120   22.7240   37.2120 C   0  0  0  0  0  0  0  0  0  0  0  0
   39.2840   23.4280   38.2750 C   0  0  0  0  0  0  0  0  0  0  0  0
   37.8750   23.5210   38.2630 C   0  0  0  0  0  0  0  0  0  0  0  0
   37.1940   22.9360   37.2410 N   0  0  0  0  0  0  0  0  0  0  0  0
   37.8310   22.2770   36.2530 C   0  0  0  0  0  0  0  0  0  0  0  0
   39.1670   22.1720   36.2360 N   0  0  0  0  0  0  0  0  0  0  0  0
   37.1260   21.6560   35.1700 N   0  0  0  0  0  0  0  0  0  0  0  0
   37.6760   21.8150   33.9220 C   0  0  0  0  0  0  0  0  0  0  0  0
   37.0050   21.2200   32.8650 C   0  0  0  0  0  0  0  0  0  0  0  0
   35.8300   20.5060   33.1200 C   0  0  0  0  0  0  0  0  0  0  0  0
   35.2250   19.9660   32.1480 O   0  0  0  0  0  0  0  0  0  0  0  0
   35.3430   20.3900   34.3790 N   0  0  0  0  0  0  0  0  0  0  0  0
   36.0020   20.9710   35.4030 C   0  0  0  0  0  0  0  0  0  0  0  0
   35.6130   20.9060   36.5790 O   0  0  0  0  0  0  0  0  0  0  0  0
   37.5430   21.3670   31.5950 O   0  0  0  0  0  0  0  0  0  0  0  0
   41.0077   22.6301   37.1867 H   0  0  0  0  0  0  0  0  0  0  0  0
   39.8764   23.8856   39.0810 H   0  0  0  0  0  0  0  0  0  0  0  0
   37.3400   24.0547   39.0623 H   0  0  0  0  0  0  0  0  0  0  0  0
   38.6034   22.3864   33.7685 H   0  0  0  0  0  0  0  0  0  0  0  0
   34.4759   19.8621   34.5531 H   0  0  0  0  0  0  0  0  0  0  0  0
   38.3783   21.8830   31.4679 H   0  0  0  0  0  0  0  0  0  0  0  0
  1  2  2  0
  3  2  1  0
  4  3  2  0
  5  4  1  0
  6  5  2  0
  6  1  1  0
  7 13  1  0
  7  5  1  0
  8  7  1  0
  9 10  1  0
  9  8  2  0
 10 12  1  0
 11 10  2  0
 12 13  1  0
 13 14  2  0
 15  9  1  0
  1 16  1  0
  2 17  1  0
  3 18  1  0
  8 19  1  0
 12 20  1  0
 15 21  1  0
M  ISO  6  16  14  17  14  18  14  19  14  20   9  21   3
M  END
>  <minimizedAffinity>  (1) 
-4.89105606

>  <minimizedRMSD>  (1) 
0.0186727252

$$$$
