
     RDKit          3D

 54 56  0  0  0  0  0  0  0  0999 V2000
   37.7100   22.6710   36.2060 C   0  0  0  0  0  0  0  0  0  0  0  0
   37.8880   22.7710   34.7910 N   0  0  0  0  0  0  0  0  0  0  0  0
   38.2960   21.8350   33.8900 C   0  0  0  0  0  0  0  0  0  0  0  0
   38.3110   22.4010   32.6480 N   0  0  0  0  0  0  0  0  0  0  0  0
   37.9100   23.6820   32.7950 C   0  0  0  0  0  0  0  0  0  0  0  0
   37.6610   23.8850   34.0860 N   0  0  0  0  0  0  0  0  0  0  0  0
   37.7880   24.6580   31.6570 C   0  0  0  0  0  0  0  0  0  0  0  0
   36.3010   24.9710   31.5040 C   0  0  0  0  0  0  0  0  0  0  0  0
   38.2150   24.0260   30.3520 C   0  0  0  0  0  0  0  0  0  0  0  0
   38.4980   25.9310   31.9530 C   0  0  0  0  0  0  0  0  0  0  0  0
   37.7320   27.1130   31.5570 C   0  0  0  0  0  0  0  0  0  0  0  0
   37.0260   27.8900   32.4630 C   0  0  0  0  0  0  0  0  0  0  0  0
   36.2830   29.0260   32.1270 C   0  0  0  0  0  0  0  0  0  0  0  0
   36.2460   29.4000   30.8260 N   0  0  0  0  0  0  0  0  0  0  0  0
   36.9310   28.6440   29.9500 C   0  0  0  0  0  0  0  0  0  0  0  0
   37.6500   27.5460   30.2790 N   0  0  0  0  0  0  0  0  0  0  0  0
   38.6740   23.5520   36.9830 C   0  0  0  0  0  0  0  0  0  0  0  0
   41.9460   21.6990   36.9000 C   0  0  0  0  0  0  0  0  0  0  0  0
   40.6380   22.0200   37.2340 C   0  0  0  0  0  0  0  0  0  0  0  0
   40.0390   23.1650   36.6710 C   0  0  0  0  0  0  0  0  0  0  0  0
   40.7760   23.9110   35.8180 N   0  0  0  0  0  0  0  0  0  0  0  0
   42.0520   23.5750   35.5090 C   0  0  0  0  0  0  0  0  0  0  0  0
   42.6240   22.4670   36.0570 N   0  0  0  0  0  0  0  0  0  0  0  0
   42.5500   20.4900   37.5060 C   0  0  0  0  0  0  0  0  0  0  0  0
   43.1830   19.5790   36.5080 C   0  0  0  0  0  0  0  0  0  0  0  0
   38.4560   23.3550   38.4600 C   0  0  0  0  0  0  0  0  0  0  0  0
   38.3630   24.9960   36.6240 C   0  0  0  0  0  0  0  0  0  0  0  0
   37.8685   21.6250   36.5074 H   0  0  0  0  0  0  0  0  0  0  0  0
   36.6898   23.0113   36.4370 H   0  0  0  0  0  0  0  0  0  0  0  0
   38.5683   20.7953   34.1242 H   0  0  0  0  0  0  0  0  0  0  0  0
   35.8423   25.0675   32.4991 H   0  0  0  0  0  0  0  0  0  0  0  0
   36.1798   25.9143   30.9513 H   0  0  0  0  0  0  0  0  0  0  0  0
   35.8098   24.1566   30.9513 H   0  0  0  0  0  0  0  0  0  0  0  0
   38.8198   23.1308   30.5588 H   0  0  0  0  0  0  0  0  0  0  0  0
   37.3237   23.7408   29.7738 H   0  0  0  0  0  0  0  0  0  0  0  0
   38.8122   24.7465   29.7738 H   0  0  0  0  0  0  0  0  0  0  0  0
   38.6900   25.9829   33.0349 H   0  0  0  0  0  0  0  0  0  0  0  0
   39.4321   25.9319   31.3721 H   0  0  0  0  0  0  0  0  0  0  0  0
   37.0523   27.5915   33.5214 H   0  0  0  0  0  0  0  0  0  0  0  0
   35.7447   29.5987   32.8965 H   0  0  0  0  0  0  0  0  0  0  0  0
   36.9050   28.9392   28.8907 H   0  0  0  0  0  0  0  0  0  0  0  0
   40.0729   21.3857   37.9328 H   0  0  0  0  0  0  0  0  0  0  0  0
   42.6289   24.2005   34.8119 H   0  0  0  0  0  0  0  0  0  0  0  0
   43.3194   20.8078   38.2250 H   0  0  0  0  0  0  0  0  0  0  0  0
   41.7366   19.9279   37.9881 H   0  0  0  0  0  0  0  0  0  0  0  0
   43.7343   18.7855   37.0338 H   0  0  0  0  0  0  0  0  0  0  0  0
   42.4031   19.1275   35.8773 H   0  0  0  0  0  0  0  0  0  0  0  0
   43.8782   20.1524   35.8773 H   0  0  0  0  0  0  0  0  0  0  0  0
   39.1576   23.9890   39.0220 H   0  0  0  0  0  0  0  0  0  0  0  0
   37.4234   23.6324   38.7184 H   0  0  0  0  0  0  0  0  0  0  0  0
   38.6278   22.2997   38.7184 H   0  0  0  0  0  0  0  0  0  0  0  0
   38.2364   25.5837   37.5452 H   0  0  0  0  0  0  0  0  0  0  0  0
   39.1918   25.4137   36.0335 H   0  0  0  0  0  0  0  0  0  0  0  0
   37.4358   25.0355   36.0335 H   0  0  0  0  0  0  0  0  0  0  0  0
  1 17  1  0
  2  1  1  0
  3  2  1  0
  4  5  1  0
  4  3  2  0
  5  6  2  0
  6  2  1  0
  7 10  1  0
  7  5  1  0
  8  7  1  0
  9  7  1  0
 11 10  1  0
 11 12  2  0
 13 12  1  0
 14 13  2  0
 15 16  2  0
 15 14  1  0
 16 11  1  0
 17 26  1  0
 18 19  2  0
 18 24  1  0
 20 17  1  0
 20 19  1  0
 21 20  2  0
 22 21  1  0
 22 23  2  0
 23 18  1  0
 25 24  1  0
 27 17  1  0
  1 28  1  0
  1 29  1  0
  3 30  1  0
  8 31  1  0
  8 32  1  0
  8 33  1  0
  9 34  1  0
  9 35  1  0
  9 36  1  0
 10 37  1  0
 10 38  1  0
 12 39  1  0
 13 40  1  0
 15 41  1  0
 19 42  1  0
 22 43  1  0
 24 44  1  0
 24 45  1  0
 25 46  1  0
 25 47  1  0
 25 48  1  0
 26 49  1  0
 26 50  1  0
 26 51  1  0
 27 52  1  0
 27 53  1  0
 27 54  1  0
M  ISO  8  28   8  29   8  30  14  31   8  32   8  33   8  34   8  35   8
M  ISO  8  36   8  37   8  38   8  39  14  40  14  41  14  42  14  43  14
M  ISO  8  44   8  45   8  46   8  47   8  48   8  49   8  50   8  51   8
M  ISO  3  52   8  53   8  54   8
M  END
>  <minimizedAffinity>  (1) 
-5.16575575

>  <minimizedRMSD>  (1) 
1.10630476

$$$$
