
     RDKit          3D

 20 21  0  0  0  0  0  0  0  0999 V2000
   38.2390   22.8110   34.5970 C   0  0  0  0  0  0  0  0  0  0  0  0
   39.8060   22.7320   37.9170 C   0  0  0  0  0  0  0  0  0  0  0  0
   38.9770   23.5420   38.7090 C   0  0  0  0  0  0  0  0  0  0  0  0
   37.8520   24.1270   38.0770 C   0  0  0  0  0  0  0  0  0  0  0  0
   37.6350   23.8750   36.7420 N   0  0  0  0  0  0  0  0  0  0  0  0
   38.4740   23.0840   36.0410 C   0  0  0  0  0  0  0  0  0  0  0  0
   39.5550   22.5100   36.6090 N   0  0  0  0  0  0  0  0  0  0  0  0
   37.1180   21.8190   34.5570 C   0  0  0  0  0  0  0  0  0  0  0  0
   36.5440   21.2750   33.4220 C   0  0  0  0  0  0  0  0  0  0  0  0
   35.5540   20.4140   33.8290 C   0  0  0  0  0  0  0  0  0  0  0  0
   35.5340   20.4390   35.1510 N   0  0  0  0  0  0  0  0  0  0  0  0
   36.4660   21.2750   35.6040 N   0  0  0  0  0  0  0  0  0  0  0  0
   37.9543   23.7348   34.0721 H   0  0  0  0  0  0  0  0  0  0  0  0
   39.1427   22.4272   34.1009 H   0  0  0  0  0  0  0  0  0  0  0  0
   40.6885   22.2631   38.3768 H   0  0  0  0  0  0  0  0  0  0  0  0
   39.1915   23.7150   39.7739 H   0  0  0  0  0  0  0  0  0  0  0  0
   37.1640   24.7715   38.6438 H   0  0  0  0  0  0  0  0  0  0  0  0
   36.8287   21.4925   32.3820 H   0  0  0  0  0  0  0  0  0  0  0  0
   34.9003   19.8158   33.1773 H   0  0  0  0  0  0  0  0  0  0  0  0
   34.8922   19.8925   35.7429 H   0  0  0  0  0  0  0  0  0  0  0  0
  1  6  1  0
  2  3  2  0
  4  3  1  0
  5  4  2  0
  6  7  2  0
  6  5  1  0
  7  2  1  0
  8  1  1  0
  8 12  2  0
  9 10  2  0
  9  8  1  0
 10 11  1  0
 11 12  1  0
  1 13  1  0
  1 14  1  0
  2 15  1  0
  3 16  1  0
  4 17  1  0
  9 18  1  0
 10 19  1  0
 11 20  1  0
M  ISO  8  13   8  14   8  15  14  16  14  17  14  18  14  19  14  20   9
M  END
>  <minimizedAffinity>  (1) 
-3.88498044

>  <minimizedRMSD>  (1) 
1.26431942

$$$$
