
     RDKit          3D

 53 55  0  0  0  0  0  0  0  0999 V2000
   37.8550   22.5160   36.1430 C   0  0  0  0  0  0  0  0  0  0  0  0
   37.9020   22.6320   34.7200 N   0  0  0  0  0  0  0  0  0  0  0  0
   38.5540   21.8660   33.7800 C   0  0  0  0  0  0  0  0  0  0  0  0
   38.2960   22.3700   32.5420 N   0  0  0  0  0  0  0  0  0  0  0  0
   37.5030   23.4260   32.7120 C   0  0  0  0  0  0  0  0  0  0  0  0
   37.2700   23.5770   34.0150 N   0  0  0  0  0  0  0  0  0  0  0  0
   36.9680   24.2850   31.5900 C   0  0  0  0  0  0  0  0  0  0  0  0
   35.7450   23.5950   31.0180 C   0  0  0  0  0  0  0  0  0  0  0  0
   37.9920   24.3910   30.4850 C   0  0  0  0  0  0  0  0  0  0  0  0
   36.5300   25.6340   32.0920 C   0  0  0  0  0  0  0  0  0  0  0  0
   37.0540   26.7750   31.3400 C   0  0  0  0  0  0  0  0  0  0  0  0
   38.1880   27.5540   31.3990 C   0  0  0  0  0  0  0  0  0  0  0  0
   38.1440   28.4970   30.4280 N   0  0  0  0  0  0  0  0  0  0  0  0
   36.9810   28.2840   29.7840 C   0  0  0  0  0  0  0  0  0  0  0  0
   36.3200   27.2630   30.3130 N   0  0  0  0  0  0  0  0  0  0  0  0
   38.7760   23.4910   36.8360 C   0  0  0  0  0  0  0  0  0  0  0  0
   42.0460   21.6580   36.8790 C   0  0  0  0  0  0  0  0  0  0  0  0
   40.7240   21.9630   37.1580 C   0  0  0  0  0  0  0  0  0  0  0  0
   40.1540   23.1140   36.5850 C   0  0  0  0  0  0  0  0  0  0  0  0
   40.9180   23.8840   35.7800 N   0  0  0  0  0  0  0  0  0  0  0  0
   42.2090   23.5660   35.5210 C   0  0  0  0  0  0  0  0  0  0  0  0
   42.7640   22.4510   36.0760 N   0  0  0  0  0  0  0  0  0  0  0  0
   42.6340   20.4410   37.4910 C   0  0  0  0  0  0  0  0  0  0  0  0
   43.1980   19.4840   36.4920 C   0  0  0  0  0  0  0  0  0  0  0  0
   38.5260   23.4020   38.3320 C   0  0  0  0  0  0  0  0  0  0  0  0
   38.4220   24.8760   36.3450 C   0  0  0  0  0  0  0  0  0  0  0  0
   38.1492   21.4937   36.4230 H   0  0  0  0  0  0  0  0  0  0  0  0
   36.8273   22.7444   36.4620 H   0  0  0  0  0  0  0  0  0  0  0  0
   39.1819   20.9886   33.9946 H   0  0  0  0  0  0  0  0  0  0  0  0
   35.1085   23.2359   31.8401 H   0  0  0  0  0  0  0  0  0  0  0  0
   35.1783   24.3065   30.3994 H   0  0  0  0  0  0  0  0  0  0  0  0
   36.0609   22.7420   30.3994 H   0  0  0  0  0  0  0  0  0  0  0  0
   38.9954   24.4949   30.9237 H   0  0  0  0  0  0  0  0  0  0  0  0
   37.9557   23.4843   29.8632 H   0  0  0  0  0  0  0  0  0  0  0  0
   37.7707   25.2710   29.8632 H   0  0  0  0  0  0  0  0  0  0  0  0
   35.4315   25.6733   32.0499 H   0  0  0  0  0  0  0  0  0  0  0  0
   36.9323   25.7275   33.1115 H   0  0  0  0  0  0  0  0  0  0  0  0
   39.0053   27.4293   32.1245 H   0  0  0  0  0  0  0  0  0  0  0  0
   36.6253   28.8793   28.9302 H   0  0  0  0  0  0  0  0  0  0  0  0
   35.4076   26.9042   29.9974 H   0  0  0  0  0  0  0  0  0  0  0  0
   40.1288   21.3147   37.8179 H   0  0  0  0  0  0  0  0  0  0  0  0
   42.8109   24.2086   34.8616 H   0  0  0  0  0  0  0  0  0  0  0  0
   43.4410   20.7490   38.1721 H   0  0  0  0  0  0  0  0  0  0  0  0
   41.8211   19.9183   38.0164 H   0  0  0  0  0  0  0  0  0  0  0  0
   43.6885   18.6517   37.0179 H   0  0  0  0  0  0  0  0  0  0  0  0
   42.3866   19.0918   35.8613 H   0  0  0  0  0  0  0  0  0  0  0  0
   43.9341   20.0039   35.8613 H   0  0  0  0  0  0  0  0  0  0  0  0
   39.4277   23.7230   38.8742 H   0  0  0  0  0  0  0  0  0  0  0  0
   37.6834   24.0554   38.6025 H   0  0  0  0  0  0  0  0  0  0  0  0
   38.2859   22.3632   38.6025 H   0  0  0  0  0  0  0  0  0  0  0  0
   38.2527   25.5384   37.2067 H   0  0  0  0  0  0  0  0  0  0  0  0
   39.2480   25.2712   35.7355 H   0  0  0  0  0  0  0  0  0  0  0  0
   37.5077   24.8264   35.7355 H   0  0  0  0  0  0  0  0  0  0  0  0
  1 16  1  0
  2  1  1  0
  3  2  1  0
  4  5  1  0
  4  3  2  0
  5  6  2  0
  6  2  1  0
  7 10  1  0
  7  5  1  0
  8  7  1  0
  9  7  1  0
 11 12  2  0
 11 10  1  0
 13 12  1  0
 14 15  1  0
 14 13  2  0
 15 11  1  0
 16 25  1  0
 17 18  2  0
 17 23  1  0
 19 16  1  0
 19 18  1  0
 20 19  2  0
 21 20  1  0
 21 22  2  0
 22 17  1  0
 24 23  1  0
 26 16  1  0
  1 27  1  0
  1 28  1  0
  3 29  1  0
  8 30  1  0
  8 31  1  0
  8 32  1  0
  9 33  1  0
  9 34  1  0
  9 35  1  0
 10 36  1  0
 10 37  1  0
 12 38  1  0
 14 39  1  0
 15 40  1  0
 18 41  1  0
 21 42  1  0
 23 43  1  0
 23 44  1  0
 24 45  1  0
 24 46  1  0
 24 47  1  0
 25 48  1  0
 25 49  1  0
 25 50  1  0
 26 51  1  0
 26 52  1  0
 26 53  1  0
M  ISO  8  27   8  28   8  29  14  30   8  31   8  32   8  33   8  34   8
M  ISO  8  35   8  36   8  37   8  38  14  39  14  40   9  41  14  42  14
M  ISO  8  43   8  44   8  45   8  46   8  47   8  48   8  49   8  50   8
M  ISO  3  51   8  52   8  53   8
M  END
>  <minimizedAffinity>  (1) 
-5.10907507

>  <minimizedRMSD>  (1) 
0.680568039

$$$$
