
     RDKit          3D

 21 22  0  0  0  0  0  0  0  0999 V2000
   38.5570   23.0800   34.4160 C   0  0  0  0  0  0  0  0  0  0  0  0
   39.7840   22.7400   37.8600 C   0  0  0  0  0  0  0  0  0  0  0  0
   38.9070   23.5390   38.6250 C   0  0  0  0  0  0  0  0  0  0  0  0
   37.8780   24.2000   37.9270 C   0  0  0  0  0  0  0  0  0  0  0  0
   37.7820   24.0380   36.5590 N   0  0  0  0  0  0  0  0  0  0  0  0
   38.6550   23.2590   35.8930 C   0  0  0  0  0  0  0  0  0  0  0  0
   39.6440   22.6180   36.5260 N   0  0  0  0  0  0  0  0  0  0  0  0
   37.3960   22.2220   34.0520 C   0  0  0  0  0  0  0  0  0  0  0  0
   36.8750   22.2640   32.7750 C   0  0  0  0  0  0  0  0  0  0  0  0
   35.8070   21.5210   32.3240 C   0  0  0  0  0  0  0  0  0  0  0  0
   35.2300   20.6860   33.2070 N   0  0  0  0  0  0  0  0  0  0  0  0
   35.7270   20.6280   34.4740 C   0  0  0  0  0  0  0  0  0  0  0  0
   36.7880   21.3730   34.9060 N   0  0  0  0  0  0  0  0  0  0  0  0
   38.4368   24.0656   33.9426 H   0  0  0  0  0  0  0  0  0  0  0  0
   39.4761   22.5891   34.0635 H   0  0  0  0  0  0  0  0  0  0  0  0
   40.6011   22.2043   38.3654 H   0  0  0  0  0  0  0  0  0  0  0  0
   39.0219   23.6404   39.7143 H   0  0  0  0  0  0  0  0  0  0  0  0
   37.1601   24.8370   38.4644 H   0  0  0  0  0  0  0  0  0  0  0  0
   37.3525   22.9478   32.0577 H   0  0  0  0  0  0  0  0  0  0  0  0
   35.4425   21.6063   31.2897 H   0  0  0  0  0  0  0  0  0  0  0  0
   35.2476   19.9434   35.1892 H   0  0  0  0  0  0  0  0  0  0  0  0
  1  6  1  0
  2  3  2  0
  4  3  1  0
  5  4  2  0
  6  7  2  0
  6  5  1  0
  7  2  1  0
  8  1  1  0
  8 13  1  0
  9  8  2  0
 10  9  1  0
 10 11  2  0
 11 12  1  0
 12 13  2  0
  1 14  1  0
  1 15  1  0
  2 16  1  0
  3 17  1  0
  4 18  1  0
  9 19  1  0
 10 20  1  0
 12 21  1  0
M  ISO  8  14   8  15   8  16  14  17  14  18  14  19  14  20  14  21  14
M  END
>  <minimizedAffinity>  (1) 
-3.66823792

>  <minimizedRMSD>  (1) 
1.84753525

$$$$
