
     RDKit          3D

 21 22  0  0  0  0  0  0  0  0999 V2000
   38.5000   23.0380   34.5740 C   0  0  0  0  0  0  0  0  0  0  0  0
   39.7860   22.7820   37.9820 C   0  0  0  0  0  0  0  0  0  0  0  0
   38.9260   23.5960   38.7490 C   0  0  0  0  0  0  0  0  0  0  0  0
   37.8890   24.2360   38.0580 C   0  0  0  0  0  0  0  0  0  0  0  0
   37.7600   24.0490   36.7090 N   0  0  0  0  0  0  0  0  0  0  0  0
   38.6210   23.2550   36.0380 C   0  0  0  0  0  0  0  0  0  0  0  0
   39.6230   22.6250   36.6470 N   0  0  0  0  0  0  0  0  0  0  0  0
   37.3760   22.1870   34.1770 C   0  0  0  0  0  0  0  0  0  0  0  0
   36.9750   22.2810   32.8560 C   0  0  0  0  0  0  0  0  0  0  0  0
   35.9110   21.5110   32.3730 C   0  0  0  0  0  0  0  0  0  0  0  0
   35.2730   20.6690   33.2030 N   0  0  0  0  0  0  0  0  0  0  0  0
   35.6730   20.5860   34.4910 C   0  0  0  0  0  0  0  0  0  0  0  0
   36.7090   21.3300   34.9750 N   0  0  0  0  0  0  0  0  0  0  0  0
   38.3763   24.0182   34.0904 H   0  0  0  0  0  0  0  0  0  0  0  0
   39.4149   22.5151   34.2586 H   0  0  0  0  0  0  0  0  0  0  0  0
   40.6137   22.2592   38.4835 H   0  0  0  0  0  0  0  0  0  0  0  0
   39.0627   23.7216   39.8332 H   0  0  0  0  0  0  0  0  0  0  0  0
   37.1828   24.8849   38.5968 H   0  0  0  0  0  0  0  0  0  0  0  0
   37.4992   22.9696   32.1770 H   0  0  0  0  0  0  0  0  0  0  0  0
   35.5993   21.5945   31.3214 H   0  0  0  0  0  0  0  0  0  0  0  0
   35.1475   19.8979   35.1696 H   0  0  0  0  0  0  0  0  0  0  0  0
  1  6  1  0
  2  3  2  0
  4  3  1  0
  5  4  2  0
  6  7  2  0
  6  5  1  0
  7  2  1  0
  8  1  1  0
  8 13  1  0
  9  8  2  0
 10  9  1  0
 10 11  2  0
 11 12  1  0
 12 13  2  0
  1 14  1  0
  1 15  1  0
  2 16  1  0
  3 17  1  0
  4 18  1  0
  9 19  1  0
 10 20  1  0
 12 21  1  0
M  ISO  8  14   8  15   8  16  14  17  14  18  14  19  14  20  14  21  14
M  END
>  <minimizedAffinity>  (1) 
-3.67820358

>  <minimizedRMSD>  (1) 
1.72982526

$$$$
