
     RDKit          3D

 20 21  0  0  0  0  0  0  0  0999 V2000
   38.3500   23.6860   38.3860 C   0  0  0  0  0  0  0  0  0  0  0  0
   37.4970   23.6750   37.2780 C   0  0  0  0  0  0  0  0  0  0  0  0
   37.9540   23.0070   36.1220 C   0  0  0  0  0  0  0  0  0  0  0  0
   39.1920   22.4220   36.1690 N   0  0  0  0  0  0  0  0  0  0  0  0
   39.9640   22.4660   37.2610 C   0  0  0  0  0  0  0  0  0  0  0  0
   39.5610   23.0950   38.3830 N   0  0  0  0  0  0  0  0  0  0  0  0
   41.3060   21.8240   37.2920 C   0  0  0  0  0  0  0  0  0  0  0  0
   42.1540   22.4470   36.2160 C   0  0  0  0  0  0  0  0  0  0  0  0
   43.6110   22.1570   36.2390 C   0  0  0  0  0  0  0  0  0  0  0  0
   43.0970   23.5410   36.5470 C   0  0  0  0  0  0  0  0  0  0  0  0
   38.0178   24.1997   39.3002 H   0  0  0  0  0  0  0  0  0  0  0  0
   36.5129   24.1656   37.3063 H   0  0  0  0  0  0  0  0  0  0  0  0
   37.3365   22.9576   35.2130 H   0  0  0  0  0  0  0  0  0  0  0  0
   41.7733   21.9866   38.2744 H   0  0  0  0  0  0  0  0  0  0  0  0
   41.2119   20.7415   37.1205 H   0  0  0  0  0  0  0  0  0  0  0  0
   41.3419   22.3474   35.4808 H   0  0  0  0  0  0  0  0  0  0  0  0
   44.0374   21.5357   37.0403 H   0  0  0  0  0  0  0  0  0  0  0  0
   44.3349   21.7322   35.5280 H   0  0  0  0  0  0  0  0  0  0  0  0
   43.2616   24.3616   35.8332 H   0  0  0  0  0  0  0  0  0  0  0  0
   43.2103   24.2473   37.3826 H   0  0  0  0  0  0  0  0  0  0  0  0
  2  1  2  0
  3  4  2  0
  3  2  1  0
  4  5  1  0
  5  7  1  0
  5  6  2  0
  6  1  1  0
  8  9  1  0
  8 10  1  0
  8  7  1  0
  9 10  1  0
  1 11  1  0
  2 12  1  0
  3 13  1  0
  7 14  1  0
  7 15  1  0
  8 16  1  0
  9 17  1  0
  9 18  1  0
 10 19  1  0
 10 20  1  0
M  ISO  8  11  14  12  14  13  14  14   8  15   8  16  13  17  13  18  13
M  ISO  2  19  13  20  13
M  END
>  <minimizedAffinity>  (1) 
-3.32790947

>  <minimizedRMSD>  (1) 
4.29701996

$$$$
