
     RDKit          3D

 43 47  0  0  0  0  0  0  0  0999 V2000
   38.4700   25.8190   34.1260 C   0  0  0  0  0  0  0  0  0  0  0  0
   39.3320   24.7630   34.6550 C   0  0  0  0  0  0  0  0  0  0  0  0
   40.3730   24.2270   33.9220 C   0  0  0  0  0  0  0  0  0  0  0  0
   41.1790   23.2520   34.4460 C   0  0  0  0  0  0  0  0  0  0  0  0
   40.9780   22.7690   35.7410 C   0  0  0  0  0  0  0  0  0  0  0  0
   39.9410   23.3030   36.4740 C   0  0  0  0  0  0  0  0  0  0  0  0
   39.7330   22.8330   37.7620 C   0  0  0  0  0  0  0  0  0  0  0  0
   38.7120   23.3360   38.5340 C   0  0  0  0  0  0  0  0  0  0  0  0
   37.8850   24.3220   38.0170 C   0  0  0  0  0  0  0  0  0  0  0  0
   38.1120   24.7770   36.7230 C   0  0  0  0  0  0  0  0  0  0  0  0
   39.1330   24.2910   35.9210 C   0  0  0  0  0  0  0  0  0  0  0  0
   36.0090   25.9070   31.4070 C   0  0  0  0  0  0  0  0  0  0  0  0
   35.6950   24.5780   31.1760 C   0  0  0  0  0  0  0  0  0  0  0  0
   36.3400   23.6180   31.9770 C   0  0  0  0  0  0  0  0  0  0  0  0
   37.2300   24.0350   32.9290 N   0  0  0  0  0  0  0  0  0  0  0  0
   37.4930   25.3280   33.1070 C   0  0  0  0  0  0  0  0  0  0  0  0
   36.8920   26.2660   32.3560 N   0  0  0  0  0  0  0  0  0  0  0  0
   36.0570   22.2030   31.7880 C   0  0  0  0  0  0  0  0  0  0  0  0
   34.9690   21.5340   32.3080 C   0  0  0  0  0  0  0  0  0  0  0  0
   35.0750   20.2550   31.9040 N   0  0  0  0  0  0  0  0  0  0  0  0
   36.1840   20.1130   31.1580 C   0  0  0  0  0  0  0  0  0  0  0  0
   36.6440   18.9560   30.5590 C   0  0  0  0  0  0  0  0  0  0  0  0
   37.8200   19.0550   29.8320 C   0  0  0  0  0  0  0  0  0  0  0  0
   38.4990   20.2680   29.7160 C   0  0  0  0  0  0  0  0  0  0  0  0
   38.0160   21.4250   30.3290 C   0  0  0  0  0  0  0  0  0  0  0  0
   36.8460   21.3420   31.0560 C   0  0  0  0  0  0  0  0  0  0  0  0
   37.9095   26.2638   34.9615 H   0  0  0  0  0  0  0  0  0  0  0  0
   39.1208   26.5523   33.6273 H   0  0  0  0  0  0  0  0  0  0  0  0
   40.5576   24.5896   32.9000 H   0  0  0  0  0  0  0  0  0  0  0  0
   41.9983   22.8424   33.8370 H   0  0  0  0  0  0  0  0  0  0  0  0
   41.6270   21.9871   36.1622 H   0  0  0  0  0  0  0  0  0  0  0  0
   40.3904   22.0510   38.1698 H   0  0  0  0  0  0  0  0  0  0  0  0
   38.5524   22.9587   39.5549 H   0  0  0  0  0  0  0  0  0  0  0  0
   37.0639   24.7368   38.6201 H   0  0  0  0  0  0  0  0  0  0  0  0
   37.4518   25.5577   36.3173 H   0  0  0  0  0  0  0  0  0  0  0  0
   35.5252   26.6868   30.8005 H   0  0  0  0  0  0  0  0  0  0  0  0
   34.9725   24.2857   30.3998 H   0  0  0  0  0  0  0  0  0  0  0  0
   34.1704   21.9624   32.9314 H   0  0  0  0  0  0  0  0  0  0  0  0
   34.4099   19.5020   32.1310 H   0  0  0  0  0  0  0  0  0  0  0  0
   36.1033   18.0028   30.6544 H   0  0  0  0  0  0  0  0  0  0  0  0
   38.2255   18.1601   29.3372 H   0  0  0  0  0  0  0  0  0  0  0  0
   39.4301   20.3133   29.1320 H   0  0  0  0  0  0  0  0  0  0  0  0
   38.5546   22.3795   30.2350 H   0  0  0  0  0  0  0  0  0  0  0  0
  1  2  1  0
  2 11  2  0
  3  4  2  0
  3  2  1  0
  4  5  1  0
  5  6  2  0
  6  7  1  0
  7  8  2  0
  9  8  1  0
 10  9  2  0
 11  6  1  0
 11 10  1  0
 12 17  2  0
 13 12  1  0
 13 14  2  0
 14 15  1  0
 15 16  2  0
 16  1  1  0
 17 16  1  0
 18 14  1  0
 18 19  2  0
 20 19  1  0
 21 20  1  0
 22 21  2  0
 23 22  1  0
 24 23  2  0
 24 25  1  0
 25 26  2  0
 26 21  1  0
 26 18  1  0
  1 27  1  0
  1 28  1  0
  3 29  1  0
  4 30  1  0
  5 31  1  0
  7 32  1  0
  8 33  1  0
  9 34  1  0
 10 35  1  0
 12 36  1  0
 13 37  1  0
 19 38  1  0
 20 39  1  0
 22 40  1  0
 23 41  1  0
 24 42  1  0
 25 43  1  0
M  ISO  8  27   8  28   8  29  14  30  14  31  14  32  14  33  14  34  14
M  ISO  8  35  14  36  14  37  14  38  14  39   9  40  14  41  14  42  14
M  ISO  1  43  14
M  END
>  <minimizedAffinity>  (1) 
-6.62268448

>  <minimizedRMSD>  (1) 
3.52544403

$$$$
