
     RDKit          3D

 43 46  0  0  0  0  0  0  0  0999 V2000
   38.4250   25.8370   34.1450 C   0  0  0  0  0  0  0  0  0  0  0  0
   39.3110   24.8020   34.6740 C   0  0  0  0  0  0  0  0  0  0  0  0
   40.3660   24.2910   33.9440 C   0  0  0  0  0  0  0  0  0  0  0  0
   41.2000   23.3290   34.4650 C   0  0  0  0  0  0  0  0  0  0  0  0
   41.0070   22.8320   35.7580 C   0  0  0  0  0  0  0  0  0  0  0  0
   39.9400   23.3470   36.4970 C   0  0  0  0  0  0  0  0  0  0  0  0
   39.7430   22.8680   37.7710 C   0  0  0  0  0  0  0  0  0  0  0  0
   38.7140   23.3390   38.5450 C   0  0  0  0  0  0  0  0  0  0  0  0
   37.8730   24.3030   38.0290 C   0  0  0  0  0  0  0  0  0  0  0  0
   38.0860   24.7760   36.7400 C   0  0  0  0  0  0  0  0  0  0  0  0
   39.1190   24.3180   35.9370 C   0  0  0  0  0  0  0  0  0  0  0  0
   35.9230   25.8610   31.4580 C   0  0  0  0  0  0  0  0  0  0  0  0
   35.6880   24.5230   31.1920 C   0  0  0  0  0  0  0  0  0  0  0  0
   36.3960   23.5770   31.9550 C   0  0  0  0  0  0  0  0  0  0  0  0
   37.2730   23.9980   32.9110 N   0  0  0  0  0  0  0  0  0  0  0  0
   37.4630   25.3190   33.1250 C   0  0  0  0  0  0  0  0  0  0  0  0
   36.7980   26.2340   32.4100 N   0  0  0  0  0  0  0  0  0  0  0  0
   36.1910   22.1900   31.7230 N   0  0  0  0  0  0  0  0  0  0  0  0
   37.1390   21.4720   30.8980 C   0  0  0  0  0  0  0  0  0  0  0  0
   36.8060   19.9810   31.0390 C   0  0  0  0  0  0  0  0  0  0  0  0
   36.6170   19.6400   32.4290 N   0  0  0  0  0  0  0  0  0  0  0  0
   35.4580   20.2510   32.9990 C   0  0  0  0  0  0  0  0  0  0  0  0
   35.0400   21.5390   32.3160 C   0  0  0  0  0  0  0  0  0  0  0  0
   37.8523   26.2679   34.9795 H   0  0  0  0  0  0  0  0  0  0  0  0
   39.0571   26.5881   33.6486 H   0  0  0  0  0  0  0  0  0  0  0  0
   40.5434   24.6613   32.9235 H   0  0  0  0  0  0  0  0  0  0  0  0
   42.0312   22.9449   33.8555 H   0  0  0  0  0  0  0  0  0  0  0  0
   41.6720   22.0629   36.1778 H   0  0  0  0  0  0  0  0  0  0  0  0
   40.4184   22.0986   38.1734 H   0  0  0  0  0  0  0  0  0  0  0  0
   38.5611   22.9533   39.5638 H   0  0  0  0  0  0  0  0  0  0  0  0
   37.0408   24.6939   38.6329 H   0  0  0  0  0  0  0  0  0  0  0  0
   37.4078   25.5446   36.3408 H   0  0  0  0  0  0  0  0  0  0  0  0
   35.3869   26.6304   30.8830 H   0  0  0  0  0  0  0  0  0  0  0  0
   34.9752   24.2117   30.4141 H   0  0  0  0  0  0  0  0  0  0  0  0
   38.1652   21.6655   31.2437 H   0  0  0  0  0  0  0  0  0  0  0  0
   37.0736   21.7944   29.8483 H   0  0  0  0  0  0  0  0  0  0  0  0
   35.8830   19.7609   30.4825 H   0  0  0  0  0  0  0  0  0  0  0  0
   37.6397   19.3880   30.6349 H   0  0  0  0  0  0  0  0  0  0  0  0
   36.5211   18.6174   32.5064 H   0  0  0  0  0  0  0  0  0  0  0  0
   34.6232   19.5378   32.9328 H   0  0  0  0  0  0  0  0  0  0  0  0
   35.7130   20.5099   34.0372 H   0  0  0  0  0  0  0  0  0  0  0  0
   34.5846   22.2118   33.0576 H   0  0  0  0  0  0  0  0  0  0  0  0
   34.3137   21.3047   31.5238 H   0  0  0  0  0  0  0  0  0  0  0  0
  1  2  1  0
  2 11  2  0
  3  4  2  0
  3  2  1  0
  4  5  1  0
  5  6  2  0
  6  7  1  0
  7  8  2  0
  9  8  1  0
 10  9  2  0
 11  6  1  0
 11 10  1  0
 12 17  2  0
 13 12  1  0
 13 14  2  0
 14 15  1  0
 15 16  2  0
 16  1  1  0
 17 16  1  0
 18 14  1  0
 18 23  1  0
 19 20  1  0
 19 18  1  0
 20 21  1  0
 21 22  1  0
 23 22  1  0
  1 24  1  0
  1 25  1  0
  3 26  1  0
  4 27  1  0
  5 28  1  0
  7 29  1  0
  8 30  1  0
  9 31  1  0
 10 32  1  0
 12 33  1  0
 13 34  1  0
 19 35  1  0
 19 36  1  0
 20 37  1  0
 20 38  1  0
 21 39  1  0
 22 40  1  0
 22 41  1  0
 23 42  1  0
 23 43  1  0
M  ISO  8  24   8  25   8  26  14  27  14  28  14  29  14  30  14  31  14
M  ISO  8  32  14  33  14  34  14  35  13  36  13  37  13  38  13  39   5
M  ISO  4  40  13  41  13  42  13  43  13
M  END
>  <minimizedAffinity>  (1) 
-5.99807358

>  <minimizedRMSD>  (1) 
3.12066627

$$$$
