
     RDKit          3D

 37 40  0  0  0  0  0  0  0  0999 V2000
   38.3770   25.7980   34.1190 C   0  0  0  0  0  0  0  0  0  0  0  0
   39.2620   24.7600   34.6450 C   0  0  0  0  0  0  0  0  0  0  0  0
   40.3020   24.2270   33.9090 C   0  0  0  0  0  0  0  0  0  0  0  0
   41.1270   23.2750   34.4200 C   0  0  0  0  0  0  0  0  0  0  0  0
   40.9550   22.7930   35.7220 C   0  0  0  0  0  0  0  0  0  0  0  0
   39.9130   23.3240   36.4680 C   0  0  0  0  0  0  0  0  0  0  0  0
   39.7370   22.8520   37.7590 C   0  0  0  0  0  0  0  0  0  0  0  0
   38.7090   23.3530   38.5430 C   0  0  0  0  0  0  0  0  0  0  0  0
   37.8670   24.3190   38.0310 C   0  0  0  0  0  0  0  0  0  0  0  0
   38.0750   24.7640   36.7400 C   0  0  0  0  0  0  0  0  0  0  0  0
   39.0860   24.2970   35.9160 C   0  0  0  0  0  0  0  0  0  0  0  0
   35.9280   25.8340   31.3890 C   0  0  0  0  0  0  0  0  0  0  0  0
   35.6680   24.4970   31.1310 C   0  0  0  0  0  0  0  0  0  0  0  0
   36.3460   23.5470   31.9150 C   0  0  0  0  0  0  0  0  0  0  0  0
   37.2150   23.9720   32.8800 N   0  0  0  0  0  0  0  0  0  0  0  0
   37.4260   25.2850   33.0860 C   0  0  0  0  0  0  0  0  0  0  0  0
   36.7910   26.2080   32.3510 N   0  0  0  0  0  0  0  0  0  0  0  0
   36.1160   22.1260   31.6930 C   0  0  0  0  0  0  0  0  0  0  0  0
   35.0660   21.5150   32.3340 C   0  0  0  0  0  0  0  0  0  0  0  0
   34.9300   20.1590   32.0570 C   0  0  0  0  0  0  0  0  0  0  0  0
   35.7850   19.5130   31.2110 N   0  0  0  0  0  0  0  0  0  0  0  0
   36.7860   20.1470   30.6150 C   0  0  0  0  0  0  0  0  0  0  0  0
   36.9500   21.4760   30.8630 N   0  0  0  0  0  0  0  0  0  0  0  0
   37.7957   26.2188   34.9527 H   0  0  0  0  0  0  0  0  0  0  0  0
   39.0100   26.5570   33.6361 H   0  0  0  0  0  0  0  0  0  0  0  0
   40.4673   24.5825   32.8812 H   0  0  0  0  0  0  0  0  0  0  0  0
   41.9434   22.8770   33.7994 H   0  0  0  0  0  0  0  0  0  0  0  0
   41.6206   22.0224   36.1383 H   0  0  0  0  0  0  0  0  0  0  0  0
   40.4114   22.0815   38.1609 H   0  0  0  0  0  0  0  0  0  0  0  0
   38.5653   22.9821   39.5686 H   0  0  0  0  0  0  0  0  0  0  0  0
   37.0461   24.7267   38.6392 H   0  0  0  0  0  0  0  0  0  0  0  0
   37.3980   25.5346   36.3428 H   0  0  0  0  0  0  0  0  0  0  0  0
   35.4176   26.6059   30.7943 H   0  0  0  0  0  0  0  0  0  0  0  0
   34.9607   24.1920   30.3456 H   0  0  0  0  0  0  0  0  0  0  0  0
   34.3878   22.0545   33.0115 H   0  0  0  0  0  0  0  0  0  0  0  0
   34.1141   19.5934   32.5308 H   0  0  0  0  0  0  0  0  0  0  0  0
   37.4672   19.6123   29.9368 H   0  0  0  0  0  0  0  0  0  0  0  0
  1  2  1  0
  2 11  2  0
  3  4  2  0
  3  2  1  0
  4  5  1  0
  5  6  2  0
  6  7  1  0
  7  8  2  0
  9  8  1  0
 10  9  2  0
 11  6  1  0
 11 10  1  0
 12 17  2  0
 13 12  1  0
 13 14  2  0
 14 15  1  0
 15 16  2  0
 16  1  1  0
 17 16  1  0
 18 14  1  0
 18 19  2  0
 20 19  1  0
 21 20  2  0
 22 23  2  0
 22 21  1  0
 23 18  1  0
  1 24  1  0
  1 25  1  0
  3 26  1  0
  4 27  1  0
  5 28  1  0
  7 29  1  0
  8 30  1  0
  9 31  1  0
 10 32  1  0
 12 33  1  0
 13 34  1  0
 19 35  1  0
 20 36  1  0
 22 37  1  0
M  ISO  8  24   8  25   8  26  14  27  14  28  14  29  14  30  14  31  14
M  ISO  6  32  14  33  14  34  14  35  14  36  14  37  14
M  END
>  <minimizedAffinity>  (1) 
-6.29407597

>  <minimizedRMSD>  (1) 
3.20098305

$$$$
