
     RDKit          3D

 44 47  0  0  0  0  0  0  0  0999 V2000
   38.0220   27.1870   35.2400 C   0  0  0  0  0  0  0  0  0  0  0  0
   39.2700   26.4340   35.1340 C   0  0  0  0  0  0  0  0  0  0  0  0
   40.3880   26.9300   34.4940 C   0  0  0  0  0  0  0  0  0  0  0  0
   41.5530   26.2170   34.4210 C   0  0  0  0  0  0  0  0  0  0  0  0
   41.6560   24.9500   34.9980 C   0  0  0  0  0  0  0  0  0  0  0  0
   40.5320   24.4500   35.6420 C   0  0  0  0  0  0  0  0  0  0  0  0
   40.6280   23.1910   36.2210 C   0  0  0  0  0  0  0  0  0  0  0  0
   39.5530   22.6410   36.8760 C   0  0  0  0  0  0  0  0  0  0  0  0
   38.3680   23.3570   36.9530 C   0  0  0  0  0  0  0  0  0  0  0  0
   38.3030   24.6070   36.3670 C   0  0  0  0  0  0  0  0  0  0  0  0
   39.3670   25.1930   35.6990 C   0  0  0  0  0  0  0  0  0  0  0  0
   35.8310   28.3560   32.5370 C   0  0  0  0  0  0  0  0  0  0  0  0
   35.7070   27.2650   31.6880 C   0  0  0  0  0  0  0  0  0  0  0  0
   36.3920   26.0880   32.0520 C   0  0  0  0  0  0  0  0  0  0  0  0
   37.1300   26.0830   33.2040 N   0  0  0  0  0  0  0  0  0  0  0  0
   37.2150   27.1580   33.9820 C   0  0  0  0  0  0  0  0  0  0  0  0
   36.5730   28.2870   33.6570 N   0  0  0  0  0  0  0  0  0  0  0  0
   36.4010   24.8480   31.3240 N   0  0  0  0  0  0  0  0  0  0  0  0
   37.5880   24.3460   30.6210 C   0  0  0  0  0  0  0  0  0  0  0  0
   38.0350   23.1110   31.3300 C   0  0  0  0  0  0  0  0  0  0  0  0
   36.9940   22.0560   31.1320 C   0  0  0  0  0  0  0  0  0  0  0  0
   35.6040   22.5020   31.3950 C   0  0  0  0  0  0  0  0  0  0  0  0
   35.3080   23.9500   31.1770 C   0  0  0  0  0  0  0  0  0  0  0  0
   37.4198   26.7553   36.0530 H   0  0  0  0  0  0  0  0  0  0  0  0
   38.2860   28.2363   35.4380 H   0  0  0  0  0  0  0  0  0  0  0  0
   40.3407   27.9262   34.0299 H   0  0  0  0  0  0  0  0  0  0  0  0
   42.4209   26.6480   33.9004 H   0  0  0  0  0  0  0  0  0  0  0  0
   42.5898   24.3711   34.9446 H   0  0  0  0  0  0  0  0  0  0  0  0
   41.5720   22.6302   36.1545 H   0  0  0  0  0  0  0  0  0  0  0  0
   39.6313   21.6440   37.3342 H   0  0  0  0  0  0  0  0  0  0  0  0
   37.4939   22.9369   37.4721 H   0  0  0  0  0  0  0  0  0  0  0  0
   37.3579   25.1659   36.4341 H   0  0  0  0  0  0  0  0  0  0  0  0
   35.3130   29.2943   32.2895 H   0  0  0  0  0  0  0  0  0  0  0  0
   35.1009   27.3166   30.7715 H   0  0  0  0  0  0  0  0  0  0  0  0
   37.3352   24.1099   29.5768 H   0  0  0  0  0  0  0  0  0  0  0  0
   38.3865   25.1026   30.6160 H   0  0  0  0  0  0  0  0  0  0  0  0
   38.9947   22.7698   30.9146 H   0  0  0  0  0  0  0  0  0  0  0  0
   38.1691   23.3160   32.4024 H   0  0  0  0  0  0  0  0  0  0  0  0
   37.0514   21.7089   30.0898 H   0  0  0  0  0  0  0  0  0  0  0  0
   37.2105   21.2637   31.8636 H   0  0  0  0  0  0  0  0  0  0  0  0
   34.9389   21.9237   30.7368 H   0  0  0  0  0  0  0  0  0  0  0  0
   35.4472   22.3352   32.4709 H   0  0  0  0  0  0  0  0  0  0  0  0
   34.5326   24.2455   31.8991 H   0  0  0  0  0  0  0  0  0  0  0  0
   35.0034   24.0305   30.1231 H   0  0  0  0  0  0  0  0  0  0  0  0
  2  1  1  0
  2 11  1  0
  3  2  2  0
  4  3  1  0
  4  5  2  0
  5  6  1  0
  6 11  2  0
  6  7  1  0
  7  8  2  0
  8  9  1  0
 10  9  2  0
 11 10  1  0
 12 17  2  0
 13 14  2  0
 13 12  1  0
 14 15  1  0
 15 16  2  0
 16  1  1  0
 17 16  1  0
 18 14  1  0
 19 18  1  0
 19 20  1  0
 21 20  1  0
 21 22  1  0
 23 18  1  0
 23 22  1  0
  1 24  1  0
  1 25  1  0
  3 26  1  0
  4 27  1  0
  5 28  1  0
  7 29  1  0
  8 30  1  0
  9 31  1  0
 10 32  1  0
 12 33  1  0
 13 34  1  0
 19 35  1  0
 19 36  1  0
 20 37  1  0
 20 38  1  0
 21 39  1  0
 21 40  1  0
 22 41  1  0
 22 42  1  0
 23 43  1  0
 23 44  1  0
M  ISO  8  24   8  25   8  26  14  27  14  28  14  29  14  30  14  31  14
M  ISO  8  32  14  33  14  34  14  35  13  36  13  37  13  38  13  39  13
M  ISO  5  40  13  41  13  42  13  43  13  44  13
M  END
>  <minimizedAffinity>  (1) 
-6.03740644

>  <minimizedRMSD>  (1) 
0.846682727

$$$$
