
     RDKit          3D

 36 39  0  0  0  0  0  0  0  0999 V2000
   38.3160   25.7630   34.1000 C   0  0  0  0  0  0  0  0  0  0  0  0
   39.1900   24.7060   34.6040 C   0  0  0  0  0  0  0  0  0  0  0  0
   40.1910   24.1430   33.8360 C   0  0  0  0  0  0  0  0  0  0  0  0
   41.0110   23.1720   34.3290 C   0  0  0  0  0  0  0  0  0  0  0  0
   40.8690   22.7040   35.6380 C   0  0  0  0  0  0  0  0  0  0  0  0
   39.8680   23.2640   36.4140 C   0  0  0  0  0  0  0  0  0  0  0  0
   39.7120   22.8220   37.7120 C   0  0  0  0  0  0  0  0  0  0  0  0
   38.7410   23.3400   38.5300 C   0  0  0  0  0  0  0  0  0  0  0  0
   37.9030   24.3280   38.0370 C   0  0  0  0  0  0  0  0  0  0  0  0
   38.0710   24.7630   36.7290 C   0  0  0  0  0  0  0  0  0  0  0  0
   39.0450   24.2560   35.8830 C   0  0  0  0  0  0  0  0  0  0  0  0
   35.8650   25.8960   31.3650 C   0  0  0  0  0  0  0  0  0  0  0  0
   35.6050   24.5660   31.0720 C   0  0  0  0  0  0  0  0  0  0  0  0
   36.2820   23.5810   31.8350 C   0  0  0  0  0  0  0  0  0  0  0  0
   37.1500   23.9760   32.8120 N   0  0  0  0  0  0  0  0  0  0  0  0
   37.3630   25.2840   33.0490 C   0  0  0  0  0  0  0  0  0  0  0  0
   36.7310   26.2320   32.3390 N   0  0  0  0  0  0  0  0  0  0  0  0
   36.1490   22.1730   31.6860 N   0  0  0  0  0  0  0  0  0  0  0  0
   36.7900   21.2550   30.9790 N   0  0  0  0  0  0  0  0  0  0  0  0
   36.2320   20.0340   31.2240 C   0  0  0  0  0  0  0  0  0  0  0  0
   35.1900   20.2280   32.1380 C   0  0  0  0  0  0  0  0  0  0  0  0
   35.1670   21.5990   32.4090 C   0  0  0  0  0  0  0  0  0  0  0  0
   37.7348   26.1680   34.9415 H   0  0  0  0  0  0  0  0  0  0  0  0
   38.9578   26.5275   33.6378 H   0  0  0  0  0  0  0  0  0  0  0  0
   40.3298   24.4870   32.8004 H   0  0  0  0  0  0  0  0  0  0  0  0
   41.7973   22.7500   33.6859 H   0  0  0  0  0  0  0  0  0  0  0  0
   41.5283   21.9193   36.0375 H   0  0  0  0  0  0  0  0  0  0  0  0
   40.3802   22.0382   38.0983 H   0  0  0  0  0  0  0  0  0  0  0  0
   38.6287   22.9768   39.5622 H   0  0  0  0  0  0  0  0  0  0  0  0
   37.1165   24.7611   38.6725 H   0  0  0  0  0  0  0  0  0  0  0  0
   37.4000   25.5462   36.3465 H   0  0  0  0  0  0  0  0  0  0  0  0
   35.3568   26.6870   30.7939 H   0  0  0  0  0  0  0  0  0  0  0  0
   34.8991   24.2851   30.2765 H   0  0  0  0  0  0  0  0  0  0  0  0
   36.5435   19.0749   30.7845 H   0  0  0  0  0  0  0  0  0  0  0  0
   34.5250   19.4587   32.5574 H   0  0  0  0  0  0  0  0  0  0  0  0
   34.4735   22.1156   33.0888 H   0  0  0  0  0  0  0  0  0  0  0  0
  1  2  1  0
  2 11  2  0
  3  4  2  0
  3  2  1  0
  4  5  1  0
  5  6  2  0
  6  7  1  0
  7  8  2  0
  9  8  1  0
 10  9  2  0
 11  6  1  0
 11 10  1  0
 12 17  2  0
 13 12  1  0
 13 14  2  0
 14 15  1  0
 15 16  2  0
 16  1  1  0
 17 16  1  0
 18 14  1  0
 18 22  1  0
 19 20  2  0
 19 18  1  0
 20 21  1  0
 21 22  2  0
  1 23  1  0
  1 24  1  0
  3 25  1  0
  4 26  1  0
  5 27  1  0
  7 28  1  0
  8 29  1  0
  9 30  1  0
 10 31  1  0
 12 32  1  0
 13 33  1  0
 20 34  1  0
 21 35  1  0
 22 36  1  0
M  ISO  8  23   8  24   8  25  14  26  14  27  14  28  14  29  14  30  14
M  ISO  6  31  14  32  14  33  14  34  14  35  14  36  14
M  END
>  <minimizedAffinity>  (1) 
-5.99192619

>  <minimizedRMSD>  (1) 
2.96267796

$$$$
