
     RDKit          3D

 53 55  0  0  0  0  0  0  0  0999 V2000
   37.7300   22.6540   36.2130 C   0  0  0  0  0  0  0  0  0  0  0  0
   37.8630   22.8310   34.8090 N   0  0  0  0  0  0  0  0  0  0  0  0
   38.2040   21.9330   33.8270 C   0  0  0  0  0  0  0  0  0  0  0  0
   38.2010   22.5630   32.6220 N   0  0  0  0  0  0  0  0  0  0  0  0
   37.8660   23.8300   32.8460 C   0  0  0  0  0  0  0  0  0  0  0  0
   37.6630   23.9820   34.1650 N   0  0  0  0  0  0  0  0  0  0  0  0
   37.7340   24.9060   31.8020 C   0  0  0  0  0  0  0  0  0  0  0  0
   36.2550   25.1360   31.5510 C   0  0  0  0  0  0  0  0  0  0  0  0
   38.3240   24.4220   30.4980 C   0  0  0  0  0  0  0  0  0  0  0  0
   38.3500   26.2100   32.2430 C   0  0  0  0  0  0  0  0  0  0  0  0
   37.6840   27.3190   31.4930 C   0  0  0  0  0  0  0  0  0  0  0  0
   37.6860   27.8110   30.2560 C   0  0  0  0  0  0  0  0  0  0  0  0
   36.9120   28.8720   29.9570 C   0  0  0  0  0  0  0  0  0  0  0  0
   36.1410   29.4140   30.9420 C   0  0  0  0  0  0  0  0  0  0  0  0
   36.5680   28.3050   32.4180 S   0  0  0  0  0  0  0  0  0  0  0  0
   38.6970   23.5310   37.0100 C   0  0  0  0  0  0  0  0  0  0  0  0
   41.9640   21.6790   36.9100 C   0  0  0  0  0  0  0  0  0  0  0  0
   40.6500   21.9960   37.2530 C   0  0  0  0  0  0  0  0  0  0  0  0
   40.0650   23.1400   36.6950 C   0  0  0  0  0  0  0  0  0  0  0  0
   40.7880   23.8950   35.8510 N   0  0  0  0  0  0  0  0  0  0  0  0
   42.0670   23.5670   35.5320 C   0  0  0  0  0  0  0  0  0  0  0  0
   42.6380   22.4530   36.0720 N   0  0  0  0  0  0  0  0  0  0  0  0
   42.5780   20.4660   37.5020 C   0  0  0  0  0  0  0  0  0  0  0  0
   43.1840   19.5560   36.5020 C   0  0  0  0  0  0  0  0  0  0  0  0
   38.4670   23.2860   38.4870 C   0  0  0  0  0  0  0  0  0  0  0  0
   38.3660   24.9590   36.6810 C   0  0  0  0  0  0  0  0  0  0  0  0
   37.9288   21.5997   36.4557 H   0  0  0  0  0  0  0  0  0  0  0  0
   36.7071   22.9480   36.4907 H   0  0  0  0  0  0  0  0  0  0  0  0
   38.4420   20.8715   33.9898 H   0  0  0  0  0  0  0  0  0  0  0  0
   35.7282   25.2179   32.5132 H   0  0  0  0  0  0  0  0  0  0  0  0
   36.1204   26.0659   30.9790 H   0  0  0  0  0  0  0  0  0  0  0  0
   35.8444   24.2909   30.9790 H   0  0  0  0  0  0  0  0  0  0  0  0
   39.1592   23.7368   30.7054 H   0  0  0  0  0  0  0  0  0  0  0  0
   37.5515   23.8940   29.9196 H   0  0  0  0  0  0  0  0  0  0  0  0
   38.6908   25.2828   29.9196 H   0  0  0  0  0  0  0  0  0  0  0  0
   38.1974   26.3472   33.3237 H   0  0  0  0  0  0  0  0  0  0  0  0
   39.4307   26.2081   32.0378 H   0  0  0  0  0  0  0  0  0  0  0  0
   38.3176   27.3526   29.4808 H   0  0  0  0  0  0  0  0  0  0  0  0
   36.9022   29.2919   28.9404 H   0  0  0  0  0  0  0  0  0  0  0  0
   35.4521   30.2701   30.8929 H   0  0  0  0  0  0  0  0  0  0  0  0
   40.0835   21.3596   37.9487 H   0  0  0  0  0  0  0  0  0  0  0  0
   42.6412   24.1994   34.8389 H   0  0  0  0  0  0  0  0  0  0  0  0
   43.3631   20.7819   38.2047 H   0  0  0  0  0  0  0  0  0  0  0  0
   41.7709   19.9067   37.9978 H   0  0  0  0  0  0  0  0  0  0  0  0
   43.7219   18.7482   37.0198 H   0  0  0  0  0  0  0  0  0  0  0  0
   42.3924   19.1243   35.8719 H   0  0  0  0  0  0  0  0  0  0  0  0
   43.8875   20.1199   35.8719 H   0  0  0  0  0  0  0  0  0  0  0  0
   39.1035   23.9640   39.0746 H   0  0  0  0  0  0  0  0  0  0  0  0
   37.4104   23.4728   38.7295 H   0  0  0  0  0  0  0  0  0  0  0  0
   38.7201   22.2433   38.7295 H   0  0  0  0  0  0  0  0  0  0  0  0
   38.2339   25.5288   37.6126 H   0  0  0  0  0  0  0  0  0  0  0  0
   39.1858   25.3997   36.0947 H   0  0  0  0  0  0  0  0  0  0  0  0
   37.4359   24.9941   36.0947 H   0  0  0  0  0  0  0  0  0  0  0  0
  1 16  1  0
  2  1  1  0
  3  2  1  0
  4  5  1  0
  4  3  2  0
  5  6  2  0
  6  2  1  0
  7 10  1  0
  7  5  1  0
  8  7  1  0
  9  7  1  0
 11 10  1  0
 11 15  1  0
 12 11  2  0
 13 12  1  0
 13 14  2  0
 14 15  1  0
 16 25  1  0
 17 18  2  0
 17 23  1  0
 19 16  1  0
 19 18  1  0
 20 19  2  0
 21 20  1  0
 21 22  2  0
 22 17  1  0
 24 23  1  0
 26 16  1  0
  1 27  1  0
  1 28  1  0
  3 29  1  0
  8 30  1  0
  8 31  1  0
  8 32  1  0
  9 33  1  0
  9 34  1  0
  9 35  1  0
 10 36  1  0
 10 37  1  0
 12 38  1  0
 13 39  1  0
 14 40  1  0
 18 41  1  0
 21 42  1  0
 23 43  1  0
 23 44  1  0
 24 45  1  0
 24 46  1  0
 24 47  1  0
 25 48  1  0
 25 49  1  0
 25 50  1  0
 26 51  1  0
 26 52  1  0
 26 53  1  0
M  ISO  8  27   8  28   8  29  14  30   8  31   8  32   8  33   8  34   8
M  ISO  8  35   8  36   8  37   8  38  14  39  14  40  14  41  14  42  14
M  ISO  8  43   8  44   8  45   8  46   8  47   8  48   8  49   8  50   8
M  ISO  3  51   8  52   8  53   8
M  END
>  <minimizedAffinity>  (1) 
-5.00554419

>  <minimizedRMSD>  (1) 
0.912646353

$$$$
