
     RDKit          3D

 32 34  0  0  0  0  0  0  0  0999 V2000
   38.9610   26.4750   35.0530 C   0  0  0  0  0  0  0  0  0  0  0  0
   40.0730   26.9760   34.4040 C   0  0  0  0  0  0  0  0  0  0  0  0
   41.2500   26.2730   34.3440 C   0  0  0  0  0  0  0  0  0  0  0  0
   41.3670   25.0280   34.9360 C   0  0  0  0  0  0  0  0  0  0  0  0
   40.2640   24.5190   35.5850 C   0  0  0  0  0  0  0  0  0  0  0  0
   40.3640   23.2710   36.1900 C   0  0  0  0  0  0  0  0  0  0  0  0
   39.2950   22.7170   36.8560 C   0  0  0  0  0  0  0  0  0  0  0  0
   38.1070   23.4160   36.9210 C   0  0  0  0  0  0  0  0  0  0  0  0
   38.0110   24.6610   36.3140 C   0  0  0  0  0  0  0  0  0  0  0  0
   39.0760   25.2380   35.6400 C   0  0  0  0  0  0  0  0  0  0  0  0
   37.7050   27.2150   35.1490 C   0  0  0  0  0  0  0  0  0  0  0  0
   35.8880   28.6510   32.2970 C   0  0  0  0  0  0  0  0  0  0  0  0
   35.6140   27.5680   31.4780 C   0  0  0  0  0  0  0  0  0  0  0  0
   36.0590   26.3040   31.9140 C   0  0  0  0  0  0  0  0  0  0  0  0
   36.7300   26.2020   33.1050 N   0  0  0  0  0  0  0  0  0  0  0  0
   36.9660   27.2780   33.8530 C   0  0  0  0  0  0  0  0  0  0  0  0
   36.5510   28.4900   33.4560 N   0  0  0  0  0  0  0  0  0  0  0  0
   35.8150   25.0830   31.1090 C   0  0  0  0  0  0  0  0  0  0  0  0
   34.7660   25.2300   30.2290 F   0  0  0  0  0  0  0  0  0  0  0  0
   35.4980   24.0530   31.9390 F   0  0  0  0  0  0  0  0  0  0  0  0
   37.0030   24.7440   30.4860 F   0  0  0  0  0  0  0  0  0  0  0  0
   40.0134   27.9635   33.9231 H   0  0  0  0  0  0  0  0  0  0  0  0
   42.1133   26.7058   33.8174 H   0  0  0  0  0  0  0  0  0  0  0  0
   42.3099   24.4633   34.8899 H   0  0  0  0  0  0  0  0  0  0  0  0
   41.3131   22.7177   36.1353 H   0  0  0  0  0  0  0  0  0  0  0  0
   39.3863   21.7290   37.3308 H   0  0  0  0  0  0  0  0  0  0  0  0
   37.2419   22.9897   37.4501 H   0  0  0  0  0  0  0  0  0  0  0  0
   37.0581   25.2077   36.3698 H   0  0  0  0  0  0  0  0  0  0  0  0
   37.0638   26.7225   35.8949 H   0  0  0  0  0  0  0  0  0  0  0  0
   37.9518   28.2472   35.4382 H   0  0  0  0  0  0  0  0  0  0  0  0
   35.5589   29.6563   31.9954 H   0  0  0  0  0  0  0  0  0  0  0  0
   35.0724   27.6894   30.5283 H   0  0  0  0  0  0  0  0  0  0  0  0
  1 11  1  0
  1 10  1  0
  2  1  2  0
  3  2  1  0
  3  4  2  0
  4  5  1  0
  5 10  2  0
  5  6  1  0
  6  7  2  0
  7  8  1  0
  9  8  2  0
 10  9  1  0
 12 17  2  0
 13 14  2  0
 13 12  1  0
 14 15  1  0
 15 16  2  0
 16 11  1  0
 17 16  1  0
 18 14  1  0
 18 20  1  0
 19 18  1  0
 21 18  1  0
  2 22  1  0
  3 23  1  0
  4 24  1  0
  6 25  1  0
  7 26  1  0
  8 27  1  0
  9 28  1  0
 11 29  1  0
 11 30  1  0
 12 31  1  0
 13 32  1  0
M  ISO  8  22  14  23  14  24  14  25  14  26  14  27  14  28  14  29   8
M  ISO  3  30   8  31  14  32  14
M  END
>  <minimizedAffinity>  (1) 
-5.68311453

>  <minimizedRMSD>  (1) 
0.588445365

$$$$
