
     RDKit          3D

 35 38  0  0  0  0  0  0  0  0999 V2000
   38.3880   25.7200   34.0860 C   0  0  0  0  0  0  0  0  0  0  0  0
   39.2740   24.6880   34.6310 C   0  0  0  0  0  0  0  0  0  0  0  0
   40.3130   24.1480   33.8960 C   0  0  0  0  0  0  0  0  0  0  0  0
   41.1390   23.2000   34.4370 C   0  0  0  0  0  0  0  0  0  0  0  0
   40.9660   22.7480   35.7410 C   0  0  0  0  0  0  0  0  0  0  0  0
   39.9270   23.2860   36.4780 C   0  0  0  0  0  0  0  0  0  0  0  0
   39.7410   22.8530   37.7770 C   0  0  0  0  0  0  0  0  0  0  0  0
   38.7220   23.3590   38.5600 C   0  0  0  0  0  0  0  0  0  0  0  0
   37.8780   24.3180   38.0220 C   0  0  0  0  0  0  0  0  0  0  0  0
   38.0870   24.7350   36.7150 C   0  0  0  0  0  0  0  0  0  0  0  0
   39.1020   24.2460   35.9080 C   0  0  0  0  0  0  0  0  0  0  0  0
   35.9770   25.7170   31.3260 C   0  0  0  0  0  0  0  0  0  0  0  0
   35.6950   24.3780   31.1060 C   0  0  0  0  0  0  0  0  0  0  0  0
   36.3470   23.4510   31.9360 C   0  0  0  0  0  0  0  0  0  0  0  0
   37.2030   23.9070   32.8920 N   0  0  0  0  0  0  0  0  0  0  0  0
   37.4410   25.2060   33.0620 C   0  0  0  0  0  0  0  0  0  0  0  0
   36.8330   26.1140   32.2860 N   0  0  0  0  0  0  0  0  0  0  0  0
   36.0870   22.0330   31.7480 C   0  0  0  0  0  0  0  0  0  0  0  0
   35.1890   21.3610   32.6190 C   0  0  0  0  0  0  0  0  0  0  0  0
   35.1560   19.5900   32.0240 S   0  0  0  0  0  0  0  0  0  0  0  0
   36.3910   20.0940   30.6760 C   0  0  0  0  0  0  0  0  0  0  0  0
   36.5570   21.1880   30.8630 N   0  0  0  0  0  0  0  0  0  0  0  0
   37.8059   26.1519   34.9134 H   0  0  0  0  0  0  0  0  0  0  0  0
   39.0262   26.4671   33.5914 H   0  0  0  0  0  0  0  0  0  0  0  0
   40.4782   24.4849   32.8620 H   0  0  0  0  0  0  0  0  0  0  0  0
   41.9566   22.7871   33.8278 H   0  0  0  0  0  0  0  0  0  0  0  0
   41.6338   21.9875   36.1719 H   0  0  0  0  0  0  0  0  0  0  0  0
   40.4164   22.0919   38.1948 H   0  0  0  0  0  0  0  0  0  0  0  0
   38.5826   23.0070   39.5928 H   0  0  0  0  0  0  0  0  0  0  0  0
   37.0574   24.7408   38.6202 H   0  0  0  0  0  0  0  0  0  0  0  0
   37.4104   25.4948   36.2969 H   0  0  0  0  0  0  0  0  0  0  0  0
   35.4876   26.4765   30.6986 H   0  0  0  0  0  0  0  0  0  0  0  0
   34.9952   24.0570   30.3203 H   0  0  0  0  0  0  0  0  0  0  0  0
   34.6315   21.7914   33.4640 H   0  0  0  0  0  0  0  0  0  0  0  0
   36.8392   19.4626   29.8947 H   0  0  0  0  0  0  0  0  0  0  0  0
  1  2  1  0
  2 11  2  0
  3  4  2  0
  3  2  1  0
  4  5  1  0
  5  6  2  0
  6  7  1  0
  7  8  2  0
  9  8  1  0
 10  9  2  0
 11  6  1  0
 11 10  1  0
 12 17  2  0
 13 12  1  0
 13 14  2  0
 14 15  1  0
 15 16  2  0
 16  1  1  0
 17 16  1  0
 18 14  1  0
 18 19  2  0
 20 19  1  0
 21 22  2  0
 21 20  1  0
 22 18  1  0
  1 23  1  0
  1 24  1  0
  3 25  1  0
  4 26  1  0
  5 27  1  0
  7 28  1  0
  8 29  1  0
  9 30  1  0
 10 31  1  0
 12 32  1  0
 13 33  1  0
 19 34  1  0
 21 35  1  0
M  ISO  8  23   8  24   8  25  14  26  14  27  14  28  14  29  14  30  14
M  ISO  5  31  14  32  14  33  14  34  14  35  14
M  END
>  <minimizedAffinity>  (1) 
-5.93161297

>  <minimizedRMSD>  (1) 
3.15598702

$$$$
