
     RDKit          3D

 38 40  0  0  0  0  0  0  0  0999 V2000
   38.9410   26.6370   35.2930 C   0  0  0  0  0  0  0  0  0  0  0  0
   40.0690   27.0700   34.6200 C   0  0  0  0  0  0  0  0  0  0  0  0
   41.1500   26.2510   34.4130 C   0  0  0  0  0  0  0  0  0  0  0  0
   41.1490   24.9420   34.8780 C   0  0  0  0  0  0  0  0  0  0  0  0
   40.0180   24.5010   35.5540 C   0  0  0  0  0  0  0  0  0  0  0  0
   40.0100   23.1910   36.0250 C   0  0  0  0  0  0  0  0  0  0  0  0
   38.9130   22.7040   36.7060 C   0  0  0  0  0  0  0  0  0  0  0  0
   37.8340   23.5190   36.9130 C   0  0  0  0  0  0  0  0  0  0  0  0
   37.8640   24.8160   36.4360 C   0  0  0  0  0  0  0  0  0  0  0  0
   38.9450   25.3430   35.7490 C   0  0  0  0  0  0  0  0  0  0  0  0
   37.7880   27.5010   35.5390 C   0  0  0  0  0  0  0  0  0  0  0  0
   35.4000   29.0770   33.2460 C   0  0  0  0  0  0  0  0  0  0  0  0
   35.3680   28.2450   32.1390 C   0  0  0  0  0  0  0  0  0  0  0  0
   36.1850   27.1000   32.1810 C   0  0  0  0  0  0  0  0  0  0  0  0
   36.9550   26.8660   33.2800 N   0  0  0  0  0  0  0  0  0  0  0  0
   36.9460   27.7090   34.3230 C   0  0  0  0  0  0  0  0  0  0  0  0
   36.1780   28.8030   34.3080 N   0  0  0  0  0  0  0  0  0  0  0  0
   36.1870   26.1800   31.0250 C   0  0  0  0  0  0  0  0  0  0  0  0
   34.9360   25.3330   30.9360 C   0  0  0  0  0  0  0  0  0  0  0  0
   37.4040   25.2800   31.1070 C   0  0  0  0  0  0  0  0  0  0  0  0
   40.1003   28.1016   34.2394 H   0  0  0  0  0  0  0  0  0  0  0  0
   42.0276   26.6353   33.8726 H   0  0  0  0  0  0  0  0  0  0  0  0
   42.0118   24.2790   34.7170 H   0  0  0  0  0  0  0  0  0  0  0  0
   40.8813   22.5417   35.8537 H   0  0  0  0  0  0  0  0  0  0  0  0
   38.9063   21.6693   37.0792 H   0  0  0  0  0  0  0  0  0  0  0  0
   36.9515   23.1460   37.4535 H   0  0  0  0  0  0  0  0  0  0  0  0
   36.9889   25.4593   36.6101 H   0  0  0  0  0  0  0  0  0  0  0  0
   37.1663   27.0419   36.3218 H   0  0  0  0  0  0  0  0  0  0  0  0
   38.1729   28.4848   35.8455 H   0  0  0  0  0  0  0  0  0  0  0  0
   34.7750   29.9821   33.2566 H   0  0  0  0  0  0  0  0  0  0  0  0
   34.7340   28.4687   31.2684 H   0  0  0  0  0  0  0  0  0  0  0  0
   36.2163   26.7998   30.1167 H   0  0  0  0  0  0  0  0  0  0  0  0
   34.5824   25.0936   31.9497 H   0  0  0  0  0  0  0  0  0  0  0  0
   34.1546   25.8886   30.3968 H   0  0  0  0  0  0  0  0  0  0  0  0
   35.1617   24.4012   30.3968 H   0  0  0  0  0  0  0  0  0  0  0  0
   37.6533   25.0957   32.1624 H   0  0  0  0  0  0  0  0  0  0  0  0
   37.1869   24.3235   30.6090 H   0  0  0  0  0  0  0  0  0  0  0  0
   38.2550   25.7678   30.6090 H   0  0  0  0  0  0  0  0  0  0  0  0
  1 11  1  0
  1 10  1  0
  2  1  2  0
  3  2  1  0
  3  4  2  0
  4  5  1  0
  5 10  2  0
  5  6  1  0
  6  7  2  0
  7  8  1  0
  9  8  2  0
 10  9  1  0
 12 17  2  0
 13 14  2  0
 13 12  1  0
 14 15  1  0
 15 16  2  0
 16 11  1  0
 17 16  1  0
 18 20  1  0
 18 14  1  0
 19 18  1  0
  2 21  1  0
  3 22  1  0
  4 23  1  0
  6 24  1  0
  7 25  1  0
  8 26  1  0
  9 27  1  0
 11 28  1  0
 11 29  1  0
 12 30  1  0
 13 31  1  0
 18 32  1  0
 19 33  1  0
 19 34  1  0
 19 35  1  0
 20 36  1  0
 20 37  1  0
 20 38  1  0
M  ISO  8  21  14  22  14  23  14  24  14  25  14  26  14  27  14  28   8
M  ISO  8  29   8  30  14  31  14  32   8  33   8  34   8  35   8  36   8
M  ISO  2  37   8  38   8
M  END
>  <minimizedAffinity>  (1) 
-5.66675854

>  <minimizedRMSD>  (1) 
0.622305989

$$$$
