
     RDKit          3D

 41 43  0  0  0  0  0  0  0  0999 V2000
   39.1000   26.5970   35.4370 C   0  0  0  0  0  0  0  0  0  0  0  0
   40.2480   26.9970   34.7790 C   0  0  0  0  0  0  0  0  0  0  0  0
   41.2390   26.1110   34.4580 C   0  0  0  0  0  0  0  0  0  0  0  0
   41.1320   24.7570   34.7830 C   0  0  0  0  0  0  0  0  0  0  0  0
   39.9780   24.3610   35.4430 C   0  0  0  0  0  0  0  0  0  0  0  0
   39.8520   23.0150   35.7820 C   0  0  0  0  0  0  0  0  0  0  0  0
   38.7270   22.5590   36.4420 C   0  0  0  0  0  0  0  0  0  0  0  0
   37.7350   23.4420   36.7630 C   0  0  0  0  0  0  0  0  0  0  0  0
   37.8700   24.7850   36.4210 C   0  0  0  0  0  0  0  0  0  0  0  0
   38.9870   25.2720   35.7590 C   0  0  0  0  0  0  0  0  0  0  0  0
   38.0370   27.5330   35.8040 C   0  0  0  0  0  0  0  0  0  0  0  0
   35.4120   29.2510   33.8960 C   0  0  0  0  0  0  0  0  0  0  0  0
   35.4360   28.6290   32.6560 C   0  0  0  0  0  0  0  0  0  0  0  0
   36.3630   27.5780   32.4470 C   0  0  0  0  0  0  0  0  0  0  0  0
   37.1910   27.2320   33.4830 N   0  0  0  0  0  0  0  0  0  0  0  0
   37.1300   27.8640   34.6600 C   0  0  0  0  0  0  0  0  0  0  0  0
   36.2520   28.8620   34.8720 N   0  0  0  0  0  0  0  0  0  0  0  0
   36.5440   26.8030   31.2260 C   0  0  0  0  0  0  0  0  0  0  0  0
   35.3820   25.8950   30.9230 C   0  0  0  0  0  0  0  0  0  0  0  0
   37.8200   25.9980   31.3280 C   0  0  0  0  0  0  0  0  0  0  0  0
   36.7360   27.7940   30.0880 C   0  0  0  0  0  0  0  0  0  0  0  0
   40.3675   28.0560   34.5064 H   0  0  0  0  0  0  0  0  0  0  0  0
   42.1367   26.4713   33.9343 H   0  0  0  0  0  0  0  0  0  0  0  0
   41.9251   24.0388   34.5278 H   0  0  0  0  0  0  0  0  0  0  0  0
   40.6550   22.3097   35.5219 H   0  0  0  0  0  0  0  0  0  0  0  0
   38.6310   21.4956   36.7064 H   0  0  0  0  0  0  0  0  0  0  0  0
   36.8340   23.0936   37.2891 H   0  0  0  0  0  0  0  0  0  0  0  0
   37.0626   25.4839   36.6851 H   0  0  0  0  0  0  0  0  0  0  0  0
   37.4367   27.0839   36.6090 H   0  0  0  0  0  0  0  0  0  0  0  0
   38.5181   28.4688   36.1246 H   0  0  0  0  0  0  0  0  0  0  0  0
   34.7004   30.0688   34.0825 H   0  0  0  0  0  0  0  0  0  0  0  0
   34.7518   28.9442   31.8544 H   0  0  0  0  0  0  0  0  0  0  0  0
   34.9345   25.5453   31.8651 H   0  0  0  0  0  0  0  0  0  0  0  0
   34.6282   26.4458   30.3413 H   0  0  0  0  0  0  0  0  0  0  0  0
   35.7342   25.0304   30.3413 H   0  0  0  0  0  0  0  0  0  0  0  0
   38.0702   25.8401   32.3875 H   0  0  0  0  0  0  0  0  0  0  0  0
   37.6798   25.0245   30.8354 H   0  0  0  0  0  0  0  0  0  0  0  0
   38.6382   26.5438   30.8354 H   0  0  0  0  0  0  0  0  0  0  0  0
   36.9299   28.7946   30.5019 H   0  0  0  0  0  0  0  0  0  0  0  0
   37.5902   27.4812   29.4696 H   0  0  0  0  0  0  0  0  0  0  0  0
   35.8267   27.8229   29.4696 H   0  0  0  0  0  0  0  0  0  0  0  0
  1 10  1  0
  1 11  1  0
  2  1  2  0
  3  2  1  0
  3  4  2  0
  4  5  1  0
  5 10  2  0
  5  6  1  0
  6  7  2  0
  7  8  1  0
  9  8  2  0
 10  9  1  0
 12 17  2  0
 13 12  1  0
 14 13  2  0
 14 15  1  0
 15 16  2  0
 16 17  1  0
 16 11  1  0
 18 20  1  0
 18 14  1  0
 19 18  1  0
 21 18  1  0
  2 22  1  0
  3 23  1  0
  4 24  1  0
  6 25  1  0
  7 26  1  0
  8 27  1  0
  9 28  1  0
 11 29  1  0
 11 30  1  0
 12 31  1  0
 13 32  1  0
 19 33  1  0
 19 34  1  0
 19 35  1  0
 20 36  1  0
 20 37  1  0
 20 38  1  0
 21 39  1  0
 21 40  1  0
 21 41  1  0
M  ISO  8  22  14  23  14  24  14  25  14  26  14  27  14  28  14  29   8
M  ISO  8  30   8  31  14  32  14  33   8  34   8  35   8  36   8  37   8
M  ISO  4  38   8  39   8  40   8  41   8
M  END
>  <minimizedAffinity>  (1) 
-5.52666664

>  <minimizedRMSD>  (1) 
0.742277205

$$$$
