
     RDKit          3D

 31 33  0  0  0  0  0  0  0  0999 V2000
   38.9080   26.4590   35.1710 C   0  0  0  0  0  0  0  0  0  0  0  0
   39.9930   27.0900   34.5900 C   0  0  0  0  0  0  0  0  0  0  0  0
   41.1840   26.4410   34.4260 C   0  0  0  0  0  0  0  0  0  0  0  0
   41.3500   25.1270   34.8370 C   0  0  0  0  0  0  0  0  0  0  0  0
   40.2700   24.4920   35.4180 C   0  0  0  0  0  0  0  0  0  0  0  0
   40.4230   23.1780   35.8370 C   0  0  0  0  0  0  0  0  0  0  0  0
   39.3750   22.4940   36.4300 C   0  0  0  0  0  0  0  0  0  0  0  0
   38.1620   23.1430   36.5980 C   0  0  0  0  0  0  0  0  0  0  0  0
   38.0420   24.4520   36.1700 C   0  0  0  0  0  0  0  0  0  0  0  0
   39.0680   25.1690   35.5750 C   0  0  0  0  0  0  0  0  0  0  0  0
   37.6320   27.1390   35.3800 C   0  0  0  0  0  0  0  0  0  0  0  0
   35.6030   28.9940   32.9510 C   0  0  0  0  0  0  0  0  0  0  0  0
   35.5660   28.1760   31.8330 C   0  0  0  0  0  0  0  0  0  0  0  0
   36.2560   26.9440   31.9060 C   0  0  0  0  0  0  0  0  0  0  0  0
   36.9170   26.6150   33.0550 N   0  0  0  0  0  0  0  0  0  0  0  0
   36.9160   27.4490   34.1070 C   0  0  0  0  0  0  0  0  0  0  0  0
   36.2680   28.6270   34.0600 N   0  0  0  0  0  0  0  0  0  0  0  0
   36.2620   26.0590   30.8000 N   0  0  0  0  0  0  0  0  0  0  0  0
   39.8953   28.1329   34.2540 H   0  0  0  0  0  0  0  0  0  0  0  0
   42.0273   26.9709   33.9590 H   0  0  0  0  0  0  0  0  0  0  0  0
   42.3105   24.6075   34.7046 H   0  0  0  0  0  0  0  0  0  0  0  0
   41.3899   22.6728   35.6962 H   0  0  0  0  0  0  0  0  0  0  0  0
   39.5031   21.4532   36.7621 H   0  0  0  0  0  0  0  0  0  0  0  0
   37.3101   22.6258   37.0635 H   0  0  0  0  0  0  0  0  0  0  0  0
   37.0738   24.9549   36.3101 H   0  0  0  0  0  0  0  0  0  0  0  0
   36.9881   26.4931   35.9950 H   0  0  0  0  0  0  0  0  0  0  0  0
   37.8491   28.0971   35.8749 H   0  0  0  0  0  0  0  0  0  0  0  0
   35.0788   29.9609   32.9305 H   0  0  0  0  0  0  0  0  0  0  0  0
   35.0214   28.4734   30.9247 H   0  0  0  0  0  0  0  0  0  0  0  0
   36.7667   25.1631   30.8600 H   0  0  0  0  0  0  0  0  0  0  0  0
   35.7617   26.3114   29.9358 H   0  0  0  0  0  0  0  0  0  0  0  0
  1 11  1  0
  1 10  1  0
  2  1  2  0
  3  2  1  0
  3  4  2  0
  4  5  1  0
  5 10  2  0
  5  6  1  0
  6  7  2  0
  7  8  1  0
  9  8  2  0
 10  9  1  0
 12 17  2  0
 13 14  2  0
 13 12  1  0
 14 15  1  0
 15 16  2  0
 16 11  1  0
 17 16  1  0
 18 14  1  0
  2 19  1  0
  3 20  1  0
  4 21  1  0
  6 22  1  0
  7 23  1  0
  8 24  1  0
  9 25  1  0
 11 26  1  0
 11 27  1  0
 12 28  1  0
 13 29  1  0
 18 30  1  0
 18 31  1  0
M  ISO  8  19  14  20  14  21  14  22  14  23  14  24  14  25  14  26   8
M  ISO  3  27   8  28  14  29  14
M  END
>  <minimizedAffinity>  (1) 
-5.26941681

>  <minimizedRMSD>  (1) 
0.127187401

$$$$
