
     RDKit          3D

 60 62  0  0  0  0  0  0  0  0999 V2000
   37.7210   22.6600   36.1050 C   0  0  0  0  0  0  0  0  0  0  0  0
   37.9350   22.7520   34.6900 N   0  0  0  0  0  0  0  0  0  0  0  0
   38.3680   21.8160   33.8030 C   0  0  0  0  0  0  0  0  0  0  0  0
   38.4210   22.3580   32.5610 N   0  0  0  0  0  0  0  0  0  0  0  0
   38.0160   23.6460   32.6780 C   0  0  0  0  0  0  0  0  0  0  0  0
   37.7330   23.8530   33.9510 N   0  0  0  0  0  0  0  0  0  0  0  0
   37.9350   24.6180   31.5460 C   0  0  0  0  0  0  0  0  0  0  0  0
   36.4480   24.6980   31.1370 C   0  0  0  0  0  0  0  0  0  0  0  0
   38.6540   24.0700   30.3200 C   0  0  0  0  0  0  0  0  0  0  0  0
   38.3660   25.9770   31.9150 C   0  0  0  0  0  0  0  0  0  0  0  0
   39.6870   26.3600   31.8790 N   0  0  0  0  0  0  0  0  0  0  0  0
   40.5440   25.8490   32.9180 C   0  0  0  0  0  0  0  0  0  0  0  0
   40.9570   27.1240   33.6880 C   0  0  0  0  0  0  0  0  0  0  0  0
   41.8270   27.9160   32.8430 N   0  0  0  0  0  0  0  0  0  0  0  0
   41.6960   27.5490   31.4410 C   0  0  0  0  0  0  0  0  0  0  0  0
   40.1920   27.4110   31.1250 C   0  0  0  0  0  0  0  0  0  0  0  0
   38.6690   23.5570   36.8900 C   0  0  0  0  0  0  0  0  0  0  0  0
   41.9100   21.6870   36.9250 C   0  0  0  0  0  0  0  0  0  0  0  0
   40.5890   22.0110   37.2110 C   0  0  0  0  0  0  0  0  0  0  0  0
   40.0420   23.1640   36.6270 C   0  0  0  0  0  0  0  0  0  0  0  0
   40.8020   23.9130   35.8180 N   0  0  0  0  0  0  0  0  0  0  0  0
   42.0840   23.5830   35.5510 C   0  0  0  0  0  0  0  0  0  0  0  0
   42.6400   22.4670   36.1050 N   0  0  0  0  0  0  0  0  0  0  0  0
   42.5010   20.4790   37.5440 C   0  0  0  0  0  0  0  0  0  0  0  0
   43.2200   19.6040   36.5700 C   0  0  0  0  0  0  0  0  0  0  0  0
   38.3770   23.3500   38.3630 C   0  0  0  0  0  0  0  0  0  0  0  0
   38.3630   24.9960   36.5050 C   0  0  0  0  0  0  0  0  0  0  0  0
   37.8775   21.6177   36.4199 H   0  0  0  0  0  0  0  0  0  0  0  0
   36.6929   22.9912   36.3132 H   0  0  0  0  0  0  0  0  0  0  0  0
   38.6343   20.7788   34.0545 H   0  0  0  0  0  0  0  0  0  0  0  0
   35.8207   24.7318   32.0399 H   0  0  0  0  0  0  0  0  0  0  0  0
   36.2803   25.6065   30.5399 H   0  0  0  0  0  0  0  0  0  0  0  0
   36.1838   23.8128   30.5399 H   0  0  0  0  0  0  0  0  0  0  0  0
   39.4909   23.4321   30.6404 H   0  0  0  0  0  0  0  0  0  0  0  0
   37.9507   23.4768   29.7171 H   0  0  0  0  0  0  0  0  0  0  0  0
   39.0396   24.9054   29.7171 H   0  0  0  0  0  0  0  0  0  0  0  0
   37.8286   26.6629   31.2436 H   0  0  0  0  0  0  0  0  0  0  0  0
   38.1486   26.0024   32.9930 H   0  0  0  0  0  0  0  0  0  0  0  0
   39.9998   25.1514   33.5717 H   0  0  0  0  0  0  0  0  0  0  0  0
   41.4020   25.2799   32.5308 H   0  0  0  0  0  0  0  0  0  0  0  0
   40.0607   27.7071   33.9461 H   0  0  0  0  0  0  0  0  0  0  0  0
   41.4833   26.8485   34.6138 H   0  0  0  0  0  0  0  0  0  0  0  0
   41.5828   28.9107   32.9518 H   0  0  0  0  0  0  0  0  0  0  0  0
   42.1409   28.3302   30.8071 H   0  0  0  0  0  0  0  0  0  0  0  0
   42.2176   26.6010   31.2429 H   0  0  0  0  0  0  0  0  0  0  0  0
   39.6691   28.3426   31.3869 H   0  0  0  0  0  0  0  0  0  0  0  0
   40.0445   27.2157   30.0526 H   0  0  0  0  0  0  0  0  0  0  0  0
   39.9864   21.3785   37.8794 H   0  0  0  0  0  0  0  0  0  0  0  0
   42.6839   24.2181   34.8825 H   0  0  0  0  0  0  0  0  0  0  0  0
   43.2140   20.7976   38.3187 H   0  0  0  0  0  0  0  0  0  0  0  0
   41.6713   19.8884   37.9597 H   0  0  0  0  0  0  0  0  0  0  0  0
   43.8258   18.8667   37.1172 H   0  0  0  0  0  0  0  0  0  0  0  0
   42.4879   19.0802   35.9378 H   0  0  0  0  0  0  0  0  0  0  0  0
   43.8758   20.2207   35.9378 H   0  0  0  0  0  0  0  0  0  0  0  0
   39.1285   23.8827   38.9642 H   0  0  0  0  0  0  0  0  0  0  0  0
   37.3759   23.7412   38.5969 H   0  0  0  0  0  0  0  0  0  0  0  0
   38.4147   22.2758   38.5969 H   0  0  0  0  0  0  0  0  0  0  0  0
   38.2346   25.5998   37.4155 H   0  0  0  0  0  0  0  0  0  0  0  0
   39.1950   25.4014   35.9105 H   0  0  0  0  0  0  0  0  0  0  0  0
   37.4380   25.0277   35.9105 H   0  0  0  0  0  0  0  0  0  0  0  0
  1 17  1  0
  2  1  1  0
  3  2  1  0
  4  5  1  0
  4  3  2  0
  5  6  2  0
  6  2  1  0
  7 10  1  0
  7  5  1  0
  8  7  1  0
  9  7  1  0
 11 10  1  0
 11 12  1  0
 12 13  1  0
 14 13  1  0
 15 14  1  0
 16 15  1  0
 16 11  1  0
 17 26  1  0
 18 19  2  0
 18 24  1  0
 20 17  1  0
 20 19  1  0
 21 20  2  0
 22 21  1  0
 22 23  2  0
 23 18  1  0
 25 24  1  0
 27 17  1  0
  1 28  1  0
  1 29  1  0
  3 30  1  0
  8 31  1  0
  8 32  1  0
  8 33  1  0
  9 34  1  0
  9 35  1  0
  9 36  1  0
 10 37  1  0
 10 38  1  0
 12 39  1  0
 12 40  1  0
 13 41  1  0
 13 42  1  0
 14 43  1  0
 15 44  1  0
 15 45  1  0
 16 46  1  0
 16 47  1  0
 19 48  1  0
 22 49  1  0
 24 50  1  0
 24 51  1  0
 25 52  1  0
 25 53  1  0
 25 54  1  0
 26 55  1  0
 26 56  1  0
 26 57  1  0
 27 58  1  0
 27 59  1  0
 27 60  1  0
M  ISO  8  28   8  29   8  30  14  31   8  32   8  33   8  34   8  35   8
M  ISO  8  36   8  37   8  38   8  39  13  40  13  41  13  42  13  43   5
M  ISO  8  44  13  45  13  46  13  47  13  48  14  49  14  50   8  51   8
M  ISO  8  52   8  53   8  54   8  55   8  56   8  57   8  58   8  59   8
M  ISO  1  60   8
M  END
>  <minimizedAffinity>  (1) 
-4.8776412

>  <minimizedRMSD>  (1) 
0.562655032

$$$$
