
     RDKit          3D

 44 47  0  0  0  0  0  0  0  0999 V2000
   37.8520   27.3790   35.1360 C   0  0  0  0  0  0  0  0  0  0  0  0
   39.0320   26.5190   35.1040 C   0  0  0  0  0  0  0  0  0  0  0  0
   40.2060   26.9540   34.4910 C   0  0  0  0  0  0  0  0  0  0  0  0
   41.3230   26.1630   34.4640 C   0  0  0  0  0  0  0  0  0  0  0  0
   41.3220   24.8980   35.0490 C   0  0  0  0  0  0  0  0  0  0  0  0
   40.1480   24.4630   35.6610 C   0  0  0  0  0  0  0  0  0  0  0  0
   40.1270   23.2100   36.2470 C   0  0  0  0  0  0  0  0  0  0  0  0
   38.9980   22.7350   36.8600 C   0  0  0  0  0  0  0  0  0  0  0  0
   37.8530   23.5360   36.8910 C   0  0  0  0  0  0  0  0  0  0  0  0
   37.9140   24.7890   36.2920 C   0  0  0  0  0  0  0  0  0  0  0  0
   39.0330   25.2940   35.6690 C   0  0  0  0  0  0  0  0  0  0  0  0
   35.8320   28.5970   32.3410 C   0  0  0  0  0  0  0  0  0  0  0  0
   35.6000   27.4780   31.5580 C   0  0  0  0  0  0  0  0  0  0  0  0
   36.1510   26.2610   32.0010 C   0  0  0  0  0  0  0  0  0  0  0  0
   36.8770   26.2440   33.1640 N   0  0  0  0  0  0  0  0  0  0  0  0
   37.0630   27.3460   33.8660 C   0  0  0  0  0  0  0  0  0  0  0  0
   36.5470   28.5220   33.4660 N   0  0  0  0  0  0  0  0  0  0  0  0
   35.9500   25.0470   31.2310 C   0  0  0  0  0  0  0  0  0  0  0  0
   34.7860   24.7480   30.8580 O   0  0  0  0  0  0  0  0  0  0  0  0
   37.1010   24.1590   30.8810 C   0  0  0  0  0  0  0  0  0  0  0  0
   38.1030   24.1840   32.0180 C   0  0  0  0  0  0  0  0  0  0  0  0
   37.7700   23.0480   32.9360 C   0  0  0  0  0  0  0  0  0  0  0  0
   36.5020   22.4240   32.4230 C   0  0  0  0  0  0  0  0  0  0  0  0
   36.5770   22.7350   30.9370 C   0  0  0  0  0  0  0  0  0  0  0  0
   37.2018   27.0496   35.9599 H   0  0  0  0  0  0  0  0  0  0  0  0
   38.2045   28.4118   35.2745 H   0  0  0  0  0  0  0  0  0  0  0  0
   40.2353   27.9484   34.0216 H   0  0  0  0  0  0  0  0  0  0  0  0
   42.2356   26.5316   33.9729 H   0  0  0  0  0  0  0  0  0  0  0  0
   42.2198   24.2628   35.0283 H   0  0  0  0  0  0  0  0  0  0  0  0
   41.0318   22.5850   36.2202 H   0  0  0  0  0  0  0  0  0  0  0  0
   38.9925   21.7366   37.3217 H   0  0  0  0  0  0  0  0  0  0  0  0
   36.9300   23.1849   37.3755 H   0  0  0  0  0  0  0  0  0  0  0  0
   37.0110   25.4167   36.3174 H   0  0  0  0  0  0  0  0  0  0  0  0
   35.4185   29.5675   32.0294 H   0  0  0  0  0  0  0  0  0  0  0  0
   35.0111   27.5380   30.6309 H   0  0  0  0  0  0  0  0  0  0  0  0
   37.5297   24.4684   29.9164 H   0  0  0  0  0  0  0  0  0  0  0  0
   39.1224   24.0615   31.6232 H   0  0  0  0  0  0  0  0  0  0  0  0
   38.0561   25.1429   32.5550 H   0  0  0  0  0  0  0  0  0  0  0  0
   38.5838   22.3079   32.9314 H   0  0  0  0  0  0  0  0  0  0  0  0
   37.6420   23.4033   33.9691 H   0  0  0  0  0  0  0  0  0  0  0  0
   36.4884   21.3391   32.6043 H   0  0  0  0  0  0  0  0  0  0  0  0
   35.5917   22.8031   32.9106 H   0  0  0  0  0  0  0  0  0  0  0  0
   35.5818   22.6669   30.4734 H   0  0  0  0  0  0  0  0  0  0  0  0
   37.2183   22.0280   30.3902 H   0  0  0  0  0  0  0  0  0  0  0  0
  2  1  1  0
  2 11  1  0
  3  2  2  0
  4  3  1  0
  4  5  2  0
  5  6  1  0
  6 11  2  0
  6  7  1  0
  7  8  2  0
  8  9  1  0
 10  9  2  0
 11 10  1  0
 12 17  2  0
 13 14  2  0
 13 12  1  0
 14 15  1  0
 15 16  2  0
 16  1  1  0
 17 16  1  0
 18 14  1  0
 19 18  2  0
 20 24  1  0
 20 18  1  0
 20 21  1  0
 21 22  1  0
 23 22  1  0
 24 23  1  0
  1 25  1  0
  1 26  1  0
  3 27  1  0
  4 28  1  0
  5 29  1  0
  7 30  1  0
  8 31  1  0
  9 32  1  0
 10 33  1  0
 12 34  1  0
 13 35  1  0
 20 36  1  0
 21 37  1  0
 21 38  1  0
 22 39  1  0
 22 40  1  0
 23 41  1  0
 23 42  1  0
 24 43  1  0
 24 44  1  0
M  ISO  8  25   8  26   8  27  14  28  14  29  14  30  14  31  14  32  14
M  ISO  8  33  14  34  14  35  14  36  13  37  13  38  13  39  13  40  13
M  ISO  4  41  13  42  13  43  13  44  13
M  END
>  <minimizedAffinity>  (1) 
-5.84663439

>  <minimizedRMSD>  (1) 
1.9967773

$$$$
