
     RDKit          3D

 38 41  0  0  0  0  0  0  0  0999 V2000
   37.7040   27.2080   35.1170 C   0  0  0  0  0  0  0  0  0  0  0  0
   38.9490   26.4550   35.0580 C   0  0  0  0  0  0  0  0  0  0  0  0
   40.0620   26.9800   34.4050 C   0  0  0  0  0  0  0  0  0  0  0  0
   41.2410   26.2880   34.3500 C   0  0  0  0  0  0  0  0  0  0  0  0
   41.3680   25.0330   34.9470 C   0  0  0  0  0  0  0  0  0  0  0  0
   40.2610   24.5030   35.6020 C   0  0  0  0  0  0  0  0  0  0  0  0
   40.3630   23.2650   36.1980 C   0  0  0  0  0  0  0  0  0  0  0  0
   39.2980   22.7030   36.8530 C   0  0  0  0  0  0  0  0  0  0  0  0
   38.0890   23.4020   36.9140 C   0  0  0  0  0  0  0  0  0  0  0  0
   38.0230   24.6490   36.3000 C   0  0  0  0  0  0  0  0  0  0  0  0
   39.0730   25.2400   35.6360 C   0  0  0  0  0  0  0  0  0  0  0  0
   36.1490   28.7640   32.1890 C   0  0  0  0  0  0  0  0  0  0  0  0
   35.7710   27.6990   31.3870 C   0  0  0  0  0  0  0  0  0  0  0  0
   36.0500   26.4010   31.8550 C   0  0  0  0  0  0  0  0  0  0  0  0
   36.6740   26.2610   33.0640 N   0  0  0  0  0  0  0  0  0  0  0  0
   37.0130   27.3140   33.7890 C   0  0  0  0  0  0  0  0  0  0  0  0
   36.7550   28.5630   33.3600 N   0  0  0  0  0  0  0  0  0  0  0  0
   35.6830   25.2410   31.0680 C   0  0  0  0  0  0  0  0  0  0  0  0
   34.5560   25.2270   30.5010 O   0  0  0  0  0  0  0  0  0  0  0  0
   36.5890   24.1040   30.9250 C   0  0  0  0  0  0  0  0  0  0  0  0
   36.3180   22.8120   31.3230 C   0  0  0  0  0  0  0  0  0  0  0  0
   37.4300   22.0450   31.0100 C   0  0  0  0  0  0  0  0  0  0  0  0
   38.3340   22.9400   30.4260 C   0  0  0  0  0  0  0  0  0  0  0  0
   37.7850   24.1370   30.4020 O   0  0  0  0  0  0  0  0  0  0  0  0
   37.0263   26.7080   35.8247 H   0  0  0  0  0  0  0  0  0  0  0  0
   37.9553   28.2300   35.4370 H   0  0  0  0  0  0  0  0  0  0  0  0
   39.9917   27.9675   33.9255 H   0  0  0  0  0  0  0  0  0  0  0  0
   42.1028   26.7280   33.8267 H   0  0  0  0  0  0  0  0  0  0  0  0
   42.3168   24.4784   34.9009 H   0  0  0  0  0  0  0  0  0  0  0  0
   41.3159   22.7179   36.1473 H   0  0  0  0  0  0  0  0  0  0  0  0
   39.3936   21.7140   37.3249 H   0  0  0  0  0  0  0  0  0  0  0  0
   37.2157   22.9789   37.4320 H   0  0  0  0  0  0  0  0  0  0  0  0
   37.0706   25.1972   36.3486 H   0  0  0  0  0  0  0  0  0  0  0  0
   35.9459   29.7920   31.8544 H   0  0  0  0  0  0  0  0  0  0  0  0
   35.2715   27.8618   30.4206 H   0  0  0  0  0  0  0  0  0  0  0  0
   35.3927   22.4562   31.7997 H   0  0  0  0  0  0  0  0  0  0  0  0
   37.5710   20.9679   31.1830 H   0  0  0  0  0  0  0  0  0  0  0  0
   39.3360   22.6860   30.0498 H   0  0  0  0  0  0  0  0  0  0  0  0
  2  1  1  0
  2 11  1  0
  3  2  2  0
  4  3  1  0
  4  5  2  0
  5  6  1  0
  6 11  2  0
  6  7  1  0
  7  8  2  0
  8  9  1  0
 10  9  2  0
 11 10  1  0
 12 17  2  0
 13 14  2  0
 13 12  1  0
 14 15  1  0
 15 16  2  0
 16  1  1  0
 17 16  1  0
 18 14  1  0
 19 18  2  0
 20 18  1  0
 20 21  2  0
 22 21  1  0
 23 22  2  0
 24 23  1  0
 24 20  1  0
  1 25  1  0
  1 26  1  0
  3 27  1  0
  4 28  1  0
  5 29  1  0
  7 30  1  0
  8 31  1  0
  9 32  1  0
 10 33  1  0
 12 34  1  0
 13 35  1  0
 21 36  1  0
 22 37  1  0
 23 38  1  0
M  ISO  8  25   8  26   8  27  14  28  14  29  14  30  14  31  14  32  14
M  ISO  6  33  14  34  14  35  14  36  14  37  14  38  14
M  END
>  <minimizedAffinity>  (1) 
-5.92679358

>  <minimizedRMSD>  (1) 
1.70055151

$$$$
