
     RDKit          3D

 38 41  0  0  0  0  0  0  0  0999 V2000
   37.7420   26.9100   35.1730 C   0  0  0  0  0  0  0  0  0  0  0  0
   39.0460   26.2660   35.0840 C   0  0  0  0  0  0  0  0  0  0  0  0
   40.1120   26.9220   34.4750 C   0  0  0  0  0  0  0  0  0  0  0  0
   41.3460   26.3290   34.4000 C   0  0  0  0  0  0  0  0  0  0  0  0
   41.5700   25.0600   34.9280 C   0  0  0  0  0  0  0  0  0  0  0  0
   40.5050   24.4160   35.5300 C   0  0  0  0  0  0  0  0  0  0  0  0
   40.7020   23.1480   36.0650 C   0  0  0  0  0  0  0  0  0  0  0  0
   39.6840   22.4570   36.6780 C   0  0  0  0  0  0  0  0  0  0  0  0
   38.4300   23.0540   36.7550 C   0  0  0  0  0  0  0  0  0  0  0  0
   38.2600   24.3280   36.2090 C   0  0  0  0  0  0  0  0  0  0  0  0
   39.2680   25.0360   35.5920 C   0  0  0  0  0  0  0  0  0  0  0  0
   36.2900   28.6110   32.2720 C   0  0  0  0  0  0  0  0  0  0  0  0
   35.8700   27.5930   31.4410 C   0  0  0  0  0  0  0  0  0  0  0  0
   36.0880   26.2700   31.8840 C   0  0  0  0  0  0  0  0  0  0  0  0
   36.6880   26.0540   33.0850 N   0  0  0  0  0  0  0  0  0  0  0  0
   37.0720   27.0870   33.8440 C   0  0  0  0  0  0  0  0  0  0  0  0
   36.8760   28.3610   33.4440 N   0  0  0  0  0  0  0  0  0  0  0  0
   35.6750   25.1570   31.0500 C   0  0  0  0  0  0  0  0  0  0  0  0
   34.5900   25.2070   30.4430 O   0  0  0  0  0  0  0  0  0  0  0  0
   36.5450   23.9880   30.9360 C   0  0  0  0  0  0  0  0  0  0  0  0
   36.2800   22.6980   31.3500 C   0  0  0  0  0  0  0  0  0  0  0  0
   37.3730   21.9060   31.0500 C   0  0  0  0  0  0  0  0  0  0  0  0
   38.2830   22.7280   30.4590 N   0  0  0  0  0  0  0  0  0  0  0  0
   37.7740   23.9480   30.4020 N   0  0  0  0  0  0  0  0  0  0  0  0
   37.0920   26.2938   35.8116 H   0  0  0  0  0  0  0  0  0  0  0  0
   37.9045   27.9147   35.5904 H   0  0  0  0  0  0  0  0  0  0  0  0
   39.9630   27.9256   34.0499 H   0  0  0  0  0  0  0  0  0  0  0  0
   42.1742   26.8655   33.9139 H   0  0  0  0  0  0  0  0  0  0  0  0
   42.5608   24.5860   34.8681 H   0  0  0  0  0  0  0  0  0  0  0  0
   41.6979   22.6859   35.9960 H   0  0  0  0  0  0  0  0  0  0  0  0
   39.8570   21.4551   37.0979 H   0  0  0  0  0  0  0  0  0  0  0  0
   37.5892   22.5331   37.2363 H   0  0  0  0  0  0  0  0  0  0  0  0
   37.2651   24.7925   36.2753 H   0  0  0  0  0  0  0  0  0  0  0  0
   36.1379   29.6549   31.9604 H   0  0  0  0  0  0  0  0  0  0  0  0
   35.3864   27.8027   30.4755 H   0  0  0  0  0  0  0  0  0  0  0  0
   35.3544   22.3572   31.8370 H   0  0  0  0  0  0  0  0  0  0  0  0
   37.4846   20.8299   31.2486 H   0  0  0  0  0  0  0  0  0  0  0  0
   39.2120   22.4473   30.1140 H   0  0  0  0  0  0  0  0  0  0  0  0
  2  1  1  0
  2 11  1  0
  3  2  2  0
  4  3  1  0
  4  5  2  0
  5  6  1  0
  6 11  2  0
  6  7  1  0
  7  8  2  0
  8  9  1  0
 10  9  2  0
 11 10  1  0
 12 17  2  0
 13 14  2  0
 13 12  1  0
 14 15  1  0
 15 16  2  0
 16  1  1  0
 17 16  1  0
 18 14  1  0
 19 18  2  0
 20 18  1  0
 20 21  1  0
 22 21  2  0
 23 22  1  0
 24 23  1  0
 24 20  2  0
  1 25  1  0
  1 26  1  0
  3 27  1  0
  4 28  1  0
  5 29  1  0
  7 30  1  0
  8 31  1  0
  9 32  1  0
 10 33  1  0
 12 34  1  0
 13 35  1  0
 21 36  1  0
 22 37  1  0
 23 38  1  0
M  ISO  8  25   8  26   8  27  14  28  14  29  14  30  14  31  14  32  14
M  ISO  6  33  14  34  14  35  14  36  14  37  14  38   9
M  END
>  <minimizedAffinity>  (1) 
-5.8851819

>  <minimizedRMSD>  (1) 
1.86675048

$$$$
