
     RDKit          3D

 20 21  0  0  1  0  0  0  0  0999 V2000
   38.6100   25.6350   35.0440 C   0  0  2  0  0  0  0  0  0  0  0  0
   39.3470   26.9610   35.1950 C   0  0  0  0  0  0  0  0  0  0  0  0
   37.8570   26.9000   35.0950 C   0  0  1  0  0  0  0  0  0  0  0  0
   39.6320   22.9380   37.3370 C   0  0  0  0  0  0  0  0  0  0  0  0
   38.8450   23.1700   38.4900 C   0  0  0  0  0  0  0  0  0  0  0  0
   37.9590   24.2740   38.4500 C   0  0  0  0  0  0  0  0  0  0  0  0
   37.9160   25.0360   37.3170 N   0  0  0  0  0  0  0  0  0  0  0  0
   38.7050   24.7570   36.2310 C   0  0  0  0  0  0  0  0  0  0  0  0
   39.5530   23.7180   36.2430 N   0  0  0  0  0  0  0  0  0  0  0  0
   37.1420   27.3150   33.8320 C   0  0  0  0  0  0  0  0  0  0  0  0
   36.6220   26.1350   33.2940 F   0  0  0  0  0  0  0  0  0  0  0  0
   38.0260   27.8280   32.9050 F   0  0  0  0  0  0  0  0  0  0  0  0
   36.1040   28.1900   34.0910 F   0  0  0  0  0  0  0  0  0  0  0  0
   38.5828   24.7866   34.3444 H   0  0  0  0  0  0  0  0  0  0  0  0
   39.8284   27.2222   36.1490 H   0  0  0  0  0  0  0  0  0  0  0  0
   40.1516   27.4804   34.6539 H   0  0  0  0  0  0  0  0  0  0  0  0
   37.0548   27.3211   35.7188 H   0  0  0  0  0  0  0  0  0  0  0  0
   40.3330   22.0903   37.3348 H   0  0  0  0  0  0  0  0  0  0  0  0
   38.9181   22.5227   39.3764 H   0  0  0  0  0  0  0  0  0  0  0  0
   37.3193   24.5128   39.3125 H   0  0  0  0  0  0  0  0  0  0  0  0
  1  3  1  0
  1  2  1  0
  1  8  1  0
  3  2  1  0
  4  5  2  0
  6  5  1  0
  7  6  2  0
  8  9  2  0
  8  7  1  0
  9  4  1  0
 10 13  1  0
 10  3  1  0
 11 10  1  0
 12 10  1  0
  1 14  1  6
  2 15  1  0
  2 16  1  0
  3 17  1  1
  4 18  1  0
  5 19  1  0
  6 20  1  0
M  ISO  7  14  13  15  13  16  13  17  13  18  14  19  14  20  14
M  END
>  <minimizedAffinity>  (1) 
-4.13040161

>  <minimizedRMSD>  (1) 
0.882861137

$$$$
