
     RDKit          3D

 30 32  0  0  1  0  0  0  0  0999 V2000
   37.7790   26.6670   33.9340 C   0  0  2  0  0  0  0  0  0  0  0  0
   37.4460   27.4260   35.2030 C   0  0  0  0  0  0  0  0  0  0  0  0
   37.5450   25.9260   35.1860 C   0  0  2  0  0  0  0  0  0  0  0  0
   40.6270   27.2730   31.6790 C   0  0  0  0  0  0  0  0  0  0  0  0
   41.7170   27.3830   32.5740 C   0  0  0  0  0  0  0  0  0  0  0  0
   41.4390   27.2360   33.9530 C   0  0  0  0  0  0  0  0  0  0  0  0
   40.1760   27.0000   34.3400 N   0  0  0  0  0  0  0  0  0  0  0  0
   39.1530   26.9030   33.4300 C   0  0  0  0  0  0  0  0  0  0  0  0
   39.3890   27.0410   32.0940 N   0  0  0  0  0  0  0  0  0  0  0  0
   38.5640   25.2550   36.0220 C   0  0  0  0  0  0  0  0  0  0  0  0
   38.2430   24.9630   37.4320 C   0  0  0  0  0  0  0  0  0  0  0  0
   37.8330   23.5060   37.5640 C   0  0  0  0  0  0  0  0  0  0  0  0
   37.7600   23.0280   36.1260 C   0  0  0  0  0  0  0  0  0  0  0  0
   38.8120   23.8700   35.4350 C   0  0  0  0  0  0  0  0  0  0  0  0
   37.3666   26.5489   32.9211 H   0  0  0  0  0  0  0  0  0  0  0  0
   38.2168   28.0267   35.7080 H   0  0  0  0  0  0  0  0  0  0  0  0
   36.6848   28.1611   35.5035 H   0  0  0  0  0  0  0  0  0  0  0  0
   36.9007   25.0633   35.4110 H   0  0  0  0  0  0  0  0  0  0  0  0
   40.8129   27.3838   30.6005 H   0  0  0  0  0  0  0  0  0  0  0  0
   42.7381   27.5748   32.2126 H   0  0  0  0  0  0  0  0  0  0  0  0
   42.2457   27.3139   34.6968 H   0  0  0  0  0  0  0  0  0  0  0  0
   39.3908   25.9805   36.0159 H   0  0  0  0  0  0  0  0  0  0  0  0
   39.1279   25.1535   38.0570 H   0  0  0  0  0  0  0  0  0  0  0  0
   37.4163   25.6091   37.7624 H   0  0  0  0  0  0  0  0  0  0  0  0
   38.5840   22.9358   38.1304 H   0  0  0  0  0  0  0  0  0  0  0  0
   36.8861   23.3746   38.1082 H   0  0  0  0  0  0  0  0  0  0  0  0
   37.9995   21.9569   36.0525 H   0  0  0  0  0  0  0  0  0  0  0  0
   36.7587   23.1350   35.6833 H   0  0  0  0  0  0  0  0  0  0  0  0
   38.6687   23.8690   34.3444 H   0  0  0  0  0  0  0  0  0  0  0  0
   39.8379   23.5049   35.5909 H   0  0  0  0  0  0  0  0  0  0  0  0
  1  3  1  0
  1  2  1  0
  3  2  1  0
  3 10  1  0
  4  9  2  0
  4  5  1  0
  5  6  2  0
  6  7  1  0
  8  1  1  0
  8  7  2  0
  9  8  1  0
 10 11  1  0
 11 12  1  0
 13 12  1  0
 14 10  1  0
 14 13  1  0
  1 15  1  6
  2 16  1  0
  2 17  1  0
  3 18  1  6
  4 19  1  0
  5 20  1  0
  6 21  1  0
 10 22  1  0
 11 23  1  0
 11 24  1  0
 12 25  1  0
 12 26  1  0
 13 27  1  0
 13 28  1  0
 14 29  1  0
 14 30  1  0
M  ISO  8  15  13  16  13  17  13  18  13  19  14  20  14  21  14  22  13
M  ISO  8  23  13  24  13  25  13  26  13  27  13  28  13  29  13  30  13
M  END
>  <minimizedAffinity>  (1) 
-3.70309496

>  <minimizedRMSD>  (1) 
4.48752308

$$$$
