
     RDKit          3D

 51 53  0  0  0  0  0  0  0  0999 V2000
   38.0020   22.3850   36.2150 C   0  0  0  0  0  0  0  0  0  0  0  0
   38.0720   22.4390   34.7910 N   0  0  0  0  0  0  0  0  0  0  0  0
   38.9290   21.8020   33.9330 C   0  0  0  0  0  0  0  0  0  0  0  0
   38.6150   22.1590   32.6580 N   0  0  0  0  0  0  0  0  0  0  0  0
   37.5720   23.0100   32.7260 C   0  0  0  0  0  0  0  0  0  0  0  0
   37.2600   23.1650   34.0210 N   0  0  0  0  0  0  0  0  0  0  0  0
   36.9210   23.6370   31.5410 C   0  0  0  0  0  0  0  0  0  0  0  0
   35.7510   22.7500   31.1360 C   0  0  0  0  0  0  0  0  0  0  0  0
   37.8620   23.6660   30.3570 C   0  0  0  0  0  0  0  0  0  0  0  0
   36.3510   24.9910   31.8660 C   0  0  0  0  0  0  0  0  0  0  0  0
   37.3480   26.0740   31.7380 C   0  0  0  0  0  0  0  0  0  0  0  0
   37.6540   26.9890   30.8170 N   0  0  0  0  0  0  0  0  0  0  0  0
   38.6390   27.7130   31.2180 O   0  0  0  0  0  0  0  0  0  0  0  0
   39.0180   27.3050   32.4150 C   0  0  0  0  0  0  0  0  0  0  0  0
   38.2150   26.2850   32.7390 N   0  0  0  0  0  0  0  0  0  0  0  0
   38.9180   23.4040   36.8810 C   0  0  0  0  0  0  0  0  0  0  0  0
   42.1510   21.5010   36.9640 C   0  0  0  0  0  0  0  0  0  0  0  0
   40.8280   21.8250   37.1950 C   0  0  0  0  0  0  0  0  0  0  0  0
   40.3100   23.0100   36.6680 C   0  0  0  0  0  0  0  0  0  0  0  0
   41.1270   23.8030   35.9460 N   0  0  0  0  0  0  0  0  0  0  0  0
   42.4190   23.4740   35.7270 C   0  0  0  0  0  0  0  0  0  0  0  0
   42.9230   22.3180   36.2410 N   0  0  0  0  0  0  0  0  0  0  0  0
   42.6990   20.2350   37.5270 C   0  0  0  0  0  0  0  0  0  0  0  0
   43.2890   19.3320   36.5140 C   0  0  0  0  0  0  0  0  0  0  0  0
   38.6540   23.3990   38.3720 C   0  0  0  0  0  0  0  0  0  0  0  0
   38.5750   24.7570   36.3120 C   0  0  0  0  0  0  0  0  0  0  0  0
   38.2954   21.3775   36.5451 H   0  0  0  0  0  0  0  0  0  0  0  0
   36.9686   22.6207   36.5090 H   0  0  0  0  0  0  0  0  0  0  0  0
   39.7371   21.1156   34.2261 H   0  0  0  0  0  0  0  0  0  0  0  0
   35.2496   22.3699   32.0383 H   0  0  0  0  0  0  0  0  0  0  0  0
   35.0366   23.3355   30.5386 H   0  0  0  0  0  0  0  0  0  0  0  0
   36.1218   21.9040   30.5386 H   0  0  0  0  0  0  0  0  0  0  0  0
   38.9015   23.6980   30.7155 H   0  0  0  0  0  0  0  0  0  0  0  0
   37.7121   22.7628   29.7473 H   0  0  0  0  0  0  0  0  0  0  0  0
   37.6567   24.5582   29.7473 H   0  0  0  0  0  0  0  0  0  0  0  0
   35.5176   25.1965   31.1781 H   0  0  0  0  0  0  0  0  0  0  0  0
   36.0169   24.9685   32.9138 H   0  0  0  0  0  0  0  0  0  0  0  0
   39.8329   27.7214   33.0254 H   0  0  0  0  0  0  0  0  0  0  0  0
   40.1883   21.1555   37.7888 H   0  0  0  0  0  0  0  0  0  0  0  0
   43.0634   24.1395   35.1339 H   0  0  0  0  0  0  0  0  0  0  0  0
   43.4794   20.4910   38.2587 H   0  0  0  0  0  0  0  0  0  0  0  0
   41.8540   19.6961   37.9804 H   0  0  0  0  0  0  0  0  0  0  0  0
   43.8235   18.5139   37.0190 H   0  0  0  0  0  0  0  0  0  0  0  0
   42.4891   18.9142   35.8850 H   0  0  0  0  0  0  0  0  0  0  0  0
   43.9929   19.8967   35.8850 H   0  0  0  0  0  0  0  0  0  0  0  0
   39.6111   23.4171   38.9139 H   0  0  0  0  0  0  0  0  0  0  0  0
   38.0626   24.2861   38.6426 H   0  0  0  0  0  0  0  0  0  0  0  0
   38.0966   22.4901   38.6426 H   0  0  0  0  0  0  0  0  0  0  0  0
   38.3954   25.4656   37.1339 H   0  0  0  0  0  0  0  0  0  0  0  0
   39.4103   25.1171   35.6934 H   0  0  0  0  0  0  0  0  0  0  0  0
   37.6691   24.6757   35.6934 H   0  0  0  0  0  0  0  0  0  0  0  0
  1 16  1  0
  2  1  1  0
  3  2  1  0
  4  5  1  0
  4  3  2  0
  5  6  2  0
  6  2  1  0
  7 10  1  0
  7  5  1  0
  8  7  1  0
  9  7  1  0
 11 10  1  0
 11 15  1  0
 12 13  1  0
 12 11  2  0
 13 14  1  0
 14 15  2  0
 16 25  1  0
 17 18  2  0
 17 23  1  0
 19 16  1  0
 19 18  1  0
 20 19  2  0
 21 20  1  0
 21 22  2  0
 22 17  1  0
 24 23  1  0
 26 16  1  0
  1 27  1  0
  1 28  1  0
  3 29  1  0
  8 30  1  0
  8 31  1  0
  8 32  1  0
  9 33  1  0
  9 34  1  0
  9 35  1  0
 10 36  1  0
 10 37  1  0
 14 38  1  0
 18 39  1  0
 21 40  1  0
 23 41  1  0
 23 42  1  0
 24 43  1  0
 24 44  1  0
 24 45  1  0
 25 46  1  0
 25 47  1  0
 25 48  1  0
 26 49  1  0
 26 50  1  0
 26 51  1  0
M  ISO  8  27   8  28   8  29  14  30   8  31   8  32   8  33   8  34   8
M  ISO  8  35   8  36   8  37   8  38  14  39  14  40  14  41   8  42   8
M  ISO  8  43   8  44   8  45   8  46   8  47   8  48   8  49   8  50   8
M  ISO  1  51   8
M  END
>  <minimizedAffinity>  (1) 
-4.72805405

>  <minimizedRMSD>  (1) 
1.33429539

$$$$
