
     RDKit          3D

 18 19  0  0  1  0  0  0  0  0999 V2000
   39.9990   22.6710   37.5770 C   0  0  0  0  0  0  0  0  0  0  0  0
   39.1340   23.3080   38.5000 C   0  0  0  0  0  0  0  0  0  0  0  0
   37.7840   23.4810   38.0920 C   0  0  0  0  0  0  0  0  0  0  0  0
   37.4120   23.0300   36.8550 N   0  0  0  0  0  0  0  0  0  0  0  0
   38.3020   22.4240   36.0200 C   0  0  0  0  0  0  0  0  0  0  0  0
   39.5890   22.2490   36.3850 N   0  0  0  0  0  0  0  0  0  0  0  0
   37.8120   21.9720   34.7020 C   0  0  2  0  0  0  0  0  0  0  0  0
   38.8950   21.9000   33.6310 C   0  0  0  0  0  0  0  0  0  0  0  0
   37.7620   22.8890   33.5460 C   0  0  2  0  0  0  0  0  0  0  0  0
   38.2880   24.6100   33.7670 S   0  0  0  0  0  0  0  0  0  0  0  0
   41.0518   22.5195   37.8576 H   0  0  0  0  0  0  0  0  0  0  0  0
   39.4893   23.6514   39.4828 H   0  0  0  0  0  0  0  0  0  0  0  0
   37.0540   23.9669   38.7561 H   0  0  0  0  0  0  0  0  0  0  0  0
   37.0543   21.3107   35.1477 H   0  0  0  0  0  0  0  0  0  0  0  0
   39.9164   22.2442   33.8510 H   0  0  0  0  0  0  0  0  0  0  0  0
   39.3068   21.1159   32.9786 H   0  0  0  0  0  0  0  0  0  0  0  0
   36.9621   23.1332   32.8315 H   0  0  0  0  0  0  0  0  0  0  0  0
   38.3745   24.8929   35.1047 H   0  0  0  0  0  0  0  0  0  0  0  0
  1  2  2  0
  3  2  1  0
  4  3  2  0
  5  6  2  0
  5  4  1  0
  6  1  1  0
  7  5  1  0
  8  7  1  0
  9  8  1  0
  9 10  1  0
  9  7  1  0
  1 11  1  0
  2 12  1  0
  3 13  1  0
  7 14  1  1
  8 15  1  0
  8 16  1  0
  9 17  1  6
 10 18  1  0
M  ISO  8  11  14  12  14  13  14  14  13  15  13  16  13  17  13  18  11
M  END
>  <minimizedAffinity>  (1) 
-3.1520474

>  <minimizedRMSD>  (1) 
3.31534863

$$$$
