
     RDKit          3D

 52 54  0  0  0  0  0  0  0  0999 V2000
   37.8130   22.5680   36.1830 C   0  0  0  0  0  0  0  0  0  0  0  0
   37.9130   22.6090   34.7630 N   0  0  0  0  0  0  0  0  0  0  0  0
   38.6200   21.8110   33.8920 C   0  0  0  0  0  0  0  0  0  0  0  0
   38.4020   22.2370   32.6160 N   0  0  0  0  0  0  0  0  0  0  0  0
   37.5800   23.2790   32.6850 C   0  0  0  0  0  0  0  0  0  0  0  0
   37.2920   23.4940   33.9730 N   0  0  0  0  0  0  0  0  0  0  0  0
   37.0600   24.0690   31.5320 C   0  0  0  0  0  0  0  0  0  0  0  0
   35.7050   23.5190   31.1360 C   0  0  0  0  0  0  0  0  0  0  0  0
   37.9680   23.8400   30.3150 C   0  0  0  0  0  0  0  0  0  0  0  0
   36.9100   25.5300   31.8290 C   0  0  0  0  0  0  0  0  0  0  0  0
   38.0370   26.3480   31.5180 N   0  0  0  0  0  0  0  0  0  0  0  0
   38.9990   26.5340   32.4740 C   0  0  0  0  0  0  0  0  0  0  0  0
   39.9660   27.3390   31.9600 N   0  0  0  0  0  0  0  0  0  0  0  0
   39.6180   27.6540   30.7000 C   0  0  0  0  0  0  0  0  0  0  0  0
   38.4480   27.0380   30.4700 N   0  0  0  0  0  0  0  0  0  0  0  0
   38.7520   23.5390   36.8590 C   0  0  0  0  0  0  0  0  0  0  0  0
   42.0000   21.6690   36.9000 C   0  0  0  0  0  0  0  0  0  0  0  0
   40.6860   21.9970   37.1740 C   0  0  0  0  0  0  0  0  0  0  0  0
   40.1240   23.1480   36.6050 C   0  0  0  0  0  0  0  0  0  0  0  0
   40.8940   23.9070   35.7970 N   0  0  0  0  0  0  0  0  0  0  0  0
   42.1800   23.5680   35.5410 C   0  0  0  0  0  0  0  0  0  0  0  0
   42.7230   22.4450   36.1000 N   0  0  0  0  0  0  0  0  0  0  0  0
   42.5660   20.4420   37.5210 C   0  0  0  0  0  0  0  0  0  0  0  0
   43.2340   19.5390   36.5490 C   0  0  0  0  0  0  0  0  0  0  0  0
   38.5220   23.4950   38.3550 C   0  0  0  0  0  0  0  0  0  0  0  0
   38.3910   24.9250   36.3520 C   0  0  0  0  0  0  0  0  0  0  0  0
   38.0532   21.5501   36.5240 H   0  0  0  0  0  0  0  0  0  0  0  0
   36.7859   22.8543   36.4534 H   0  0  0  0  0  0  0  0  0  0  0  0
   39.2596   20.9637   34.1803 H   0  0  0  0  0  0  0  0  0  0  0  0
   35.1259   23.2839   32.0412 H   0  0  0  0  0  0  0  0  0  0  0  0
   35.1649   24.2691   30.5396 H   0  0  0  0  0  0  0  0  0  0  0  0
   35.8404   22.6047   30.5396 H   0  0  0  0  0  0  0  0  0  0  0  0
   38.9818   23.5843   30.6569 H   0  0  0  0  0  0  0  0  0  0  0  0
   37.5667   23.0149   29.7082 H   0  0  0  0  0  0  0  0  0  0  0  0
   38.0060   24.7567   29.7082 H   0  0  0  0  0  0  0  0  0  0  0  0
   36.0519   25.9049   31.2518 H   0  0  0  0  0  0  0  0  0  0  0  0
   36.7827   25.6006   32.9193 H   0  0  0  0  0  0  0  0  0  0  0  0
   38.9908   26.1046   33.4867 H   0  0  0  0  0  0  0  0  0  0  0  0
   40.1794   28.2889   29.9987 H   0  0  0  0  0  0  0  0  0  0  0  0
   40.0836   21.3575   37.8359 H   0  0  0  0  0  0  0  0  0  0  0  0
   42.7909   24.1999   34.8796 H   0  0  0  0  0  0  0  0  0  0  0  0
   43.3036   20.7441   38.2790 H   0  0  0  0  0  0  0  0  0  0  0  0
   41.7248   19.8827   37.9564 H   0  0  0  0  0  0  0  0  0  0  0  0
   43.8025   18.7705   37.0933 H   0  0  0  0  0  0  0  0  0  0  0  0
   42.4750   19.0547   35.9170 H   0  0  0  0  0  0  0  0  0  0  0  0
   43.9191   20.1230   35.9170 H   0  0  0  0  0  0  0  0  0  0  0  0
   39.4727   23.6769   38.8776 H   0  0  0  0  0  0  0  0  0  0  0  0
   37.7944   24.2702   38.6371 H   0  0  0  0  0  0  0  0  0  0  0  0
   38.1319   22.5059   38.6371 H   0  0  0  0  0  0  0  0  0  0  0  0
   38.2166   25.5944   37.2073 H   0  0  0  0  0  0  0  0  0  0  0  0
   39.2166   25.3184   35.7408 H   0  0  0  0  0  0  0  0  0  0  0  0
   37.4783   24.8657   35.7408 H   0  0  0  0  0  0  0  0  0  0  0  0
  1 16  1  0
  2  1  1  0
  3  2  1  0
  4  5  1  0
  4  3  2  0
  5  6  2  0
  6  2  1  0
  7 10  1  0
  7  5  1  0
  8  7  1  0
  9  7  1  0
 11 10  1  0
 11 12  1  0
 13 12  2  0
 14 13  1  0
 15 14  2  0
 15 11  1  0
 16 25  1  0
 17 18  2  0
 17 23  1  0
 19 16  1  0
 19 18  1  0
 20 19  2  0
 21 20  1  0
 21 22  2  0
 22 17  1  0
 24 23  1  0
 26 16  1  0
  1 27  1  0
  1 28  1  0
  3 29  1  0
  8 30  1  0
  8 31  1  0
  8 32  1  0
  9 33  1  0
  9 34  1  0
  9 35  1  0
 10 36  1  0
 10 37  1  0
 12 38  1  0
 14 39  1  0
 18 40  1  0
 21 41  1  0
 23 42  1  0
 23 43  1  0
 24 44  1  0
 24 45  1  0
 24 46  1  0
 25 47  1  0
 25 48  1  0
 25 49  1  0
 26 50  1  0
 26 51  1  0
 26 52  1  0
M  ISO  8  27   8  28   8  29  14  30   8  31   8  32   8  33   8  34   8
M  ISO  8  35   8  36   8  37   8  38  14  39  14  40  14  41  14  42   8
M  ISO  8  43   8  44   8  45   8  46   8  47   8  48   8  49   8  50   8
M  ISO  2  51   8  52   8
M  END
>  <minimizedAffinity>  (1) 
-4.7204299

>  <minimizedRMSD>  (1) 
0.935809612

$$$$
