
     RDKit          3D

 26 28  0  0  1  0  0  0  0  0999 V2000
   37.8890   21.8780   34.6420 C   0  0  2  0  0  0  0  0  0  0  0  0
   38.9360   21.9200   33.5670 C   0  0  0  0  0  0  0  0  0  0  0  0
   37.7010   22.7980   33.5070 C   0  0  2  0  0  0  0  0  0  0  0  0
   39.9300   22.7590   37.5550 C   0  0  0  0  0  0  0  0  0  0  0  0
   39.0330   23.3570   38.4540 C   0  0  0  0  0  0  0  0  0  0  0  0
   37.7010   23.4410   38.0170 C   0  0  0  0  0  0  0  0  0  0  0  0
   37.3730   22.9570   36.7920 N   0  0  0  0  0  0  0  0  0  0  0  0
   38.2940   22.3860   35.9590 C   0  0  0  0  0  0  0  0  0  0  0  0
   39.5930   22.2780   36.3330 N   0  0  0  0  0  0  0  0  0  0  0  0
   38.0150   24.2470   33.5130 C   0  0  0  0  0  0  0  0  0  0  0  0
   37.0780   25.0200   32.6620 C   0  0  0  0  0  0  0  0  0  0  0  0
   36.2020   24.2000   31.8090 C   0  0  0  0  0  0  0  0  0  0  0  0
   35.2560   25.4140   30.9590 S   0  0  0  0  0  0  0  0  0  0  0  0
   36.1090   26.8670   31.8090 C   0  0  0  0  0  0  0  0  0  0  0  0
   37.1050   26.3430   32.7300 N   0  0  0  0  0  0  0  0  0  0  0  0
   37.2409   21.1127   35.0940 H   0  0  0  0  0  0  0  0  0  0  0  0
   39.9219   22.3633   33.7705 H   0  0  0  0  0  0  0  0  0  0  0  0
   39.4111   21.1837   32.9021 H   0  0  0  0  0  0  0  0  0  0  0  0
   36.8135   22.9720   32.8808 H   0  0  0  0  0  0  0  0  0  0  0  0
   40.9822   22.6745   37.8643 H   0  0  0  0  0  0  0  0  0  0  0  0
   39.3525   23.7350   39.4364 H   0  0  0  0  0  0  0  0  0  0  0  0
   36.9321   23.8939   38.6602 H   0  0  0  0  0  0  0  0  0  0  0  0
   37.9486   24.6209   34.5454 H   0  0  0  0  0  0  0  0  0  0  0  0
   39.0295   24.3774   33.1082 H   0  0  0  0  0  0  0  0  0  0  0  0
   36.1520   23.1044   31.7247 H   0  0  0  0  0  0  0  0  0  0  0  0
   35.8898   27.9311   31.6368 H   0  0  0  0  0  0  0  0  0  0  0  0
  1  8  1  0
  2  1  1  0
  3 10  1  0
  3  2  1  0
  3  1  1  0
  4  5  2  0
  6  5  1  0
  7  6  2  0
  8  9  2  0
  8  7  1  0
  9  4  1  0
 11 15  1  0
 11 10  1  0
 12 11  2  0
 13 14  1  0
 13 12  1  0
 14 15  2  0
  1 16  1  1
  2 17  1  0
  2 18  1  0
  3 19  1  6
  4 20  1  0
  5 21  1  0
  6 22  1  0
 10 23  1  0
 10 24  1  0
 12 25  1  0
 14 26  1  0
M  ISO  8  16  13  17  13  18  13  19  13  20  14  21  14  22  14  23   8
M  ISO  3  24   8  25  14  26  14
M  END
>  <minimizedAffinity>  (1) 
-4.10170412

>  <minimizedRMSD>  (1) 
4.44603395

$$$$
