
     RDKit          3D

 27 29  0  0  1  0  0  0  0  0999 V2000
   37.7500   22.2940   34.8300 C   0  0  2  0  0  0  0  0  0  0  0  0
   38.7980   21.9520   33.8100 C   0  0  0  0  0  0  0  0  0  0  0  0
   37.9520   23.1920   33.6680 C   0  0  2  0  0  0  0  0  0  0  0  0
   39.9540   22.7150   37.7400 C   0  0  0  0  0  0  0  0  0  0  0  0
   39.1490   23.3910   38.6880 C   0  0  0  0  0  0  0  0  0  0  0  0
   37.8200   23.6850   38.2620 C   0  0  0  0  0  0  0  0  0  0  0  0
   37.4150   23.3230   37.0370 N   0  0  0  0  0  0  0  0  0  0  0  0
   38.2470   22.6640   36.1550 C   0  0  0  0  0  0  0  0  0  0  0  0
   39.5080   22.3690   36.5200 N   0  0  0  0  0  0  0  0  0  0  0  0
   38.7060   24.4640   33.7080 C   0  0  0  0  0  0  0  0  0  0  0  0
   37.9270   25.6500   33.9660 N   0  0  0  0  0  0  0  0  0  0  0  0
   37.5280   26.3680   35.0320 C   0  0  0  0  0  0  0  0  0  0  0  0
   36.7830   27.4520   34.6520 C   0  0  0  0  0  0  0  0  0  0  0  0
   36.7100   27.4200   33.3230 N   0  0  0  0  0  0  0  0  0  0  0  0
   37.3990   26.3370   32.9230 C   0  0  0  0  0  0  0  0  0  0  0  0
   36.8561   21.8135   35.2543 H   0  0  0  0  0  0  0  0  0  0  0  0
   39.8649   22.0369   34.0639 H   0  0  0  0  0  0  0  0  0  0  0  0
   39.0216   21.0795   33.1786 H   0  0  0  0  0  0  0  0  0  0  0  0
   37.2279   23.6323   32.9667 H   0  0  0  0  0  0  0  0  0  0  0  0
   40.9890   22.4619   38.0134 H   0  0  0  0  0  0  0  0  0  0  0  0
   39.5226   23.6702   39.6842 H   0  0  0  0  0  0  0  0  0  0  0  0
   37.1282   24.2084   38.9383 H   0  0  0  0  0  0  0  0  0  0  0  0
   39.4655   24.3809   34.4993 H   0  0  0  0  0  0  0  0  0  0  0  0
   39.1225   24.5951   32.6984 H   0  0  0  0  0  0  0  0  0  0  0  0
   37.7695   26.1162   36.0752 H   0  0  0  0  0  0  0  0  0  0  0  0
   36.3320   28.2039   35.3162 H   0  0  0  0  0  0  0  0  0  0  0  0
   37.5205   26.0421   31.8703 H   0  0  0  0  0  0  0  0  0  0  0  0
  1  8  1  0
  2  1  1  0
  3 10  1  0
  3  2  1  0
  3  1  1  0
  4  5  2  0
  6  5  1  0
  7  6  2  0
  8  9  2  0
  8  7  1  0
  9  4  1  0
 10 11  1  0
 11 12  1  0
 13 12  2  0
 14 13  1  0
 15 14  2  0
 15 11  1  0
  1 16  1  1
  2 17  1  0
  2 18  1  0
  3 19  1  6
  4 20  1  0
  5 21  1  0
  6 22  1  0
 10 23  1  0
 10 24  1  0
 12 25  1  0
 13 26  1  0
 15 27  1  0
M  ISO  8  16  13  17  13  18  13  19  13  20  14  21  14  22  14  23   8
M  ISO  4  24   8  25  14  26  14  27  14
M  END
>  <minimizedAffinity>  (1) 
-3.92457986

>  <minimizedRMSD>  (1) 
3.4873693

$$$$
