
     RDKit          3D

 26 28  0  0  1  0  0  0  0  0999 V2000
   39.1180   24.3800   34.5170 C   0  0  2  0  0  0  0  0  0  0  0  0
   37.8420   24.7810   33.8270 C   0  0  0  0  0  0  0  0  0  0  0  0
   38.5400   23.5000   33.4750 C   0  0  2  0  0  0  0  0  0  0  0  0
   37.9190   24.2810   37.9830 C   0  0  0  0  0  0  0  0  0  0  0  0
   38.8050   23.3610   38.6160 C   0  0  0  0  0  0  0  0  0  0  0  0
   39.8190   22.7910   37.7930 C   0  0  0  0  0  0  0  0  0  0  0  0
   39.8770   23.1460   36.5030 N   0  0  0  0  0  0  0  0  0  0  0  0
   39.0030   24.0370   35.9340 C   0  0  0  0  0  0  0  0  0  0  0  0
   38.0230   24.6040   36.6810 N   0  0  0  0  0  0  0  0  0  0  0  0
   37.7480   22.2870   33.7470 C   0  0  0  0  0  0  0  0  0  0  0  0
   36.7720   21.8990   32.7750 N   0  0  0  0  0  0  0  0  0  0  0  0
   36.5580   22.0910   31.4590 C   0  0  0  0  0  0  0  0  0  0  0  0
   35.4300   21.4420   31.0760 N   0  0  0  0  0  0  0  0  0  0  0  0
   34.9290   20.8370   32.1670 C   0  0  0  0  0  0  0  0  0  0  0  0
   35.7500   21.1240   33.1780 N   0  0  0  0  0  0  0  0  0  0  0  0
   40.1206   24.8081   34.6639 H   0  0  0  0  0  0  0  0  0  0  0  0
   36.8876   24.7582   34.3734 H   0  0  0  0  0  0  0  0  0  0  0  0
   37.4973   25.6641   33.2691 H   0  0  0  0  0  0  0  0  0  0  0  0
   39.0132   23.0171   32.6073 H   0  0  0  0  0  0  0  0  0  0  0  0
   37.1205   24.7441   38.5813 H   0  0  0  0  0  0  0  0  0  0  0  0
   38.7110   23.1051   39.6817 H   0  0  0  0  0  0  0  0  0  0  0  0
   40.5406   22.0728   38.2095 H   0  0  0  0  0  0  0  0  0  0  0  0
   38.4543   21.4507   33.8555 H   0  0  0  0  0  0  0  0  0  0  0  0
   37.1635   22.5319   34.6461 H   0  0  0  0  0  0  0  0  0  0  0  0
   37.2019   22.6854   30.7941 H   0  0  0  0  0  0  0  0  0  0  0  0
   34.0174   20.2234   32.2163 H   0  0  0  0  0  0  0  0  0  0  0  0
  1  8  1  0
  2  1  1  0
  3 10  1  0
  3  2  1  0
  3  1  1  0
  4  5  2  0
  6  5  1  0
  7  6  2  0
  8  7  1  0
  8  9  2  0
  9  4  1  0
 11 15  1  0
 11 10  1  0
 12 11  1  0
 13 12  2  0
 13 14  1  0
 14 15  2  0
  1 16  1  6
  2 17  1  0
  2 18  1  0
  3 19  1  6
  4 20  1  0
  5 21  1  0
  6 22  1  0
 10 23  1  0
 10 24  1  0
 12 25  1  0
 14 26  1  0
M  ISO  8  16  13  17  13  18  13  19  13  20  14  21  14  22  14  23   8
M  ISO  3  24   8  25  14  26  14
M  END
>  <minimizedAffinity>  (1) 
-3.92689919

>  <minimizedRMSD>  (1) 
5.65189981

$$$$
