
     RDKit          3D

 22 23  0  0  1  0  0  0  0  0999 V2000
   38.1000   24.7460   34.7350 C   0  0  2  0  0  0  0  0  0  0  0  0
   38.9670   25.1800   33.5820 C   0  0  0  0  0  0  0  0  0  0  0  0
   38.3350   26.1850   34.4880 C   0  0  2  0  0  0  0  0  0  0  0  0
   40.6320   22.7910   36.5660 C   0  0  0  0  0  0  0  0  0  0  0  0
   40.0740   22.7150   37.8760 C   0  0  0  0  0  0  0  0  0  0  0  0
   38.8200   23.3520   38.0930 C   0  0  0  0  0  0  0  0  0  0  0  0
   38.2530   23.9780   37.0480 N   0  0  0  0  0  0  0  0  0  0  0  0
   38.8080   24.0350   35.8110 C   0  0  0  0  0  0  0  0  0  0  0  0
   40.0010   23.4380   35.5750 N   0  0  0  0  0  0  0  0  0  0  0  0
   39.2960   27.0180   35.2590 C   0  0  0  0  0  0  0  0  0  0  0  0
   38.5880   27.6620   36.3580 N   0  0  0  0  0  0  0  0  0  0  0  0
   37.1823   24.1588   34.8868 H   0  0  0  0  0  0  0  0  0  0  0  0
   38.6092   25.0660   32.5481 H   0  0  0  0  0  0  0  0  0  0  0  0
   39.9920   24.9623   33.2475 H   0  0  0  0  0  0  0  0  0  0  0  0
   37.6294   27.0266   34.4269 H   0  0  0  0  0  0  0  0  0  0  0  0
   41.5999   22.3090   36.3640 H   0  0  0  0  0  0  0  0  0  0  0  0
   40.5930   22.1843   38.6878 H   0  0  0  0  0  0  0  0  0  0  0  0
   38.3332   23.3326   39.0792 H   0  0  0  0  0  0  0  0  0  0  0  0
   40.0981   26.3807   35.6597 H   0  0  0  0  0  0  0  0  0  0  0  0
   39.7372   27.7819   34.6019 H   0  0  0  0  0  0  0  0  0  0  0  0
   38.9629   27.3210   37.2547 H   0  0  0  0  0  0  0  0  0  0  0  0
   38.7162   28.6822   36.2980 H   0  0  0  0  0  0  0  0  0  0  0  0
  1  8  1  0
  2  3  1  0
  2  1  1  0
  3  1  1  0
  3 10  1  0
  4  5  2  0
  5  6  1  0
  7  6  2  0
  8  7  1  0
  9  8  2  0
  9  4  1  0
 10 11  1  0
  1 12  1  6
  2 13  1  0
  2 14  1  0
  3 15  1  6
  4 16  1  0
  5 17  1  0
  6 18  1  0
 10 19  1  0
 10 20  1  0
 11 21  1  0
 11 22  1  0
M  ISO  8  12  13  13  13  14  13  15  13  16  14  17  14  18  14  19   8
M  ISO  3  20   8  21   5  22   5
M  END
>  <minimizedAffinity>  (1) 
-3.57455945

>  <minimizedRMSD>  (1) 
0.930050075

$$$$
