
     RDKit          3D

 29 31  0  0  1  0  0  0  0  0999 V2000
   37.3980   23.4070   30.8010 C   0  0  2  0  0  0  0  0  0  0  0  0
   38.5540   24.2290   31.3070 C   0  0  0  0  0  0  0  0  0  0  0  0
   37.2310   24.8630   30.9220 C   0  0  2  0  0  0  0  0  0  0  0  0
   36.8400   21.4070   33.8200 C   0  0  0  0  0  0  0  0  0  0  0  0
   35.6000   20.7800   33.6210 C   0  0  0  0  0  0  0  0  0  0  0  0
   34.9610   21.0760   32.3820 C   0  0  0  0  0  0  0  0  0  0  0  0
   35.5760   21.9160   31.5060 N   0  0  0  0  0  0  0  0  0  0  0  0
   36.8000   22.4920   31.7800 C   0  0  0  0  0  0  0  0  0  0  0  0
   37.4360   22.2320   32.9500 N   0  0  0  0  0  0  0  0  0  0  0  0
   36.5920   25.5540   32.0690 C   0  0  0  0  0  0  0  0  0  0  0  0
   36.4470   27.0170   31.9560 C   0  0  0  0  0  0  0  0  0  0  0  0
   36.1590   28.0020   32.8570 C   0  0  0  0  0  0  0  0  0  0  0  0
   36.0390   29.3390   32.5740 C   0  0  0  0  0  0  0  0  0  0  0  0
   36.2270   29.7100   31.2590 C   0  0  0  0  0  0  0  0  0  0  0  0
   36.5150   28.7130   30.3540 C   0  0  0  0  0  0  0  0  0  0  0  0
   36.6260   27.4130   30.6660 N   0  0  0  0  0  0  0  0  0  0  0  0
   37.2096   22.7097   29.9714 H   0  0  0  0  0  0  0  0  0  0  0  0
   38.8552   24.1717   32.3634 H   0  0  0  0  0  0  0  0  0  0  0  0
   39.6072   24.3677   31.0213 H   0  0  0  0  0  0  0  0  0  0  0  0
   36.8084   25.5803   30.2030 H   0  0  0  0  0  0  0  0  0  0  0  0
   37.3637   21.2045   34.7659 H   0  0  0  0  0  0  0  0  0  0  0  0
   35.1532   20.1079   34.3684 H   0  0  0  0  0  0  0  0  0  0  0  0
   33.9848   20.6318   32.1375 H   0  0  0  0  0  0  0  0  0  0  0  0
   35.5865   25.1272   32.1986 H   0  0  0  0  0  0  0  0  0  0  0  0
   37.2691   25.3928   32.9208 H   0  0  0  0  0  0  0  0  0  0  0  0
   36.0099   27.6961   33.9030 H   0  0  0  0  0  0  0  0  0  0  0  0
   35.8050   30.0770   33.3554 H   0  0  0  0  0  0  0  0  0  0  0  0
   36.1499   30.7615   30.9454 H   0  0  0  0  0  0  0  0  0  0  0  0
   36.6643   29.0023   29.3033 H   0  0  0  0  0  0  0  0  0  0  0  0
  1  3  1  0
  1  2  1  0
  1  8  1  0
  3  2  1  0
  3 10  1  0
  5  4  2  0
  6  5  1  0
  7  8  1  0
  7  6  2  0
  8  9  2  0
  9  4  1  0
 11 10  1  0
 11 12  2  0
 13 12  1  0
 14 13  2  0
 15 16  2  0
 15 14  1  0
 16 11  1  0
  1 17  1  6
  2 18  1  0
  2 19  1  0
  3 20  1  6
  4 21  1  0
  5 22  1  0
  6 23  1  0
 10 24  1  0
 10 25  1  0
 12 26  1  0
 13 27  1  0
 14 28  1  0
 15 29  1  0
M  ISO  8  17  13  18  13  19  13  20  13  21  14  22  14  23  14  24   8
M  ISO  5  25   8  26  14  27  14  28  14  29  14
M  END
>  <minimizedAffinity>  (1) 
-3.85229802

>  <minimizedRMSD>  (1) 
6.03048563

$$$$
