
     RDKit          3D

 36 39  0  0  1  0  0  0  0  0999 V2000
   37.1020   26.9910   34.0780 C   0  0  0  0  0  0  0  0  0  0  0  0
   36.4630   28.2480   33.6390 C   0  0  0  0  0  0  0  0  0  0  0  0
   36.2720   28.7630   32.3760 C   0  0  0  0  0  0  0  0  0  0  0  0
   35.6550   29.9590   32.1120 C   0  0  0  0  0  0  0  0  0  0  0  0
   35.2040   30.6810   33.1850 C   0  0  0  0  0  0  0  0  0  0  0  0
   35.4050   30.1520   34.4310 C   0  0  0  0  0  0  0  0  0  0  0  0
   36.0080   28.9820   34.6940 N   0  0  0  0  0  0  0  0  0  0  0  0
   34.9030   30.9640   35.5580 C   0  0  0  0  0  0  0  0  0  0  0  0
   33.5970   31.1620   35.9880 C   0  0  0  0  0  0  0  0  0  0  0  0
   33.6150   32.0070   37.0930 C   0  0  0  0  0  0  0  0  0  0  0  0
   34.9120   32.2920   37.2980 N   0  0  0  0  0  0  0  0  0  0  0  0
   35.6560   31.6840   36.4060 N   0  0  0  0  0  0  0  0  0  0  0  0
   39.3230   26.0970   35.1820 C   0  0  2  0  0  0  0  0  0  0  0  0
   38.7510   27.2400   35.9400 C   0  0  0  0  0  0  0  0  0  0  0  0
   38.5190   27.1140   34.4610 C   0  0  2  0  0  0  0  0  0  0  0  0
   37.6400   23.3020   36.8410 C   0  0  0  0  0  0  0  0  0  0  0  0
   37.6780   22.2500   35.8980 C   0  0  0  0  0  0  0  0  0  0  0  0
   38.3170   22.5630   34.6520 C   0  0  0  0  0  0  0  0  0  0  0  0
   38.8240   23.8010   34.4670 N   0  0  0  0  0  0  0  0  0  0  0  0
   38.7430   24.7710   35.4420 C   0  0  0  0  0  0  0  0  0  0  0  0
   38.1440   24.5190   36.6450 N   0  0  0  0  0  0  0  0  0  0  0  0
   37.0331   26.2668   33.2529 H   0  0  0  0  0  0  0  0  0  0  0  0
   36.5651   26.6731   34.9839 H   0  0  0  0  0  0  0  0  0  0  0  0
   36.6390   28.1755   31.5215 H   0  0  0  0  0  0  0  0  0  0  0  0
   35.5277   30.3231   31.0819 H   0  0  0  0  0  0  0  0  0  0  0  0
   34.6995   31.6491   33.0503 H   0  0  0  0  0  0  0  0  0  0  0  0
   32.6978   30.7234   35.5307 H   0  0  0  0  0  0  0  0  0  0  0  0
   32.7525   32.3650   37.6742 H   0  0  0  0  0  0  0  0  0  0  0  0
   35.2701   32.9005   38.0479 H   0  0  0  0  0  0  0  0  0  0  0  0
   40.3279   25.6764   35.0292 H   0  0  0  0  0  0  0  0  0  0  0  0
   37.9221   27.0750   36.6441 H   0  0  0  0  0  0  0  0  0  0  0  0
   39.1568   28.0183   36.6030 H   0  0  0  0  0  0  0  0  0  0  0  0
   38.7253   27.6463   33.5207 H   0  0  0  0  0  0  0  0  0  0  0  0
   37.1582   23.1005   37.8091 H   0  0  0  0  0  0  0  0  0  0  0  0
   37.2473   21.2592   36.1050 H   0  0  0  0  0  0  0  0  0  0  0  0
   38.3929   21.8051   33.8584 H   0  0  0  0  0  0  0  0  0  0  0  0
  1 15  1  0
  2  1  1  0
  2  7  1  0
  3  2  2  0
  4  3  1  0
  4  5  2  0
  5  6  1  0
  6  7  2  0
  6  8  1  0
  8  9  1  0
  8 12  2  0
  9 10  2  0
 10 11  1  0
 12 11  1  0
 13 20  1  0
 13 14  1  0
 15 13  1  0
 15 14  1  0
 17 16  2  0
 18 17  1  0
 19 18  2  0
 19 20  1  0
 20 21  2  0
 21 16  1  0
  1 22  1  0
  1 23  1  0
  3 24  1  0
  4 25  1  0
  5 26  1  0
  9 27  1  0
 10 28  1  0
 11 29  1  0
 13 30  1  6
 14 31  1  0
 14 32  1  0
 15 33  1  6
 16 34  1  0
 17 35  1  0
 18 36  1  0
M  ISO  8  22   8  23   8  24  14  25  14  26  14  27  14  28  14  29   9
M  ISO  7  30  13  31  13  32  13  33  13  34  14  35  14  36  14
M  END
>  <minimizedAffinity>  (1) 
-5.74982357

>  <minimizedRMSD>  (1) 
5.72948456

$$$$
