
     RDKit          3D

 39 42  0  0  1  0  0  0  0  0999 V2000
   37.8950   26.0530   34.5210 C   0  0  0  0  0  0  0  0  0  0  0  0
   37.2510   27.1360   33.7460 C   0  0  0  0  0  0  0  0  0  0  0  0
   37.1840   27.3410   32.3830 C   0  0  0  0  0  0  0  0  0  0  0  0
   36.5410   28.4010   31.7940 C   0  0  0  0  0  0  0  0  0  0  0  0
   35.9290   29.3130   32.6390 C   0  0  0  0  0  0  0  0  0  0  0  0
   36.0120   29.0870   33.9860 C   0  0  0  0  0  0  0  0  0  0  0  0
   36.6410   28.0490   34.5510 N   0  0  0  0  0  0  0  0  0  0  0  0
   35.3630   30.0570   34.8690 C   0  0  0  0  0  0  0  0  0  0  0  0
   33.9780   30.0480   34.9390 C   0  0  0  0  0  0  0  0  0  0  0  0
   33.2720   30.9240   35.7430 C   0  0  0  0  0  0  0  0  0  0  0  0
   33.9480   31.8500   36.5120 C   0  0  0  0  0  0  0  0  0  0  0  0
   35.3260   31.8780   36.4590 C   0  0  0  0  0  0  0  0  0  0  0  0
   35.9830   30.9840   35.6420 C   0  0  0  0  0  0  0  0  0  0  0  0
   38.1520   23.4280   34.5440 C   0  0  2  0  0  0  0  0  0  0  0  0
   39.1820   24.0770   33.6870 C   0  0  0  0  0  0  0  0  0  0  0  0
   37.8430   24.7240   33.8880 C   0  0  2  0  0  0  0  0  0  0  0  0
   39.8100   22.8650   37.7700 C   0  0  0  0  0  0  0  0  0  0  0  0
   38.9150   23.3800   38.7330 C   0  0  0  0  0  0  0  0  0  0  0  0
   37.7080   23.9360   38.2020 C   0  0  0  0  0  0  0  0  0  0  0  0
   37.5140   23.9310   36.8660 N   0  0  0  0  0  0  0  0  0  0  0  0
   38.4340   23.4110   35.9930 C   0  0  0  0  0  0  0  0  0  0  0  0
   39.6010   22.8690   36.4570 N   0  0  0  0  0  0  0  0  0  0  0  0
   38.9517   26.3202   34.6690 H   0  0  0  0  0  0  0  0  0  0  0  0
   37.3319   25.9694   35.4622 H   0  0  0  0  0  0  0  0  0  0  0  0
   37.6771   26.6085   31.7270 H   0  0  0  0  0  0  0  0  0  0  0  0
   36.5128   28.5211   30.7009 H   0  0  0  0  0  0  0  0  0  0  0  0
   35.3950   30.1883   32.2407 H   0  0  0  0  0  0  0  0  0  0  0  0
   33.4211   29.3179   34.3333 H   0  0  0  0  0  0  0  0  0  0  0  0
   32.1731   30.8830   35.7698 H   0  0  0  0  0  0  0  0  0  0  0  0
   33.3978   32.5526   37.1552 H   0  0  0  0  0  0  0  0  0  0  0  0
   35.8926   32.6040   37.0606 H   0  0  0  0  0  0  0  0  0  0  0  0
   37.0819   31.0244   35.6146 H   0  0  0  0  0  0  0  0  0  0  0  0
   37.6445   22.4524   34.5710 H   0  0  0  0  0  0  0  0  0  0  0  0
   39.4423   23.6403   32.7115 H   0  0  0  0  0  0  0  0  0  0  0  0
   40.2279   24.3889   33.8245 H   0  0  0  0  0  0  0  0  0  0  0  0
   36.9585   25.0367   33.3136 H   0  0  0  0  0  0  0  0  0  0  0  0
   40.7514   22.4274   38.1336 H   0  0  0  0  0  0  0  0  0  0  0  0
   39.1296   23.3556   39.8116 H   0  0  0  0  0  0  0  0  0  0  0  0
   36.9481   24.3619   38.8737 H   0  0  0  0  0  0  0  0  0  0  0  0
  2  1  1  0
  2  7  1  0
  3  2  2  0
  4  3  1  0
  4  5  2  0
  5  6  1  0
  6  7  2  0
  6  8  1  0
  8  9  2  0
  8 13  1  0
  9 10  1  0
 10 11  2  0
 12 11  1  0
 13 12  2  0
 14 21  1  0
 15 16  1  0
 15 14  1  0
 16  1  1  0
 16 14  1  0
 17 18  2  0
 19 18  1  0
 20 19  2  0
 21 22  2  0
 21 20  1  0
 22 17  1  0
  1 23  1  0
  1 24  1  0
  3 25  1  0
  4 26  1  0
  5 27  1  0
  9 28  1  0
 10 29  1  0
 11 30  1  0
 12 31  1  0
 13 32  1  0
 14 33  1  6
 15 34  1  0
 15 35  1  0
 16 36  1  6
 17 37  1  0
 18 38  1  0
 19 39  1  0
M  ISO  8  23   8  24   8  25  14  26  14  27  14  28  14  29  14  30  14
M  ISO  8  31  14  32  14  33  13  34  13  35  13  36  13  37  14  38  14
M  ISO  1  39  14
M  END
>  <minimizedAffinity>  (1) 
-5.9397397

>  <minimizedRMSD>  (1) 
5.73515224

$$$$
