
     RDKit          3D

 39 42  0  0  1  0  0  0  0  0999 V2000
   37.9270   26.0400   34.4330 C   0  0  0  0  0  0  0  0  0  0  0  0
   37.3060   27.1280   33.6490 C   0  0  0  0  0  0  0  0  0  0  0  0
   37.3190   27.3850   32.3110 C   0  0  0  0  0  0  0  0  0  0  0  0
   36.6980   28.4480   31.7030 C   0  0  0  0  0  0  0  0  0  0  0  0
   36.0170   29.3070   32.5240 C   0  0  0  0  0  0  0  0  0  0  0  0
   36.0040   29.0450   33.8830 C   0  0  0  0  0  0  0  0  0  0  0  0
   36.6280   27.9900   34.4340 N   0  0  0  0  0  0  0  0  0  0  0  0
   35.2750   29.9640   34.7570 C   0  0  0  0  0  0  0  0  0  0  0  0
   33.9250   30.0160   34.9200 C   0  0  0  0  0  0  0  0  0  0  0  0
   33.2740   30.8890   35.7470 C   0  0  0  0  0  0  0  0  0  0  0  0
   34.0090   31.7940   36.4830 C   0  0  0  0  0  0  0  0  0  0  0  0
   35.3770   31.8060   36.3750 C   0  0  0  0  0  0  0  0  0  0  0  0
   35.9750   30.9010   35.5240 C   0  0  0  0  0  0  0  0  0  0  0  0
   38.1390   23.4120   34.5100 C   0  0  2  0  0  0  0  0  0  0  0  0
   39.1540   24.0320   33.6190 C   0  0  0  0  0  0  0  0  0  0  0  0
   37.8270   24.6970   33.8370 C   0  0  2  0  0  0  0  0  0  0  0  0
   39.8420   22.8690   37.7050 C   0  0  0  0  0  0  0  0  0  0  0  0
   38.9570   23.3940   38.6750 C   0  0  0  0  0  0  0  0  0  0  0  0
   37.7380   23.9540   38.1630 C   0  0  0  0  0  0  0  0  0  0  0  0
   37.5260   23.9390   36.8260 N   0  0  0  0  0  0  0  0  0  0  0  0
   38.4390   23.4080   35.9530 C   0  0  0  0  0  0  0  0  0  0  0  0
   39.6150   22.8640   36.3940 N   0  0  0  0  0  0  0  0  0  0  0  0
   38.9938   26.2776   34.5578 H   0  0  0  0  0  0  0  0  0  0  0  0
   37.3712   25.9936   35.3811 H   0  0  0  0  0  0  0  0  0  0  0  0
   37.8710   26.6851   31.6665 H   0  0  0  0  0  0  0  0  0  0  0  0
   36.7449   28.6015   30.6148 H   0  0  0  0  0  0  0  0  0  0  0  0
   35.4935   30.1831   32.1137 H   0  0  0  0  0  0  0  0  0  0  0  0
   33.3136   29.3048   34.3453 H   0  0  0  0  0  0  0  0  0  0  0  0
   32.1769   30.8695   35.8242 H   0  0  0  0  0  0  0  0  0  0  0  0
   33.5013   32.5030   37.1535 H   0  0  0  0  0  0  0  0  0  0  0  0
   35.9816   32.5202   36.9532 H   0  0  0  0  0  0  0  0  0  0  0  0
   37.0719   30.9169   35.4431 H   0  0  0  0  0  0  0  0  0  0  0  0
   37.6260   22.4406   34.5662 H   0  0  0  0  0  0  0  0  0  0  0  0
   39.3876   23.5735   32.6468 H   0  0  0  0  0  0  0  0  0  0  0  0
   40.2058   24.3353   33.7269 H   0  0  0  0  0  0  0  0  0  0  0  0
   36.9267   25.0047   33.2849 H   0  0  0  0  0  0  0  0  0  0  0  0
   40.7873   22.4328   38.0603 H   0  0  0  0  0  0  0  0  0  0  0  0
   39.1872   23.3747   39.7505 H   0  0  0  0  0  0  0  0  0  0  0  0
   36.9906   24.3870   38.8442 H   0  0  0  0  0  0  0  0  0  0  0  0
  2  1  1  0
  2  7  1  0
  3  2  2  0
  4  3  1  0
  4  5  2  0
  5  6  1  0
  6  7  2  0
  6  8  1  0
  8  9  2  0
  8 13  1  0
  9 10  1  0
 10 11  2  0
 12 11  1  0
 13 12  2  0
 14 21  1  0
 15 16  1  0
 15 14  1  0
 16  1  1  0
 16 14  1  0
 17 18  2  0
 19 18  1  0
 20 19  2  0
 21 22  2  0
 21 20  1  0
 22 17  1  0
  1 23  1  0
  1 24  1  0
  3 25  1  0
  4 26  1  0
  5 27  1  0
  9 28  1  0
 10 29  1  0
 11 30  1  0
 12 31  1  0
 13 32  1  0
 14 33  1  6
 15 34  1  0
 15 35  1  0
 16 36  1  6
 17 37  1  0
 18 38  1  0
 19 39  1  0
M  ISO  8  23   8  24   8  25  14  26  14  27  14  28  14  29  14  30  14
M  ISO  8  31  14  32  14  33  13  34  13  35  13  36  13  37  14  38  14
M  ISO  1  39  14
M  END
>  <minimizedAffinity>  (1) 
-5.90852404

>  <minimizedRMSD>  (1) 
5.76252222

$$$$
