
     RDKit          3D

 39 42  0  0  1  0  0  0  0  0999 V2000
   36.5890   25.7730   32.2210 C   0  0  0  0  0  0  0  0  0  0  0  0
   36.4610   27.2440   32.1930 C   0  0  0  0  0  0  0  0  0  0  0  0
   36.0130   28.1300   33.1200 C   0  0  0  0  0  0  0  0  0  0  0  0
   35.9340   29.4790   32.9820 C   0  0  0  0  0  0  0  0  0  0  0  0
   36.3590   29.9850   31.7670 C   0  0  0  0  0  0  0  0  0  0  0  0
   36.8200   29.0880   30.8100 C   0  0  0  0  0  0  0  0  0  0  0  0
   36.8750   27.7630   31.0020 N   0  0  0  0  0  0  0  0  0  0  0  0
   37.2370   29.6960   29.5890 N   0  0  0  0  0  0  0  0  0  0  0  0
   36.8160   30.9440   29.3100 C   0  0  0  0  0  0  0  0  0  0  0  0
   37.2160   31.5380   28.1310 C   0  0  0  0  0  0  0  0  0  0  0  0
   38.0350   30.7650   27.3330 C   0  0  0  0  0  0  0  0  0  0  0  0
   38.4280   31.2770   26.2330 O   0  0  0  0  0  0  0  0  0  0  0  0
   38.4690   29.5160   27.5930 N   0  0  0  0  0  0  0  0  0  0  0  0
   38.0390   28.9850   28.7730 C   0  0  0  0  0  0  0  0  0  0  0  0
   38.4140   27.8160   29.0670 O   0  0  0  0  0  0  0  0  0  0  0  0
   37.3340   23.7120   30.7490 C   0  0  2  0  0  0  0  0  0  0  0  0
   38.4860   24.5330   31.2070 C   0  0  0  0  0  0  0  0  0  0  0  0
   37.1390   25.1620   31.0010 C   0  0  2  0  0  0  0  0  0  0  0  0
   37.0240   21.5240   33.6830 C   0  0  0  0  0  0  0  0  0  0  0  0
   35.7650   20.8960   33.5330 C   0  0  0  0  0  0  0  0  0  0  0  0
   35.0280   21.2750   32.3620 C   0  0  0  0  0  0  0  0  0  0  0  0
   35.5600   22.1740   31.5060 N   0  0  0  0  0  0  0  0  0  0  0  0
   36.7960   22.7420   31.7250 C   0  0  0  0  0  0  0  0  0  0  0  0
   37.5350   22.4100   32.8280 N   0  0  0  0  0  0  0  0  0  0  0  0
   37.2479   25.5060   33.0604 H   0  0  0  0  0  0  0  0  0  0  0  0
   35.5654   25.3825   32.3193 H   0  0  0  0  0  0  0  0  0  0  0  0
   35.6799   27.7120   34.0814 H   0  0  0  0  0  0  0  0  0  0  0  0
   35.5559   30.1279   33.7857 H   0  0  0  0  0  0  0  0  0  0  0  0
   36.3330   31.0657   31.5637 H   0  0  0  0  0  0  0  0  0  0  0  0
   36.1624   31.4823   30.0122 H   0  0  0  0  0  0  0  0  0  0  0  0
   36.9048   32.5542   27.8473 H   0  0  0  0  0  0  0  0  0  0  0  0
   39.0819   28.9992   26.9464 H   0  0  0  0  0  0  0  0  0  0  0  0
   37.1237   23.0553   29.8920 H   0  0  0  0  0  0  0  0  0  0  0  0
   38.8845   24.4045   32.2242 H   0  0  0  0  0  0  0  0  0  0  0  0
   39.5028   24.7269   30.8349 H   0  0  0  0  0  0  0  0  0  0  0  0
   36.6327   25.9199   30.3851 H   0  0  0  0  0  0  0  0  0  0  0  0
   37.6234   21.2627   34.5675 H   0  0  0  0  0  0  0  0  0  0  0  0
   35.3788   20.1688   34.2624 H   0  0  0  0  0  0  0  0  0  0  0  0
   34.0386   20.8374   32.1631 H   0  0  0  0  0  0  0  0  0  0  0  0
  2  1  1  0
  2  3  2  0
  4  3  1  0
  5  4  2  0
  6  7  2  0
  6  5  1  0
  7  2  1  0
  8  6  1  0
  9  8  1  0
 10  9  2  0
 11 13  1  0
 11 10  1  0
 12 11  2  0
 13 14  1  0
 14 15  2  0
 14  8  1  0
 16 18  1  0
 16 17  1  0
 16 23  1  0
 18 17  1  0
 18  1  1  0
 20 19  2  0
 21 20  1  0
 22 23  1  0
 22 21  2  0
 23 24  2  0
 24 19  1  0
  1 25  1  0
  1 26  1  0
  3 27  1  0
  4 28  1  0
  5 29  1  0
  9 30  1  0
 10 31  1  0
 13 32  1  0
 16 33  1  6
 17 34  1  0
 17 35  1  0
 18 36  1  6
 19 37  1  0
 20 38  1  0
 21 39  1  0
M  ISO  8  25   8  26   8  27  14  28  14  29  14  30  14  31  14  32   9
M  ISO  7  33  13  34  13  35  13  36  13  37  14  38  14  39  14
M  END
>  <minimizedAffinity>  (1) 
-5.11823988

>  <minimizedRMSD>  (1) 
0.782172561

$$$$
