
     RDKit          3D

 36 39  0  0  1  0  0  0  0  0999 V2000
   37.7860   26.1880   34.5230 C   0  0  0  0  0  0  0  0  0  0  0  0
   37.0820   27.2580   33.7840 C   0  0  0  0  0  0  0  0  0  0  0  0
   36.8620   27.4480   32.4560 C   0  0  0  0  0  0  0  0  0  0  0  0
   36.1920   28.4860   31.8820 C   0  0  0  0  0  0  0  0  0  0  0  0
   35.6950   29.4240   32.7480 C   0  0  0  0  0  0  0  0  0  0  0  0
   35.9110   29.2450   34.1110 C   0  0  0  0  0  0  0  0  0  0  0  0
   36.5780   28.2050   34.6250 N   0  0  0  0  0  0  0  0  0  0  0  0
   35.3680   30.2660   35.0290 C   0  0  0  0  0  0  0  0  0  0  0  0
   36.0890   31.1700   35.7790 C   0  0  0  0  0  0  0  0  0  0  0  0
   35.2260   31.9430   36.4980 N   0  0  0  0  0  0  0  0  0  0  0  0
   33.9930   31.4890   36.1670 C   0  0  0  0  0  0  0  0  0  0  0  0
   34.0620   30.4750   35.2790 N   0  0  0  0  0  0  0  0  0  0  0  0
   38.2060   23.5840   34.4590 C   0  0  2  0  0  0  0  0  0  0  0  0
   39.2070   24.3330   33.6530 C   0  0  0  0  0  0  0  0  0  0  0  0
   37.8260   24.8820   33.8460 C   0  0  2  0  0  0  0  0  0  0  0  0
   39.7850   22.9140   37.7070 C   0  0  0  0  0  0  0  0  0  0  0  0
   38.8790   23.4410   38.6560 C   0  0  0  0  0  0  0  0  0  0  0  0
   37.7000   24.0400   38.1130 C   0  0  0  0  0  0  0  0  0  0  0  0
   37.5340   24.0630   36.7730 N   0  0  0  0  0  0  0  0  0  0  0  0
   38.4640   23.5280   35.9130 C   0  0  0  0  0  0  0  0  0  0  0  0
   39.6070   22.9450   36.3870 N   0  0  0  0  0  0  0  0  0  0  0  0
   38.8223   26.5159   34.6918 H   0  0  0  0  0  0  0  0  0  0  0  0
   37.2177   26.0334   35.4521 H   0  0  0  0  0  0  0  0  0  0  0  0
   37.2667   26.6850   31.7748 H   0  0  0  0  0  0  0  0  0  0  0  0
   36.0586   28.5659   30.7930 H   0  0  0  0  0  0  0  0  0  0  0  0
   35.1391   30.2969   32.3752 H   0  0  0  0  0  0  0  0  0  0  0  0
   37.1856   31.2544   35.7950 H   0  0  0  0  0  0  0  0  0  0  0  0
   33.0542   31.8956   36.5711 H   0  0  0  0  0  0  0  0  0  0  0  0
   33.2684   29.9604   34.8713 H   0  0  0  0  0  0  0  0  0  0  0  0
   37.7617   22.5779   34.4370 H   0  0  0  0  0  0  0  0  0  0  0  0
   39.5165   23.9537   32.6679 H   0  0  0  0  0  0  0  0  0  0  0  0
   40.2265   24.7073   33.8276 H   0  0  0  0  0  0  0  0  0  0  0  0
   36.9316   25.1565   33.2674 H   0  0  0  0  0  0  0  0  0  0  0  0
   40.7043   22.4439   38.0864 H   0  0  0  0  0  0  0  0  0  0  0  0
   39.0685   23.3933   39.7385 H   0  0  0  0  0  0  0  0  0  0  0  0
   36.9390   24.4759   38.7771 H   0  0  0  0  0  0  0  0  0  0  0  0
  2  1  1  0
  2  7  1  0
  3  2  2  0
  4  3  1  0
  4  5  2  0
  5  6  1  0
  6  7  2  0
  6  8  1  0
  8 12  1  0
  8  9  2  0
  9 10  1  0
 11 10  2  0
 12 11  1  0
 13 20  1  0
 14 15  1  0
 14 13  1  0
 15 13  1  0
 15  1  1  0
 16 17  2  0
 18 17  1  0
 19 18  2  0
 20 21  2  0
 20 19  1  0
 21 16  1  0
  1 22  1  0
  1 23  1  0
  3 24  1  0
  4 25  1  0
  5 26  1  0
  9 27  1  0
 11 28  1  0
 12 29  1  0
 13 30  1  6
 14 31  1  0
 14 32  1  0
 15 33  1  6
 16 34  1  0
 17 35  1  0
 18 36  1  0
M  ISO  8  22   8  23   8  24  14  25  14  26  14  27  14  28  14  29   9
M  ISO  7  30  13  31  13  32  13  33  13  34  14  35  14  36  14
M  END
>  <minimizedAffinity>  (1) 
-5.20301867

>  <minimizedRMSD>  (1) 
5.49999094

$$$$
