
     RDKit          3D

 37 40  0  0  1  0  0  0  0  0999 V2000
   37.1940   26.8740   33.8970 C   0  0  0  0  0  0  0  0  0  0  0  0
   36.7140   27.8880   32.9360 C   0  0  0  0  0  0  0  0  0  0  0  0
   37.1550   28.2050   31.6720 C   0  0  0  0  0  0  0  0  0  0  0  0
   36.5940   29.1830   30.8830 C   0  0  0  0  0  0  0  0  0  0  0  0
   35.5230   29.8800   31.4100 C   0  0  0  0  0  0  0  0  0  0  0  0
   35.1030   29.5480   32.6680 C   0  0  0  0  0  0  0  0  0  0  0  0
   35.6610   28.5900   33.4250 N   0  0  0  0  0  0  0  0  0  0  0  0
   33.9680   30.2910   33.2210 C   0  0  0  0  0  0  0  0  0  0  0  0
   33.1210   29.8480   34.1790 C   0  0  0  0  0  0  0  0  0  0  0  0
   32.0590   30.5680   34.6840 C   0  0  0  0  0  0  0  0  0  0  0  0
   31.8390   31.8040   34.1900 N   0  0  0  0  0  0  0  0  0  0  0  0
   32.6600   32.2790   33.2370 C   0  0  0  0  0  0  0  0  0  0  0  0
   33.6830   31.5490   32.7710 N   0  0  0  0  0  0  0  0  0  0  0  0
   39.3450   26.1310   35.2320 C   0  0  2  0  0  0  0  0  0  0  0  0
   38.7250   27.3460   35.8210 C   0  0  0  0  0  0  0  0  0  0  0  0
   38.5810   27.0550   34.3580 C   0  0  2  0  0  0  0  0  0  0  0  0
   37.5510   23.5330   37.0970 C   0  0  0  0  0  0  0  0  0  0  0  0
   37.6360   22.3810   36.2820 C   0  0  0  0  0  0  0  0  0  0  0  0
   38.3390   22.5530   35.0630 C   0  0  0  0  0  0  0  0  0  0  0  0
   38.8650   23.7640   34.7640 N   0  0  0  0  0  0  0  0  0  0  0  0
   38.7420   24.8390   35.6020 C   0  0  0  0  0  0  0  0  0  0  0  0
   38.0740   24.7190   36.7880 N   0  0  0  0  0  0  0  0  0  0  0  0
   37.1212   25.8875   33.4158 H   0  0  0  0  0  0  0  0  0  0  0  0
   36.5596   26.9748   34.7899 H   0  0  0  0  0  0  0  0  0  0  0  0
   38.0088   27.6419   31.2670 H   0  0  0  0  0  0  0  0  0  0  0  0
   36.9811   29.4006   29.8766 H   0  0  0  0  0  0  0  0  0  0  0  0
   35.0251   30.6755   30.8362 H   0  0  0  0  0  0  0  0  0  0  0  0
   33.2923   28.8399   34.5844 H   0  0  0  0  0  0  0  0  0  0  0  0
   31.4104   30.1471   35.4664 H   0  0  0  0  0  0  0  0  0  0  0  0
   32.4886   33.2871   32.8316 H   0  0  0  0  0  0  0  0  0  0  0  0
   40.3584   25.7054   35.1878 H   0  0  0  0  0  0  0  0  0  0  0  0
   37.8565   27.2526   36.4895 H   0  0  0  0  0  0  0  0  0  0  0  0
   39.0886   28.1975   36.4148 H   0  0  0  0  0  0  0  0  0  0  0  0
   38.8394   27.4859   33.3795 H   0  0  0  0  0  0  0  0  0  0  0  0
   37.0154   23.4441   38.0537 H   0  0  0  0  0  0  0  0  0  0  0  0
   37.1884   21.4193   36.5731 H   0  0  0  0  0  0  0  0  0  0  0  0
   38.4560   21.7099   34.3663 H   0  0  0  0  0  0  0  0  0  0  0  0
  1 16  1  0
  2  7  1  0
  2  1  1  0
  3  2  2  0
  4  5  2  0
  4  3  1  0
  5  6  1  0
  6  8  1  0
  6  7  2  0
  8  9  2  0
  9 10  1  0
 11 10  2  0
 12 11  1  0
 13  8  1  0
 13 12  2  0
 14 21  1  0
 14 15  1  0
 16 14  1  0
 16 15  1  0
 18 17  2  0
 19 18  1  0
 20 19  2  0
 20 21  1  0
 21 22  2  0
 22 17  1  0
  1 23  1  0
  1 24  1  0
  3 25  1  0
  4 26  1  0
  5 27  1  0
  9 28  1  0
 10 29  1  0
 12 30  1  0
 14 31  1  6
 15 32  1  0
 15 33  1  0
 16 34  1  6
 17 35  1  0
 18 36  1  0
 19 37  1  0
M  ISO  8  23   8  24   8  25  14  26  14  27  14  28  14  29  14  30  14
M  ISO  7  31  13  32  13  33  13  34  13  35  14  36  14  37  14
M  END
>  <minimizedAffinity>  (1) 
-5.02454758

>  <minimizedRMSD>  (1) 
5.16349316

$$$$
