
     RDKit          3D

 32 34  0  0  1  0  0  0  0  0999 V2000
   37.4760   23.3300   30.8030 C   0  0  2  0  0  0  0  0  0  0  0  0
   38.6090   24.1530   31.2980 C   0  0  0  0  0  0  0  0  0  0  0  0
   37.3110   24.8020   30.9220 C   0  0  2  0  0  0  0  0  0  0  0  0
   36.8260   21.3880   33.8470 C   0  0  0  0  0  0  0  0  0  0  0  0
   35.5750   20.7830   33.6220 C   0  0  0  0  0  0  0  0  0  0  0  0
   34.9620   21.0810   32.3680 C   0  0  0  0  0  0  0  0  0  0  0  0
   35.6030   21.8990   31.5070 N   0  0  0  0  0  0  0  0  0  0  0  0
   36.8220   22.4550   31.7900 C   0  0  0  0  0  0  0  0  0  0  0  0
   37.4400   22.1920   32.9820 N   0  0  0  0  0  0  0  0  0  0  0  0
   36.6680   25.5180   32.0360 C   0  0  0  0  0  0  0  0  0  0  0  0
   36.5660   26.9820   31.8620 C   0  0  0  0  0  0  0  0  0  0  0  0
   36.1330   27.9520   32.7440 C   0  0  0  0  0  0  0  0  0  0  0  0
   36.0840   29.2970   32.4500 C   0  0  0  0  0  0  0  0  0  0  0  0
   36.5030   29.6710   31.1770 C   0  0  0  0  0  0  0  0  0  0  0  0
   36.9240   28.6850   30.3290 C   0  0  0  0  0  0  0  0  0  0  0  0
   36.9660   27.3790   30.6300 N   0  0  0  0  0  0  0  0  0  0  0  0
   37.3450   29.1610   29.0130 C   0  0  0  0  0  0  0  0  0  0  0  0
   37.3140   30.3600   28.7170 O   0  0  0  0  0  0  0  0  0  0  0  0
   37.8070   28.3140   28.0140 O   0  0  0  0  0  0  0  0  0  0  0  0
   37.3192   22.6122   29.9844 H   0  0  0  0  0  0  0  0  0  0  0  0
   38.9108   24.0962   32.3543 H   0  0  0  0  0  0  0  0  0  0  0  0
   39.6610   24.2872   31.0058 H   0  0  0  0  0  0  0  0  0  0  0  0
   36.8940   25.5255   30.2060 H   0  0  0  0  0  0  0  0  0  0  0  0
   37.3304   21.1823   34.8026 H   0  0  0  0  0  0  0  0  0  0  0  0
   35.1009   20.1237   34.3641 H   0  0  0  0  0  0  0  0  0  0  0  0
   33.9835   20.6511   32.1077 H   0  0  0  0  0  0  0  0  0  0  0  0
   35.6508   25.1172   32.1573 H   0  0  0  0  0  0  0  0  0  0  0  0
   37.3089   25.3570   32.9154 H   0  0  0  0  0  0  0  0  0  0  0  0
   35.8067   27.6307   33.7441 H   0  0  0  0  0  0  0  0  0  0  0  0
   35.7318   30.0370   33.1837 H   0  0  0  0  0  0  0  0  0  0  0  0
   36.4957   30.7253   30.8634 H   0  0  0  0  0  0  0  0  0  0  0  0
   38.0809   28.6850   27.1380 H   0  0  0  0  0  0  0  0  0  0  0  0
  1  3  1  0
  1  2  1  0
  1  8  1  0
  3  2  1  0
  3 10  1  0
  5  4  2  0
  6  5  1  0
  7  8  1  0
  7  6  2  0
  8  9  2  0
  9  4  1  0
 11 10  1  0
 11 12  2  0
 13 12  1  0
 14 13  2  0
 15 16  2  0
 15 14  1  0
 16 11  1  0
 17 15  1  0
 18 17  2  0
 19 17  1  0
  1 20  1  6
  2 21  1  0
  2 22  1  0
  3 23  1  6
  4 24  1  0
  5 25  1  0
  6 26  1  0
 10 27  1  0
 10 28  1  0
 12 29  1  0
 13 30  1  0
 14 31  1  0
 19 32  1  0
M  ISO  8  20  13  21  13  22  13  23  13  24  14  25  14  26  14  27   8
M  ISO  5  28   8  29  14  30  14  31  14  32   3
M  END
>  <minimizedAffinity>  (1) 
-4.46467686

>  <minimizedRMSD>  (1) 
0.323230177

$$$$
