
     RDKit          3D

 35 38  0  0  0  0  0  0  0  0999 V2000
   38.2560   25.5710   35.3340 C   0  0  0  0  0  0  0  0  0  0  0  0
   37.9980   26.8810   35.7450 C   0  0  0  0  0  0  0  0  0  0  0  0
   37.3640   27.7140   34.8880 C   0  0  0  0  0  0  0  0  0  0  0  0
   37.0000   27.2020   33.6200 C   0  0  0  0  0  0  0  0  0  0  0  0
   37.5960   25.4460   33.6640 S   0  0  0  0  0  0  0  0  0  0  0  0
   38.4110   24.0550   37.3270 C   0  0  0  0  0  0  0  0  0  0  0  0
   38.9080   24.5410   36.0860 C   0  0  0  0  0  0  0  0  0  0  0  0
   40.0610   24.0170   35.5670 C   0  0  0  0  0  0  0  0  0  0  0  0
   40.6910   23.0380   36.2710 N   0  0  0  0  0  0  0  0  0  0  0  0
   40.2010   22.5820   37.4620 C   0  0  0  0  0  0  0  0  0  0  0  0
   39.0670   23.0970   37.9720 N   0  0  0  0  0  0  0  0  0  0  0  0
   36.3600   27.7670   32.5200 C   0  0  0  0  0  0  0  0  0  0  0  0
   35.6060   27.0470   31.8140 O   0  0  0  0  0  0  0  0  0  0  0  0
   36.3610   29.1110   31.9560 C   0  0  0  0  0  0  0  0  0  0  0  0
   35.8400   30.2110   32.6460 C   0  0  0  0  0  0  0  0  0  0  0  0
   35.8250   31.4970   32.1570 C   0  0  0  0  0  0  0  0  0  0  0  0
   36.3520   31.7470   30.9110 C   0  0  0  0  0  0  0  0  0  0  0  0
   36.8810   30.7040   30.1810 C   0  0  0  0  0  0  0  0  0  0  0  0
   37.4020   30.9750   28.9330 C   0  0  0  0  0  0  0  0  0  0  0  0
   37.9430   29.9650   28.1610 C   0  0  0  0  0  0  0  0  0  0  0  0
   37.9350   28.7010   28.6870 C   0  0  0  0  0  0  0  0  0  0  0  0
   37.4070   28.4590   29.9400 C   0  0  0  0  0  0  0  0  0  0  0  0
   36.8660   29.4390   30.7250 C   0  0  0  0  0  0  0  0  0  0  0  0
   38.3036   27.2275   36.7433 H   0  0  0  0  0  0  0  0  0  0  0  0
   37.1391   28.7539   35.1674 H   0  0  0  0  0  0  0  0  0  0  0  0
   37.4856   24.4715   37.7515 H   0  0  0  0  0  0  0  0  0  0  0  0
   40.4660   24.3766   34.6096 H   0  0  0  0  0  0  0  0  0  0  0  0
   40.7359   21.7901   38.0067 H   0  0  0  0  0  0  0  0  0  0  0  0
   35.4144   30.0362   33.6451 H   0  0  0  0  0  0  0  0  0  0  0  0
   35.3969   32.3151   32.7549 H   0  0  0  0  0  0  0  0  0  0  0  0
   36.3513   32.7680   30.5017 H   0  0  0  0  0  0  0  0  0  0  0  0
   37.3866   32.0055   28.5485 H   0  0  0  0  0  0  0  0  0  0  0  0
   38.3629   30.1680   27.1648 H   0  0  0  0  0  0  0  0  0  0  0  0
   38.3544   27.8676   28.1042 H   0  0  0  0  0  0  0  0  0  0  0  0
   37.4225   27.4286   30.3248 H   0  0  0  0  0  0  0  0  0  0  0  0
  1  2  2  0
  1  7  1  0
  3  2  1  0
  4  5  1  0
  4  3  2  0
  5  1  1  0
  6 11  2  0
  7  6  1  0
  8  7  2  0
  8  9  1  0
  9 10  2  0
 10 11  1  0
 12  4  1  0
 13 12  2  0
 14 12  1  0
 14 15  2  0
 16 15  1  0
 17 16  2  0
 18 23  2  0
 18 17  1  0
 19 18  1  0
 20 21  1  0
 20 19  2  0
 21 22  2  0
 22 23  1  0
 23 14  1  0
  2 24  1  0
  3 25  1  0
  6 26  1  0
  8 27  1  0
 10 28  1  0
 15 29  1  0
 16 30  1  0
 17 31  1  0
 19 32  1  0
 20 33  1  0
 21 34  1  0
 22 35  1  0
M  ISO  8  24  14  25  14  26  14  27  14  28  14  29  14  30  14  31  14
M  ISO  4  32  14  33  14  34  14  35  14
M  END
>  <minimizedAffinity>  (1) 
-5.87860346

>  <minimizedRMSD>  (1) 
0.973583817

$$$$
