
     RDKit          3D

 19 20  0  0  0  0  0  0  0  0999 V2000
   38.0840   25.5890   35.3480 C   0  0  0  0  0  0  0  0  0  0  0  0
   37.7710   26.9290   35.6520 C   0  0  0  0  0  0  0  0  0  0  0  0
   37.2520   27.7190   34.6790 C   0  0  0  0  0  0  0  0  0  0  0  0
   37.0540   27.1320   33.3940 C   0  0  0  0  0  0  0  0  0  0  0  0
   37.6440   25.3780   33.6210 S   0  0  0  0  0  0  0  0  0  0  0  0
   38.1030   24.3190   37.5050 C   0  0  0  0  0  0  0  0  0  0  0  0
   38.6320   24.6170   36.2290 C   0  0  0  0  0  0  0  0  0  0  0  0
   39.7530   23.9410   35.7890 C   0  0  0  0  0  0  0  0  0  0  0  0
   40.2930   23.0100   36.6240 N   0  0  0  0  0  0  0  0  0  0  0  0
   39.7720   22.7360   37.8460 C   0  0  0  0  0  0  0  0  0  0  0  0
   38.6890   23.3940   38.2640 N   0  0  0  0  0  0  0  0  0  0  0  0
   36.5580   27.6110   32.1840 C   0  0  0  0  0  0  0  0  0  0  0  0
   35.6170   27.0130   31.6230 O   0  0  0  0  0  0  0  0  0  0  0  0
   37.9448   27.3280   36.6622 H   0  0  0  0  0  0  0  0  0  0  0  0
   36.9941   28.7706   34.8732 H   0  0  0  0  0  0  0  0  0  0  0  0
   37.2108   24.8487   37.8702 H   0  0  0  0  0  0  0  0  0  0  0  0
   40.1930   24.1465   34.8020 H   0  0  0  0  0  0  0  0  0  0  0  0
   40.2396   21.9757   38.4888 H   0  0  0  0  0  0  0  0  0  0  0  0
   36.9931   28.5112   31.7253 H   0  0  0  0  0  0  0  0  0  0  0  0
  1  2  2  0
  1  7  1  0
  3  2  1  0
  4  5  1  0
  4  3  2  0
  5  1  1  0
  6 11  2  0
  7  6  1  0
  8  7  2  0
  8  9  1  0
  9 10  2  0
 10 11  1  0
 12  4  1  0
 13 12  2  0
  2 14  1  0
  3 15  1  0
  6 16  1  0
  8 17  1  0
 10 18  1  0
 12 19  1  0
M  ISO  6  14  14  15  14  16  14  17  14  18  14  19   6
M  END
>  <minimizedAffinity>  (1) 
-3.81094503

>  <minimizedRMSD>  (1) 
0.320118904

$$$$
