
     RDKit          3D

 33 35  0  0  0  0  0  0  0  0999 V2000
   38.0430   25.4010   35.1630 C   0  0  0  0  0  0  0  0  0  0  0  0
   37.5850   26.7020   35.3790 C   0  0  0  0  0  0  0  0  0  0  0  0
   37.0700   27.3860   34.3310 C   0  0  0  0  0  0  0  0  0  0  0  0
   37.0290   26.7390   33.0770 C   0  0  0  0  0  0  0  0  0  0  0  0
   37.7640   25.0740   33.4300 S   0  0  0  0  0  0  0  0  0  0  0  0
   38.0470   24.2850   37.4120 C   0  0  0  0  0  0  0  0  0  0  0  0
   38.6180   24.5140   36.1300 C   0  0  0  0  0  0  0  0  0  0  0  0
   39.7750   23.8670   35.7810 C   0  0  0  0  0  0  0  0  0  0  0  0
   40.3060   23.0270   36.7170 N   0  0  0  0  0  0  0  0  0  0  0  0
   39.7610   22.8130   37.9300 C   0  0  0  0  0  0  0  0  0  0  0  0
   38.6440   23.4450   38.2550 N   0  0  0  0  0  0  0  0  0  0  0  0
   36.5860   27.1020   31.7980 C   0  0  0  0  0  0  0  0  0  0  0  0
   35.4450   26.7970   31.4240 O   0  0  0  0  0  0  0  0  0  0  0  0
   37.4030   27.8330   30.8570 N   0  0  0  0  0  0  0  0  0  0  0  0
   38.8650   27.7660   30.7780 C   0  0  0  0  0  0  0  0  0  0  0  0
   39.1910   27.0710   29.4750 C   0  0  0  0  0  0  0  0  0  0  0  0
   38.4800   27.6570   28.3590 N   0  0  0  0  0  0  0  0  0  0  0  0
   37.7870   28.8710   28.7200 C   0  0  0  0  0  0  0  0  0  0  0  0
   36.8530   28.7240   29.8770 C   0  0  0  0  0  0  0  0  0  0  0  0
   37.6414   27.1603   36.3774 H   0  0  0  0  0  0  0  0  0  0  0  0
   36.6954   28.4131   34.4524 H   0  0  0  0  0  0  0  0  0  0  0  0
   37.1191   24.7980   37.7050 H   0  0  0  0  0  0  0  0  0  0  0  0
   40.2498   24.0165   34.8001 H   0  0  0  0  0  0  0  0  0  0  0  0
   40.2377   22.1223   38.6411 H   0  0  0  0  0  0  0  0  0  0  0  0
   39.2932   28.7792   30.7862 H   0  0  0  0  0  0  0  0  0  0  0  0
   39.2861   27.2220   31.6363 H   0  0  0  0  0  0  0  0  0  0  0  0
   40.2723   27.1515   29.2897 H   0  0  0  0  0  0  0  0  0  0  0  0
   38.8812   26.0192   29.5625 H   0  0  0  0  0  0  0  0  0  0  0  0
   37.7913   26.9746   28.0113 H   0  0  0  0  0  0  0  0  0  0  0  0
   38.5376   29.6328   28.9776 H   0  0  0  0  0  0  0  0  0  0  0  0
   37.1724   29.1532   27.8524 H   0  0  0  0  0  0  0  0  0  0  0  0
   36.6879   29.7098   30.3363 H   0  0  0  0  0  0  0  0  0  0  0  0
   35.9005   28.3099   29.5147 H   0  0  0  0  0  0  0  0  0  0  0  0
  1  2  2  0
  1  7  1  0
  3  2  1  0
  4  5  1  0
  4  3  2  0
  5  1  1  0
  6 11  2  0
  7  6  1  0
  8  7  2  0
  8  9  1  0
  9 10  2  0
 10 11  1  0
 12  4  1  0
 13 12  2  0
 14 12  1  0
 15 14  1  0
 16 15  1  0
 17 18  1  0
 17 16  1  0
 18 19  1  0
 19 14  1  0
  2 20  1  0
  3 21  1  0
  6 22  1  0
  8 23  1  0
 10 24  1  0
 15 25  1  0
 15 26  1  0
 16 27  1  0
 16 28  1  0
 17 29  1  0
 18 30  1  0
 18 31  1  0
 19 32  1  0
 19 33  1  0
M  ISO  8  20  14  21  14  22  14  23  14  24  14  25  13  26  13  27  13
M  ISO  6  28  13  29   5  30  13  31  13  32  13  33  13
M  END
>  <minimizedAffinity>  (1) 
-5.21668434

>  <minimizedRMSD>  (1) 
1.00324869

$$$$
