
     RDKit          3D

 34 36  0  0  0  0  0  0  0  0999 V2000
   38.3190   25.6470   35.5090 C   0  0  0  0  0  0  0  0  0  0  0  0
   38.1760   26.9670   35.9410 C   0  0  0  0  0  0  0  0  0  0  0  0
   37.5470   27.8470   35.1280 C   0  0  0  0  0  0  0  0  0  0  0  0
   37.0720   27.3730   33.8840 C   0  0  0  0  0  0  0  0  0  0  0  0
   37.5520   25.5620   33.8790 S   0  0  0  0  0  0  0  0  0  0  0  0
   38.4500   24.0620   37.4440 C   0  0  0  0  0  0  0  0  0  0  0  0
   38.9400   24.5720   36.2100 C   0  0  0  0  0  0  0  0  0  0  0  0
   40.0600   24.0130   35.6550 C   0  0  0  0  0  0  0  0  0  0  0  0
   40.6690   22.9860   36.3010 N   0  0  0  0  0  0  0  0  0  0  0  0
   40.1870   22.5070   37.4860 C   0  0  0  0  0  0  0  0  0  0  0  0
   39.0870   23.0520   38.0360 N   0  0  0  0  0  0  0  0  0  0  0  0
   36.3960   27.9630   32.8100 C   0  0  0  0  0  0  0  0  0  0  0  0
   36.3850   27.4130   31.7010 O   0  0  0  0  0  0  0  0  0  0  0  0
   35.6970   29.2160   32.9640 N   0  0  0  0  0  0  0  0  0  0  0  0
   35.8830   30.4970   32.2930 C   0  0  0  0  0  0  0  0  0  0  0  0
   34.6760   30.7070   31.4210 C   0  0  0  0  0  0  0  0  0  0  0  0
   33.3660   30.5360   32.1000 C   0  0  0  0  0  0  0  0  0  0  0  0
   33.3290   29.4580   33.1440 C   0  0  0  0  0  0  0  0  0  0  0  0
   34.5990   29.3420   33.9270 C   0  0  0  0  0  0  0  0  0  0  0  0
   38.5656   27.2842   36.9196 H   0  0  0  0  0  0  0  0  0  0  0  0
   37.4098   28.8971   35.4255 H   0  0  0  0  0  0  0  0  0  0  0  0
   37.5521   24.4979   37.9063 H   0  0  0  0  0  0  0  0  0  0  0  0
   40.4595   24.3897   34.7019 H   0  0  0  0  0  0  0  0  0  0  0  0
   40.6990   21.6747   37.9911 H   0  0  0  0  0  0  0  0  0  0  0  0
   35.9603   31.3058   33.0346 H   0  0  0  0  0  0  0  0  0  0  0  0
   36.8075   30.5010   31.6969 H   0  0  0  0  0  0  0  0  0  0  0  0
   34.7259   29.9859   30.5919 H   0  0  0  0  0  0  0  0  0  0  0  0
   34.7151   31.7567   31.0944 H   0  0  0  0  0  0  0  0  0  0  0  0
   33.1054   31.4889   32.5839 H   0  0  0  0  0  0  0  0  0  0  0  0
   32.6523   30.2332   31.3197 H   0  0  0  0  0  0  0  0  0  0  0  0
   32.5081   29.6777   33.8425 H   0  0  0  0  0  0  0  0  0  0  0  0
   33.1846   28.5028   32.6180 H   0  0  0  0  0  0  0  0  0  0  0  0
   34.5622   28.4530   34.5738 H   0  0  0  0  0  0  0  0  0  0  0  0
   34.7429   30.2249   34.5672 H   0  0  0  0  0  0  0  0  0  0  0  0
  1  2  2  0
  1  7  1  0
  3  2  1  0
  4  3  2  0
  5  4  1  0
  5  1  1  0
  6 11  2  0
  7  6  1  0
  8  7  2  0
  8  9  1  0
  9 10  2  0
 10 11  1  0
 12 14  1  0
 12  4  1  0
 13 12  2  0
 14 19  1  0
 15 14  1  0
 16 17  1  0
 16 15  1  0
 17 18  1  0
 18 19  1  0
  2 20  1  0
  3 21  1  0
  6 22  1  0
  8 23  1  0
 10 24  1  0
 15 25  1  0
 15 26  1  0
 16 27  1  0
 16 28  1  0
 17 29  1  0
 17 30  1  0
 18 31  1  0
 18 32  1  0
 19 33  1  0
 19 34  1  0
M  ISO  8  20  14  21  14  22  14  23  14  24  14  25  13  26  13  27  13
M  ISO  7  28  13  29  13  30  13  31  13  32  13  33  13  34  13
M  END
>  <minimizedAffinity>  (1) 
-4.92623711

>  <minimizedRMSD>  (1) 
1.75637507

$$$$
