
     RDKit          3D

 29 31  0  0  0  0  0  0  0  0999 V2000
   37.9260   25.1950   34.7960 C   0  0  0  0  0  0  0  0  0  0  0  0
   37.5410   26.5400   34.8720 C   0  0  0  0  0  0  0  0  0  0  0  0
   36.9890   27.1280   33.7850 C   0  0  0  0  0  0  0  0  0  0  0  0
   36.8340   26.3250   32.6190 C   0  0  0  0  0  0  0  0  0  0  0  0
   37.5150   24.6610   33.1220 S   0  0  0  0  0  0  0  0  0  0  0  0
   37.8820   24.1710   37.0850 C   0  0  0  0  0  0  0  0  0  0  0  0
   38.5100   24.4180   35.8310 C   0  0  0  0  0  0  0  0  0  0  0  0
   39.7660   23.8850   35.5680 C   0  0  0  0  0  0  0  0  0  0  0  0
   40.3210   23.1370   36.5730 N   0  0  0  0  0  0  0  0  0  0  0  0
   39.7260   22.9080   37.7500 C   0  0  0  0  0  0  0  0  0  0  0  0
   38.5310   23.4250   37.9810 N   0  0  0  0  0  0  0  0  0  0  0  0
   36.3570   26.5740   31.3370 C   0  0  0  0  0  0  0  0  0  0  0  0
   35.4460   25.8800   30.8660 O   0  0  0  0  0  0  0  0  0  0  0  0
   37.0700   27.6970   30.7250 C   0  0  0  0  0  0  0  0  0  0  0  0
   36.4640   28.9490   30.5130 C   0  0  0  0  0  0  0  0  0  0  0  0
   37.0980   30.0230   29.9230 C   0  0  0  0  0  0  0  0  0  0  0  0
   38.4290   29.8680   29.5060 C   0  0  0  0  0  0  0  0  0  0  0  0
   39.0520   28.6640   29.6940 C   0  0  0  0  0  0  0  0  0  0  0  0
   38.3970   27.5930   30.2890 C   0  0  0  0  0  0  0  0  0  0  0  0
   37.6853   27.1099   35.8017 H   0  0  0  0  0  0  0  0  0  0  0  0
   36.6734   28.1816   33.8015 H   0  0  0  0  0  0  0  0  0  0  0  0
   36.8876   24.5845   37.3092 H   0  0  0  0  0  0  0  0  0  0  0  0
   40.2830   24.0532   34.6117 H   0  0  0  0  0  0  0  0  0  0  0  0
   40.2253   22.2968   38.5162 H   0  0  0  0  0  0  0  0  0  0  0  0
   35.4211   29.0795   30.8375 H   0  0  0  0  0  0  0  0  0  0  0  0
   36.5722   30.9790   29.7827 H   0  0  0  0  0  0  0  0  0  0  0  0
   38.9652   30.7043   29.0336 H   0  0  0  0  0  0  0  0  0  0  0  0
   40.0950   28.5415   29.3666 H   0  0  0  0  0  0  0  0  0  0  0  0
   38.9329   26.6414   30.4207 H   0  0  0  0  0  0  0  0  0  0  0  0
  1  2  2  0
  1  7  1  0
  3  2  1  0
  4  5  1  0
  4  3  2  0
  5  1  1  0
  6 11  2  0
  7  6  1  0
  8  7  2  0
  8  9  1  0
  9 10  2  0
 10 11  1  0
 12  4  1  0
 13 12  2  0
 14 12  1  0
 15 14  2  0
 16 15  1  0
 17 18  1  0
 17 16  2  0
 18 19  2  0
 19 14  1  0
  2 20  1  0
  3 21  1  0
  6 22  1  0
  8 23  1  0
 10 24  1  0
 15 25  1  0
 16 26  1  0
 17 27  1  0
 18 28  1  0
 19 29  1  0
M  ISO  8  20  14  21  14  22  14  23  14  24  14  25  14  26  14  27  14
M  ISO  2  28  14  29  14
M  END
>  <minimizedAffinity>  (1) 
-4.76004648

>  <minimizedRMSD>  (1) 
1.201262

$$$$
