
     RDKit          3D

 26 28  0  0  0  0  0  0  0  0999 V2000
   38.1070   25.5640   35.3390 C   0  0  0  0  0  0  0  0  0  0  0  0
   37.8030   26.8890   35.6590 C   0  0  0  0  0  0  0  0  0  0  0  0
   37.2620   27.6780   34.6980 C   0  0  0  0  0  0  0  0  0  0  0  0
   37.0380   27.1100   33.4290 C   0  0  0  0  0  0  0  0  0  0  0  0
   37.6360   25.3570   33.6280 S   0  0  0  0  0  0  0  0  0  0  0  0
   38.1900   24.2550   37.4780 C   0  0  0  0  0  0  0  0  0  0  0  0
   38.6820   24.5810   36.2060 C   0  0  0  0  0  0  0  0  0  0  0  0
   39.8010   23.9250   35.7400 C   0  0  0  0  0  0  0  0  0  0  0  0
   40.3750   22.9900   36.5400 N   0  0  0  0  0  0  0  0  0  0  0  0
   39.8800   22.6930   37.7690 C   0  0  0  0  0  0  0  0  0  0  0  0
   38.7870   23.3370   38.2200 N   0  0  0  0  0  0  0  0  0  0  0  0
   36.5220   27.5630   32.2120 C   0  0  0  0  0  0  0  0  0  0  0  0
   35.5800   26.9570   31.6740 O   0  0  0  0  0  0  0  0  0  0  0  0
   37.0750   28.7720   31.5300 C   0  0  0  0  0  0  0  0  0  0  0  0
   36.1590   29.5630   30.6510 C   0  0  0  0  0  0  0  0  0  0  0  0
   37.2320   28.7140   30.0160 C   0  0  0  0  0  0  0  0  0  0  0  0
   37.9979   27.2834   36.6672 H   0  0  0  0  0  0  0  0  0  0  0  0
   37.0063   28.7280   34.9031 H   0  0  0  0  0  0  0  0  0  0  0  0
   37.2970   24.7688   37.8634 H   0  0  0  0  0  0  0  0  0  0  0  0
   40.2175   24.1526   34.7476 H   0  0  0  0  0  0  0  0  0  0  0  0
   40.3693   21.9304   38.3928 H   0  0  0  0  0  0  0  0  0  0  0  0
   37.7362   29.0114   32.3759 H   0  0  0  0  0  0  0  0  0  0  0  0
   35.1027   29.2707   30.5572 H   0  0  0  0  0  0  0  0  0  0  0  0
   35.8750   30.6238   30.5874 H   0  0  0  0  0  0  0  0  0  0  0  0
   36.9607   27.8002   29.4671 H   0  0  0  0  0  0  0  0  0  0  0  0
   38.0537   28.8920   29.3067 H   0  0  0  0  0  0  0  0  0  0  0  0
  1  2  2  0
  1  7  1  0
  3  2  1  0
  4  5  1  0
  4  3  2  0
  5  1  1  0
  6 11  2  0
  7  6  1  0
  8  7  2  0
  8  9  1  0
  9 10  2  0
 10 11  1  0
 12  4  1  0
 13 12  2  0
 14 12  1  0
 15 14  1  0
 16 15  1  0
 16 14  1  0
  2 17  1  0
  3 18  1  0
  6 19  1  0
  8 20  1  0
 10 21  1  0
 14 22  1  0
 15 23  1  0
 15 24  1  0
 16 25  1  0
 16 26  1  0
M  ISO  8  17  14  18  14  19  14  20  14  21  14  22  13  23  13  24  13
M  ISO  2  25  13  26  13
M  END
>  <minimizedAffinity>  (1) 
-4.42096281

>  <minimizedRMSD>  (1) 
0.2041682

$$$$
