
     RDKit          3D

 24 25  0  0  0  0  0  0  0  0999 V2000
   38.1950   25.2360   34.9240 C   0  0  0  0  0  0  0  0  0  0  0  0
   39.1960   24.4240   34.4220 C   0  0  0  0  0  0  0  0  0  0  0  0
   39.7950   23.5450   35.2530 C   0  0  0  0  0  0  0  0  0  0  0  0
   39.3600   23.5100   36.5800 C   0  0  0  0  0  0  0  0  0  0  0  0
   38.0380   24.7950   36.6300 S   0  0  0  0  0  0  0  0  0  0  0  0
   37.0870   26.1110   32.8360 C   0  0  0  0  0  0  0  0  0  0  0  0
   37.4570   26.2290   34.1850 C   0  0  0  0  0  0  0  0  0  0  0  0
   37.1090   27.3870   34.8950 C   0  0  0  0  0  0  0  0  0  0  0  0
   36.4190   28.3400   34.2060 N   0  0  0  0  0  0  0  0  0  0  0  0
   36.0780   28.1810   32.8810 C   0  0  0  0  0  0  0  0  0  0  0  0
   36.4210   27.0670   32.2270 N   0  0  0  0  0  0  0  0  0  0  0  0
   35.3240   29.2940   32.2390 C   0  0  0  0  0  0  0  0  0  0  0  0
   33.9730   29.1090   32.4590 F   0  0  0  0  0  0  0  0  0  0  0  0
   35.7640   30.5080   32.7350 F   0  0  0  0  0  0  0  0  0  0  0  0
   35.5920   29.3410   30.8670 F   0  0  0  0  0  0  0  0  0  0  0  0
   39.7090   22.7670   37.7190 C   0  0  0  0  0  0  0  0  0  0  0  0
   40.7180   22.0680   37.7470 O   0  0  0  0  0  0  0  0  0  0  0  0
   38.9030   22.7900   38.9090 N   0  0  0  0  0  0  0  0  0  0  0  0
   39.4979   24.4932   33.3665 H   0  0  0  0  0  0  0  0  0  0  0  0
   40.5965   22.8804   34.8982 H   0  0  0  0  0  0  0  0  0  0  0  0
   37.3591   25.2026   32.2786 H   0  0  0  0  0  0  0  0  0  0  0  0
   37.3787   27.5197   35.9531 H   0  0  0  0  0  0  0  0  0  0  0  0
   39.1820   22.2353   39.7308 H   0  0  0  0  0  0  0  0  0  0  0  0
   38.0464   23.3612   38.9399 H   0  0  0  0  0  0  0  0  0  0  0  0
  1  5  1  0
  2  1  2  0
  2  3  1  0
  3  4  2  0
  4  5  1  0
  4 16  1  0
  6  7  2  0
  7  8  1  0
  7  1  1  0
  9  8  2  0
 10  9  1  0
 11  6  1  0
 11 10  2  0
 12 13  1  0
 12 14  1  0
 12 10  1  0
 15 12  1  0
 16 17  2  0
 16 18  1  0
  2 19  1  0
  3 20  1  0
  6 21  1  0
  8 22  1  0
 18 23  1  0
 18 24  1  0
M  ISO  4  19  14  20  14  21  14  22  14
M  END
>  <minimizedAffinity>  (1) 
-4.96399212

>  <minimizedRMSD>  (1) 
7.8900423

$$$$
