
     RDKit          3D

 22 23  0  0  0  0  0  0  0  0999 V2000
   38.1290   25.6110   35.2140 C   0  0  0  0  0  0  0  0  0  0  0  0
   37.8570   26.8940   35.6480 C   0  0  0  0  0  0  0  0  0  0  0  0
   37.2520   27.7490   34.7920 C   0  0  0  0  0  0  0  0  0  0  0  0
   36.9360   27.2760   33.5140 C   0  0  0  0  0  0  0  0  0  0  0  0
   37.5390   25.5190   33.5410 S   0  0  0  0  0  0  0  0  0  0  0  0
   38.3100   24.0820   37.2060 C   0  0  0  0  0  0  0  0  0  0  0  0
   38.7690   24.5670   35.9800 C   0  0  0  0  0  0  0  0  0  0  0  0
   39.9270   24.0230   35.4350 C   0  0  0  0  0  0  0  0  0  0  0  0
   40.5420   23.0410   36.1490 N   0  0  0  0  0  0  0  0  0  0  0  0
   40.0660   22.5950   37.3400 C   0  0  0  0  0  0  0  0  0  0  0  0
   38.9430   23.1290   37.8560 N   0  0  0  0  0  0  0  0  0  0  0  0
   40.7100   21.5930   38.0470 O   0  0  0  0  0  0  0  0  0  0  0  0
   36.3280   27.8230   32.3730 C   0  0  0  0  0  0  0  0  0  0  0  0
   35.5930   27.1500   31.6560 O   0  0  0  0  0  0  0  0  0  0  0  0
   36.5430   29.1960   31.9970 N   0  0  0  0  0  0  0  0  0  0  0  0
   38.1261   27.2128   36.6658 H   0  0  0  0  0  0  0  0  0  0  0  0
   37.0165   28.7811   35.0907 H   0  0  0  0  0  0  0  0  0  0  0  0
   37.3938   24.5083   37.6406 H   0  0  0  0  0  0  0  0  0  0  0  0
   40.3275   24.3704   34.4712 H   0  0  0  0  0  0  0  0  0  0  0  0
   40.3436   21.2846   38.9134 H   0  0  0  0  0  0  0  0  0  0  0  0
   36.0870   29.5770   31.1557 H   0  0  0  0  0  0  0  0  0  0  0  0
   37.1529   29.7972   32.5693 H   0  0  0  0  0  0  0  0  0  0  0  0
  1  2  2  0
  1  7  1  0
  3  2  1  0
  4  5  1  0
  4  3  2  0
  5  1  1  0
  6 11  2  0
  7  6  1  0
  8  7  2  0
  8  9  1  0
  9 10  2  0
 10 11  1  0
 10 12  1  0
 13  4  1  0
 14 13  2  0
 15 13  1  0
  2 16  1  0
  3 17  1  0
  6 18  1  0
  8 19  1  0
 12 20  1  0
 15 21  1  0
 15 22  1  0
M  ISO  5  16  14  17  14  18  14  19  14  20   3
M  END
>  <minimizedAffinity>  (1) 
-4.74505663

>  <minimizedRMSD>  (1) 
0.443541884

$$$$
