
     RDKit          3D

 28 30  0  0  0  0  0  0  0  0999 V2000
   38.1860   24.2840   36.0850 C   0  0  0  0  0  0  0  0  0  0  0  0
   38.6640   25.2650   35.1910 C   0  0  0  0  0  0  0  0  0  0  0  0
   39.9890   25.2280   34.8030 C   0  0  0  0  0  0  0  0  0  0  0  0
   40.7500   24.2300   35.3200 N   0  0  0  0  0  0  0  0  0  0  0  0
   40.2650   23.2970   36.1800 C   0  0  0  0  0  0  0  0  0  0  0  0
   38.9900   23.3440   36.5450 N   0  0  0  0  0  0  0  0  0  0  0  0
   37.8490   26.3250   34.6460 C   0  0  0  0  0  0  0  0  0  0  0  0
   37.4790   27.4990   35.2750 C   0  0  0  0  0  0  0  0  0  0  0  0
   36.7080   28.3680   34.5890 C   0  0  0  0  0  0  0  0  0  0  0  0
   36.3270   28.0380   33.2860 C   0  0  0  0  0  0  0  0  0  0  0  0
   37.1160   26.3860   33.0260 S   0  0  0  0  0  0  0  0  0  0  0  0
   35.5570   28.6510   32.2800 C   0  0  0  0  0  0  0  0  0  0  0  0
   34.3860   28.9630   32.4690 O   0  0  0  0  0  0  0  0  0  0  0  0
   36.1180   28.9360   30.9860 N   0  0  0  0  0  0  0  0  0  0  0  0
   41.1640   22.2630   36.6820 C   0  0  0  0  0  0  0  0  0  0  0  0
   42.3840   21.9060   36.1550 C   0  0  0  0  0  0  0  0  0  0  0  0
   42.9360   20.9130   36.8780 N   0  0  0  0  0  0  0  0  0  0  0  0
   42.0680   20.6230   37.8780 C   0  0  0  0  0  0  0  0  0  0  0  0
   41.0080   21.4490   37.7380 N   0  0  0  0  0  0  0  0  0  0  0  0
   37.1328   24.3028   36.4018 H   0  0  0  0  0  0  0  0  0  0  0  0
   40.4074   25.9714   34.1085 H   0  0  0  0  0  0  0  0  0  0  0  0
   37.8032   27.7179   36.3031 H   0  0  0  0  0  0  0  0  0  0  0  0
   36.3864   29.3157   35.0456 H   0  0  0  0  0  0  0  0  0  0  0  0
   37.0978   28.6907   30.7841 H   0  0  0  0  0  0  0  0  0  0  0  0
   35.5398   29.3853   30.2616 H   0  0  0  0  0  0  0  0  0  0  0  0
   42.8436   22.3668   35.2682 H   0  0  0  0  0  0  0  0  0  0  0  0
   42.2016   19.8584   38.6575 H   0  0  0  0  0  0  0  0  0  0  0  0
   40.1873   21.4535   38.3603 H   0  0  0  0  0  0  0  0  0  0  0  0
  1  6  2  0
  2  1  1  0
  3  2  2  0
  3  4  1  0
  4  5  2  0
  5  6  1  0
  5 15  1  0
  7  2  1  0
  7  8  2  0
  9  8  1  0
 10  9  2  0
 11 10  1  0
 11  7  1  0
 12 13  2  0
 12 10  1  0
 14 12  1  0
 15 19  1  0
 16 15  2  0
 16 17  1  0
 17 18  2  0
 19 18  1  0
  1 20  1  0
  3 21  1  0
  8 22  1  0
  9 23  1  0
 14 24  1  0
 14 25  1  0
 16 26  1  0
 18 27  1  0
 19 28  1  0
M  ISO  7  20  14  21  14  22  14  23  14  26  14  27  14  28   9
M  END
>  <minimizedAffinity>  (1) 
-4.67622232

>  <minimizedRMSD>  (1) 
1.82833719

$$$$
