
     RDKit          3D

 28 30  0  0  0  0  0  0  0  0999 V2000
   40.3100   26.3490   34.9130 C   0  0  0  0  0  0  0  0  0  0  0  0
   40.0550   24.9700   34.8420 C   0  0  0  0  0  0  0  0  0  0  0  0
   38.9090   24.5020   34.1890 C   0  0  0  0  0  0  0  0  0  0  0  0
   38.0930   25.4550   33.6490 N   0  0  0  0  0  0  0  0  0  0  0  0
   38.3790   26.8000   33.7400 C   0  0  0  0  0  0  0  0  0  0  0  0
   39.4750   27.2160   34.3670 N   0  0  0  0  0  0  0  0  0  0  0  0
   40.9060   23.9510   35.4120 C   0  0  0  0  0  0  0  0  0  0  0  0
   42.2660   24.0560   35.6520 C   0  0  0  0  0  0  0  0  0  0  0  0
   42.8970   22.9950   36.1980 C   0  0  0  0  0  0  0  0  0  0  0  0
   42.1440   21.8530   36.4900 C   0  0  0  0  0  0  0  0  0  0  0  0
   40.4390   22.3260   35.9500 S   0  0  0  0  0  0  0  0  0  0  0  0
   42.4370   20.5970   37.0390 C   0  0  0  0  0  0  0  0  0  0  0  0
   42.9470   19.7060   36.3320 O   0  0  0  0  0  0  0  0  0  0  0  0
   42.1760   20.2740   38.3990 N   0  0  0  0  0  0  0  0  0  0  0  0
   37.3560   27.5710   33.0880 C   0  0  0  0  0  0  0  0  0  0  0  0
   37.0350   27.8410   31.8080 C   0  0  0  0  0  0  0  0  0  0  0  0
   35.9940   28.6190   31.4640 C   0  0  0  0  0  0  0  0  0  0  0  0
   35.2430   29.1440   32.6530 C   0  0  0  0  0  0  0  0  0  0  0  0
   36.1840   28.4120   34.1210 S   0  0  0  0  0  0  0  0  0  0  0  0
   41.2124   26.7109   35.4274 H   0  0  0  0  0  0  0  0  0  0  0  0
   38.6788   23.4289   34.1149 H   0  0  0  0  0  0  0  0  0  0  0  0
   42.8154   24.9764   35.4051 H   0  0  0  0  0  0  0  0  0  0  0  0
   43.9763   23.0276   36.4080 H   0  0  0  0  0  0  0  0  0  0  0  0
   42.4079   19.3375   38.7596 H   0  0  0  0  0  0  0  0  0  0  0  0
   41.7550   20.9766   39.0235 H   0  0  0  0  0  0  0  0  0  0  0  0
   37.6522   27.4054   31.0084 H   0  0  0  0  0  0  0  0  0  0  0  0
   35.7217   28.8465   30.4228 H   0  0  0  0  0  0  0  0  0  0  0  0
   34.3582   29.7973   32.6670 H   0  0  0  0  0  0  0  0  0  0  0  0
  2  1  2  0
  2  7  1  0
  3  2  1  0
  4  5  1  0
  4  3  2  0
  5  6  2  0
  6  1  1  0
  7  8  2  0
  7 11  1  0
  8  9  1  0
  9 10  2  0
 10 12  1  0
 11 10  1  0
 12 14  1  0
 13 12  2  0
 15  5  1  0
 15 19  1  0
 16 15  2  0
 17 16  1  0
 17 18  2  0
 18 19  1  0
  1 20  1  0
  3 21  1  0
  8 22  1  0
  9 23  1  0
 14 24  1  0
 14 25  1  0
 16 26  1  0
 17 27  1  0
 18 28  1  0
M  ISO  7  20  14  21  14  22  14  23  14  26  14  27  14  28  14
M  END
>  <minimizedAffinity>  (1) 
-4.40539598

>  <minimizedRMSD>  (1) 
8.32422256

$$$$
