
     RDKit          3D

 30 32  0  0  0  0  0  0  0  0999 V2000
   38.1220   24.9120   34.0500 C   0  0  0  0  0  0  0  0  0  0  0  0
   39.1590   25.1600   34.9540 C   0  0  0  0  0  0  0  0  0  0  0  0
   39.2940   26.4300   35.5360 C   0  0  0  0  0  0  0  0  0  0  0  0
   38.3770   27.3680   35.1710 N   0  0  0  0  0  0  0  0  0  0  0  0
   37.3610   27.0780   34.2670 C   0  0  0  0  0  0  0  0  0  0  0  0
   37.2620   25.8610   33.7340 N   0  0  0  0  0  0  0  0  0  0  0  0
   40.1600   24.1940   35.3650 C   0  0  0  0  0  0  0  0  0  0  0  0
   41.5420   24.3880   35.2210 C   0  0  0  0  0  0  0  0  0  0  0  0
   42.3360   23.3830   35.6630 C   0  0  0  0  0  0  0  0  0  0  0  0
   41.7510   22.2530   36.2180 C   0  0  0  0  0  0  0  0  0  0  0  0
   39.9370   22.6180   36.1160 S   0  0  0  0  0  0  0  0  0  0  0  0
   42.2330   21.0450   36.7650 C   0  0  0  0  0  0  0  0  0  0  0  0
   42.0840   20.7980   37.9690 O   0  0  0  0  0  0  0  0  0  0  0  0
   42.9070   20.0730   35.9530 N   0  0  0  0  0  0  0  0  0  0  0  0
   36.4550   28.2050   33.9680 C   0  0  0  0  0  0  0  0  0  0  0  0
   35.8970   28.2320   32.7200 C   0  0  0  0  0  0  0  0  0  0  0  0
   34.8450   29.7860   32.7940 S   0  0  0  0  0  0  0  0  0  0  0  0
   35.4090   30.0840   34.5800 C   0  0  0  0  0  0  0  0  0  0  0  0
   36.0870   29.2060   34.7330 N   0  0  0  0  0  0  0  0  0  0  0  0
   34.9560   31.2420   35.4040 C   0  0  0  0  0  0  0  0  0  0  0  0
   35.8800   31.6250   36.3460 F   0  0  0  0  0  0  0  0  0  0  0  0
   33.7840   30.9410   36.0680 F   0  0  0  0  0  0  0  0  0  0  0  0
   34.8050   32.2670   34.5090 F   0  0  0  0  0  0  0  0  0  0  0  0
   38.0220   23.9145   33.5972 H   0  0  0  0  0  0  0  0  0  0  0  0
   40.0993   26.6560   36.2504 H   0  0  0  0  0  0  0  0  0  0  0  0
   41.9572   25.3037   34.7748 H   0  0  0  0  0  0  0  0  0  0  0  0
   43.4303   23.4615   35.5831 H   0  0  0  0  0  0  0  0  0  0  0  0
   43.2501   19.1983   36.3749 H   0  0  0  0  0  0  0  0  0  0  0  0
   43.0478   20.2499   34.9481 H   0  0  0  0  0  0  0  0  0  0  0  0
   36.0300   27.5256   31.8873 H   0  0  0  0  0  0  0  0  0  0  0  0
  1  2  2  0
  2  7  1  0
  2  3  1  0
  4  3  2  0
  5  4  1  0
  6  1  1  0
  6  5  2  0
  7 11  1  0
  8  7  2  0
  8  9  1  0
  9 10  2  0
 10 12  1  0
 11 10  1  0
 12 13  2  0
 14 12  1  0
 15  5  1  0
 15 19  1  0
 16 17  1  0
 16 15  2  0
 17 18  1  0
 18 19  2  0
 18 20  1  0
 20 22  1  0
 20 21  1  0
 23 20  1  0
  1 24  1  0
  3 25  1  0
  8 26  1  0
  9 27  1  0
 14 28  1  0
 14 29  1  0
 16 30  1  0
M  ISO  5  24  14  25  14  26  14  27  14  30  14
M  END
>  <minimizedAffinity>  (1) 
-4.82021713

>  <minimizedRMSD>  (1) 
9.75405025

$$$$
