
     RDKit          3D

 35 38  0  0  0  0  0  0  0  0999 V2000
   39.6810   23.7060   35.9090 C   0  0  0  0  0  0  0  0  0  0  0  0
   39.9550   24.9380   35.2690 C   0  0  0  0  0  0  0  0  0  0  0  0
   41.2330   25.2090   34.8170 C   0  0  0  0  0  0  0  0  0  0  0  0
   42.1660   24.2440   35.0240 N   0  0  0  0  0  0  0  0  0  0  0  0
   41.8870   23.0560   35.6460 C   0  0  0  0  0  0  0  0  0  0  0  0
   40.6440   22.8140   36.0750 N   0  0  0  0  0  0  0  0  0  0  0  0
   38.9640   25.9720   35.0490 C   0  0  0  0  0  0  0  0  0  0  0  0
   38.7180   27.0270   35.9110 C   0  0  0  0  0  0  0  0  0  0  0  0
   37.7450   27.9020   35.5360 C   0  0  0  0  0  0  0  0  0  0  0  0
   37.0780   27.6850   34.3400 C   0  0  0  0  0  0  0  0  0  0  0  0
   37.8570   26.1340   33.6650 S   0  0  0  0  0  0  0  0  0  0  0  0
   36.0480   28.3410   33.6320 C   0  0  0  0  0  0  0  0  0  0  0  0
   35.9000   28.1720   32.4150 O   0  0  0  0  0  0  0  0  0  0  0  0
   35.1290   29.2340   34.3110 N   0  0  0  0  0  0  0  0  0  0  0  0
   42.9890   22.0950   35.8060 C   0  0  0  0  0  0  0  0  0  0  0  0
   44.2090   22.5280   35.3430 C   0  0  0  0  0  0  0  0  0  0  0  0
   45.3110   21.0400   35.7250 S   0  0  0  0  0  0  0  0  0  0  0  0
   43.8230   20.1290   36.4530 C   0  0  0  0  0  0  0  0  0  0  0  0
   43.0120   20.8880   36.3150 N   0  0  0  0  0  0  0  0  0  0  0  0
   43.9530   18.7680   37.0030 C   0  0  0  0  0  0  0  0  0  0  0  0
   45.1600   18.2310   37.4010 C   0  0  0  0  0  0  0  0  0  0  0  0
   45.1540   16.9480   37.9000 C   0  0  0  0  0  0  0  0  0  0  0  0
   44.0140   16.2540   37.9910 N   0  0  0  0  0  0  0  0  0  0  0  0
   42.8480   16.7600   37.6110 C   0  0  0  0  0  0  0  0  0  0  0  0
   42.8330   18.0030   37.1250 N   0  0  0  0  0  0  0  0  0  0  0  0
   38.6646   23.4893   36.2695 H   0  0  0  0  0  0  0  0  0  0  0  0
   41.4812   26.1563   34.3161 H   0  0  0  0  0  0  0  0  0  0  0  0
   39.2789   27.1516   36.8490 H   0  0  0  0  0  0  0  0  0  0  0  0
   37.4927   28.7649   36.1698 H   0  0  0  0  0  0  0  0  0  0  0  0
   34.3825   29.7054   33.7806 H   0  0  0  0  0  0  0  0  0  0  0  0
   35.2228   29.3969   35.3237 H   0  0  0  0  0  0  0  0  0  0  0  0
   44.4740   23.4871   34.8741 H   0  0  0  0  0  0  0  0  0  0  0  0
   46.0936   18.8074   37.3224 H   0  0  0  0  0  0  0  0  0  0  0  0
   46.0979   16.4880   38.2278 H   0  0  0  0  0  0  0  0  0  0  0  0
   41.9215   16.1729   37.6940 H   0  0  0  0  0  0  0  0  0  0  0  0
  1  6  2  0
  2  1  1  0
  3  4  1  0
  3  2  2  0
  4  5  2  0
  5 15  1  0
  5  6  1  0
  7  2  1  0
  7  8  2  0
  9  8  1  0
 10  9  2  0
 11 10  1  0
 11  7  1  0
 12 14  1  0
 12 10  1  0
 13 12  2  0
 15 19  1  0
 16 17  1  0
 16 15  2  0
 17 18  1  0
 18 20  1  0
 19 18  2  0
 20 25  1  0
 20 21  2  0
 21 22  1  0
 22 23  2  0
 24 23  1  0
 25 24  2  0
  1 26  1  0
  3 27  1  0
  8 28  1  0
  9 29  1  0
 14 30  1  0
 14 31  1  0
 16 32  1  0
 21 33  1  0
 22 34  1  0
 24 35  1  0
M  ISO  8  26  14  27  14  28  14  29  14  32  14  33  14  34  14  35  14
M  END
>  <minimizedAffinity>  (1) 
-4.53884077

>  <minimizedRMSD>  (1) 
1.62339652

$$$$
