
     RDKit          3D

 28 30  0  0  0  0  0  0  0  0999 V2000
   38.8050   24.0850   36.0460 C   0  0  0  0  0  0  0  0  0  0  0  0
   39.1620   25.1760   35.2210 C   0  0  0  0  0  0  0  0  0  0  0  0
   40.4470   25.2500   34.6860 C   0  0  0  0  0  0  0  0  0  0  0  0
   41.2970   24.2360   35.0030 N   0  0  0  0  0  0  0  0  0  0  0  0
   40.9100   23.1800   35.8190 C   0  0  0  0  0  0  0  0  0  0  0  0
   39.6780   23.1360   36.3170 N   0  0  0  0  0  0  0  0  0  0  0  0
   38.2710   26.2670   34.8810 C   0  0  0  0  0  0  0  0  0  0  0  0
   38.0520   27.3830   35.6780 C   0  0  0  0  0  0  0  0  0  0  0  0
   37.1810   28.3130   35.2030 C   0  0  0  0  0  0  0  0  0  0  0  0
   36.5770   28.0890   33.9740 C   0  0  0  0  0  0  0  0  0  0  0  0
   37.2760   26.4630   33.4420 S   0  0  0  0  0  0  0  0  0  0  0  0
   35.6510   28.7930   33.1690 C   0  0  0  0  0  0  0  0  0  0  0  0
   35.0920   28.2360   32.2170 O   0  0  0  0  0  0  0  0  0  0  0  0
   35.3350   30.1690   33.4350 N   0  0  0  0  0  0  0  0  0  0  0  0
   41.9450   22.1640   36.0820 C   0  0  0  0  0  0  0  0  0  0  0  0
   43.1240   22.3210   35.4090 C   0  0  0  0  0  0  0  0  0  0  0  0
   44.1540   20.8710   36.0040 S   0  0  0  0  0  0  0  0  0  0  0  0
   42.6850   20.3270   37.1060 C   0  0  0  0  0  0  0  0  0  0  0  0
   41.9320   21.1190   36.8680 N   0  0  0  0  0  0  0  0  0  0  0  0
   42.5550   19.2200   37.9930 O   0  0  0  0  0  0  0  0  0  0  0  0
   37.7897   24.0278   36.4653 H   0  0  0  0  0  0  0  0  0  0  0  0
   40.7578   26.0850   34.0409 H   0  0  0  0  0  0  0  0  0  0  0  0
   38.5584   27.5086   36.6464 H   0  0  0  0  0  0  0  0  0  0  0  0
   36.9601   29.2229   35.7803 H   0  0  0  0  0  0  0  0  0  0  0  0
   34.6584   30.6666   32.8388 H   0  0  0  0  0  0  0  0  0  0  0  0
   35.7851   30.6579   34.2219 H   0  0  0  0  0  0  0  0  0  0  0  0
   43.4017   23.1075   34.6919 H   0  0  0  0  0  0  0  0  0  0  0  0
   41.7122   19.0836   38.4942 H   0  0  0  0  0  0  0  0  0  0  0  0
  1  6  2  0
  2  1  1  0
  3  4  1  0
  3  2  2  0
  4  5  2  0
  5 15  1  0
  5  6  1  0
  7  2  1  0
  7  8  2  0
  9  8  1  0
 10  9  2  0
 11 10  1  0
 11  7  1  0
 12 14  1  0
 12 10  1  0
 13 12  2  0
 15 19  1  0
 16 17  1  0
 16 15  2  0
 17 18  1  0
 18 20  1  0
 19 18  2  0
  1 21  1  0
  3 22  1  0
  8 23  1  0
  9 24  1  0
 14 25  1  0
 14 26  1  0
 16 27  1  0
 20 28  1  0
M  ISO  6  21  14  22  14  23  14  24  14  27  14  28   3
M  END
>  <minimizedAffinity>  (1) 
-4.51056862

>  <minimizedRMSD>  (1) 
0.27485773

$$$$
