
     RDKit          3D

 42 45  0  0  0  0  0  0  0  0999 V2000
   39.7630   23.6600   35.9320 C   0  0  0  0  0  0  0  0  0  0  0  0
   40.0270   24.8760   35.2620 C   0  0  0  0  0  0  0  0  0  0  0  0
   41.2970   25.1300   34.7830 C   0  0  0  0  0  0  0  0  0  0  0  0
   42.2360   24.1680   34.9940 N   0  0  0  0  0  0  0  0  0  0  0  0
   41.9420   22.9860   35.6550 C   0  0  0  0  0  0  0  0  0  0  0  0
   40.7210   22.7680   36.1030 N   0  0  0  0  0  0  0  0  0  0  0  0
   43.0730   22.0430   35.8050 C   0  0  0  0  0  0  0  0  0  0  0  0
   44.3080   22.5150   35.3770 C   0  0  0  0  0  0  0  0  0  0  0  0
   45.4220   21.0450   35.7450 S   0  0  0  0  0  0  0  0  0  0  0  0
   43.9380   20.0950   36.4120 C   0  0  0  0  0  0  0  0  0  0  0  0
   43.1000   20.8260   36.2850 N   0  0  0  0  0  0  0  0  0  0  0  0
   44.1370   18.6750   36.9410 N   0  0  0  0  0  0  0  0  0  0  0  0
   42.8780   17.9440   37.0930 C   0  0  0  0  0  0  0  0  0  0  0  0
   43.1980   16.5650   37.5790 C   0  0  0  0  0  0  0  0  0  0  0  0
   44.5750   16.1770   37.0730 C   0  0  0  0  0  0  0  0  0  0  0  0
   45.6170   17.0180   37.7570 C   0  0  0  0  0  0  0  0  0  0  0  0
   45.5260   18.4260   37.1510 C   0  0  0  0  0  0  0  0  0  0  0  0
   39.0380   25.9080   35.0340 C   0  0  0  0  0  0  0  0  0  0  0  0
   38.7650   26.9500   35.9110 C   0  0  0  0  0  0  0  0  0  0  0  0
   37.8020   27.8300   35.5370 C   0  0  0  0  0  0  0  0  0  0  0  0
   37.1570   27.6390   34.3220 C   0  0  0  0  0  0  0  0  0  0  0  0
   37.9600   26.1150   33.6570 S   0  0  0  0  0  0  0  0  0  0  0  0
   36.1400   28.3040   33.6040 C   0  0  0  0  0  0  0  0  0  0  0  0
   35.8300   27.9430   32.4620 O   0  0  0  0  0  0  0  0  0  0  0  0
   35.4360   29.4270   34.1920 N   0  0  0  0  0  0  0  0  0  0  0  0
   38.7519   23.4553   36.3138 H   0  0  0  0  0  0  0  0  0  0  0  0
   41.5380   26.0651   34.2562 H   0  0  0  0  0  0  0  0  0  0  0  0
   44.5659   23.4905   34.9388 H   0  0  0  0  0  0  0  0  0  0  0  0
   42.2346   18.4569   37.8231 H   0  0  0  0  0  0  0  0  0  0  0  0
   42.3463   17.8958   36.1313 H   0  0  0  0  0  0  0  0  0  0  0  0
   43.1900   16.5492   38.6789 H   0  0  0  0  0  0  0  0  0  0  0  0
   42.4475   15.8529   37.2054 H   0  0  0  0  0  0  0  0  0  0  0  0
   44.7599   15.1149   37.2916 H   0  0  0  0  0  0  0  0  0  0  0  0
   44.6260   16.3426   35.9867 H   0  0  0  0  0  0  0  0  0  0  0  0
   45.4195   17.0586   38.8384 H   0  0  0  0  0  0  0  0  0  0  0  0
   46.6212   16.5928   37.6131 H   0  0  0  0  0  0  0  0  0  0  0  0
   46.0703   18.4669   36.1960 H   0  0  0  0  0  0  0  0  0  0  0  0
   45.9745   19.1799   37.8147 H   0  0  0  0  0  0  0  0  0  0  0  0
   39.3041   27.0569   36.8639 H   0  0  0  0  0  0  0  0  0  0  0  0
   37.5372   28.6790   36.1843 H   0  0  0  0  0  0  0  0  0  0  0  0
   34.6953   29.9060   33.6603 H   0  0  0  0  0  0  0  0  0  0  0  0
   35.6767   29.7457   35.1414 H   0  0  0  0  0  0  0  0  0  0  0  0
  1  6  2  0
  2  1  1  0
  3  4  1  0
  3  2  2  0
  4  5  2  0
  5  7  1  0
  5  6  1  0
  7 11  1  0
  8  9  1  0
  8  7  2  0
  9 10  1  0
 10 12  1  0
 11 10  2  0
 12 13  1  0
 12 17  1  0
 13 14  1  0
 15 14  1  0
 15 16  1  0
 17 16  1  0
 18  2  1  0
 18 19  2  0
 20 19  1  0
 21 20  2  0
 22 21  1  0
 22 18  1  0
 23 25  1  0
 23 21  1  0
 24 23  2  0
  1 26  1  0
  3 27  1  0
  8 28  1  0
 13 29  1  0
 13 30  1  0
 14 31  1  0
 14 32  1  0
 15 33  1  0
 15 34  1  0
 16 35  1  0
 16 36  1  0
 17 37  1  0
 17 38  1  0
 19 39  1  0
 20 40  1  0
 25 41  1  0
 25 42  1  0
M  ISO  8  26  14  27  14  28  14  29  13  30  13  31  13  32  13  33  13
M  ISO  7  34  13  35  13  36  13  37  13  38  13  39  14  40  14
M  END
>  <minimizedAffinity>  (1) 
-4.54950666

>  <minimizedRMSD>  (1) 
1.65110612

$$$$
