
     RDKit          3D

 37 40  0  0  0  0  0  0  0  0999 V2000
   39.6080   24.0010   35.7080 C   0  0  0  0  0  0  0  0  0  0  0  0
   39.8210   25.2610   35.0990 C   0  0  0  0  0  0  0  0  0  0  0  0
   41.0890   25.6200   34.6890 C   0  0  0  0  0  0  0  0  0  0  0  0
   42.0810   24.7140   34.9050 N   0  0  0  0  0  0  0  0  0  0  0  0
   41.8420   23.4870   35.5060 C   0  0  0  0  0  0  0  0  0  0  0  0
   40.6130   23.1700   35.8880 N   0  0  0  0  0  0  0  0  0  0  0  0
   38.7770   26.2390   34.8610 C   0  0  0  0  0  0  0  0  0  0  0  0
   38.4210   27.2480   35.7410 C   0  0  0  0  0  0  0  0  0  0  0  0
   37.4170   28.0740   35.3530 C   0  0  0  0  0  0  0  0  0  0  0  0
   36.8180   27.8620   34.1190 C   0  0  0  0  0  0  0  0  0  0  0  0
   37.7290   26.3850   33.4390 S   0  0  0  0  0  0  0  0  0  0  0  0
   35.7800   28.4800   33.3820 C   0  0  0  0  0  0  0  0  0  0  0  0
   35.5090   28.1010   32.2360 O   0  0  0  0  0  0  0  0  0  0  0  0
   35.0140   29.5580   33.9330 N   0  0  0  0  0  0  0  0  0  0  0  0
   43.0230   22.6220   35.6680 C   0  0  0  0  0  0  0  0  0  0  0  0
   44.2400   23.1760   35.3090 C   0  0  0  0  0  0  0  0  0  0  0  0
   45.4200   21.7570   35.6780 S   0  0  0  0  0  0  0  0  0  0  0  0
   43.9810   20.6930   36.2540 C   0  0  0  0  0  0  0  0  0  0  0  0
   43.1150   21.3890   36.1090 N   0  0  0  0  0  0  0  0  0  0  0  0
   44.1550   19.3020   36.7410 C   0  0  0  0  0  0  0  0  0  0  0  0
   45.4490   18.8640   36.9170 C   0  0  0  0  0  0  0  0  0  0  0  0
   45.5740   17.5660   37.3720 C   0  0  0  0  0  0  0  0  0  0  0  0
   44.4680   16.7810   37.6260 C   0  0  0  0  0  0  0  0  0  0  0  0
   43.1880   17.2600   37.4370 C   0  0  0  0  0  0  0  0  0  0  0  0
   43.0340   18.5660   36.9790 C   0  0  0  0  0  0  0  0  0  0  0  0
   38.5968   23.7146   36.0327 H   0  0  0  0  0  0  0  0  0  0  0  0
   41.2879   26.5906   34.2112 H   0  0  0  0  0  0  0  0  0  0  0  0
   38.9285   27.3736   36.7088 H   0  0  0  0  0  0  0  0  0  0  0  0
   37.0841   28.8959   36.0039 H   0  0  0  0  0  0  0  0  0  0  0  0
   34.2631   29.9926   33.3779 H   0  0  0  0  0  0  0  0  0  0  0  0
   35.2142   29.8984   34.8843 H   0  0  0  0  0  0  0  0  0  0  0  0
   44.4590   24.1788   34.9134 H   0  0  0  0  0  0  0  0  0  0  0  0
   46.3205   19.5024   36.7100 H   0  0  0  0  0  0  0  0  0  0  0  0
   46.5784   17.1484   37.5357 H   0  0  0  0  0  0  0  0  0  0  0  0
   44.6098   15.7516   37.9868 H   0  0  0  0  0  0  0  0  0  0  0  0
   42.3122   16.6269   37.6427 H   0  0  0  0  0  0  0  0  0  0  0  0
   42.0334   18.9920   36.8138 H   0  0  0  0  0  0  0  0  0  0  0  0
  1  6  2  0
  2  1  1  0
  3  4  1  0
  3  2  2  0
  4  5  2  0
  5 15  1  0
  5  6  1  0
  7  2  1  0
  7  8  2  0
  9  8  1  0
 10  9  2  0
 11 10  1  0
 11  7  1  0
 12 14  1  0
 12 10  1  0
 13 12  2  0
 15 19  1  0
 16 15  2  0
 16 17  1  0
 17 18  1  0
 18 20  1  0
 19 18  2  0
 20 21  2  0
 20 25  1  0
 21 22  1  0
 22 23  2  0
 24 23  1  0
 25 24  2  0
  1 26  1  0
  3 27  1  0
  8 28  1  0
  9 29  1  0
 14 30  1  0
 14 31  1  0
 16 32  1  0
 21 33  1  0
 22 34  1  0
 23 35  1  0
 24 36  1  0
 25 37  1  0
M  ISO  8  26  14  27  14  28  14  29  14  32  14  33  14  34  14  35  14
M  ISO  2  36  14  37  14
M  END
>  <minimizedAffinity>  (1) 
-4.48125696

>  <minimizedRMSD>  (1) 
1.69926846

$$$$
