
     RDKit          3D

 40 43  0  0  0  0  0  0  0  0999 V2000
   39.7190   23.6550   35.9380 C   0  0  0  0  0  0  0  0  0  0  0  0
   39.9720   24.8610   35.2650 C   0  0  0  0  0  0  0  0  0  0  0  0
   41.2460   25.1100   34.7670 C   0  0  0  0  0  0  0  0  0  0  0  0
   42.1770   24.1400   34.9760 N   0  0  0  0  0  0  0  0  0  0  0  0
   41.8910   22.9640   35.6450 C   0  0  0  0  0  0  0  0  0  0  0  0
   40.6670   22.7540   36.1070 N   0  0  0  0  0  0  0  0  0  0  0  0
   43.0120   22.0270   35.7900 C   0  0  0  0  0  0  0  0  0  0  0  0
   44.2480   22.4860   35.4230 C   0  0  0  0  0  0  0  0  0  0  0  0
   45.3690   21.0150   35.7700 S   0  0  0  0  0  0  0  0  0  0  0  0
   43.8440   20.0260   36.3740 C   0  0  0  0  0  0  0  0  0  0  0  0
   43.0420   20.7930   36.2290 N   0  0  0  0  0  0  0  0  0  0  0  0
   43.9200   18.6780   36.8460 N   0  0  0  0  0  0  0  0  0  0  0  0
   45.2140   18.1900   37.3460 C   0  0  0  0  0  0  0  0  0  0  0  0
   45.5490   16.9790   36.5120 C   0  0  0  0  0  0  0  0  0  0  0  0
   44.5560   16.0060   36.5840 O   0  0  0  0  0  0  0  0  0  0  0  0
   43.4870   16.3920   37.3560 C   0  0  0  0  0  0  0  0  0  0  0  0
   42.8700   17.7020   36.9130 C   0  0  0  0  0  0  0  0  0  0  0  0
   38.9960   25.9020   35.0430 C   0  0  0  0  0  0  0  0  0  0  0  0
   38.7480   26.9570   35.9100 C   0  0  0  0  0  0  0  0  0  0  0  0
   37.7940   27.8460   35.5420 C   0  0  0  0  0  0  0  0  0  0  0  0
   37.1330   27.6500   34.3370 C   0  0  0  0  0  0  0  0  0  0  0  0
   37.9000   26.1060   33.6670 S   0  0  0  0  0  0  0  0  0  0  0  0
   36.1120   28.3380   33.6340 C   0  0  0  0  0  0  0  0  0  0  0  0
   35.8080   27.9750   32.4750 O   0  0  0  0  0  0  0  0  0  0  0  0
   35.4200   29.4590   34.2590 N   0  0  0  0  0  0  0  0  0  0  0  0
   38.7110   23.4580   36.3317 H   0  0  0  0  0  0  0  0  0  0  0  0
   41.4881   26.0407   34.2330 H   0  0  0  0  0  0  0  0  0  0  0  0
   44.5198   23.4739   35.0228 H   0  0  0  0  0  0  0  0  0  0  0  0
   45.9870   18.9633   37.2256 H   0  0  0  0  0  0  0  0  0  0  0  0
   45.1660   17.9424   38.4167 H   0  0  0  0  0  0  0  0  0  0  0  0
   46.4946   16.5490   36.8738 H   0  0  0  0  0  0  0  0  0  0  0  0
   45.6341   17.3011   35.4637 H   0  0  0  0  0  0  0  0  0  0  0  0
   42.7172   15.6080   37.3033 H   0  0  0  0  0  0  0  0  0  0  0  0
   43.8607   16.5379   38.3802 H   0  0  0  0  0  0  0  0  0  0  0  0
   42.1074   18.0213   37.6386 H   0  0  0  0  0  0  0  0  0  0  0  0
   42.3867   17.5879   35.9315 H   0  0  0  0  0  0  0  0  0  0  0  0
   39.3015   27.0666   36.8543 H   0  0  0  0  0  0  0  0  0  0  0  0
   37.5485   28.7046   36.1842 H   0  0  0  0  0  0  0  0  0  0  0  0
   34.6786   29.9572   33.7461 H   0  0  0  0  0  0  0  0  0  0  0  0
   35.6726   29.7527   35.2134 H   0  0  0  0  0  0  0  0  0  0  0  0
  1  6  2  0
  2  1  1  0
  3  4  1  0
  3  2  2  0
  4  5  2  0
  5  7  1  0
  5  6  1  0
  7 11  1  0
  8  9  1  0
  8  7  2  0
  9 10  1  0
 10 12  1  0
 11 10  2  0
 12 17  1  0
 12 13  1  0
 14 15  1  0
 14 13  1  0
 15 16  1  0
 17 16  1  0
 18  2  1  0
 18 19  2  0
 20 19  1  0
 21 20  2  0
 22 21  1  0
 22 18  1  0
 23 25  1  0
 23 21  1  0
 24 23  2  0
  1 26  1  0
  3 27  1  0
  8 28  1  0
 13 29  1  0
 13 30  1  0
 14 31  1  0
 14 32  1  0
 16 33  1  0
 16 34  1  0
 17 35  1  0
 17 36  1  0
 19 37  1  0
 20 38  1  0
 25 39  1  0
 25 40  1  0
M  ISO  8  26  14  27  14  28  14  29  13  30  13  31  13  32  13  33  13
M  ISO  5  34  13  35  13  36  13  37  14  38  14
M  END
>  <minimizedAffinity>  (1) 
-4.48459482

>  <minimizedRMSD>  (1) 
1.69024169

$$$$
