
     RDKit          3D

 34 37  0  0  0  0  0  0  0  0999 V2000
   39.5520   23.3820   36.1760 C   0  0  0  0  0  0  0  0  0  0  0  0
   39.8540   24.5250   35.4360 C   0  0  0  0  0  0  0  0  0  0  0  0
   41.1360   24.6630   34.8820 C   0  0  0  0  0  0  0  0  0  0  0  0
   42.0110   23.6510   35.1110 N   0  0  0  0  0  0  0  0  0  0  0  0
   41.6790   22.5440   35.8430 C   0  0  0  0  0  0  0  0  0  0  0  0
   40.4560   22.4420   36.3550 N   0  0  0  0  0  0  0  0  0  0  0  0
   38.9470   25.6240   35.1740 C   0  0  0  0  0  0  0  0  0  0  0  0
   38.8030   26.7370   35.9900 C   0  0  0  0  0  0  0  0  0  0  0  0
   37.9030   27.6720   35.5850 C   0  0  0  0  0  0  0  0  0  0  0  0
   37.2000   27.4630   34.4070 C   0  0  0  0  0  0  0  0  0  0  0  0
   37.8370   25.8230   33.7970 S   0  0  0  0  0  0  0  0  0  0  0  0
   36.2200   28.1710   33.6830 C   0  0  0  0  0  0  0  0  0  0  0  0
   35.9600   27.8770   32.5090 O   0  0  0  0  0  0  0  0  0  0  0  0
   35.4910   29.2610   34.2900 N   0  0  0  0  0  0  0  0  0  0  0  0
   42.7140   21.5130   36.0200 C   0  0  0  0  0  0  0  0  0  0  0  0
   43.9830   21.8970   35.6350 C   0  0  0  0  0  0  0  0  0  0  0  0
   44.9800   20.3370   36.0070 S   0  0  0  0  0  0  0  0  0  0  0  0
   43.4080   19.4830   36.6200 C   0  0  0  0  0  0  0  0  0  0  0  0
   42.6410   20.2900   36.4760 N   0  0  0  0  0  0  0  0  0  0  0  0
   43.5400   18.1080   37.0920 C   0  0  0  0  0  0  0  0  0  0  0  0
   42.5660   17.2030   37.1640 C   0  0  0  0  0  0  0  0  0  0  0  0
   42.8180   15.9540   37.6230 C   0  0  0  0  0  0  0  0  0  0  0  0
   44.1800   15.6950   38.0120 C   0  0  0  0  0  0  0  0  0  0  0  0
   45.0230   17.3200   37.6790 S   0  0  0  0  0  0  0  0  0  0  0  0
   38.5497   23.2650   36.6139 H   0  0  0  0  0  0  0  0  0  0  0  0
   41.4177   25.5473   34.2916 H   0  0  0  0  0  0  0  0  0  0  0  0
   39.3859   26.8564   36.9152 H   0  0  0  0  0  0  0  0  0  0  0  0
   37.7346   28.5804   36.1820 H   0  0  0  0  0  0  0  0  0  0  0  0
   34.7777   29.7687   33.7475 H   0  0  0  0  0  0  0  0  0  0  0  0
   35.6847   29.5302   35.2651 H   0  0  0  0  0  0  0  0  0  0  0  0
   44.3233   22.8576   35.2210 H   0  0  0  0  0  0  0  0  0  0  0  0
   41.5474   17.4722   36.8478 H   0  0  0  0  0  0  0  0  0  0  0  0
   42.0329   15.1869   37.6941 H   0  0  0  0  0  0  0  0  0  0  0  0
   44.6149   14.7656   38.4083 H   0  0  0  0  0  0  0  0  0  0  0  0
  1  6  2  0
  2  1  1  0
  3  4  1  0
  3  2  2  0
  4  5  2  0
  5 15  1  0
  5  6  1  0
  7  2  1  0
  7  8  2  0
  9  8  1  0
 10  9  2  0
 11 10  1  0
 11  7  1  0
 12 14  1  0
 12 10  1  0
 13 12  2  0
 15 19  1  0
 16 17  1  0
 16 15  2  0
 17 18  1  0
 18 20  1  0
 19 18  2  0
 20 21  2  0
 20 24  1  0
 21 22  1  0
 22 23  2  0
 24 23  1  0
  1 25  1  0
  3 26  1  0
  8 27  1  0
  9 28  1  0
 14 29  1  0
 14 30  1  0
 16 31  1  0
 21 32  1  0
 22 33  1  0
 23 34  1  0
M  ISO  8  25  14  26  14  27  14  28  14  31  14  32  14  33  14  34  14
M  END
>  <minimizedAffinity>  (1) 
-4.40036488

>  <minimizedRMSD>  (1) 
1.50506639

$$$$
