
     RDKit          3D

 40 43  0  0  0  0  0  0  0  0999 V2000
   39.6210   23.7310   35.9270 C   0  0  0  0  0  0  0  0  0  0  0  0
   39.8840   24.9430   35.2430 C   0  0  0  0  0  0  0  0  0  0  0  0
   41.1500   25.1910   34.7490 C   0  0  0  0  0  0  0  0  0  0  0  0
   42.0880   24.2300   34.9600 N   0  0  0  0  0  0  0  0  0  0  0  0
   41.7980   23.0500   35.6360 C   0  0  0  0  0  0  0  0  0  0  0  0
   40.5780   22.8380   36.0970 N   0  0  0  0  0  0  0  0  0  0  0  0
   38.8960   25.9760   35.0180 C   0  0  0  0  0  0  0  0  0  0  0  0
   38.6800   27.0590   35.8600 C   0  0  0  0  0  0  0  0  0  0  0  0
   37.7110   27.9370   35.4980 C   0  0  0  0  0  0  0  0  0  0  0  0
   37.0040   27.7020   34.3270 C   0  0  0  0  0  0  0  0  0  0  0  0
   37.7540   26.1380   33.6870 S   0  0  0  0  0  0  0  0  0  0  0  0
   35.9640   28.3490   33.6300 C   0  0  0  0  0  0  0  0  0  0  0  0
   35.7530   28.1160   32.4320 O   0  0  0  0  0  0  0  0  0  0  0  0
   35.1090   29.3110   34.2980 N   0  0  0  0  0  0  0  0  0  0  0  0
   42.9300   22.1110   35.7830 C   0  0  0  0  0  0  0  0  0  0  0  0
   44.1490   22.5500   35.2930 C   0  0  0  0  0  0  0  0  0  0  0  0
   45.2610   21.0790   35.6890 S   0  0  0  0  0  0  0  0  0  0  0  0
   43.7930   20.1710   36.4510 C   0  0  0  0  0  0  0  0  0  0  0  0
   42.9670   20.9150   36.3130 N   0  0  0  0  0  0  0  0  0  0  0  0
   44.2870   16.3070   37.9790 C   0  0  0  0  0  0  0  0  0  0  0  0
   45.4160   17.0820   37.8030 C   0  0  0  0  0  0  0  0  0  0  0  0
   45.3330   18.3780   37.3000 C   0  0  0  0  0  0  0  0  0  0  0  0
   44.0640   18.8160   36.9970 C   0  0  0  0  0  0  0  0  0  0  0  0
   42.9050   18.0890   37.1500 C   0  0  0  0  0  0  0  0  0  0  0  0
   43.0150   16.7910   37.6580 C   0  0  0  0  0  0  0  0  0  0  0  0
   44.3670   14.6660   38.6130 S   0  0  0  0  0  0  0  0  0  0  0  0
   45.5410   13.9830   37.9790 O   0  0  0  0  0  0  0  0  0  0  0  0
   43.1310   13.8960   38.1730 O   0  0  0  0  0  0  0  0  0  0  0  0
   38.6126   23.5326   36.3191 H   0  0  0  0  0  0  0  0  0  0  0  0
   41.3875   26.1207   34.2112 H   0  0  0  0  0  0  0  0  0  0  0  0
   39.2680   27.1987   36.7791 H   0  0  0  0  0  0  0  0  0  0  0  0
   37.4902   28.8171   36.1199 H   0  0  0  0  0  0  0  0  0  0  0  0
   34.3525   29.7768   33.7768 H   0  0  0  0  0  0  0  0  0  0  0  0
   35.2582   29.5286   35.2936 H   0  0  0  0  0  0  0  0  0  0  0  0
   44.4012   23.5023   34.8036 H   0  0  0  0  0  0  0  0  0  0  0  0
   46.4006   16.6676   38.0653 H   0  0  0  0  0  0  0  0  0  0  0  0
   46.2221   19.0092   37.1546 H   0  0  0  0  0  0  0  0  0  0  0  0
   41.9266   18.5144   36.8820 H   0  0  0  0  0  0  0  0  0  0  0  0
   42.1218   16.1652   37.8018 H   0  0  0  0  0  0  0  0  0  0  0  0
   44.4622   14.7042   39.9792 H   0  0  0  0  0  0  0  0  0  0  0  0
  1  6  2  0
  2  1  1  0
  3  4  1  0
  3  2  2  0
  4  5  2  0
  5 15  1  0
  5  6  1  0
  7  2  1  0
  7  8  2  0
  9  8  1  0
 10  9  2  0
 11 10  1  0
 11  7  1  0
 12 14  1  0
 12 10  1  0
 13 12  2  0
 15 19  1  0
 16 17  1  0
 16 15  2  0
 17 18  1  0
 18 23  1  0
 19 18  2  0
 20 26  1  0
 21 20  2  0
 22 21  1  0
 23 24  1  0
 23 22  2  0
 24 25  2  0
 25 20  1  0
 27 26  2  0
 28 26  2  0
  1 29  1  0
  3 30  1  0
  8 31  1  0
  9 32  1  0
 14 33  1  0
 14 34  1  0
 16 35  1  0
 21 36  1  0
 22 37  1  0
 24 38  1  0
 25 39  1  0
 26 40  1  0
M  ISO  8  29  14  30  14  31  14  32  14  35  14  36  14  37  14  38  14
M  ISO  2  39  14  40  11
M  END
>  <minimizedAffinity>  (1) 
-4.46987391

>  <minimizedRMSD>  (1) 
1.83831978

$$$$
