
     RDKit          3D

 29 31  0  0  0  0  0  0  0  0999 V2000
   39.3610   23.4510   36.1790 C   0  0  0  0  0  0  0  0  0  0  0  0
   39.7310   24.6010   35.4440 C   0  0  0  0  0  0  0  0  0  0  0  0
   41.0180   24.7100   34.9220 C   0  0  0  0  0  0  0  0  0  0  0  0
   41.8580   23.6690   35.1630 N   0  0  0  0  0  0  0  0  0  0  0  0
   41.4700   22.5560   35.8850 C   0  0  0  0  0  0  0  0  0  0  0  0
   40.2270   22.4750   36.3760 N   0  0  0  0  0  0  0  0  0  0  0  0
   38.8500   25.7210   35.1840 C   0  0  0  0  0  0  0  0  0  0  0  0
   38.7640   26.8580   35.9760 C   0  0  0  0  0  0  0  0  0  0  0  0
   37.8800   27.8140   35.5850 C   0  0  0  0  0  0  0  0  0  0  0  0
   37.1310   27.5940   34.4360 C   0  0  0  0  0  0  0  0  0  0  0  0
   37.7030   25.9350   33.8610 S   0  0  0  0  0  0  0  0  0  0  0  0
   36.1460   28.3210   33.7300 C   0  0  0  0  0  0  0  0  0  0  0  0
   35.8870   28.0540   32.5500 O   0  0  0  0  0  0  0  0  0  0  0  0
   35.4190   29.3910   34.3610 N   0  0  0  0  0  0  0  0  0  0  0  0
   42.4850   21.5150   36.0670 C   0  0  0  0  0  0  0  0  0  0  0  0
   43.7550   21.8370   35.6780 C   0  0  0  0  0  0  0  0  0  0  0  0
   44.7290   20.2840   36.0660 S   0  0  0  0  0  0  0  0  0  0  0  0
   43.1400   19.4750   36.7080 C   0  0  0  0  0  0  0  0  0  0  0  0
   42.4090   20.3060   36.5440 N   0  0  0  0  0  0  0  0  0  0  0  0
   43.2860   18.1030   37.2010 C   0  0  0  0  0  0  0  0  0  0  0  0
   42.5030   17.1710   36.8300 O   0  0  0  0  0  0  0  0  0  0  0  0
   38.3438   23.3694   36.5896 H   0  0  0  0  0  0  0  0  0  0  0  0
   41.3372   25.5910   34.3459 H   0  0  0  0  0  0  0  0  0  0  0  0
   39.3822   26.9797   36.8777 H   0  0  0  0  0  0  0  0  0  0  0  0
   37.7606   28.7408   36.1654 H   0  0  0  0  0  0  0  0  0  0  0  0
   34.7044   29.9105   33.8315 H   0  0  0  0  0  0  0  0  0  0  0  0
   35.6134   29.6373   35.3421 H   0  0  0  0  0  0  0  0  0  0  0  0
   44.1176   22.7798   35.2425 H   0  0  0  0  0  0  0  0  0  0  0  0
   44.0941   17.8724   37.9108 H   0  0  0  0  0  0  0  0  0  0  0  0
  1  6  2  0
  2  1  1  0
  3  4  1  0
  3  2  2  0
  4  5  2  0
  5 15  1  0
  5  6  1  0
  7  2  1  0
  7  8  2  0
  9  8  1  0
 10  9  2  0
 11 10  1  0
 11  7  1  0
 12 14  1  0
 12 10  1  0
 13 12  2  0
 15 19  1  0
 16 17  1  0
 16 15  2  0
 17 18  1  0
 18 20  1  0
 19 18  2  0
 21 20  2  0
  1 22  1  0
  3 23  1  0
  8 24  1  0
  9 25  1  0
 14 26  1  0
 14 27  1  0
 16 28  1  0
 20 29  1  0
M  ISO  6  22  14  23  14  24  14  25  14  28  14  29   6
M  END
>  <minimizedAffinity>  (1) 
-4.17543983

>  <minimizedRMSD>  (1) 
1.04730141

$$$$
