
     RDKit          3D

 30 32  0  0  0  0  0  0  0  0999 V2000
   39.4030   23.4740   36.1730 C   0  0  0  0  0  0  0  0  0  0  0  0
   39.7490   24.6240   35.4200 C   0  0  0  0  0  0  0  0  0  0  0  0
   41.0170   24.7380   34.8800 C   0  0  0  0  0  0  0  0  0  0  0  0
   41.8770   23.7150   35.1090 N   0  0  0  0  0  0  0  0  0  0  0  0
   41.5260   22.6090   35.8400 C   0  0  0  0  0  0  0  0  0  0  0  0
   40.2930   22.5170   36.3550 N   0  0  0  0  0  0  0  0  0  0  0  0
   38.8570   25.7370   35.1680 C   0  0  0  0  0  0  0  0  0  0  0  0
   38.7660   26.8700   35.9810 C   0  0  0  0  0  0  0  0  0  0  0  0
   37.8690   27.8210   35.5940 C   0  0  0  0  0  0  0  0  0  0  0  0
   37.1240   27.6020   34.4430 C   0  0  0  0  0  0  0  0  0  0  0  0
   37.7130   25.9480   33.8500 S   0  0  0  0  0  0  0  0  0  0  0  0
   36.1340   28.3220   33.7480 C   0  0  0  0  0  0  0  0  0  0  0  0
   35.8710   28.0480   32.5700 O   0  0  0  0  0  0  0  0  0  0  0  0
   35.3970   29.3940   34.3780 N   0  0  0  0  0  0  0  0  0  0  0  0
   42.5370   21.5620   36.0430 C   0  0  0  0  0  0  0  0  0  0  0  0
   43.8100   21.9110   35.7030 C   0  0  0  0  0  0  0  0  0  0  0  0
   44.7970   20.3640   36.0820 S   0  0  0  0  0  0  0  0  0  0  0  0
   43.1960   19.5220   36.6540 C   0  0  0  0  0  0  0  0  0  0  0  0
   42.4610   20.3450   36.4880 N   0  0  0  0  0  0  0  0  0  0  0  0
   43.1290   18.1100   37.1660 C   0  0  0  0  0  0  0  0  0  0  0  0
   38.3955   23.3796   36.6044 H   0  0  0  0  0  0  0  0  0  0  0  0
   41.3144   25.6185   34.2915 H   0  0  0  0  0  0  0  0  0  0  0  0
   39.3840   26.9880   36.8833 H   0  0  0  0  0  0  0  0  0  0  0  0
   37.7383   28.7420   36.1810 H   0  0  0  0  0  0  0  0  0  0  0  0
   34.6774   29.9055   33.8474 H   0  0  0  0  0  0  0  0  0  0  0  0
   35.5914   29.6464   35.3575 H   0  0  0  0  0  0  0  0  0  0  0  0
   44.1710   22.8698   35.3026 H   0  0  0  0  0  0  0  0  0  0  0  0
   43.1294   18.1184   38.2660 H   0  0  0  0  0  0  0  0  0  0  0  0
   42.2072   17.6318   36.8033 H   0  0  0  0  0  0  0  0  0  0  0  0
   44.0014   17.5467   36.8033 H   0  0  0  0  0  0  0  0  0  0  0  0
  1  6  2  0
  2  1  1  0
  3  4  1  0
  3  2  2  0
  4  5  2  0
  5 15  1  0
  5  6  1  0
  7  2  1  0
  7  8  2  0
  9  8  1  0
 10  9  2  0
 11 10  1  0
 11  7  1  0
 12 14  1  0
 12 10  1  0
 13 12  2  0
 15 19  1  0
 16 15  2  0
 16 17  1  0
 17 18  1  0
 18 20  1  0
 19 18  2  0
  1 21  1  0
  3 22  1  0
  8 23  1  0
  9 24  1  0
 14 25  1  0
 14 26  1  0
 16 27  1  0
 20 28  1  0
 20 29  1  0
 20 30  1  0
M  ISO  8  21  14  22  14  23  14  24  14  27  14  28   8  29   8  30   8
M  END
>  <minimizedAffinity>  (1) 
-4.2211442

>  <minimizedRMSD>  (1) 
0.99843055

$$$$
