
     RDKit          3D

 45 48  0  0  0  0  0  0  0  0999 V2000
   37.1210   26.3340   35.4690 C   0  0  0  0  0  0  0  0  0  0  0  0
   37.3570   27.0970   34.3240 C   0  0  0  0  0  0  0  0  0  0  0  0
   38.4990   26.8820   33.5550 C   0  0  0  0  0  0  0  0  0  0  0  0
   39.3270   25.8950   34.0090 N   0  0  0  0  0  0  0  0  0  0  0  0
   39.0850   25.1610   35.1260 C   0  0  0  0  0  0  0  0  0  0  0  0
   37.9790   25.4000   35.8330 N   0  0  0  0  0  0  0  0  0  0  0  0
   40.0790   24.1410   35.4800 C   0  0  0  0  0  0  0  0  0  0  0  0
   41.1770   24.0800   34.6930 C   0  0  0  0  0  0  0  0  0  0  0  0
   42.1730   22.6850   35.4590 S   0  0  0  0  0  0  0  0  0  0  0  0
   40.8020   22.4600   36.7740 C   0  0  0  0  0  0  0  0  0  0  0  0
   40.1060   23.2600   36.4330 N   0  0  0  0  0  0  0  0  0  0  0  0
   40.8640   21.4930   37.8020 N   0  0  0  0  0  0  0  0  0  0  0  0
   36.4820   28.1560   33.8370 C   0  0  0  0  0  0  0  0  0  0  0  0
   36.1910   29.3200   34.5400 C   0  0  0  0  0  0  0  0  0  0  0  0
   35.3600   30.2030   33.9390 C   0  0  0  0  0  0  0  0  0  0  0  0
   34.8570   29.8850   32.6690 C   0  0  0  0  0  0  0  0  0  0  0  0
   35.6150   28.2340   32.3120 S   0  0  0  0  0  0  0  0  0  0  0  0
   34.9580   31.5010   34.5970 C   0  0  0  0  0  0  0  0  0  0  0  0
   35.4270   31.5470   36.0210 C   0  0  0  0  0  0  0  0  0  0  0  0
   35.1860   32.9170   36.5820 C   0  0  0  0  0  0  0  0  0  0  0  0
   36.1690   33.8890   35.9690 C   0  0  0  0  0  0  0  0  0  0  0  0
   36.7010   33.3060   34.6650 C   0  0  0  0  0  0  0  0  0  0  0  0
   35.6050   32.6780   33.8650 C   0  0  0  0  0  0  0  0  0  0  0  0
   33.9970   30.5230   31.7570 C   0  0  0  0  0  0  0  0  0  0  0  0
   34.4490   31.1960   30.8410 O   0  0  0  0  0  0  0  0  0  0  0  0
   32.5740   30.4140   31.8620 N   0  0  0  0  0  0  0  0  0  0  0  0
   36.2168   26.5120   36.0697 H   0  0  0  0  0  0  0  0  0  0  0  0
   38.7178   27.4648   32.6481 H   0  0  0  0  0  0  0  0  0  0  0  0
   41.4260   24.6974   33.8173 H   0  0  0  0  0  0  0  0  0  0  0  0
   40.0958   21.4163   38.4839 H   0  0  0  0  0  0  0  0  0  0  0  0
   41.6774   20.8647   37.8696 H   0  0  0  0  0  0  0  0  0  0  0  0
   36.6156   29.5136   35.5361 H   0  0  0  0  0  0  0  0  0  0  0  0
   33.8606   31.5663   34.5587 H   0  0  0  0  0  0  0  0  0  0  0  0
   34.8723   30.8050   36.6140 H   0  0  0  0  0  0  0  0  0  0  0  0
   36.5022   31.3181   36.0608 H   0  0  0  0  0  0  0  0  0  0  0  0
   34.1596   33.2350   36.3465 H   0  0  0  0  0  0  0  0  0  0  0  0
   35.3204   32.8967   37.6736 H   0  0  0  0  0  0  0  0  0  0  0  0
   35.6637   34.8447   35.7659 H   0  0  0  0  0  0  0  0  0  0  0  0
   37.0031   34.0606   36.6653 H   0  0  0  0  0  0  0  0  0  0  0  0
   37.1605   34.1114   34.0733 H   0  0  0  0  0  0  0  0  0  0  0  0
   37.4425   32.5306   34.9077 H   0  0  0  0  0  0  0  0  0  0  0  0
   36.0228   32.3172   32.9135 H   0  0  0  0  0  0  0  0  0  0  0  0
   34.8293   33.4398   33.6979 H   0  0  0  0  0  0  0  0  0  0  0  0
   31.9691   30.8925   31.1793 H   0  0  0  0  0  0  0  0  0  0  0  0
   32.1547   29.8571   32.6202 H   0  0  0  0  0  0  0  0  0  0  0  0
  1  6  2  0
  2  1  1  0
  3  4  1  0
  3  2  2  0
  4  5  2  0
  5  7  1  0
  5  6  1  0
  7 11  1  0
  8  9  1  0
  8  7  2  0
  9 10  1  0
 10 12  1  0
 11 10  2  0
 13  2  1  0
 13 14  2  0
 15 14  1  0
 15 18  1  0
 16 15  2  0
 17 16  1  0
 17 13  1  0
 18 19  1  0
 19 20  1  0
 21 20  1  0
 22 21  1  0
 23 18  1  0
 23 22  1  0
 24 26  1  0
 24 16  1  0
 25 24  2  0
  1 27  1  0
  3 28  1  0
  8 29  1  0
 12 30  1  0
 12 31  1  0
 14 32  1  0
 18 33  1  0
 19 34  1  0
 19 35  1  0
 20 36  1  0
 20 37  1  0
 21 38  1  0
 21 39  1  0
 22 40  1  0
 22 41  1  0
 23 42  1  0
 23 43  1  0
 26 44  1  0
 26 45  1  0
M  ISO  8  27  14  28  14  29  14  32  14  33  13  34  13  35  13  36  13
M  ISO  7  37  13  38  13  39  13  40  13  41  13  42  13  43  13
M  END
>  <minimizedAffinity>  (1) 
-5.88231897

>  <minimizedRMSD>  (1) 
3.54431129

$$$$
