
     RDKit          3D

 36 38  0  0  0  0  0  0  0  0999 V2000
   36.5460   28.1560   33.6420 C   0  0  0  0  0  0  0  0  0  0  0  0
   35.8880   29.0430   34.4670 C   0  0  0  0  0  0  0  0  0  0  0  0
   35.1870   30.0290   33.8730 C   0  0  0  0  0  0  0  0  0  0  0  0
   35.1730   30.0920   32.4890 C   0  0  0  0  0  0  0  0  0  0  0  0
   36.2250   28.6480   31.9890 S   0  0  0  0  0  0  0  0  0  0  0  0
   37.1640   26.4090   35.3750 C   0  0  0  0  0  0  0  0  0  0  0  0
   37.3430   27.0270   34.1130 C   0  0  0  0  0  0  0  0  0  0  0  0
   38.3160   26.5790   33.2360 C   0  0  0  0  0  0  0  0  0  0  0  0
   39.0640   25.5280   33.6720 N   0  0  0  0  0  0  0  0  0  0  0  0
   38.8790   24.9370   34.9010 C   0  0  0  0  0  0  0  0  0  0  0  0
   37.9360   25.3950   35.7150 N   0  0  0  0  0  0  0  0  0  0  0  0
   39.7610   23.8000   35.2160 C   0  0  0  0  0  0  0  0  0  0  0  0
   40.5190   23.3250   34.2010 C   0  0  0  0  0  0  0  0  0  0  0  0
   41.4550   21.9060   35.0020 S   0  0  0  0  0  0  0  0  0  0  0  0
   40.5620   22.2790   36.6570 C   0  0  0  0  0  0  0  0  0  0  0  0
   39.9420   23.1400   36.3210 N   0  0  0  0  0  0  0  0  0  0  0  0
   40.7970   21.5310   37.8300 N   0  0  0  0  0  0  0  0  0  0  0  0
   34.4440   31.0500   34.5280 N   0  0  0  0  0  0  0  0  0  0  0  0
   35.0320   32.1200   35.2540 C   0  0  0  0  0  0  0  0  0  0  0  0
   36.2290   32.0800   35.6570 N   0  0  0  0  0  0  0  0  0  0  0  0
   34.3810   33.3500   35.6180 N   0  0  0  0  0  0  0  0  0  0  0  0
   36.7780   32.7670   36.1830 H   0  0  0  0  0  0  0  0  0  0  0  0
   34.5900   30.9340   31.5190 C   0  0  0  0  0  0  0  0  0  0  0  0
   35.2890   31.6280   30.7670 O   0  0  0  0  0  0  0  0  0  0  0  0
   33.1670   31.0230   31.3680 N   0  0  0  0  0  0  0  0  0  0  0  0
   35.9331   28.9501   35.5621 H   0  0  0  0  0  0  0  0  0  0  0  0
   36.3881   26.7715   36.0653 H   0  0  0  0  0  0  0  0  0  0  0  0
   38.4746   27.0420   32.2509 H   0  0  0  0  0  0  0  0  0  0  0  0
   40.5739   23.6818   33.1619 H   0  0  0  0  0  0  0  0  0  0  0  0
   40.2957   21.7647   38.6989 H   0  0  0  0  0  0  0  0  0  0  0  0
   41.4699   20.7512   37.8174 H   0  0  0  0  0  0  0  0  0  0  0  0
   33.4162   31.0110   34.4724 H   0  0  0  0  0  0  0  0  0  0  0  0
   34.8957   34.0679   36.1477 H   0  0  0  0  0  0  0  0  0  0  0  0
   33.4002   33.5128   35.3489 H   0  0  0  0  0  0  0  0  0  0  0  0
   32.7629   31.6445   30.6529 H   0  0  0  0  0  0  0  0  0  0  0  0
   32.5489   30.4654   31.9746 H   0  0  0  0  0  0  0  0  0  0  0  0
  1  7  1  0
  1  2  2  0
  3  2  1  0
  3 18  1  0
  4  3  2  0
  5  4  1  0
  5  1  1  0
  6 11  2  0
  7  6  1  0
  8  9  1  0
  8  7  2  0
  9 10  2  0
 10 12  1  0
 10 11  1  0
 12 16  1  0
 13 14  1  0
 13 12  2  0
 14 15  1  0
 15 17  1  0
 16 15  2  0
 18 19  1  0
 19 21  1  0
 19 20  2  0
 20 22  1  0
 23  4  1  0
 24 23  2  0
 25 23  1  0
  2 26  1  0
  6 27  1  0
  8 28  1  0
 13 29  1  0
 17 30  1  0
 17 31  1  0
 18 32  1  0
 21 33  1  0
 21 34  1  0
 25 35  1  0
 25 36  1  0
M  ISO  4  26  14  27  14  28  14  29  14
M  END
>  <minimizedAffinity>  (1) 
-5.01018095

>  <minimizedRMSD>  (1) 
3.61350465

$$$$
