
     RDKit          3D

 35 38  0  0  0  0  0  0  0  0999 V2000
   37.8480   25.1950   34.1750 C   0  0  0  0  0  0  0  0  0  0  0  0
   38.1470   26.5520   34.1330 C   0  0  0  0  0  0  0  0  0  0  0  0
   39.3850   27.0230   34.6120 C   0  0  0  0  0  0  0  0  0  0  0  0
   40.2230   26.0680   35.0970 N   0  0  0  0  0  0  0  0  0  0  0  0
   39.9070   24.7410   35.1280 C   0  0  0  0  0  0  0  0  0  0  0  0
   38.7340   24.3420   34.6680 N   0  0  0  0  0  0  0  0  0  0  0  0
   40.9300   23.8410   35.6830 C   0  0  0  0  0  0  0  0  0  0  0  0
   42.2060   24.0520   35.2820 C   0  0  0  0  0  0  0  0  0  0  0  0
   43.1660   22.7180   36.1960 S   0  0  0  0  0  0  0  0  0  0  0  0
   41.5300   22.1150   36.9800 C   0  0  0  0  0  0  0  0  0  0  0  0
   40.8300   22.8440   36.5120 N   0  0  0  0  0  0  0  0  0  0  0  0
   41.4730   21.0300   37.8790 N   0  0  0  0  0  0  0  0  0  0  0  0
   37.2620   27.5800   33.6240 C   0  0  0  0  0  0  0  0  0  0  0  0
   36.3680   28.3090   34.4190 C   0  0  0  0  0  0  0  0  0  0  0  0
   35.6170   29.2520   33.8090 C   0  0  0  0  0  0  0  0  0  0  0  0
   35.7850   29.4260   32.4450 C   0  0  0  0  0  0  0  0  0  0  0  0
   37.0920   28.1790   31.9850 S   0  0  0  0  0  0  0  0  0  0  0  0
   34.6430   30.0220   34.6430 C   0  0  0  0  0  0  0  0  0  0  0  0
   33.3420   29.4020   34.8020 C   0  0  0  0  0  0  0  0  0  0  0  0
   32.4380   30.7390   35.7710 S   0  0  0  0  0  0  0  0  0  0  0  0
   33.9680   31.8660   35.7760 C   0  0  0  0  0  0  0  0  0  0  0  0
   34.9220   31.2250   35.1270 N   0  0  0  0  0  0  0  0  0  0  0  0
   35.1990   30.2560   31.4610 C   0  0  0  0  0  0  0  0  0  0  0  0
   35.8790   30.6710   30.5060 O   0  0  0  0  0  0  0  0  0  0  0  0
   33.8220   30.6470   31.5160 N   0  0  0  0  0  0  0  0  0  0  0  0
   36.8799   24.8309   33.8005 H   0  0  0  0  0  0  0  0  0  0  0  0
   39.6552   28.0892   34.5950 H   0  0  0  0  0  0  0  0  0  0  0  0
   42.5880   24.8172   34.5902 H   0  0  0  0  0  0  0  0  0  0  0  0
   40.5692   20.7386   38.2779 H   0  0  0  0  0  0  0  0  0  0  0  0
   42.3352   20.5289   38.1367 H   0  0  0  0  0  0  0  0  0  0  0  0
   36.2808   28.1207   35.4992 H   0  0  0  0  0  0  0  0  0  0  0  0
   32.9830   28.4225   34.4533 H   0  0  0  0  0  0  0  0  0  0  0  0
   34.0442   32.8636   36.2332 H   0  0  0  0  0  0  0  0  0  0  0  0
   33.4289   31.2528   30.7815 H   0  0  0  0  0  0  0  0  0  0  0  0
   33.2250   30.3224   32.2900 H   0  0  0  0  0  0  0  0  0  0  0  0
  1  6  2  0
  2  1  1  0
  2  3  2  0
  3  4  1  0
  4  5  2  0
  5  7  1  0
  6  5  1  0
  7 11  1  0
  8  7  2  0
  8  9  1  0
  9 10  1  0
 10 12  1  0
 11 10  2  0
 13  2  1  0
 13 14  2  0
 15 14  1  0
 15 18  1  0
 16 15  2  0
 17 16  1  0
 17 13  1  0
 18 19  2  0
 18 22  1  0
 19 20  1  0
 20 21  1  0
 22 21  2  0
 23 25  1  0
 23 16  1  0
 24 23  2  0
  1 26  1  0
  3 27  1  0
  8 28  1  0
 12 29  1  0
 12 30  1  0
 14 31  1  0
 19 32  1  0
 21 33  1  0
 25 34  1  0
 25 35  1  0
M  ISO  6  26  14  27  14  28  14  31  14  32  14  33  14
M  END
>  <minimizedAffinity>  (1) 
-5.31404305

>  <minimizedRMSD>  (1) 
3.27025533

$$$$
