
     RDKit          3D

 36 39  0  0  0  0  0  0  0  0999 V2000
   37.7870   26.8250   33.3990 C   0  0  0  0  0  0  0  0  0  0  0  0
   36.9120   27.6280   34.1030 C   0  0  0  0  0  0  0  0  0  0  0  0
   36.2660   28.5930   33.4090 C   0  0  0  0  0  0  0  0  0  0  0  0
   36.5170   28.7120   32.0610 C   0  0  0  0  0  0  0  0  0  0  0  0
   37.7570   27.3700   31.7310 S   0  0  0  0  0  0  0  0  0  0  0  0
   38.3590   25.2100   35.2520 C   0  0  0  0  0  0  0  0  0  0  0  0
   38.5710   25.7370   33.9780 C   0  0  0  0  0  0  0  0  0  0  0  0
   39.5850   25.2450   33.1700 C   0  0  0  0  0  0  0  0  0  0  0  0
   40.3240   24.2390   33.7120 N   0  0  0  0  0  0  0  0  0  0  0  0
   40.1100   23.7310   34.9550 C   0  0  0  0  0  0  0  0  0  0  0  0
   39.1210   24.2340   35.7050 N   0  0  0  0  0  0  0  0  0  0  0  0
   40.9950   22.6490   35.3990 C   0  0  0  0  0  0  0  0  0  0  0  0
   41.8350   22.1460   34.4690 C   0  0  0  0  0  0  0  0  0  0  0  0
   42.7680   20.8200   35.4150 S   0  0  0  0  0  0  0  0  0  0  0  0
   41.7610   21.2480   36.9780 C   0  0  0  0  0  0  0  0  0  0  0  0
   41.1390   22.0590   36.5390 N   0  0  0  0  0  0  0  0  0  0  0  0
   41.9440   20.5820   38.2110 N   0  0  0  0  0  0  0  0  0  0  0  0
   35.3220   29.4880   34.1190 C   0  0  0  0  0  0  0  0  0  0  0  0
   35.6320   30.5340   34.9890 C   0  0  0  0  0  0  0  0  0  0  0  0
   34.5260   31.1730   35.4850 C   0  0  0  0  0  0  0  0  0  0  0  0
   33.5210   30.5030   34.9050 N   0  0  0  0  0  0  0  0  0  0  0  0
   34.0120   29.5580   34.1400 N   0  0  0  0  0  0  0  0  0  0  0  0
   36.0750   29.5610   31.0240 C   0  0  0  0  0  0  0  0  0  0  0  0
   36.7490   29.7050   29.9870 O   0  0  0  0  0  0  0  0  0  0  0  0
   34.8510   30.2910   31.1060 N   0  0  0  0  0  0  0  0  0  0  0  0
   36.7472   27.4891   35.1817 H   0  0  0  0  0  0  0  0  0  0  0  0
   37.5515   25.6109   35.8823 H   0  0  0  0  0  0  0  0  0  0  0  0
   39.7784   25.6401   32.1618 H   0  0  0  0  0  0  0  0  0  0  0  0
   41.9455   22.4411   33.4151 H   0  0  0  0  0  0  0  0  0  0  0  0
   41.3768   20.8473   39.0288 H   0  0  0  0  0  0  0  0  0  0  0  0
   42.6446   19.8313   38.2918 H   0  0  0  0  0  0  0  0  0  0  0  0
   36.6621   30.8175   35.2507 H   0  0  0  0  0  0  0  0  0  0  0  0
   34.4759   32.0217   36.1830 H   0  0  0  0  0  0  0  0  0  0  0  0
   32.5189   30.6996   35.0392 H   0  0  0  0  0  0  0  0  0  0  0  0
   34.5620   30.9010   30.3280 H   0  0  0  0  0  0  0  0  0  0  0  0
   34.2568   30.2077   31.9432 H   0  0  0  0  0  0  0  0  0  0  0  0
  1  7  1  0
  1  2  2  0
  3  2  1  0
  3 18  1  0
  4  3  2  0
  5  4  1  0
  5  1  1  0
  6 11  2  0
  7  6  1  0
  8  9  1  0
  8  7  2  0
  9 10  2  0
 10 12  1  0
 10 11  1  0
 12 16  1  0
 13 12  2  0
 13 14  1  0
 14 15  1  0
 15 17  1  0
 16 15  2  0
 18 22  2  0
 18 19  1  0
 19 20  2  0
 21 20  1  0
 22 21  1  0
 23 25  1  0
 23  4  1  0
 24 23  2  0
  2 26  1  0
  6 27  1  0
  8 28  1  0
 13 29  1  0
 17 30  1  0
 17 31  1  0
 19 32  1  0
 20 33  1  0
 21 34  1  0
 25 35  1  0
 25 36  1  0
M  ISO  7  26  14  27  14  28  14  29  14  32  14  33  14  34   9
M  END
>  <minimizedAffinity>  (1) 
-5.38029003

>  <minimizedRMSD>  (1) 
2.78376007

$$$$
