
     RDKit          3D

 38 40  0  0  0  0  0  0  0  0999 V2000
   37.8440   25.0780   35.4960 C   0  0  0  0  0  0  0  0  0  0  0  0
   38.2270   26.2140   34.7400 C   0  0  0  0  0  0  0  0  0  0  0  0
   39.5560   26.4040   34.3930 C   0  0  0  0  0  0  0  0  0  0  0  0
   40.4060   25.4340   34.8320 N   0  0  0  0  0  0  0  0  0  0  0  0
   40.0280   24.3480   35.5570 C   0  0  0  0  0  0  0  0  0  0  0  0
   38.7450   24.1920   35.8750 N   0  0  0  0  0  0  0  0  0  0  0  0
   41.0810   23.4070   35.9460 C   0  0  0  0  0  0  0  0  0  0  0  0
   42.2710   23.5370   35.3190 C   0  0  0  0  0  0  0  0  0  0  0  0
   43.3190   22.1800   36.0940 S   0  0  0  0  0  0  0  0  0  0  0  0
   41.8330   21.6790   37.1810 C   0  0  0  0  0  0  0  0  0  0  0  0
   41.1120   22.4390   36.8040 N   0  0  0  0  0  0  0  0  0  0  0  0
   41.8850   20.6200   38.1120 N   0  0  0  0  0  0  0  0  0  0  0  0
   37.3030   27.2430   34.2840 C   0  0  0  0  0  0  0  0  0  0  0  0
   36.9530   28.3540   35.0260 C   0  0  0  0  0  0  0  0  0  0  0  0
   36.0700   29.2070   34.4380 C   0  0  0  0  0  0  0  0  0  0  0  0
   35.5980   28.9090   33.1680 C   0  0  0  0  0  0  0  0  0  0  0  0
   36.4420   27.3220   32.7540 S   0  0  0  0  0  0  0  0  0  0  0  0
   34.7020   29.5240   32.2610 C   0  0  0  0  0  0  0  0  0  0  0  0
   35.1210   30.1690   31.3040 O   0  0  0  0  0  0  0  0  0  0  0  0
   33.2800   29.4090   32.4390 N   0  0  0  0  0  0  0  0  0  0  0  0
   35.5350   30.4760   35.0360 C   0  0  0  0  0  0  0  0  0  0  0  0
   35.7100   31.5770   34.0370 C   0  0  0  0  0  0  0  0  0  0  0  0
   34.0190   30.2870   35.1920 C   0  0  0  0  0  0  0  0  0  0  0  0
   36.7881   24.9341   35.7687 H   0  0  0  0  0  0  0  0  0  0  0  0
   39.8976   27.2709   33.8084 H   0  0  0  0  0  0  0  0  0  0  0  0
   42.5579   24.2615   34.5426 H   0  0  0  0  0  0  0  0  0  0  0  0
   41.0546   20.3886   38.6757 H   0  0  0  0  0  0  0  0  0  0  0  0
   42.7534   20.0783   38.2279 H   0  0  0  0  0  0  0  0  0  0  0  0
   37.3625   28.5382   36.0302 H   0  0  0  0  0  0  0  0  0  0  0  0
   32.6392   29.8615   31.7716 H   0  0  0  0  0  0  0  0  0  0  0  0
   32.9021   28.8741   33.2340 H   0  0  0  0  0  0  0  0  0  0  0  0
   36.0411   30.7052   35.9854 H   0  0  0  0  0  0  0  0  0  0  0  0
   35.8615   32.5302   34.5647 H   0  0  0  0  0  0  0  0  0  0  0  0
   36.5856   31.3639   33.4061 H   0  0  0  0  0  0  0  0  0  0  0  0
   34.8115   31.6459   33.4061 H   0  0  0  0  0  0  0  0  0  0  0  0
   33.7616   30.2549   36.2610 H   0  0  0  0  0  0  0  0  0  0  0  0
   33.4936   31.1266   34.7134 H   0  0  0  0  0  0  0  0  0  0  0  0
   33.7159   29.3441   34.7134 H   0  0  0  0  0  0  0  0  0  0  0  0
  1  6  2  0
  2  1  1  0
  3  2  2  0
  3  4  1  0
  4  5  2  0
  5  6  1  0
  5  7  1  0
  7 11  1  0
  8  7  2  0
  8  9  1  0
  9 10  1  0
 10 12  1  0
 11 10  2  0
 13  2  1  0
 13 14  2  0
 15 14  1  0
 15 21  1  0
 16 15  2  0
 17 16  1  0
 17 13  1  0
 18 20  1  0
 18 16  1  0
 19 18  2  0
 21 23  1  0
 22 21  1  0
  1 24  1  0
  3 25  1  0
  8 26  1  0
 12 27  1  0
 12 28  1  0
 14 29  1  0
 20 30  1  0
 20 31  1  0
 21 32  1  0
 22 33  1  0
 22 34  1  0
 22 35  1  0
 23 36  1  0
 23 37  1  0
 23 38  1  0
M  ISO  8  24  14  25  14  26  14  29  14  32   8  33   8  34   8  35   8
M  ISO  3  36   8  37   8  38   8
M  END
>  <minimizedAffinity>  (1) 
-4.92730904

>  <minimizedRMSD>  (1) 
2.40476847

$$$$
