
     RDKit          3D

 42 45  0  0  1  0  0  0  0  0999 V2000
   36.9040   27.7450   34.0150 C   0  0  0  0  0  0  0  0  0  0  0  0
   36.2920   28.6820   34.8330 C   0  0  0  0  0  0  0  0  0  0  0  0
   35.4780   29.5750   34.2190 C   0  0  0  0  0  0  0  0  0  0  0  0
   35.3150   29.4970   32.8620 C   0  0  0  0  0  0  0  0  0  0  0  0
   36.3860   28.0500   32.3630 S   0  0  0  0  0  0  0  0  0  0  0  0
   37.4560   25.7410   35.4620 C   0  0  0  0  0  0  0  0  0  0  0  0
   37.8060   26.7090   34.5030 C   0  0  0  0  0  0  0  0  0  0  0  0
   39.0840   26.7220   33.9520 C   0  0  0  0  0  0  0  0  0  0  0  0
   39.9140   25.7510   34.4150 N   0  0  0  0  0  0  0  0  0  0  0  0
   39.5830   24.8210   35.3350 C   0  0  0  0  0  0  0  0  0  0  0  0
   38.3360   24.8410   35.8450 N   0  0  0  0  0  0  0  0  0  0  0  0
   40.5920   23.8430   35.7260 C   0  0  0  0  0  0  0  0  0  0  0  0
   41.7690   23.9230   35.0920 C   0  0  0  0  0  0  0  0  0  0  0  0
   42.7970   22.5500   35.8310 S   0  0  0  0  0  0  0  0  0  0  0  0
   41.2880   22.0970   36.9560 C   0  0  0  0  0  0  0  0  0  0  0  0
   40.5980   22.8830   36.5820 N   0  0  0  0  0  0  0  0  0  0  0  0
   41.2870   21.0370   37.9110 N   0  0  0  0  0  0  0  0  0  0  0  0
   34.5860   30.2030   31.8560 C   0  0  0  0  0  0  0  0  0  0  0  0
   35.1470   30.7500   30.9180 O   0  0  0  0  0  0  0  0  0  0  0  0
   33.1480   30.2860   31.9280 N   0  0  0  0  0  0  0  0  0  0  0  0
   34.5440   30.8890   34.9910 S   0  0  0  0  0  0  0  0  0  0  0  0
   36.4590   32.6680   35.3390 N   0  0  0  0  0  0  0  0  0  0  0  0
   36.3120   34.0310   35.7480 C   0  0  0  0  0  0  0  0  0  0  0  0
   34.9910   34.1690   36.4660 C   0  0  0  0  0  0  0  0  0  0  0  0
   34.7690   32.7760   37.0040 C   0  0  0  0  0  0  0  0  0  0  0  0
   35.5570   31.8660   36.1160 C   0  0  1  0  0  0  0  0  0  0  0  0
   36.4578   28.6998   35.9203 H   0  0  0  0  0  0  0  0  0  0  0  0
   36.4439   25.7366   35.8928 H   0  0  0  0  0  0  0  0  0  0  0  0
   39.3978   27.4610   33.2001 H   0  0  0  0  0  0  0  0  0  0  0  0
   42.0644   24.6381   34.3101 H   0  0  0  0  0  0  0  0  0  0  0  0
   40.4455   20.8536   38.4760 H   0  0  0  0  0  0  0  0  0  0  0  0
   42.1277   20.4551   38.0354 H   0  0  0  0  0  0  0  0  0  0  0  0
   32.6245   30.7954   31.2018 H   0  0  0  0  0  0  0  0  0  0  0  0
   32.6445   29.8359   32.7056 H   0  0  0  0  0  0  0  0  0  0  0  0
   36.2318   32.5779   34.3384 H   0  0  0  0  0  0  0  0  0  0  0  0
   37.1341   34.3073   36.4246 H   0  0  0  0  0  0  0  0  0  0  0  0
   36.3390   34.6954   34.8717 H   0  0  0  0  0  0  0  0  0  0  0  0
   35.0557   34.9050   37.2810 H   0  0  0  0  0  0  0  0  0  0  0  0
   34.1749   34.5269   35.8211 H   0  0  0  0  0  0  0  0  0  0  0  0
   35.1279   32.7043   38.0413 H   0  0  0  0  0  0  0  0  0  0  0  0
   33.7016   32.5101   37.0115 H   0  0  0  0  0  0  0  0  0  0  0  0
   36.0825   31.1532   36.7686 H   0  0  0  0  0  0  0  0  0  0  0  0
  1  7  1  0
  1  2  2  0
  3  2  1  0
  3 21  1  0
  4  3  2  0
  5  4  1  0
  5  1  1  0
  6 11  2  0
  7  6  1  0
  8  9  1  0
  8  7  2  0
  9 10  2  0
 10 12  1  0
 10 11  1  0
 12 16  1  0
 13 12  2  0
 13 14  1  0
 14 15  1  0
 15 17  1  0
 16 15  2  0
 18 20  1  0
 18  4  1  0
 19 18  2  0
 22 23  1  0
 22 26  1  0
 23 24  1  0
 24 25  1  0
 26 21  1  0
 26 25  1  0
  2 27  1  0
  6 28  1  0
  8 29  1  0
 13 30  1  0
 17 31  1  0
 17 32  1  0
 20 33  1  0
 20 34  1  0
 22 35  1  0
 23 36  1  0
 23 37  1  0
 24 38  1  0
 24 39  1  0
 25 40  1  0
 25 41  1  0
 26 42  1  1
M  ISO  8  27  14  28  14  29  14  30  14  35   5  36  13  37  13  38  13
M  ISO  4  39  13  40  13  41  13  42  13
M  END
>  <minimizedAffinity>  (1) 
-5.40158272

>  <minimizedRMSD>  (1) 
1.69752645

$$$$
