
     RDKit          3D

 43 46  0  0  0  0  0  0  0  0999 V2000
   37.1280   26.7380   35.2450 C   0  0  0  0  0  0  0  0  0  0  0  0
   37.1930   27.2150   33.9460 C   0  0  0  0  0  0  0  0  0  0  0  0
   38.0450   26.6100   33.0170 C   0  0  0  0  0  0  0  0  0  0  0  0
   38.7680   25.5620   33.4830 N   0  0  0  0  0  0  0  0  0  0  0  0
   38.7000   25.1030   34.7480 C   0  0  0  0  0  0  0  0  0  0  0  0
   37.8690   25.7100   35.6130 N   0  0  0  0  0  0  0  0  0  0  0  0
   39.5300   23.9620   35.1230 C   0  0  0  0  0  0  0  0  0  0  0  0
   40.2730   23.4270   34.1470 C   0  0  0  0  0  0  0  0  0  0  0  0
   41.1760   22.0190   34.9780 S   0  0  0  0  0  0  0  0  0  0  0  0
   40.2960   22.4700   36.6200 C   0  0  0  0  0  0  0  0  0  0  0  0
   39.7180   23.3220   36.2180 N   0  0  0  0  0  0  0  0  0  0  0  0
   40.5080   21.7570   37.8270 N   0  0  0  0  0  0  0  0  0  0  0  0
   36.4290   28.3430   33.4150 C   0  0  0  0  0  0  0  0  0  0  0  0
   35.7310   29.2440   34.2400 C   0  0  0  0  0  0  0  0  0  0  0  0
   35.0690   30.2440   33.6020 C   0  0  0  0  0  0  0  0  0  0  0  0
   35.1290   30.3000   32.2370 C   0  0  0  0  0  0  0  0  0  0  0  0
   36.1990   28.8390   31.7550 S   0  0  0  0  0  0  0  0  0  0  0  0
   34.6040   31.1460   31.2090 C   0  0  0  0  0  0  0  0  0  0  0  0
   35.3200   31.9260   30.5880 O   0  0  0  0  0  0  0  0  0  0  0  0
   33.1920   31.0890   30.8850 N   0  0  0  0  0  0  0  0  0  0  0  0
   34.1020   31.5420   34.3550 S   0  0  0  0  0  0  0  0  0  0  0  0
   32.5250   30.9980   34.9930 C   0  0  0  0  0  0  0  0  0  0  0  0
   32.4560   30.8720   36.4870 C   0  0  0  0  0  0  0  0  0  0  0  0
   31.9200   29.4860   36.7760 C   0  0  0  0  0  0  0  0  0  0  0  0
   31.6100   28.8230   35.4720 C   0  0  0  0  0  0  0  0  0  0  0  0
   32.1660   29.6850   34.3840 C   0  0  0  0  0  0  0  0  0  0  0  0
   36.4564   27.2178   35.9721 H   0  0  0  0  0  0  0  0  0  0  0  0
   38.1235   26.9609   31.9774 H   0  0  0  0  0  0  0  0  0  0  0  0
   40.3372   23.7440   33.0956 H   0  0  0  0  0  0  0  0  0  0  0  0
   40.0115   22.0374   38.6848 H   0  0  0  0  0  0  0  0  0  0  0  0
   41.1585   20.9587   37.8461 H   0  0  0  0  0  0  0  0  0  0  0  0
   35.7219   29.1446   35.3355 H   0  0  0  0  0  0  0  0  0  0  0  0
   32.8083   31.6954   30.1461 H   0  0  0  0  0  0  0  0  0  0  0  0
   32.5726   30.4421   31.3937 H   0  0  0  0  0  0  0  0  0  0  0  0
   31.8110   31.7882   34.7178 H   0  0  0  0  0  0  0  0  0  0  0  0
   33.4578   30.9912   36.9253 H   0  0  0  0  0  0  0  0  0  0  0  0
   31.8094   31.6479   36.9227 H   0  0  0  0  0  0  0  0  0  0  0  0
   32.6755   28.9008   37.3208 H   0  0  0  0  0  0  0  0  0  0  0  0
   31.0124   29.5511   37.3941 H   0  0  0  0  0  0  0  0  0  0  0  0
   32.0762   27.8273   35.4371 H   0  0  0  0  0  0  0  0  0  0  0  0
   30.5239   28.6988   35.3500 H   0  0  0  0  0  0  0  0  0  0  0  0
   31.4115   29.8297   33.5967 H   0  0  0  0  0  0  0  0  0  0  0  0
   33.0499   29.2138   33.9293 H   0  0  0  0  0  0  0  0  0  0  0  0
  1  6  2  0
  2  1  1  0
  3  4  1  0
  3  2  2  0
  4  5  2  0
  5  7  1  0
  5  6  1  0
  7 11  1  0
  8  9  1  0
  8  7  2  0
  9 10  1  0
 10 12  1  0
 11 10  2  0
 13  2  1  0
 13 14  2  0
 15 14  1  0
 15 21  1  0
 16 15  2  0
 17 16  1  0
 17 13  1  0
 18 16  1  0
 19 18  2  0
 20 18  1  0
 21 22  1  0
 22 23  1  0
 23 24  1  0
 25 24  1  0
 26 22  1  0
 26 25  1  0
  1 27  1  0
  3 28  1  0
  8 29  1  0
 12 30  1  0
 12 31  1  0
 14 32  1  0
 20 33  1  0
 20 34  1  0
 22 35  1  0
 23 36  1  0
 23 37  1  0
 24 38  1  0
 24 39  1  0
 25 40  1  0
 25 41  1  0
 26 42  1  0
 26 43  1  0
M  ISO  8  27  14  28  14  29  14  32  14  35  13  36  13  37  13  38  13
M  ISO  5  39  13  40  13  41  13  42  13  43  13
M  END
>  <minimizedAffinity>  (1) 
-5.46933889

>  <minimizedRMSD>  (1) 
2.21414423

$$$$
