
     RDKit          3D

 27 28  0  0  1  0  0  0  0  0999 V2000
   37.4930   22.3080   33.7980 C   0  0  2  0  0  0  0  0  0  0  0  0
   36.9750   21.0360   33.1780 C   0  0  0  0  0  0  0  0  0  0  0  0
   35.7420   20.5020   33.5730 C   0  0  0  0  0  0  0  0  0  0  0  0
   35.2960   19.3280   32.9800 C   0  0  0  0  0  0  0  0  0  0  0  0
   36.0890   18.7590   32.0430 N   0  0  0  0  0  0  0  0  0  0  0  0
   37.2800   19.2810   31.6650 C   0  0  0  0  0  0  0  0  0  0  0  0
   37.7110   20.4160   32.2390 N   0  0  0  0  0  0  0  0  0  0  0  0
   37.5030   23.3010   32.6580 C   0  0  0  0  0  0  0  0  0  0  0  0
   38.8780   22.0500   34.3380 C   0  0  0  0  0  0  0  0  0  0  0  0
   38.8920   22.4700   35.7700 C   0  0  0  0  0  0  0  0  0  0  0  0
   37.7770   23.0170   36.3770 C   0  0  0  0  0  0  0  0  0  0  0  0
   37.8470   23.3870   37.7050 C   0  0  0  0  0  0  0  0  0  0  0  0
   39.0010   23.2120   38.3950 N   0  0  0  0  0  0  0  0  0  0  0  0
   40.0760   22.6780   37.7850 C   0  0  0  0  0  0  0  0  0  0  0  0
   40.0300   22.3080   36.4890 N   0  0  0  0  0  0  0  0  0  0  0  0
   36.8887   22.6808   34.6382 H   0  0  0  0  0  0  0  0  0  0  0  0
   35.1361   21.0048   34.3412 H   0  0  0  0  0  0  0  0  0  0  0  0
   34.3330   18.8771   33.2619 H   0  0  0  0  0  0  0  0  0  0  0  0
   37.8876   18.7809   30.8964 H   0  0  0  0  0  0  0  0  0  0  0  0
   37.5133   24.3238   33.0627 H   0  0  0  0  0  0  0  0  0  0  0  0
   38.3996   23.1418   32.0409 H   0  0  0  0  0  0  0  0  0  0  0  0
   36.6034   23.1599   32.0409 H   0  0  0  0  0  0  0  0  0  0  0  0
   39.1174   20.9793   34.2592 H   0  0  0  0  0  0  0  0  0  0  0  0
   39.6270   22.6147   33.7635 H   0  0  0  0  0  0  0  0  0  0  0  0
   36.8454   23.1557   35.8087 H   0  0  0  0  0  0  0  0  0  0  0  0
   36.9682   23.8230   38.2026 H   0  0  0  0  0  0  0  0  0  0  0  0
   41.0077   22.5412   38.3535 H   0  0  0  0  0  0  0  0  0  0  0  0
  1  9  1  0
  2  3  2  0
  2  1  1  0
  4  3  1  0
  5  4  2  0
  6  5  1  0
  6  7  2  0
  7  2  1  0
  8  1  1  0
  9 10  1  0
 10 11  2  0
 10 15  1  0
 11 12  1  0
 12 13  2  0
 14 13  1  0
 15 14  2  0
  1 16  1  1
  3 17  1  0
  4 18  1  0
  6 19  1  0
  8 20  1  0
  8 21  1  0
  8 22  1  0
  9 23  1  0
  9 24  1  0
 11 25  1  0
 12 26  1  0
 14 27  1  0
M  ISO  8  16   8  17  14  18  14  19  14  20   8  21   8  22   8  23   8
M  ISO  4  24   8  25  14  26  14  27  14
M  END
>  <minimizedAffinity>  (1) 
-3.86811304

>  <minimizedRMSD>  (1) 
5.89132977

$$$$
