
     RDKit          3D

 37 40  0  0  0  0  0  0  0  0999 V2000
   37.1780   26.6300   35.4540 C   0  0  0  0  0  0  0  0  0  0  0  0
   37.1110   27.0740   34.1250 C   0  0  0  0  0  0  0  0  0  0  0  0
   37.8720   26.4450   33.1440 C   0  0  0  0  0  0  0  0  0  0  0  0
   38.6430   25.4170   33.5740 N   0  0  0  0  0  0  0  0  0  0  0  0
   38.7010   24.9940   34.8590 C   0  0  0  0  0  0  0  0  0  0  0  0
   37.9560   25.6210   35.7810 N   0  0  0  0  0  0  0  0  0  0  0  0
   39.5770   23.8720   35.1720 C   0  0  0  0  0  0  0  0  0  0  0  0
   40.3050   23.3830   34.1600 C   0  0  0  0  0  0  0  0  0  0  0  0
   41.2690   21.9800   34.9300 S   0  0  0  0  0  0  0  0  0  0  0  0
   40.4280   22.3620   36.6070 C   0  0  0  0  0  0  0  0  0  0  0  0
   39.8090   23.2140   36.2520 N   0  0  0  0  0  0  0  0  0  0  0  0
   40.6890   21.6250   37.7890 N   0  0  0  0  0  0  0  0  0  0  0  0
   36.2830   28.1860   33.6640 C   0  0  0  0  0  0  0  0  0  0  0  0
   35.9850   29.3010   34.4680 C   0  0  0  0  0  0  0  0  0  0  0  0
   35.2040   30.2490   33.8930 C   0  0  0  0  0  0  0  0  0  0  0  0
   34.7700   30.0530   32.5990 C   0  0  0  0  0  0  0  0  0  0  0  0
   35.5070   28.4070   32.1160 S   0  0  0  0  0  0  0  0  0  0  0  0
   33.9700   30.7620   31.6550 C   0  0  0  0  0  0  0  0  0  0  0  0
   34.4850   31.5000   30.8050 O   0  0  0  0  0  0  0  0  0  0  0  0
   32.5330   30.6220   31.6790 N   0  0  0  0  0  0  0  0  0  0  0  0
   34.6490   31.7780   34.6220 S   0  0  0  0  0  0  0  0  0  0  0  0
   34.9140   31.7980   36.4110 C   0  0  0  0  0  0  0  0  0  0  0  0
   33.5980   31.7750   37.2020 C   0  0  0  0  0  0  0  0  0  0  0  0
   34.5040   32.9620   37.2320 C   0  0  0  0  0  0  0  0  0  0  0  0
   36.5760   27.1289   36.2278 H   0  0  0  0  0  0  0  0  0  0  0  0
   37.8491   26.7611   32.0906 H   0  0  0  0  0  0  0  0  0  0  0  0
   40.3297   23.7279   33.1158 H   0  0  0  0  0  0  0  0  0  0  0  0
   40.2092   21.8718   38.6663 H   0  0  0  0  0  0  0  0  0  0  0  0
   41.3585   20.8425   37.7707 H   0  0  0  0  0  0  0  0  0  0  0  0
   36.3613   29.3979   35.4971 H   0  0  0  0  0  0  0  0  0  0  0  0
   31.9543   31.1336   30.9977 H   0  0  0  0  0  0  0  0  0  0  0  0
   32.0867   30.0105   32.3775 H   0  0  0  0  0  0  0  0  0  0  0  0
   35.8587   31.2377   36.3521 H   0  0  0  0  0  0  0  0  0  0  0  0
   32.6339   31.8272   36.6749 H   0  0  0  0  0  0  0  0  0  0  0  0
   33.1445   31.1130   37.9544 H   0  0  0  0  0  0  0  0  0  0  0  0
   35.0575   33.2007   38.1521 H   0  0  0  0  0  0  0  0  0  0  0  0
   34.3678   34.0338   37.0256 H   0  0  0  0  0  0  0  0  0  0  0  0
  1  6  2  0
  2  1  1  0
  3  4  1  0
  3  2  2  0
  4  5  2  0
  5  7  1  0
  5  6  1  0
  7 11  1  0
  8  9  1  0
  8  7  2  0
  9 10  1  0
 10 12  1  0
 11 10  2  0
 13  2  1  0
 13 14  2  0
 15 14  1  0
 15 21  1  0
 16 15  2  0
 17 16  1  0
 17 13  1  0
 18 20  1  0
 18 16  1  0
 19 18  2  0
 21 22  1  0
 22 23  1  0
 22 24  1  0
 23 24  1  0
  1 25  1  0
  3 26  1  0
  8 27  1  0
 12 28  1  0
 12 29  1  0
 14 30  1  0
 20 31  1  0
 20 32  1  0
 22 33  1  0
 23 34  1  0
 23 35  1  0
 24 36  1  0
 24 37  1  0
M  ISO  8  25  14  26  14  27  14  30  14  33  13  34  13  35  13  36  13
M  ISO  1  37  13
M  END
>  <minimizedAffinity>  (1) 
-5.2712183

>  <minimizedRMSD>  (1) 
2.26204395

$$$$
