
     RDKit          3D

 35 39  0  0  0  0  0  0  0  0999 V2000
   39.4990   25.2630   33.2470 C   0  0  0  0  0  0  0  0  0  0  0  0
   40.1300   25.4340   34.4770 C   0  0  0  0  0  0  0  0  0  0  0  0
   40.9620   26.5270   34.6560 C   0  0  0  0  0  0  0  0  0  0  0  0
   41.1310   27.3920   33.6200 N   0  0  0  0  0  0  0  0  0  0  0  0
   40.4990   27.1990   32.4220 C   0  0  0  0  0  0  0  0  0  0  0  0
   39.6870   26.1380   32.2410 N   0  0  0  0  0  0  0  0  0  0  0  0
   38.6320   24.1610   32.9990 N   0  0  0  0  0  0  0  0  0  0  0  0
   38.8810   22.9120   33.4760 C   0  0  0  0  0  0  0  0  0  0  0  0
   37.9320   22.0640   33.1120 N   0  0  0  0  0  0  0  0  0  0  0  0
   37.0230   22.7300   32.3820 C   0  0  0  0  0  0  0  0  0  0  0  0
   35.8290   22.4440   31.7220 C   0  0  0  0  0  0  0  0  0  0  0  0
   35.4130   21.2630   31.7730 O   0  0  0  0  0  0  0  0  0  0  0  0
   35.1800   23.4280   31.0690 N   0  0  0  0  0  0  0  0  0  0  0  0
   35.6360   24.7030   31.0200 C   0  0  0  0  0  0  0  0  0  0  0  0
   34.9070   25.7010   30.3130 N   0  0  0  0  0  0  0  0  0  0  0  0
   36.8040   25.0000   31.6600 N   0  0  0  0  0  0  0  0  0  0  0  0
   37.4770   24.0310   32.3240 C   0  0  0  0  0  0  0  0  0  0  0  0
   39.9220   24.5140   35.5100 N   0  0  0  0  0  0  0  0  0  0  0  0
   38.8260   24.4260   36.2960 C   0  0  0  0  0  0  0  0  0  0  0  0
   38.9350   23.4350   37.1950 N   0  0  0  0  0  0  0  0  0  0  0  0
   40.1360   22.8630   36.9870 C   0  0  0  0  0  0  0  0  0  0  0  0
   40.8190   21.8210   37.5700 C   0  0  0  0  0  0  0  0  0  0  0  0
   42.0430   21.4110   37.1890 N   0  0  0  0  0  0  0  0  0  0  0  0
   42.5980   22.1000   36.1600 C   0  0  0  0  0  0  0  0  0  0  0  0
   41.9340   23.1090   35.5980 N   0  0  0  0  0  0  0  0  0  0  0  0
   40.7270   23.5400   35.9460 C   0  0  0  0  0  0  0  0  0  0  0  0
   41.4748   26.6918   35.6151 H   0  0  0  0  0  0  0  0  0  0  0  0
   40.6544   27.9143   31.6009 H   0  0  0  0  0  0  0  0  0  0  0  0
   39.7565   22.6418   34.0847 H   0  0  0  0  0  0  0  0  0  0  0  0
   34.2990   23.2010   30.5861 H   0  0  0  0  0  0  0  0  0  0  0  0
   35.2585   26.6686   30.2792 H   0  0  0  0  0  0  0  0  0  0  0  0
   34.0281   25.4554   29.8354 H   0  0  0  0  0  0  0  0  0  0  0  0
   37.9506   25.0865   36.2095 H   0  0  0  0  0  0  0  0  0  0  0  0
   40.3335   21.2885   38.4011 H   0  0  0  0  0  0  0  0  0  0  0  0
   43.5967   21.8252   35.7897 H   0  0  0  0  0  0  0  0  0  0  0  0
  1  2  1  0
  2  3  2  0
  2 18  1  0
  4  3  1  0
  5  4  2  0
  6  5  1  0
  6  1  2  0
  7  1  1  0
  7  8  1  0
  9  8  2  0
 10  9  1  0
 11 12  2  0
 11 10  1  0
 13 11  1  0
 14 13  1  0
 14 16  2  0
 15 14  1  0
 16 17  1  0
 17 10  2  0
 17  7  1  0
 18 26  1  0
 18 19  1  0
 19 20  2  0
 21 20  1  0
 21 22  2  0
 23 22  1  0
 24 23  2  0
 25 26  2  0
 25 24  1  0
 26 21  1  0
  3 27  1  0
  5 28  1  0
  8 29  1  0
 13 30  1  0
 15 31  1  0
 15 32  1  0
 19 33  1  0
 22 34  1  0
 24 35  1  0
M  ISO  7  27  14  28  14  29  14  30   9  33  14  34  14  35  14
M  END
>  <minimizedAffinity>  (1) 
-6.04705954

>  <minimizedRMSD>  (1) 
2.04277873

$$$$
