
     RDKit          3D

 37 40  0  0  0  0  0  0  0  0999 V2000
   37.9360   25.1420   34.1700 C   0  0  0  0  0  0  0  0  0  0  0  0
   38.2530   26.4880   34.0570 C   0  0  0  0  0  0  0  0  0  0  0  0
   39.5040   26.9560   34.4870 C   0  0  0  0  0  0  0  0  0  0  0  0
   40.3260   25.9990   34.9950 N   0  0  0  0  0  0  0  0  0  0  0  0
   39.9970   24.6910   35.0960 C   0  0  0  0  0  0  0  0  0  0  0  0
   38.8040   24.2910   34.6790 N   0  0  0  0  0  0  0  0  0  0  0  0
   41.0080   23.7990   35.6730 C   0  0  0  0  0  0  0  0  0  0  0  0
   42.3010   24.0210   35.3080 C   0  0  0  0  0  0  0  0  0  0  0  0
   43.2260   22.6900   36.2530 S   0  0  0  0  0  0  0  0  0  0  0  0
   41.5720   22.0700   36.9920 C   0  0  0  0  0  0  0  0  0  0  0  0
   40.9020   22.7970   36.5000 N   0  0  0  0  0  0  0  0  0  0  0  0
   41.5030   20.9750   37.8900 N   0  0  0  0  0  0  0  0  0  0  0  0
   37.3760   27.5270   33.5150 C   0  0  0  0  0  0  0  0  0  0  0  0
   36.4420   28.2270   34.2990 C   0  0  0  0  0  0  0  0  0  0  0  0
   35.7000   29.1610   33.6640 C   0  0  0  0  0  0  0  0  0  0  0  0
   35.9090   29.3530   32.3260 C   0  0  0  0  0  0  0  0  0  0  0  0
   37.2600   28.1340   31.8820 S   0  0  0  0  0  0  0  0  0  0  0  0
   35.3830   30.1910   31.2900 C   0  0  0  0  0  0  0  0  0  0  0  0
   36.0920   30.7140   30.4510 O   0  0  0  0  0  0  0  0  0  0  0  0
   33.9420   30.4350   31.2300 N   0  0  0  0  0  0  0  0  0  0  0  0
   34.4410   30.2150   34.3580 S   0  0  0  0  0  0  0  0  0  0  0  0
   35.1000   31.8160   34.6830 C   0  0  0  0  0  0  0  0  0  0  0  0
   36.1430   32.2440   35.5800 C   0  0  0  0  0  0  0  0  0  0  0  0
   36.4600   33.5680   35.6350 C   0  0  0  0  0  0  0  0  0  0  0  0
   35.7060   34.5250   34.7540 C   0  0  0  0  0  0  0  0  0  0  0  0
   34.5290   33.3270   33.8730 S   0  0  0  0  0  0  0  0  0  0  0  0
   36.9528   24.7825   33.8322 H   0  0  0  0  0  0  0  0  0  0  0  0
   39.7969   28.0141   34.4186 H   0  0  0  0  0  0  0  0  0  0  0  0
   42.7024   24.7881   34.6295 H   0  0  0  0  0  0  0  0  0  0  0  0
   40.5924   20.6730   38.2649 H   0  0  0  0  0  0  0  0  0  0  0  0
   42.3634   20.4815   38.1674 H   0  0  0  0  0  0  0  0  0  0  0  0
   36.3215   28.0248   35.3735 H   0  0  0  0  0  0  0  0  0  0  0  0
   33.5518   31.0357   30.4899 H   0  0  0  0  0  0  0  0  0  0  0  0
   33.3176   30.0061   31.9279 H   0  0  0  0  0  0  0  0  0  0  0  0
   36.6741   31.5147   36.2094 H   0  0  0  0  0  0  0  0  0  0  0  0
   37.2505   33.9289   36.3094 H   0  0  0  0  0  0  0  0  0  0  0  0
   35.8084   35.6152   34.6496 H   0  0  0  0  0  0  0  0  0  0  0  0
  1  6  2  0
  2  1  1  0
  2  3  2  0
  3  4  1  0
  4  5  2  0
  5  7  1  0
  6  5  1  0
  7 11  1  0
  8  7  2  0
  8  9  1  0
  9 10  1  0
 10 12  1  0
 11 10  2  0
 13  2  1  0
 13 14  2  0
 15 14  1  0
 15 21  1  0
 16 15  2  0
 17 16  1  0
 17 13  1  0
 18 16  1  0
 19 18  2  0
 20 18  1  0
 21 22  1  0
 22 23  2  0
 23 24  1  0
 25 24  2  0
 26 22  1  0
 26 25  1  0
  1 27  1  0
  3 28  1  0
  8 29  1  0
 12 30  1  0
 12 31  1  0
 14 32  1  0
 20 33  1  0
 20 34  1  0
 23 35  1  0
 24 36  1  0
 25 37  1  0
M  ISO  7  27  14  28  14  29  14  32  14  35  14  36  14  37  14
M  END
>  <minimizedAffinity>  (1) 
-5.2867198

>  <minimizedRMSD>  (1) 
1.48887622

$$$$
