
     RDKit          3D

 35 39  0  0  0  0  0  0  0  0999 V2000
   37.5680   23.9920   32.8200 C   0  0  0  0  0  0  0  0  0  0  0  0
   37.8720   24.6160   34.0250 C   0  0  0  0  0  0  0  0  0  0  0  0
   37.6120   25.9780   34.1560 C   0  0  0  0  0  0  0  0  0  0  0  0
   37.0680   26.6450   33.1000 N   0  0  0  0  0  0  0  0  0  0  0  0
   36.7790   26.0010   31.9280 C   0  0  0  0  0  0  0  0  0  0  0  0
   37.0330   24.6820   31.8010 N   0  0  0  0  0  0  0  0  0  0  0  0
   38.4280   23.8930   35.0790 N   0  0  0  0  0  0  0  0  0  0  0  0
   37.7580   23.1550   35.9910 C   0  0  0  0  0  0  0  0  0  0  0  0
   38.5890   22.5810   36.8820 N   0  0  0  0  0  0  0  0  0  0  0  0
   39.8260   22.9580   36.5380 C   0  0  0  0  0  0  0  0  0  0  0  0
   41.0820   22.7100   37.0430 C   0  0  0  0  0  0  0  0  0  0  0  0
   42.2180   23.2050   36.5270 N   0  0  0  0  0  0  0  0  0  0  0  0
   42.0680   24.0010   35.4250 C   0  0  0  0  0  0  0  0  0  0  0  0
   40.8550   24.2460   34.9290 N   0  0  0  0  0  0  0  0  0  0  0  0
   39.7120   23.7720   35.4180 C   0  0  0  0  0  0  0  0  0  0  0  0
   37.8140   22.5690   32.6050 C   0  0  0  0  0  0  0  0  0  0  0  0
   39.0290   21.9150   32.5330 C   0  0  0  0  0  0  0  0  0  0  0  0
   38.7600   20.6020   32.3210 N   0  0  0  0  0  0  0  0  0  0  0  0
   37.4330   20.3880   32.2530 C   0  0  0  0  0  0  0  0  0  0  0  0
   36.7040   19.2120   32.0510 C   0  0  0  0  0  0  0  0  0  0  0  0
   35.3230   19.3480   32.0360 C   0  0  0  0  0  0  0  0  0  0  0  0
   34.6480   20.5480   32.2070 C   0  0  0  0  0  0  0  0  0  0  0  0
   35.4260   21.6820   32.4050 C   0  0  0  0  0  0  0  0  0  0  0  0
   36.8010   21.6220   32.4300 C   0  0  0  0  0  0  0  0  0  0  0  0
   37.8414   26.5049   35.0939 H   0  0  0  0  0  0  0  0  0  0  0  0
   36.3391   26.5592   31.0884 H   0  0  0  0  0  0  0  0  0  0  0  0
   36.6644   23.0370   36.0042 H   0  0  0  0  0  0  0  0  0  0  0  0
   41.1602   22.0627   37.9289 H   0  0  0  0  0  0  0  0  0  0  0  0
   42.9540   24.4419   34.9448 H   0  0  0  0  0  0  0  0  0  0  0  0
   40.0250   22.3719   32.6292 H   0  0  0  0  0  0  0  0  0  0  0  0
   39.4756   19.8674   32.2250 H   0  0  0  0  0  0  0  0  0  0  0  0
   37.1955   18.2378   31.9123 H   0  0  0  0  0  0  0  0  0  0  0  0
   34.7214   18.4408   31.8774 H   0  0  0  0  0  0  0  0  0  0  0  0
   33.5494   20.5992   32.1868 H   0  0  0  0  0  0  0  0  0  0  0  0
   34.9299   22.6537   32.5455 H   0  0  0  0  0  0  0  0  0  0  0  0
  1  2  1  0
  2  3  2  0
  2  7  1  0
  4  3  1  0
  5  4  2  0
  6  5  1  0
  6  1  2  0
  7 15  1  0
  7  8  1  0
  8  9  2  0
 10  9  1  0
 10 11  2  0
 12 11  1  0
 13 12  2  0
 14 15  2  0
 14 13  1  0
 15 10  1  0
 16  1  1  0
 17 16  2  0
 18 17  1  0
 19 18  1  0
 19 24  2  0
 20 19  1  0
 21 20  2  0
 21 22  1  0
 22 23  2  0
 23 24  1  0
 24 16  1  0
  3 25  1  0
  5 26  1  0
  8 27  1  0
 11 28  1  0
 13 29  1  0
 17 30  1  0
 18 31  1  0
 20 32  1  0
 21 33  1  0
 22 34  1  0
 23 35  1  0
M  ISO  8  25  14  26  14  27  14  28  14  29  14  30  14  31   9  32  14
M  ISO  3  33  14  34  14  35  14
M  END
>  <minimizedAffinity>  (1) 
-5.45955849

>  <minimizedRMSD>  (1) 
2.5415628

$$$$
