
     RDKit          3D

 30 33  0  0  0  0  0  0  0  0999 V2000
   37.7480   24.9960   33.7050 C   0  0  0  0  0  0  0  0  0  0  0  0
   37.8840   25.3850   35.0280 C   0  0  0  0  0  0  0  0  0  0  0  0
   37.6190   26.7220   35.3540 C   0  0  0  0  0  0  0  0  0  0  0  0
   37.2390   27.5890   34.3810 N   0  0  0  0  0  0  0  0  0  0  0  0
   37.1140   27.1830   33.0990 C   0  0  0  0  0  0  0  0  0  0  0  0
   37.3630   25.9210   32.7790 N   0  0  0  0  0  0  0  0  0  0  0  0
   38.2820   24.4740   36.0000 N   0  0  0  0  0  0  0  0  0  0  0  0
   37.5070   23.9590   36.9740 C   0  0  0  0  0  0  0  0  0  0  0  0
   38.1930   23.0980   37.7480 N   0  0  0  0  0  0  0  0  0  0  0  0
   39.4430   23.0610   37.2570 C   0  0  0  0  0  0  0  0  0  0  0  0
   40.5930   22.3810   37.5970 C   0  0  0  0  0  0  0  0  0  0  0  0
   41.7590   22.4980   36.9450 N   0  0  0  0  0  0  0  0  0  0  0  0
   41.7620   23.3530   35.8840 C   0  0  0  0  0  0  0  0  0  0  0  0
   40.6570   24.0050   35.5590 N   0  0  0  0  0  0  0  0  0  0  0  0
   39.4900   23.9200   36.1700 C   0  0  0  0  0  0  0  0  0  0  0  0
   37.9450   23.6380   33.2230 C   0  0  0  0  0  0  0  0  0  0  0  0
   39.0200   23.3440   32.4140 C   0  0  0  0  0  0  0  0  0  0  0  0
   39.3410   22.1220   31.8820 C   0  0  0  0  0  0  0  0  0  0  0  0
   38.5210   21.0560   32.1700 C   0  0  0  0  0  0  0  0  0  0  0  0
   37.4420   21.3260   32.9760 C   0  0  0  0  0  0  0  0  0  0  0  0
   37.2020   22.5510   33.4520 N   0  0  0  0  0  0  0  0  0  0  0  0
   37.7185   27.0673   36.3936 H   0  0  0  0  0  0  0  0  0  0  0  0
   36.8062   27.8982   32.3220 H   0  0  0  0  0  0  0  0  0  0  0  0
   36.4460   24.2108   37.1186 H   0  0  0  0  0  0  0  0  0  0  0  0
   40.5515   21.6985   38.4586 H   0  0  0  0  0  0  0  0  0  0  0  0
   42.6814   23.5011   35.2985 H   0  0  0  0  0  0  0  0  0  0  0  0
   39.6929   24.1788   32.1685 H   0  0  0  0  0  0  0  0  0  0  0  0
   40.2282   21.9977   31.2437 H   0  0  0  0  0  0  0  0  0  0  0  0
   38.7176   20.0471   31.7781 H   0  0  0  0  0  0  0  0  0  0  0  0
   36.7543   20.5083   33.2376 H   0  0  0  0  0  0  0  0  0  0  0  0
  1  2  1  0
  2  3  2  0
  2  7  1  0
  4  3  1  0
  5  4  2  0
  6  5  1  0
  6  1  2  0
  7 15  1  0
  7  8  1  0
  8  9  2  0
 10 11  2  0
 10  9  1  0
 12 11  1  0
 13 12  2  0
 14 13  1  0
 14 15  2  0
 15 10  1  0
 16 21  1  0
 16  1  1  0
 17 16  2  0
 18 19  2  0
 18 17  1  0
 19 20  1  0
 20 21  2  0
  3 22  1  0
  5 23  1  0
  8 24  1  0
 11 25  1  0
 13 26  1  0
 17 27  1  0
 18 28  1  0
 19 29  1  0
 20 30  1  0
M  ISO  8  22  14  23  14  24  14  25  14  26  14  27  14  28  14  29  14
M  ISO  1  30  14
M  END
>  <minimizedAffinity>  (1) 
-4.73883533

>  <minimizedRMSD>  (1) 
0.986797988

$$$$
