
     RDKit          3D

 37 40  0  0  0  0  0  0  0  0999 V2000
   37.6910   25.1740   33.7300 C   0  0  0  0  0  0  0  0  0  0  0  0
   37.8830   25.5170   35.0640 C   0  0  0  0  0  0  0  0  0  0  0  0
   37.6840   26.8480   35.4430 C   0  0  0  0  0  0  0  0  0  0  0  0
   37.3140   27.7680   34.5230 N   0  0  0  0  0  0  0  0  0  0  0  0
   37.1330   27.3960   33.2150 C   0  0  0  0  0  0  0  0  0  0  0  0
   37.3200   26.1160   32.8260 N   0  0  0  0  0  0  0  0  0  0  0  0
   38.2670   24.5540   35.9850 N   0  0  0  0  0  0  0  0  0  0  0  0
   37.4710   23.9910   36.9260 C   0  0  0  0  0  0  0  0  0  0  0  0
   38.1470   23.0900   37.6670 N   0  0  0  0  0  0  0  0  0  0  0  0
   39.4010   23.0740   37.1930 C   0  0  0  0  0  0  0  0  0  0  0  0
   40.5370   22.3750   37.5250 C   0  0  0  0  0  0  0  0  0  0  0  0
   41.7210   22.5200   36.8980 N   0  0  0  0  0  0  0  0  0  0  0  0
   41.7440   23.4270   35.8780 C   0  0  0  0  0  0  0  0  0  0  0  0
   40.6410   24.0910   35.5710 N   0  0  0  0  0  0  0  0  0  0  0  0
   39.4620   23.9850   36.1530 C   0  0  0  0  0  0  0  0  0  0  0  0
   37.8240   23.8270   33.1360 C   0  0  0  0  0  0  0  0  0  0  0  0
   36.6860   23.6920   32.1300 C   0  0  0  0  0  0  0  0  0  0  0  0
   37.2850   23.9100   30.7430 C   0  0  0  0  0  0  0  0  0  0  0  0
   38.1190   22.6850   30.4240 C   0  0  0  0  0  0  0  0  0  0  0  0
   39.0260   22.3870   31.5950 C   0  0  0  0  0  0  0  0  0  0  0  0
   39.1530   23.6370   32.4430 C   0  0  0  0  0  0  0  0  0  0  0  0
   37.8286   27.1476   36.4915 H   0  0  0  0  0  0  0  0  0  0  0  0
   36.8316   28.1501   32.4731 H   0  0  0  0  0  0  0  0  0  0  0  0
   36.4084   24.2377   37.0674 H   0  0  0  0  0  0  0  0  0  0  0  0
   40.4759   21.6533   38.3529 H   0  0  0  0  0  0  0  0  0  0  0  0
   42.6724   23.6047   35.3154 H   0  0  0  0  0  0  0  0  0  0  0  0
   37.7763   23.0607   33.9238 H   0  0  0  0  0  0  0  0  0  0  0  0
   36.2416   22.6879   32.1955 H   0  0  0  0  0  0  0  0  0  0  0  0
   35.8936   24.4271   32.3342 H   0  0  0  0  0  0  0  0  0  0  0  0
   36.4831   24.0255   29.9989 H   0  0  0  0  0  0  0  0  0  0  0  0
   37.9005   24.8214   30.7196 H   0  0  0  0  0  0  0  0  0  0  0  0
   37.4570   21.8255   30.2426 H   0  0  0  0  0  0  0  0  0  0  0  0
   38.7238   22.8719   29.5244 H   0  0  0  0  0  0  0  0  0  0  0  0
   38.5967   21.5731   32.1977 H   0  0  0  0  0  0  0  0  0  0  0  0
   40.0174   22.0787   31.2317 H   0  0  0  0  0  0  0  0  0  0  0  0
   39.9539   23.5112   33.1865 H   0  0  0  0  0  0  0  0  0  0  0  0
   39.4059   24.5110   31.8249 H   0  0  0  0  0  0  0  0  0  0  0  0
  1  2  1  0
  2  3  2  0
  2  7  1  0
  4  3  1  0
  5  4  2  0
  6  5  1  0
  6  1  2  0
  7 15  1  0
  7  8  1  0
  8  9  2  0
 10 11  2  0
 10  9  1  0
 12 11  1  0
 13 12  2  0
 14 13  1  0
 14 15  2  0
 15 10  1  0
 16  1  1  0
 17 16  1  0
 18 17  1  0
 19 18  1  0
 19 20  1  0
 20 21  1  0
 21 16  1  0
  3 22  1  0
  5 23  1  0
  8 24  1  0
 11 25  1  0
 13 26  1  0
 16 27  1  0
 17 28  1  0
 17 29  1  0
 18 30  1  0
 18 31  1  0
 19 32  1  0
 19 33  1  0
 20 34  1  0
 20 35  1  0
 21 36  1  0
 21 37  1  0
M  ISO  8  22  14  23  14  24  14  25  14  26  14  27  13  28  13  29  13
M  ISO  8  30  13  31  13  32  13  33  13  34  13  35  13  36  13  37  13
M  END
>  <minimizedAffinity>  (1) 
-4.94163275

>  <minimizedRMSD>  (1) 
0.868448019

$$$$
