
     RDKit          3D

 28 31  0  0  0  0  0  0  0  0999 V2000
   37.5510   25.2310   33.8730 C   0  0  0  0  0  0  0  0  0  0  0  0
   37.9340   25.5470   35.1870 C   0  0  0  0  0  0  0  0  0  0  0  0
   37.9050   26.8740   35.5630 C   0  0  0  0  0  0  0  0  0  0  0  0
   37.5110   27.8130   34.6570 N   0  0  0  0  0  0  0  0  0  0  0  0
   37.1470   27.4770   33.3970 C   0  0  0  0  0  0  0  0  0  0  0  0
   37.1660   26.1990   33.0100 N   0  0  0  0  0  0  0  0  0  0  0  0
   37.5480   23.8930   33.3910 N   0  0  0  0  0  0  0  0  0  0  0  0
   37.8470   22.8950   34.2260 N   0  0  0  0  0  0  0  0  0  0  0  0
   37.7840   21.7210   33.5660 C   0  0  0  0  0  0  0  0  0  0  0  0
   37.4300   21.9760   32.2520 C   0  0  0  0  0  0  0  0  0  0  0  0
   37.2920   23.3490   32.1880 C   0  0  0  0  0  0  0  0  0  0  0  0
   38.3260   24.5430   36.0630 N   0  0  0  0  0  0  0  0  0  0  0  0
   37.5320   23.9490   36.9850 C   0  0  0  0  0  0  0  0  0  0  0  0
   38.2060   23.0140   37.6820 N   0  0  0  0  0  0  0  0  0  0  0  0
   39.4610   23.0020   37.2000 C   0  0  0  0  0  0  0  0  0  0  0  0
   40.6040   22.2950   37.4780 C   0  0  0  0  0  0  0  0  0  0  0  0
   41.7770   22.4610   36.8470 N   0  0  0  0  0  0  0  0  0  0  0  0
   41.7890   23.4030   35.8760 C   0  0  0  0  0  0  0  0  0  0  0  0
   40.6860   24.0980   35.5950 N   0  0  0  0  0  0  0  0  0  0  0  0
   39.5160   23.9590   36.1970 C   0  0  0  0  0  0  0  0  0  0  0  0
   38.1963   27.1706   36.5814 H   0  0  0  0  0  0  0  0  0  0  0  0
   36.8346   28.2593   32.6897 H   0  0  0  0  0  0  0  0  0  0  0  0
   37.9805   20.7288   33.9982 H   0  0  0  0  0  0  0  0  0  0  0  0
   37.2898   21.2475   31.4398 H   0  0  0  0  0  0  0  0  0  0  0  0
   37.0138   23.9140   31.2861 H   0  0  0  0  0  0  0  0  0  0  0  0
   36.4725   24.1980   37.1444 H   0  0  0  0  0  0  0  0  0  0  0  0
   40.5553   21.5383   38.2748 H   0  0  0  0  0  0  0  0  0  0  0  0
   42.7148   23.5970   35.3145 H   0  0  0  0  0  0  0  0  0  0  0  0
  1  2  1  0
  2  3  2  0
  2 12  1  0
  4  3  1  0
  5  4  2  0
  6  5  1  0
  6  1  2  0
  7  1  1  0
  7  8  1  0
  9  8  2  0
 10  9  1  0
 11 10  2  0
 11  7  1  0
 12 20  1  0
 12 13  1  0
 13 14  2  0
 15 16  2  0
 15 14  1  0
 17 16  1  0
 18 17  2  0
 19 18  1  0
 19 20  2  0
 20 15  1  0
  3 21  1  0
  5 22  1  0
  9 23  1  0
 10 24  1  0
 11 25  1  0
 13 26  1  0
 16 27  1  0
 18 28  1  0
M  ISO  8  21  14  22  14  23  14  24  14  25  14  26  14  27  14  28  14
M  END
>  <minimizedAffinity>  (1) 
-4.94337368

>  <minimizedRMSD>  (1) 
0.693733752

$$$$
