
     RDKit          3D

 28 30  0  0  0  0  0  0  0  0999 V2000
   37.7460   25.1740   34.4700 C   0  0  0  0  0  0  0  0  0  0  0  0
   38.2490   25.4870   35.7450 C   0  0  0  0  0  0  0  0  0  0  0  0
   38.2620   26.8240   36.1290 C   0  0  0  0  0  0  0  0  0  0  0  0
   37.7900   27.7570   35.2580 N   0  0  0  0  0  0  0  0  0  0  0  0
   37.3100   27.4250   34.0350 C   0  0  0  0  0  0  0  0  0  0  0  0
   37.2890   26.1430   33.6480 N   0  0  0  0  0  0  0  0  0  0  0  0
   38.7180   24.4730   36.5850 N   0  0  0  0  0  0  0  0  0  0  0  0
   38.1850   24.1270   37.7700 C   0  0  0  0  0  0  0  0  0  0  0  0
   38.8630   23.1150   38.3350 N   0  0  0  0  0  0  0  0  0  0  0  0
   39.8540   22.8090   37.4890 C   0  0  0  0  0  0  0  0  0  0  0  0
   40.8760   21.8800   37.4930 C   0  0  0  0  0  0  0  0  0  0  0  0
   41.7820   21.7470   36.5110 N   0  0  0  0  0  0  0  0  0  0  0  0
   41.6490   22.6000   35.4670 C   0  0  0  0  0  0  0  0  0  0  0  0
   40.6650   23.5030   35.4510 N   0  0  0  0  0  0  0  0  0  0  0  0
   39.7610   23.6620   36.3950 C   0  0  0  0  0  0  0  0  0  0  0  0
   37.7060   23.8230   34.0210 N   0  0  0  0  0  0  0  0  0  0  0  0
   37.4110   23.5060   32.6480 C   0  0  0  0  0  0  0  0  0  0  0  0
   37.2900   24.4790   31.8100 N   0  0  0  0  0  0  0  0  0  0  0  0
   37.2500   22.1680   32.1910 N   0  0  0  0  0  0  0  0  0  0  0  0
   37.0800   24.3070   30.8230 H   0  0  0  0  0  0  0  0  0  0  0  0
   38.6458   27.1209   37.1162 H   0  0  0  0  0  0  0  0  0  0  0  0
   36.9373   28.2091   33.3595 H   0  0  0  0  0  0  0  0  0  0  0  0
   37.3055   24.6113   38.2194 H   0  0  0  0  0  0  0  0  0  0  0  0
   40.9528   21.2045   38.3577 H   0  0  0  0  0  0  0  0  0  0  0  0
   42.3566   22.5486   34.6263 H   0  0  0  0  0  0  0  0  0  0  0  0
   37.8910   23.0610   34.6889 H   0  0  0  0  0  0  0  0  0  0  0  0
   37.0393   21.9842   31.1997 H   0  0  0  0  0  0  0  0  0  0  0  0
   37.3442   21.3833   32.8515 H   0  0  0  0  0  0  0  0  0  0  0  0
  1  2  2  0
  2  3  1  0
  2  7  1  0
  4  3  2  0
  5  4  1  0
  6  5  2  0
  6  1  1  0
  7  8  1  0
  8  9  2  0
 10 11  2  0
 10  9  1  0
 12 11  1  0
 13 12  2  0
 14 13  1  0
 14 15  2  0
 15  7  1  0
 15 10  1  0
 16  1  1  0
 17 16  1  0
 18 17  2  0
 19 17  1  0
 20 18  1  0
  3 21  1  0
  5 22  1  0
  8 23  1  0
 11 24  1  0
 13 25  1  0
 16 26  1  0
 19 27  1  0
 19 28  1  0
M  ISO  5  21  14  22  14  23  14  24  14  25  14
M  END
>  <minimizedAffinity>  (1) 
-4.60288382

>  <minimizedRMSD>  (1) 
0.224708498

$$$$
