
     RDKit          3D

 31 34  0  0  0  0  0  0  0  0999 V2000
   37.7020   24.8460   33.5520 C   0  0  0  0  0  0  0  0  0  0  0  0
   37.8590   25.3290   34.8660 C   0  0  0  0  0  0  0  0  0  0  0  0
   37.6070   26.6600   35.1220 C   0  0  0  0  0  0  0  0  0  0  0  0
   37.2150   27.4600   34.0970 N   0  0  0  0  0  0  0  0  0  0  0  0
   37.0670   26.9860   32.8410 C   0  0  0  0  0  0  0  0  0  0  0  0
   37.3070   25.6930   32.5700 N   0  0  0  0  0  0  0  0  0  0  0  0
   38.2700   24.4510   35.8680 N   0  0  0  0  0  0  0  0  0  0  0  0
   37.4900   23.9370   36.8410 C   0  0  0  0  0  0  0  0  0  0  0  0
   38.1930   23.1160   37.6510 N   0  0  0  0  0  0  0  0  0  0  0  0
   39.4450   23.1040   37.1910 C   0  0  0  0  0  0  0  0  0  0  0  0
   40.6100   22.4740   37.5770 C   0  0  0  0  0  0  0  0  0  0  0  0
   41.7870   22.6110   36.9550 N   0  0  0  0  0  0  0  0  0  0  0  0
   41.7890   23.4320   35.8770 C   0  0  0  0  0  0  0  0  0  0  0  0
   40.6660   24.0440   35.4950 N   0  0  0  0  0  0  0  0  0  0  0  0
   39.4790   23.9310   36.0920 C   0  0  0  0  0  0  0  0  0  0  0  0
   37.9420   23.4640   33.1560 C   0  0  0  0  0  0  0  0  0  0  0  0
   39.1100   23.2980   32.4040 C   0  0  0  0  0  0  0  0  0  0  0  0
   39.5280   22.0730   31.9240 C   0  0  0  0  0  0  0  0  0  0  0  0
   38.7910   20.9410   32.1750 C   0  0  0  0  0  0  0  0  0  0  0  0
   37.6440   21.1160   32.9150 C   0  0  0  0  0  0  0  0  0  0  0  0
   37.2080   22.3260   33.4030 C   0  0  0  0  0  0  0  0  0  0  0  0
   37.7213   27.0665   36.1377 H   0  0  0  0  0  0  0  0  0  0  0  0
   36.7479   27.6633   32.0352 H   0  0  0  0  0  0  0  0  0  0  0  0
   36.4190   24.1580   36.9596 H   0  0  0  0  0  0  0  0  0  0  0  0
   40.5687   21.8140   38.4560 H   0  0  0  0  0  0  0  0  0  0  0  0
   42.7201   23.5948   35.3143 H   0  0  0  0  0  0  0  0  0  0  0  0
   39.7235   24.1844   32.1851 H   0  0  0  0  0  0  0  0  0  0  0  0
   40.4560   22.0029   31.3375 H   0  0  0  0  0  0  0  0  0  0  0  0
   39.0999   19.9519   31.8058 H   0  0  0  0  0  0  0  0  0  0  0  0
   37.0336   20.2268   33.1312 H   0  0  0  0  0  0  0  0  0  0  0  0
   36.2779   22.3839   33.9874 H   0  0  0  0  0  0  0  0  0  0  0  0
  1  2  1  0
  2  3  2  0
  2  7  1  0
  4  3  1  0
  5  4  2  0
  6  5  1  0
  6  1  2  0
  7 15  1  0
  7  8  1  0
  8  9  2  0
 10 11  2  0
 10  9  1  0
 12 11  1  0
 13 12  2  0
 14 13  1  0
 14 15  2  0
 15 10  1  0
 16 21  1  0
 16  1  1  0
 17 16  2  0
 18 19  2  0
 18 17  1  0
 19 20  1  0
 20 21  2  0
  3 22  1  0
  5 23  1  0
  8 24  1  0
 11 25  1  0
 13 26  1  0
 17 27  1  0
 18 28  1  0
 19 29  1  0
 20 30  1  0
 21 31  1  0
M  ISO  8  22  14  23  14  24  14  25  14  26  14  27  14  28  14  29  14
M  ISO  2  30  14  31  14
M  END
>  <minimizedAffinity>  (1) 
-4.65274668

>  <minimizedRMSD>  (1) 
1.34983242

$$$$
