
     RDKit          3D

 26 29  0  0  0  0  0  0  0  0999 V2000
   37.6970   24.7300   33.6030 C   0  0  0  0  0  0  0  0  0  0  0  0
   37.8830   25.2390   34.8820 C   0  0  0  0  0  0  0  0  0  0  0  0
   37.6700   26.6070   35.1030 C   0  0  0  0  0  0  0  0  0  0  0  0
   37.2920   27.3920   34.0610 N   0  0  0  0  0  0  0  0  0  0  0  0
   37.1190   26.8770   32.8250 C   0  0  0  0  0  0  0  0  0  0  0  0
   37.3180   25.5840   32.6110 N   0  0  0  0  0  0  0  0  0  0  0  0
   38.2820   24.3990   35.9280 N   0  0  0  0  0  0  0  0  0  0  0  0
   37.5210   23.9680   36.9420 C   0  0  0  0  0  0  0  0  0  0  0  0
   38.2060   23.1630   37.7770 N   0  0  0  0  0  0  0  0  0  0  0  0
   39.4540   23.0780   37.2710 C   0  0  0  0  0  0  0  0  0  0  0  0
   40.5950   22.4130   37.6660 C   0  0  0  0  0  0  0  0  0  0  0  0
   41.7640   22.4730   36.9840 N   0  0  0  0  0  0  0  0  0  0  0  0
   41.7560   23.2370   35.8740 C   0  0  0  0  0  0  0  0  0  0  0  0
   40.6560   23.8770   35.4950 N   0  0  0  0  0  0  0  0  0  0  0  0
   39.4850   23.8490   36.1280 C   0  0  0  0  0  0  0  0  0  0  0  0
   37.8570   23.3210   33.2650 C   0  0  0  0  0  0  0  0  0  0  0  0
   37.1080   22.2280   33.4690 N   0  0  0  0  0  0  0  0  0  0  0  0
   37.6730   21.1730   32.9770 O   0  0  0  0  0  0  0  0  0  0  0  0
   38.8110   21.4880   32.4250 C   0  0  0  0  0  0  0  0  0  0  0  0
   38.9100   22.8120   32.6090 N   0  0  0  0  0  0  0  0  0  0  0  0
   37.8070   27.0383   36.1056 H   0  0  0  0  0  0  0  0  0  0  0  0
   36.8127   27.5308   31.9951 H   0  0  0  0  0  0  0  0  0  0  0  0
   36.4634   24.2388   37.0769 H   0  0  0  0  0  0  0  0  0  0  0  0
   40.5543   21.8032   38.5806 H   0  0  0  0  0  0  0  0  0  0  0  0
   42.6730   23.3318   35.2738 H   0  0  0  0  0  0  0  0  0  0  0  0
   39.5265   20.8201   31.9230 H   0  0  0  0  0  0  0  0  0  0  0  0
  1  2  1  0
  2  3  2  0
  2  7  1  0
  4  3  1  0
  5  4  2  0
  6  5  1  0
  6  1  2  0
  7 15  1  0
  7  8  1  0
  8  9  2  0
 10 11  2  0
 10  9  1  0
 12 11  1  0
 13 12  2  0
 14 13  1  0
 14 15  2  0
 15 10  1  0
 16 17  2  0
 16  1  1  0
 18 17  1  0
 19 20  2  0
 19 18  1  0
 20 16  1  0
  3 21  1  0
  5 22  1  0
  8 23  1  0
 11 24  1  0
 13 25  1  0
 19 26  1  0
M  ISO  6  21  14  22  14  23  14  24  14  25  14  26  14
M  END
>  <minimizedAffinity>  (1) 
-4.56956482

>  <minimizedRMSD>  (1) 
0.986496747

$$$$
