
     RDKit          3D

 22 24  0  0  0  0  0  0  0  0999 V2000
   38.2760   24.5130   35.9980 N   0  0  0  0  0  0  0  0  0  0  0  0
   37.5030   23.9630   36.9420 C   0  0  0  0  0  0  0  0  0  0  0  0
   38.1750   23.0770   37.6890 N   0  0  0  0  0  0  0  0  0  0  0  0
   39.4260   23.0570   37.2090 C   0  0  0  0  0  0  0  0  0  0  0  0
   40.5740   22.3730   37.5330 C   0  0  0  0  0  0  0  0  0  0  0  0
   41.7430   22.5220   36.8890 N   0  0  0  0  0  0  0  0  0  0  0  0
   41.7490   23.4100   35.8680 C   0  0  0  0  0  0  0  0  0  0  0  0
   40.6390   24.0740   35.5500 N   0  0  0  0  0  0  0  0  0  0  0  0
   39.4790   23.9570   36.1530 C   0  0  0  0  0  0  0  0  0  0  0  0
   37.6220   25.1090   33.7360 C   0  0  0  0  0  0  0  0  0  0  0  0
   37.8730   25.4700   35.0610 C   0  0  0  0  0  0  0  0  0  0  0  0
   37.7080   26.8010   35.4000 C   0  0  0  0  0  0  0  0  0  0  0  0
   37.3160   27.6900   34.4590 N   0  0  0  0  0  0  0  0  0  0  0  0
   37.0790   27.2990   33.1680 C   0  0  0  0  0  0  0  0  0  0  0  0
   37.2340   26.0240   32.8260 N   0  0  0  0  0  0  0  0  0  0  0  0
   37.8430   23.3800   33.3190 S   0  0  0  0  0  0  0  0  0  0  0  0
   36.4409   24.2095   37.0874 H   0  0  0  0  0  0  0  0  0  0  0  0
   40.5323   21.6608   38.3702 H   0  0  0  0  0  0  0  0  0  0  0  0
   42.6739   23.5841   35.2986 H   0  0  0  0  0  0  0  0  0  0  0  0
   37.8949   27.1352   36.4312 H   0  0  0  0  0  0  0  0  0  0  0  0
   36.7616   28.0374   32.4170 H   0  0  0  0  0  0  0  0  0  0  0  0
   37.9374   22.6414   34.4690 H   0  0  0  0  0  0  0  0  0  0  0  0
  1  9  1  0
  1  2  1  0
  2  3  2  0
  4  5  2  0
  4  3  1  0
  6  5  1  0
  7  6  2  0
  8  7  1  0
  8  9  2  0
  9  4  1  0
 10 11  2  0
 11 12  1  0
 11  1  1  0
 13 12  2  0
 14 13  1  0
 15 14  2  0
 15 10  1  0
 16 10  1  0
  2 17  1  0
  5 18  1  0
  7 19  1  0
 12 20  1  0
 14 21  1  0
 16 22  1  0
M  ISO  6  17  14  18  14  19  14  20  14  21  14  22  11
M  END
>  <minimizedAffinity>  (1) 
-4.25401306

>  <minimizedRMSD>  (1) 
0.805417895

$$$$
