
     RDKit          3D

 20 20  0  0  1  0  0  0  0  0999 V2000
   41.4570   22.4950   37.2670 C   0  0  2  0  0  0  0  0  0  0  0  0
   39.9790   22.6320   37.1460 C   0  0  0  0  0  0  0  0  0  0  0  0
   39.2490   23.2320   38.1980 C   0  0  0  0  0  0  0  0  0  0  0  0
   37.8550   23.3470   38.0160 C   0  0  0  0  0  0  0  0  0  0  0  0
   37.3010   22.8830   36.8640 N   0  0  0  0  0  0  0  0  0  0  0  0
   38.0350   22.3220   35.8960 C   0  0  0  0  0  0  0  0  0  0  0  0
   39.3720   22.1920   36.0290 N   0  0  0  0  0  0  0  0  0  0  0  0
   42.0240   23.3770   36.1720 C   0  0  0  0  0  0  0  0  0  0  0  0
   41.8470   21.0540   37.0840 C   0  0  0  0  0  0  0  0  0  0  0  0
   41.9570   20.4680   38.3380 O   0  0  0  0  0  0  0  0  0  0  0  0
   41.8397   22.7980   38.2528 H   0  0  0  0  0  0  0  0  0  0  0  0
   39.7435   23.5911   39.1126 H   0  0  0  0  0  0  0  0  0  0  0  0
   37.2259   23.8048   38.7936 H   0  0  0  0  0  0  0  0  0  0  0  0
   37.5427   21.9623   34.9804 H   0  0  0  0  0  0  0  0  0  0  0  0
   42.5662   24.2204   36.6244 H   0  0  0  0  0  0  0  0  0  0  0  0
   42.7141   22.7896   35.5485 H   0  0  0  0  0  0  0  0  0  0  0  0
   41.2031   23.7610   35.5485 H   0  0  0  0  0  0  0  0  0  0  0  0
   41.0773   20.5324   36.4962 H   0  0  0  0  0  0  0  0  0  0  0  0
   42.8060   20.9865   36.5494 H   0  0  0  0  0  0  0  0  0  0  0  0
   41.8276   21.1572   39.0368 H   0  0  0  0  0  0  0  0  0  0  0  0
  2  1  1  0
  2  3  2  0
  4  3  1  0
  5  4  2  0
  6  7  2  0
  6  5  1  0
  7  2  1  0
  8  1  1  0
  9  1  1  0
  9 10  1  0
  1 11  1  1
  3 12  1  0
  4 13  1  0
  6 14  1  0
  8 15  1  0
  8 16  1  0
  8 17  1  0
  9 18  1  0
  9 19  1  0
 10 20  1  0
M  ISO  8  11   8  12  14  13  14  14  14  15   8  16   8  17   8  18   8
M  ISO  2  19   8  20   3
M  END
>  <minimizedAffinity>  (1) 
-3.67767978

>  <minimizedRMSD>  (1) 
0.287115604

$$$$
