
     RDKit          3D

 40 44  0  0  0  0  0  0  0  0999 V2000
   39.7500   25.6790   32.5390 C   0  0  0  0  0  0  0  0  0  0  0  0
   39.9940   26.0360   33.9100 C   0  0  0  0  0  0  0  0  0  0  0  0
   40.9430   27.0340   34.1450 C   0  0  0  0  0  0  0  0  0  0  0  0
   41.5930   27.6180   33.0920 N   0  0  0  0  0  0  0  0  0  0  0  0
   41.3500   27.2530   31.8260 C   0  0  0  0  0  0  0  0  0  0  0  0
   40.4640   26.3230   31.6110 N   0  0  0  0  0  0  0  0  0  0  0  0
   38.8290   24.6770   32.1560 C   0  0  0  0  0  0  0  0  0  0  0  0
   39.2330   23.3600   32.1630 C   0  0  0  0  0  0  0  0  0  0  0  0
   38.3790   22.3080   31.8010 C   0  0  0  0  0  0  0  0  0  0  0  0
   37.0780   22.5880   31.4230 C   0  0  0  0  0  0  0  0  0  0  0  0
   36.6670   23.8910   31.4120 C   0  0  0  0  0  0  0  0  0  0  0  0
   35.3840   24.1780   31.0490 C   0  0  0  0  0  0  0  0  0  0  0  0
   34.8990   25.4480   31.0170 C   0  0  0  0  0  0  0  0  0  0  0  0
   35.7730   26.4810   31.3710 C   0  0  0  0  0  0  0  0  0  0  0  0
   37.0820   26.1900   31.7420 C   0  0  0  0  0  0  0  0  0  0  0  0
   37.5400   24.9040   31.7730 C   0  0  0  0  0  0  0  0  0  0  0  0
   37.8000   27.4440   31.8570 C   0  0  0  0  0  0  0  0  0  0  0  0
   36.9720   28.5640   31.8760 F   0  0  0  0  0  0  0  0  0  0  0  0
   39.1120   27.5560   31.6400 F   0  0  0  0  0  0  0  0  0  0  0  0
   38.1500   27.7500   33.1700 F   0  0  0  0  0  0  0  0  0  0  0  0
   39.3180   25.3920   34.9160 N   0  0  0  0  0  0  0  0  0  0  0  0
   38.0730   25.6540   35.3160 C   0  0  0  0  0  0  0  0  0  0  0  0
   37.6920   24.8400   36.3350 N   0  0  0  0  0  0  0  0  0  0  0  0
   38.7540   24.0320   36.5810 C   0  0  0  0  0  0  0  0  0  0  0  0
   38.9930   23.0220   37.4730 C   0  0  0  0  0  0  0  0  0  0  0  0
   40.1520   22.3410   37.5430 N   0  0  0  0  0  0  0  0  0  0  0  0
   41.1070   22.7200   36.6520 C   0  0  0  0  0  0  0  0  0  0  0  0
   40.8580   23.7050   35.7920 N   0  0  0  0  0  0  0  0  0  0  0  0
   39.7410   24.3950   35.6900 C   0  0  0  0  0  0  0  0  0  0  0  0
   41.1672   27.3497   35.1746 H   0  0  0  0  0  0  0  0  0  0  0  0
   41.8851   27.7266   30.9897 H   0  0  0  0  0  0  0  0  0  0  0  0
   40.2645   23.1245   32.4639 H   0  0  0  0  0  0  0  0  0  0  0  0
   38.7405   21.2692   31.8175 H   0  0  0  0  0  0  0  0  0  0  0  0
   36.3894   21.7791   31.1375 H   0  0  0  0  0  0  0  0  0  0  0  0
   34.7155   23.3498   30.7713 H   0  0  0  0  0  0  0  0  0  0  0  0
   33.8592   25.6550   30.7239 H   0  0  0  0  0  0  0  0  0  0  0  0
   35.4251   27.5244   31.3561 H   0  0  0  0  0  0  0  0  0  0  0  0
   37.4335   26.4330   34.8753 H   0  0  0  0  0  0  0  0  0  0  0  0
   38.1903   22.7506   38.1744 H   0  0  0  0  0  0  0  0  0  0  0  0
   42.0834   22.2135   36.6420 H   0  0  0  0  0  0  0  0  0  0  0  0
  1  2  1  0
  2  3  2  0
  2 21  1  0
  4  3  1  0
  5  4  2  0
  6  5  1  0
  6  1  2  0
  7  8  2  0
  7  1  1  0
  9  8  1  0
 10  9  2  0
 11 10  1  0
 11 16  2  0
 12 11  1  0
 13 12  2  0
 13 14  1  0
 14 15  2  0
 15 16  1  0
 15 17  1  0
 16  7  1  0
 17 18  1  0
 17 20  1  0
 19 17  1  0
 21 22  1  0
 21 29  1  0
 22 23  2  0
 23 24  1  0
 24 25  2  0
 25 26  1  0
 27 26  2  0
 28 27  1  0
 29 28  2  0
 29 24  1  0
  3 30  1  0
  5 31  1  0
  8 32  1  0
  9 33  1  0
 10 34  1  0
 12 35  1  0
 13 36  1  0
 14 37  1  0
 22 38  1  0
 25 39  1  0
 27 40  1  0
M  ISO  8  30  14  31  14  32  14  33  14  34  14  35  14  36  14  37  14
M  ISO  3  38  14  39  14  40  14
M  END
>  <minimizedAffinity>  (1) 
-6.31059551

>  <minimizedRMSD>  (1) 
0.215431288

$$$$
