
     RDKit          3D

 46 51  0  0  1  0  0  0  0  0999 V2000
   39.4500   25.5850   32.7950 C   0  0  0  0  0  0  0  0  0  0  0  0
   39.8310   25.9130   34.1360 C   0  0  0  0  0  0  0  0  0  0  0  0
   40.7710   26.9300   34.2830 C   0  0  0  0  0  0  0  0  0  0  0  0
   41.2880   27.5620   33.1970 N   0  0  0  0  0  0  0  0  0  0  0  0
   40.9090   27.2190   31.9470 C   0  0  0  0  0  0  0  0  0  0  0  0
   40.0300   26.2700   31.7800 N   0  0  0  0  0  0  0  0  0  0  0  0
   38.5030   24.5620   32.5120 C   0  0  0  0  0  0  0  0  0  0  0  0
   38.8590   23.2340   32.7130 C   0  0  0  0  0  0  0  0  0  0  0  0
   37.9880   22.1790   32.4290 C   0  0  0  0  0  0  0  0  0  0  0  0
   36.7180   22.4490   31.9270 C   0  0  0  0  0  0  0  0  0  0  0  0
   36.3530   23.7490   31.7230 C   0  0  0  0  0  0  0  0  0  0  0  0
   35.1420   24.0460   31.1970 C   0  0  0  0  0  0  0  0  0  0  0  0
   34.7220   25.3100   30.9200 C   0  0  0  0  0  0  0  0  0  0  0  0
   35.6140   26.3580   31.2140 C   0  0  0  0  0  0  0  0  0  0  0  0
   36.8680   26.0440   31.7690 C   0  0  0  0  0  0  0  0  0  0  0  0
   37.2410   24.7590   32.0170 C   0  0  0  0  0  0  0  0  0  0  0  0
   37.5620   27.2850   31.9720 C   0  0  1  0  0  0  0  0  0  0  0  0
   37.5980   27.4050   33.5230 C   0  0  0  0  0  0  0  0  0  0  0  0
   39.0640   27.0470   31.6170 C   0  0  0  0  0  0  0  0  0  0  0  0
   39.2680   25.2420   35.1920 N   0  0  0  0  0  0  0  0  0  0  0  0
   38.0560   25.4650   35.7130 C   0  0  0  0  0  0  0  0  0  0  0  0
   37.7970   24.6330   36.7510 N   0  0  0  0  0  0  0  0  0  0  0  0
   38.8980   23.8540   36.8860 C   0  0  0  0  0  0  0  0  0  0  0  0
   39.2510   22.8460   37.7370 C   0  0  0  0  0  0  0  0  0  0  0  0
   40.4310   22.2000   37.6920 N   0  0  0  0  0  0  0  0  0  0  0  0
   41.2890   22.6160   36.7190 C   0  0  0  0  0  0  0  0  0  0  0  0
   40.9330   23.5990   35.8980 N   0  0  0  0  0  0  0  0  0  0  0  0
   39.7880   24.2560   35.9100 C   0  0  0  0  0  0  0  0  0  0  0  0
   38.6367   26.3239   32.8453 H   0  0  0  0  0  0  0  0  0  0  0  0
   41.0989   27.2252   35.2906 H   0  0  0  0  0  0  0  0  0  0  0  0
   41.3384   27.7361   31.0762 H   0  0  0  0  0  0  0  0  0  0  0  0
   39.8596   23.0057   33.1088 H   0  0  0  0  0  0  0  0  0  0  0  0
   38.3045   21.1397   32.6013 H   0  0  0  0  0  0  0  0  0  0  0  0
   36.0206   21.6295   31.6986 H   0  0  0  0  0  0  0  0  0  0  0  0
   34.4552   23.2145   30.9802 H   0  0  0  0  0  0  0  0  0  0  0  0
   33.7301   25.5041   30.4859 H   0  0  0  0  0  0  0  0  0  0  0  0
   35.3359   27.4032   31.0136 H   0  0  0  0  0  0  0  0  0  0  0  0
   37.1156   28.1207   31.4132 H   0  0  0  0  0  0  0  0  0  0  0  0
   37.3094   26.4431   33.9720 H   0  0  0  0  0  0  0  0  0  0  0  0
   38.6153   27.6703   33.8467 H   0  0  0  0  0  0  0  0  0  0  0  0
   36.8947   28.1864   33.8467 H   0  0  0  0  0  0  0  0  0  0  0  0
   39.5037   27.9868   31.9821 H   0  0  0  0  0  0  0  0  0  0  0  0
   38.7808   26.5285   30.6891 H   0  0  0  0  0  0  0  0  0  0  0  0
   37.3561   26.2293   35.3443 H   0  0  0  0  0  0  0  0  0  0  0  0
   38.5261   22.5432   38.5070 H   0  0  0  0  0  0  0  0  0  0  0  0
   42.2746   22.1393   36.6129 H   0  0  0  0  0  0  0  0  0  0  0  0
  1  7  1  0
  1  2  1  0
  2  3  2  0
  2 20  1  0
  4  3  1  0
  5  4  2  0
  6  5  1  0
  6  1  1  0
  7  8  2  0
  9  8  1  0
 10  9  2  0
 11 10  1  0
 11 16  2  0
 12 11  1  0
 13 12  2  0
 13 14  1  0
 14 15  2  0
 15 17  1  0
 15 16  1  0
 16  7  1  0
 17 18  1  0
 19  6  1  0
 19 17  1  0
 20 21  1  0
 20 28  1  0
 21 22  2  0
 22 23  1  0
 23 24  2  0
 25 24  1  0
 26 25  2  0
 27 28  2  0
 27 26  1  0
 28 23  1  0
  1 29  1  0
  3 30  1  0
  5 31  1  0
  8 32  1  0
  9 33  1  0
 10 34  1  0
 12 35  1  0
 13 36  1  0
 14 37  1  0
 17 38  1  6
 18 39  1  0
 18 40  1  0
 18 41  1  0
 19 42  1  0
 19 43  1  0
 21 44  1  0
 24 45  1  0
 26 46  1  0
M  ISO  8  29  13  30  13  31  13  32  14  33  14  34  14  35  14  36  14
M  ISO  8  37  14  38  13  39   8  40   8  41   8  42  13  43  13  44  14
M  ISO  2  45  14  46  14
M  END
>  <minimizedAffinity>  (1) 
-6.34048939

>  <minimizedRMSD>  (1) 
0.284033567

$$$$
