
     RDKit          3D

 44 49  0  0  0  0  0  0  0  0999 V2000
   39.1730   23.5810   32.4160 C   0  0  0  0  0  0  0  0  0  0  0  0
   39.9130   22.4410   32.7010 C   0  0  0  0  0  0  0  0  0  0  0  0
   39.3770   21.1580   32.5940 C   0  0  0  0  0  0  0  0  0  0  0  0
   38.0580   20.9960   32.1890 C   0  0  0  0  0  0  0  0  0  0  0  0
   37.2990   22.1140   31.9000 C   0  0  0  0  0  0  0  0  0  0  0  0
   36.0010   21.9600   31.5050 C   0  0  0  0  0  0  0  0  0  0  0  0
   35.1950   23.0310   31.2030 C   0  0  0  0  0  0  0  0  0  0  0  0
   35.7620   24.2980   31.3150 C   0  0  0  0  0  0  0  0  0  0  0  0
   37.0820   24.4160   31.7180 C   0  0  0  0  0  0  0  0  0  0  0  0
   37.8840   23.3600   32.0220 C   0  0  0  0  0  0  0  0  0  0  0  0
   39.7580   24.8860   32.5530 C   0  0  0  0  0  0  0  0  0  0  0  0
   39.7600   25.6020   33.7670 C   0  0  0  0  0  0  0  0  0  0  0  0
   40.3630   26.8660   33.7870 C   0  0  0  0  0  0  0  0  0  0  0  0
   40.9250   27.3510   32.6370 N   0  0  0  0  0  0  0  0  0  0  0  0
   40.9080   26.6330   31.4880 C   0  0  0  0  0  0  0  0  0  0  0  0
   40.3420   25.4490   31.4700 N   0  0  0  0  0  0  0  0  0  0  0  0
   39.1980   25.0460   34.9020 N   0  0  0  0  0  0  0  0  0  0  0  0
   37.9600   25.2550   35.3660 C   0  0  0  0  0  0  0  0  0  0  0  0
   37.7150   24.5620   36.4980 N   0  0  0  0  0  0  0  0  0  0  0  0
   38.8590   23.8750   36.7640 C   0  0  0  0  0  0  0  0  0  0  0  0
   39.2280   23.0050   37.7620 C   0  0  0  0  0  0  0  0  0  0  0  0
   40.4440   22.4250   37.8300 N   0  0  0  0  0  0  0  0  0  0  0  0
   41.3060   22.7520   36.8370 C   0  0  0  0  0  0  0  0  0  0  0  0
   40.9290   23.5960   35.8800 N   0  0  0  0  0  0  0  0  0  0  0  0
   39.7510   24.1900   35.7700 C   0  0  0  0  0  0  0  0  0  0  0  0
   37.3270   25.8100   31.6520 N   0  0  0  0  0  0  0  0  0  0  0  0
   37.9190   26.7940   30.9660 C   0  0  0  0  0  0  0  0  0  0  0  0
   37.8140   28.0440   31.5180 C   0  0  0  0  0  0  0  0  0  0  0  0
   37.0950   27.9160   32.6750 N   0  0  0  0  0  0  0  0  0  0  0  0
   36.8230   26.5680   32.7220 C   0  0  0  0  0  0  0  0  0  0  0  0
   40.9589   22.5540   33.0225 H   0  0  0  0  0  0  0  0  0  0  0  0
   39.9952   20.2790   32.8290 H   0  0  0  0  0  0  0  0  0  0  0  0
   37.6230   19.9897   32.0994 H   0  0  0  0  0  0  0  0  0  0  0  0
   35.5866   20.9441   31.4259 H   0  0  0  0  0  0  0  0  0  0  0  0
   34.1502   22.8940   30.8874 H   0  0  0  0  0  0  0  0  0  0  0  0
   35.1682   25.1952   31.0860 H   0  0  0  0  0  0  0  0  0  0  0  0
   40.3846   27.4598   34.7127 H   0  0  0  0  0  0  0  0  0  0  0  0
   41.3663   27.0405   30.5748 H   0  0  0  0  0  0  0  0  0  0  0  0
   37.2266   25.9156   34.8805 H   0  0  0  0  0  0  0  0  0  0  0  0
   38.4934   22.7694   38.5462 H   0  0  0  0  0  0  0  0  0  0  0  0
   42.3174   22.3197   36.8221 H   0  0  0  0  0  0  0  0  0  0  0  0
   38.4541   26.6121   30.0223 H   0  0  0  0  0  0  0  0  0  0  0  0
   38.2300   28.9759   31.1076 H   0  0  0  0  0  0  0  0  0  0  0  0
   36.2489   26.1139   33.5431 H   0  0  0  0  0  0  0  0  0  0  0  0
  1 11  1  0
  1  2  2  0
  3  2  1  0
  4  3  2  0
  5 10  2  0
  5  4  1  0
  6  5  1  0
  7  8  1  0
  7  6  2  0
  8  9  2  0
  9 10  1  0
 10  1  1  0
 11 12  1  0
 12 13  2  0
 12 17  1  0
 14 13  1  0
 15 14  2  0
 16 15  1  0
 16 11  2  0
 17 18  1  0
 17 25  1  0
 18 19  2  0
 19 20  1  0
 20 21  2  0
 21 22  1  0
 23 22  2  0
 24 23  1  0
 25 24  2  0
 25 20  1  0
 26  9  1  0
 26 30  1  0
 27 28  2  0
 27 26  1  0
 28 29  1  0
 29 30  2  0
  2 31  1  0
  3 32  1  0
  4 33  1  0
  6 34  1  0
  7 35  1  0
  8 36  1  0
 13 37  1  0
 15 38  1  0
 18 39  1  0
 21 40  1  0
 23 41  1  0
 27 42  1  0
 28 43  1  0
 30 44  1  0
M  ISO  8  31  14  32  14  33  14  34  14  35  14  36  14  37  14  38  14
M  ISO  6  39  14  40  14  41  14  42  14  43  14  44  14
M  END
>  <minimizedAffinity>  (1) 
-5.97280979

>  <minimizedRMSD>  (1) 
1.25612235

$$$$
