
     RDKit          3D

 44 49  0  0  0  0  0  0  0  0999 V2000
   38.9850   23.6980   32.4150 C   0  0  0  0  0  0  0  0  0  0  0  0
   39.6840   22.5200   32.6530 C   0  0  0  0  0  0  0  0  0  0  0  0
   39.0870   21.2630   32.5410 C   0  0  0  0  0  0  0  0  0  0  0  0
   37.7480   21.1670   32.1810 C   0  0  0  0  0  0  0  0  0  0  0  0
   37.0330   22.3160   31.9390 C   0  0  0  0  0  0  0  0  0  0  0  0
   35.7230   22.2380   31.5640 C   0  0  0  0  0  0  0  0  0  0  0  0
   34.9630   23.3430   31.2880 C   0  0  0  0  0  0  0  0  0  0  0  0
   35.5890   24.5800   31.4040 C   0  0  0  0  0  0  0  0  0  0  0  0
   36.9210   24.6420   31.7870 C   0  0  0  0  0  0  0  0  0  0  0  0
   37.6700   23.5440   32.0620 C   0  0  0  0  0  0  0  0  0  0  0  0
   39.6390   24.9690   32.5460 C   0  0  0  0  0  0  0  0  0  0  0  0
   39.7060   25.6620   33.7690 C   0  0  0  0  0  0  0  0  0  0  0  0
   40.3710   26.8940   33.7840 C   0  0  0  0  0  0  0  0  0  0  0  0
   40.9250   27.3720   32.6280 N   0  0  0  0  0  0  0  0  0  0  0  0
   40.8450   26.6790   31.4730 C   0  0  0  0  0  0  0  0  0  0  0  0
   40.2210   25.5200   31.4540 N   0  0  0  0  0  0  0  0  0  0  0  0
   39.1400   25.1240   34.9090 N   0  0  0  0  0  0  0  0  0  0  0  0
   37.9120   25.3720   35.3890 C   0  0  0  0  0  0  0  0  0  0  0  0
   37.6600   24.6850   36.5190 N   0  0  0  0  0  0  0  0  0  0  0  0
   38.7830   23.9620   36.7770 C   0  0  0  0  0  0  0  0  0  0  0  0
   39.1410   23.0850   37.7640 C   0  0  0  0  0  0  0  0  0  0  0  0
   40.3400   22.4670   37.8230 N   0  0  0  0  0  0  0  0  0  0  0  0
   41.2080   22.7700   36.8130 C   0  0  0  0  0  0  0  0  0  0  0  0
   40.8480   23.6230   35.8610 N   0  0  0  0  0  0  0  0  0  0  0  0
   39.6880   24.2490   35.7660 C   0  0  0  0  0  0  0  0  0  0  0  0
   37.2430   26.0540   31.7190 C   0  0  0  0  0  0  0  0  0  0  0  0
   37.2650   27.2280   32.4260 C   0  0  0  0  0  0  0  0  0  0  0  0
   37.5880   28.3010   31.7050 N   0  0  0  0  0  0  0  0  0  0  0  0
   37.8120   27.9310   30.4360 C   0  0  0  0  0  0  0  0  0  0  0  0
   37.5970   26.5920   30.4820 N   0  0  0  0  0  0  0  0  0  0  0  0
   40.7443   22.5805   32.9395 H   0  0  0  0  0  0  0  0  0  0  0  0
   39.6734   20.3531   32.7367 H   0  0  0  0  0  0  0  0  0  0  0  0
   37.2657   20.1825   32.0907 H   0  0  0  0  0  0  0  0  0  0  0  0
   35.2578   21.2448   31.4799 H   0  0  0  0  0  0  0  0  0  0  0  0
   33.9080   23.2568   30.9889 H   0  0  0  0  0  0  0  0  0  0  0  0
   35.0308   25.5041   31.1931 H   0  0  0  0  0  0  0  0  0  0  0  0
   40.4473   27.4723   34.7166 H   0  0  0  0  0  0  0  0  0  0  0  0
   41.2979   27.0796   30.5540 H   0  0  0  0  0  0  0  0  0  0  0  0
   37.1943   26.0572   34.9143 H   0  0  0  0  0  0  0  0  0  0  0  0
   38.4088   22.8706   38.5564 H   0  0  0  0  0  0  0  0  0  0  0  0
   42.2056   22.3073   36.7881 H   0  0  0  0  0  0  0  0  0  0  0  0
   37.0349   27.2801   33.5004 H   0  0  0  0  0  0  0  0  0  0  0  0
   38.0976   28.5545   29.5760 H   0  0  0  0  0  0  0  0  0  0  0  0
   37.6908   26.0012   29.6435 H   0  0  0  0  0  0  0  0  0  0  0  0
  1 11  1  0
  1  2  2  0
  3  2  1  0
  4  3  2  0
  5 10  2  0
  5  4  1  0
  6  5  1  0
  7  8  1  0
  7  6  2  0
  8  9  2  0
  9 10  1  0
 10  1  1  0
 11 12  1  0
 12 13  2  0
 12 17  1  0
 14 13  1  0
 15 14  2  0
 16 15  1  0
 16 11  2  0
 17 18  1  0
 17 25  1  0
 18 19  2  0
 19 20  1  0
 20 21  2  0
 21 22  1  0
 23 22  2  0
 24 23  1  0
 25 24  2  0
 25 20  1  0
 26  9  1  0
 26 27  2  0
 28 27  1  0
 29 30  1  0
 29 28  2  0
 30 26  1  0
  2 31  1  0
  3 32  1  0
  4 33  1  0
  6 34  1  0
  7 35  1  0
  8 36  1  0
 13 37  1  0
 15 38  1  0
 18 39  1  0
 21 40  1  0
 23 41  1  0
 27 42  1  0
 29 43  1  0
 30 44  1  0
M  ISO  8  31  14  32  14  33  14  34  14  35  14  36  14  37  14  38  14
M  ISO  6  39  14  40  14  41  14  42  14  43  14  44   9
M  END
>  <minimizedAffinity>  (1) 
-6.06533051

>  <minimizedRMSD>  (1) 
1.05822968

$$$$
