
     RDKit          3D

 38 42  0  0  0  0  0  0  0  0999 V2000
   39.6600   25.5840   32.5740 C   0  0  0  0  0  0  0  0  0  0  0  0
   39.9100   25.9800   33.8950 C   0  0  0  0  0  0  0  0  0  0  0  0
   40.8290   27.0060   34.1110 C   0  0  0  0  0  0  0  0  0  0  0  0
   41.4510   27.5830   33.0480 N   0  0  0  0  0  0  0  0  0  0  0  0
   41.1990   27.1880   31.7820 C   0  0  0  0  0  0  0  0  0  0  0  0
   40.3240   26.2110   31.5480 N   0  0  0  0  0  0  0  0  0  0  0  0
   38.7410   24.5240   32.2370 C   0  0  0  0  0  0  0  0  0  0  0  0
   39.1280   23.1920   32.3130 C   0  0  0  0  0  0  0  0  0  0  0  0
   38.2790   22.1400   31.9880 C   0  0  0  0  0  0  0  0  0  0  0  0
   36.9850   22.4110   31.5680 C   0  0  0  0  0  0  0  0  0  0  0  0
   36.5700   23.7230   31.4820 C   0  0  0  0  0  0  0  0  0  0  0  0
   35.2890   24.0090   31.0660 C   0  0  0  0  0  0  0  0  0  0  0  0
   34.8200   25.3110   30.9630 C   0  0  0  0  0  0  0  0  0  0  0  0
   35.7060   26.3460   31.3030 C   0  0  0  0  0  0  0  0  0  0  0  0
   36.9750   26.0020   31.7130 C   0  0  0  0  0  0  0  0  0  0  0  0
   37.4490   24.7260   31.8160 C   0  0  0  0  0  0  0  0  0  0  0  0
   37.8790   27.4620   32.1460 S   0  0  0  0  0  0  0  0  0  0  0  0
   39.2620   25.3420   34.9440 N   0  0  0  0  0  0  0  0  0  0  0  0
   38.0200   25.5930   35.3870 C   0  0  0  0  0  0  0  0  0  0  0  0
   37.6860   24.7940   36.4230 N   0  0  0  0  0  0  0  0  0  0  0  0
   38.7590   24.0000   36.6530 C   0  0  0  0  0  0  0  0  0  0  0  0
   39.0210   23.0100   37.5520 C   0  0  0  0  0  0  0  0  0  0  0  0
   40.1930   22.3310   37.6030 N   0  0  0  0  0  0  0  0  0  0  0  0
   41.1160   22.7030   36.6830 C   0  0  0  0  0  0  0  0  0  0  0  0
   40.8480   23.6710   35.8120 N   0  0  0  0  0  0  0  0  0  0  0  0
   39.7240   24.3550   35.7280 C   0  0  0  0  0  0  0  0  0  0  0  0
   41.0494   27.3463   35.1336 H   0  0  0  0  0  0  0  0  0  0  0  0
   41.7171   27.6737   30.9420 H   0  0  0  0  0  0  0  0  0  0  0  0
   40.1507   22.9594   32.6448 H   0  0  0  0  0  0  0  0  0  0  0  0
   38.6308   21.1005   32.0634 H   0  0  0  0  0  0  0  0  0  0  0  0
   36.2998   21.5909   31.3073 H   0  0  0  0  0  0  0  0  0  0  0  0
   34.6156   23.1787   30.8069 H   0  0  0  0  0  0  0  0  0  0  0  0
   33.7941   25.5240   30.6281 H   0  0  0  0  0  0  0  0  0  0  0  0
   35.3959   27.3997   31.2437 H   0  0  0  0  0  0  0  0  0  0  0  0
   37.9459   27.5700   33.5101 H   0  0  0  0  0  0  0  0  0  0  0  0
   37.3549   26.3570   34.9581 H   0  0  0  0  0  0  0  0  0  0  0  0
   38.2370   22.7470   38.2774 H   0  0  0  0  0  0  0  0  0  0  0  0
   42.0941   22.2003   36.6567 H   0  0  0  0  0  0  0  0  0  0  0  0
  1  2  1  0
  2  3  2  0
  2 18  1  0
  4  3  1  0
  5  4  2  0
  6  5  1  0
  6  1  2  0
  7  8  2  0
  7  1  1  0
  9  8  1  0
 10  9  2  0
 11 10  1  0
 11 16  2  0
 12 11  1  0
 13 12  2  0
 13 14  1  0
 14 15  2  0
 15 16  1  0
 15 17  1  0
 16  7  1  0
 18 19  1  0
 18 26  1  0
 19 20  2  0
 20 21  1  0
 21 22  2  0
 22 23  1  0
 24 23  2  0
 25 24  1  0
 26 25  2  0
 26 21  1  0
  3 27  1  0
  5 28  1  0
  8 29  1  0
  9 30  1  0
 10 31  1  0
 12 32  1  0
 13 33  1  0
 14 34  1  0
 17 35  1  0
 19 36  1  0
 22 37  1  0
 24 38  1  0
M  ISO  8  27  14  28  14  29  14  30  14  31  14  32  14  33  14  34  14
M  ISO  4  35  11  36  14  37  14  38  14
M  END
>  <minimizedAffinity>  (1) 
-5.96427488

>  <minimizedRMSD>  (1) 
0.0469456539

$$$$
