
     RDKit          3D

 43 48  0  0  0  0  0  0  0  0999 V2000
   39.2870   23.4640   32.3930 C   0  0  0  0  0  0  0  0  0  0  0  0
   40.0860   22.3720   32.7280 C   0  0  0  0  0  0  0  0  0  0  0  0
   39.6270   21.0610   32.6550 C   0  0  0  0  0  0  0  0  0  0  0  0
   38.3280   20.8110   32.2340 C   0  0  0  0  0  0  0  0  0  0  0  0
   37.5140   21.8710   31.8940 C   0  0  0  0  0  0  0  0  0  0  0  0
   36.2380   21.6280   31.4650 C   0  0  0  0  0  0  0  0  0  0  0  0
   35.3840   22.6380   31.0970 C   0  0  0  0  0  0  0  0  0  0  0  0
   35.8730   23.9400   31.1790 C   0  0  0  0  0  0  0  0  0  0  0  0
   37.1740   24.1570   31.6210 C   0  0  0  0  0  0  0  0  0  0  0  0
   38.0190   23.1580   31.9840 C   0  0  0  0  0  0  0  0  0  0  0  0
   39.8020   24.8050   32.4820 C   0  0  0  0  0  0  0  0  0  0  0  0
   39.7540   25.5500   33.6720 C   0  0  0  0  0  0  0  0  0  0  0  0
   40.2900   26.8410   33.6480 C   0  0  0  0  0  0  0  0  0  0  0  0
   40.8340   27.3260   32.4940 N   0  0  0  0  0  0  0  0  0  0  0  0
   40.8640   26.5780   31.3690 C   0  0  0  0  0  0  0  0  0  0  0  0
   40.3620   25.3610   31.3760 N   0  0  0  0  0  0  0  0  0  0  0  0
   39.1940   25.0090   34.8170 N   0  0  0  0  0  0  0  0  0  0  0  0
   37.9410   25.2180   35.2670 C   0  0  0  0  0  0  0  0  0  0  0  0
   37.7100   24.5400   36.4160 N   0  0  0  0  0  0  0  0  0  0  0  0
   38.8550   23.8780   36.7050 C   0  0  0  0  0  0  0  0  0  0  0  0
   39.2360   23.0390   37.7180 C   0  0  0  0  0  0  0  0  0  0  0  0
   40.4650   22.4770   37.8040 N   0  0  0  0  0  0  0  0  0  0  0  0
   41.3380   22.7970   36.7980 C   0  0  0  0  0  0  0  0  0  0  0  0
   40.9560   23.6120   35.8210 N   0  0  0  0  0  0  0  0  0  0  0  0
   39.7650   24.1800   35.7020 C   0  0  0  0  0  0  0  0  0  0  0  0
   37.3380   25.5990   31.5440 C   0  0  0  0  0  0  0  0  0  0  0  0
   36.6380   26.3370   32.8010 C   0  0  0  0  0  0  0  0  0  0  0  0
   36.9170   28.0880   32.5120 S   0  0  0  0  0  0  0  0  0  0  0  0
   37.8500   27.7170   30.9020 C   0  0  0  0  0  0  0  0  0  0  0  0
   37.8380   26.5500   30.8000 N   0  0  0  0  0  0  0  0  0  0  0  0
   41.1180   22.5538   33.0626 H   0  0  0  0  0  0  0  0  0  0  0  0
   40.2896   20.2269   32.9293 H   0  0  0  0  0  0  0  0  0  0  0  0
   37.9522   19.7790   32.1723 H   0  0  0  0  0  0  0  0  0  0  0  0
   35.8841   20.5878   31.4131 H   0  0  0  0  0  0  0  0  0  0  0  0
   34.3603   22.4288   30.7531 H   0  0  0  0  0  0  0  0  0  0  0  0
   35.2349   24.7902   30.8963 H   0  0  0  0  0  0  0  0  0  0  0  0
   40.2734   27.4631   34.5551 H   0  0  0  0  0  0  0  0  0  0  0  0
   41.3073   26.9855   30.4485 H   0  0  0  0  0  0  0  0  0  0  0  0
   37.2004   25.8578   34.7649 H   0  0  0  0  0  0  0  0  0  0  0  0
   38.5032   22.8089   38.5054 H   0  0  0  0  0  0  0  0  0  0  0  0
   42.3555   22.3790   36.7992 H   0  0  0  0  0  0  0  0  0  0  0  0
   36.1088   25.8707   33.6451 H   0  0  0  0  0  0  0  0  0  0  0  0
   38.3050   28.4427   30.2118 H   0  0  0  0  0  0  0  0  0  0  0  0
  1 11  1  0
  1  2  2  0
  3  2  1  0
  4  3  2  0
  5 10  2  0
  5  4  1  0
  6  5  1  0
  7  8  1  0
  7  6  2  0
  8  9  2  0
  9 10  1  0
 10  1  1  0
 11 12  1  0
 12 17  1  0
 13 12  2  0
 14 13  1  0
 15 16  1  0
 15 14  2  0
 16 11  2  0
 17 18  1  0
 17 25  1  0
 18 19  2  0
 19 20  1  0
 20 21  2  0
 21 22  1  0
 23 22  2  0
 24 23  1  0
 25 24  2  0
 25 20  1  0
 26  9  1  0
 26 27  2  0
 28 27  1  0
 29 28  1  0
 30 29  2  0
 30 26  1  0
  2 31  1  0
  3 32  1  0
  4 33  1  0
  6 34  1  0
  7 35  1  0
  8 36  1  0
 13 37  1  0
 15 38  1  0
 18 39  1  0
 21 40  1  0
 23 41  1  0
 27 42  1  0
 29 43  1  0
M  ISO  8  31  14  32  14  33  14  34  14  35  14  36  14  37  14  38  14
M  ISO  5  39  14  40  14  41  14  42  14  43  14
M  END
>  <minimizedAffinity>  (1) 
-5.89587164

>  <minimizedRMSD>  (1) 
1.43402839

$$$$
