
     RDKit          3D

 26 27  0  0  1  0  0  0  0  0999 V2000
   38.3150   23.4330   35.7960 C   0  0  2  0  0  0  0  0  0  0  0  0
   39.7440   23.1280   36.1130 C   0  0  0  0  0  0  0  0  0  0  0  0
   40.7610   23.9170   35.5200 C   0  0  0  0  0  0  0  0  0  0  0  0
   42.0900   23.5970   35.8640 C   0  0  0  0  0  0  0  0  0  0  0  0
   42.3080   22.5710   36.7240 N   0  0  0  0  0  0  0  0  0  0  0  0
   41.3130   21.8500   37.2610 C   0  0  0  0  0  0  0  0  0  0  0  0
   40.0310   22.1230   36.9600 N   0  0  0  0  0  0  0  0  0  0  0  0
   37.9900   24.6460   36.6340 C   0  0  0  0  0  0  0  0  0  0  0  0
   37.4490   22.2640   36.1880 C   0  0  0  0  0  0  0  0  0  0  0  0
   36.9200   21.6640   34.9730 N   0  0  0  0  0  0  0  0  0  0  0  0
   37.2930   21.7630   33.6950 N   0  0  0  0  0  0  0  0  0  0  0  0
   36.4840   21.0120   32.9380 C   0  0  0  0  0  0  0  0  0  0  0  0
   35.5350   20.3830   33.7130 C   0  0  0  0  0  0  0  0  0  0  0  0
   35.8460   20.8220   34.9840 C   0  0  0  0  0  0  0  0  0  0  0  0
   38.1423   23.6168   34.7253 H   0  0  0  0  0  0  0  0  0  0  0  0
   40.5252   24.7376   34.8264 H   0  0  0  0  0  0  0  0  0  0  0  0
   42.9320   24.1669   35.4442 H   0  0  0  0  0  0  0  0  0  0  0  0
   41.5474   21.0282   37.9536 H   0  0  0  0  0  0  0  0  0  0  0  0
   38.0600   24.3846   37.7002 H   0  0  0  0  0  0  0  0  0  0  0  0
   38.7041   25.4511   36.4062 H   0  0  0  0  0  0  0  0  0  0  0  0
   36.9690   24.9862   36.4062 H   0  0  0  0  0  0  0  0  0  0  0  0
   38.0487   21.5241   36.7383 H   0  0  0  0  0  0  0  0  0  0  0  0
   36.6260   22.6005   36.8356 H   0  0  0  0  0  0  0  0  0  0  0  0
   36.5659   20.9109   31.8457 H   0  0  0  0  0  0  0  0  0  0  0  0
   34.7309   19.7017   33.3980 H   0  0  0  0  0  0  0  0  0  0  0  0
   35.2973   20.5300   35.8916 H   0  0  0  0  0  0  0  0  0  0  0  0
  1  2  1  0
  1  9  1  0
  1  8  1  0
  2  7  2  0
  3  4  2  0
  3  2  1  0
  4  5  1  0
  5  6  2  0
  7  6  1  0
 10 14  1  0
 10  9  1  0
 11 10  1  0
 12 11  2  0
 12 13  1  0
 13 14  2  0
  1 15  1  6
  3 16  1  0
  4 17  1  0
  6 18  1  0
  8 19  1  0
  8 20  1  0
  8 21  1  0
  9 22  1  0
  9 23  1  0
 12 24  1  0
 13 25  1  0
 14 26  1  0
M  ISO  8  15   8  16  14  17  14  18  14  19   8  20   8  21   8  22   8
M  ISO  4  23   8  24  14  25  14  26  14
M  END
>  <minimizedAffinity>  (1) 
-3.60834312

>  <minimizedRMSD>  (1) 
6.06043911

$$$$
