
     RDKit          3D

 38 41  0  0  0  0  0  0  0  0999 V2000
   39.6640   22.9470   37.3530 C   0  0  0  0  0  0  0  0  0  0  0  0
   39.0920   23.2180   38.6080 C   0  0  0  0  0  0  0  0  0  0  0  0
   38.1090   24.2130   38.6640 C   0  0  0  0  0  0  0  0  0  0  0  0
   37.7660   24.8550   37.5140 N   0  0  0  0  0  0  0  0  0  0  0  0
   38.3520   24.5500   36.3300 C   0  0  0  0  0  0  0  0  0  0  0  0
   39.2910   23.6130   36.2290 N   0  0  0  0  0  0  0  0  0  0  0  0
   36.9680   26.9070   33.0330 C   0  0  0  0  0  0  0  0  0  0  0  0
   37.3940   25.6130   32.8290 C   0  0  0  0  0  0  0  0  0  0  0  0
   37.8440   24.8440   33.8920 C   0  0  0  0  0  0  0  0  0  0  0  0
   37.8890   25.3150   35.1780 C   0  0  0  0  0  0  0  0  0  0  0  0
   37.4570   26.6130   35.3520 C   0  0  0  0  0  0  0  0  0  0  0  0
   36.9950   27.4260   34.3180 C   0  0  0  0  0  0  0  0  0  0  0  0
   36.3940   27.9070   31.7210 S   0  0  0  0  0  0  0  0  0  0  0  0
   36.0040   27.0750   30.5320 O   0  0  0  0  0  0  0  0  0  0  0  0
   37.4610   28.8850   31.3150 O   0  0  0  0  0  0  0  0  0  0  0  0
   40.6160   21.9750   37.3300 O   0  0  0  0  0  0  0  0  0  0  0  0
   41.8880   22.0890   36.8190 C   0  0  0  0  0  0  0  0  0  0  0  0
   42.4440   23.2180   36.2610 C   0  0  0  0  0  0  0  0  0  0  0  0
   43.6980   22.9820   35.8640 N   0  0  0  0  0  0  0  0  0  0  0  0
   44.0340   21.6940   36.1380 C   0  0  0  0  0  0  0  0  0  0  0  0
   45.1780   20.9500   35.9410 C   0  0  0  0  0  0  0  0  0  0  0  0
   45.2030   19.6210   36.3430 C   0  0  0  0  0  0  0  0  0  0  0  0
   44.0840   19.0540   36.9380 C   0  0  0  0  0  0  0  0  0  0  0  0
   42.9400   19.8140   37.1290 C   0  0  0  0  0  0  0  0  0  0  0  0
   42.9120   21.1410   36.7280 C   0  0  0  0  0  0  0  0  0  0  0  0
   39.4041   22.6704   39.5095 H   0  0  0  0  0  0  0  0  0  0  0  0
   37.6241   24.4705   39.6172 H   0  0  0  0  0  0  0  0  0  0  0  0
   37.3772   25.1863   31.8153 H   0  0  0  0  0  0  0  0  0  0  0  0
   38.1782   23.8147   33.6948 H   0  0  0  0  0  0  0  0  0  0  0  0
   37.4782   27.0325   36.3687 H   0  0  0  0  0  0  0  0  0  0  0  0
   36.6599   28.4546   34.5171 H   0  0  0  0  0  0  0  0  0  0  0  0
   35.2870   28.5830   32.1619 H   0  0  0  0  0  0  0  0  0  0  0  0
   41.9265   24.1830   36.1562 H   0  0  0  0  0  0  0  0  0  0  0  0
   44.3174   23.6731   35.4171 H   0  0  0  0  0  0  0  0  0  0  0  0
   46.0621   21.4046   35.4701 H   0  0  0  0  0  0  0  0  0  0  0  0
   46.1097   19.0173   36.1900 H   0  0  0  0  0  0  0  0  0  0  0  0
   44.1050   18.0018   37.2579 H   0  0  0  0  0  0  0  0  0  0  0  0
   42.0535   19.3635   37.5993 H   0  0  0  0  0  0  0  0  0  0  0  0
  1  2  2  0
  2  3  1  0
  4  3  2  0
  5  4  1  0
  6  5  2  0
  6  1  1  0
  7 12  2  0
  8  7  1  0
  8  9  2  0
  9 10  1  0
 10 11  2  0
 10  5  1  0
 12 11  1  0
 13  7  1  0
 14 13  2  0
 15 13  2  0
 16  1  1  0
 17 16  1  0
 18 17  2  0
 19 20  1  0
 19 18  1  0
 20 25  2  0
 21 20  1  0
 21 22  2  0
 22 23  1  0
 23 24  2  0
 25 17  1  0
 25 24  1  0
  2 26  1  0
  3 27  1  0
  8 28  1  0
  9 29  1  0
 11 30  1  0
 12 31  1  0
 13 32  1  0
 18 33  1  0
 19 34  1  0
 21 35  1  0
 22 36  1  0
 23 37  1  0
 24 38  1  0
M  ISO  8  26  14  27  14  28  14  29  14  30  14  31  14  32  11  33  14
M  ISO  5  34   9  35  14  36  14  37  14  38  14
M  END
>  <minimizedAffinity>  (1) 
-5.75829792

>  <minimizedRMSD>  (1) 
1.94554448

$$$$
