
     RDKit          3D

 34 37  0  0  0  0  0  0  0  0999 V2000
   40.5630   22.0450   37.4310 O   0  0  0  0  0  0  0  0  0  0  0  0
   41.8120   22.1550   36.8670 C   0  0  0  0  0  0  0  0  0  0  0  0
   42.3560   23.2760   36.2660 C   0  0  0  0  0  0  0  0  0  0  0  0
   43.6000   23.0280   35.8220 N   0  0  0  0  0  0  0  0  0  0  0  0
   43.9220   21.7440   36.1110 C   0  0  0  0  0  0  0  0  0  0  0  0
   45.0630   21.0130   35.8710 C   0  0  0  0  0  0  0  0  0  0  0  0
   45.1110   19.6790   36.2920 C   0  0  0  0  0  0  0  0  0  0  0  0
   44.0000   19.1240   36.9440 C   0  0  0  0  0  0  0  0  0  0  0  0
   42.8740   19.8940   37.1660 C   0  0  0  0  0  0  0  0  0  0  0  0
   42.8260   21.2110   36.7500 C   0  0  0  0  0  0  0  0  0  0  0  0
   39.6040   23.0080   37.4540 C   0  0  0  0  0  0  0  0  0  0  0  0
   38.9880   23.2820   38.6780 C   0  0  0  0  0  0  0  0  0  0  0  0
   38.0010   24.2680   38.7200 C   0  0  0  0  0  0  0  0  0  0  0  0
   37.6930   24.9050   37.5760 N   0  0  0  0  0  0  0  0  0  0  0  0
   38.3100   24.6170   36.4010 C   0  0  0  0  0  0  0  0  0  0  0  0
   39.2540   23.6820   36.3290 N   0  0  0  0  0  0  0  0  0  0  0  0
   37.9270   25.3470   35.1970 C   0  0  0  0  0  0  0  0  0  0  0  0
   37.5330   26.6840   35.2880 C   0  0  0  0  0  0  0  0  0  0  0  0
   37.1670   27.3950   34.1580 C   0  0  0  0  0  0  0  0  0  0  0  0
   37.1740   26.8200   32.9040 C   0  0  0  0  0  0  0  0  0  0  0  0
   37.5730   25.4920   32.8700 C   0  0  0  0  0  0  0  0  0  0  0  0
   37.9320   24.7910   33.9620 N   0  0  0  0  0  0  0  0  0  0  0  0
   41.8392   24.2418   36.1650 H   0  0  0  0  0  0  0  0  0  0  0  0
   44.2096   23.7042   35.3403 H   0  0  0  0  0  0  0  0  0  0  0  0
   45.9222   21.4690   35.3573 H   0  0  0  0  0  0  0  0  0  0  0  0
   46.0108   19.0720   36.1134 H   0  0  0  0  0  0  0  0  0  0  0  0
   44.0249   18.0764   37.2785 H   0  0  0  0  0  0  0  0  0  0  0  0
   42.0065   19.4538   37.6794 H   0  0  0  0  0  0  0  0  0  0  0  0
   39.2743   22.7333   39.5874 H   0  0  0  0  0  0  0  0  0  0  0  0
   37.4897   24.5170   39.6616 H   0  0  0  0  0  0  0  0  0  0  0  0
   37.5133   27.1784   36.2704 H   0  0  0  0  0  0  0  0  0  0  0  0
   36.8624   28.4468   34.2628 H   0  0  0  0  0  0  0  0  0  0  0  0
   36.8847   27.3735   31.9985 H   0  0  0  0  0  0  0  0  0  0  0  0
   37.5975   24.9826   31.8954 H   0  0  0  0  0  0  0  0  0  0  0  0
  1 11  1  0
  2  1  1  0
  3  2  2  0
  4  5  1  0
  4  3  1  0
  5 10  2  0
  6  5  1  0
  6  7  2  0
  7  8  1  0
  8  9  2  0
 10  2  1  0
 10  9  1  0
 11 12  2  0
 12 13  1  0
 14 13  2  0
 15 14  1  0
 16 15  2  0
 16 11  1  0
 17 18  2  0
 17 15  1  0
 19 18  1  0
 20 19  2  0
 21 20  1  0
 21 22  2  0
 22 17  1  0
  3 23  1  0
  4 24  1  0
  6 25  1  0
  7 26  1  0
  8 27  1  0
  9 28  1  0
 12 29  1  0
 13 30  1  0
 18 31  1  0
 19 32  1  0
 20 33  1  0
 21 34  1  0
M  ISO  8  23  14  24   9  25  14  26  14  27  14  28  14  29  14  30  14
M  ISO  4  31  14  32  14  33  14  34  14
M  END
>  <minimizedAffinity>  (1) 
-5.43310547

>  <minimizedRMSD>  (1) 
1.42008495

$$$$
