
     RDKit          3D

 33 36  0  0  0  0  0  0  0  0999 V2000
   40.5440   21.9560   37.2850 O   0  0  0  0  0  0  0  0  0  0  0  0
   41.8190   22.0940   36.7810 C   0  0  0  0  0  0  0  0  0  0  0  0
   42.3730   23.2280   36.2140 C   0  0  0  0  0  0  0  0  0  0  0  0
   43.6370   23.0080   35.8300 N   0  0  0  0  0  0  0  0  0  0  0  0
   43.9810   21.7280   36.1200 C   0  0  0  0  0  0  0  0  0  0  0  0
   45.1380   21.0100   35.9350 C   0  0  0  0  0  0  0  0  0  0  0  0
   45.1840   19.6780   36.3500 C   0  0  0  0  0  0  0  0  0  0  0  0
   44.0610   19.0860   36.9460 C   0  0  0  0  0  0  0  0  0  0  0  0
   42.9110   19.8520   37.1130 C   0  0  0  0  0  0  0  0  0  0  0  0
   42.8620   21.1710   36.7030 C   0  0  0  0  0  0  0  0  0  0  0  0
   39.5900   22.9360   37.3260 C   0  0  0  0  0  0  0  0  0  0  0  0
   39.0470   23.2230   38.5790 C   0  0  0  0  0  0  0  0  0  0  0  0
   38.0630   24.2310   38.6320 C   0  0  0  0  0  0  0  0  0  0  0  0
   37.6990   24.8640   37.4770 N   0  0  0  0  0  0  0  0  0  0  0  0
   38.2680   24.5330   36.3000 C   0  0  0  0  0  0  0  0  0  0  0  0
   39.1940   23.5930   36.2100 N   0  0  0  0  0  0  0  0  0  0  0  0
   37.8430   25.2390   35.0970 C   0  0  0  0  0  0  0  0  0  0  0  0
   37.4260   26.5530   35.1510 C   0  0  0  0  0  0  0  0  0  0  0  0
   37.0130   27.2580   34.0290 C   0  0  0  0  0  0  0  0  0  0  0  0
   37.0130   26.6470   32.8140 N   0  0  0  0  0  0  0  0  0  0  0  0
   37.4290   25.3490   32.7770 C   0  0  0  0  0  0  0  0  0  0  0  0
   37.8260   24.6770   33.8750 N   0  0  0  0  0  0  0  0  0  0  0  0
   41.8443   24.1852   36.0943 H   0  0  0  0  0  0  0  0  0  0  0  0
   44.2526   23.7028   35.3837 H   0  0  0  0  0  0  0  0  0  0  0  0
   46.0159   21.4785   35.4663 H   0  0  0  0  0  0  0  0  0  0  0  0
   46.1036   19.0911   36.2092 H   0  0  0  0  0  0  0  0  0  0  0  0
   44.0885   18.0367   37.2751 H   0  0  0  0  0  0  0  0  0  0  0  0
   42.0242   19.3990   37.5802 H   0  0  0  0  0  0  0  0  0  0  0  0
   39.3717   22.6875   39.4833 H   0  0  0  0  0  0  0  0  0  0  0  0
   37.5950   24.5041   39.5893 H   0  0  0  0  0  0  0  0  0  0  0  0
   37.4206   27.0639   36.1251 H   0  0  0  0  0  0  0  0  0  0  0  0
   36.6876   28.3047   34.1220 H   0  0  0  0  0  0  0  0  0  0  0  0
   37.4410   24.8279   31.8084 H   0  0  0  0  0  0  0  0  0  0  0  0
  1 11  1  0
  2  1  1  0
  3  2  2  0
  4  5  1  0
  4  3  1  0
  5 10  2  0
  6  5  1  0
  6  7  2  0
  7  8  1  0
  8  9  2  0
 10  2  1  0
 10  9  1  0
 11 12  2  0
 12 13  1  0
 14 13  2  0
 15 14  1  0
 16 15  2  0
 16 11  1  0
 17 18  2  0
 17 15  1  0
 19 18  1  0
 20 19  2  0
 21 20  1  0
 21 22  2  0
 22 17  1  0
  3 23  1  0
  4 24  1  0
  6 25  1  0
  7 26  1  0
  8 27  1  0
  9 28  1  0
 12 29  1  0
 13 30  1  0
 18 31  1  0
 19 32  1  0
 21 33  1  0
M  ISO  8  23  14  24   9  25  14  26  14  27  14  28  14  29  14  30  14
M  ISO  3  31  14  32  14  33  14
M  END
>  <minimizedAffinity>  (1) 
-5.29924774

>  <minimizedRMSD>  (1) 
1.32738733

$$$$
