
     RDKit          3D

 38 41  0  0  0  0  0  0  0  0999 V2000
   41.8700   22.1260   36.8150 C   0  0  0  0  0  0  0  0  0  0  0  0
   42.4420   23.2560   36.2460 C   0  0  0  0  0  0  0  0  0  0  0  0
   43.7000   23.0040   35.8470 N   0  0  0  0  0  0  0  0  0  0  0  0
   44.0180   21.7200   36.1240 C   0  0  0  0  0  0  0  0  0  0  0  0
   45.1500   20.9610   35.9290 C   0  0  0  0  0  0  0  0  0  0  0  0
   45.1590   19.6370   36.3370 C   0  0  0  0  0  0  0  0  0  0  0  0
   44.0310   19.0690   36.9410 C   0  0  0  0  0  0  0  0  0  0  0  0
   42.9000   19.8500   37.1290 C   0  0  0  0  0  0  0  0  0  0  0  0
   42.8880   21.1800   36.7210 C   0  0  0  0  0  0  0  0  0  0  0  0
   40.6000   22.0220   37.3290 O   0  0  0  0  0  0  0  0  0  0  0  0
   39.6390   23.0020   37.2960 C   0  0  0  0  0  0  0  0  0  0  0  0
   38.9560   23.2340   38.5130 C   0  0  0  0  0  0  0  0  0  0  0  0
   37.9710   24.2350   38.4920 C   0  0  0  0  0  0  0  0  0  0  0  0
   37.7300   24.9100   37.3390 N   0  0  0  0  0  0  0  0  0  0  0  0
   38.4190   24.6420   36.2040 C   0  0  0  0  0  0  0  0  0  0  0  0
   39.3620   23.6990   36.1840 N   0  0  0  0  0  0  0  0  0  0  0  0
   38.1520   25.3810   34.9490 C   0  0  0  0  0  0  0  0  0  0  0  0
   37.2320   26.5610   35.1270 C   0  0  0  0  0  0  0  0  0  0  0  0
   37.3920   27.2520   33.7890 C   0  0  0  0  0  0  0  0  0  0  0  0
   38.8050   26.9880   33.3670 C   0  0  0  0  0  0  0  0  0  0  0  0
   39.4100   26.0810   34.4400 C   0  0  0  0  0  0  0  0  0  0  0  0
   41.9343   24.2257   36.1367 H   0  0  0  0  0  0  0  0  0  0  0  0
   44.3273   23.6864   35.3978 H   0  0  0  0  0  0  0  0  0  0  0  0
   46.0388   21.4016   35.4538 H   0  0  0  0  0  0  0  0  0  0  0  0
   46.0611   19.0262   36.1849 H   0  0  0  0  0  0  0  0  0  0  0  0
   44.0413   18.0170   37.2624 H   0  0  0  0  0  0  0  0  0  0  0  0
   42.0078   19.4153   37.6033 H   0  0  0  0  0  0  0  0  0  0  0  0
   39.1837   22.6623   39.4248 H   0  0  0  0  0  0  0  0  0  0  0  0
   37.3996   24.4701   39.4021 H   0  0  0  0  0  0  0  0  0  0  0  0
   37.7403   24.6045   34.2876 H   0  0  0  0  0  0  0  0  0  0  0  0
   36.1929   26.2420   35.2959 H   0  0  0  0  0  0  0  0  0  0  0  0
   37.4661   27.1932   35.9962 H   0  0  0  0  0  0  0  0  0  0  0  0
   36.6874   26.8349   33.0545 H   0  0  0  0  0  0  0  0  0  0  0  0
   37.1822   28.3295   33.8592 H   0  0  0  0  0  0  0  0  0  0  0  0
   38.8229   26.4853   32.3887 H   0  0  0  0  0  0  0  0  0  0  0  0
   39.3742   27.9239   33.2665 H   0  0  0  0  0  0  0  0  0  0  0  0
   40.1278   25.3663   34.0110 H   0  0  0  0  0  0  0  0  0  0  0  0
   39.9886   26.6069   35.2138 H   0  0  0  0  0  0  0  0  0  0  0  0
  1 10  1  0
  2  1  2  0
  3  4  1  0
  3  2  1  0
  4  9  2  0
  5  4  1  0
  5  6  2  0
  6  7  1  0
  7  8  2  0
  9  1  1  0
  9  8  1  0
 11 10  1  0
 11 12  2  0
 13 12  1  0
 14 13  2  0
 15 14  1  0
 16 15  2  0
 16 11  1  0
 17 18  1  0
 17 15  1  0
 19 18  1  0
 20 19  1  0
 20 21  1  0
 21 17  1  0
  2 22  1  0
  3 23  1  0
  5 24  1  0
  6 25  1  0
  7 26  1  0
  8 27  1  0
 12 28  1  0
 13 29  1  0
 17 30  1  0
 18 31  1  0
 18 32  1  0
 19 33  1  0
 19 34  1  0
 20 35  1  0
 20 36  1  0
 21 37  1  0
 21 38  1  0
M  ISO  8  22  14  23   9  24  14  25  14  26  14  27  14  28  14  29  14
M  ISO  8  30  13  31  13  32  13  33  13  34  13  35  13  36  13  37  13
M  ISO  1  38  13
M  END
>  <minimizedAffinity>  (1) 
-5.23032236

>  <minimizedRMSD>  (1) 
1.32906818

$$$$
