
     RDKit          3D

 41 44  0  0  0  0  0  0  0  0999 V2000
   40.6790   21.9760   37.4610 O   0  0  0  0  0  0  0  0  0  0  0  0
   41.9360   22.0590   36.9340 C   0  0  0  0  0  0  0  0  0  0  0  0
   42.5270   23.2000   36.4000 C   0  0  0  0  0  0  0  0  0  0  0  0
   43.7630   22.9370   35.9710 N   0  0  0  0  0  0  0  0  0  0  0  0
   44.0550   21.6370   36.1920 C   0  0  0  0  0  0  0  0  0  0  0  0
   45.1690   20.8440   35.9500 C   0  0  0  0  0  0  0  0  0  0  0  0
   45.1540   19.5060   36.3030 C   0  0  0  0  0  0  0  0  0  0  0  0
   44.0300   18.9540   36.8980 C   0  0  0  0  0  0  0  0  0  0  0  0
   42.9200   19.7470   37.1390 C   0  0  0  0  0  0  0  0  0  0  0  0
   42.9320   21.0990   36.7830 C   0  0  0  0  0  0  0  0  0  0  0  0
   39.6680   22.8770   37.3140 C   0  0  0  0  0  0  0  0  0  0  0  0
   38.9920   23.2690   38.4760 C   0  0  0  0  0  0  0  0  0  0  0  0
   37.9500   24.1950   38.3370 C   0  0  0  0  0  0  0  0  0  0  0  0
   37.6580   24.6560   37.0980 N   0  0  0  0  0  0  0  0  0  0  0  0
   38.3390   24.2490   36.0060 C   0  0  0  0  0  0  0  0  0  0  0  0
   39.3340   23.3710   36.1010 N   0  0  0  0  0  0  0  0  0  0  0  0
   37.8700   24.8690   34.7350 C   0  0  0  0  0  0  0  0  0  0  0  0
   38.9900   24.7630   33.7540 C   0  0  0  0  0  0  0  0  0  0  0  0
   38.9370   25.7420   32.6300 C   0  0  0  0  0  0  0  0  0  0  0  0
   38.7430   27.1510   33.0960 C   0  0  0  0  0  0  0  0  0  0  0  0
   37.4890   27.2130   33.9070 C   0  0  0  0  0  0  0  0  0  0  0  0
   37.4680   26.2720   35.0690 C   0  0  0  0  0  0  0  0  0  0  0  0
   42.0413   24.1851   36.3397 H   0  0  0  0  0  0  0  0  0  0  0  0
   44.3982   23.6219   35.5370 H   0  0  0  0  0  0  0  0  0  0  0  0
   46.0624   21.2789   35.4782 H   0  0  0  0  0  0  0  0  0  0  0  0
   46.0367   18.8784   36.1109 H   0  0  0  0  0  0  0  0  0  0  0  0
   44.0196   17.8902   37.1777 H   0  0  0  0  0  0  0  0  0  0  0  0
   42.0270   19.3119   37.6116 H   0  0  0  0  0  0  0  0  0  0  0  0
   39.2688   22.8650   39.4610 H   0  0  0  0  0  0  0  0  0  0  0  0
   37.3824   24.5395   39.2140 H   0  0  0  0  0  0  0  0  0  0  0  0
   36.9992   24.3771   34.2770 H   0  0  0  0  0  0  0  0  0  0  0  0
   39.9346   24.9167   34.2963 H   0  0  0  0  0  0  0  0  0  0  0  0
   38.9062   23.7656   33.2977 H   0  0  0  0  0  0  0  0  0  0  0  0
   38.1006   25.4724   31.9684 H   0  0  0  0  0  0  0  0  0  0  0  0
   39.9031   25.6968   32.1060 H   0  0  0  0  0  0  0  0  0  0  0  0
   39.5998   27.4592   33.7132 H   0  0  0  0  0  0  0  0  0  0  0  0
   38.6671   27.8271   32.2317 H   0  0  0  0  0  0  0  0  0  0  0  0
   37.3753   28.2379   34.2900 H   0  0  0  0  0  0  0  0  0  0  0  0
   36.6652   26.9150   33.2418 H   0  0  0  0  0  0  0  0  0  0  0  0
   36.4461   26.2497   35.4754 H   0  0  0  0  0  0  0  0  0  0  0  0
   38.2081   26.6476   35.7910 H   0  0  0  0  0  0  0  0  0  0  0  0
  2  1  1  0
  3  2  2  0
  4  5  1  0
  4  3  1  0
  5 10  2  0
  6  5  1  0
  6  7  2  0
  7  8  1  0
  8  9  2  0
 10  2  1  0
 10  9  1  0
 11  1  1  0
 11 12  2  0
 13 12  1  0
 14 13  2  0
 15 16  2  0
 15 14  1  0
 16 11  1  0
 17 22  1  0
 17 15  1  0
 18 17  1  0
 19 20  1  0
 19 18  1  0
 20 21  1  0
 21 22  1  0
  3 23  1  0
  4 24  1  0
  6 25  1  0
  7 26  1  0
  8 27  1  0
  9 28  1  0
 12 29  1  0
 13 30  1  0
 17 31  1  0
 18 32  1  0
 18 33  1  0
 19 34  1  0
 19 35  1  0
 20 36  1  0
 20 37  1  0
 21 38  1  0
 21 39  1  0
 22 40  1  0
 22 41  1  0
M  ISO  8  23  14  24   9  25  14  26  14  27  14  28  14  29  14  30  14
M  ISO  8  31  13  32  13  33  13  34  13  35  13  36  13  37  13  38  13
M  ISO  3  39  13  40  13  41  13
M  END
>  <minimizedAffinity>  (1) 
-5.30549622

>  <minimizedRMSD>  (1) 
1.13988698

$$$$
