
     RDKit          3D

 28 30  0  0  0  0  0  0  0  0999 V2000
   41.8560   22.1080   36.8110 C   0  0  0  0  0  0  0  0  0  0  0  0
   42.4280   23.2410   36.2410 C   0  0  0  0  0  0  0  0  0  0  0  0
   43.6840   22.9960   35.8490 N   0  0  0  0  0  0  0  0  0  0  0  0
   44.0060   21.7220   36.1280 C   0  0  0  0  0  0  0  0  0  0  0  0
   45.1420   20.9660   35.9400 C   0  0  0  0  0  0  0  0  0  0  0  0
   45.1820   19.6390   36.3410 C   0  0  0  0  0  0  0  0  0  0  0  0
   44.0480   19.0710   36.9430 C   0  0  0  0  0  0  0  0  0  0  0  0
   42.9130   19.8410   37.1260 C   0  0  0  0  0  0  0  0  0  0  0  0
   42.8850   21.1770   36.7170 C   0  0  0  0  0  0  0  0  0  0  0  0
   40.5850   21.9880   37.3230 O   0  0  0  0  0  0  0  0  0  0  0  0
   39.6240   22.9610   37.3070 C   0  0  0  0  0  0  0  0  0  0  0  0
   38.9950   23.2270   38.5250 C   0  0  0  0  0  0  0  0  0  0  0  0
   38.0060   24.2140   38.5560 C   0  0  0  0  0  0  0  0  0  0  0  0
   37.7140   24.8610   37.3970 N   0  0  0  0  0  0  0  0  0  0  0  0
   38.3540   24.5660   36.2360 C   0  0  0  0  0  0  0  0  0  0  0  0
   39.2950   23.6310   36.1930 N   0  0  0  0  0  0  0  0  0  0  0  0
   37.9910   25.3110   34.9900 C   0  0  0  0  0  0  0  0  0  0  0  0
   39.0500   26.1590   34.6400 F   0  0  0  0  0  0  0  0  0  0  0  0
   36.9330   26.1500   35.3210 F   0  0  0  0  0  0  0  0  0  0  0  0
   37.6950   24.4590   33.9500 F   0  0  0  0  0  0  0  0  0  0  0  0
   41.9166   24.2083   36.1277 H   0  0  0  0  0  0  0  0  0  0  0  0
   44.3094   23.6809   35.4010 H   0  0  0  0  0  0  0  0  0  0  0  0
   46.0259   21.4191   35.4673 H   0  0  0  0  0  0  0  0  0  0  0  0
   46.0912   19.0388   36.1892 H   0  0  0  0  0  0  0  0  0  0  0  0
   44.0617   18.0200   37.2673 H   0  0  0  0  0  0  0  0  0  0  0  0
   42.0241   19.3972   37.5980 H   0  0  0  0  0  0  0  0  0  0  0  0
   39.2705   22.6746   39.4355 H   0  0  0  0  0  0  0  0  0  0  0  0
   37.4798   24.4598   39.4902 H   0  0  0  0  0  0  0  0  0  0  0  0
  1 10  1  0
  2  1  2  0
  3  4  1  0
  3  2  1  0
  4  9  2  0
  5  4  1  0
  5  6  2  0
  6  7  1  0
  7  8  2  0
  9  1  1  0
  9  8  1  0
 11 10  1  0
 11 12  2  0
 12 13  1  0
 14 13  2  0
 15 14  1  0
 16 15  2  0
 16 11  1  0
 17 19  1  0
 17 15  1  0
 18 17  1  0
 20 17  1  0
  2 21  1  0
  3 22  1  0
  5 23  1  0
  6 24  1  0
  7 25  1  0
  8 26  1  0
 12 27  1  0
 13 28  1  0
M  ISO  8  21  14  22   9  23  14  24  14  25  14  26  14  27  14  28  14
M  END
>  <minimizedAffinity>  (1) 
-4.79195404

>  <minimizedRMSD>  (1) 
0.991941512

$$$$
