
     RDKit          3D

 32 35  0  0  0  0  0  0  0  0999 V2000
   41.7750   22.1490   36.5240 C   0  0  0  0  0  0  0  0  0  0  0  0
   42.3890   23.2900   36.0120 C   0  0  0  0  0  0  0  0  0  0  0  0
   43.6770   23.0660   35.7490 N   0  0  0  0  0  0  0  0  0  0  0  0
   43.9840   21.7860   36.0670 C   0  0  0  0  0  0  0  0  0  0  0  0
   45.1500   21.0350   35.9980 C   0  0  0  0  0  0  0  0  0  0  0  0
   45.1480   19.7090   36.4100 C   0  0  0  0  0  0  0  0  0  0  0  0
   43.9620   19.1380   36.8930 C   0  0  0  0  0  0  0  0  0  0  0  0
   42.8190   19.9080   36.9500 C   0  0  0  0  0  0  0  0  0  0  0  0
   42.8150   21.2290   36.5410 C   0  0  0  0  0  0  0  0  0  0  0  0
   40.4700   22.0370   36.8960 O   0  0  0  0  0  0  0  0  0  0  0  0
   39.5900   23.0470   37.0980 C   0  0  0  0  0  0  0  0  0  0  0  0
   38.9770   23.1280   38.3480 C   0  0  0  0  0  0  0  0  0  0  0  0
   38.0650   24.1580   38.5870 C   0  0  0  0  0  0  0  0  0  0  0  0
   37.8220   25.0330   37.5760 N   0  0  0  0  0  0  0  0  0  0  0  0
   38.4310   24.9260   36.3780 C   0  0  0  0  0  0  0  0  0  0  0  0
   39.3070   23.9510   36.1270 N   0  0  0  0  0  0  0  0  0  0  0  0
   38.0890   25.9460   35.3360 C   0  0  0  0  0  0  0  0  0  0  0  0
   39.1070   26.5800   34.5060 C   0  0  0  0  0  0  0  0  0  0  0  0
   38.6380   27.3340   35.7080 C   0  0  0  0  0  0  0  0  0  0  0  0
   41.8782   24.2500   35.8464 H   0  0  0  0  0  0  0  0  0  0  0  0
   44.3354   23.7583   35.3642 H   0  0  0  0  0  0  0  0  0  0  0  0
   46.0757   21.4908   35.6168 H   0  0  0  0  0  0  0  0  0  0  0  0
   46.0698   19.1111   36.3579 H   0  0  0  0  0  0  0  0  0  0  0  0
   43.9433   18.0887   37.2225 H   0  0  0  0  0  0  0  0  0  0  0  0
   41.8886   19.4607   37.3298 H   0  0  0  0  0  0  0  0  0  0  0  0
   39.2081   22.3926   39.1327 H   0  0  0  0  0  0  0  0  0  0  0  0
   37.5609   24.2577   39.5596 H   0  0  0  0  0  0  0  0  0  0  0  0
   37.1401   25.4609   35.0635 H   0  0  0  0  0  0  0  0  0  0  0  0
   40.1265   26.1674   34.4886 H   0  0  0  0  0  0  0  0  0  0  0  0
   39.1741   26.8209   33.4348 H   0  0  0  0  0  0  0  0  0  0  0  0
   38.0104   28.2301   35.5934 H   0  0  0  0  0  0  0  0  0  0  0  0
   39.1093   27.7889   36.5917 H   0  0  0  0  0  0  0  0  0  0  0  0
  1  9  1  0
  1 10  1  0
  2  1  2  0
  3  2  1  0
  3  4  1  0
  4  9  2  0
  5  4  1  0
  5  6  2  0
  6  7  1  0
  7  8  2  0
  9  8  1  0
 10 11  1  0
 11 12  2  0
 12 13  1  0
 14 13  2  0
 15 14  1  0
 16 15  2  0
 16 11  1  0
 17 19  1  0
 17 15  1  0
 18 17  1  0
 18 19  1  0
  2 20  1  0
  3 21  1  0
  5 22  1  0
  6 23  1  0
  7 24  1  0
  8 25  1  0
 12 26  1  0
 13 27  1  0
 17 28  1  0
 18 29  1  0
 18 30  1  0
 19 31  1  0
 19 32  1  0
M  ISO  8  20  14  21   9  22  14  23  14  24  14  25  14  26  14  27  14
M  ISO  5  28  13  29  13  30  13  31  13  32  13
M  END
>  <minimizedAffinity>  (1) 
-4.84722424

>  <minimizedRMSD>  (1) 
1.30546749

$$$$
