
     RDKit          3D

 26 27  0  0  1  0  0  0  0  0999 V2000
   41.0920   22.9190   35.7510 C   0  0  2  0  0  0  0  0  0  0  0  0
   39.8870   23.3340   36.5530 C   0  0  0  0  0  0  0  0  0  0  0  0
   39.7390   22.9180   37.8860 C   0  0  0  0  0  0  0  0  0  0  0  0
   38.6110   23.3360   38.5840 C   0  0  0  0  0  0  0  0  0  0  0  0
   37.7040   24.1310   37.9380 N   0  0  0  0  0  0  0  0  0  0  0  0
   37.8720   24.5170   36.6550 C   0  0  0  0  0  0  0  0  0  0  0  0
   38.9580   24.1170   35.9750 N   0  0  0  0  0  0  0  0  0  0  0  0
   40.5360   22.1410   34.5870 C   0  0  0  0  0  0  0  0  0  0  0  0
   41.9910   22.0800   36.6230 C   0  0  0  0  0  0  0  0  0  0  0  0
   43.3860   22.5490   36.3760 C   0  0  0  0  0  0  0  0  0  0  0  0
   44.4610   21.9160   35.9150 C   0  0  0  0  0  0  0  0  0  0  0  0
   45.6430   22.6070   35.7850 C   0  0  0  0  0  0  0  0  0  0  0  0
   45.6470   23.9330   36.1470 C   0  0  0  0  0  0  0  0  0  0  0  0
   43.8880   24.2040   36.6930 S   0  0  0  0  0  0  0  0  0  0  0  0
   41.6988   23.7636   35.3926 H   0  0  0  0  0  0  0  0  0  0  0  0
   40.4950   22.2786   38.3653 H   0  0  0  0  0  0  0  0  0  0  0  0
   38.4519   23.0348   39.6299 H   0  0  0  0  0  0  0  0  0  0  0  0
   37.1213   25.1572   36.1686 H   0  0  0  0  0  0  0  0  0  0  0  0
   39.9347   21.2997   34.9620 H   0  0  0  0  0  0  0  0  0  0  0  0
   39.9029   22.7998   33.9745 H   0  0  0  0  0  0  0  0  0  0  0  0
   41.3644   21.7554   33.9745 H   0  0  0  0  0  0  0  0  0  0  0  0
   41.7270   22.2164   37.6821 H   0  0  0  0  0  0  0  0  0  0  0  0
   41.8852   21.0107   36.3878 H   0  0  0  0  0  0  0  0  0  0  0  0
   44.4054   20.8522   35.6409 H   0  0  0  0  0  0  0  0  0  0  0  0
   46.5515   22.1167   35.4054 H   0  0  0  0  0  0  0  0  0  0  0  0
   46.4790   24.6521   36.1207 H   0  0  0  0  0  0  0  0  0  0  0  0
  1  2  1  0
  1  9  1  0
  2  3  2  0
  3  4  1  0
  5  4  2  0
  6  5  1  0
  7  2  1  0
  7  6  2  0
  8  1  1  0
 10  9  1  0
 10 14  1  0
 11 10  2  0
 12 11  1  0
 12 13  2  0
 13 14  1  0
  1 15  1  6
  3 16  1  0
  4 17  1  0
  6 18  1  0
  8 19  1  0
  8 20  1  0
  8 21  1  0
  9 22  1  0
  9 23  1  0
 11 24  1  0
 12 25  1  0
 13 26  1  0
M  ISO  8  15   8  16  14  17  14  18  14  19   8  20   8  21   8  22   8
M  ISO  4  23   8  24  14  25  14  26  14
M  END
>  <minimizedAffinity>  (1) 
-3.52423191

>  <minimizedRMSD>  (1) 
1.87826562

$$$$
