
     RDKit          3D

 37 39  0  0  0  0  0  0  0  0999 V2000
   41.9170   22.0940   36.8450 C   0  0  0  0  0  0  0  0  0  0  0  0
   42.5560   23.2090   36.3520 C   0  0  0  0  0  0  0  0  0  0  0  0
   43.8100   22.9180   35.9780 N   0  0  0  0  0  0  0  0  0  0  0  0
   44.0640   21.6090   36.2040 C   0  0  0  0  0  0  0  0  0  0  0  0
   45.1630   20.7970   36.0110 C   0  0  0  0  0  0  0  0  0  0  0  0
   45.1110   19.4580   36.3520 C   0  0  0  0  0  0  0  0  0  0  0  0
   43.9440   18.9400   36.8900 C   0  0  0  0  0  0  0  0  0  0  0  0
   42.8410   19.7490   37.0840 C   0  0  0  0  0  0  0  0  0  0  0  0
   42.8880   21.0990   36.7430 C   0  0  0  0  0  0  0  0  0  0  0  0
   40.6370   22.0290   37.3130 O   0  0  0  0  0  0  0  0  0  0  0  0
   39.7010   23.0280   37.2640 C   0  0  0  0  0  0  0  0  0  0  0  0
   38.9050   23.1880   38.4000 C   0  0  0  0  0  0  0  0  0  0  0  0
   37.9460   24.1990   38.3690 C   0  0  0  0  0  0  0  0  0  0  0  0
   37.8350   24.9610   37.2620 N   0  0  0  0  0  0  0  0  0  0  0  0
   38.6290   24.7700   36.1830 C   0  0  0  0  0  0  0  0  0  0  0  0
   39.5540   23.8090   36.1860 N   0  0  0  0  0  0  0  0  0  0  0  0
   38.4250   25.6750   34.9960 C   0  0  0  0  0  0  0  0  0  0  0  0
   39.6160   26.5870   34.8210 C   0  0  0  0  0  0  0  0  0  0  0  0
   38.2880   24.8500   33.7270 C   0  0  0  0  0  0  0  0  0  0  0  0
   37.1860   26.5150   35.1200 C   0  0  0  0  0  0  0  0  0  0  0  0
   42.0985   24.2064   36.2751 H   0  0  0  0  0  0  0  0  0  0  0  0
   44.4798   23.5907   35.5783 H   0  0  0  0  0  0  0  0  0  0  0  0
   46.0853   21.2172   35.5836 H   0  0  0  0  0  0  0  0  0  0  0  0
   45.9870   18.8108   36.1978 H   0  0  0  0  0  0  0  0  0  0  0  0
   43.8953   17.8760   37.1649 H   0  0  0  0  0  0  0  0  0  0  0  0
   41.9200   19.3246   37.5103 H   0  0  0  0  0  0  0  0  0  0  0  0
   39.0295   22.5432   39.2824 H   0  0  0  0  0  0  0  0  0  0  0  0
   37.2896   24.3727   39.2345 H   0  0  0  0  0  0  0  0  0  0  0  0
   40.0006   26.8815   35.8086 H   0  0  0  0  0  0  0  0  0  0  0  0
   40.4035   26.0588   34.2635 H   0  0  0  0  0  0  0  0  0  0  0  0
   39.3114   27.4850   34.2635 H   0  0  0  0  0  0  0  0  0  0  0  0
   38.1131   23.7967   33.9915 H   0  0  0  0  0  0  0  0  0  0  0  0
   37.4399   25.2252   33.1355 H   0  0  0  0  0  0  0  0  0  0  0  0
   39.2119   24.9310   33.1355 H   0  0  0  0  0  0  0  0  0  0  0  0
   36.9544   26.6720   36.1838 H   0  0  0  0  0  0  0  0  0  0  0  0
   37.3521   27.4875   34.6335 H   0  0  0  0  0  0  0  0  0  0  0  0
   36.3441   26.0007   34.6335 H   0  0  0  0  0  0  0  0  0  0  0  0
  1 10  1  0
  2  1  2  0
  3  4  1  0
  3  2  1  0
  4  9  2  0
  5  4  1  0
  5  6  2  0
  6  7  1  0
  7  8  2  0
  9  1  1  0
  9  8  1  0
 11 10  1  0
 11 12  2  0
 13 12  1  0
 14 13  2  0
 15 16  2  0
 15 14  1  0
 16 11  1  0
 17 20  1  0
 17 15  1  0
 18 17  1  0
 19 17  1  0
  2 21  1  0
  3 22  1  0
  5 23  1  0
  6 24  1  0
  7 25  1  0
  8 26  1  0
 12 27  1  0
 13 28  1  0
 18 29  1  0
 18 30  1  0
 18 31  1  0
 19 32  1  0
 19 33  1  0
 19 34  1  0
 20 35  1  0
 20 36  1  0
 20 37  1  0
M  ISO  8  21  14  22   9  23  14  24  14  25  14  26  14  27  14  28  14
M  ISO  8  29   8  30   8  31   8  32   8  33   8  34   8  35   8  36   8
M  ISO  1  37   8
M  END
>  <minimizedAffinity>  (1) 
-4.92125034

>  <minimizedRMSD>  (1) 
1.31962669

$$$$
