
     RDKit          3D

 30 33  0  0  0  0  0  0  0  0999 V2000
   40.6120   21.9590   37.3430 O   0  0  0  0  0  0  0  0  0  0  0  0
   41.8750   22.0870   36.8240 C   0  0  0  0  0  0  0  0  0  0  0  0
   42.4220   23.2320   36.2550 C   0  0  0  0  0  0  0  0  0  0  0  0
   43.6820   23.0140   35.8470 N   0  0  0  0  0  0  0  0  0  0  0  0
   44.0190   21.7450   36.1200 C   0  0  0  0  0  0  0  0  0  0  0  0
   45.1740   21.0090   35.9170 C   0  0  0  0  0  0  0  0  0  0  0  0
   45.2280   19.6670   36.3210 C   0  0  0  0  0  0  0  0  0  0  0  0
   44.1160   19.0990   36.9210 C   0  0  0  0  0  0  0  0  0  0  0  0
   42.9680   19.8430   37.1190 C   0  0  0  0  0  0  0  0  0  0  0  0
   42.9120   21.1690   36.7210 C   0  0  0  0  0  0  0  0  0  0  0  0
   39.6320   22.9000   37.3160 C   0  0  0  0  0  0  0  0  0  0  0  0
   39.0520   23.2370   38.5600 C   0  0  0  0  0  0  0  0  0  0  0  0
   38.0330   24.2160   38.5340 C   0  0  0  0  0  0  0  0  0  0  0  0
   37.6720   24.7710   37.3400 N   0  0  0  0  0  0  0  0  0  0  0  0
   38.2740   24.3980   36.1920 C   0  0  0  0  0  0  0  0  0  0  0  0
   39.2370   23.4820   36.1610 N   0  0  0  0  0  0  0  0  0  0  0  0
   37.8550   25.0200   34.9400 C   0  0  0  0  0  0  0  0  0  0  0  0
   37.2770   26.2300   34.7340 N   0  0  0  0  0  0  0  0  0  0  0  0
   37.0600   26.4080   33.4590 O   0  0  0  0  0  0  0  0  0  0  0  0
   37.4690   25.3600   32.7810 C   0  0  0  0  0  0  0  0  0  0  0  0
   37.9600   24.5070   33.6990 N   0  0  0  0  0  0  0  0  0  0  0  0
   41.8918   24.1903   36.1527 H   0  0  0  0  0  0  0  0  0  0  0  0
   44.2926   23.7103   35.3962 H   0  0  0  0  0  0  0  0  0  0  0  0
   46.0480   21.4761   35.4396 H   0  0  0  0  0  0  0  0  0  0  0  0
   46.1408   19.0736   36.1636 H   0  0  0  0  0  0  0  0  0  0  0  0
   44.1469   18.0475   37.2424 H   0  0  0  0  0  0  0  0  0  0  0  0
   42.0923   19.3789   37.5961 H   0  0  0  0  0  0  0  0  0  0  0  0
   39.3763   22.7628   39.4981 H   0  0  0  0  0  0  0  0  0  0  0  0
   37.5365   24.5272   39.4650 H   0  0  0  0  0  0  0  0  0  0  0  0
   37.4205   25.2109   31.6922 H   0  0  0  0  0  0  0  0  0  0  0  0
  2  1  1  0
  3  2  2  0
  4  5  1  0
  4  3  1  0
  5 10  2  0
  6  5  1  0
  6  7  2  0
  7  8  1  0
  8  9  2  0
 10  2  1  0
 10  9  1  0
 11  1  1  0
 11 12  2  0
 13 12  1  0
 14 13  2  0
 15 14  1  0
 16 15  2  0
 16 11  1  0
 17 15  1  0
 18 17  2  0
 19 18  1  0
 20 19  1  0
 20 21  2  0
 21 17  1  0
  3 22  1  0
  4 23  1  0
  6 24  1  0
  7 25  1  0
  8 26  1  0
  9 27  1  0
 12 28  1  0
 13 29  1  0
 20 30  1  0
M  ISO  8  22  14  23   9  24  14  25  14  26  14  27  14  28  14  29  14
M  ISO  1  30  14
M  END
>  <minimizedAffinity>  (1) 
-4.99553823

>  <minimizedRMSD>  (1) 
1.02366686

$$$$
