
     RDKit          3D

 26 28  0  0  0  0  0  0  0  0999 V2000
   41.9350   22.0620   36.9330 C   0  0  0  0  0  0  0  0  0  0  0  0
   42.5580   23.1990   36.4270 C   0  0  0  0  0  0  0  0  0  0  0  0
   43.8020   22.9180   36.0040 N   0  0  0  0  0  0  0  0  0  0  0  0
   44.0560   21.6180   36.2030 C   0  0  0  0  0  0  0  0  0  0  0  0
   45.1510   20.8040   35.9620 C   0  0  0  0  0  0  0  0  0  0  0  0
   45.1230   19.4580   36.2830 C   0  0  0  0  0  0  0  0  0  0  0  0
   43.9750   18.9300   36.8550 C   0  0  0  0  0  0  0  0  0  0  0  0
   42.8660   19.7310   37.1050 C   0  0  0  0  0  0  0  0  0  0  0  0
   42.9170   21.0770   36.7750 C   0  0  0  0  0  0  0  0  0  0  0  0
   40.6720   21.9880   37.4440 O   0  0  0  0  0  0  0  0  0  0  0  0
   39.6800   22.9100   37.3100 C   0  0  0  0  0  0  0  0  0  0  0  0
   38.9670   23.2590   38.4610 C   0  0  0  0  0  0  0  0  0  0  0  0
   37.9460   24.2100   38.3090 C   0  0  0  0  0  0  0  0  0  0  0  0
   37.7010   24.7380   37.0820 N   0  0  0  0  0  0  0  0  0  0  0  0
   38.4240   24.3600   36.0040 C   0  0  0  0  0  0  0  0  0  0  0  0
   39.3980   23.4610   36.1170 N   0  0  0  0  0  0  0  0  0  0  0  0
   38.0400   25.0980   34.4390 S   0  0  0  0  0  0  0  0  0  0  0  0
   42.0938   24.1951   36.3797 H   0  0  0  0  0  0  0  0  0  0  0  0
   44.4579   23.5964   35.5911 H   0  0  0  0  0  0  0  0  0  0  0  0
   46.0563   21.2340   35.5087 H   0  0  0  0  0  0  0  0  0  0  0  0
   45.9961   18.8180   36.0879 H   0  0  0  0  0  0  0  0  0  0  0  0
   43.9413   17.8616   37.1148 H   0  0  0  0  0  0  0  0  0  0  0  0
   41.9601   19.3025   37.5586 H   0  0  0  0  0  0  0  0  0  0  0  0
   39.1953   22.8098   39.4388 H   0  0  0  0  0  0  0  0  0  0  0  0
   37.3487   24.5253   39.1772 H   0  0  0  0  0  0  0  0  0  0  0  0
   37.4146   26.2999   34.6420 H   0  0  0  0  0  0  0  0  0  0  0  0
  1 10  1  0
  2  1  2  0
  3  4  1  0
  3  2  1  0
  4  9  2  0
  5  4  1  0
  5  6  2  0
  6  7  1  0
  7  8  2  0
  9  1  1  0
  9  8  1  0
 11 10  1  0
 11 12  2  0
 13 12  1  0
 14 13  2  0
 15 16  2  0
 15 14  1  0
 16 11  1  0
 17 15  1  0
  2 18  1  0
  3 19  1  0
  5 20  1  0
  6 21  1  0
  7 22  1  0
  8 23  1  0
 12 24  1  0
 13 25  1  0
 17 26  1  0
M  ISO  8  18  14  19   9  20  14  21  14  22  14  23  14  24  14  25  14
M  ISO  1  26  11
M  END
>  <minimizedAffinity>  (1) 
-4.34620714

>  <minimizedRMSD>  (1) 
0.552570403

$$$$
