
     RDKit          3D

 36 39  0  0  0  0  0  0  0  0999 V2000
   39.6990   22.8180   37.5200 C   0  0  0  0  0  0  0  0  0  0  0  0
   39.0720   23.6570   38.4440 C   0  0  0  0  0  0  0  0  0  0  0  0
   37.6890   23.8530   38.2840 C   0  0  0  0  0  0  0  0  0  0  0  0
   37.0470   23.2390   37.2740 N   0  0  0  0  0  0  0  0  0  0  0  0
   37.6970   22.4350   36.4040 C   0  0  0  0  0  0  0  0  0  0  0  0
   39.0070   22.2290   36.5280 N   0  0  0  0  0  0  0  0  0  0  0  0
   37.0930   21.7500   35.3120 N   0  0  0  0  0  0  0  0  0  0  0  0
   37.5870   21.8740   34.0480 C   0  0  0  0  0  0  0  0  0  0  0  0
   36.9560   21.1800   33.0160 C   0  0  0  0  0  0  0  0  0  0  0  0
   35.8520   20.3820   33.2610 C   0  0  0  0  0  0  0  0  0  0  0  0
   35.2730   19.7510   32.3440 O   0  0  0  0  0  0  0  0  0  0  0  0
   35.3910   20.2860   34.5300 N   0  0  0  0  0  0  0  0  0  0  0  0
   36.0130   20.9630   35.5140 C   0  0  0  0  0  0  0  0  0  0  0  0
   35.5970   20.8840   36.7000 O   0  0  0  0  0  0  0  0  0  0  0  0
   41.0470   22.6260   37.6740 O   0  0  0  0  0  0  0  0  0  0  0  0
   41.9480   22.4150   36.6600 C   0  0  0  0  0  0  0  0  0  0  0  0
   42.2100   23.2400   35.5920 C   0  0  0  0  0  0  0  0  0  0  0  0
   43.1580   22.7070   34.7980 N   0  0  0  0  0  0  0  0  0  0  0  0
   43.5570   21.5190   35.3030 C   0  0  0  0  0  0  0  0  0  0  0  0
   44.4840   20.5940   34.8770 C   0  0  0  0  0  0  0  0  0  0  0  0
   44.6800   19.4390   35.6240 C   0  0  0  0  0  0  0  0  0  0  0  0
   43.9350   19.2360   36.7900 C   0  0  0  0  0  0  0  0  0  0  0  0
   43.0040   20.1870   37.1970 C   0  0  0  0  0  0  0  0  0  0  0  0
   42.8160   21.3350   36.4480 C   0  0  0  0  0  0  0  0  0  0  0  0
   42.2510   20.0160   38.3450 O   0  0  0  0  0  0  0  0  0  0  0  0
   39.6329   24.1408   39.2572 H   0  0  0  0  0  0  0  0  0  0  0  0
   37.1368   24.5029   38.9788 H   0  0  0  0  0  0  0  0  0  0  0  0
   38.4636   22.5072   33.8463 H   0  0  0  0  0  0  0  0  0  0  0  0
   37.3423   21.2683   31.9898 H   0  0  0  0  0  0  0  0  0  0  0  0
   34.5709   19.6998   34.7414 H   0  0  0  0  0  0  0  0  0  0  0  0
   41.7129   24.2044   35.4107 H   0  0  0  0  0  0  0  0  0  0  0  0
   43.5232   23.1389   33.9372 H   0  0  0  0  0  0  0  0  0  0  0  0
   45.0618   20.7673   33.9572 H   0  0  0  0  0  0  0  0  0  0  0  0
   45.4166   18.6889   35.3003 H   0  0  0  0  0  0  0  0  0  0  0  0
   44.0850   18.3237   37.3860 H   0  0  0  0  0  0  0  0  0  0  0  0
   41.5948   20.7068   38.6140 H   0  0  0  0  0  0  0  0  0  0  0  0
  1 15  1  0
  1  2  2  0
  3  2  1  0
  4  3  2  0
  5  6  2  0
  5  4  1  0
  6  1  1  0
  7 13  1  0
  7  5  1  0
  8  7  1  0
  9 10  1  0
  9  8  2  0
 10 12  1  0
 11 10  2  0
 12 13  1  0
 13 14  2  0
 16 15  1  0
 17 16  2  0
 18 19  1  0
 18 17  1  0
 19 24  2  0
 20 19  1  0
 20 21  2  0
 21 22  1  0
 22 23  2  0
 23 25  1  0
 24 16  1  0
 24 23  1  0
  2 26  1  0
  3 27  1  0
  8 28  1  0
  9 29  1  0
 12 30  1  0
 17 31  1  0
 18 32  1  0
 20 33  1  0
 21 34  1  0
 22 35  1  0
 25 36  1  0
M  ISO  8  26  14  27  14  28  14  29  14  30   9  31  14  32   9  33  14
M  ISO  3  34  14  35  14  36   3
M  END
>  <minimizedAffinity>  (1) 
-6.50745583

>  <minimizedRMSD>  (1) 
0.191655472

$$$$
