
     RDKit          3D

 38 41  0  0  0  0  0  0  0  0999 V2000
   39.8360   22.5280   37.2540 C   0  0  0  0  0  0  0  0  0  0  0  0
   39.2750   23.3690   38.2180 C   0  0  0  0  0  0  0  0  0  0  0  0
   37.9030   23.6550   38.0990 C   0  0  0  0  0  0  0  0  0  0  0  0
   37.2060   23.1170   37.0790 N   0  0  0  0  0  0  0  0  0  0  0  0
   37.8030   22.3060   36.1720 C   0  0  0  0  0  0  0  0  0  0  0  0
   39.0940   22.0240   36.2670 N   0  0  0  0  0  0  0  0  0  0  0  0
   37.1370   21.6980   35.0670 N   0  0  0  0  0  0  0  0  0  0  0  0
   37.6170   21.8450   33.8020 C   0  0  0  0  0  0  0  0  0  0  0  0
   36.9120   21.2220   32.7700 C   0  0  0  0  0  0  0  0  0  0  0  0
   35.7720   20.4830   33.0080 C   0  0  0  0  0  0  0  0  0  0  0  0
   35.1250   19.9150   32.0860 O   0  0  0  0  0  0  0  0  0  0  0  0
   35.3310   20.3660   34.2850 N   0  0  0  0  0  0  0  0  0  0  0  0
   36.0090   20.9660   35.2890 C   0  0  0  0  0  0  0  0  0  0  0  0
   35.6180   20.8670   36.4730 O   0  0  0  0  0  0  0  0  0  0  0  0
   41.1810   22.2560   37.3850 O   0  0  0  0  0  0  0  0  0  0  0  0
   42.1680   22.7110   36.5540 C   0  0  0  0  0  0  0  0  0  0  0  0
   42.2690   23.9910   36.0160 C   0  0  0  0  0  0  0  0  0  0  0  0
   43.3660   24.0840   35.2430 N   0  0  0  0  0  0  0  0  0  0  0  0
   44.0300   22.8890   35.2350 C   0  0  0  0  0  0  0  0  0  0  0  0
   45.1760   22.4720   34.6170 C   0  0  0  0  0  0  0  0  0  0  0  0
   45.6120   21.1820   34.7970 C   0  0  0  0  0  0  0  0  0  0  0  0
   44.8780   20.3250   35.6050 C   0  0  0  0  0  0  0  0  0  0  0  0
   43.7230   20.7570   36.2240 C   0  0  0  0  0  0  0  0  0  0  0  0
   43.2810   22.0420   36.0510 C   0  0  0  0  0  0  0  0  0  0  0  0
   43.0300   19.7820   37.0540 C   0  0  0  0  0  0  0  0  0  0  0  0
   42.7590   18.5720   36.8900 O   0  0  0  0  0  0  0  0  0  0  0  0
   42.5120   20.1010   38.2960 O   0  0  0  0  0  0  0  0  0  0  0  0
   39.8800   23.7894   39.0348 H   0  0  0  0  0  0  0  0  0  0  0  0
   37.4052   24.3097   38.8295 H   0  0  0  0  0  0  0  0  0  0  0  0
   38.5252   22.4319   33.6003 H   0  0  0  0  0  0  0  0  0  0  0  0
   37.2765   21.3236   31.7371 H   0  0  0  0  0  0  0  0  0  0  0  0
   34.4812   19.8211   34.4896 H   0  0  0  0  0  0  0  0  0  0  0  0
   41.5551   24.8081   36.1968 H   0  0  0  0  0  0  0  0  0  0  0  0
   43.6614   24.9290   34.7335 H   0  0  0  0  0  0  0  0  0  0  0  0
   45.7451   23.1650   33.9799 H   0  0  0  0  0  0  0  0  0  0  0  0
   46.5323   20.8322   34.3064 H   0  0  0  0  0  0  0  0  0  0  0  0
   45.2207   19.2903   35.7535 H   0  0  0  0  0  0  0  0  0  0  0  0
   42.0471   19.4097   38.8308 H   0  0  0  0  0  0  0  0  0  0  0  0
  1 15  1  0
  1  2  2  0
  3  2  1  0
  4  3  2  0
  5  6  2  0
  5  4  1  0
  6  1  1  0
  7 13  1  0
  7  5  1  0
  8  7  1  0
  9 10  1  0
  9  8  2  0
 10 12  1  0
 11 10  2  0
 12 13  1  0
 13 14  2  0
 16 15  1  0
 17 16  2  0
 18 17  1  0
 19 18  1  0
 19 24  2  0
 20 21  2  0
 20 19  1  0
 21 22  1  0
 22 23  2  0
 23 25  1  0
 24 23  1  0
 24 16  1  0
 25 27  1  0
 26 25  2  0
  2 28  1  0
  3 29  1  0
  8 30  1  0
  9 31  1  0
 12 32  1  0
 17 33  1  0
 18 34  1  0
 20 35  1  0
 21 36  1  0
 22 37  1  0
 27 38  1  0
M  ISO  8  28  14  29  14  30  14  31  14  32   9  33  14  34   9  35  14
M  ISO  3  36  14  37  14  38   3
M  END
>  <minimizedAffinity>  (1) 
-6.43211651

>  <minimizedRMSD>  (1) 
1.01410913

$$$$
