
     RDKit          3D

 42 46  0  0  0  0  0  0  0  0999 V2000
   42.1770   23.0310   36.1900 C   0  0  0  0  0  0  0  0  0  0  0  0
   42.0410   24.3600   35.8190 C   0  0  0  0  0  0  0  0  0  0  0  0
   43.1180   24.7610   35.1080 N   0  0  0  0  0  0  0  0  0  0  0  0
   43.9940   23.7180   34.9880 C   0  0  0  0  0  0  0  0  0  0  0  0
   45.2080   23.6070   34.3720 C   0  0  0  0  0  0  0  0  0  0  0  0
   45.8860   22.4150   34.4050 C   0  0  0  0  0  0  0  0  0  0  0  0
   45.3130   21.3420   35.0710 C   0  0  0  0  0  0  0  0  0  0  0  0
   44.0700   21.4460   35.7050 C   0  0  0  0  0  0  0  0  0  0  0  0
   43.4090   22.6450   35.6600 C   0  0  0  0  0  0  0  0  0  0  0  0
   43.5440   20.2730   36.3890 C   0  0  0  0  0  0  0  0  0  0  0  0
   43.4710   19.0220   35.8130 C   0  0  0  0  0  0  0  0  0  0  0  0
   42.9380   18.0810   36.6600 C   0  0  0  0  0  0  0  0  0  0  0  0
   42.6820   18.7770   37.7720 N   0  0  0  0  0  0  0  0  0  0  0  0
   43.0350   20.0170   37.5940 N   0  0  0  0  0  0  0  0  0  0  0  0
   41.2730   22.3050   36.9170 O   0  0  0  0  0  0  0  0  0  0  0  0
   39.9100   22.5100   36.9350 C   0  0  0  0  0  0  0  0  0  0  0  0
   39.4110   23.2420   38.0170 C   0  0  0  0  0  0  0  0  0  0  0  0
   38.0190   23.4610   38.0510 C   0  0  0  0  0  0  0  0  0  0  0  0
   37.2510   22.9620   37.0580 N   0  0  0  0  0  0  0  0  0  0  0  0
   37.7950   22.2580   36.0350 C   0  0  0  0  0  0  0  0  0  0  0  0
   39.1000   22.0400   35.9800 N   0  0  0  0  0  0  0  0  0  0  0  0
   37.0530   21.6950   34.9470 N   0  0  0  0  0  0  0  0  0  0  0  0
   37.4000   21.9600   33.6630 C   0  0  0  0  0  0  0  0  0  0  0  0
   36.6380   21.3830   32.6500 C   0  0  0  0  0  0  0  0  0  0  0  0
   35.5510   20.5540   32.9410 C   0  0  0  0  0  0  0  0  0  0  0  0
   34.8540   20.0250   32.0340 O   0  0  0  0  0  0  0  0  0  0  0  0
   35.2560   20.3270   34.2270 N   0  0  0  0  0  0  0  0  0  0  0  0
   35.9930   20.8880   35.2120 C   0  0  0  0  0  0  0  0  0  0  0  0
   35.7190   20.6780   36.4170 O   0  0  0  0  0  0  0  0  0  0  0  0
   41.1795   24.9970   36.0679 H   0  0  0  0  0  0  0  0  0  0  0  0
   43.2571   25.7040   34.7178 H   0  0  0  0  0  0  0  0  0  0  0  0
   45.6416   24.4727   33.8499 H   0  0  0  0  0  0  0  0  0  0  0  0
   46.8645   22.3123   33.9131 H   0  0  0  0  0  0  0  0  0  0  0  0
   45.8505   20.3827   35.1017 H   0  0  0  0  0  0  0  0  0  0  0  0
   43.8032   18.8019   34.7877 H   0  0  0  0  0  0  0  0  0  0  0  0
   42.7638   17.0118   36.4690 H   0  0  0  0  0  0  0  0  0  0  0  0
   42.2701   18.3925   38.6342 H   0  0  0  0  0  0  0  0  0  0  0  0
   40.0740   23.6289   38.8049 H   0  0  0  0  0  0  0  0  0  0  0  0
   37.5642   24.0305   38.8749 H   0  0  0  0  0  0  0  0  0  0  0  0
   38.2560   22.6100   33.4291 H   0  0  0  0  0  0  0  0  0  0  0  0
   36.8968   21.5837   31.5999 H   0  0  0  0  0  0  0  0  0  0  0  0
   34.4601   19.7193   34.4683 H   0  0  0  0  0  0  0  0  0  0  0  0
  1 15  1  0
  2  1  2  0
  3  2  1  0
  4  3  1  0
  4  9  2  0
  5  6  2  0
  5  4  1  0
  6  7  1  0
  7  8  2  0
  8 10  1  0
  9  8  1  0
  9  1  1  0
 10 14  2  0
 11 10  1  0
 11 12  2  0
 12 13  1  0
 14 13  1  0
 15 16  1  0
 16 17  2  0
 17 18  1  0
 19 18  2  0
 20 19  1  0
 21 20  2  0
 21 16  1  0
 22 28  1  0
 22 20  1  0
 23 22  1  0
 24 25  1  0
 24 23  2  0
 25 27  1  0
 26 25  2  0
 27 28  1  0
 28 29  2  0
  2 30  1  0
  3 31  1  0
  5 32  1  0
  6 33  1  0
  7 34  1  0
 11 35  1  0
 12 36  1  0
 13 37  1  0
 17 38  1  0
 18 39  1  0
 23 40  1  0
 24 41  1  0
 27 42  1  0
M  ISO  8  30  14  31   9  32  14  33  14  34  14  35  14  36  14  37   9
M  ISO  5  38  14  39  14  40  14  41  14  42   9
M  END
>  <minimizedAffinity>  (1) 
-6.15401983

>  <minimizedRMSD>  (1) 
1.86234808

$$$$
