
     RDKit          3D

 42 46  0  0  0  0  0  0  0  0999 V2000
   41.5010   21.9770   36.4840 O   0  0  0  0  0  0  0  0  0  0  0  0
   40.1580   22.2660   36.5960 C   0  0  0  0  0  0  0  0  0  0  0  0
   39.7810   22.9860   37.7350 C   0  0  0  0  0  0  0  0  0  0  0  0
   38.4050   23.2880   37.8610 C   0  0  0  0  0  0  0  0  0  0  0  0
   37.5530   22.8840   36.9150 N   0  0  0  0  0  0  0  0  0  0  0  0
   37.9760   22.1830   35.8220 C   0  0  0  0  0  0  0  0  0  0  0  0
   39.2570   21.8850   35.6760 N   0  0  0  0  0  0  0  0  0  0  0  0
   37.1340   21.7200   34.7760 N   0  0  0  0  0  0  0  0  0  0  0  0
   37.4170   22.0220   33.4760 C   0  0  0  0  0  0  0  0  0  0  0  0
   36.5480   21.5340   32.4980 C   0  0  0  0  0  0  0  0  0  0  0  0
   35.4330   20.7700   32.8290 C   0  0  0  0  0  0  0  0  0  0  0  0
   34.6430   20.3250   31.9550 O   0  0  0  0  0  0  0  0  0  0  0  0
   35.1990   20.5000   34.1270 N   0  0  0  0  0  0  0  0  0  0  0  0
   36.0390   20.9710   35.0820 C   0  0  0  0  0  0  0  0  0  0  0  0
   35.8330   20.7280   36.2930 O   0  0  0  0  0  0  0  0  0  0  0  0
   42.4890   22.8800   36.2060 C   0  0  0  0  0  0  0  0  0  0  0  0
   42.3250   24.2470   36.0850 C   0  0  0  0  0  0  0  0  0  0  0  0
   43.5070   24.8400   35.8050 N   0  0  0  0  0  0  0  0  0  0  0  0
   44.4860   23.8860   35.7330 C   0  0  0  0  0  0  0  0  0  0  0  0
   45.8260   23.9680   35.4780 C   0  0  0  0  0  0  0  0  0  0  0  0
   46.5860   22.8260   35.4640 C   0  0  0  0  0  0  0  0  0  0  0  0
   45.9690   21.6080   35.7110 C   0  0  0  0  0  0  0  0  0  0  0  0
   44.5980   21.5160   35.9720 C   0  0  0  0  0  0  0  0  0  0  0  0
   43.8550   22.6690   35.9820 C   0  0  0  0  0  0  0  0  0  0  0  0
   44.0120   20.1830   36.2330 C   0  0  0  0  0  0  0  0  0  0  0  0
   43.7780   19.2770   35.2210 C   0  0  0  0  0  0  0  0  0  0  0  0
   43.2320   18.1190   35.7220 C   0  0  0  0  0  0  0  0  0  0  0  0
   43.1650   18.4070   37.0660 C   0  0  0  0  0  0  0  0  0  0  0  0
   43.6180   19.5890   37.3190 O   0  0  0  0  0  0  0  0  0  0  0  0
   40.5151   23.3002   38.4916 H   0  0  0  0  0  0  0  0  0  0  0  0
   38.0391   23.8516   38.7319 H   0  0  0  0  0  0  0  0  0  0  0  0
   38.2961   22.6267   33.2085 H   0  0  0  0  0  0  0  0  0  0  0  0
   36.7497   21.7589   31.4403 H   0  0  0  0  0  0  0  0  0  0  0  0
   34.3807   19.9348   34.3952 H   0  0  0  0  0  0  0  0  0  0  0  0
   41.3682   24.7773   36.2002 H   0  0  0  0  0  0  0  0  0  0  0  0
   43.6487   25.8509   35.6674 H   0  0  0  0  0  0  0  0  0  0  0  0
   46.2930   24.9450   35.2849 H   0  0  0  0  0  0  0  0  0  0  0  0
   47.6659   22.8751   35.2605 H   0  0  0  0  0  0  0  0  0  0  0  0
   46.5746   20.6898   35.7013 H   0  0  0  0  0  0  0  0  0  0  0  0
   43.9980   19.4559   34.1582 H   0  0  0  0  0  0  0  0  0  0  0  0
   42.9292   17.2051   35.1899 H   0  0  0  0  0  0  0  0  0  0  0  0
   42.7746   17.7170   37.8286 H   0  0  0  0  0  0  0  0  0  0  0  0
  1  2  1  0
  2  3  2  0
  3  4  1  0
  5  4  2  0
  6  5  1  0
  7  6  2  0
  7  2  1  0
  8 14  1  0
  8  6  1  0
  9  8  1  0
 10 11  1  0
 10  9  2  0
 11 13  1  0
 12 11  2  0
 13 14  1  0
 14 15  2  0
 16  1  1  0
 17 16  2  0
 18 17  1  0
 19 18  1  0
 19 24  2  0
 20 19  1  0
 21 20  2  0
 21 22  1  0
 22 23  2  0
 23 24  1  0
 23 25  1  0
 24 16  1  0
 25 29  1  0
 26 27  1  0
 26 25  2  0
 27 28  2  0
 28 29  1  0
  3 30  1  0
  4 31  1  0
  9 32  1  0
 10 33  1  0
 13 34  1  0
 17 35  1  0
 18 36  1  0
 20 37  1  0
 21 38  1  0
 22 39  1  0
 26 40  1  0
 27 41  1  0
 28 42  1  0
M  ISO  8  30  14  31  14  32  14  33  14  34   9  35  14  36   9  37  14
M  ISO  5  38  14  39  14  40  14  41  14  42  14
M  END
>  <minimizedAffinity>  (1) 
-5.74727345

>  <minimizedRMSD>  (1) 
2.19621825

$$$$
