
     RDKit          3D

 25 26  0  0  1  0  0  0  0  0999 V2000
   41.0920   23.0240   35.7080 C   0  0  2  0  0  0  0  0  0  0  0  0
   39.8820   23.4000   36.5240 C   0  0  0  0  0  0  0  0  0  0  0  0
   39.7510   22.9340   37.8410 C   0  0  0  0  0  0  0  0  0  0  0  0
   38.6260   23.3040   38.5760 C   0  0  0  0  0  0  0  0  0  0  0  0
   37.7010   24.1110   37.9600 N   0  0  0  0  0  0  0  0  0  0  0  0
   37.8560   24.5370   36.7020 C   0  0  0  0  0  0  0  0  0  0  0  0
   38.9420   24.1880   35.9760 N   0  0  0  0  0  0  0  0  0  0  0  0
   40.5320   22.1300   34.6230 C   0  0  0  0  0  0  0  0  0  0  0  0
   42.0640   22.2960   36.5960 C   0  0  0  0  0  0  0  0  0  0  0  0
   43.3860   22.8660   36.4520 N   0  0  0  0  0  0  0  0  0  0  0  0
   44.4840   22.3090   35.9160 C   0  0  0  0  0  0  0  0  0  0  0  0
   45.5230   23.1610   35.9670 N   0  0  0  0  0  0  0  0  0  0  0  0
   45.0330   24.2870   36.5610 C   0  0  0  0  0  0  0  0  0  0  0  0
   43.7350   24.0720   36.8410 N   0  0  0  0  0  0  0  0  0  0  0  0
   41.6370   23.8777   35.2789 H   0  0  0  0  0  0  0  0  0  0  0  0
   40.5225   22.2881   38.2855 H   0  0  0  0  0  0  0  0  0  0  0  0
   38.4841   22.9621   39.6118 H   0  0  0  0  0  0  0  0  0  0  0  0
   37.0876   25.1818   36.2505 H   0  0  0  0  0  0  0  0  0  0  0  0
   40.0016   21.2832   35.0831 H   0  0  0  0  0  0  0  0  0  0  0  0
   39.8325   22.7052   33.9986 H   0  0  0  0  0  0  0  0  0  0  0  0
   41.3548   21.7517   33.9986 H   0  0  0  0  0  0  0  0  0  0  0  0
   41.7398   22.3871   37.6432 H   0  0  0  0  0  0  0  0  0  0  0  0
   42.0939   21.2352   36.3065 H   0  0  0  0  0  0  0  0  0  0  0  0
   44.5275   21.2945   35.4931 H   0  0  0  0  0  0  0  0  0  0  0  0
   45.5983   25.2065   36.7731 H   0  0  0  0  0  0  0  0  0  0  0  0
  1  2  1  0
  1  9  1  0
  2  3  2  0
  3  4  1  0
  5  4  2  0
  6  5  1  0
  7  2  1  0
  7  6  2  0
  8  1  1  0
 10  9  1  0
 10 14  1  0
 11 12  2  0
 11 10  1  0
 12 13  1  0
 13 14  2  0
  1 15  1  6
  3 16  1  0
  4 17  1  0
  6 18  1  0
  8 19  1  0
  8 20  1  0
  8 21  1  0
  9 22  1  0
  9 23  1  0
 11 24  1  0
 13 25  1  0
M  ISO  8  15   8  16  14  17  14  18  14  19   8  20   8  21   8  22   8
M  ISO  3  23   8  24  14  25  14
M  END
>  <minimizedAffinity>  (1) 
-3.38832211

>  <minimizedRMSD>  (1) 
2.03707123

$$$$
