
     RDKit          3D

 41 44  0  0  0  0  0  0  0  0999 V2000
   39.8290   22.6690   37.3480 C   0  0  0  0  0  0  0  0  0  0  0  0
   39.2380   23.4650   38.3310 C   0  0  0  0  0  0  0  0  0  0  0  0
   37.8510   23.6830   38.2240 C   0  0  0  0  0  0  0  0  0  0  0  0
   37.1640   23.1350   37.2100 N   0  0  0  0  0  0  0  0  0  0  0  0
   37.7840   22.3630   36.2730 C   0  0  0  0  0  0  0  0  0  0  0  0
   39.0850   22.1420   36.3480 N   0  0  0  0  0  0  0  0  0  0  0  0
   37.1370   21.7470   35.1720 N   0  0  0  0  0  0  0  0  0  0  0  0
   37.5890   21.9360   33.8970 C   0  0  0  0  0  0  0  0  0  0  0  0
   36.8980   21.3020   32.8710 C   0  0  0  0  0  0  0  0  0  0  0  0
   35.7930   20.5040   33.1050 C   0  0  0  0  0  0  0  0  0  0  0  0
   35.1800   19.9380   32.1720 O   0  0  0  0  0  0  0  0  0  0  0  0
   35.3810   20.3430   34.3770 N   0  0  0  0  0  0  0  0  0  0  0  0
   36.0470   20.9600   35.3920 C   0  0  0  0  0  0  0  0  0  0  0  0
   35.6700   20.8160   36.5780 O   0  0  0  0  0  0  0  0  0  0  0  0
   41.1760   22.4540   37.4470 O   0  0  0  0  0  0  0  0  0  0  0  0
   42.1170   22.8360   36.5200 C   0  0  0  0  0  0  0  0  0  0  0  0
   42.2110   24.0510   35.8830 C   0  0  0  0  0  0  0  0  0  0  0  0
   43.2660   24.0650   35.0320 N   0  0  0  0  0  0  0  0  0  0  0  0
   43.9050   22.8620   35.0760 C   0  0  0  0  0  0  0  0  0  0  0  0
   45.0020   22.3620   34.4180 C   0  0  0  0  0  0  0  0  0  0  0  0
   45.4130   21.0770   34.6700 C   0  0  0  0  0  0  0  0  0  0  0  0
   44.7140   20.3020   35.5900 C   0  0  0  0  0  0  0  0  0  0  0  0
   43.6000   20.8230   36.2550 C   0  0  0  0  0  0  0  0  0  0  0  0
   43.1890   22.1050   36.0010 C   0  0  0  0  0  0  0  0  0  0  0  0
   42.9380   19.9200   37.2600 C   0  0  0  0  0  0  0  0  0  0  0  0
   43.1760   18.5010   36.7460 C   0  0  0  0  0  0  0  0  0  0  0  0
   39.8281   23.9013   39.1504 H   0  0  0  0  0  0  0  0  0  0  0  0
   37.3314   24.3016   38.9706 H   0  0  0  0  0  0  0  0  0  0  0  0
   38.4666   22.5661   33.6900 H   0  0  0  0  0  0  0  0  0  0  0  0
   37.2425   21.4400   31.8355 H   0  0  0  0  0  0  0  0  0  0  0  0
   34.5620   19.7531   34.5822 H   0  0  0  0  0  0  0  0  0  0  0  0
   41.5244   24.8955   36.0421 H   0  0  0  0  0  0  0  0  0  0  0  0
   43.5425   24.8629   34.4422 H   0  0  0  0  0  0  0  0  0  0  0  0
   45.5469   22.9865   33.6947 H   0  0  0  0  0  0  0  0  0  0  0  0
   46.2885   20.6629   34.1485 H   0  0  0  0  0  0  0  0  0  0  0  0
   45.0402   19.2718   35.7957 H   0  0  0  0  0  0  0  0  0  0  0  0
   43.3918   20.0511   38.2534 H   0  0  0  0  0  0  0  0  0  0  0  0
   41.8662   20.1426   37.3677 H   0  0  0  0  0  0  0  0  0  0  0  0
   43.2908   17.8164   37.5993 H   0  0  0  0  0  0  0  0  0  0  0  0
   42.3185   18.1839   36.1343 H   0  0  0  0  0  0  0  0  0  0  0  0
   44.0900   18.4811   36.1343 H   0  0  0  0  0  0  0  0  0  0  0  0
  1 15  1  0
  1  2  2  0
  3  2  1  0
  4  3  2  0
  5  6  2  0
  5  4  1  0
  6  1  1  0
  7 13  1  0
  7  5  1  0
  8  7  1  0
  9 10  1  0
  9  8  2  0
 10 12  1  0
 11 10  2  0
 12 13  1  0
 13 14  2  0
 16 15  1  0
 17 16  2  0
 18 19  1  0
 18 17  1  0
 19 24  2  0
 20 21  2  0
 20 19  1  0
 21 22  1  0
 22 23  2  0
 23 25  1  0
 24 23  1  0
 24 16  1  0
 26 25  1  0
  2 27  1  0
  3 28  1  0
  8 29  1  0
  9 30  1  0
 12 31  1  0
 17 32  1  0
 18 33  1  0
 20 34  1  0
 21 35  1  0
 22 36  1  0
 25 37  1  0
 25 38  1  0
 26 39  1  0
 26 40  1  0
 26 41  1  0
M  ISO  8  27  14  28  14  29  14  30  14  31   9  32  14  33   9  34  14
M  ISO  7  35  14  36  14  37   8  38   8  39   8  40   8  41   8
M  END
>  <minimizedAffinity>  (1) 
-5.91000366

>  <minimizedRMSD>  (1) 
0.949798942

$$$$
