
     RDKit          3D

 42 46  0  0  0  0  0  0  0  0999 V2000
   41.5240   22.0060   36.1990 O   0  0  0  0  0  0  0  0  0  0  0  0
   40.1950   22.2810   36.3840 C   0  0  0  0  0  0  0  0  0  0  0  0
   39.8500   22.9840   37.5400 C   0  0  0  0  0  0  0  0  0  0  0  0
   38.4790   23.2690   37.7320 C   0  0  0  0  0  0  0  0  0  0  0  0
   37.5910   22.8540   36.8070 N   0  0  0  0  0  0  0  0  0  0  0  0
   37.9770   22.1740   35.7010 C   0  0  0  0  0  0  0  0  0  0  0  0
   39.2580   21.9010   35.5080 N   0  0  0  0  0  0  0  0  0  0  0  0
   37.1020   21.7080   34.6890 N   0  0  0  0  0  0  0  0  0  0  0  0
   37.3260   22.0180   33.3800 C   0  0  0  0  0  0  0  0  0  0  0  0
   36.4320   21.5320   32.4250 C   0  0  0  0  0  0  0  0  0  0  0  0
   35.3440   20.7550   32.7900 C   0  0  0  0  0  0  0  0  0  0  0  0
   34.5190   20.3020   31.9410 O   0  0  0  0  0  0  0  0  0  0  0  0
   35.1570   20.4700   34.1010 N   0  0  0  0  0  0  0  0  0  0  0  0
   36.0250   20.9440   35.0100 C   0  0  0  0  0  0  0  0  0  0  0  0
   35.8720   20.6920   36.2390 O   0  0  0  0  0  0  0  0  0  0  0  0
   42.5190   22.9440   36.0230 C   0  0  0  0  0  0  0  0  0  0  0  0
   42.3760   24.3060   35.9040 C   0  0  0  0  0  0  0  0  0  0  0  0
   43.5800   24.9000   35.7430 N   0  0  0  0  0  0  0  0  0  0  0  0
   44.5520   23.9630   35.7510 C   0  0  0  0  0  0  0  0  0  0  0  0
   45.9280   24.0090   35.6280 C   0  0  0  0  0  0  0  0  0  0  0  0
   46.6770   22.8550   35.6750 C   0  0  0  0  0  0  0  0  0  0  0  0
   46.0230   21.6350   35.8500 C   0  0  0  0  0  0  0  0  0  0  0  0
   44.6480   21.5760   35.9730 C   0  0  0  0  0  0  0  0  0  0  0  0
   43.9050   22.7410   35.9240 C   0  0  0  0  0  0  0  0  0  0  0  0
   44.0370   20.3040   36.1480 N   0  0  0  0  0  0  0  0  0  0  0  0
   43.8590   19.6100   34.9870 C   0  0  0  0  0  0  0  0  0  0  0  0
   43.2590   18.3990   35.3000 C   0  0  0  0  0  0  0  0  0  0  0  0
   43.0910   18.3910   36.6430 N   0  0  0  0  0  0  0  0  0  0  0  0
   43.5630   19.5470   37.1550 C   0  0  0  0  0  0  0  0  0  0  0  0
   40.6107   23.3016   38.2683 H   0  0  0  0  0  0  0  0  0  0  0  0
   38.1422   23.8206   38.6221 H   0  0  0  0  0  0  0  0  0  0  0  0
   38.1880   22.6344   33.0849 H   0  0  0  0  0  0  0  0  0  0  0  0
   36.5938   21.7699   31.3633 H   0  0  0  0  0  0  0  0  0  0  0  0
   34.3560   19.8947   34.3983 H   0  0  0  0  0  0  0  0  0  0  0  0
   41.4144   24.8393   35.9354 H   0  0  0  0  0  0  0  0  0  0  0  0
   43.7323   25.9125   35.6313 H   0  0  0  0  0  0  0  0  0  0  0  0
   46.4299   24.9782   35.4911 H   0  0  0  0  0  0  0  0  0  0  0  0
   47.7719   22.8940   35.5763 H   0  0  0  0  0  0  0  0  0  0  0  0
   46.6109   20.7062   35.8907 H   0  0  0  0  0  0  0  0  0  0  0  0
   44.1415   19.9507   33.9800 H   0  0  0  0  0  0  0  0  0  0  0  0
   42.9758   17.6027   34.5959 H   0  0  0  0  0  0  0  0  0  0  0  0
   43.5607   19.8247   38.2194 H   0  0  0  0  0  0  0  0  0  0  0  0
  1  2  1  0
  2  3  2  0
  3  4  1  0
  5  4  2  0
  6  5  1  0
  7  6  2  0
  7  2  1  0
  8 14  1  0
  8  6  1  0
  9  8  1  0
 10 11  1  0
 10  9  2  0
 11 13  1  0
 12 11  2  0
 13 14  1  0
 14 15  2  0
 16  1  1  0
 17 16  2  0
 18 19  1  0
 18 17  1  0
 19 24  2  0
 20 21  2  0
 20 19  1  0
 21 22  1  0
 22 23  2  0
 23 25  1  0
 24 23  1  0
 24 16  1  0
 25 29  1  0
 26 27  2  0
 26 25  1  0
 27 28  1  0
 28 29  2  0
  3 30  1  0
  4 31  1  0
  9 32  1  0
 10 33  1  0
 13 34  1  0
 17 35  1  0
 18 36  1  0
 20 37  1  0
 21 38  1  0
 22 39  1  0
 26 40  1  0
 27 41  1  0
 29 42  1  0
M  ISO  8  30  14  31  14  32  14  33  14  34   9  35  14  36   9  37  14
M  ISO  5  38  14  39  14  40  14  41  14  42  14
M  END
>  <minimizedAffinity>  (1) 
-5.63345003

>  <minimizedRMSD>  (1) 
2.29319525

$$$$
