
     RDKit          3D

 26 27  0  0  1  0  0  0  0  0999 V2000
   41.0670   23.0260   35.6850 C   0  0  2  0  0  0  0  0  0  0  0  0
   39.8830   23.3930   36.5140 C   0  0  0  0  0  0  0  0  0  0  0  0
   39.7760   22.9200   37.8400 C   0  0  0  0  0  0  0  0  0  0  0  0
   38.6410   23.3050   38.5750 C   0  0  0  0  0  0  0  0  0  0  0  0
   37.7130   24.1120   37.9640 N   0  0  0  0  0  0  0  0  0  0  0  0
   37.8530   24.5390   36.7050 C   0  0  0  0  0  0  0  0  0  0  0  0
   38.9300   24.1810   35.9890 N   0  0  0  0  0  0  0  0  0  0  0  0
   40.5080   22.1380   34.5980 C   0  0  0  0  0  0  0  0  0  0  0  0
   42.0790   22.3130   36.5410 C   0  0  0  0  0  0  0  0  0  0  0  0
   43.4130   22.7920   36.3870 N   0  0  0  0  0  0  0  0  0  0  0  0
   43.7730   24.0510   36.7670 C   0  0  0  0  0  0  0  0  0  0  0  0
   45.1030   24.2650   36.5150 C   0  0  0  0  0  0  0  0  0  0  0  0
   45.5790   23.1200   35.9680 N   0  0  0  0  0  0  0  0  0  0  0  0
   44.5490   22.2820   35.9120 C   0  0  0  0  0  0  0  0  0  0  0  0
   41.5896   23.8928   35.2543 H   0  0  0  0  0  0  0  0  0  0  0  0
   40.5506   22.2753   38.2809 H   0  0  0  0  0  0  0  0  0  0  0  0
   38.5000   22.9685   39.6127 H   0  0  0  0  0  0  0  0  0  0  0  0
   37.0843   25.1847   36.2553 H   0  0  0  0  0  0  0  0  0  0  0  0
   39.9748   21.2910   35.0545 H   0  0  0  0  0  0  0  0  0  0  0  0
   39.8110   22.7167   33.9741 H   0  0  0  0  0  0  0  0  0  0  0  0
   41.3312   21.7597   33.9741 H   0  0  0  0  0  0  0  0  0  0  0  0
   41.7876   22.4353   37.5946 H   0  0  0  0  0  0  0  0  0  0  0  0
   42.0809   21.2609   36.2199 H   0  0  0  0  0  0  0  0  0  0  0  0
   43.0919   24.7907   37.2130 H   0  0  0  0  0  0  0  0  0  0  0  0
   45.6719   25.1846   36.7169 H   0  0  0  0  0  0  0  0  0  0  0  0
   44.6270   21.2609   35.5104 H   0  0  0  0  0  0  0  0  0  0  0  0
  1  2  1  0
  1  9  1  0
  2  3  2  0
  3  4  1  0
  5  4  2  0
  6  5  1  0
  7  2  1  0
  7  6  2  0
  8  1  1  0
 10  9  1  0
 10 11  1  0
 12 11  2  0
 13 12  1  0
 14 13  2  0
 14 10  1  0
  1 15  1  6
  3 16  1  0
  4 17  1  0
  6 18  1  0
  8 19  1  0
  8 20  1  0
  8 21  1  0
  9 22  1  0
  9 23  1  0
 11 24  1  0
 12 25  1  0
 14 26  1  0
M  ISO  8  15   8  16  14  17  14  18  14  19   8  20   8  21   8  22   8
M  ISO  4  23   8  24  14  25  14  26  14
M  END
>  <minimizedAffinity>  (1) 
-3.37307477

>  <minimizedRMSD>  (1) 
2.05656552

$$$$
