
     RDKit          3D

 26 27  0  0  0  0  0  0  0  0999 V2000
   40.4410   22.0010   37.2120 C   0  0  0  0  0  0  0  0  0  0  0  0
   39.7410   22.9790   36.5000 C   0  0  0  0  0  0  0  0  0  0  0  0
   40.4670   23.8860   35.7260 C   0  0  0  0  0  0  0  0  0  0  0  0
   41.8320   23.7630   35.7120 N   0  0  0  0  0  0  0  0  0  0  0  0
   42.4740   22.8160   36.4040 C   0  0  0  0  0  0  0  0  0  0  0  0
   41.7720   21.9530   37.1410 N   0  0  0  0  0  0  0  0  0  0  0  0
   39.7780   24.9530   34.9410 C   0  0  0  0  0  0  0  0  0  0  0  0
   38.3420   25.1410   35.3330 C   0  0  0  0  0  0  0  0  0  0  0  0
   38.2990   26.1790   36.4350 C   0  0  0  0  0  0  0  0  0  0  0  0
   38.4280   27.4700   35.6520 C   0  0  0  0  0  0  0  0  0  0  0  0
   37.3870   27.2490   34.5670 C   0  0  0  0  0  0  0  0  0  0  0  0
   37.5190   25.7760   34.2400 C   0  0  0  0  0  0  0  0  0  0  0  0
   39.8954   21.2724   37.8296 H   0  0  0  0  0  0  0  0  0  0  0  0
   38.6434   23.0328   36.5484 H   0  0  0  0  0  0  0  0  0  0  0  0
   43.5713   22.7489   36.3661 H   0  0  0  0  0  0  0  0  0  0  0  0
   39.8171   24.6834   33.8753 H   0  0  0  0  0  0  0  0  0  0  0  0
   40.2998   25.8992   35.1472 H   0  0  0  0  0  0  0  0  0  0  0  0
   37.9534   24.1458   35.5950 H   0  0  0  0  0  0  0  0  0  0  0  0
   37.3479   26.1385   36.9862 H   0  0  0  0  0  0  0  0  0  0  0  0
   39.0751   26.0450   37.2030 H   0  0  0  0  0  0  0  0  0  0  0  0
   38.1867   28.3458   36.2724 H   0  0  0  0  0  0  0  0  0  0  0  0
   39.4412   27.6760   35.2764 H   0  0  0  0  0  0  0  0  0  0  0  0
   36.3777   27.4797   34.9385 H   0  0  0  0  0  0  0  0  0  0  0  0
   37.5395   27.8963   33.6908 H   0  0  0  0  0  0  0  0  0  0  0  0
   36.5236   25.3095   34.2001 H   0  0  0  0  0  0  0  0  0  0  0  0
   38.0021   25.6381   33.2614 H   0  0  0  0  0  0  0  0  0  0  0  0
  2  1  2  0
  3  2  1  0
  4  3  2  0
  4  5  1  0
  5  6  2  0
  6  1  1  0
  7  8  1  0
  7  3  1  0
  8  9  1  0
 10  9  1  0
 11 10  1  0
 12 11  1  0
 12  8  1  0
  1 13  1  0
  2 14  1  0
  5 15  1  0
  7 16  1  0
  7 17  1  0
  8 18  1  0
  9 19  1  0
  9 20  1  0
 10 21  1  0
 10 22  1  0
 11 23  1  0
 11 24  1  0
 12 25  1  0
 12 26  1  0
M  ISO  8  13  14  14  14  15  14  16   8  17   8  18  13  19  13  20  13
M  ISO  6  21  13  22  13  23  13  24  13  25  13  26  13
M  END
>  <minimizedAffinity>  (1) 
-3.427423

>  <minimizedRMSD>  (1) 
4.64679003

$$$$
