
     RDKit          3D

 33 34  0  0  1  0  0  0  0  0999 V2000
   41.3320   22.7920   36.7480 C   0  0  2  0  0  0  0  0  0  0  0  0
   39.8400   22.7920   36.8570 C   0  0  0  0  0  0  0  0  0  0  0  0
   39.2670   23.2620   38.0670 C   0  0  0  0  0  0  0  0  0  0  0  0
   37.8760   23.2680   38.1720 C   0  0  0  0  0  0  0  0  0  0  0  0
   37.1540   22.8230   37.1130 N   0  0  0  0  0  0  0  0  0  0  0  0
   37.7320   22.3820   35.9770 C   0  0  0  0  0  0  0  0  0  0  0  0
   39.0690   22.3730   35.8650 N   0  0  0  0  0  0  0  0  0  0  0  0
   41.6030   23.8470   35.6700 C   0  0  0  0  0  0  0  0  0  0  0  0
   41.7820   21.4470   36.2530 C   0  0  0  0  0  0  0  0  0  0  0  0
   43.0110   20.9760   36.8910 N   0  0  0  0  0  0  0  0  0  0  0  0
   44.0960   21.3460   36.0000 C   0  0  0  0  0  0  0  0  0  0  0  0
   45.1100   20.2460   35.8230 C   0  0  0  0  0  0  0  0  0  0  0  0
   44.5150   19.0600   35.2330 N   0  0  0  0  0  0  0  0  0  0  0  0
   43.2210   18.7750   35.8190 C   0  0  0  0  0  0  0  0  0  0  0  0
   42.9820   19.5340   37.0970 C   0  0  0  0  0  0  0  0  0  0  0  0
   41.8474   22.9968   37.6979 H   0  0  0  0  0  0  0  0  0  0  0  0
   39.8999   23.6107   38.8963 H   0  0  0  0  0  0  0  0  0  0  0  0
   37.3790   23.6232   39.0868 H   0  0  0  0  0  0  0  0  0  0  0  0
   37.1076   22.0299   35.1427 H   0  0  0  0  0  0  0  0  0  0  0  0
   41.8493   24.8060   36.1492 H   0  0  0  0  0  0  0  0  0  0  0  0
   42.4470   23.5227   35.0435 H   0  0  0  0  0  0  0  0  0  0  0  0
   40.7072   23.9696   35.0435 H   0  0  0  0  0  0  0  0  0  0  0  0
   40.9836   20.7169   36.4520 H   0  0  0  0  0  0  0  0  0  0  0  0
   41.9922   21.5496   35.1781 H   0  0  0  0  0  0  0  0  0  0  0  0
   43.6726   21.5948   35.0157 H   0  0  0  0  0  0  0  0  0  0  0  0
   44.6154   22.2044   36.4509 H   0  0  0  0  0  0  0  0  0  0  0  0
   45.9157   20.6056   35.1661 H   0  0  0  0  0  0  0  0  0  0  0  0
   45.5022   19.9769   36.8148 H   0  0  0  0  0  0  0  0  0  0  0  0
   45.1397   18.2566   35.3915 H   0  0  0  0  0  0  0  0  0  0  0  0
   42.4390   19.0490   35.0955 H   0  0  0  0  0  0  0  0  0  0  0  0
   43.1945   17.7020   36.0599 H   0  0  0  0  0  0  0  0  0  0  0  0
   43.7638   19.2634   37.8219 H   0  0  0  0  0  0  0  0  0  0  0  0
   41.9825   19.2648   37.4693 H   0  0  0  0  0  0  0  0  0  0  0  0
  1  2  1  0
  2  3  2  0
  3  4  1  0
  5  4  2  0
  6  5  1  0
  7  6  2  0
  7  2  1  0
  8  1  1  0
  9  1  1  0
  9 10  1  0
 10 15  1  0
 11 10  1  0
 12 11  1  0
 13 14  1  0
 13 12  1  0
 14 15  1  0
  1 16  1  1
  3 17  1  0
  4 18  1  0
  6 19  1  0
  8 20  1  0
  8 21  1  0
  8 22  1  0
  9 23  1  0
  9 24  1  0
 11 25  1  0
 11 26  1  0
 12 27  1  0
 12 28  1  0
 13 29  1  0
 14 30  1  0
 14 31  1  0
 15 32  1  0
 15 33  1  0
M  ISO  8  16   8  17  14  18  14  19  14  20   8  21   8  22   8  23   8
M  ISO  8  24   8  25  13  26  13  27  13  28  13  29   5  30  13  31  13
M  ISO  2  32  13  33  13
M  END
>  <minimizedAffinity>  (1) 
-3.33974242

>  <minimizedRMSD>  (1) 
1.5132817

$$$$
