
     RDKit          3D

 20 20  0  0  1  0  0  0  0  0999 V2000
   41.3710   22.6190   37.2460 C   0  0  2  0  0  0  0  0  0  0  0  0
   39.8730   22.7280   37.1880 C   0  0  0  0  0  0  0  0  0  0  0  0
   39.1720   23.2670   38.2750 C   0  0  0  0  0  0  0  0  0  0  0  0
   37.7880   23.3480   38.1700 C   0  0  0  0  0  0  0  0  0  0  0  0
   37.1870   22.9000   37.0160 N   0  0  0  0  0  0  0  0  0  0  0  0
   37.8980   22.3920   36.0030 C   0  0  0  0  0  0  0  0  0  0  0  0
   39.2390   22.3010   36.0790 N   0  0  0  0  0  0  0  0  0  0  0  0
   41.8620   23.2900   35.9880 C   0  0  0  0  0  0  0  0  0  0  0  0
   41.7600   21.1710   37.3050 C   0  0  0  0  0  0  0  0  0  0  0  0
   42.9430   20.8410   35.9500 S   0  0  0  0  0  0  0  0  0  0  0  0
   41.8100   23.0961   38.1346 H   0  0  0  0  0  0  0  0  0  0  0  0
   39.6970   23.6131   39.1776 H   0  0  0  0  0  0  0  0  0  0  0  0
   37.1859   23.7617   38.9924 H   0  0  0  0  0  0  0  0  0  0  0  0
   37.3805   22.0444   35.0967 H   0  0  0  0  0  0  0  0  0  0  0  0
   42.4923   24.1514   36.2539 H   0  0  0  0  0  0  0  0  0  0  0  0
   42.4507   22.5737   35.3962 H   0  0  0  0  0  0  0  0  0  0  0  0
   41.0011   23.6344   35.3962 H   0  0  0  0  0  0  0  0  0  0  0  0
   42.2328   20.9517   38.2737 H   0  0  0  0  0  0  0  0  0  0  0  0
   40.8700   20.5339   37.1957 H   0  0  0  0  0  0  0  0  0  0  0  0
   44.1602   20.5014   36.4791 H   0  0  0  0  0  0  0  0  0  0  0  0
  1  9  1  0
  2  1  1  0
  2  3  2  0
  4  3  1  0
  5  4  2  0
  6  7  2  0
  6  5  1  0
  7  2  1  0
  8  1  1  0
 10  9  1  0
  1 11  1  1
  3 12  1  0
  4 13  1  0
  6 14  1  0
  8 15  1  0
  8 16  1  0
  8 17  1  0
  9 18  1  0
  9 19  1  0
 10 20  1  0
M  ISO  8  11   8  12  14  13  14  14  14  15   8  16   8  17   8  18   8
M  ISO  2  19   8  20  11
M  END
>  <minimizedAffinity>  (1) 
-3.11917162

>  <minimizedRMSD>  (1) 
0.490693927

$$$$
