
     RDKit          3D

 38 40  0  0  1  0  0  0  0  0999 V2000
   37.9290   24.7950   33.8860 N   0  0  0  0  0  0  0  0  0  0  0  0
   37.7580   23.5630   33.1400 C   0  0  0  0  0  0  0  0  0  0  0  0
   36.8910   23.9210   31.9640 C   0  0  0  0  0  0  0  0  0  0  0  0
   36.5570   25.3970   32.2040 C   0  0  0  0  0  0  0  0  0  0  0  0
   37.9020   25.7740   32.8880 C   0  0  1  0  0  0  0  0  0  0  0  0
   37.7450   27.2080   33.1890 C   0  0  0  0  0  0  0  0  0  0  0  0
   37.0710   28.0820   32.2070 C   0  0  0  0  0  0  0  0  0  0  0  0
   36.1820   29.0410   32.9870 C   0  0  0  0  0  0  0  0  0  0  0  0
   36.1640   28.6100   34.4100 C   0  0  0  0  0  0  0  0  0  0  0  0
   36.7720   27.2520   34.3840 C   0  0  0  0  0  0  0  0  0  0  0  0
   39.1830   24.7970   34.5820 C   0  0  0  0  0  0  0  0  0  0  0  0
   37.9670   24.2140   38.1060 C   0  0  0  0  0  0  0  0  0  0  0  0
   38.0400   24.7560   36.8200 C   0  0  0  0  0  0  0  0  0  0  0  0
   39.0500   24.2780   35.9740 C   0  0  0  0  0  0  0  0  0  0  0  0
   39.9100   23.3110   36.4420 N   0  0  0  0  0  0  0  0  0  0  0  0
   39.8010   22.8180   37.6890 C   0  0  0  0  0  0  0  0  0  0  0  0
   38.8340   23.2690   38.5160 N   0  0  0  0  0  0  0  0  0  0  0  0
   38.7318   23.1827   32.7978 H   0  0  0  0  0  0  0  0  0  0  0  0
   37.3035   22.7731   33.7561 H   0  0  0  0  0  0  0  0  0  0  0  0
   35.9775   23.3085   31.9478 H   0  0  0  0  0  0  0  0  0  0  0  0
   37.3852   23.7446   30.9972 H   0  0  0  0  0  0  0  0  0  0  0  0
   36.3891   25.9500   31.2681 H   0  0  0  0  0  0  0  0  0  0  0  0
   35.6363   25.6129   32.7659 H   0  0  0  0  0  0  0  0  0  0  0  0
   38.8846   25.7425   32.3944 H   0  0  0  0  0  0  0  0  0  0  0  0
   38.7759   27.5790   33.2876 H   0  0  0  0  0  0  0  0  0  0  0  0
   36.4603   27.4764   31.5213 H   0  0  0  0  0  0  0  0  0  0  0  0
   37.8092   28.6359   31.6085 H   0  0  0  0  0  0  0  0  0  0  0  0
   36.5827   30.0628   32.9131 H   0  0  0  0  0  0  0  0  0  0  0  0
   35.1619   29.0310   32.5755 H   0  0  0  0  0  0  0  0  0  0  0  0
   36.7602   29.2932   35.0328 H   0  0  0  0  0  0  0  0  0  0  0  0
   35.1513   28.6117   34.8395 H   0  0  0  0  0  0  0  0  0  0  0  0
   35.9878   26.4908   34.2591 H   0  0  0  0  0  0  0  0  0  0  0  0
   37.3018   27.0445   35.3254 H   0  0  0  0  0  0  0  0  0  0  0  0
   39.8949   24.1631   34.0331 H   0  0  0  0  0  0  0  0  0  0  0  0
   39.5382   25.8365   34.6393 H   0  0  0  0  0  0  0  0  0  0  0  0
   37.1864   24.5661   38.7964 H   0  0  0  0  0  0  0  0  0  0  0  0
   37.3320   25.5281   36.4846 H   0  0  0  0  0  0  0  0  0  0  0  0
   40.5022   22.0448   38.0359 H   0  0  0  0  0  0  0  0  0  0  0  0
  1 11  1  0
  2  1  1  0
  3  4  1  0
  3  2  1  0
  4  5  1  0
  5  6  1  0
  5  1  1  0
  6 10  1  0
  7  8  1  0
  7  6  1  0
  8  9  1  0
 10  9  1  0
 11 14  1  0
 12 17  2  0
 13 12  1  0
 14 15  1  0
 14 13  2  0
 15 16  2  0
 16 17  1  0
  2 18  1  0
  2 19  1  0
  3 20  1  0
  3 21  1  0
  4 22  1  0
  4 23  1  0
  5 24  1  6
  6 25  1  0
  7 26  1  0
  7 27  1  0
  8 28  1  0
  8 29  1  0
  9 30  1  0
  9 31  1  0
 10 32  1  0
 10 33  1  0
 11 34  1  0
 11 35  1  0
 12 36  1  0
 13 37  1  0
 16 38  1  0
M  ISO  8  18  13  19  13  20  13  21  13  22  13  23  13  24  13  25  13
M  ISO  8  26  13  27  13  28  13  29  13  30  13  31  13  32  13  33  13
M  ISO  5  34   8  35   8  36  14  37  14  38  14
M  END
>  <minimizedAffinity>  (1) 
-4.70023537

>  <minimizedRMSD>  (1) 
2.06816959

$$$$
