
     RDKit          3D

 25 26  0  0  0  0  0  0  0  0999 V2000
   37.8480   24.0580   38.0490 C   0  0  0  0  0  0  0  0  0  0  0  0
   37.8020   24.5330   36.7370 C   0  0  0  0  0  0  0  0  0  0  0  0
   38.8060   24.1330   35.8450 C   0  0  0  0  0  0  0  0  0  0  0  0
   39.7930   23.2900   36.3040 N   0  0  0  0  0  0  0  0  0  0  0  0
   39.7930   22.8580   37.5890 C   0  0  0  0  0  0  0  0  0  0  0  0
   38.8280   23.2420   38.4480 N   0  0  0  0  0  0  0  0  0  0  0  0
   38.8090   24.6060   34.4320 C   0  0  0  0  0  0  0  0  0  0  0  0
   37.7180   25.5090   34.1530 N   0  0  0  0  0  0  0  0  0  0  0  0
   37.1360   25.3330   32.8640 C   0  0  0  0  0  0  0  0  0  0  0  0
   36.6640   26.7090   32.4380 C   0  0  0  0  0  0  0  0  0  0  0  0
   37.0570   27.6200   33.6110 C   0  0  0  0  0  0  0  0  0  0  0  0
   38.2900   26.8350   34.0750 C   0  0  0  0  0  0  0  0  0  0  0  0
   37.0676   24.3593   38.7633 H   0  0  0  0  0  0  0  0  0  0  0  0
   36.9956   25.2063   36.4107 H   0  0  0  0  0  0  0  0  0  0  0  0
   40.5913   22.1850   37.9352 H   0  0  0  0  0  0  0  0  0  0  0  0
   39.7579   25.1266   34.2355 H   0  0  0  0  0  0  0  0  0  0  0  0
   38.6910   23.7258   33.7828 H   0  0  0  0  0  0  0  0  0  0  0  0
   37.8831   24.9469   32.1549 H   0  0  0  0  0  0  0  0  0  0  0  0
   36.3089   24.6081   32.8866 H   0  0  0  0  0  0  0  0  0  0  0  0
   37.1673   27.0252   31.5124 H   0  0  0  0  0  0  0  0  0  0  0  0
   35.5854   26.7378   32.2242 H   0  0  0  0  0  0  0  0  0  0  0  0
   37.3093   28.6391   33.2826 H   0  0  0  0  0  0  0  0  0  0  0  0
   36.2805   27.7982   34.3694 H   0  0  0  0  0  0  0  0  0  0  0  0
   39.1080   26.8858   33.3413 H   0  0  0  0  0  0  0  0  0  0  0  0
   38.7526   27.1991   35.0042 H   0  0  0  0  0  0  0  0  0  0  0  0
  1  6  2  0
  2  1  1  0
  3  4  1  0
  3  2  2  0
  4  5  2  0
  5  6  1  0
  7  3  1  0
  8  7  1  0
  9  8  1  0
 10  9  1  0
 10 11  1  0
 11 12  1  0
 12  8  1  0
  1 13  1  0
  2 14  1  0
  5 15  1  0
  7 16  1  0
  7 17  1  0
  9 18  1  0
  9 19  1  0
 10 20  1  0
 10 21  1  0
 11 22  1  0
 11 23  1  0
 12 24  1  0
 12 25  1  0
M  ISO  8  13  14  14  14  15  14  16   8  17   8  18  13  19  13  20  13
M  ISO  5  21  13  22  13  23  13  24  13  25  13
M  END
>  <minimizedAffinity>  (1) 
-3.4934032

>  <minimizedRMSD>  (1) 
5.33114767

$$$$
