
     RDKit          3D

 30 32  0  0  1  0  0  0  0  0999 V2000
   37.5950   25.4650   34.5580 N   0  0  0  0  0  0  0  0  0  0  0  0
   37.2210   25.7580   33.2220 C   0  0  0  0  0  0  0  0  0  0  0  0
   36.9950   27.2540   33.1770 C   0  0  0  0  0  0  0  0  0  0  0  0
   37.2870   27.7260   34.5980 C   0  0  0  0  0  0  0  0  0  0  0  0
   38.2880   26.6570   34.9970 C   0  0  2  0  0  0  0  0  0  0  0  0
   39.6020   26.8620   34.3590 C   0  0  0  0  0  0  0  0  0  0  0  0
   40.8290   26.7050   34.8570 N   0  0  0  0  0  0  0  0  0  0  0  0
   41.7080   26.9870   33.9730 O   0  0  0  0  0  0  0  0  0  0  0  0
   41.1130   27.3440   32.8500 C   0  0  0  0  0  0  0  0  0  0  0  0
   39.7930   27.2720   33.0720 N   0  0  0  0  0  0  0  0  0  0  0  0
   38.4960   24.3600   34.7050 C   0  0  0  0  0  0  0  0  0  0  0  0
   37.8320   23.7190   38.3730 C   0  0  0  0  0  0  0  0  0  0  0  0
   37.6220   24.1490   37.0670 C   0  0  0  0  0  0  0  0  0  0  0  0
   38.6460   23.9290   36.1220 C   0  0  0  0  0  0  0  0  0  0  0  0
   39.7900   23.3030   36.5500 N   0  0  0  0  0  0  0  0  0  0  0  0
   39.9400   22.9060   37.8360 C   0  0  0  0  0  0  0  0  0  0  0  0
   38.9630   23.1160   38.7320 N   0  0  0  0  0  0  0  0  0  0  0  0
   38.0241   25.4706   32.5274 H   0  0  0  0  0  0  0  0  0  0  0  0
   36.3200   25.2027   32.9222 H   0  0  0  0  0  0  0  0  0  0  0  0
   37.6808   27.7297   32.4604 H   0  0  0  0  0  0  0  0  0  0  0  0
   35.9774   27.5142   32.8501 H   0  0  0  0  0  0  0  0  0  0  0  0
   37.7287   28.7332   34.6163 H   0  0  0  0  0  0  0  0  0  0  0  0
   36.4104   27.8248   35.2552 H   0  0  0  0  0  0  0  0  0  0  0  0
   38.5526   26.6362   36.0645 H   0  0  0  0  0  0  0  0  0  0  0  0
   41.6054   27.6429   31.9129 H   0  0  0  0  0  0  0  0  0  0  0  0
   38.1131   23.5125   34.1175 H   0  0  0  0  0  0  0  0  0  0  0  0
   39.4845   24.6862   34.3493 H   0  0  0  0  0  0  0  0  0  0  0  0
   37.0462   23.8808   39.1256 H   0  0  0  0  0  0  0  0  0  0  0  0
   36.6841   24.6465   36.7792 H   0  0  0  0  0  0  0  0  0  0  0  0
   40.8695   22.4077   38.1486 H   0  0  0  0  0  0  0  0  0  0  0  0
  1 11  1  0
  1  5  1  0
  2  1  1  0
  3  2  1  0
  3  4  1  0
  4  5  1  0
  6  7  2  0
  6  5  1  0
  8  7  1  0
  9 10  2  0
  9  8  1  0
 10  6  1  0
 11 14  1  0
 12 17  2  0
 13 12  1  0
 14 15  1  0
 14 13  2  0
 15 16  2  0
 16 17  1  0
  2 18  1  0
  2 19  1  0
  3 20  1  0
  3 21  1  0
  4 22  1  0
  4 23  1  0
  5 24  1  1
  9 25  1  0
 11 26  1  0
 11 27  1  0
 12 28  1  0
 13 29  1  0
 16 30  1  0
M  ISO  8  18  13  19  13  20  13  21  13  22  13  23  13  24  13  25  14
M  ISO  5  26   8  27   8  28  14  29  14  30  14
M  END
>  <minimizedAffinity>  (1) 
-4.39547157

>  <minimizedRMSD>  (1) 
1.05003035

$$$$
