
     RDKit          3D

 28 29  0  0  1  0  0  0  0  0999 V2000
   38.2550   25.3030   34.2190 N   0  0  0  0  0  0  0  0  0  0  0  0
   37.3400   25.1400   33.1210 C   0  0  0  0  0  0  0  0  0  0  0  0
   37.3690   26.4500   32.3700 C   0  0  0  0  0  0  0  0  0  0  0  0
   38.4090   27.2740   33.1290 C   0  0  0  0  0  0  0  0  0  0  0  0
   39.2700   26.1010   33.6420 C   0  0  1  0  0  0  0  0  0  0  0  0
   40.3470   26.6300   34.4930 C   0  0  0  0  0  0  0  0  0  0  0  0
   41.2600   25.7360   34.9580 F   0  0  0  0  0  0  0  0  0  0  0  0
   39.7390   27.1700   35.6260 F   0  0  0  0  0  0  0  0  0  0  0  0
   40.9390   27.7210   33.8690 F   0  0  0  0  0  0  0  0  0  0  0  0
   38.8820   24.0570   34.6230 C   0  0  0  0  0  0  0  0  0  0  0  0
   37.9250   24.3020   38.2590 C   0  0  0  0  0  0  0  0  0  0  0  0
   37.8980   24.5330   36.8850 C   0  0  0  0  0  0  0  0  0  0  0  0
   38.8380   23.8790   36.0970 C   0  0  0  0  0  0  0  0  0  0  0  0
   39.7520   23.0340   36.7060 N   0  0  0  0  0  0  0  0  0  0  0  0
   39.7370   22.8430   38.0380 C   0  0  0  0  0  0  0  0  0  0  0  0
   38.8200   23.4810   38.8100 N   0  0  0  0  0  0  0  0  0  0  0  0
   37.6657   24.3163   32.4688 H   0  0  0  0  0  0  0  0  0  0  0  0
   36.3263   24.8930   33.4693 H   0  0  0  0  0  0  0  0  0  0  0  0
   37.6753   26.2971   31.3246 H   0  0  0  0  0  0  0  0  0  0  0  0
   36.3849   26.9394   32.3245 H   0  0  0  0  0  0  0  0  0  0  0  0
   38.9727   27.9475   32.4667 H   0  0  0  0  0  0  0  0  0  0  0  0
   38.0191   27.9607   33.8947 H   0  0  0  0  0  0  0  0  0  0  0  0
   39.8587   25.4994   32.9338 H   0  0  0  0  0  0  0  0  0  0  0  0
   38.3526   23.2192   34.1457 H   0  0  0  0  0  0  0  0  0  0  0  0
   39.9361   24.0833   34.3096 H   0  0  0  0  0  0  0  0  0  0  0  0
   37.1915   24.8083   38.9037 H   0  0  0  0  0  0  0  0  0  0  0  0
   37.1563   25.2114   36.4381 H   0  0  0  0  0  0  0  0  0  0  0  0
   40.4702   22.1676   38.5031 H   0  0  0  0  0  0  0  0  0  0  0  0
  1 10  1  0
  2  1  1  0
  3  2  1  0
  3  4  1  0
  4  5  1  0
  5  1  1  0
  5  6  1  0
  6  7  1  0
  6  8  1  0
  9  6  1  0
 10 13  1  0
 11 16  2  0
 12 11  1  0
 13 14  1  0
 13 12  2  0
 14 15  2  0
 15 16  1  0
  2 17  1  0
  2 18  1  0
  3 19  1  0
  3 20  1  0
  4 21  1  0
  4 22  1  0
  5 23  1  6
 10 24  1  0
 10 25  1  0
 11 26  1  0
 12 27  1  0
 15 28  1  0
M  ISO  8  17  13  18  13  19  13  20  13  21  13  22  13  23  13  24   8
M  ISO  4  25   8  26  14  27  14  28  14
M  END
>  <minimizedAffinity>  (1) 
-4.35597324

>  <minimizedRMSD>  (1) 
1.1878072

$$$$
