
     RDKit          3D

 37 39  0  0  1  0  0  0  0  0999 V2000
   36.4100   25.6550   32.0560 N   0  0  0  0  0  0  0  0  0  0  0  0
   35.7960   26.4910   31.0530 C   0  0  0  0  0  0  0  0  0  0  0  0
   35.8310   27.8770   31.6380 C   0  0  0  0  0  0  0  0  0  0  0  0
   36.5180   27.7080   32.9760 C   0  0  0  0  0  0  0  0  0  0  0  0
   37.4120   26.4940   32.6000 C   0  0  1  0  0  0  0  0  0  0  0  0
   37.9670   26.1520   33.8630 N   0  0  0  0  0  0  0  0  0  0  0  0
   39.3490   25.9460   33.9810 C   0  0  0  0  0  0  0  0  0  0  0  0
   39.8520   26.8290   35.1340 C   0  0  0  0  0  0  0  0  0  0  0  0
   38.6160   27.1920   35.8970 C   0  0  0  0  0  0  0  0  0  0  0  0
   37.5660   27.1810   34.8040 C   0  0  0  0  0  0  0  0  0  0  0  0
   37.0360   24.5060   31.4580 C   0  0  0  0  0  0  0  0  0  0  0  0
   35.1710   21.3760   32.4090 C   0  0  0  0  0  0  0  0  0  0  0  0
   35.4760   22.5540   31.7470 C   0  0  0  0  0  0  0  0  0  0  0  0
   36.6280   23.2380   32.1260 C   0  0  0  0  0  0  0  0  0  0  0  0
   37.4100   22.7130   33.1430 N   0  0  0  0  0  0  0  0  0  0  0  0
   37.0730   21.5650   33.7600 C   0  0  0  0  0  0  0  0  0  0  0  0
   35.9540   20.8990   33.3910 N   0  0  0  0  0  0  0  0  0  0  0  0
   34.7591   26.1748   30.8660 H   0  0  0  0  0  0  0  0  0  0  0  0
   36.3182   26.4337   30.0865 H   0  0  0  0  0  0  0  0  0  0  0  0
   36.4033   28.5577   30.9906 H   0  0  0  0  0  0  0  0  0  0  0  0
   34.8265   28.3143   31.7365 H   0  0  0  0  0  0  0  0  0  0  0  0
   37.1099   28.5918   33.2563 H   0  0  0  0  0  0  0  0  0  0  0  0
   35.8590   27.5743   33.8465 H   0  0  0  0  0  0  0  0  0  0  0  0
   38.2551   26.5431   31.8952 H   0  0  0  0  0  0  0  0  0  0  0  0
   39.5533   24.8879   34.2018 H   0  0  0  0  0  0  0  0  0  0  0  0
   39.8606   26.2063   33.0426 H   0  0  0  0  0  0  0  0  0  0  0  0
   40.5533   26.2719   35.7726 H   0  0  0  0  0  0  0  0  0  0  0  0
   40.3964   27.7148   34.7748 H   0  0  0  0  0  0  0  0  0  0  0  0
   38.3923   26.4478   36.6755 H   0  0  0  0  0  0  0  0  0  0  0  0
   38.6889   28.1478   36.4367 H   0  0  0  0  0  0  0  0  0  0  0  0
   37.5269   28.1599   34.3038 H   0  0  0  0  0  0  0  0  0  0  0  0
   36.5652   26.9795   35.2136 H   0  0  0  0  0  0  0  0  0  0  0  0
   36.7491   24.4570   30.3972 H   0  0  0  0  0  0  0  0  0  0  0  0
   38.1248   24.6147   31.5707 H   0  0  0  0  0  0  0  0  0  0  0  0
   34.2668   20.8182   32.1240 H   0  0  0  0  0  0  0  0  0  0  0  0
   34.8273   22.9376   30.9457 H   0  0  0  0  0  0  0  0  0  0  0  0
   37.7081   21.1675   34.5654 H   0  0  0  0  0  0  0  0  0  0  0  0
  1  5  1  0
  2  3  1  0
  2  1  1  0
  3  4  1  0
  5  4  1  0
  5  6  1  0
  6  7  1  0
  6 10  1  0
  7  8  1  0
  8  9  1  0
 10  9  1  0
 11  1  1  0
 11 14  1  0
 12 17  2  0
 13 14  2  0
 13 12  1  0
 14 15  1  0
 15 16  2  0
 17 16  1  0
  2 18  1  0
  2 19  1  0
  3 20  1  0
  3 21  1  0
  4 22  1  0
  4 23  1  0
  5 24  1  6
  7 25  1  0
  7 26  1  0
  8 27  1  0
  8 28  1  0
  9 29  1  0
  9 30  1  0
 10 31  1  0
 10 32  1  0
 11 33  1  0
 11 34  1  0
 12 35  1  0
 13 36  1  0
 16 37  1  0
M  ISO  8  18  13  19  13  20  13  21  13  22  13  23  13  24  13  25  13
M  ISO  8  26  13  27  13  28  13  29  13  30  13  31  13  32  13  33   8
M  ISO  4  34   8  35  14  36  14  37  14
M  END
>  <minimizedAffinity>  (1) 
-4.53760481

>  <minimizedRMSD>  (1) 
3.8009789

$$$$
