
     RDKit          3D

 40 42  0  0  1  0  0  0  0  0999 V2000
   36.8800   24.9800   32.6550 N   0  0  0  0  0  0  0  0  0  0  0  0
   36.6050   23.7150   32.0100 C   0  0  0  0  0  0  0  0  0  0  0  0
   35.5590   24.0390   30.9600 C   0  0  0  0  0  0  0  0  0  0  0  0
   35.3100   25.5580   31.1390 C   0  0  0  0  0  0  0  0  0  0  0  0
   36.7240   25.9010   31.5980 C   0  0  1  0  0  0  0  0  0  0  0  0
   36.9890   27.2590   31.7580 N   0  0  0  0  0  0  0  0  0  0  0  0
   36.6380   27.9350   30.5070 C   0  0  0  0  0  0  0  0  0  0  0  0
   37.0810   29.3600   30.4730 C   0  0  0  0  0  0  0  0  0  0  0  0
   36.2330   30.1040   31.4880 C   0  0  0  0  0  0  0  0  0  0  0  0
   35.4940   29.1440   32.3620 C   0  0  0  0  0  0  0  0  0  0  0  0
   36.2870   27.9460   32.8050 C   0  0  0  0  0  0  0  0  0  0  0  0
   38.2610   25.0650   33.1040 C   0  0  0  0  0  0  0  0  0  0  0  0
   38.0600   24.8630   36.8610 C   0  0  0  0  0  0  0  0  0  0  0  0
   37.8860   25.3360   35.5550 C   0  0  0  0  0  0  0  0  0  0  0  0
   38.4230   24.6040   34.5010 C   0  0  0  0  0  0  0  0  0  0  0  0
   39.1090   23.4350   34.7910 N   0  0  0  0  0  0  0  0  0  0  0  0
   39.2470   23.0290   36.0730 C   0  0  0  0  0  0  0  0  0  0  0  0
   38.7260   23.7390   37.0930 N   0  0  0  0  0  0  0  0  0  0  0  0
   37.5148   23.3129   31.5404 H   0  0  0  0  0  0  0  0  0  0  0  0
   36.2585   22.9511   32.7216 H   0  0  0  0  0  0  0  0  0  0  0  0
   34.6361   23.4674   31.1375 H   0  0  0  0  0  0  0  0  0  0  0  0
   35.8850   23.7794   29.9420 H   0  0  0  0  0  0  0  0  0  0  0  0
   35.0364   26.0572   30.1978 H   0  0  0  0  0  0  0  0  0  0  0  0
   34.4827   25.8555   31.8002 H   0  0  0  0  0  0  0  0  0  0  0  0
   37.5362   25.7748   30.8670 H   0  0  0  0  0  0  0  0  0  0  0  0
   37.1145   27.3992   29.6728 H   0  0  0  0  0  0  0  0  0  0  0  0
   35.5411   27.9281   30.4244 H   0  0  0  0  0  0  0  0  0  0  0  0
   38.1452   29.4328   30.7418 H   0  0  0  0  0  0  0  0  0  0  0  0
   36.9608   29.7881   29.4669 H   0  0  0  0  0  0  0  0  0  0  0  0
   36.8851   30.7326   32.1122 H   0  0  0  0  0  0  0  0  0  0  0  0
   35.5033   30.7277   30.9507 H   0  0  0  0  0  0  0  0  0  0  0  0
   35.1639   29.6857   33.2607 H   0  0  0  0  0  0  0  0  0  0  0  0
   34.6628   28.7546   31.7558 H   0  0  0  0  0  0  0  0  0  0  0  0
   35.5935   27.2331   33.2749 H   0  0  0  0  0  0  0  0  0  0  0  0
   37.0574   28.3258   33.4922 H   0  0  0  0  0  0  0  0  0  0  0  0
   38.8856   24.4392   32.4496 H   0  0  0  0  0  0  0  0  0  0  0  0
   38.5669   26.1206   33.0587 H   0  0  0  0  0  0  0  0  0  0  0  0
   37.6397   25.4298   37.7049 H   0  0  0  0  0  0  0  0  0  0  0  0
   37.3350   26.2690   35.3658 H   0  0  0  0  0  0  0  0  0  0  0  0
   39.7957   22.1002   36.2879 H   0  0  0  0  0  0  0  0  0  0  0  0
  1 12  1  0
  2  1  1  0
  3  4  1  0
  3  2  1  0
  4  5  1  0
  5  6  1  0
  5  1  1  0
  6 11  1  0
  7  6  1  0
  8  7  1  0
  8  9  1  0
  9 10  1  0
 10 11  1  0
 12 15  1  0
 13 18  2  0
 14 13  1  0
 15 16  1  0
 15 14  2  0
 16 17  2  0
 17 18  1  0
  2 19  1  0
  2 20  1  0
  3 21  1  0
  3 22  1  0
  4 23  1  0
  4 24  1  0
  5 25  1  6
  7 26  1  0
  7 27  1  0
  8 28  1  0
  8 29  1  0
  9 30  1  0
  9 31  1  0
 10 32  1  0
 10 33  1  0
 11 34  1  0
 11 35  1  0
 12 36  1  0
 12 37  1  0
 13 38  1  0
 14 39  1  0
 17 40  1  0
M  ISO  8  19  13  20  13  21  13  22  13  23  13  24  13  25  13  26  13
M  ISO  8  27  13  28  13  29  13  30  13  31  13  32  13  33  13  34  13
M  ISO  6  35  13  36   8  37   8  38  14  39  14  40  14
M  END
>  <minimizedAffinity>  (1) 
-4.40832281

>  <minimizedRMSD>  (1) 
3.87768912

$$$$
