
     RDKit          3D

 33 35  0  0  1  0  0  0  0  0999 V2000
   37.6890   23.6260   33.7630 N   0  0  0  0  0  0  0  0  0  0  0  0
   37.6280   22.1940   33.5700 C   0  0  0  0  0  0  0  0  0  0  0  0
   36.8300   22.0080   32.3000 C   0  0  0  0  0  0  0  0  0  0  0  0
   36.4500   23.4460   31.9010 C   0  0  0  0  0  0  0  0  0  0  0  0
   37.7470   24.1110   32.4400 C   0  0  1  0  0  0  0  0  0  0  0  0
   37.7600   25.5300   32.1680 C   0  0  0  0  0  0  0  0  0  0  0  0
   38.6050   26.3330   31.4470 C   0  0  0  0  0  0  0  0  0  0  0  0
   38.4720   27.6910   31.2740 C   0  0  0  0  0  0  0  0  0  0  0  0
   37.4450   28.3080   31.8440 N   0  0  0  0  0  0  0  0  0  0  0  0
   36.5790   27.5660   32.5680 C   0  0  0  0  0  0  0  0  0  0  0  0
   36.7340   26.2530   32.7170 N   0  0  0  0  0  0  0  0  0  0  0  0
   38.9280   24.0220   34.4150 C   0  0  0  0  0  0  0  0  0  0  0  0
   37.8840   24.1090   38.0390 C   0  0  0  0  0  0  0  0  0  0  0  0
   37.9050   24.3390   36.6620 C   0  0  0  0  0  0  0  0  0  0  0  0
   38.9050   23.7810   35.8730 C   0  0  0  0  0  0  0  0  0  0  0  0
   39.8430   23.0140   36.5030 N   0  0  0  0  0  0  0  0  0  0  0  0
   39.8140   22.7970   37.8310 C   0  0  0  0  0  0  0  0  0  0  0  0
   38.8420   23.3420   38.5890 N   0  0  0  0  0  0  0  0  0  0  0  0
   38.6388   21.7750   33.4571 H   0  0  0  0  0  0  0  0  0  0  0  0
   37.1694   21.6792   34.4271 H   0  0  0  0  0  0  0  0  0  0  0  0
   37.4399   21.5312   31.5186 H   0  0  0  0  0  0  0  0  0  0  0  0
   35.9550   21.3553   32.4353 H   0  0  0  0  0  0  0  0  0  0  0  0
   36.3296   23.5680   30.8144 H   0  0  0  0  0  0  0  0  0  0  0  0
   35.4924   23.8352   32.2772 H   0  0  0  0  0  0  0  0  0  0  0  0
   38.7212   23.8747   31.9870 H   0  0  0  0  0  0  0  0  0  0  0  0
   39.4661   25.8483   30.9637 H   0  0  0  0  0  0  0  0  0  0  0  0
   39.2026   28.2543   30.6750 H   0  0  0  0  0  0  0  0  0  0  0  0
   35.7218   28.0611   33.0477 H   0  0  0  0  0  0  0  0  0  0  0  0
   39.7566   23.4470   33.9759 H   0  0  0  0  0  0  0  0  0  0  0  0
   39.0565   25.1031   34.2579 H   0  0  0  0  0  0  0  0  0  0  0  0
   37.0944   24.5493   38.6656 H   0  0  0  0  0  0  0  0  0  0  0  0
   37.1272   24.9643   36.1993 H   0  0  0  0  0  0  0  0  0  0  0  0
   40.5877   22.1715   38.3002 H   0  0  0  0  0  0  0  0  0  0  0  0
  1 12  1  0
  2  1  1  0
  3  2  1  0
  4  3  1  0
  4  5  1  0
  5  1  1  0
  6  5  1  0
  6 11  1  0
  7  6  2  0
  8  7  1  0
  8  9  2  0
  9 10  1  0
 10 11  2  0
 12 15  1  0
 13 18  2  0
 14 13  1  0
 15 16  1  0
 15 14  2  0
 16 17  2  0
 17 18  1  0
  2 19  1  0
  2 20  1  0
  3 21  1  0
  3 22  1  0
  4 23  1  0
  4 24  1  0
  5 25  1  6
  7 26  1  0
  8 27  1  0
 10 28  1  0
 12 29  1  0
 12 30  1  0
 13 31  1  0
 14 32  1  0
 17 33  1  0
M  ISO  8  19  13  20  13  21  13  22  13  23  13  24  13  25  13  26  14
M  ISO  7  27  14  28  14  29   8  30   8  31  14  32  14  33  14
M  END
>  <minimizedAffinity>  (1) 
-4.33513641

>  <minimizedRMSD>  (1) 
3.60871506

$$$$
