
     RDKit          3D

 28 29  0  0  1  0  0  0  0  0999 V2000
   37.5830   25.6220   34.6130 N   0  0  0  0  0  0  0  0  0  0  0  0
   37.1230   25.9240   33.2940 C   0  0  0  0  0  0  0  0  0  0  0  0
   36.8640   27.4140   33.2780 C   0  0  0  0  0  0  0  0  0  0  0  0
   37.2410   27.8740   34.6920 C   0  0  0  0  0  0  0  0  0  0  0  0
   38.2870   26.8020   35.0000 C   0  0  2  0  0  0  0  0  0  0  0  0
   38.4690   24.5020   34.6890 C   0  0  0  0  0  0  0  0  0  0  0  0
   37.8870   23.6920   38.3250 C   0  0  0  0  0  0  0  0  0  0  0  0
   37.6510   24.1870   37.0550 C   0  0  0  0  0  0  0  0  0  0  0  0
   38.6380   23.9970   36.0930 C   0  0  0  0  0  0  0  0  0  0  0  0
   39.8040   23.3340   36.4250 N   0  0  0  0  0  0  0  0  0  0  0  0
   39.9790   22.8680   37.6920 C   0  0  0  0  0  0  0  0  0  0  0  0
   39.0170   23.0530   38.6280 N   0  0  0  0  0  0  0  0  0  0  0  0
   39.5450   27.0530   34.2670 C   0  0  0  0  0  0  0  0  0  0  0  0
   39.8920   27.2700   33.0750 O   0  0  0  0  0  0  0  0  0  0  0  0
   40.6320   27.0430   35.1620 O   0  0  0  0  0  0  0  0  0  0  0  0
   37.8905   25.6608   32.5512 H   0  0  0  0  0  0  0  0  0  0  0  0
   36.2173   25.3533   33.0409 H   0  0  0  0  0  0  0  0  0  0  0  0
   37.4926   27.9116   32.5248 H   0  0  0  0  0  0  0  0  0  0  0  0
   35.8238   27.6591   33.0174 H   0  0  0  0  0  0  0  0  0  0  0  0
   37.6696   28.8870   34.6990 H   0  0  0  0  0  0  0  0  0  0  0  0
   36.4102   27.9543   35.4084 H   0  0  0  0  0  0  0  0  0  0  0  0
   38.6373   26.7543   36.0416 H   0  0  0  0  0  0  0  0  0  0  0  0
   38.0643   23.6892   34.0680 H   0  0  0  0  0  0  0  0  0  0  0  0
   39.4556   24.8313   34.3311 H   0  0  0  0  0  0  0  0  0  0  0  0
   37.1230   23.8291   39.1044 H   0  0  0  0  0  0  0  0  0  0  0  0
   36.7153   24.7127   36.8140 H   0  0  0  0  0  0  0  0  0  0  0  0
   40.9060   22.3386   37.9572 H   0  0  0  0  0  0  0  0  0  0  0  0
   41.5507   27.1966   34.8267 H   0  0  0  0  0  0  0  0  0  0  0  0
  1  6  1  0
  1  5  1  0
  2  1  1  0
  3  2  1  0
  3  4  1  0
  4  5  1  0
  6  9  1  0
  7 12  2  0
  8  7  1  0
  9 10  1  0
  9  8  2  0
 10 11  2  0
 11 12  1  0
 13  5  1  0
 13 15  1  0
 14 13  2  0
  2 16  1  0
  2 17  1  0
  3 18  1  0
  3 19  1  0
  4 20  1  0
  4 21  1  0
  5 22  1  1
  6 23  1  0
  6 24  1  0
  7 25  1  0
  8 26  1  0
 11 27  1  0
 15 28  1  0
M  ISO  8  16  13  17  13  18  13  19  13  20  13  21  13  22  13  23   8
M  ISO  5  24   8  25  14  26  14  27  14  28   3
M  END
>  <minimizedAffinity>  (1) 
-4.15745735

>  <minimizedRMSD>  (1) 
1.08429849

$$$$
