
     RDKit          3D

 26 27  0  0  1  0  0  0  0  0999 V2000
   37.7420   25.4680   34.1640 N   0  0  0  0  0  0  0  0  0  0  0  0
   37.1660   25.2980   32.8770 C   0  0  0  0  0  0  0  0  0  0  0  0
   36.6960   26.6750   32.4490 C   0  0  0  0  0  0  0  0  0  0  0  0
   37.1030   27.5960   33.6140 C   0  0  0  0  0  0  0  0  0  0  0  0
   38.2970   26.7960   34.1100 C   0  0  2  0  0  0  0  0  0  0  0  0
   38.8060   24.5530   34.4550 C   0  0  0  0  0  0  0  0  0  0  0  0
   37.8400   24.0730   38.0820 C   0  0  0  0  0  0  0  0  0  0  0  0
   37.8050   24.5150   36.7640 C   0  0  0  0  0  0  0  0  0  0  0  0
   38.8000   24.1040   35.8820 C   0  0  0  0  0  0  0  0  0  0  0  0
   39.7760   23.2740   36.3650 N   0  0  0  0  0  0  0  0  0  0  0  0
   39.7870   22.8560   37.6520 C   0  0  0  0  0  0  0  0  0  0  0  0
   38.8250   23.2560   38.5000 N   0  0  0  0  0  0  0  0  0  0  0  0
   39.7310   26.9610   33.0620 S   0  0  0  0  0  0  0  0  0  0  0  0
   37.9152   24.9122   32.1700 H   0  0  0  0  0  0  0  0  0  0  0  0
   36.3368   24.5755   32.8970 H   0  0  0  0  0  0  0  0  0  0  0  0
   37.1920   26.9836   31.5169 H   0  0  0  0  0  0  0  0  0  0  0  0
   35.6151   26.7059   32.2472 H   0  0  0  0  0  0  0  0  0  0  0  0
   37.3888   28.6010   33.2702 H   0  0  0  0  0  0  0  0  0  0  0  0
   36.3209   27.8070   34.3582 H   0  0  0  0  0  0  0  0  0  0  0  0
   38.7016   27.1306   35.0766 H   0  0  0  0  0  0  0  0  0  0  0  0
   38.6998   23.6706   33.8069 H   0  0  0  0  0  0  0  0  0  0  0  0
   39.7564   25.0760   34.2727 H   0  0  0  0  0  0  0  0  0  0  0  0
   37.0585   24.3927   38.7870 H   0  0  0  0  0  0  0  0  0  0  0  0
   36.9998   25.1821   36.4223 H   0  0  0  0  0  0  0  0  0  0  0  0
   40.5857   22.1870   38.0047 H   0  0  0  0  0  0  0  0  0  0  0  0
   40.8520   27.0900   33.8389 H   0  0  0  0  0  0  0  0  0  0  0  0
  1  6  1  0
  2  1  1  0
  3  2  1  0
  3  4  1  0
  4  5  1  0
  5  1  1  0
  6  9  1  0
  7 12  2  0
  8  7  1  0
  9 10  1  0
  9  8  2  0
 10 11  2  0
 11 12  1  0
 13  5  1  0
  2 14  1  0
  2 15  1  0
  3 16  1  0
  3 17  1  0
  4 18  1  0
  4 19  1  0
  5 20  1  1
  6 21  1  0
  6 22  1  0
  7 23  1  0
  8 24  1  0
 11 25  1  0
 13 26  1  0
M  ISO  8  14  13  15  13  16  13  17  13  18  13  19  13  20  13  21   8
M  ISO  5  22   8  23  14  24  14  25  14  26  11
M  END
>  <minimizedAffinity>  (1) 
-3.69576049

>  <minimizedRMSD>  (1) 
0.0502586775

$$$$
