
     RDKit          3D

 33 35  0  0  1  0  0  0  0  0999 V2000
   38.4520   22.4220   35.8250 N   0  0  0  0  0  0  0  0  0  0  0  0
   37.8360   23.6530   36.1480 C   0  0  0  0  0  0  0  0  0  0  0  0
   38.3930   24.0600   37.4900 C   0  0  0  0  0  0  0  0  0  0  0  0
   39.3700   22.9320   37.8500 C   0  0  0  0  0  0  0  0  0  0  0  0
   39.7780   22.5300   36.4280 C   0  0  2  0  0  0  0  0  0  0  0  0
   38.6610   22.1690   34.4420 C   0  0  0  0  0  0  0  0  0  0  0  0
   35.3140   20.7760   33.3370 C   0  0  0  0  0  0  0  0  0  0  0  0
   36.4920   20.9420   34.0670 C   0  0  0  0  0  0  0  0  0  0  0  0
   37.3840   21.9450   33.6970 C   0  0  0  0  0  0  0  0  0  0  0  0
   37.0510   22.7340   32.6130 N   0  0  0  0  0  0  0  0  0  0  0  0
   35.9070   22.5410   31.9360 C   0  0  0  0  0  0  0  0  0  0  0  0
   35.0510   21.5690   32.3020 N   0  0  0  0  0  0  0  0  0  0  0  0
   40.5530   23.4800   35.8120 O   0  0  0  0  0  0  0  0  0  0  0  0
   41.9020   23.6940   35.9710 C   0  0  0  0  0  0  0  0  0  0  0  0
   42.9010   22.9800   36.5750 C   0  0  0  0  0  0  0  0  0  0  0  0
   44.0630   23.7100   36.4080 C   0  0  0  0  0  0  0  0  0  0  0  0
   43.6980   24.8210   35.7140 C   0  0  0  0  0  0  0  0  0  0  0  0
   42.4160   24.7910   35.4660 O   0  0  0  0  0  0  0  0  0  0  0  0
   38.0771   24.4114   35.3886 H   0  0  0  0  0  0  0  0  0  0  0  0
   36.7405   23.5582   36.1795 H   0  0  0  0  0  0  0  0  0  0  0  0
   38.9189   25.0235   37.4182 H   0  0  0  0  0  0  0  0  0  0  0  0
   37.6079   24.1955   38.2485 H   0  0  0  0  0  0  0  0  0  0  0  0
   40.2243   23.2950   38.4403 H   0  0  0  0  0  0  0  0  0  0  0  0
   38.9621   22.1262   38.4780 H   0  0  0  0  0  0  0  0  0  0  0  0
   40.4025   21.6270   36.3605 H   0  0  0  0  0  0  0  0  0  0  0  0
   39.1791   23.0331   34.0005 H   0  0  0  0  0  0  0  0  0  0  0  0
   39.2597   21.2499   34.3591 H   0  0  0  0  0  0  0  0  0  0  0  0
   34.6010   19.9871   33.6184 H   0  0  0  0  0  0  0  0  0  0  0  0
   36.7129   20.2886   34.9239 H   0  0  0  0  0  0  0  0  0  0  0  0
   35.6678   23.1828   31.0752 H   0  0  0  0  0  0  0  0  0  0  0  0
   42.7993   22.0144   37.0921 H   0  0  0  0  0  0  0  0  0  0  0  0
   45.0708   23.4474   36.7620 H   0  0  0  0  0  0  0  0  0  0  0  0
   44.3816   25.6262   35.4068 H   0  0  0  0  0  0  0  0  0  0  0  0
  1  2  1  0
  1  5  1  0
  2  3  1  0
  3  4  1  0
  5  4  1  0
  6  1  1  0
  7  8  2  0
  9  8  1  0
  9  6  1  0
 10  9  2  0
 11 12  2  0
 11 10  1  0
 12  7  1  0
 13 14  1  0
 13  5  1  0
 14 15  2  0
 16 15  1  0
 17 16  2  0
 18 17  1  0
 18 14  1  0
  2 19  1  0
  2 20  1  0
  3 21  1  0
  3 22  1  0
  4 23  1  0
  4 24  1  0
  5 25  1  1
  6 26  1  0
  6 27  1  0
  7 28  1  0
  8 29  1  0
 11 30  1  0
 15 31  1  0
 16 32  1  0
 17 33  1  0
M  ISO  8  19  13  20  13  21  13  22  13  23  13  24  13  25  13  26   8
M  ISO  7  27   8  28  14  29  14  30  14  31  14  32  14  33  14
M  END
>  <minimizedAffinity>  (1) 
-4.36613846

>  <minimizedRMSD>  (1) 
5.29959965

$$$$
