
     RDKit          3D

 40 43  0  0  1  0  0  0  0  0999 V2000
   38.3160   25.0650   33.3970 N   0  0  0  0  0  0  0  0  0  0  0  0
   37.1040   25.8130   33.2760 C   0  0  0  0  0  0  0  0  0  0  0  0
   37.2130   26.5550   31.9690 C   0  0  0  0  0  0  0  0  0  0  0  0
   38.5730   26.1210   31.4040 C   0  0  0  0  0  0  0  0  0  0  0  0
   38.6300   24.7020   32.0260 C   0  0  2  0  0  0  0  0  0  0  0  0
   38.1840   23.8310   34.1120 C   0  0  0  0  0  0  0  0  0  0  0  0
   38.2070   25.4280   37.5490 C   0  0  0  0  0  0  0  0  0  0  0  0
   38.3030   25.2690   36.1580 C   0  0  0  0  0  0  0  0  0  0  0  0
   38.0860   24.0220   35.5800 C   0  0  0  0  0  0  0  0  0  0  0  0
   37.7810   22.9960   36.4300 N   0  0  0  0  0  0  0  0  0  0  0  0
   37.6920   23.1680   37.7560 C   0  0  0  0  0  0  0  0  0  0  0  0
   37.9040   24.3740   38.3030 N   0  0  0  0  0  0  0  0  0  0  0  0
   37.7330   23.8500   31.4700 O   0  0  0  0  0  0  0  0  0  0  0  0
   37.8890   22.6260   30.8800 C   0  0  0  0  0  0  0  0  0  0  0  0
   38.8750   22.2400   30.0320 N   0  0  0  0  0  0  0  0  0  0  0  0
   38.9030   20.9830   29.5210 C   0  0  0  0  0  0  0  0  0  0  0  0
   37.9770   20.0300   29.8060 N   0  0  0  0  0  0  0  0  0  0  0  0
   36.9890   20.3950   30.6470 C   0  0  0  0  0  0  0  0  0  0  0  0
   36.0160   19.4730   30.9750 C   0  0  0  0  0  0  0  0  0  0  0  0
   34.9890   19.8070   31.8320 C   0  0  0  0  0  0  0  0  0  0  0  0
   34.8840   21.0780   32.4020 C   0  0  0  0  0  0  0  0  0  0  0  0
   35.8880   21.9510   32.0330 C   0  0  0  0  0  0  0  0  0  0  0  0
   36.9280   21.6680   31.1880 C   0  0  0  0  0  0  0  0  0  0  0  0
   36.2359   25.1376   33.2626 H   0  0  0  0  0  0  0  0  0  0  0  0
   36.9643   26.5004   34.1233 H   0  0  0  0  0  0  0  0  0  0  0  0
   36.3979   26.2684   31.2882 H   0  0  0  0  0  0  0  0  0  0  0  0
   37.1367   27.6451   32.0949 H   0  0  0  0  0  0  0  0  0  0  0  0
   38.5764   26.0932   30.3044 H   0  0  0  0  0  0  0  0  0  0  0  0
   39.4219   26.7812   31.6353 H   0  0  0  0  0  0  0  0  0  0  0  0
   39.5712   24.1492   31.8894 H   0  0  0  0  0  0  0  0  0  0  0  0
   37.2752   23.3188   33.7633 H   0  0  0  0  0  0  0  0  0  0  0  0
   39.0892   23.2375   33.9160 H   0  0  0  0  0  0  0  0  0  0  0  0
   38.3800   26.4115   38.0104 H   0  0  0  0  0  0  0  0  0  0  0  0
   38.5504   26.1324   35.5229 H   0  0  0  0  0  0  0  0  0  0  0  0
   37.4429   22.3127   38.4013 H   0  0  0  0  0  0  0  0  0  0  0  0
   39.7229   20.7203   28.8363 H   0  0  0  0  0  0  0  0  0  0  0  0
   36.0603   18.4603   30.5479 H   0  0  0  0  0  0  0  0  0  0  0  0
   34.2291   19.0495   32.0743 H   0  0  0  0  0  0  0  0  0  0  0  0
   34.0704   21.3595   33.0868 H   0  0  0  0  0  0  0  0  0  0  0  0
   35.8491   22.9657   32.4560 H   0  0  0  0  0  0  0  0  0  0  0  0
  1  6  1  0
  2  1  1  0
  3  2  1  0
  4  3  1  0
  4  5  1  0
  5  1  1  0
  6  9  1  0
  7 12  2  0
  8  7  1  0
  9  8  2  0
  9 10  1  0
 10 11  2  0
 11 12  1  0
 13  5  1  0
 14 23  1  0
 14 13  1  0
 15 14  2  0
 16 17  2  0
 16 15  1  0
 17 18  1  0
 18 19  1  0
 18 23  2  0
 19 20  2  0
 20 21  1  0
 22 21  2  0
 23 22  1  0
  2 24  1  0
  2 25  1  0
  3 26  1  0
  3 27  1  0
  4 28  1  0
  4 29  1  0
  5 30  1  1
  6 31  1  0
  6 32  1  0
  7 33  1  0
  8 34  1  0
 11 35  1  0
 16 36  1  0
 19 37  1  0
 20 38  1  0
 21 39  1  0
 22 40  1  0
M  ISO  8  24  13  25  13  26  13  27  13  28  13  29  13  30  13  31   8
M  ISO  8  32   8  33  14  34  14  35  14  36  14  37  14  38  14  39  14
M  ISO  1  40  14
M  END
>  <minimizedAffinity>  (1) 
-4.79175138

>  <minimizedRMSD>  (1) 
6.30601931

$$$$
