
     RDKit          3D

 34 36  0  0  1  0  0  0  0  0999 V2000
   37.7670   25.2580   34.3850 N   0  0  0  0  0  0  0  0  0  0  0  0
   37.2780   25.4560   33.0700 C   0  0  0  0  0  0  0  0  0  0  0  0
   37.5750   26.8860   32.7300 C   0  0  0  0  0  0  0  0  0  0  0  0
   38.3020   27.4250   33.9480 C   0  0  0  0  0  0  0  0  0  0  0  0
   38.9500   26.1080   34.4460 C   0  0  2  0  0  0  0  0  0  0  0  0
   38.2170   23.9320   34.6630 C   0  0  0  0  0  0  0  0  0  0  0  0
   37.8820   23.9290   38.4350 C   0  0  0  0  0  0  0  0  0  0  0  0
   37.5920   24.1690   37.0900 C   0  0  0  0  0  0  0  0  0  0  0  0
   38.4740   23.7050   36.1180 C   0  0  0  0  0  0  0  0  0  0  0  0
   39.5990   23.0240   36.5370 N   0  0  0  0  0  0  0  0  0  0  0  0
   39.8400   22.8150   37.8480 C   0  0  0  0  0  0  0  0  0  0  0  0
   38.9880   23.2640   38.7740 N   0  0  0  0  0  0  0  0  0  0  0  0
   39.9520   25.7000   33.6310 O   0  0  0  0  0  0  0  0  0  0  0  0
   41.2800   25.9890   33.8970 C   0  0  0  0  0  0  0  0  0  0  0  0
   42.1280   26.9740   33.4370 C   0  0  0  0  0  0  0  0  0  0  0  0
   43.4300   27.0120   33.8900 C   0  0  0  0  0  0  0  0  0  0  0  0
   43.9030   26.1130   34.7720 N   0  0  0  0  0  0  0  0  0  0  0  0
   43.0490   25.1480   35.2130 C   0  0  0  0  0  0  0  0  0  0  0  0
   41.7580   25.0790   34.7880 N   0  0  0  0  0  0  0  0  0  0  0  0
   37.7887   24.7818   32.3667 H   0  0  0  0  0  0  0  0  0  0  0  0
   36.2012   25.2412   33.0038 H   0  0  0  0  0  0  0  0  0  0  0  0
   38.2142   26.9483   31.8369 H   0  0  0  0  0  0  0  0  0  0  0  0
   36.6642   27.4584   32.5002 H   0  0  0  0  0  0  0  0  0  0  0  0
   39.0558   28.1793   33.6781 H   0  0  0  0  0  0  0  0  0  0  0  0
   37.6718   27.9491   34.6816 H   0  0  0  0  0  0  0  0  0  0  0  0
   39.4476   26.1431   35.4264 H   0  0  0  0  0  0  0  0  0  0  0  0
   37.4481   23.2212   34.3260 H   0  0  0  0  0  0  0  0  0  0  0  0
   39.1678   23.7844   34.1299 H   0  0  0  0  0  0  0  0  0  0  0  0
   37.1970   24.2891   39.2167 H   0  0  0  0  0  0  0  0  0  0  0  0
   36.6815   24.7157   36.8034 H   0  0  0  0  0  0  0  0  0  0  0  0
   40.7448   22.2708   38.1567 H   0  0  0  0  0  0  0  0  0  0  0  0
   41.7693   27.7227   32.7153 H   0  0  0  0  0  0  0  0  0  0  0  0
   44.1015   27.8005   33.5193 H   0  0  0  0  0  0  0  0  0  0  0  0
   43.4137   24.4020   35.9344 H   0  0  0  0  0  0  0  0  0  0  0  0
  1  5  1  0
  1  6  1  0
  2  1  1  0
  3  2  1  0
  3  4  1  0
  4  5  1  0
  6  9  1  0
  7 12  2  0
  8  7  1  0
  9 10  1  0
  9  8  2  0
 10 11  2  0
 11 12  1  0
 13 14  1  0
 13  5  1  0
 14 19  2  0
 15 16  2  0
 15 14  1  0
 16 17  1  0
 17 18  2  0
 19 18  1  0
  2 20  1  0
  2 21  1  0
  3 22  1  0
  3 23  1  0
  4 24  1  0
  4 25  1  0
  5 26  1  1
  6 27  1  0
  6 28  1  0
  7 29  1  0
  8 30  1  0
 11 31  1  0
 15 32  1  0
 16 33  1  0
 18 34  1  0
M  ISO  8  20  13  21  13  22  13  23  13  24  13  25  13  26  13  27   8
M  ISO  7  28   8  29  14  30  14  31  14  32  14  33  14  34  14
M  END
>  <minimizedAffinity>  (1) 
-4.15522146

>  <minimizedRMSD>  (1) 
1.55268526

$$$$
