
     RDKit          3D

 33 35  0  0  1  0  0  0  0  0999 V2000
   37.8340   25.4320   34.2230 N   0  0  0  0  0  0  0  0  0  0  0  0
   37.0550   25.2260   33.0350 C   0  0  0  0  0  0  0  0  0  0  0  0
   36.7780   26.5910   32.4890 C   0  0  0  0  0  0  0  0  0  0  0  0
   37.4950   27.5390   33.4410 C   0  0  0  0  0  0  0  0  0  0  0  0
   38.6290   26.5870   33.9010 C   0  0  2  0  0  0  0  0  0  0  0  0
   38.7630   24.3740   34.5020 C   0  0  0  0  0  0  0  0  0  0  0  0
   37.9140   24.1940   38.1900 C   0  0  0  0  0  0  0  0  0  0  0  0
   37.8510   24.5530   36.8510 C   0  0  0  0  0  0  0  0  0  0  0  0
   38.7890   24.0200   35.9500 C   0  0  0  0  0  0  0  0  0  0  0  0
   39.7250   23.1620   36.4670 N   0  0  0  0  0  0  0  0  0  0  0  0
   39.7530   22.8390   37.7740 C   0  0  0  0  0  0  0  0  0  0  0  0
   38.8550   23.3520   38.6200 N   0  0  0  0  0  0  0  0  0  0  0  0
   39.5440   26.3900   32.9140 O   0  0  0  0  0  0  0  0  0  0  0  0
   42.6980   27.4220   34.0680 N   0  0  0  0  0  0  0  0  0  0  0  0
   41.4790   26.9310   34.2070 N   0  0  0  0  0  0  0  0  0  0  0  0
   40.8420   26.8730   33.0260 C   0  0  0  0  0  0  0  0  0  0  0  0
   41.7070   27.3600   32.0510 C   0  0  0  0  0  0  0  0  0  0  0  0
   42.8510   27.6880   32.7580 C   0  0  0  0  0  0  0  0  0  0  0  0
   37.6205   24.6286   32.3047 H   0  0  0  0  0  0  0  0  0  0  0  0
   36.1252   24.6789   33.2497 H   0  0  0  0  0  0  0  0  0  0  0  0
   37.1776   26.6895   31.4689 H   0  0  0  0  0  0  0  0  0  0  0  0
   35.7006   26.8028   32.4227 H   0  0  0  0  0  0  0  0  0  0  0  0
   37.8845   28.4288   32.9248 H   0  0  0  0  0  0  0  0  0  0  0  0
   36.8770   27.9689   34.2430 H   0  0  0  0  0  0  0  0  0  0  0  0
   39.2637   26.9334   34.7300 H   0  0  0  0  0  0  0  0  0  0  0  0
   38.4719   23.4844   33.9242 H   0  0  0  0  0  0  0  0  0  0  0  0
   39.7678   24.7212   34.2193 H   0  0  0  0  0  0  0  0  0  0  0  0
   37.1833   24.6064   38.9013 H   0  0  0  0  0  0  0  0  0  0  0  0
   37.0746   25.2478   36.4982 H   0  0  0  0  0  0  0  0  0  0  0  0
   40.5217   22.1469   38.1483 H   0  0  0  0  0  0  0  0  0  0  0  0
   43.3925   27.5713   34.8138 H   0  0  0  0  0  0  0  0  0  0  0  0
   41.5244   27.4608   30.9709 H   0  0  0  0  0  0  0  0  0  0  0  0
   43.7626   28.1094   32.3092 H   0  0  0  0  0  0  0  0  0  0  0  0
  1  6  1  0
  2  1  1  0
  3  2  1  0
  3  4  1  0
  4  5  1  0
  5  1  1  0
  6  9  1  0
  7 12  2  0
  8  7  1  0
  9 10  1  0
  9  8  2  0
 10 11  2  0
 11 12  1  0
 13 16  1  0
 13  5  1  0
 14 15  1  0
 16 15  2  0
 17 18  2  0
 17 16  1  0
 18 14  1  0
  2 19  1  0
  2 20  1  0
  3 21  1  0
  3 22  1  0
  4 23  1  0
  4 24  1  0
  5 25  1  1
  6 26  1  0
  6 27  1  0
  7 28  1  0
  8 29  1  0
 11 30  1  0
 14 31  1  0
 17 32  1  0
 18 33  1  0
M  ISO  8  19  13  20  13  21  13  22  13  23  13  24  13  25  13  26   8
M  ISO  7  27   8  28  14  29  14  30  14  31   9  32  14  33  14
M  END
>  <minimizedAffinity>  (1) 
-4.31533813

>  <minimizedRMSD>  (1) 
0.952114999

$$$$
