
     RDKit          3D

 34 36  0  0  1  0  0  0  0  0999 V2000
   38.0000   24.3640   33.2270 N   0  0  0  0  0  0  0  0  0  0  0  0
   38.6190   24.0210   31.9970 C   0  0  0  0  0  0  0  0  0  0  0  0
   37.5330   24.0830   30.9550 C   0  0  0  0  0  0  0  0  0  0  0  0
   36.2990   24.5140   31.7250 C   0  0  0  0  0  0  0  0  0  0  0  0
   36.9770   25.3280   32.8310 C   0  0  2  0  0  0  0  0  0  0  0  0
   38.8340   25.0280   34.1720 C   0  0  0  0  0  0  0  0  0  0  0  0
   37.8430   24.1450   37.7200 C   0  0  0  0  0  0  0  0  0  0  0  0
   37.8430   24.7610   36.4630 C   0  0  0  0  0  0  0  0  0  0  0  0
   38.7990   24.3950   35.5250 C   0  0  0  0  0  0  0  0  0  0  0  0
   39.7090   23.4300   35.8900 N   0  0  0  0  0  0  0  0  0  0  0  0
   39.6760   22.8610   37.1090 C   0  0  0  0  0  0  0  0  0  0  0  0
   38.7500   23.2230   38.0030 N   0  0  0  0  0  0  0  0  0  0  0  0
   37.5140   26.5100   32.3780 O   0  0  0  0  0  0  0  0  0  0  0  0
   36.8690   27.6950   32.1000 C   0  0  0  0  0  0  0  0  0  0  0  0
   36.8320   28.3560   30.8810 C   0  0  0  0  0  0  0  0  0  0  0  0
   36.1430   29.5420   30.7450 C   0  0  0  0  0  0  0  0  0  0  0  0
   35.4780   30.1060   31.7920 N   0  0  0  0  0  0  0  0  0  0  0  0
   35.5290   29.4410   32.9730 C   0  0  0  0  0  0  0  0  0  0  0  0
   36.2020   28.2720   33.1270 N   0  0  0  0  0  0  0  0  0  0  0  0
   39.4189   24.7375   31.7587 H   0  0  0  0  0  0  0  0  0  0  0  0
   39.0785   23.0226   32.0415 H   0  0  0  0  0  0  0  0  0  0  0  0
   37.3793   23.0966   30.4931 H   0  0  0  0  0  0  0  0  0  0  0  0
   37.7777   24.7722   30.1334 H   0  0  0  0  0  0  0  0  0  0  0  0
   35.6257   25.1316   31.1124 H   0  0  0  0  0  0  0  0  0  0  0  0
   35.6485   23.6971   32.0707 H   0  0  0  0  0  0  0  0  0  0  0  0
   36.3089   25.6701   33.6352 H   0  0  0  0  0  0  0  0  0  0  0  0
   39.8696   25.0073   33.8016 H   0  0  0  0  0  0  0  0  0  0  0  0
   38.4577   26.0561   34.2790 H   0  0  0  0  0  0  0  0  0  0  0  0
   37.0906   24.4265   38.4714 H   0  0  0  0  0  0  0  0  0  0  0  0
   37.0926   25.5279   36.2206 H   0  0  0  0  0  0  0  0  0  0  0  0
   40.4169   22.0917   37.3721 H   0  0  0  0  0  0  0  0  0  0  0  0
   37.3578   27.9293   30.0141 H   0  0  0  0  0  0  0  0  0  0  0  0
   36.1297   30.0456   29.7671 H   0  0  0  0  0  0  0  0  0  0  0  0
   35.0039   29.8660   33.8411 H   0  0  0  0  0  0  0  0  0  0  0  0
  1  6  1  0
  2  1  1  0
  3  4  1  0
  3  2  1  0
  4  5  1  0
  5  1  1  0
  6  9  1  0
  7 12  2  0
  8  7  1  0
  9 10  1  0
  9  8  2  0
 10 11  2  0
 11 12  1  0
 13  5  1  0
 14 13  1  0
 14 19  1  0
 15 14  2  0
 16 15  1  0
 16 17  2  0
 17 18  1  0
 18 19  2  0
  2 20  1  0
  2 21  1  0
  3 22  1  0
  3 23  1  0
  4 24  1  0
  4 25  1  0
  5 26  1  1
  6 27  1  0
  6 28  1  0
  7 29  1  0
  8 30  1  0
 11 31  1  0
 15 32  1  0
 16 33  1  0
 18 34  1  0
M  ISO  8  20  13  21  13  22  13  23  13  24  13  25  13  26  13  27   8
M  ISO  7  28   8  29  14  30  14  31  14  32  14  33  14  34  14
M  END
>  <minimizedAffinity>  (1) 
-4.26369905

>  <minimizedRMSD>  (1) 
3.92098093

$$$$
