
     RDKit          3D

 33 35  0  0  1  0  0  0  0  0999 V2000
   38.6190   25.8150   34.3330 N   0  0  0  0  0  0  0  0  0  0  0  0
   38.1980   27.1180   33.8990 C   0  0  0  0  0  0  0  0  0  0  0  0
   38.7130   27.2460   32.4860 C   0  0  0  0  0  0  0  0  0  0  0  0
   39.3530   25.9050   32.1870 C   0  0  0  0  0  0  0  0  0  0  0  0
   38.5200   25.0140   33.1370 C   0  0  2  0  0  0  0  0  0  0  0  0
   37.7370   25.2210   35.3020 C   0  0  0  0  0  0  0  0  0  0  0  0
   40.3030   22.9300   36.8870 C   0  0  0  0  0  0  0  0  0  0  0  0
   39.6520   23.7150   35.9400 C   0  0  0  0  0  0  0  0  0  0  0  0
   38.4690   24.3720   36.2830 C   0  0  0  0  0  0  0  0  0  0  0  0
   38.0100   24.2000   37.5620 N   0  0  0  0  0  0  0  0  0  0  0  0
   38.6740   23.4270   38.4590 C   0  0  0  0  0  0  0  0  0  0  0  0
   39.8030   22.8090   38.1060 N   0  0  0  0  0  0  0  0  0  0  0  0
   37.2470   24.8560   32.6820 O   0  0  0  0  0  0  0  0  0  0  0  0
   36.8240   23.6620   32.1160 C   0  0  0  0  0  0  0  0  0  0  0  0
   35.5940   23.3330   31.5660 C   0  0  0  0  0  0  0  0  0  0  0  0
   35.6070   22.0180   31.1120 C   0  0  0  0  0  0  0  0  0  0  0  0
   36.8530   21.5780   31.4010 N   0  0  0  0  0  0  0  0  0  0  0  0
   37.5440   22.5420   31.9810 N   0  0  0  0  0  0  0  0  0  0  0  0
   37.1010   27.1961   33.9190 H   0  0  0  0  0  0  0  0  0  0  0  0
   38.5831   27.9149   34.5523 H   0  0  0  0  0  0  0  0  0  0  0  0
   37.8863   27.4455   31.7883 H   0  0  0  0  0  0  0  0  0  0  0  0
   39.4221   28.0796   32.3753 H   0  0  0  0  0  0  0  0  0  0  0  0
   39.2260   25.6144   31.1337 H   0  0  0  0  0  0  0  0  0  0  0  0
   40.4421   25.8602   32.3345 H   0  0  0  0  0  0  0  0  0  0  0  0
   38.8559   23.9738   33.2598 H   0  0  0  0  0  0  0  0  0  0  0  0
   37.2169   26.0231   35.8463 H   0  0  0  0  0  0  0  0  0  0  0  0
   37.0265   24.5775   34.7624 H   0  0  0  0  0  0  0  0  0  0  0  0
   41.2349   22.4092   36.6216 H   0  0  0  0  0  0  0  0  0  0  0  0
   40.0674   23.8172   34.9266 H   0  0  0  0  0  0  0  0  0  0  0  0
   38.2804   23.3097   39.4795 H   0  0  0  0  0  0  0  0  0  0  0  0
   34.7325   24.0136   31.4985 H   0  0  0  0  0  0  0  0  0  0  0  0
   34.7900   21.4626   30.6282 H   0  0  0  0  0  0  0  0  0  0  0  0
   37.2092   20.6329   31.1989 H   0  0  0  0  0  0  0  0  0  0  0  0
  1  6  1  0
  2  1  1  0
  3  2  1  0
  4  3  1  0
  4  5  1  0
  5  1  1  0
  6  9  1  0
  7 12  2  0
  8  9  2  0
  8  7  1  0
  9 10  1  0
 10 11  2  0
 12 11  1  0
 13  5  1  0
 14 13  1  0
 15 14  1  0
 16 17  1  0
 16 15  2  0
 17 18  1  0
 18 14  2  0
  2 19  1  0
  2 20  1  0
  3 21  1  0
  3 22  1  0
  4 23  1  0
  4 24  1  0
  5 25  1  1
  6 26  1  0
  6 27  1  0
  7 28  1  0
  8 29  1  0
 11 30  1  0
 15 31  1  0
 16 32  1  0
 17 33  1  0
M  ISO  8  19  13  20  13  21  13  22  13  23  13  24  13  25  13  26   8
M  ISO  7  27   8  28  14  29  14  30  14  31  14  32  14  33   9
M  END
>  <minimizedAffinity>  (1) 
-4.13559294

>  <minimizedRMSD>  (1) 
4.75667286

$$$$
