
     RDKit          3D

 47 51  0  0  1  0  0  0  0  0999 V2000
   39.6790   25.3480   34.1910 N   0  0  0  0  0  0  0  0  0  0  0  0
   39.8890   25.5430   32.7730 C   0  0  0  0  0  0  0  0  0  0  0  0
   40.6750   26.8050   32.6540 C   0  0  0  0  0  0  0  0  0  0  0  0
   40.8900   27.2490   34.0910 C   0  0  0  0  0  0  0  0  0  0  0  0
   40.8700   25.8580   34.7910 C   0  0  2  0  0  0  0  0  0  0  0  0
   39.5840   23.9590   34.5280 C   0  0  0  0  0  0  0  0  0  0  0  0
   37.8690   24.1290   37.9060 C   0  0  0  0  0  0  0  0  0  0  0  0
   38.1090   24.3510   36.5530 C   0  0  0  0  0  0  0  0  0  0  0  0
   39.2620   23.7640   35.9770 C   0  0  0  0  0  0  0  0  0  0  0  0
   40.0710   23.0140   36.7820 N   0  0  0  0  0  0  0  0  0  0  0  0
   39.7850   22.8350   38.0880 C   0  0  0  0  0  0  0  0  0  0  0  0
   38.6850   23.3950   38.6350 N   0  0  0  0  0  0  0  0  0  0  0  0
   41.9820   25.1250   34.4830 O   0  0  0  0  0  0  0  0  0  0  0  0
   43.0990   25.4270   35.2280 C   0  0  2  0  0  0  0  0  0  0  0  0
   44.4030   25.2030   34.4990 C   0  0  0  0  0  0  0  0  0  0  0  0
   44.0220   24.3520   35.6950 C   0  0  1  0  0  0  0  0  0  0  0  0
   44.9070   24.6770   36.8640 C   0  0  0  0  0  0  0  0  0  0  0  0
   44.5950   25.5500   37.9200 C   0  0  0  0  0  0  0  0  0  0  0  0
   45.5720   25.6500   38.8100 N   0  0  0  0  0  0  0  0  0  0  0  0
   46.5700   24.8550   38.3890 C   0  0  0  0  0  0  0  0  0  0  0  0
   47.8110   24.5790   38.9250 C   0  0  0  0  0  0  0  0  0  0  0  0
   48.6690   23.7120   38.2940 C   0  0  0  0  0  0  0  0  0  0  0  0
   48.2690   23.1150   37.1040 C   0  0  0  0  0  0  0  0  0  0  0  0
   47.0230   23.4090   36.5920 C   0  0  0  0  0  0  0  0  0  0  0  0
   46.1700   24.2650   37.2110 C   0  0  0  0  0  0  0  0  0  0  0  0
   40.4518   24.6986   32.3484 H   0  0  0  0  0  0  0  0  0  0  0  0
   38.9371   25.6030   32.2249 H   0  0  0  0  0  0  0  0  0  0  0  0
   41.6376   26.6192   32.1552 H   0  0  0  0  0  0  0  0  0  0  0  0
   40.1590   27.5667   32.0511 H   0  0  0  0  0  0  0  0  0  0  0  0
   41.8542   27.7617   34.2229 H   0  0  0  0  0  0  0  0  0  0  0  0
   40.1589   27.9772   34.4721 H   0  0  0  0  0  0  0  0  0  0  0  0
   40.8779   25.8582   35.8910 H   0  0  0  0  0  0  0  0  0  0  0  0
   38.7910   23.4979   33.9209 H   0  0  0  0  0  0  0  0  0  0  0  0
   40.5575   23.4886   34.3257 H   0  0  0  0  0  0  0  0  0  0  0  0
   36.9803   24.5753   38.3761 H   0  0  0  0  0  0  0  0  0  0  0  0
   37.4237   24.9640   35.9492 H   0  0  0  0  0  0  0  0  0  0  0  0
   40.4547   22.2267   38.7136 H   0  0  0  0  0  0  0  0  0  0  0  0
   42.5949   26.2455   35.7627 H   0  0  0  0  0  0  0  0  0  0  0  0
   44.4036   24.7677   33.4888 H   0  0  0  0  0  0  0  0  0  0  0  0
   45.2653   25.8290   34.2258 H   0  0  0  0  0  0  0  0  0  0  0  0
   43.8644   23.2878   35.9246 H   0  0  0  0  0  0  0  0  0  0  0  0
   43.6415   26.0926   37.9995 H   0  0  0  0  0  0  0  0  0  0  0  0
   45.5671   26.2277   39.6628 H   0  0  0  0  0  0  0  0  0  0  0  0
   48.1162   25.0581   39.8670 H   0  0  0  0  0  0  0  0  0  0  0  0
   49.6577   23.4933   38.7237 H   0  0  0  0  0  0  0  0  0  0  0  0
   48.9375   22.4175   36.5780 H   0  0  0  0  0  0  0  0  0  0  0  0
   46.7095   22.9342   35.6506 H   0  0  0  0  0  0  0  0  0  0  0  0
  1  6  1  0
  1  5  1  0
  2  1  1  0
  3  2  1  0
  3  4  1  0
  4  5  1  0
  6  9  1  0
  7 12  2  0
  8  7  1  0
  9  8  2  0
  9 10  1  0
 10 11  2  0
 11 12  1  0
 13  5  1  0
 13 14  1  0
 14 16  1  0
 15 14  1  0
 15 16  1  0
 16 17  1  0
 17 25  1  0
 17 18  2  0
 18 19  1  0
 20 19  1  0
 20 21  2  0
 22 21  1  0
 23 22  2  0
 24 23  1  0
 24 25  2  0
 25 20  1  0
  2 26  1  0
  2 27  1  0
  3 28  1  0
  3 29  1  0
  4 30  1  0
  4 31  1  0
  5 32  1  1
  6 33  1  0
  6 34  1  0
  7 35  1  0
  8 36  1  0
 11 37  1  0
 14 38  1  1
 15 39  1  0
 15 40  1  0
 16 41  1  6
 18 42  1  0
 19 43  1  0
 21 44  1  0
 22 45  1  0
 23 46  1  0
 24 47  1  0
M  ISO  8  26  13  27  13  28  13  29  13  30  13  31  13  32  13  33   8
M  ISO  8  34   8  35  14  36  14  37  14  38  13  39  13  40  13  41  13
M  ISO  6  42  14  43   9  44  14  45  14  46  14  47  14
M  END
>  <minimizedAffinity>  (1) 
-5.49637079

>  <minimizedRMSD>  (1) 
3.28790069

$$$$
