
     RDKit          3D

 33 35  0  0  1  0  0  0  0  0999 V2000
   37.6460   25.3530   34.3430 N   0  0  0  0  0  0  0  0  0  0  0  0
   37.1110   25.4070   33.0190 C   0  0  0  0  0  0  0  0  0  0  0  0
   36.8430   26.8540   32.7400 C   0  0  0  0  0  0  0  0  0  0  0  0
   37.3010   27.5750   34.0120 C   0  0  0  0  0  0  0  0  0  0  0  0
   38.3970   26.5880   34.4600 C   0  0  2  0  0  0  0  0  0  0  0  0
   38.5540   24.2780   34.5640 C   0  0  0  0  0  0  0  0  0  0  0  0
   37.8570   23.8960   38.2600 C   0  0  0  0  0  0  0  0  0  0  0  0
   37.6800   24.2700   36.9280 C   0  0  0  0  0  0  0  0  0  0  0  0
   38.6770   23.9120   36.0010 C   0  0  0  0  0  0  0  0  0  0  0  0
   39.7540   23.2200   36.4800 N   0  0  0  0  0  0  0  0  0  0  0  0
   39.8790   22.8830   37.7680 C   0  0  0  0  0  0  0  0  0  0  0  0
   38.9210   23.2270   38.6510 N   0  0  0  0  0  0  0  0  0  0  0  0
   39.4840   26.6260   33.6450 O   0  0  0  0  0  0  0  0  0  0  0  0
   40.6130   27.1670   34.1840 C   0  0  0  0  0  0  0  0  0  0  0  0
   41.7040   27.4830   33.1440 C   0  0  0  0  0  0  0  0  0  0  0  0
   41.9090   26.4690   34.2450 C   0  0  0  0  0  0  0  0  0  0  0  0
   37.8377   25.0068   32.2966 H   0  0  0  0  0  0  0  0  0  0  0  0
   36.1957   24.8035   32.9297 H   0  0  0  0  0  0  0  0  0  0  0  0
   37.4203   27.1964   31.8685 H   0  0  0  0  0  0  0  0  0  0  0  0
   35.7864   27.0481   32.5037 H   0  0  0  0  0  0  0  0  0  0  0  0
   37.7073   28.5744   33.7972 H   0  0  0  0  0  0  0  0  0  0  0  0
   36.5135   27.7789   34.7525 H   0  0  0  0  0  0  0  0  0  0  0  0
   38.8352   26.7752   35.4514 H   0  0  0  0  0  0  0  0  0  0  0  0
   38.1994   23.3985   34.0066 H   0  0  0  0  0  0  0  0  0  0  0  0
   39.5459   24.6069   34.2204 H   0  0  0  0  0  0  0  0  0  0  0  0
   37.0899   24.1663   39.0006 H   0  0  0  0  0  0  0  0  0  0  0  0
   36.7870   24.8286   36.6110 H   0  0  0  0  0  0  0  0  0  0  0  0
   40.7642   22.3248   38.1068 H   0  0  0  0  0  0  0  0  0  0  0  0
   40.0335   27.6746   34.9691 H   0  0  0  0  0  0  0  0  0  0  0  0
   41.5891   27.1551   32.1003 H   0  0  0  0  0  0  0  0  0  0  0  0
   42.2249   28.3864   32.7938 H   0  0  0  0  0  0  0  0  0  0  0  0
   42.6080   26.6902   35.0651 H   0  0  0  0  0  0  0  0  0  0  0  0
   42.2078   25.4105   34.2644 H   0  0  0  0  0  0  0  0  0  0  0  0
  1  5  1  0
  1  6  1  0
  2  1  1  0
  3  2  1  0
  3  4  1  0
  4  5  1  0
  6  9  1  0
  7 12  2  0
  8  7  1  0
  9 10  1  0
  9  8  2  0
 10 11  2  0
 11 12  1  0
 13 14  1  0
 13  5  1  0
 14 16  1  0
 15 14  1  0
 15 16  1  0
  2 17  1  0
  2 18  1  0
  3 19  1  0
  3 20  1  0
  4 21  1  0
  4 22  1  0
  5 23  1  1
  6 24  1  0
  6 25  1  0
  7 26  1  0
  8 27  1  0
 11 28  1  0
 14 29  1  0
 15 30  1  0
 15 31  1  0
 16 32  1  0
 16 33  1  0
M  ISO  8  17  13  18  13  19  13  20  13  21  13  22  13  23  13  24   8
M  ISO  8  25   8  26  14  27  14  28  14  29  13  30  13  31  13  32  13
M  ISO  1  33  13
M  END
>  <minimizedAffinity>  (1) 
-3.99216914

>  <minimizedRMSD>  (1) 
0.528365433

$$$$
