
     RDKit          3D

 47 51  0  0  1  0  0  0  0  0999 V2000
   38.0070   25.3170   34.3360 N   0  0  0  0  0  0  0  0  0  0  0  0
   37.4300   25.1750   33.0170 C   0  0  0  0  0  0  0  0  0  0  0  0
   37.2630   26.5610   32.4960 C   0  0  0  0  0  0  0  0  0  0  0  0
   37.7930   27.4420   33.6160 C   0  0  0  0  0  0  0  0  0  0  0  0
   38.8470   26.4620   34.2180 C   0  0  2  0  0  0  0  0  0  0  0  0
   38.8440   24.2020   34.6740 C   0  0  0  0  0  0  0  0  0  0  0  0
   37.8900   24.2180   38.3440 C   0  0  0  0  0  0  0  0  0  0  0  0
   37.8470   24.5120   36.9850 C   0  0  0  0  0  0  0  0  0  0  0  0
   38.8290   23.9310   36.1470 C   0  0  0  0  0  0  0  0  0  0  0  0
   39.7570   23.1180   36.7340 N   0  0  0  0  0  0  0  0  0  0  0  0
   39.7470   22.8730   38.0540 C   0  0  0  0  0  0  0  0  0  0  0  0
   38.8140   23.4250   38.8460 N   0  0  0  0  0  0  0  0  0  0  0  0
   39.9030   26.2900   33.3800 O   0  0  0  0  0  0  0  0  0  0  0  0
   41.0650   26.9140   33.7600 C   0  0  2  0  0  0  0  0  0  0  0  0
   41.7500   27.7290   32.6910 C   0  0  0  0  0  0  0  0  0  0  0  0
   42.3840   26.4540   33.2110 C   0  0  1  0  0  0  0  0  0  0  0  0
   43.5660   26.5990   34.0350 N   0  0  0  0  0  0  0  0  0  0  0  0
   44.5600   27.5080   34.0910 C   0  0  0  0  0  0  0  0  0  0  0  0
   45.3900   27.1110   35.0700 N   0  0  0  0  0  0  0  0  0  0  0  0
   44.9440   25.9710   35.6330 C   0  0  0  0  0  0  0  0  0  0  0  0
   45.4650   25.2110   36.6600 C   0  0  0  0  0  0  0  0  0  0  0  0
   46.5260   25.4970   37.2730 O   0  0  0  0  0  0  0  0  0  0  0  0
   44.8380   24.0920   37.0630 N   0  0  0  0  0  0  0  0  0  0  0  0
   43.7010   23.7780   36.4140 C   0  0  0  0  0  0  0  0  0  0  0  0
   42.9080   22.6130   36.7220 N   0  0  0  0  0  0  0  0  0  0  0  0
   43.1790   24.5080   35.4110 N   0  0  0  0  0  0  0  0  0  0  0  0
   43.7780   25.6470   34.9700 C   0  0  0  0  0  0  0  0  0  0  0  0
   38.1027   24.5989   32.3646 H   0  0  0  0  0  0  0  0  0  0  0  0
   36.4714   24.6365   33.0501 H   0  0  0  0  0  0  0  0  0  0  0  0
   37.8472   26.7055   31.5752 H   0  0  0  0  0  0  0  0  0  0  0  0
   36.2199   26.7916   32.2338 H   0  0  0  0  0  0  0  0  0  0  0  0
   38.2573   28.3625   33.2324 H   0  0  0  0  0  0  0  0  0  0  0  0
   37.0370   27.8163   34.3220 H   0  0  0  0  0  0  0  0  0  0  0  0
   39.3423   26.7683   35.1512 H   0  0  0  0  0  0  0  0  0  0  0  0
   38.4821   23.3094   34.1426 H   0  0  0  0  0  0  0  0  0  0  0  0
   39.8757   24.4426   34.3778 H   0  0  0  0  0  0  0  0  0  0  0  0
   37.1360   24.6573   39.0138 H   0  0  0  0  0  0  0  0  0  0  0  0
   37.0728   25.1764   36.5736 H   0  0  0  0  0  0  0  0  0  0  0  0
   40.5110   22.2133   38.4910 H   0  0  0  0  0  0  0  0  0  0  0  0
   40.6969   27.0812   34.7830 H   0  0  0  0  0  0  0  0  0  0  0  0
   42.1911   28.7054   32.9399 H   0  0  0  0  0  0  0  0  0  0  0  0
   41.4666   28.1120   31.6995 H   0  0  0  0  0  0  0  0  0  0  0  0
   42.7457   25.5154   32.7658 H   0  0  0  0  0  0  0  0  0  0  0  0
   44.6701   28.4010   33.4582 H   0  0  0  0  0  0  0  0  0  0  0  0
   45.2072   23.5072   37.8262 H   0  0  0  0  0  0  0  0  0  0  0  0
   42.0458   22.4221   36.1919 H   0  0  0  0  0  0  0  0  0  0  0  0
   43.2040   21.9721   37.4720 H   0  0  0  0  0  0  0  0  0  0  0  0
  1  6  1  0
  2  1  1  0
  3  2  1  0
  3  4  1  0
  4  5  1  0
  5  1  1  0
  6  9  1  0
  7 12  2  0
  8  7  1  0
  9 10  1  0
  9  8  2  0
 10 11  2  0
 11 12  1  0
 13 14  1  0
 13  5  1  0
 15 16  1  0
 15 14  1  0
 16 14  1  0
 16 17  1  0
 17 18  1  0
 17 27  1  0
 18 19  2  0
 19 20  1  0
 20 21  1  0
 21 23  1  0
 21 22  2  0
 24 25  1  0
 24 23  1  0
 26 24  2  0
 27 26  1  0
 27 20  2  0
  2 28  1  0
  2 29  1  0
  3 30  1  0
  3 31  1  0
  4 32  1  0
  4 33  1  0
  5 34  1  1
  6 35  1  0
  6 36  1  0
  7 37  1  0
  8 38  1  0
 11 39  1  0
 14 40  1  1
 15 41  1  0
 15 42  1  0
 16 43  1  6
 18 44  1  0
 23 45  1  0
 25 46  1  0
 25 47  1  0
M  ISO  8  28  13  29  13  30  13  31  13  32  13  33  13  34  13  35   8
M  ISO  8  36   8  37  14  38  14  39  14  40  13  41  13  42  13  43  13
M  ISO  2  44  14  45   9
M  END
>  <minimizedAffinity>  (1) 
-5.3282342

>  <minimizedRMSD>  (1) 
0.985267103

$$$$
