
     RDKit          3D

 47 50  0  0  1  0  0  0  0  0999 V2000
   37.6860   25.3510   34.4430 N   0  0  0  0  0  0  0  0  0  0  0  0
   37.3060   25.5750   33.0650 C   0  0  0  0  0  0  0  0  0  0  0  0
   37.3500   27.0530   32.8700 C   0  0  0  0  0  0  0  0  0  0  0  0
   37.7970   27.5900   34.2190 C   0  0  0  0  0  0  0  0  0  0  0  0
   38.6440   26.3760   34.7040 C   0  0  2  0  0  0  0  0  0  0  0  0
   38.3470   24.0900   34.6140 C   0  0  0  0  0  0  0  0  0  0  0  0
   37.8930   23.8210   38.3680 C   0  0  0  0  0  0  0  0  0  0  0  0
   37.6200   24.1400   37.0400 C   0  0  0  0  0  0  0  0  0  0  0  0
   38.5740   23.7810   36.0620 C   0  0  0  0  0  0  0  0  0  0  0  0
   39.7020   23.1410   36.4910 N   0  0  0  0  0  0  0  0  0  0  0  0
   39.9060   22.8620   37.7880 C   0  0  0  0  0  0  0  0  0  0  0  0
   39.0000   23.2040   38.7140 N   0  0  0  0  0  0  0  0  0  0  0  0
   39.7910   26.2390   33.9810 O   0  0  0  0  0  0  0  0  0  0  0  0
   40.9520   26.4030   34.6890 C   0  0  2  0  0  0  0  0  0  0  0  0
   42.0940   26.9910   33.8990 C   0  0  0  0  0  0  0  0  0  0  0  0
   42.1600   25.5760   34.4030 C   0  0  1  0  0  0  0  0  0  0  0  0
   43.1560   25.4000   35.3920 N   0  0  0  0  0  0  0  0  0  0  0  0
   44.4390   25.9550   35.0800 C   0  0  0  0  0  0  0  0  0  0  0  0
   45.2020   25.9670   36.3960 C   0  0  0  0  0  0  0  0  0  0  0  0
   45.5330   24.5980   36.6940 N   0  0  0  0  0  0  0  0  0  0  0  0
   44.5300   23.6340   36.4150 C   0  0  0  0  0  0  0  0  0  0  0  0
   43.1720   24.1730   36.0920 C   0  0  0  0  0  0  0  0  0  0  0  0
   38.0140   25.0772   32.3860 H   0  0  0  0  0  0  0  0  0  0  0  0
   36.3084   25.1660   32.8471 H   0  0  0  0  0  0  0  0  0  0  0  0
   38.0709   27.3221   32.0839 H   0  0  0  0  0  0  0  0  0  0  0  0
   36.3821   27.4663   32.5501 H   0  0  0  0  0  0  0  0  0  0  0  0
   38.4046   28.5014   34.1181 H   0  0  0  0  0  0  0  0  0  0  0  0
   36.9858   27.8978   34.8951 H   0  0  0  0  0  0  0  0  0  0  0  0
   39.0203   26.4157   35.7369 H   0  0  0  0  0  0  0  0  0  0  0  0
   37.7247   23.2975   34.1727 H   0  0  0  0  0  0  0  0  0  0  0  0
   39.3258   24.1430   34.1149 H   0  0  0  0  0  0  0  0  0  0  0  0
   37.1641   24.0922   39.1459 H   0  0  0  0  0  0  0  0  0  0  0  0
   36.6894   24.6560   36.7611 H   0  0  0  0  0  0  0  0  0  0  0  0
   40.8281   22.3464   38.0944 H   0  0  0  0  0  0  0  0  0  0  0  0
   40.4081   26.6179   35.6207 H   0  0  0  0  0  0  0  0  0  0  0  0
   42.7329   27.7665   34.3467 H   0  0  0  0  0  0  0  0  0  0  0  0
   42.1968   27.4765   32.9173 H   0  0  0  0  0  0  0  0  0  0  0  0
   42.2707   24.5617   33.9920 H   0  0  0  0  0  0  0  0  0  0  0  0
   44.9591   25.3304   34.3388 H   0  0  0  0  0  0  0  0  0  0  0  0
   44.3555   26.9620   34.6452 H   0  0  0  0  0  0  0  0  0  0  0  0
   46.1193   26.5660   36.2971 H   0  0  0  0  0  0  0  0  0  0  0  0
   44.5976   26.4123   37.2000 H   0  0  0  0  0  0  0  0  0  0  0  0
   46.3681   24.3502   36.1443 H   0  0  0  0  0  0  0  0  0  0  0  0
   44.8678   23.0364   35.5555 H   0  0  0  0  0  0  0  0  0  0  0  0
   44.4065   23.0581   37.3440 H   0  0  0  0  0  0  0  0  0  0  0  0
   42.6299   24.3156   37.0385 H   0  0  0  0  0  0  0  0  0  0  0  0
   42.7060   23.4362   35.4212 H   0  0  0  0  0  0  0  0  0  0  0  0
  1  6  1  0
  1  5  1  0
  2  1  1  0
  3  2  1  0
  3  4  1  0
  4  5  1  0
  6  9  1  0
  7 12  2  0
  8  7  1  0
  9 10  1  0
  9  8  2  0
 10 11  2  0
 11 12  1  0
 13 14  1  0
 13  5  1  0
 15 16  1  0
 15 14  1  0
 16 14  1  0
 16 17  1  0
 17 22  1  0
 18 17  1  0
 18 19  1  0
 19 20  1  0
 21 20  1  0
 22 21  1  0
  2 23  1  0
  2 24  1  0
  3 25  1  0
  3 26  1  0
  4 27  1  0
  4 28  1  0
  5 29  1  1
  6 30  1  0
  6 31  1  0
  7 32  1  0
  8 33  1  0
 11 34  1  0
 14 35  1  1
 15 36  1  0
 15 37  1  0
 16 38  1  6
 18 39  1  0
 18 40  1  0
 19 41  1  0
 19 42  1  0
 20 43  1  0
 21 44  1  0
 21 45  1  0
 22 46  1  0
 22 47  1  0
M  ISO  8  23  13  24  13  25  13  26  13  27  13  28  13  29  13  30   8
M  ISO  8  31   8  32  14  33  14  34  14  35  13  36  13  37  13  38  13
M  ISO  8  39  13  40  13  41  13  42  13  43   5  44  13  45  13  46  13
M  ISO  1  47  13
M  END
>  <minimizedAffinity>  (1) 
-4.74960899

>  <minimizedRMSD>  (1) 
1.08819354

$$$$
