
     RDKit          3D

 40 42  0  0  1  0  0  0  0  0999 V2000
   37.7160   25.4200   34.3950 N   0  0  0  0  0  0  0  0  0  0  0  0
   37.2070   25.5250   33.0440 C   0  0  0  0  0  0  0  0  0  0  0  0
   37.0010   26.9840   32.8050 C   0  0  0  0  0  0  0  0  0  0  0  0
   37.4520   27.6360   34.1010 C   0  0  0  0  0  0  0  0  0  0  0  0
   38.5150   26.5870   34.5490 C   0  0  2  0  0  0  0  0  0  0  0  0
   38.5800   24.2840   34.5490 C   0  0  0  0  0  0  0  0  0  0  0  0
   37.9210   23.8270   38.2550 C   0  0  0  0  0  0  0  0  0  0  0  0
   37.7240   24.2190   36.9330 C   0  0  0  0  0  0  0  0  0  0  0  0
   38.7250   23.8970   35.9880 C   0  0  0  0  0  0  0  0  0  0  0  0
   39.8240   23.2200   36.4350 N   0  0  0  0  0  0  0  0  0  0  0  0
   39.9540   22.8690   37.7300 C   0  0  0  0  0  0  0  0  0  0  0  0
   39.0000   23.1780   38.6270 N   0  0  0  0  0  0  0  0  0  0  0  0
   39.6130   26.6140   33.7550 O   0  0  0  0  0  0  0  0  0  0  0  0
   40.7890   26.9420   34.3710 C   0  0  2  0  0  0  0  0  0  0  0  0
   41.8920   27.3890   33.4430 C   0  0  0  0  0  0  0  0  0  0  0  0
   42.0140   26.0980   34.1880 C   0  0  1  0  0  0  0  0  0  0  0  0
   42.9570   25.9130   35.2530 N   0  0  0  0  0  0  0  0  0  0  0  0
   44.3020   26.4330   35.1720 C   0  0  0  0  0  0  0  0  0  0  0  0
   44.4440   27.5770   34.5960 N   0  0  0  0  0  0  0  0  0  0  0  0
   45.3750   25.6660   35.7250 N   0  0  0  0  0  0  0  0  0  0  0  0
   45.3350   28.0760   34.4610 H   0  0  0  0  0  0  0  0  0  0  0  0
   37.9346   25.1174   32.3268 H   0  0  0  0  0  0  0  0  0  0  0  0
   36.2746   24.9557   32.9149 H   0  0  0  0  0  0  0  0  0  0  0  0
   37.6121   27.3317   31.9590 H   0  0  0  0  0  0  0  0  0  0  0  0
   35.9596   27.2281   32.5483 H   0  0  0  0  0  0  0  0  0  0  0  0
   37.8978   28.6270   33.9301 H   0  0  0  0  0  0  0  0  0  0  0  0
   36.6534   27.8392   34.8297 H   0  0  0  0  0  0  0  0  0  0  0  0
   38.9561   26.7169   35.5483 H   0  0  0  0  0  0  0  0  0  0  0  0
   38.1575   23.4352   33.9913 H   0  0  0  0  0  0  0  0  0  0  0  0
   39.5741   24.5510   34.1612 H   0  0  0  0  0  0  0  0  0  0  0  0
   37.1537   24.0671   39.0058 H   0  0  0  0  0  0  0  0  0  0  0  0
   36.8163   24.7631   36.6331 H   0  0  0  0  0  0  0  0  0  0  0  0
   40.8512   22.3232   38.0574 H   0  0  0  0  0  0  0  0  0  0  0  0
   40.2716   27.3230   35.2638 H   0  0  0  0  0  0  0  0  0  0  0  0
   42.5280   28.2441   33.7157 H   0  0  0  0  0  0  0  0  0  0  0  0
   41.9473   27.6860   32.3853 H   0  0  0  0  0  0  0  0  0  0  0  0
   42.2080   25.0560   33.8937 H   0  0  0  0  0  0  0  0  0  0  0  0
   42.6679   25.3967   36.0961 H   0  0  0  0  0  0  0  0  0  0  0  0
   46.3405   26.0213   35.6762 H   0  0  0  0  0  0  0  0  0  0  0  0
   45.1822   24.7583   36.1720 H   0  0  0  0  0  0  0  0  0  0  0  0
  1  6  1  0
  1  5  1  0
  2  1  1  0
  3  2  1  0
  3  4  1  0
  4  5  1  0
  6  9  1  0
  7 12  2  0
  8  7  1  0
  9 10  1  0
  9  8  2  0
 10 11  2  0
 11 12  1  0
 13 14  1  0
 13  5  1  0
 15 16  1  0
 15 14  1  0
 16 14  1  0
 16 17  1  0
 18 17  1  0
 18 20  1  0
 19 18  2  0
 21 19  1  0
  2 22  1  0
  2 23  1  0
  3 24  1  0
  3 25  1  0
  4 26  1  0
  4 27  1  0
  5 28  1  1
  6 29  1  0
  6 30  1  0
  7 31  1  0
  8 32  1  0
 11 33  1  0
 14 34  1  1
 15 35  1  0
 15 36  1  0
 16 37  1  6
 17 38  1  0
 20 39  1  0
 20 40  1  0
M  ISO  8  22  13  23  13  24  13  25  13  26  13  27  13  28  13  29   8
M  ISO  8  30   8  31  14  32  14  33  14  34  13  35  13  36  13  37  13
M  END
>  <minimizedAffinity>  (1) 
-4.76879168

>  <minimizedRMSD>  (1) 
0.471823633

$$$$
