
     RDKit          3D

 35 37  0  0  1  0  0  0  0  0999 V2000
   37.5540   25.3360   34.4290 N   0  0  0  0  0  0  0  0  0  0  0  0
   37.1250   25.4790   33.0510 C   0  0  0  0  0  0  0  0  0  0  0  0
   36.9570   26.9460   32.8380 C   0  0  0  0  0  0  0  0  0  0  0  0
   37.3680   27.5640   34.1610 C   0  0  0  0  0  0  0  0  0  0  0  0
   38.3760   26.4760   34.6420 C   0  0  2  0  0  0  0  0  0  0  0  0
   38.3780   24.1740   34.5950 C   0  0  0  0  0  0  0  0  0  0  0  0
   37.8560   23.8450   38.3290 C   0  0  0  0  0  0  0  0  0  0  0  0
   37.6160   24.1830   36.9970 C   0  0  0  0  0  0  0  0  0  0  0  0
   38.5880   23.8370   36.0250 C   0  0  0  0  0  0  0  0  0  0  0  0
   39.7020   23.1890   36.4690 N   0  0  0  0  0  0  0  0  0  0  0  0
   39.8780   22.8880   37.7730 C   0  0  0  0  0  0  0  0  0  0  0  0
   38.9560   23.2190   38.6840 N   0  0  0  0  0  0  0  0  0  0  0  0
   39.5150   26.4760   33.8920 O   0  0  0  0  0  0  0  0  0  0  0  0
   40.6460   26.8350   34.5750 C   0  0  2  0  0  0  0  0  0  0  0  0
   41.8240   27.2220   33.7370 C   0  0  0  0  0  0  0  0  0  0  0  0
   41.8650   25.9910   34.5940 C   0  0  2  0  0  0  0  0  0  0  0  0
   41.9940   24.7010   34.0210 N   0  0  0  0  0  0  0  0  0  0  0  0
   37.8864   25.0756   32.3672 H   0  0  0  0  0  0  0  0  0  0  0  0
   36.1937   24.9279   32.8534 H   0  0  0  0  0  0  0  0  0  0  0  0
   37.6072   27.2989   32.0239 H   0  0  0  0  0  0  0  0  0  0  0  0
   35.9304   27.2147   32.5485 H   0  0  0  0  0  0  0  0  0  0  0  0
   37.8521   28.5424   34.0255 H   0  0  0  0  0  0  0  0  0  0  0  0
   36.5433   27.7821   34.8555 H   0  0  0  0  0  0  0  0  0  0  0  0
   38.7706   26.5815   35.6634 H   0  0  0  0  0  0  0  0  0  0  0  0
   37.8929   23.3213   34.0974 H   0  0  0  0  0  0  0  0  0  0  0  0
   39.3607   24.3898   34.1504 H   0  0  0  0  0  0  0  0  0  0  0  0
   37.1118   24.1069   39.0956 H   0  0  0  0  0  0  0  0  0  0  0  0
   36.6929   24.7064   36.7074 H   0  0  0  0  0  0  0  0  0  0  0  0
   40.7914   22.3638   38.0907 H   0  0  0  0  0  0  0  0  0  0  0  0
   40.0422   27.2766   35.3815 H   0  0  0  0  0  0  0  0  0  0  0  0
   41.7761   27.1307   32.6418 H   0  0  0  0  0  0  0  0  0  0  0  0
   42.4467   28.1227   33.6320 H   0  0  0  0  0  0  0  0  0  0  0  0
   42.4900   25.5959   35.4084 H   0  0  0  0  0  0  0  0  0  0  0  0
   42.0643   23.9979   34.7704 H   0  0  0  0  0  0  0  0  0  0  0  0
   41.1689   24.5002   33.4381 H   0  0  0  0  0  0  0  0  0  0  0  0
  1  6  1  0
  1  5  1  0
  2  1  1  0
  3  2  1  0
  3  4  1  0
  4  5  1  0
  6  9  1  0
  7 12  2  0
  8  7  1  0
  9 10  1  0
  9  8  2  0
 10 11  2  0
 11 12  1  0
 13 14  1  0
 13  5  1  0
 14 16  1  0
 15 14  1  0
 15 16  1  0
 17 16  1  0
  2 18  1  0
  2 19  1  0
  3 20  1  0
  3 21  1  0
  4 22  1  0
  4 23  1  0
  5 24  1  1
  6 25  1  0
  6 26  1  0
  7 27  1  0
  8 28  1  0
 11 29  1  0
 14 30  1  1
 15 31  1  0
 15 32  1  0
 16 33  1  1
 17 34  1  0
 17 35  1  0
M  ISO  8  18  13  19  13  20  13  21  13  22  13  23  13  24  13  25   8
M  ISO  8  26   8  27  14  28  14  29  14  30  13  31  13  32  13  33  13
M  ISO  2  34   5  35   5
M  END
>  <minimizedAffinity>  (1) 
-4.12758017

>  <minimizedRMSD>  (1) 
0.2973198

$$$$
