
     RDKit          3D

 42 44  0  0  1  0  0  0  0  0999 V2000
   37.7210   25.2360   34.4300 N   0  0  0  0  0  0  0  0  0  0  0  0
   37.3710   25.4300   33.0380 C   0  0  0  0  0  0  0  0  0  0  0  0
   37.5790   26.8810   32.7660 C   0  0  0  0  0  0  0  0  0  0  0  0
   38.0850   27.4320   34.0900 C   0  0  0  0  0  0  0  0  0  0  0  0
   38.7870   26.1560   34.6400 C   0  0  2  0  0  0  0  0  0  0  0  0
   38.2330   23.9180   34.6680 C   0  0  0  0  0  0  0  0  0  0  0  0
   37.8740   23.8250   38.4380 C   0  0  0  0  0  0  0  0  0  0  0  0
   37.5680   24.0760   37.1010 C   0  0  0  0  0  0  0  0  0  0  0  0
   38.5050   23.6850   36.1180 C   0  0  0  0  0  0  0  0  0  0  0  0
   39.6550   23.0870   36.5470 N   0  0  0  0  0  0  0  0  0  0  0  0
   39.8920   22.8710   37.8580 C   0  0  0  0  0  0  0  0  0  0  0  0
   38.9970   23.2440   38.7890 N   0  0  0  0  0  0  0  0  0  0  0  0
   39.9130   25.8440   33.9310 O   0  0  0  0  0  0  0  0  0  0  0  0
   41.0840   26.2020   34.5520 C   0  0  2  0  0  0  0  0  0  0  0  0
   41.9480   27.1830   33.8200 C   0  0  0  0  0  0  0  0  0  0  0  0
   42.4040   25.7590   33.9930 C   0  0  1  0  0  0  0  0  0  0  0  0
   43.4810   25.5580   35.0320 C   0  0  0  0  0  0  0  0  0  0  0  0
   44.8520   25.4280   34.3900 C   0  0  0  0  0  0  0  0  0  0  0  0
   43.2110   24.4450   35.9950 C   0  0  0  0  0  0  0  0  0  0  0  0
   38.0206   24.8220   32.3912 H   0  0  0  0  0  0  0  0  0  0  0  0
   36.3341   25.1242   32.8345 H   0  0  0  0  0  0  0  0  0  0  0  0
   38.3246   27.0272   31.9706 H   0  0  0  0  0  0  0  0  0  0  0  0
   36.6638   27.3832   32.4193 H   0  0  0  0  0  0  0  0  0  0  0  0
   38.7929   28.2617   33.9467 H   0  0  0  0  0  0  0  0  0  0  0  0
   37.3145   27.8647   34.7450 H   0  0  0  0  0  0  0  0  0  0  0  0
   39.1670   26.2114   35.6708 H   0  0  0  0  0  0  0  0  0  0  0  0
   37.4944   23.1805   34.3208 H   0  0  0  0  0  0  0  0  0  0  0  0
   39.1811   23.8141   34.1200 H   0  0  0  0  0  0  0  0  0  0  0  0
   37.1566   24.1212   39.2175 H   0  0  0  0  0  0  0  0  0  0  0  0
   36.6237   24.5647   36.8193 H   0  0  0  0  0  0  0  0  0  0  0  0
   40.8283   22.3841   38.1682 H   0  0  0  0  0  0  0  0  0  0  0  0
   40.6258   26.1270   35.5492 H   0  0  0  0  0  0  0  0  0  0  0  0
   42.4499   27.9922   34.3708 H   0  0  0  0  0  0  0  0  0  0  0  0
   41.8061   27.8558   32.9614 H   0  0  0  0  0  0  0  0  0  0  0  0
   42.7414   24.9626   33.3133 H   0  0  0  0  0  0  0  0  0  0  0  0
   43.4697   26.4714   35.6448 H   0  0  0  0  0  0  0  0  0  0  0  0
   45.6191   25.3553   35.1750 H   0  0  0  0  0  0  0  0  0  0  0  0
   44.8799   24.5232   33.7651 H   0  0  0  0  0  0  0  0  0  0  0  0
   45.0495   26.3114   33.7651 H   0  0  0  0  0  0  0  0  0  0  0  0
   43.3022   24.8209   37.0247 H   0  0  0  0  0  0  0  0  0  0  0  0
   42.1933   24.0597   35.8341 H   0  0  0  0  0  0  0  0  0  0  0  0
   43.9390   23.6362   35.8341 H   0  0  0  0  0  0  0  0  0  0  0  0
  1  5  1  0
  1  6  1  0
  2  1  1  0
  3  2  1  0
  3  4  1  0
  4  5  1  0
  6  9  1  0
  7 12  2  0
  8  7  1  0
  9 10  1  0
  9  8  2  0
 10 11  2  0
 11 12  1  0
 13 14  1  0
 13  5  1  0
 15 16  1  0
 15 14  1  0
 16 14  1  0
 16 17  1  0
 17 19  1  0
 18 17  1  0
  2 20  1  0
  2 21  1  0
  3 22  1  0
  3 23  1  0
  4 24  1  0
  4 25  1  0
  5 26  1  1
  6 27  1  0
  6 28  1  0
  7 29  1  0
  8 30  1  0
 11 31  1  0
 14 32  1  1
 15 33  1  0
 15 34  1  0
 16 35  1  6
 17 36  1  0
 18 37  1  0
 18 38  1  0
 18 39  1  0
 19 40  1  0
 19 41  1  0
 19 42  1  0
M  ISO  8  20  13  21  13  22  13  23  13  24  13  25  13  26  13  27   8
M  ISO  8  28   8  29  14  30  14  31  14  32  13  33  13  34  13  35  13
M  ISO  7  36   8  37   8  38   8  39   8  40   8  41   8  42   8
M  END
>  <minimizedAffinity>  (1) 
-4.18541574

>  <minimizedRMSD>  (1) 
0.87175405

$$$$
