
     RDKit          3D

 34 36  0  0  1  0  0  0  0  0999 V2000
   37.5850   25.5770   34.6010 N   0  0  0  0  0  0  0  0  0  0  0  0
   37.0570   25.8410   33.2800 C   0  0  0  0  0  0  0  0  0  0  0  0
   36.9950   27.3270   33.1660 C   0  0  0  0  0  0  0  0  0  0  0  0
   37.5470   27.8270   34.4890 C   0  0  0  0  0  0  0  0  0  0  0  0
   38.5050   26.6430   34.8200 C   0  0  2  0  0  0  0  0  0  0  0  0
   38.3310   24.3520   34.6410 C   0  0  0  0  0  0  0  0  0  0  0  0
   37.9590   23.7030   38.3570 C   0  0  0  0  0  0  0  0  0  0  0  0
   37.6500   24.1380   37.0690 C   0  0  0  0  0  0  0  0  0  0  0  0
   38.5980   23.9140   36.0490 C   0  0  0  0  0  0  0  0  0  0  0  0
   39.7610   23.2840   36.3890 N   0  0  0  0  0  0  0  0  0  0  0  0
   40.0030   22.8850   37.6550 C   0  0  0  0  0  0  0  0  0  0  0  0
   39.1000   23.1010   38.6180 N   0  0  0  0  0  0  0  0  0  0  0  0
   39.5820   26.6150   33.9820 O   0  0  0  0  0  0  0  0  0  0  0  0
   40.8010   26.5950   34.6110 C   0  0  2  0  0  0  0  0  0  0  0  0
   41.9520   27.1450   33.8150 C   0  0  0  0  0  0  0  0  0  0  0  0
   41.8820   25.6720   34.1430 C   0  0  1  0  0  0  0  0  0  0  0  0
   43.1290   25.1770   35.3630 S   0  0  0  0  0  0  0  0  0  0  0  0
   37.7220   25.4236   32.5096 H   0  0  0  0  0  0  0  0  0  0  0  0
   36.0694   25.3788   33.1351 H   0  0  0  0  0  0  0  0  0  0  0  0
   37.6132   27.6798   32.3273 H   0  0  0  0  0  0  0  0  0  0  0  0
   35.9758   27.6918   32.9706 H   0  0  0  0  0  0  0  0  0  0  0  0
   38.0899   28.7770   34.3762 H   0  0  0  0  0  0  0  0  0  0  0  0
   36.7946   28.0547   35.2585 H   0  0  0  0  0  0  0  0  0  0  0  0
   38.9816   26.6520   35.8113 H   0  0  0  0  0  0  0  0  0  0  0  0
   37.7570   23.5676   34.1260 H   0  0  0  0  0  0  0  0  0  0  0  0
   39.2978   24.5217   34.1445 H   0  0  0  0  0  0  0  0  0  0  0  0
   37.2361   23.8659   39.1699 H   0  0  0  0  0  0  0  0  0  0  0  0
   36.6954   24.6409   36.8547 H   0  0  0  0  0  0  0  0  0  0  0  0
   40.9491   22.3787   37.8968 H   0  0  0  0  0  0  0  0  0  0  0  0
   40.3468   26.7742   35.5967 H   0  0  0  0  0  0  0  0  0  0  0  0
   42.7041   27.7831   34.3020 H   0  0  0  0  0  0  0  0  0  0  0  0
   42.0514   27.7353   32.8922 H   0  0  0  0  0  0  0  0  0  0  0  0
   41.8736   24.7216   33.5893 H   0  0  0  0  0  0  0  0  0  0  0  0
   42.6354   25.3730   36.6259 H   0  0  0  0  0  0  0  0  0  0  0  0
  1  6  1  0
  1  5  1  0
  2  1  1  0
  3  2  1  0
  3  4  1  0
  4  5  1  0
  6  9  1  0
  7 12  2  0
  8  7  1  0
  9 10  1  0
  9  8  2  0
 10 11  2  0
 11 12  1  0
 13 14  1  0
 13  5  1  0
 15 16  1  0
 15 14  1  0
 16 14  1  0
 16 17  1  0
  2 18  1  0
  2 19  1  0
  3 20  1  0
  3 21  1  0
  4 22  1  0
  4 23  1  0
  5 24  1  1
  6 25  1  0
  6 26  1  0
  7 27  1  0
  8 28  1  0
 11 29  1  0
 14 30  1  1
 15 31  1  0
 15 32  1  0
 16 33  1  6
 17 34  1  0
M  ISO  8  18  13  19  13  20  13  21  13  22  13  23  13  24  13  25   8
M  ISO  8  26   8  27  14  28  14  29  14  30  13  31  13  32  13  33  13
M  ISO  1  34  11
M  END
>  <minimizedAffinity>  (1) 
-4.08126163

>  <minimizedRMSD>  (1) 
0.603672624

$$$$
