
     RDKit          3D

 35 37  0  0  1  0  0  0  0  0999 V2000
   37.5300   25.3420   34.4230 N   0  0  0  0  0  0  0  0  0  0  0  0
   37.1150   25.4890   33.0430 C   0  0  0  0  0  0  0  0  0  0  0  0
   36.9540   26.9550   32.8270 C   0  0  0  0  0  0  0  0  0  0  0  0
   37.3520   27.5720   34.1580 C   0  0  0  0  0  0  0  0  0  0  0  0
   38.3520   26.4850   34.6490 C   0  0  2  0  0  0  0  0  0  0  0  0
   38.3460   24.1820   34.6080 C   0  0  0  0  0  0  0  0  0  0  0  0
   37.8440   23.9400   38.3490 C   0  0  0  0  0  0  0  0  0  0  0  0
   37.6060   24.2670   37.0140 C   0  0  0  0  0  0  0  0  0  0  0  0
   38.5530   23.8580   36.0440 C   0  0  0  0  0  0  0  0  0  0  0  0
   39.6430   23.1680   36.4870 N   0  0  0  0  0  0  0  0  0  0  0  0
   39.8170   22.8820   37.7900 C   0  0  0  0  0  0  0  0  0  0  0  0
   38.9110   23.2730   38.7120 N   0  0  0  0  0  0  0  0  0  0  0  0
   39.5010   26.4730   33.9030 O   0  0  0  0  0  0  0  0  0  0  0  0
   40.6210   26.8570   34.5940 C   0  0  2  0  0  0  0  0  0  0  0  0
   41.8400   27.1570   33.7790 C   0  0  0  0  0  0  0  0  0  0  0  0
   41.8060   25.9930   34.7300 C   0  0  2  0  0  0  0  0  0  0  0  0
   42.0180   24.6990   34.1010 C   0  0  0  0  0  0  0  0  0  0  0  0
   42.5320   23.8830   34.8740 O   0  0  0  0  0  0  0  0  0  0  0  0
   37.8813   25.0830   32.3662 H   0  0  0  0  0  0  0  0  0  0  0  0
   36.1827   24.9425   32.8379 H   0  0  0  0  0  0  0  0  0  0  0  0
   37.6150   27.3058   32.0208 H   0  0  0  0  0  0  0  0  0  0  0  0
   35.9321   27.2273   32.5243 H   0  0  0  0  0  0  0  0  0  0  0  0
   37.8384   28.5501   34.0289 H   0  0  0  0  0  0  0  0  0  0  0  0
   36.5196   27.7895   34.8434 H   0  0  0  0  0  0  0  0  0  0  0  0
   38.7347   26.5977   35.6741 H   0  0  0  0  0  0  0  0  0  0  0  0
   37.8585   23.3255   34.1193 H   0  0  0  0  0  0  0  0  0  0  0  0
   39.3313   24.3910   34.1659 H   0  0  0  0  0  0  0  0  0  0  0  0
   37.1181   24.2498   39.1152 H   0  0  0  0  0  0  0  0  0  0  0  0
   36.7059   24.8281   36.7223 H   0  0  0  0  0  0  0  0  0  0  0  0
   40.7088   22.3224   38.1086 H   0  0  0  0  0  0  0  0  0  0  0  0
   39.9974   27.3751   35.3375 H   0  0  0  0  0  0  0  0  0  0  0  0
   41.8356   26.9842   32.6927 H   0  0  0  0  0  0  0  0  0  0  0  0
   42.4903   28.0320   33.6325 H   0  0  0  0  0  0  0  0  0  0  0  0
   42.3051   25.6235   35.6379 H   0  0  0  0  0  0  0  0  0  0  0  0
   41.7517   24.4727   33.0580 H   0  0  0  0  0  0  0  0  0  0  0  0
  1  6  1  0
  1  5  1  0
  2  1  1  0
  3  2  1  0
  3  4  1  0
  4  5  1  0
  6  9  1  0
  7 12  2  0
  8  7  1  0
  9 10  1  0
  9  8  2  0
 10 11  2  0
 11 12  1  0
 13 14  1  0
 13  5  1  0
 14 16  1  0
 15 14  1  0
 15 16  1  0
 17 16  1  0
 17 18  2  0
  2 19  1  0
  2 20  1  0
  3 21  1  0
  3 22  1  0
  4 23  1  0
  4 24  1  0
  5 25  1  1
  6 26  1  0
  6 27  1  0
  7 28  1  0
  8 29  1  0
 11 30  1  0
 14 31  1  1
 15 32  1  0
 15 33  1  0
 16 34  1  1
 17 35  1  0
M  ISO  8  19  13  20  13  21  13  22  13  23  13  24  13  25  13  26   8
M  ISO  8  27   8  28  14  29  14  30  14  31  13  32  13  33  13  34  13
M  ISO  1  35   6
M  END
>  <minimizedAffinity>  (1) 
-4.11508369

>  <minimizedRMSD>  (1) 
0.72849822

$$$$
