
     RDKit          3D

 34 36  0  0  1  0  0  0  0  0999 V2000
   37.6140   25.3810   34.3970 N   0  0  0  0  0  0  0  0  0  0  0  0
   37.1190   25.4900   33.0400 C   0  0  0  0  0  0  0  0  0  0  0  0
   36.9120   26.9500   32.8080 C   0  0  0  0  0  0  0  0  0  0  0  0
   37.3560   27.5950   34.1090 C   0  0  0  0  0  0  0  0  0  0  0  0
   38.4160   26.5470   34.5590 C   0  0  2  0  0  0  0  0  0  0  0  0
   38.4730   24.2420   34.5540 C   0  0  0  0  0  0  0  0  0  0  0  0
   37.8840   23.8440   38.2790 C   0  0  0  0  0  0  0  0  0  0  0  0
   37.6610   24.2120   36.9510 C   0  0  0  0  0  0  0  0  0  0  0  0
   38.6470   23.8790   35.9970 C   0  0  0  0  0  0  0  0  0  0  0  0
   39.7530   23.2180   36.4500 N   0  0  0  0  0  0  0  0  0  0  0  0
   39.9110   22.8920   37.7340 C   0  0  0  0  0  0  0  0  0  0  0  0
   38.9750   23.2070   38.6400 N   0  0  0  0  0  0  0  0  0  0  0  0
   39.5200   26.5610   33.7610 O   0  0  0  0  0  0  0  0  0  0  0  0
   40.6830   26.9360   34.3750 C   0  0  2  0  0  0  0  0  0  0  0  0
   41.8020   27.3300   33.4560 C   0  0  0  0  0  0  0  0  0  0  0  0
   41.9110   26.0910   34.2940 C   0  0  1  0  0  0  0  0  0  0  0  0
   42.8450   26.2040   35.3170 O   0  0  0  0  0  0  0  0  0  0  0  0
   37.8554   25.0881   32.3285 H   0  0  0  0  0  0  0  0  0  0  0  0
   36.1904   24.9180   32.8968 H   0  0  0  0  0  0  0  0  0  0  0  0
   37.5264   27.3033   31.9668 H   0  0  0  0  0  0  0  0  0  0  0  0
   35.8715   27.1941   32.5478 H   0  0  0  0  0  0  0  0  0  0  0  0
   37.8021   28.5870   33.9451 H   0  0  0  0  0  0  0  0  0  0  0  0
   36.5529   27.7933   34.8341 H   0  0  0  0  0  0  0  0  0  0  0  0
   38.8543   26.6837   35.5586 H   0  0  0  0  0  0  0  0  0  0  0  0
   38.0328   23.3864   34.0210 H   0  0  0  0  0  0  0  0  0  0  0  0
   39.4605   24.4955   34.1409 H   0  0  0  0  0  0  0  0  0  0  0  0
   37.1297   24.0928   39.0400 H   0  0  0  0  0  0  0  0  0  0  0  0
   36.7449   24.7452   36.6568 H   0  0  0  0  0  0  0  0  0  0  0  0
   40.8191   22.3591   38.0524 H   0  0  0  0  0  0  0  0  0  0  0  0
   40.1373   27.3752   35.2231 H   0  0  0  0  0  0  0  0  0  0  0  0
   42.4221   28.2084   33.6881 H   0  0  0  0  0  0  0  0  0  0  0  0
   41.8868   27.5553   32.3827 H   0  0  0  0  0  0  0  0  0  0  0  0
   42.0738   25.0163   34.1251 H   0  0  0  0  0  0  0  0  0  0  0  0
   42.3847   26.1483   36.1917 H   0  0  0  0  0  0  0  0  0  0  0  0
  1  6  1  0
  1  5  1  0
  2  1  1  0
  3  2  1  0
  3  4  1  0
  4  5  1  0
  6  9  1  0
  7 12  2  0
  8  7  1  0
  9 10  1  0
  9  8  2  0
 10 11  2  0
 11 12  1  0
 13 14  1  0
 13  5  1  0
 15 16  1  0
 15 14  1  0
 16 14  1  0
 16 17  1  0
  2 18  1  0
  2 19  1  0
  3 20  1  0
  3 21  1  0
  4 22  1  0
  4 23  1  0
  5 24  1  1
  6 25  1  0
  6 26  1  0
  7 27  1  0
  8 28  1  0
 11 29  1  0
 14 30  1  1
 15 31  1  0
 15 32  1  0
 16 33  1  6
 17 34  1  0
M  ISO  8  18  13  19  13  20  13  21  13  22  13  23  13  24  13  25   8
M  ISO  8  26   8  27  14  28  14  29  14  30  13  31  13  32  13  33  13
M  ISO  1  34   3
M  END
>  <minimizedAffinity>  (1) 
-4.32113409

>  <minimizedRMSD>  (1) 
0.211929873

$$$$
