
     RDKit          3D

 25 26  0  0  1  0  0  0  0  0999 V2000
   38.2170   24.3940   36.8850 C   0  0  1  0  0  0  0  0  0  0  0  0
   40.9980   21.8740   37.4480 C   0  0  0  0  0  0  0  0  0  0  0  0
   39.9350   22.7680   37.7390 C   0  0  0  0  0  0  0  0  0  0  0  0
   39.3160   23.4380   36.6470 C   0  0  0  0  0  0  0  0  0  0  0  0
   39.7810   23.1820   35.3720 N   0  0  0  0  0  0  0  0  0  0  0  0
   40.7860   22.3320   35.1480 C   0  0  0  0  0  0  0  0  0  0  0  0
   41.3950   21.6780   36.1700 N   0  0  0  0  0  0  0  0  0  0  0  0
   37.7590   24.3780   38.3220 C   0  0  0  0  0  0  0  0  0  0  0  0
   38.5750   25.8120   36.5000 C   0  0  0  0  0  0  0  0  0  0  0  0
   37.9160   26.2370   35.2410 C   0  0  0  0  0  0  0  0  0  0  0  0
   37.4820   27.5770   35.0620 C   0  0  0  0  0  0  0  0  0  0  0  0
   36.7450   27.5880   33.3690 S   0  0  0  0  0  0  0  0  0  0  0  0
   37.1560   25.7540   33.1890 C   0  0  0  0  0  0  0  0  0  0  0  0
   37.6400   25.5320   34.1700 N   0  0  0  0  0  0  0  0  0  0  0  0
   37.3965   24.0559   36.2350 H   0  0  0  0  0  0  0  0  0  0  0  0
   41.5016   21.3378   38.2659 H   0  0  0  0  0  0  0  0  0  0  0  0
   39.6010   22.9372   38.7733 H   0  0  0  0  0  0  0  0  0  0  0  0
   41.1267   22.1585   34.1166 H   0  0  0  0  0  0  0  0  0  0  0  0
   38.6351   24.4086   38.9864 H   0  0  0  0  0  0  0  0  0  0  0  0
   37.1226   25.2545   38.5138 H   0  0  0  0  0  0  0  0  0  0  0  0
   37.1853   23.4593   38.5138 H   0  0  0  0  0  0  0  0  0  0  0  0
   38.2614   26.4881   37.3091 H   0  0  0  0  0  0  0  0  0  0  0  0
   39.6627   25.8531   36.3409 H   0  0  0  0  0  0  0  0  0  0  0  0
   37.5656   28.4155   35.7691 H   0  0  0  0  0  0  0  0  0  0  0  0
   36.9678   25.0806   32.3398 H   0  0  0  0  0  0  0  0  0  0  0  0
  1  8  1  0
  2  3  2  0
  4  1  1  0
  4  3  1  0
  5  4  2  0
  6  5  1  0
  6  7  2  0
  7  2  1  0
  9  1  1  0
 10  9  1  0
 11 10  2  0
 12 11  1  0
 13 12  1  0
 13 14  2  0
 14 10  1  0
  1 15  1  6
  2 16  1  0
  3 17  1  0
  6 18  1  0
  8 19  1  0
  8 20  1  0
  8 21  1  0
  9 22  1  0
  9 23  1  0
 11 24  1  0
 13 25  1  0
M  ISO  8  15   8  16  14  17  14  18  14  19   8  20   8  21   8  22   8
M  ISO  3  23   8  24  14  25  14
M  END
>  <minimizedAffinity>  (1) 
-3.77863526

>  <minimizedRMSD>  (1) 
1.10843396

$$$$
