
     RDKit          3D

 33 34  0  0  1  0  0  0  0  0999 V2000
   39.3500   24.8340   34.0680 C   0  0  1  0  0  0  0  0  0  0  0  0
   37.1060   27.5660   32.6890 C   0  0  0  0  0  0  0  0  0  0  0  0
   38.1580   26.9280   33.3870 C   0  0  0  0  0  0  0  0  0  0  0  0
   38.2660   25.5210   33.3400 C   0  0  0  0  0  0  0  0  0  0  0  0
   37.3350   24.8350   32.6140 N   0  0  0  0  0  0  0  0  0  0  0  0
   36.3390   25.4680   31.9550 C   0  0  0  0  0  0  0  0  0  0  0  0
   36.2160   26.8180   31.9880 N   0  0  0  0  0  0  0  0  0  0  0  0
   40.7200   25.2930   33.6220 C   0  0  0  0  0  0  0  0  0  0  0  0
   39.2430   24.9990   35.5700 C   0  0  0  0  0  0  0  0  0  0  0  0
   38.4390   24.0050   36.2250 N   0  0  0  0  0  0  0  0  0  0  0  0
   37.9020   24.4240   37.4850 C   0  0  0  0  0  0  0  0  0  0  0  0
   37.8420   23.2210   38.4050 C   0  0  0  0  0  0  0  0  0  0  0  0
   39.2240   22.9160   38.7260 N   0  0  0  0  0  0  0  0  0  0  0  0
   39.9900   22.6220   37.5280 C   0  0  0  0  0  0  0  0  0  0  0  0
   39.1410   22.7350   36.2840 C   0  0  0  0  0  0  0  0  0  0  0  0
   39.2279   23.7689   33.8216 H   0  0  0  0  0  0  0  0  0  0  0  0
   37.0097   28.6615   32.7141 H   0  0  0  0  0  0  0  0  0  0  0  0
   38.8846   27.5221   33.9606 H   0  0  0  0  0  0  0  0  0  0  0  0
   35.6126   24.8753   31.3796 H   0  0  0  0  0  0  0  0  0  0  0  0
   41.3422   25.5015   34.5048 H   0  0  0  0  0  0  0  0  0  0  0  0
   41.1925   24.5041   33.0184 H   0  0  0  0  0  0  0  0  0  0  0  0
   40.6219   26.2073   33.0184 H   0  0  0  0  0  0  0  0  0  0  0  0
   40.2573   24.9534   35.9933 H   0  0  0  0  0  0  0  0  0  0  0  0
   38.7464   25.9652   35.7429 H   0  0  0  0  0  0  0  0  0  0  0  0
   38.5491   25.1966   37.9259 H   0  0  0  0  0  0  0  0  0  0  0  0
   36.8945   24.8428   37.3453 H   0  0  0  0  0  0  0  0  0  0  0  0
   37.2783   23.4620   39.3183 H   0  0  0  0  0  0  0  0  0  0  0  0
   37.3325   22.3681   37.9327 H   0  0  0  0  0  0  0  0  0  0  0  0
   39.6446   23.7262   39.2030 H   0  0  0  0  0  0  0  0  0  0  0  0
   40.8262   23.3330   37.4554 H   0  0  0  0  0  0  0  0  0  0  0  0
   40.3588   21.5882   37.6003 H   0  0  0  0  0  0  0  0  0  0  0  0
   38.4029   21.9194   36.2811 H   0  0  0  0  0  0  0  0  0  0  0  0
   39.8048   22.6697   35.4093 H   0  0  0  0  0  0  0  0  0  0  0  0
  1  9  1  0
  2  3  2  0
  4  3  1  0
  4  1  1  0
  5  4  2  0
  6  7  2  0
  6  5  1  0
  7  2  1  0
  8  1  1  0
  9 10  1  0
 10 15  1  0
 10 11  1  0
 11 12  1  0
 12 13  1  0
 14 13  1  0
 15 14  1  0
  1 16  1  1
  2 17  1  0
  3 18  1  0
  6 19  1  0
  8 20  1  0
  8 21  1  0
  8 22  1  0
  9 23  1  0
  9 24  1  0
 11 25  1  0
 11 26  1  0
 12 27  1  0
 12 28  1  0
 13 29  1  0
 14 30  1  0
 14 31  1  0
 15 32  1  0
 15 33  1  0
M  ISO  8  16   8  17  14  18  14  19  14  20   8  21   8  22   8  23   8
M  ISO  8  24   8  25  13  26  13  27  13  28  13  29   5  30  13  31  13
M  ISO  2  32  13  33  13
M  END
>  <minimizedAffinity>  (1) 
-4.07300997

>  <minimizedRMSD>  (1) 
5.5535388

$$$$
