
     RDKit          3D

 25 26  0  0  1  0  0  0  0  0999 V2000
   38.0550   23.3960   36.6310 C   0  0  1  0  0  0  0  0  0  0  0  0
   38.3010   25.9160   33.8110 C   0  0  0  0  0  0  0  0  0  0  0  0
   38.1760   24.6720   34.4750 C   0  0  0  0  0  0  0  0  0  0  0  0
   38.1740   24.6710   35.8950 C   0  0  0  0  0  0  0  0  0  0  0  0
   38.2920   25.8670   36.5640 N   0  0  0  0  0  0  0  0  0  0  0  0
   38.4090   27.0340   35.8770 C   0  0  0  0  0  0  0  0  0  0  0  0
   38.4140   27.0670   34.5110 N   0  0  0  0  0  0  0  0  0  0  0  0
   38.1080   22.2020   35.7050 C   0  0  0  0  0  0  0  0  0  0  0  0
   39.1260   23.2290   37.6910 C   0  0  0  0  0  0  0  0  0  0  0  0
   40.3870   22.8200   37.1530 N   0  0  0  0  0  0  0  0  0  0  0  0
   41.0660   21.6790   37.4640 C   0  0  0  0  0  0  0  0  0  0  0  0
   42.2020   21.6390   36.7650 N   0  0  0  0  0  0  0  0  0  0  0  0
   42.2520   22.7630   35.9980 C   0  0  0  0  0  0  0  0  0  0  0  0
   41.1290   23.4590   36.2610 N   0  0  0  0  0  0  0  0  0  0  0  0
   37.0722   23.4398   37.1231 H   0  0  0  0  0  0  0  0  0  0  0  0
   38.3062   25.9465   32.7114 H   0  0  0  0  0  0  0  0  0  0  0  0
   38.0832   23.7341   33.9078 H   0  0  0  0  0  0  0  0  0  0  0  0
   38.5021   27.9770   36.4356 H   0  0  0  0  0  0  0  0  0  0  0  0
   38.1490   21.2779   36.3003 H   0  0  0  0  0  0  0  0  0  0  0  0
   37.2095   22.1899   35.0705 H   0  0  0  0  0  0  0  0  0  0  0  0
   39.0040   22.2695   35.0705 H   0  0  0  0  0  0  0  0  0  0  0  0
   39.2608   24.1908   38.2075 H   0  0  0  0  0  0  0  0  0  0  0  0
   38.7891   22.4378   38.3769 H   0  0  0  0  0  0  0  0  0  0  0  0
   40.7303   20.9127   38.1782 H   0  0  0  0  0  0  0  0  0  0  0  0
   43.0531   23.0472   35.2998 H   0  0  0  0  0  0  0  0  0  0  0  0
  1  9  1  0
  2  3  2  0
  2  7  1  0
  3  4  1  0
  4  5  2  0
  4  1  1  0
  6  5  1  0
  7  6  2  0
  8  1  1  0
 10 11  1  0
 10  9  1  0
 12 11  2  0
 13 14  2  0
 13 12  1  0
 14 10  1  0
  1 15  1  1
  2 16  1  0
  3 17  1  0
  6 18  1  0
  8 19  1  0
  8 20  1  0
  8 21  1  0
  9 22  1  0
  9 23  1  0
 11 24  1  0
 13 25  1  0
M  ISO  8  15   8  16  14  17  14  18  14  19   8  20   8  21   8  22   8
M  ISO  3  23   8  24  14  25  14
M  END
>  <minimizedAffinity>  (1) 
-3.47040272

>  <minimizedRMSD>  (1) 
4.4457407

$$$$
