
     RDKit          3D

 26 27  0  0  1  0  0  0  0  0999 V2000
   38.2440   24.3580   36.8200 C   0  0  1  0  0  0  0  0  0  0  0  0
   41.0120   21.8710   37.4690 C   0  0  0  0  0  0  0  0  0  0  0  0
   39.9760   22.7670   37.7450 C   0  0  0  0  0  0  0  0  0  0  0  0
   39.3450   23.3850   36.6320 C   0  0  0  0  0  0  0  0  0  0  0  0
   39.7860   23.0700   35.3690 N   0  0  0  0  0  0  0  0  0  0  0  0
   40.7820   22.2060   35.1520 C   0  0  0  0  0  0  0  0  0  0  0  0
   41.3950   21.6060   36.2190 N   0  0  0  0  0  0  0  0  0  0  0  0
   37.7950   24.3980   38.2750 C   0  0  0  0  0  0  0  0  0  0  0  0
   38.5590   25.7370   36.3730 C   0  0  0  0  0  0  0  0  0  0  0  0
   37.9180   26.0760   35.1450 N   0  0  0  0  0  0  0  0  0  0  0  0
   37.6800   25.4680   33.9600 C   0  0  0  0  0  0  0  0  0  0  0  0
   36.9730   26.2350   33.0620 C   0  0  0  0  0  0  0  0  0  0  0  0
   36.7590   27.3850   33.7230 N   0  0  0  0  0  0  0  0  0  0  0  0
   37.3230   27.2870   34.9620 C   0  0  0  0  0  0  0  0  0  0  0  0
   37.4332   23.9912   36.1734 H   0  0  0  0  0  0  0  0  0  0  0  0
   41.5250   21.3713   38.3040 H   0  0  0  0  0  0  0  0  0  0  0  0
   39.6631   22.9841   38.7770 H   0  0  0  0  0  0  0  0  0  0  0  0
   41.1063   21.9790   34.1257 H   0  0  0  0  0  0  0  0  0  0  0  0
   38.6736   24.3197   38.9322 H   0  0  0  0  0  0  0  0  0  0  0  0
   37.2732   25.3462   38.4718 H   0  0  0  0  0  0  0  0  0  0  0  0
   37.1139   23.5570   38.4718 H   0  0  0  0  0  0  0  0  0  0  0  0
   38.2287   26.4429   37.1493 H   0  0  0  0  0  0  0  0  0  0  0  0
   39.6451   25.7936   36.2082 H   0  0  0  0  0  0  0  0  0  0  0  0
   38.0224   24.4475   33.7335 H   0  0  0  0  0  0  0  0  0  0  0  0
   36.6573   25.9689   32.0424 H   0  0  0  0  0  0  0  0  0  0  0  0
   37.2998   28.0859   35.7178 H   0  0  0  0  0  0  0  0  0  0  0  0
  1  8  1  0
  2  3  2  0
  4  1  1  0
  4  3  1  0
  5  4  2  0
  6  5  1  0
  6  7  2  0
  7  2  1  0
  9  1  1  0
 10  9  1  0
 11 10  1  0
 12 13  1  0
 12 11  2  0
 13 14  2  0
 14 10  1  0
  1 15  1  6
  2 16  1  0
  3 17  1  0
  6 18  1  0
  8 19  1  0
  8 20  1  0
  8 21  1  0
  9 22  1  0
  9 23  1  0
 11 24  1  0
 12 25  1  0
 14 26  1  0
M  ISO  8  15   8  16  14  17  14  18  14  19   8  20   8  21   8  22   8
M  ISO  4  23   8  24  14  25  14  26  14
M  END
>  <minimizedAffinity>  (1) 
-3.70850682

>  <minimizedRMSD>  (1) 
0.932735026

$$$$
