
     RDKit          3D

 45 48  0  0  1  0  0  0  0  0999 V2000
   39.7010   22.6990   37.1630 C   0  0  0  0  0  0  0  0  0  0  0  0
   39.6070   23.0850   38.4950 C   0  0  0  0  0  0  0  0  0  0  0  0
   38.6610   24.0000   38.9180 C   0  0  0  0  0  0  0  0  0  0  0  0
   37.7750   24.5590   38.0110 C   0  0  0  0  0  0  0  0  0  0  0  0
   37.8590   24.1760   36.6510 C   0  0  0  0  0  0  0  0  0  0  0  0
   38.8180   23.2570   36.2650 C   0  0  0  0  0  0  0  0  0  0  0  0
   38.6380   23.1290   34.8300 C   0  0  0  0  0  0  0  0  0  0  0  0
   39.2830   23.7740   33.7560 C   0  0  0  0  0  0  0  0  0  0  0  0
   38.8980   23.5300   32.4580 C   0  0  0  0  0  0  0  0  0  0  0  0
   37.8790   22.6590   32.1400 C   0  0  0  0  0  0  0  0  0  0  0  0
   37.2390   22.0210   33.1750 C   0  0  0  0  0  0  0  0  0  0  0  0
   36.2270   21.1600   32.8040 C   0  0  0  0  0  0  0  0  0  0  0  0
   35.5360   20.4840   33.7690 C   0  0  0  0  0  0  0  0  0  0  0  0
   35.8580   20.6720   35.0840 C   0  0  0  0  0  0  0  0  0  0  0  0
   36.8780   21.5430   35.4020 C   0  0  0  0  0  0  0  0  0  0  0  0
   37.6050   22.2470   34.4860 C   0  0  0  0  0  0  0  0  0  0  0  0
   40.6520   21.7010   36.7030 C   0  0  0  0  0  0  0  0  0  0  0  0
   41.8300   22.1750   35.9640 C   0  0  2  0  0  0  0  0  0  0  0  0
   42.9750   21.2280   36.1870 C   0  0  0  0  0  0  0  0  0  0  0  0
   42.7670   20.0530   36.9070 C   0  0  0  0  0  0  0  0  0  0  0  0
   43.8400   19.1970   37.0930 C   0  0  0  0  0  0  0  0  0  0  0  0
   45.0490   19.5590   36.5580 N   0  0  0  0  0  0  0  0  0  0  0  0
   45.2210   20.6970   35.8690 C   0  0  0  0  0  0  0  0  0  0  0  0
   44.1770   21.5250   35.6890 N   0  0  0  0  0  0  0  0  0  0  0  0
   42.3540   23.5210   36.4500 C   0  0  0  0  0  0  0  0  0  0  0  0
   40.3017   22.6522   39.2299 H   0  0  0  0  0  0  0  0  0  0  0  0
   38.6114   24.2855   39.9791 H   0  0  0  0  0  0  0  0  0  0  0  0
   37.0200   25.2873   38.3420 H   0  0  0  0  0  0  0  0  0  0  0  0
   37.1691   24.6045   35.9091 H   0  0  0  0  0  0  0  0  0  0  0  0
   40.1025   24.4796   33.9574 H   0  0  0  0  0  0  0  0  0  0  0  0
   39.4235   24.0499   31.6434 H   0  0  0  0  0  0  0  0  0  0  0  0
   37.5880   22.4806   31.0943 H   0  0  0  0  0  0  0  0  0  0  0  0
   35.9790   21.0193   31.7416 H   0  0  0  0  0  0  0  0  0  0  0  0
   34.7265   19.7935   33.4900 H   0  0  0  0  0  0  0  0  0  0  0  0
   35.3123   20.1372   35.8753 H   0  0  0  0  0  0  0  0  0  0  0  0
   37.1226   21.6800   36.4657 H   0  0  0  0  0  0  0  0  0  0  0  0
   41.0150   21.1592   37.5888 H   0  0  0  0  0  0  0  0  0  0  0  0
   40.0915   21.0943   35.9765 H   0  0  0  0  0  0  0  0  0  0  0  0
   41.5018   22.2502   34.9168 H   0  0  0  0  0  0  0  0  0  0  0  0
   41.7754   19.8114   37.3174 H   0  0  0  0  0  0  0  0  0  0  0  0
   43.7256   18.2567   37.6522 H   0  0  0  0  0  0  0  0  0  0  0  0
   46.2079   20.9507   35.4547 H   0  0  0  0  0  0  0  0  0  0  0  0
   42.3601   23.5366   37.5499 H   0  0  0  0  0  0  0  0  0  0  0  0
   43.3770   23.6731   36.0755 H   0  0  0  0  0  0  0  0  0  0  0  0
   41.7031   24.3248   36.0755 H   0  0  0  0  0  0  0  0  0  0  0  0
  1  2  2  0
  2  3  1  0
  4  3  2  0
  5  4  1  0
  6  5  2  0
  6  1  1  0
  7  6  1  0
  8  7  2  0
  9  8  1  0
 10  9  2  0
 10 11  1  0
 11 16  2  0
 12 11  1  0
 12 13  2  0
 13 14  1  0
 14 15  2  0
 16  7  1  0
 16 15  1  0
 17  1  1  0
 18 19  1  0
 18 25  1  0
 18 17  1  0
 19 20  2  0
 20 21  1  0
 22 21  2  0
 23 22  1  0
 24 23  2  0
 24 19  1  0
  2 26  1  0
  3 27  1  0
  4 28  1  0
  5 29  1  0
  8 30  1  0
  9 31  1  0
 10 32  1  0
 12 33  1  0
 13 34  1  0
 14 35  1  0
 15 36  1  0
 17 37  1  0
 17 38  1  0
 18 39  1  6
 20 40  1  0
 21 41  1  0
 23 42  1  0
 25 43  1  0
 25 44  1  0
 25 45  1  0
M  ISO  8  26  14  27  14  28  14  29  14  30  14  31  14  32  14  33  14
M  ISO  8  34  14  35  14  36  14  37   8  38   8  39   8  40  14  41  14
M  ISO  4  42  14  43   8  44   8  45   8
M  END
>  <minimizedAffinity>  (1) 
-5.65607548

>  <minimizedRMSD>  (1) 
0.986815572

$$$$
