
     RDKit          3D

 28 29  0  0  1  0  0  0  0  0999 V2000
   38.4110   24.0230   36.4400 C   0  0  1  0  0  0  0  0  0  0  0  0
   41.2370   21.7720   37.5380 C   0  0  0  0  0  0  0  0  0  0  0  0
   40.1260   22.6100   37.6220 C   0  0  0  0  0  0  0  0  0  0  0  0
   39.5760   23.1220   36.4130 C   0  0  0  0  0  0  0  0  0  0  0  0
   40.1760   22.7570   35.2390 N   0  0  0  0  0  0  0  0  0  0  0  0
   41.2310   21.9600   35.1840 C   0  0  0  0  0  0  0  0  0  0  0  0
   41.7640   21.4650   36.3560 N   0  0  0  0  0  0  0  0  0  0  0  0
   37.9460   24.2970   37.8480 C   0  0  0  0  0  0  0  0  0  0  0  0
   38.6540   25.3160   35.7170 C   0  0  0  0  0  0  0  0  0  0  0  0
   37.9770   25.4000   34.4830 N   0  0  0  0  0  0  0  0  0  0  0  0
   37.8040   24.5800   33.4360 C   0  0  0  0  0  0  0  0  0  0  0  0
   37.0400   25.0980   32.4120 C   0  0  0  0  0  0  0  0  0  0  0  0
   36.7210   26.3180   32.8590 N   0  0  0  0  0  0  0  0  0  0  0  0
   37.2770   26.4910   34.0810 C   0  0  0  0  0  0  0  0  0  0  0  0
   37.0860   27.7570   34.8140 C   0  0  0  0  0  0  0  0  0  0  0  0
   36.2560   28.6310   34.5240 O   0  0  0  0  0  0  0  0  0  0  0  0
   37.6132   23.4890   35.9029 H   0  0  0  0  0  0  0  0  0  0  0  0
   41.6813   21.3614   38.4567 H   0  0  0  0  0  0  0  0  0  0  0  0
   39.6862   22.8686   38.5965 H   0  0  0  0  0  0  0  0  0  0  0  0
   41.6779   21.6952   34.2144 H   0  0  0  0  0  0  0  0  0  0  0  0
   38.6672   23.8720   38.5616 H   0  0  0  0  0  0  0  0  0  0  0  0
   37.8717   25.3832   38.0048 H   0  0  0  0  0  0  0  0  0  0  0  0
   36.9598   23.8356   38.0048 H   0  0  0  0  0  0  0  0  0  0  0  0
   38.3158   26.1435   36.3580 H   0  0  0  0  0  0  0  0  0  0  0  0
   39.7314   25.3721   35.5024 H   0  0  0  0  0  0  0  0  0  0  0  0
   38.2389   23.5703   33.3972 H   0  0  0  0  0  0  0  0  0  0  0  0
   36.7607   24.6238   31.4596 H   0  0  0  0  0  0  0  0  0  0  0  0
   37.7307   27.9398   35.6863 H   0  0  0  0  0  0  0  0  0  0  0  0
  1  8  1  0
  2  3  2  0
  4  1  1  0
  4  3  1  0
  5  4  2  0
  6  5  1  0
  6  7  2  0
  7  2  1  0
  9  1  1  0
 10  9  1  0
 11 10  1  0
 12 13  1  0
 12 11  2  0
 13 14  2  0
 14 10  1  0
 14 15  1  0
 16 15  2  0
  1 17  1  6
  2 18  1  0
  3 19  1  0
  6 20  1  0
  8 21  1  0
  8 22  1  0
  8 23  1  0
  9 24  1  0
  9 25  1  0
 11 26  1  0
 12 27  1  0
 15 28  1  0
M  ISO  8  17   8  18  14  19  14  20  14  21   8  22   8  23   8  24   8
M  ISO  4  25   8  26  14  27  14  28   6
M  END
>  <minimizedAffinity>  (1) 
-3.89546299

>  <minimizedRMSD>  (1) 
0.96672678

$$$$
