
     RDKit          3D

 42 44  0  0  1  0  0  0  0  0999 V2000
   39.9790   23.3860   36.5720 C   0  0  0  0  0  0  0  0  0  0  0  0
   39.8360   22.9820   37.8940 C   0  0  0  0  0  0  0  0  0  0  0  0
   38.7270   23.3340   38.6560 C   0  0  0  0  0  0  0  0  0  0  0  0
   37.7320   24.1120   38.0900 C   0  0  0  0  0  0  0  0  0  0  0  0
   37.8550   24.5370   36.7460 C   0  0  0  0  0  0  0  0  0  0  0  0
   38.9710   24.1590   36.0370 C   0  0  0  0  0  0  0  0  0  0  0  0
   38.8140   24.6890   34.7260 N   0  0  0  0  0  0  0  0  0  0  0  0
   38.0740   23.9660   33.8230 C   0  0  0  0  0  0  0  0  0  0  0  0
   37.9290   24.5360   32.5720 C   0  0  0  0  0  0  0  0  0  0  0  0
   37.1420   23.7910   31.5770 C   0  0  0  0  0  0  0  0  0  0  0  0
   38.5270   25.7670   32.3200 C   0  0  0  0  0  0  0  0  0  0  0  0
   38.3470   26.2160   31.1530 O   0  0  0  0  0  0  0  0  0  0  0  0
   39.2380   26.4440   33.2120 N   0  0  0  0  0  0  0  0  0  0  0  0
   39.3960   25.9050   34.4570 C   0  0  0  0  0  0  0  0  0  0  0  0
   40.0460   26.4640   35.3630 O   0  0  0  0  0  0  0  0  0  0  0  0
   41.1100   23.0170   35.7500 C   0  0  0  0  0  0  0  0  0  0  0  0
   42.4130   22.8400   36.4080 C   0  0  2  0  0  0  0  0  0  0  0  0
   43.2770   24.0420   36.1260 C   0  0  0  0  0  0  0  0  0  0  0  0
   43.1100   24.7510   34.9350 C   0  0  0  0  0  0  0  0  0  0  0  0
   43.9160   25.8440   34.6960 C   0  0  0  0  0  0  0  0  0  0  0  0
   44.8440   26.1670   35.6580 N   0  0  0  0  0  0  0  0  0  0  0  0
   44.9900   25.4720   36.7990 C   0  0  0  0  0  0  0  0  0  0  0  0
   44.1960   24.4130   37.0120 N   0  0  0  0  0  0  0  0  0  0  0  0
   43.2200   21.6640   35.8930 C   0  0  0  0  0  0  0  0  0  0  0  0
   40.6236   22.3653   38.3515 H   0  0  0  0  0  0  0  0  0  0  0  0
   38.6414   22.9970   39.6996 H   0  0  0  0  0  0  0  0  0  0  0  0
   36.8502   24.3984   38.6819 H   0  0  0  0  0  0  0  0  0  0  0  0
   37.0751   25.1561   36.2786 H   0  0  0  0  0  0  0  0  0  0  0  0
   37.6251   22.9949   34.0789 H   0  0  0  0  0  0  0  0  0  0  0  0
   36.4365   23.1231   32.0929 H   0  0  0  0  0  0  0  0  0  0  0  0
   36.5831   24.4987   30.9470 H   0  0  0  0  0  0  0  0  0  0  0  0
   37.8180   23.1942   30.9470 H   0  0  0  0  0  0  0  0  0  0  0  0
   39.6599   27.3525   32.9720 H   0  0  0  0  0  0  0  0  0  0  0  0
   41.2316   23.8023   34.9894 H   0  0  0  0  0  0  0  0  0  0  0  0
   40.8572   22.0170   35.3677 H   0  0  0  0  0  0  0  0  0  0  0  0
   42.1738   22.6846   37.4704 H   0  0  0  0  0  0  0  0  0  0  0  0
   42.3501   24.4437   34.2014 H   0  0  0  0  0  0  0  0  0  0  0  0
   43.8204   26.4340   33.7726 H   0  0  0  0  0  0  0  0  0  0  0  0
   45.7453   25.7660   37.5427 H   0  0  0  0  0  0  0  0  0  0  0  0
   43.6144   21.0892   36.7439 H   0  0  0  0  0  0  0  0  0  0  0  0
   42.5749   21.0167   35.2807 H   0  0  0  0  0  0  0  0  0  0  0  0
   44.0560   22.0330   35.2807 H   0  0  0  0  0  0  0  0  0  0  0  0
  1  2  2  0
  2  3  1  0
  4  3  2  0
  5  4  1  0
  6  1  1  0
  6  5  2  0
  7  6  1  0
  8  7  1  0
  9  8  2  0
 10  9  1  0
 11  9  1  0
 11 13  1  0
 12 11  2  0
 13 14  1  0
 14  7  1  0
 14 15  2  0
 16 17  1  0
 16  1  1  0
 18 17  1  0
 18 23  1  0
 19 18  2  0
 20 19  1  0
 20 21  2  0
 21 22  1  0
 22 23  2  0
 24 17  1  0
  2 25  1  0
  3 26  1  0
  4 27  1  0
  5 28  1  0
  8 29  1  0
 10 30  1  0
 10 31  1  0
 10 32  1  0
 13 33  1  0
 16 34  1  0
 16 35  1  0
 17 36  1  1
 19 37  1  0
 20 38  1  0
 22 39  1  0
 24 40  1  0
 24 41  1  0
 24 42  1  0
M  ISO  8  25  14  26  14  27  14  28  14  29  14  30   8  31   8  32   8
M  ISO  8  33   9  34   8  35   8  36   8  37  14  38  14  39  14  40   8
M  ISO  2  41   8  42   8
M  END
>  <minimizedAffinity>  (1) 
-5.43702698

>  <minimizedRMSD>  (1) 
3.67346811

$$$$
