
     RDKit          3D

 42 45  0  0  1  0  0  0  0  0999 V2000
   38.9800   25.0630   35.7740 C   0  0  0  0  0  0  0  0  0  0  0  0
   40.0560   25.6590   35.0930 N   0  0  0  0  0  0  0  0  0  0  0  0
   40.2560   26.8620   34.5130 C   0  0  0  0  0  0  0  0  0  0  0  0
   41.4940   27.0120   33.9200 C   0  0  0  0  0  0  0  0  0  0  0  0
   42.0840   25.8470   34.1460 N   0  0  0  0  0  0  0  0  0  0  0  0
   41.2330   25.0300   34.8480 C   0  0  0  0  0  0  0  0  0  0  0  0
   41.7650   23.7060   35.1400 C   0  0  0  0  0  0  0  0  0  0  0  0
   42.1750   23.2800   36.3870 C   0  0  0  0  0  0  0  0  0  0  0  0
   42.6340   22.0240   36.7170 C   0  0  0  0  0  0  0  0  0  0  0  0
   42.7050   21.0710   35.7230 C   0  0  0  0  0  0  0  0  0  0  0  0
   42.3160   21.4160   34.4620 C   0  0  0  0  0  0  0  0  0  0  0  0
   42.3900   20.4210   33.5120 C   0  0  0  0  0  0  0  0  0  0  0  0
   41.9990   20.6670   32.2150 C   0  0  0  0  0  0  0  0  0  0  0  0
   41.5370   21.9410   31.9160 C   0  0  0  0  0  0  0  0  0  0  0  0
   41.4870   22.8970   32.9060 C   0  0  0  0  0  0  0  0  0  0  0  0
   41.8680   22.6920   34.2120 C   0  0  0  0  0  0  0  0  0  0  0  0
   37.9820   24.4280   34.8530 C   0  0  1  0  0  0  0  0  0  0  0  0
   38.1660   25.5210   31.2370 C   0  0  0  0  0  0  0  0  0  0  0  0
   38.3720   24.7450   32.3780 C   0  0  0  0  0  0  0  0  0  0  0  0
   37.7970   25.1890   33.5990 C   0  0  0  0  0  0  0  0  0  0  0  0
   37.0750   26.3530   33.5840 N   0  0  0  0  0  0  0  0  0  0  0  0
   36.8950   27.0710   32.4840 C   0  0  0  0  0  0  0  0  0  0  0  0
   37.4480   26.6500   31.2890 N   0  0  0  0  0  0  0  0  0  0  0  0
   38.3410   22.9890   34.5770 C   0  0  0  0  0  0  0  0  0  0  0  0
   39.3771   24.2892   36.4475 H   0  0  0  0  0  0  0  0  0  0  0  0
   38.4583   25.8594   36.3250 H   0  0  0  0  0  0  0  0  0  0  0  0
   39.4955   27.6568   34.5129 H   0  0  0  0  0  0  0  0  0  0  0  0
   41.8942   27.8877   33.3880 H   0  0  0  0  0  0  0  0  0  0  0  0
   42.1307   24.0191   37.2005 H   0  0  0  0  0  0  0  0  0  0  0  0
   42.9364   21.7871   37.7478 H   0  0  0  0  0  0  0  0  0  0  0  0
   43.0671   20.0557   35.9420 H   0  0  0  0  0  0  0  0  0  0  0  0
   42.7635   19.4247   33.7912 H   0  0  0  0  0  0  0  0  0  0  0  0
   42.0509   19.8833   31.4448 H   0  0  0  0  0  0  0  0  0  0  0  0
   41.2125   22.1859   30.8939 H   0  0  0  0  0  0  0  0  0  0  0  0
   41.1159   23.8959   32.6331 H   0  0  0  0  0  0  0  0  0  0  0  0
   37.0124   24.4474   35.3721 H   0  0  0  0  0  0  0  0  0  0  0  0
   38.6006   25.2000   30.2788 H   0  0  0  0  0  0  0  0  0  0  0  0
   38.9617   23.8175   32.3336 H   0  0  0  0  0  0  0  0  0  0  0  0
   36.3068   27.9998   32.5222 H   0  0  0  0  0  0  0  0  0  0  0  0
   38.4742   22.4551   35.5295 H   0  0  0  0  0  0  0  0  0  0  0  0
   37.5339   22.5139   34.0001 H   0  0  0  0  0  0  0  0  0  0  0  0
   39.2767   22.9487   34.0001 H   0  0  0  0  0  0  0  0  0  0  0  0
  2  1  1  0
  3  2  1  0
  4  5  1  0
  4  3  2  0
  5  6  2  0
  6  2  1  0
  6  7  1  0
  7  8  2  0
  8  9  1  0
 10  9  2  0
 11 10  1  0
 12 11  2  0
 13 12  1  0
 14 13  2  0
 14 15  1  0
 15 16  2  0
 16 11  1  0
 16  7  1  0
 17  1  1  0
 18 23  2  0
 18 19  1  0
 19 20  2  0
 20 17  1  0
 21 20  1  0
 22 21  2  0
 23 22  1  0
 24 17  1  0
  1 25  1  0
  1 26  1  0
  3 27  1  0
  4 28  1  0
  8 29  1  0
  9 30  1  0
 10 31  1  0
 12 32  1  0
 13 33  1  0
 14 34  1  0
 15 35  1  0
 17 36  1  1
 18 37  1  0
 19 38  1  0
 22 39  1  0
 24 40  1  0
 24 41  1  0
 24 42  1  0
M  ISO  8  25   8  26   8  27  14  28  14  29  14  30  14  31  14  32  14
M  ISO  8  33  14  34  14  35  14  36   8  37  14  38  14  39  14  40   8
M  ISO  2  41   8  42   8
M  END
>  <minimizedAffinity>  (1) 
-3.85804224

>  <minimizedRMSD>  (1) 
7.78167295

$$$$
