
     RDKit          3D

 43 46  0  0  1  0  0  0  0  0999 V2000
   37.4280   25.9780   32.8980 N   0  0  0  0  0  0  0  0  0  0  0  0
   37.0300   24.9530   32.1400 C   0  0  0  0  0  0  0  0  0  0  0  0
   35.9670   25.2370   31.3220 C   0  0  0  0  0  0  0  0  0  0  0  0
   35.6850   26.5130   31.5840 N   0  0  0  0  0  0  0  0  0  0  0  0
   36.5650   26.9620   32.5330 C   0  0  0  0  0  0  0  0  0  0  0  0
   36.4900   28.4020   32.9950 C   0  0  1  0  0  0  0  0  0  0  0  0
   35.5130   29.2680   32.2970 C   0  0  0  0  0  0  0  0  0  0  0  0
   35.2020   28.7940   33.6990 C   0  0  2  0  0  0  0  0  0  0  0  0
   35.1780   29.8700   34.6400 N   0  0  0  0  0  0  0  0  0  0  0  0
   36.1730   30.6280   35.1360 C   0  0  0  0  0  0  0  0  0  0  0  0
   35.9110   31.6290   36.0500 C   0  0  0  0  0  0  0  0  0  0  0  0
   34.6290   31.8900   36.4910 C   0  0  0  0  0  0  0  0  0  0  0  0
   34.4100   32.8040   37.3240 O   0  0  0  0  0  0  0  0  0  0  0  0
   33.6580   31.1140   35.9770 N   0  0  0  0  0  0  0  0  0  0  0  0
   33.9060   30.1230   35.0730 C   0  0  0  0  0  0  0  0  0  0  0  0
   32.8570   29.4950   34.7010 O   0  0  0  0  0  0  0  0  0  0  0  0
   38.4310   26.1750   33.8730 C   0  0  0  0  0  0  0  0  0  0  0  0
   37.9250   26.1050   35.2650 C   0  0  1  0  0  0  0  0  0  0  0  0
   38.4880   23.4950   37.9510 C   0  0  0  0  0  0  0  0  0  0  0  0
   37.9190   24.5910   37.2980 C   0  0  0  0  0  0  0  0  0  0  0  0
   38.4680   24.9710   36.0400 C   0  0  0  0  0  0  0  0  0  0  0  0
   39.5300   24.2430   35.5290 N   0  0  0  0  0  0  0  0  0  0  0  0
   40.0450   23.2070   36.1790 C   0  0  0  0  0  0  0  0  0  0  0  0
   39.5260   22.8180   37.4060 N   0  0  0  0  0  0  0  0  0  0  0  0
   38.1900   27.4140   36.0010 C   0  0  0  0  0  0  0  0  0  0  0  0
   37.5136   23.9655   32.1694 H   0  0  0  0  0  0  0  0  0  0  0  0
   35.4623   24.5654   30.6119 H   0  0  0  0  0  0  0  0  0  0  0  0
   37.5627   28.4815   33.2254 H   0  0  0  0  0  0  0  0  0  0  0  0
   35.7507   30.3269   32.1175 H   0  0  0  0  0  0  0  0  0  0  0  0
   34.9889   29.2178   31.3312 H   0  0  0  0  0  0  0  0  0  0  0  0
   34.4441   28.2032   34.2343 H   0  0  0  0  0  0  0  0  0  0  0  0
   37.2078   30.4479   34.8092 H   0  0  0  0  0  0  0  0  0  0  0  0
   36.7446   32.2338   36.4366 H   0  0  0  0  0  0  0  0  0  0  0  0
   32.6864   31.2748   36.2787 H   0  0  0  0  0  0  0  0  0  0  0  0
   39.2002   25.3995   33.7428 H   0  0  0  0  0  0  0  0  0  0  0  0
   38.8313   27.1888   33.7250 H   0  0  0  0  0  0  0  0  0  0  0  0
   36.8414   25.9358   35.1808 H   0  0  0  0  0  0  0  0  0  0  0  0
   38.0860   23.1768   38.9242 H   0  0  0  0  0  0  0  0  0  0  0  0
   37.0757   25.1417   37.7403 H   0  0  0  0  0  0  0  0  0  0  0  0
   40.8889   22.6528   35.7424 H   0  0  0  0  0  0  0  0  0  0  0  0
   38.1544   27.2381   37.0863 H   0  0  0  0  0  0  0  0  0  0  0  0
   39.1837   27.7958   35.7238 H   0  0  0  0  0  0  0  0  0  0  0  0
   37.4231   28.1523   35.7238 H   0  0  0  0  0  0  0  0  0  0  0  0
  1 17  1  0
  2  1  1  0
  3  4  1  0
  3  2  2  0
  4  5  2  0
  5  1  1  0
  5  6  1  0
  6  8  1  0
  7  6  1  0
  7  8  1  0
  8  9  1  0
  9 15  1  0
  9 10  1  0
 10 11  2  0
 11 12  1  0
 12 13  2  0
 14 12  1  0
 15 14  1  0
 16 15  2  0
 17 18  1  0
 18 25  1  0
 18 21  1  0
 20 19  2  0
 21 20  1  0
 22 21  2  0
 22 23  1  0
 23 24  2  0
 24 19  1  0
  2 26  1  0
  3 27  1  0
  6 28  1  1
  7 29  1  0
  7 30  1  0
  8 31  1  6
 10 32  1  0
 11 33  1  0
 14 34  1  0
 17 35  1  0
 17 36  1  0
 18 37  1  6
 19 38  1  0
 20 39  1  0
 23 40  1  0
 25 41  1  0
 25 42  1  0
 25 43  1  0
M  ISO  8  26  14  27  14  28  13  29  13  30  13  31  13  32  14  33  14
M  ISO  8  34   9  35   8  36   8  37   8  38  14  39  14  40  14  41   8
M  ISO  2  42   8  43   8
M  END
>  <minimizedAffinity>  (1) 
-5.82261181

>  <minimizedRMSD>  (1) 
1.19213593

$$$$
