
     RDKit          3D

 47 51  0  0  1  0  0  0  0  0999 V2000
   37.5830   25.3340   33.0590 N   0  0  0  0  0  0  0  0  0  0  0  0
   37.1430   24.1810   32.5380 C   0  0  0  0  0  0  0  0  0  0  0  0
   36.1320   24.3310   31.6220 C   0  0  0  0  0  0  0  0  0  0  0  0
   35.9350   25.6510   31.5720 N   0  0  0  0  0  0  0  0  0  0  0  0
   36.8060   26.2490   32.4340 C   0  0  0  0  0  0  0  0  0  0  0  0
   36.8120   27.7550   32.5420 C   0  0  1  0  0  0  0  0  0  0  0  0
   36.3630   28.4990   31.3390 C   0  0  0  0  0  0  0  0  0  0  0  0
   35.4620   28.4440   32.5280 C   0  0  2  0  0  0  0  0  0  0  0  0
   35.3330   29.6580   33.3100 N   0  0  0  0  0  0  0  0  0  0  0  0
   34.7160   29.7420   34.5230 C   0  0  0  0  0  0  0  0  0  0  0  0
   34.7640   31.0190   34.9940 N   0  0  0  0  0  0  0  0  0  0  0  0
   35.4200   31.7750   34.0780 C   0  0  0  0  0  0  0  0  0  0  0  0
   35.7610   33.1070   34.0130 C   0  0  0  0  0  0  0  0  0  0  0  0
   35.4580   33.8970   34.9360 O   0  0  0  0  0  0  0  0  0  0  0  0
   36.4380   33.5830   32.9310 N   0  0  0  0  0  0  0  0  0  0  0  0
   36.7580   32.7160   31.9390 C   0  0  0  0  0  0  0  0  0  0  0  0
   37.4700   33.2520   30.8200 N   0  0  0  0  0  0  0  0  0  0  0  0
   36.4140   31.4180   32.0230 N   0  0  0  0  0  0  0  0  0  0  0  0
   35.7490   30.9070   33.0670 C   0  0  0  0  0  0  0  0  0  0  0  0
   38.5600   25.6910   34.0120 C   0  0  0  0  0  0  0  0  0  0  0  0
   38.0440   25.7390   35.4020 C   0  0  1  0  0  0  0  0  0  0  0  0
   38.6480   23.4220   38.3370 C   0  0  0  0  0  0  0  0  0  0  0  0
   38.0420   24.4370   37.5820 C   0  0  0  0  0  0  0  0  0  0  0  0
   38.6110   24.7030   36.2930 C   0  0  0  0  0  0  0  0  0  0  0  0
   39.7030   23.9690   35.8610 N   0  0  0  0  0  0  0  0  0  0  0  0
   40.2410   23.0140   36.6230 C   0  0  0  0  0  0  0  0  0  0  0  0
   39.7110   22.7350   37.8740 N   0  0  0  0  0  0  0  0  0  0  0  0
   38.2570   27.1240   36.0070 C   0  0  0  0  0  0  0  0  0  0  0  0
   37.5554   23.2008   32.8194 H   0  0  0  0  0  0  0  0  0  0  0  0
   35.6058   23.5458   31.0593 H   0  0  0  0  0  0  0  0  0  0  0  0
   37.6940   27.7856   33.1987 H   0  0  0  0  0  0  0  0  0  0  0  0
   36.0955   27.9492   30.4246 H   0  0  0  0  0  0  0  0  0  0  0  0
   36.7889   29.3114   30.7318 H   0  0  0  0  0  0  0  0  0  0  0  0
   34.4227   28.1337   32.7113 H   0  0  0  0  0  0  0  0  0  0  0  0
   34.2456   28.8972   35.0474 H   0  0  0  0  0  0  0  0  0  0  0  0
   36.7003   34.5770   32.8681 H   0  0  0  0  0  0  0  0  0  0  0  0
   37.7138   34.2525   30.7959 H   0  0  0  0  0  0  0  0  0  0  0  0
   37.7389   32.6375   30.0384 H   0  0  0  0  0  0  0  0  0  0  0  0
   39.3743   24.9527   33.9686 H   0  0  0  0  0  0  0  0  0  0  0  0
   38.9015   26.7057   33.7594 H   0  0  0  0  0  0  0  0  0  0  0  0
   36.9681   25.5230   35.3258 H   0  0  0  0  0  0  0  0  0  0  0  0
   38.2455   23.1807   39.3319 H   0  0  0  0  0  0  0  0  0  0  0  0
   37.1753   24.9997   37.9592 H   0  0  0  0  0  0  0  0  0  0  0  0
   41.1088   22.4457   36.2570 H   0  0  0  0  0  0  0  0  0  0  0  0
   38.2457   27.0504   37.1045 H   0  0  0  0  0  0  0  0  0  0  0  0
   39.2271   27.5234   35.6763 H   0  0  0  0  0  0  0  0  0  0  0  0
   37.4517   27.7964   35.6763 H   0  0  0  0  0  0  0  0  0  0  0  0
  1 20  1  0
  2  1  1  0
  3  2  2  0
  4  3  1  0
  4  5  2  0
  5  6  1  0
  5  1  1  0
  7  8  1  0
  7  6  1  0
  8  6  1  0
  8  9  1  0
  9 10  1  0
 10 11  2  0
 12 11  1  0
 13 12  1  0
 13 14  2  0
 15 13  1  0
 16 18  2  0
 16 15  1  0
 17 16  1  0
 18 19  1  0
 19  9  1  0
 19 12  2  0
 20 21  1  0
 21 28  1  0
 21 24  1  0
 23 22  2  0
 24 23  1  0
 25 24  2  0
 25 26  1  0
 26 27  2  0
 27 22  1  0
  2 29  1  0
  3 30  1  0
  6 31  1  1
  7 32  1  0
  7 33  1  0
  8 34  1  6
 10 35  1  0
 15 36  1  0
 17 37  1  0
 17 38  1  0
 20 39  1  0
 20 40  1  0
 21 41  1  6
 22 42  1  0
 23 43  1  0
 26 44  1  0
 28 45  1  0
 28 46  1  0
 28 47  1  0
M  ISO  8  29  14  30  14  31  13  32  13  33  13  34  13  35  14  36   9
M  ISO  8  39   8  40   8  41   8  42  14  43  14  44  14  45   8  46   8
M  ISO  1  47   8
M  END
>  <minimizedAffinity>  (1) 
-5.8580265

>  <minimizedRMSD>  (1) 
1.2965399

$$$$
