
     RDKit          3D

 44 47  0  0  1  0  0  0  0  0999 V2000
   37.4200   25.9150   32.9230 N   0  0  0  0  0  0  0  0  0  0  0  0
   37.0030   24.8630   32.2140 C   0  0  0  0  0  0  0  0  0  0  0  0
   35.9330   25.1270   31.3950 C   0  0  0  0  0  0  0  0  0  0  0  0
   35.6740   26.4210   31.6120 N   0  0  0  0  0  0  0  0  0  0  0  0
   36.5670   26.9010   32.5310 C   0  0  0  0  0  0  0  0  0  0  0  0
   36.5050   28.3460   32.9240 C   0  0  1  0  0  0  0  0  0  0  0  0
   35.8770   29.2850   31.9690 C   0  0  0  0  0  0  0  0  0  0  0  0
   35.1460   28.9080   33.2360 C   0  0  2  0  0  0  0  0  0  0  0  0
   34.9370   30.0150   34.1030 N   0  0  0  0  0  0  0  0  0  0  0  0
   36.0210   30.2090   34.9140 C   0  0  0  0  0  0  0  0  0  0  0  0
   36.0400   31.2480   35.8540 C   0  0  0  0  0  0  0  0  0  0  0  0
   34.9360   32.0690   35.9390 C   0  0  0  0  0  0  0  0  0  0  0  0
   34.8300   33.1550   36.8450 N   0  0  0  0  0  0  0  0  0  0  0  0
   33.8980   31.8460   35.1270 N   0  0  0  0  0  0  0  0  0  0  0  0
   33.9100   30.8390   34.2350 C   0  0  0  0  0  0  0  0  0  0  0  0
   32.9640   30.6150   33.4760 O   0  0  0  0  0  0  0  0  0  0  0  0
   38.4360   26.1400   33.8780 C   0  0  0  0  0  0  0  0  0  0  0  0
   37.9550   26.0790   35.2800 C   0  0  1  0  0  0  0  0  0  0  0  0
   38.5250   23.4630   37.9570 C   0  0  0  0  0  0  0  0  0  0  0  0
   37.9370   24.5600   37.3130 C   0  0  0  0  0  0  0  0  0  0  0  0
   38.5050   24.9470   36.0560 C   0  0  0  0  0  0  0  0  0  0  0  0
   39.5820   24.2390   35.5460 N   0  0  0  0  0  0  0  0  0  0  0  0
   40.1030   23.2020   36.2010 C   0  0  0  0  0  0  0  0  0  0  0  0
   39.5680   22.8120   37.4200 N   0  0  0  0  0  0  0  0  0  0  0  0
   38.2400   27.3910   36.0040 C   0  0  0  0  0  0  0  0  0  0  0  0
   37.4753   23.8718   32.2803 H   0  0  0  0  0  0  0  0  0  0  0  0
   35.4105   24.4352   30.7180 H   0  0  0  0  0  0  0  0  0  0  0  0
   37.4708   28.3126   33.4495 H   0  0  0  0  0  0  0  0  0  0  0  0
   36.2825   30.3007   31.8506 H   0  0  0  0  0  0  0  0  0  0  0  0
   35.6360   29.2546   30.8962 H   0  0  0  0  0  0  0  0  0  0  0  0
   34.2169   28.4180   33.5627 H   0  0  0  0  0  0  0  0  0  0  0  0
   36.8900   29.5402   34.8272 H   0  0  0  0  0  0  0  0  0  0  0  0
   36.9119   31.4042   36.5062 H   0  0  0  0  0  0  0  0  0  0  0  0
   33.9770   33.7321   36.8596 H   0  0  0  0  0  0  0  0  0  0  0  0
   35.6060   33.3666   37.4883 H   0  0  0  0  0  0  0  0  0  0  0  0
   39.2153   25.3754   33.7438 H   0  0  0  0  0  0  0  0  0  0  0  0
   38.8170   27.1583   33.7109 H   0  0  0  0  0  0  0  0  0  0  0  0
   36.8698   25.9123   35.2131 H   0  0  0  0  0  0  0  0  0  0  0  0
   38.1224   23.1282   38.9244 H   0  0  0  0  0  0  0  0  0  0  0  0
   37.0824   25.0969   37.7506 H   0  0  0  0  0  0  0  0  0  0  0  0
   40.9572   22.6553   35.7751 H   0  0  0  0  0  0  0  0  0  0  0  0
   38.2040   27.2253   37.0909 H   0  0  0  0  0  0  0  0  0  0  0  0
   39.2384   27.7562   35.7216 H   0  0  0  0  0  0  0  0  0  0  0  0
   37.4831   28.1375   35.7216 H   0  0  0  0  0  0  0  0  0  0  0  0
  1 17  1  0
  2  1  1  0
  3  4  1  0
  3  2  2  0
  4  5  2  0
  5  1  1  0
  5  6  1  0
  6  8  1  0
  7  6  1  0
  7  8  1  0
  8  9  1  0
  9 15  1  0
  9 10  1  0
 10 11  2  0
 11 12  1  0
 12 13  1  0
 14 12  2  0
 15 14  1  0
 16 15  2  0
 17 18  1  0
 18 25  1  0
 18 21  1  0
 20 19  2  0
 21 20  1  0
 22 21  2  0
 22 23  1  0
 23 24  2  0
 24 19  1  0
  2 26  1  0
  3 27  1  0
  6 28  1  1
  7 29  1  0
  7 30  1  0
  8 31  1  6
 10 32  1  0
 11 33  1  0
 13 34  1  0
 13 35  1  0
 17 36  1  0
 17 37  1  0
 18 38  1  6
 19 39  1  0
 20 40  1  0
 23 41  1  0
 25 42  1  0
 25 43  1  0
 25 44  1  0
M  ISO  8  26  14  27  14  28  13  29  13  30  13  31  13  32  14  33  14
M  ISO  8  36   8  37   8  38   8  39  14  40  14  41  14  42   8  43   8
M  ISO  1  44   8
M  END
>  <minimizedAffinity>  (1) 
-5.71178532

>  <minimizedRMSD>  (1) 
1.46073687

$$$$
