
     RDKit          3D

 40 43  0  0  1  0  0  0  0  0999 V2000
   39.9370   23.2570   36.5830 C   0  0  0  0  0  0  0  0  0  0  0  0
   40.0290   23.1110   37.9640 C   0  0  0  0  0  0  0  0  0  0  0  0
   38.9090   23.2490   38.7800 C   0  0  0  0  0  0  0  0  0  0  0  0
   37.6710   23.5360   38.2270 C   0  0  0  0  0  0  0  0  0  0  0  0
   37.5660   23.6860   36.8250 C   0  0  0  0  0  0  0  0  0  0  0  0
   38.7000   23.5410   36.0480 C   0  0  0  0  0  0  0  0  0  0  0  0
   38.2870   23.7050   34.7000 N   0  0  0  0  0  0  0  0  0  0  0  0
   37.8390   22.6970   33.8860 C   0  0  0  0  0  0  0  0  0  0  0  0
   37.4950   23.1740   32.6570 N   0  0  0  0  0  0  0  0  0  0  0  0
   37.7220   24.4820   32.6820 C   0  0  0  0  0  0  0  0  0  0  0  0
   37.6080   25.5600   31.8260 C   0  0  0  0  0  0  0  0  0  0  0  0
   37.9170   26.8330   32.1070 N   0  0  0  0  0  0  0  0  0  0  0  0
   38.3850   27.1180   33.3300 C   0  0  0  0  0  0  0  0  0  0  0  0
   38.5290   26.1110   34.2370 N   0  0  0  0  0  0  0  0  0  0  0  0
   38.2110   24.8390   33.9310 C   0  0  0  0  0  0  0  0  0  0  0  0
   41.0770   23.0980   35.7030 C   0  0  0  0  0  0  0  0  0  0  0  0
   42.4040   23.4670   36.2240 C   0  0  2  0  0  0  0  0  0  0  0  0
   42.9080   24.6780   35.4930 C   0  0  0  0  0  0  0  0  0  0  0  0
   42.0380   25.4080   34.6790 C   0  0  0  0  0  0  0  0  0  0  0  0
   42.5250   26.5170   34.0130 C   0  0  0  0  0  0  0  0  0  0  0  0
   43.8450   26.8320   34.1950 N   0  0  0  0  0  0  0  0  0  0  0  0
   44.6670   26.1210   34.9800 C   0  0  0  0  0  0  0  0  0  0  0  0
   44.1810   25.0440   35.6220 N   0  0  0  0  0  0  0  0  0  0  0  0
   43.4780   22.4130   35.9870 C   0  0  0  0  0  0  0  0  0  0  0  0
   41.0040   22.8825   38.4192 H   0  0  0  0  0  0  0  0  0  0  0  0
   39.0074   23.1296   39.8691 H   0  0  0  0  0  0  0  0  0  0  0  0
   36.7842   23.6453   38.8686 H   0  0  0  0  0  0  0  0  0  0  0  0
   36.5960   23.9148   36.3594 H   0  0  0  0  0  0  0  0  0  0  0  0
   37.7667   21.6411   34.1859 H   0  0  0  0  0  0  0  0  0  0  0  0
   37.2264   25.3532   30.8153 H   0  0  0  0  0  0  0  0  0  0  0  0
   38.6495   28.1514   33.5984 H   0  0  0  0  0  0  0  0  0  0  0  0
   40.8916   23.7149   34.8113 H   0  0  0  0  0  0  0  0  0  0  0  0
   41.1408   22.0142   35.5259 H   0  0  0  0  0  0  0  0  0  0  0  0
   42.2528   23.6144   37.3035 H   0  0  0  0  0  0  0  0  0  0  0  0
   40.9859   25.1060   34.5703 H   0  0  0  0  0  0  0  0  0  0  0  0
   41.8774   27.1228   33.3622 H   0  0  0  0  0  0  0  0  0  0  0  0
   45.7209   26.4136   35.0969 H   0  0  0  0  0  0  0  0  0  0  0  0
   43.8517   22.0463   36.9544 H   0  0  0  0  0  0  0  0  0  0  0  0
   43.0498   21.5748   35.4177 H   0  0  0  0  0  0  0  0  0  0  0  0
   44.3080   22.8568   35.4177 H   0  0  0  0  0  0  0  0  0  0  0  0
  1  2  2  0
  2  3  1  0
  4  3  2  0
  5  4  1  0
  6  1  1  0
  6  5  2  0
  7  6  1  0
  8  7  1  0
  9 10  1  0
  9  8  2  0
 10 15  2  0
 11 12  2  0
 11 10  1  0
 12 13  1  0
 13 14  2  0
 15 14  1  0
 15  7  1  0
 16 17  1  0
 16  1  1  0
 18 23  1  0
 18 17  1  0
 19 18  2  0
 20 21  2  0
 20 19  1  0
 21 22  1  0
 22 23  2  0
 24 17  1  0
  2 25  1  0
  3 26  1  0
  4 27  1  0
  5 28  1  0
  8 29  1  0
 11 30  1  0
 13 31  1  0
 16 32  1  0
 16 33  1  0
 17 34  1  1
 19 35  1  0
 20 36  1  0
 22 37  1  0
 24 38  1  0
 24 39  1  0
 24 40  1  0
M  ISO  8  25  14  26  14  27  14  28  14  29  14  30  14  31  14  32   8
M  ISO  8  33   8  34   8  35  14  36  14  37  14  38   8  39   8  40   8
M  END
>  <minimizedAffinity>  (1) 
-5.12311888

>  <minimizedRMSD>  (1) 
4.11183596

$$$$
