
     RDKit          3D

 38 41  0  0  1  0  0  0  0  0999 V2000
   37.4130   25.8060   32.9100 N   0  0  0  0  0  0  0  0  0  0  0  0
   36.9480   24.6970   32.3290 C   0  0  0  0  0  0  0  0  0  0  0  0
   35.9140   24.9120   31.4540 C   0  0  0  0  0  0  0  0  0  0  0  0
   35.7250   26.2320   31.4920 N   0  0  0  0  0  0  0  0  0  0  0  0
   36.6250   26.7680   32.3660 C   0  0  0  0  0  0  0  0  0  0  0  0
   36.6520   28.2680   32.5740 C   0  0  1  0  0  0  0  0  0  0  0  0
   35.7620   29.0810   31.7140 C   0  0  0  0  0  0  0  0  0  0  0  0
   35.3830   28.8730   33.1630 C   0  0  2  0  0  0  0  0  0  0  0  0
   35.6340   30.0940   33.9750 C   0  0  0  0  0  0  0  0  0  0  0  0
   35.6450   31.3820   33.5820 N   0  0  0  0  0  0  0  0  0  0  0  0
   35.9040   32.1080   34.6130 O   0  0  0  0  0  0  0  0  0  0  0  0
   36.0730   31.3830   35.6990 C   0  0  0  0  0  0  0  0  0  0  0  0
   35.9030   30.1080   35.3020 N   0  0  0  0  0  0  0  0  0  0  0  0
   38.4200   26.0980   33.8570 C   0  0  0  0  0  0  0  0  0  0  0  0
   37.9410   26.0680   35.2610 C   0  0  1  0  0  0  0  0  0  0  0  0
   38.5120   23.5000   37.9840 C   0  0  0  0  0  0  0  0  0  0  0  0
   37.9180   24.5870   37.3200 C   0  0  0  0  0  0  0  0  0  0  0  0
   38.4990   24.9470   36.0540 C   0  0  0  0  0  0  0  0  0  0  0  0
   39.5790   24.2370   35.5570 N   0  0  0  0  0  0  0  0  0  0  0  0
   40.0970   23.2150   36.2380 C   0  0  0  0  0  0  0  0  0  0  0  0
   39.5640   22.8400   37.4570 N   0  0  0  0  0  0  0  0  0  0  0  0
   38.2280   27.3970   35.9520 C   0  0  0  0  0  0  0  0  0  0  0  0
   37.3588   23.6975   32.5345 H   0  0  0  0  0  0  0  0  0  0  0  0
   35.3664   24.1672   30.8579 H   0  0  0  0  0  0  0  0  0  0  0  0
   37.7239   28.3008   32.8190 H   0  0  0  0  0  0  0  0  0  0  0  0
   36.0900   30.0737   31.3719 H   0  0  0  0  0  0  0  0  0  0  0  0
   35.2544   28.9121   30.7529 H   0  0  0  0  0  0  0  0  0  0  0  0
   34.5156   28.4840   33.7165 H   0  0  0  0  0  0  0  0  0  0  0  0
   36.3036   31.7420   36.7129 H   0  0  0  0  0  0  0  0  0  0  0  0
   39.2253   25.3566   33.7483 H   0  0  0  0  0  0  0  0  0  0  0  0
   38.7652   27.1228   33.6555 H   0  0  0  0  0  0  0  0  0  0  0  0
   36.8547   25.9024   35.2098 H   0  0  0  0  0  0  0  0  0  0  0  0
   38.1096   23.1798   38.9564 H   0  0  0  0  0  0  0  0  0  0  0  0
   37.0601   25.1301   37.7430 H   0  0  0  0  0  0  0  0  0  0  0  0
   40.9562   22.6652   35.8263 H   0  0  0  0  0  0  0  0  0  0  0  0
   38.1978   27.2572   37.0427 H   0  0  0  0  0  0  0  0  0  0  0  0
   39.2245   27.7566   35.6559 H   0  0  0  0  0  0  0  0  0  0  0  0
   37.4687   28.1357   35.6559 H   0  0  0  0  0  0  0  0  0  0  0  0
  1 14  1  0
  2  1  1  0
  3  4  1  0
  3  2  2  0
  4  5  2  0
  5  6  1  0
  5  1  1  0
  6  8  1  0
  7  6  1  0
  7  8  1  0
  8  9  1  0
  9 13  1  0
 10  9  2  0
 10 11  1  0
 11 12  1  0
 13 12  2  0
 14 15  1  0
 15 22  1  0
 15 18  1  0
 17 16  2  0
 18 17  1  0
 19 18  2  0
 19 20  1  0
 20 21  2  0
 21 16  1  0
  2 23  1  0
  3 24  1  0
  6 25  1  1
  7 26  1  0
  7 27  1  0
  8 28  1  6
 12 29  1  0
 14 30  1  0
 14 31  1  0
 15 32  1  6
 16 33  1  0
 17 34  1  0
 20 35  1  0
 22 36  1  0
 22 37  1  0
 22 38  1  0
M  ISO  8  23  14  24  14  25  13  26  13  27  13  28  13  29  14  30   8
M  ISO  8  31   8  32   8  33  14  34  14  35  14  36   8  37   8  38   8
M  END
>  <minimizedAffinity>  (1) 
-5.21853399

>  <minimizedRMSD>  (1) 
0.71522814

$$$$
