
     RDKit          3D

 40 43  0  0  1  0  0  0  0  0999 V2000
   37.2900   26.0940   32.7960 N   0  0  0  0  0  0  0  0  0  0  0  0
   36.8250   24.9590   32.2750 C   0  0  0  0  0  0  0  0  0  0  0  0
   35.7750   25.1290   31.3940 C   0  0  0  0  0  0  0  0  0  0  0  0
   35.5840   26.4510   31.3760 N   0  0  0  0  0  0  0  0  0  0  0  0
   36.4870   27.0260   32.2110 C   0  0  0  0  0  0  0  0  0  0  0  0
   36.5050   28.5300   32.3460 C   0  0  1  0  0  0  0  0  0  0  0  0
   35.4900   29.2950   31.5880 C   0  0  0  0  0  0  0  0  0  0  0  0
   35.3250   29.1550   33.0760 C   0  0  2  0  0  0  0  0  0  0  0  0
   35.6400   30.4370   33.7910 C   0  0  0  0  0  0  0  0  0  0  0  0
   35.7140   30.0940   35.1030 C   0  0  0  0  0  0  0  0  0  0  0  0
   36.0230   31.3720   35.7670 C   0  0  0  0  0  0  0  0  0  0  0  0
   36.2140   32.7140   35.1810 C   0  0  0  0  0  0  0  0  0  0  0  0
   35.9200   32.1720   33.3570 S   0  0  0  0  0  0  0  0  0  0  0  0
   38.3010   26.4330   33.7130 C   0  0  0  0  0  0  0  0  0  0  0  0
   37.8840   26.3230   35.1310 C   0  0  1  0  0  0  0  0  0  0  0  0
   38.4740   23.5370   37.6240 C   0  0  0  0  0  0  0  0  0  0  0  0
   37.8780   24.6840   37.0710 C   0  0  0  0  0  0  0  0  0  0  0  0
   38.4370   25.1370   35.8250 C   0  0  0  0  0  0  0  0  0  0  0  0
   39.4940   24.4510   35.2510 N   0  0  0  0  0  0  0  0  0  0  0  0
   40.0070   23.3680   35.8370 C   0  0  0  0  0  0  0  0  0  0  0  0
   39.4930   22.9030   37.0390 N   0  0  0  0  0  0  0  0  0  0  0  0
   38.2350   27.5930   35.8990 C   0  0  0  0  0  0  0  0  0  0  0  0
   37.2414   23.9720   32.5250 H   0  0  0  0  0  0  0  0  0  0  0  0
   35.2246   24.3563   30.8372 H   0  0  0  0  0  0  0  0  0  0  0  0
   37.6001   28.5808   32.4366 H   0  0  0  0  0  0  0  0  0  0  0  0
   35.7521   30.2725   31.1570 H   0  0  0  0  0  0  0  0  0  0  0  0
   34.8522   29.0768   30.7187 H   0  0  0  0  0  0  0  0  0  0  0  0
   34.5590   28.7798   33.7707 H   0  0  0  0  0  0  0  0  0  0  0  0
   35.5765   29.1025   35.5591 H   0  0  0  0  0  0  0  0  0  0  0  0
   36.1268   31.3189   36.8608 H   0  0  0  0  0  0  0  0  0  0  0  0
   36.4453   33.6901   35.6325 H   0  0  0  0  0  0  0  0  0  0  0  0
   39.1566   25.7611   33.5500 H   0  0  0  0  0  0  0  0  0  0  0  0
   38.5545   27.4884   33.5346 H   0  0  0  0  0  0  0  0  0  0  0  0
   36.7920   26.1919   35.1120 H   0  0  0  0  0  0  0  0  0  0  0  0
   38.0855   23.1466   38.5761 H   0  0  0  0  0  0  0  0  0  0  0  0
   37.0389   25.2014   37.5591 H   0  0  0  0  0  0  0  0  0  0  0  0
   40.8461   22.8382   35.3624 H   0  0  0  0  0  0  0  0  0  0  0  0
   38.1803   27.3950   36.9796 H   0  0  0  0  0  0  0  0  0  0  0  0
   39.2546   27.9108   35.6356 H   0  0  0  0  0  0  0  0  0  0  0  0
   37.5233   28.3893   35.6356 H   0  0  0  0  0  0  0  0  0  0  0  0
  1 14  1  0
  2  1  1  0
  3  2  2  0
  4  3  1  0
  4  5  2  0
  5  6  1  0
  5  1  1  0
  6  8  1  0
  7  6  1  0
  7  8  1  0
  8  9  1  0
  9 10  2  0
 10 11  1  0
 12 11  2  0
 13  9  1  0
 13 12  1  0
 14 15  1  0
 15 18  1  0
 15 22  1  0
 17 16  2  0
 18 17  1  0
 19 18  2  0
 19 20  1  0
 20 21  2  0
 21 16  1  0
  2 23  1  0
  3 24  1  0
  6 25  1  1
  7 26  1  0
  7 27  1  0
  8 28  1  6
 10 29  1  0
 11 30  1  0
 12 31  1  0
 14 32  1  0
 14 33  1  0
 15 34  1  6
 16 35  1  0
 17 36  1  0
 20 37  1  0
 22 38  1  0
 22 39  1  0
 22 40  1  0
M  ISO  8  23  14  24  14  25  13  26  13  27  13  28  13  29  14  30  14
M  ISO  8  31  14  32   8  33   8  34   8  35  14  36  14  37  14  38   8
M  ISO  2  39   8  40   8
M  END
>  <minimizedAffinity>  (1) 
-5.28125381

>  <minimizedRMSD>  (1) 
0.951056957

$$$$
