
     RDKit          3D

 40 43  0  0  1  0  0  0  0  0999 V2000
   37.5030   25.4290   32.9540 N   0  0  0  0  0  0  0  0  0  0  0  0
   37.0360   24.2700   32.4910 C   0  0  0  0  0  0  0  0  0  0  0  0
   36.0470   24.4010   31.5420 C   0  0  0  0  0  0  0  0  0  0  0  0
   35.8970   25.7230   31.4150 N   0  0  0  0  0  0  0  0  0  0  0  0
   36.7720   26.3420   32.2630 C   0  0  0  0  0  0  0  0  0  0  0  0
   36.8280   27.8460   32.2900 C   0  0  1  0  0  0  0  0  0  0  0  0
   36.2400   28.5800   31.1490 C   0  0  0  0  0  0  0  0  0  0  0  0
   35.4870   28.5550   32.4600 C   0  0  2  0  0  0  0  0  0  0  0  0
   35.5670   29.7250   33.3110 N   0  0  0  0  0  0  0  0  0  0  0  0
   35.5830   29.7240   34.6670 C   0  0  0  0  0  0  0  0  0  0  0  0
   35.6650   31.0270   35.1080 C   0  0  0  0  0  0  0  0  0  0  0  0
   35.7000   31.8220   34.0300 N   0  0  0  0  0  0  0  0  0  0  0  0
   35.6410   31.0240   32.9390 C   0  0  0  0  0  0  0  0  0  0  0  0
   38.4740   25.8040   33.9090 C   0  0  0  0  0  0  0  0  0  0  0  0
   37.9480   25.8870   35.2930 C   0  0  1  0  0  0  0  0  0  0  0  0
   38.4710   23.5800   38.2500 C   0  0  0  0  0  0  0  0  0  0  0  0
   37.9100   24.6040   37.4790 C   0  0  0  0  0  0  0  0  0  0  0  0
   38.4780   24.8420   36.1930 C   0  0  0  0  0  0  0  0  0  0  0  0
   39.5430   24.0590   35.7800 N   0  0  0  0  0  0  0  0  0  0  0  0
   40.0470   23.0980   36.5400 C   0  0  0  0  0  0  0  0  0  0  0  0
   39.5130   22.8490   37.7880 N   0  0  0  0  0  0  0  0  0  0  0  0
   38.2200   27.2680   35.8830 C   0  0  0  0  0  0  0  0  0  0  0  0
   37.4080   23.2942   32.8366 H   0  0  0  0  0  0  0  0  0  0  0  0
   35.5062   23.6033   31.0118 H   0  0  0  0  0  0  0  0  0  0  0  0
   37.8051   27.8745   32.7945 H   0  0  0  0  0  0  0  0  0  0  0  0
   36.7044   29.5154   30.8036 H   0  0  0  0  0  0  0  0  0  0  0  0
   35.9879   28.3157   30.1114 H   0  0  0  0  0  0  0  0  0  0  0  0
   34.4557   28.2960   32.7417 H   0  0  0  0  0  0  0  0  0  0  0  0
   35.5380   28.8314   35.3083 H   0  0  0  0  0  0  0  0  0  0  0  0
   35.6961   31.3556   36.1573 H   0  0  0  0  0  0  0  0  0  0  0  0
   35.6517   31.3802   31.8983 H   0  0  0  0  0  0  0  0  0  0  0  0
   39.2851   25.0612   33.8897 H   0  0  0  0  0  0  0  0  0  0  0  0
   38.8210   26.8115   33.6360 H   0  0  0  0  0  0  0  0  0  0  0  0
   36.8642   25.7149   35.2171 H   0  0  0  0  0  0  0  0  0  0  0  0
   38.0591   23.3654   39.2471 H   0  0  0  0  0  0  0  0  0  0  0  0
   37.0644   25.2016   37.8502 H   0  0  0  0  0  0  0  0  0  0  0  0
   40.8932   22.4971   36.1754 H   0  0  0  0  0  0  0  0  0  0  0  0
   38.2079   27.2064   36.9812 H   0  0  0  0  0  0  0  0  0  0  0  0
   39.2053   27.6229   35.5465 H   0  0  0  0  0  0  0  0  0  0  0  0
   37.4429   27.9700   35.5465 H   0  0  0  0  0  0  0  0  0  0  0  0
  1 14  1  0
  2  1  1  0
  3  2  2  0
  4  3  1  0
  4  5  2  0
  5  6  1  0
  5  1  1  0
  6  8  1  0
  7  6  1  0
  7  8  1  0
  8  9  1  0
  9 10  1  0
 10 11  2  0
 12 11  1  0
 13  9  1  0
 13 12  2  0
 14 15  1  0
 15 22  1  0
 15 18  1  0
 17 16  2  0
 18 17  1  0
 19 18  2  0
 19 20  1  0
 20 21  2  0
 21 16  1  0
  2 23  1  0
  3 24  1  0
  6 25  1  1
  7 26  1  0
  7 27  1  0
  8 28  1  6
 10 29  1  0
 11 30  1  0
 13 31  1  0
 14 32  1  0
 14 33  1  0
 15 34  1  6
 16 35  1  0
 17 36  1  0
 20 37  1  0
 22 38  1  0
 22 39  1  0
 22 40  1  0
M  ISO  8  23  14  24  14  25  13  26  13  27  13  28  13  29  14  30  14
M  ISO  8  31  14  32   8  33   8  34   8  35  14  36  14  37  14  38   8
M  ISO  2  39   8  40   8
M  END
>  <minimizedAffinity>  (1) 
-5.16002178

>  <minimizedRMSD>  (1) 
1.01254117

$$$$
