
     RDKit          3D

 24 25  0  0  0  0  0  0  0  0999 V2000
   38.0410   24.6460   36.9320 C   0  0  0  0  0  0  0  0  0  0  0  0
   39.0320   23.9060   36.1680 C   0  0  0  0  0  0  0  0  0  0  0  0
   39.7670   23.0480   36.9260 C   0  0  0  0  0  0  0  0  0  0  0  0
   39.5500   22.9220   38.2930 N   0  0  0  0  0  0  0  0  0  0  0  0
   38.6220   23.6290   38.9320 C   0  0  0  0  0  0  0  0  0  0  0  0
   37.8610   24.4930   38.2780 N   0  0  0  0  0  0  0  0  0  0  0  0
   38.8980   24.3180   34.7960 C   0  0  0  0  0  0  0  0  0  0  0  0
   38.0430   23.8010   33.8560 C   0  0  0  0  0  0  0  0  0  0  0  0
   37.8750   24.2450   32.5750 C   0  0  0  0  0  0  0  0  0  0  0  0
   38.6120   25.2810   32.2000 N   0  0  0  0  0  0  0  0  0  0  0  0
   39.4650   25.8330   33.0700 C   0  0  0  0  0  0  0  0  0  0  0  0
   39.5910   25.3590   34.3150 N   0  0  0  0  0  0  0  0  0  0  0  0
   40.8420   22.3570   36.1470 C   0  0  0  0  0  0  0  0  0  0  0  0
   41.6210   21.4940   37.1270 C   0  0  0  0  0  0  0  0  0  0  0  0
   37.4030   25.3664   36.3991 H   0  0  0  0  0  0  0  0  0  0  0  0
   38.4853   23.4945   40.0152 H   0  0  0  0  0  0  0  0  0  0  0  0
   37.4303   22.9414   34.1652 H   0  0  0  0  0  0  0  0  0  0  0  0
   37.1623   23.7658   31.8877 H   0  0  0  0  0  0  0  0  0  0  0  0
   40.0746   26.6931   32.7560 H   0  0  0  0  0  0  0  0  0  0  0  0
   40.3948   21.7279   35.3633 H   0  0  0  0  0  0  0  0  0  0  0  0
   41.5029   23.0883   35.6587 H   0  0  0  0  0  0  0  0  0  0  0  0
   41.3610   21.7821   38.1563 H   0  0  0  0  0  0  0  0  0  0  0  0
   41.3661   20.4360   36.9668 H   0  0  0  0  0  0  0  0  0  0  0  0
   42.6995   21.6396   36.9668 H   0  0  0  0  0  0  0  0  0  0  0  0
  1  6  2  0
  2  3  2  0
  2  1  1  0
  3  4  1  0
  4  5  2  0
  6  5  1  0
  7  2  1  0
  8  7  2  0
  9  8  1  0
 10  9  2  0
 10 11  1  0
 11 12  2  0
 12  7  1  0
 13  3  1  0
 13 14  1  0
  1 15  1  0
  5 16  1  0
  8 17  1  0
  9 18  1  0
 11 19  1  0
 13 20  1  0
 13 21  1  0
 14 22  1  0
 14 23  1  0
 14 24  1  0
M  ISO  8  15  14  16  14  17  14  18  14  19  14  20   8  21   8  22   8
M  ISO  2  23   8  24   8
M  END
>  <minimizedAffinity>  (1) 
-3.62077427

>  <minimizedRMSD>  (1) 
5.89396095

$$$$
