
     RDKit          3D

 34 36  0  0  1  0  0  0  0  0999 V2000
   38.4490   25.7590   33.8170 C   0  0  0  0  0  0  0  0  0  0  0  0
   37.4380   25.5670   32.8580 N   0  0  0  0  0  0  0  0  0  0  0  0
   36.7360   24.5110   32.4470 C   0  0  0  0  0  0  0  0  0  0  0  0
   35.8130   24.8030   31.4570 C   0  0  0  0  0  0  0  0  0  0  0  0
   35.9610   26.1110   31.2550 N   0  0  0  0  0  0  0  0  0  0  0  0
   36.9350   26.5700   32.0940 C   0  0  0  0  0  0  0  0  0  0  0  0
   37.3330   28.0320   32.0550 C   0  0  1  0  0  0  0  0  0  0  0  0
   36.4220   28.9620   31.3550 C   0  0  0  0  0  0  0  0  0  0  0  0
   36.4270   28.9660   32.8630 C   0  0  1  0  0  0  0  0  0  0  0  0
   35.3960   28.3750   33.5560 O   0  0  0  0  0  0  0  0  0  0  0  0
   37.9450   25.8810   35.2060 C   0  0  1  0  0  0  0  0  0  0  0  0
   38.4720   23.6180   38.1920 C   0  0  0  0  0  0  0  0  0  0  0  0
   37.8910   24.6440   37.4210 C   0  0  0  0  0  0  0  0  0  0  0  0
   38.4790   24.8480   36.1190 C   0  0  0  0  0  0  0  0  0  0  0  0
   39.5420   24.0600   35.7060 N   0  0  0  0  0  0  0  0  0  0  0  0
   40.0310   23.1080   36.5020 C   0  0  0  0  0  0  0  0  0  0  0  0
   39.4950   22.8840   37.7510 N   0  0  0  0  0  0  0  0  0  0  0  0
   38.2370   27.2740   35.7610 C   0  0  0  0  0  0  0  0  0  0  0  0
   38.9951   26.6799   33.5647 H   0  0  0  0  0  0  0  0  0  0  0  0
   39.0903   24.8658   33.7876 H   0  0  0  0  0  0  0  0  0  0  0  0
   36.8771   23.5000   32.8569 H   0  0  0  0  0  0  0  0  0  0  0  0
   35.1184   24.1142   30.9539 H   0  0  0  0  0  0  0  0  0  0  0  0
   38.4128   27.8305   31.9965 H   0  0  0  0  0  0  0  0  0  0  0  0
   36.8358   29.8208   30.8061 H   0  0  0  0  0  0  0  0  0  0  0  0
   35.6406   28.8410   30.5903 H   0  0  0  0  0  0  0  0  0  0  0  0
   36.5477   29.7459   33.6292 H   0  0  0  0  0  0  0  0  0  0  0  0
   35.5566   28.4671   34.5285 H   0  0  0  0  0  0  0  0  0  0  0  0
   36.8579   25.7216   35.1524 H   0  0  0  0  0  0  0  0  0  0  0  0
   38.0673   23.4146   39.1944 H   0  0  0  0  0  0  0  0  0  0  0  0
   37.0473   25.2480   37.7863 H   0  0  0  0  0  0  0  0  0  0  0  0
   40.8747   22.4927   36.1560 H   0  0  0  0  0  0  0  0  0  0  0  0
   38.2298   27.2396   36.8604 H   0  0  0  0  0  0  0  0  0  0  0  0
   39.2248   27.6085   35.4111 H   0  0  0  0  0  0  0  0  0  0  0  0
   37.4667   27.9770   35.4111 H   0  0  0  0  0  0  0  0  0  0  0  0
  1 11  1  0
  2  1  1  0
  3  2  1  0
  4  3  2  0
  5  4  1  0
  5  6  2  0
  6  2  1  0
  7  6  1  0
  7  9  1  0
  8  7  1  0
  8  9  1  0
  9 10  1  0
 11 18  1  0
 11 14  1  0
 13 12  2  0
 14 13  1  0
 15 14  2  0
 15 16  1  0
 16 17  2  0
 17 12  1  0
  1 19  1  0
  1 20  1  0
  3 21  1  0
  4 22  1  0
  7 23  1  6
  8 24  1  0
  8 25  1  0
  9 26  1  6
 10 27  1  0
 11 28  1  6
 12 29  1  0
 13 30  1  0
 16 31  1  0
 18 32  1  0
 18 33  1  0
 18 34  1  0
M  ISO  8  19   8  20   8  21  14  22  14  23  13  24  13  25  13  26  13
M  ISO  8  27   3  28   8  29  14  30  14  31  14  32   8  33   8  34   8
M  END
>  <minimizedAffinity>  (1) 
-4.44380236

>  <minimizedRMSD>  (1) 
0.497923672

$$$$
