
     RDKit          3D

 28 28  0  0  0  0  0  0  0  0999 V2000
   38.0860   27.5360   32.4380 C   0  0  0  0  0  0  0  0  0  0  0  0
   38.7880   27.1190   33.5950 C   0  0  0  0  0  0  0  0  0  0  0  0
   37.9600   27.4250   34.7020 C   0  0  0  0  0  0  0  0  0  0  0  0
   36.6830   28.0220   34.6550 N   0  0  0  0  0  0  0  0  0  0  0  0
   36.1690   28.3500   33.4870 C   0  0  0  0  0  0  0  0  0  0  0  0
   36.8780   28.1020   32.4150 N   0  0  0  0  0  0  0  0  0  0  0  0
   40.0960   26.5540   33.3170 C   0  0  0  0  0  0  0  0  0  0  0  0
   40.1310   25.0400   33.2230 C   0  0  0  0  0  0  0  0  0  0  0  0
   40.3250   26.7870   31.7420 C   0  0  0  0  0  0  0  0  0  0  0  0
   41.3340   27.2120   33.7970 C   0  0  0  0  0  0  0  0  0  0  0  0
   38.7020   27.0420   35.9610 C   0  0  0  0  0  0  0  0  0  0  0  0
   38.1490   25.6660   36.3220 C   0  0  0  0  0  0  0  0  0  0  0  0
   38.5823   27.3788   31.4690 H   0  0  0  0  0  0  0  0  0  0  0  0
   35.1758   28.8173   33.4150 H   0  0  0  0  0  0  0  0  0  0  0  0
   40.1409   24.6099   34.2354 H   0  0  0  0  0  0  0  0  0  0  0  0
   39.2408   24.6855   32.6827 H   0  0  0  0  0  0  0  0  0  0  0  0
   41.0366   24.7270   32.6827 H   0  0  0  0  0  0  0  0  0  0  0  0
   41.0890   27.5644   31.5936 H   0  0  0  0  0  0  0  0  0  0  0  0
   40.6619   25.8484   31.2777 H   0  0  0  0  0  0  0  0  0  0  0  0
   39.3807   27.1076   31.2777 H   0  0  0  0  0  0  0  0  0  0  0  0
   41.3437   27.2171   34.8969 H   0  0  0  0  0  0  0  0  0  0  0  0
   42.2102   26.6606   33.4252 H   0  0  0  0  0  0  0  0  0  0  0  0
   41.3671   28.2467   33.4252 H   0  0  0  0  0  0  0  0  0  0  0  0
   39.7848   26.9899   35.7744 H   0  0  0  0  0  0  0  0  0  0  0  0
   38.5640   27.7753   36.7693 H   0  0  0  0  0  0  0  0  0  0  0  0
   38.1076   25.5630   37.4164 H   0  0  0  0  0  0  0  0  0  0  0  0
   37.1370   25.5566   35.9049 H   0  0  0  0  0  0  0  0  0  0  0  0
   38.8038   24.8867   35.9049 H   0  0  0  0  0  0  0  0  0  0  0  0
  1  2  2  0
  2  3  1  0
  3 11  1  0
  4  3  2  0
  5  4  1  0
  6  1  1  0
  6  5  2  0
  7  2  1  0
  7 10  1  0
  8  7  1  0
  9  7  1  0
 11 12  1  0
  1 13  1  0
  5 14  1  0
  8 15  1  0
  8 16  1  0
  8 17  1  0
  9 18  1  0
  9 19  1  0
  9 20  1  0
 10 21  1  0
 10 22  1  0
 10 23  1  0
 11 24  1  0
 11 25  1  0
 12 26  1  0
 12 27  1  0
 12 28  1  0
M  ISO  8  13  14  14  14  15   8  16   8  17   8  18   8  19   8  20   8
M  ISO  8  21   8  22   8  23   8  24   8  25   8  26   8  27   8  28   8
M  END
>  <minimizedAffinity>  (1) 
-3.29615164

>  <minimizedRMSD>  (1) 
6.87610865

$$$$
