
     RDKit          3D

 23 24  0  0  0  0  0  0  0  0999 V2000
   40.6180   24.5180   35.1360 C   0  0  0  0  0  0  0  0  0  0  0  0
   39.6300   23.8730   35.9410 C   0  0  0  0  0  0  0  0  0  0  0  0
   38.5780   24.6810   36.3280 C   0  0  0  0  0  0  0  0  0  0  0  0
   38.5090   26.0150   35.9480 N   0  0  0  0  0  0  0  0  0  0  0  0
   39.4720   26.5470   35.1930 C   0  0  0  0  0  0  0  0  0  0  0  0
   40.5030   25.8120   34.7970 N   0  0  0  0  0  0  0  0  0  0  0  0
   37.6000   23.9290   37.1800 C   0  0  0  0  0  0  0  0  0  0  0  0
   37.9010   24.3350   38.6350 C   0  0  0  0  0  0  0  0  0  0  0  0
   39.9700   22.4450   36.1670 C   0  0  0  0  0  0  0  0  0  0  0  0
   41.3490   21.9260   36.1840 C   0  0  0  0  0  0  0  0  0  0  0  0
   40.7360   22.1810   37.5140 C   0  0  0  0  0  0  0  0  0  0  0  0
   41.4892   23.9440   34.7874 H   0  0  0  0  0  0  0  0  0  0  0  0
   39.4105   27.6044   34.8963 H   0  0  0  0  0  0  0  0  0  0  0  0
   36.5693   24.2046   36.9121 H   0  0  0  0  0  0  0  0  0  0  0  0
   37.6955   22.8424   37.0379 H   0  0  0  0  0  0  0  0  0  0  0  0
   37.3892   23.6447   39.3217 H   0  0  0  0  0  0  0  0  0  0  0  0
   38.9859   24.2902   38.8112 H   0  0  0  0  0  0  0  0  0  0  0  0
   37.5429   25.3600   38.8112 H   0  0  0  0  0  0  0  0  0  0  0  0
   39.0707   22.1127   35.6276 H   0  0  0  0  0  0  0  0  0  0  0  0
   41.5378   20.8893   35.8683 H   0  0  0  0  0  0  0  0  0  0  0  0
   42.2843   22.2588   35.7101 H   0  0  0  0  0  0  0  0  0  0  0  0
   41.0796   23.0227   38.1332 H   0  0  0  0  0  0  0  0  0  0  0  0
   40.5535   21.5958   38.4274 H   0  0  0  0  0  0  0  0  0  0  0  0
  1  2  2  0
  2  9  1  0
  2  3  1  0
  3  7  1  0
  4  3  2  0
  5  4  1  0
  6  1  1  0
  6  5  2  0
  7  8  1  0
  9 10  1  0
  9 11  1  0
 10 11  1  0
  1 12  1  0
  5 13  1  0
  7 14  1  0
  7 15  1  0
  8 16  1  0
  8 17  1  0
  8 18  1  0
  9 19  1  0
 10 20  1  0
 10 21  1  0
 11 22  1  0
 11 23  1  0
M  ISO  8  12  14  13  14  14   8  15   8  16   8  17   8  18   8  19  13
M  ISO  4  20  13  21  13  22  13  23  13
M  END
>  <minimizedAffinity>  (1) 
-3.50160265

>  <minimizedRMSD>  (1) 
3.20624161

$$$$
