
     RDKit          3D

 22 22  0  0  0  0  0  0  0  0999 V2000
   39.8200   23.0600   36.6760 C   0  0  0  0  0  0  0  0  0  0  0  0
   38.7880   24.0380   36.4980 C   0  0  0  0  0  0  0  0  0  0  0  0
   39.1130   24.9340   35.5070 C   0  0  0  0  0  0  0  0  0  0  0  0
   40.2960   24.8840   34.7760 N   0  0  0  0  0  0  0  0  0  0  0  0
   41.2000   23.9310   35.0160 C   0  0  0  0  0  0  0  0  0  0  0  0
   40.9580   23.0310   35.9580 N   0  0  0  0  0  0  0  0  0  0  0  0
   38.0250   25.9600   35.3330 C   0  0  0  0  0  0  0  0  0  0  0  0
   38.5830   27.2500   35.9190 C   0  0  0  0  0  0  0  0  0  0  0  0
   37.6560   23.8190   37.4170 C   0  0  0  0  0  0  0  0  0  0  0  0
   37.9000   24.3780   38.8000 C   0  0  0  0  0  0  0  0  0  0  0  0
   39.6735   22.2872   37.4450 H   0  0  0  0  0  0  0  0  0  0  0  0
   42.1352   23.8935   34.4381 H   0  0  0  0  0  0  0  0  0  0  0  0
   37.7891   26.0928   34.2668 H   0  0  0  0  0  0  0  0  0  0  0  0
   37.0935   25.6550   35.8323 H   0  0  0  0  0  0  0  0  0  0  0  0
   38.5589   27.1943   37.0173 H   0  0  0  0  0  0  0  0  0  0  0  0
   39.6209   27.3872   35.5815 H   0  0  0  0  0  0  0  0  0  0  0  0
   37.9723   28.1003   35.5815 H   0  0  0  0  0  0  0  0  0  0  0  0
   36.7635   24.3044   36.9954 H   0  0  0  0  0  0  0  0  0  0  0  0
   37.5226   22.7321   37.5208 H   0  0  0  0  0  0  0  0  0  0  0  0
   37.5796   23.6439   39.5540 H   0  0  0  0  0  0  0  0  0  0  0  0
   38.9721   24.5891   38.9262 H   0  0  0  0  0  0  0  0  0  0  0  0
   37.3258   25.3077   38.9262 H   0  0  0  0  0  0  0  0  0  0  0  0
  2  1  2  0
  2  9  1  0
  3  2  1  0
  4  5  1  0
  4  3  2  0
  5  6  2  0
  6  1  1  0
  7  3  1  0
  7  8  1  0
  9 10  1  0
  1 11  1  0
  5 12  1  0
  7 13  1  0
  7 14  1  0
  8 15  1  0
  8 16  1  0
  8 17  1  0
  9 18  1  0
  9 19  1  0
 10 20  1  0
 10 21  1  0
 10 22  1  0
M  ISO  8  11  14  12  14  13   8  14   8  15   8  16   8  17   8  18   8
M  ISO  4  19   8  20   8  21   8  22   8
M  END
>  <minimizedAffinity>  (1) 
-3.21795034

>  <minimizedRMSD>  (1) 
2.37131977

$$$$
