
     RDKit          3D

 19 19  0  0  0  0  0  0  0  0999 V2000
   39.9600   22.7410   37.6560 C   0  0  0  0  0  0  0  0  0  0  0  0
   38.8710   23.6130   37.3600 C   0  0  0  0  0  0  0  0  0  0  0  0
   39.0160   24.3300   36.1910 C   0  0  0  0  0  0  0  0  0  0  0  0
   40.1350   24.2000   35.3810 N   0  0  0  0  0  0  0  0  0  0  0  0
   41.1160   23.3610   35.7220 C   0  0  0  0  0  0  0  0  0  0  0  0
   41.0360   22.6440   36.8370 N   0  0  0  0  0  0  0  0  0  0  0  0
   37.8420   25.2510   35.9690 C   0  0  0  0  0  0  0  0  0  0  0  0
   38.4170   26.6670   36.1260 C   0  0  0  0  0  0  0  0  0  0  0  0
   37.8070   23.5000   38.3790 C   0  0  0  0  0  0  0  0  0  0  0  0
   39.9261   22.1321   38.5715 H   0  0  0  0  0  0  0  0  0  0  0  0
   41.9989   23.2627   35.0733 H   0  0  0  0  0  0  0  0  0  0  0  0
   37.0578   25.0662   36.7179 H   0  0  0  0  0  0  0  0  0  0  0  0
   37.3765   25.0994   34.9840 H   0  0  0  0  0  0  0  0  0  0  0  0
   38.5144   26.9067   37.1951 H   0  0  0  0  0  0  0  0  0  0  0  0
   39.4063   26.7161   35.6476 H   0  0  0  0  0  0  0  0  0  0  0  0
   37.7420   27.3920   35.6476 H   0  0  0  0  0  0  0  0  0  0  0  0
   38.2542   23.5475   39.3829 H   0  0  0  0  0  0  0  0  0  0  0  0
   37.0925   24.3273   38.2564 H   0  0  0  0  0  0  0  0  0  0  0  0
   37.2822   22.5411   38.2564 H   0  0  0  0  0  0  0  0  0  0  0  0
  2  1  2  0
  2  9  1  0
  3  2  1  0
  4  5  1  0
  4  3  2  0
  5  6  2  0
  6  1  1  0
  7  8  1  0
  7  3  1  0
  1 10  1  0
  5 11  1  0
  7 12  1  0
  7 13  1  0
  8 14  1  0
  8 15  1  0
  8 16  1  0
  9 17  1  0
  9 18  1  0
  9 19  1  0
M  ISO  8  10  14  11  14  12   8  13   8  14   8  15   8  16   8  17   8
M  ISO  2  18   8  19   8
M  END
>  <minimizedAffinity>  (1) 
-3.08783603

>  <minimizedRMSD>  (1) 
1.74074125

$$$$
