
     RDKit          3D

 17 17  0  0  0  0  0  0  0  0999 V2000
   39.7490   25.4290   34.4710 C   0  0  0  0  0  0  0  0  0  0  0  0
   39.9100   24.3930   35.4340 C   0  0  0  0  0  0  0  0  0  0  0  0
   38.9020   24.1610   36.3460 C   0  0  0  0  0  0  0  0  0  0  0  0
   37.7740   24.9540   36.2780 N   0  0  0  0  0  0  0  0  0  0  0  0
   37.6400   25.9230   35.3650 C   0  0  0  0  0  0  0  0  0  0  0  0
   38.6070   26.1780   34.4580 N   0  0  0  0  0  0  0  0  0  0  0  0
   39.2180   23.0600   37.2720 C   0  0  0  0  0  0  0  0  0  0  0  0
   38.6410   23.4400   38.6430 C   0  0  0  0  0  0  0  0  0  0  0  0
   41.4870   23.6130   35.1420 S   0  0  0  0  0  0  0  0  0  0  0  0
   40.5445   25.6263   33.7373 H   0  0  0  0  0  0  0  0  0  0  0  0
   36.7202   26.5261   35.3532 H   0  0  0  0  0  0  0  0  0  0  0  0
   38.7600   22.1253   36.9163 H   0  0  0  0  0  0  0  0  0  0  0  0
   40.3049   22.9032   37.3357 H   0  0  0  0  0  0  0  0  0  0  0  0
   39.2767   23.0214   39.4371 H   0  0  0  0  0  0  0  0  0  0  0  0
   38.6105   24.5355   38.7371 H   0  0  0  0  0  0  0  0  0  0  0  0
   37.6225   23.0354   38.7371 H   0  0  0  0  0  0  0  0  0  0  0  0
   42.0804   23.3195   36.3415 H   0  0  0  0  0  0  0  0  0  0  0  0
  1  2  2  0
  2  3  1  0
  3  7  1  0
  4  3  2  0
  5  4  1  0
  6  1  1  0
  6  5  2  0
  7  8  1  0
  9  2  1  0
  1 10  1  0
  5 11  1  0
  7 12  1  0
  7 13  1  0
  8 14  1  0
  8 15  1  0
  8 16  1  0
  9 17  1  0
M  ISO  8  10  14  11  14  12   8  13   8  14   8  15   8  16   8  17  11
M  END
>  <minimizedAffinity>  (1) 
-2.58611894

>  <minimizedRMSD>  (1) 
3.6145823

$$$$
