
     RDKit          3D

 23 24  0  0  0  0  0  0  0  0999 V2000
   39.3660   26.8690   35.4180 C   0  0  0  0  0  0  0  0  0  0  0  0
   40.2960   25.8550   34.9390 C   0  0  0  0  0  0  0  0  0  0  0  0
   39.9740   24.6030   35.3470 C   0  0  0  0  0  0  0  0  0  0  0  0
   38.8550   24.3640   36.1340 N   0  0  0  0  0  0  0  0  0  0  0  0
   38.0400   25.3350   36.5370 C   0  0  0  0  0  0  0  0  0  0  0  0
   38.2720   26.5940   36.1960 N   0  0  0  0  0  0  0  0  0  0  0  0
   41.2650   26.5240   34.1110 C   0  0  0  0  0  0  0  0  0  0  0  0
   41.1610   27.3100   32.9920 C   0  0  0  0  0  0  0  0  0  0  0  0
   42.3540   27.7580   32.5210 C   0  0  0  0  0  0  0  0  0  0  0  0
   43.2280   27.2020   33.4200 C   0  0  0  0  0  0  0  0  0  0  0  0
   42.5550   26.5160   34.2940 O   0  0  0  0  0  0  0  0  0  0  0  0
   40.9980   23.5990   34.9000 C   0  0  0  0  0  0  0  0  0  0  0  0
   41.9350   23.3730   36.1020 C   0  0  0  0  0  0  0  0  0  0  0  0
   39.5529   27.9164   35.1388 H   0  0  0  0  0  0  0  0  0  0  0  0
   37.1660   25.0905   37.1586 H   0  0  0  0  0  0  0  0  0  0  0  0
   40.1989   27.5555   32.5187 H   0  0  0  0  0  0  0  0  0  0  0  0
   42.5633   28.3967   31.6503 H   0  0  0  0  0  0  0  0  0  0  0  0
   44.3217   27.3182   33.4036 H   0  0  0  0  0  0  0  0  0  0  0  0
   40.5082   22.6558   34.6162 H   0  0  0  0  0  0  0  0  0  0  0  0
   41.5539   23.9587   34.0216 H   0  0  0  0  0  0  0  0  0  0  0  0
   41.3715   23.5089   37.0368 H   0  0  0  0  0  0  0  0  0  0  0  0
   42.3407   22.3513   36.0637 H   0  0  0  0  0  0  0  0  0  0  0  0
   42.7618   24.0975   36.0637 H   0  0  0  0  0  0  0  0  0  0  0  0
  1  6  2  0
  2  3  2  0
  2  1  1  0
  3  4  1  0
  4  5  2  0
  6  5  1  0
  7 11  1  0
  7  2  1  0
  8  7  2  0
  9  8  1  0
  9 10  2  0
 10 11  1  0
 12  3  1  0
 12 13  1  0
  1 14  1  0
  5 15  1  0
  8 16  1  0
  9 17  1  0
 10 18  1  0
 12 19  1  0
 12 20  1  0
 13 21  1  0
 13 22  1  0
 13 23  1  0
M  ISO  8  14  14  15  14  16  14  17  14  18  14  19   8  20   8  21   8
M  ISO  2  22   8  23   8
M  END
>  <minimizedAffinity>  (1) 
-3.13480973

>  <minimizedRMSD>  (1) 
6.50288343

$$$$
