
     RDKit          3D

 35 36  0  0  0  0  0  0  0  0999 V2000
   40.1160   23.3410   36.0940 C   0  0  0  0  0  0  0  0  0  0  0  0
   39.1040   24.2260   36.5460 C   0  0  0  0  0  0  0  0  0  0  0  0
   39.1250   25.3350   35.7780 C   0  0  0  0  0  0  0  0  0  0  0  0
   40.0040   25.5440   34.7300 N   0  0  0  0  0  0  0  0  0  0  0  0
   40.9220   24.6440   34.3850 C   0  0  0  0  0  0  0  0  0  0  0  0
   40.9730   23.5360   35.0770 N   0  0  0  0  0  0  0  0  0  0  0  0
   38.3240   23.7790   37.6470 C   0  0  0  0  0  0  0  0  0  0  0  0
   38.0770   24.8210   38.5810 F   0  0  0  0  0  0  0  0  0  0  0  0
   38.8190   22.9820   38.5950 F   0  0  0  0  0  0  0  0  0  0  0  0
   36.9230   23.6390   37.4250 F   0  0  0  0  0  0  0  0  0  0  0  0
   38.1350   26.2980   36.1250 C   0  0  0  0  0  0  0  0  0  0  0  0
   38.1030   27.4790   35.3120 C   0  0  0  0  0  0  0  0  0  0  0  0
   37.0010   27.5560   34.2870 C   0  0  0  0  0  0  0  0  0  0  0  0
   36.0810   28.7080   34.4130 C   0  0  0  0  0  0  0  0  0  0  0  0
   35.6160   29.2770   33.1010 C   0  0  0  0  0  0  0  0  0  0  0  0
   35.4950   28.3210   31.9730 C   0  0  0  0  0  0  0  0  0  0  0  0
   36.3220   27.0910   32.0290 C   0  0  0  0  0  0  0  0  0  0  0  0
   37.5400   27.3680   32.8870 C   0  0  0  0  0  0  0  0  0  0  0  0
   40.2100   22.3886   36.6363 H   0  0  0  0  0  0  0  0  0  0  0  0
   41.6125   24.8259   33.5482 H   0  0  0  0  0  0  0  0  0  0  0  0
   37.1509   25.8117   36.0532 H   0  0  0  0  0  0  0  0  0  0  0  0
   38.3916   26.6392   37.1388 H   0  0  0  0  0  0  0  0  0  0  0  0
   37.9976   28.3445   35.9827 H   0  0  0  0  0  0  0  0  0  0  0  0
   39.0391   27.4622   34.7346 H   0  0  0  0  0  0  0  0  0  0  0  0
   36.3429   26.7043   34.5139 H   0  0  0  0  0  0  0  0  0  0  0  0
   35.1964   28.3816   34.9795 H   0  0  0  0  0  0  0  0  0  0  0  0
   36.6439   29.5058   34.9197 H   0  0  0  0  0  0  0  0  0  0  0  0
   34.6265   29.7290   33.2642 H   0  0  0  0  0  0  0  0  0  0  0  0
   36.3978   29.9890   32.7979 H   0  0  0  0  0  0  0  0  0  0  0  0
   35.7668   28.8598   31.0533 H   0  0  0  0  0  0  0  0  0  0  0  0
   34.4557   27.9634   32.0176 H   0  0  0  0  0  0  0  0  0  0  0  0
   35.7368   26.2704   32.4696 H   0  0  0  0  0  0  0  0  0  0  0  0
   36.6340   26.8006   31.0149 H   0  0  0  0  0  0  0  0  0  0  0  0
   38.2379   26.5184   32.8527 H   0  0  0  0  0  0  0  0  0  0  0  0
   38.0980   28.2495   32.5383 H   0  0  0  0  0  0  0  0  0  0  0  0
  1  2  2  0
  2  7  1  0
  3 11  1  0
  3  2  1  0
  4  3  2  0
  5  4  1  0
  5  6  2  0
  6  1  1  0
  7  8  1  0
  7  9  1  0
 10  7  1  0
 12 11  1  0
 13 14  1  0
 13 12  1  0
 15 14  1  0
 16 17  1  0
 16 15  1  0
 17 18  1  0
 18 13  1  0
  1 19  1  0
  5 20  1  0
 11 21  1  0
 11 22  1  0
 12 23  1  0
 12 24  1  0
 13 25  1  0
 14 26  1  0
 14 27  1  0
 15 28  1  0
 15 29  1  0
 16 30  1  0
 16 31  1  0
 17 32  1  0
 17 33  1  0
 18 34  1  0
 18 35  1  0
M  ISO  8  19  14  20  14  21   8  22   8  23   8  24   8  25  13  26  13
M  ISO  8  27  13  28  13  29  13  30  13  31  13  32  13  33  13  34  13
M  ISO  1  35  13
M  END
>  <minimizedAffinity>  (1) 
-4.87386465

>  <minimizedRMSD>  (1) 
5.7780323

$$$$
