
     RDKit          3D

 37 39  0  0  1  0  0  0  0  0999 V2000
   40.9250   21.5590   36.9240 C   0  0  0  0  0  0  0  0  0  0  0  0
   39.8260   22.4680   37.1640 C   0  0  0  0  0  0  0  0  0  0  0  0
   39.6530   23.1160   38.3890 C   0  0  0  0  0  0  0  0  0  0  0  0
   38.6420   24.0040   38.6690 C   0  0  0  0  0  0  0  0  0  0  0  0
   37.7390   24.2850   37.6980 C   0  0  0  0  0  0  0  0  0  0  0  0
   37.8820   23.6490   36.4490 C   0  0  0  0  0  0  0  0  0  0  0  0
   38.9070   22.7530   36.1910 C   0  0  0  0  0  0  0  0  0  0  0  0
   38.7350   22.2470   34.8450 C   0  0  0  0  0  0  0  0  0  0  0  0
   39.6740   22.0520   33.8550 C   0  0  0  0  0  0  0  0  0  0  0  0
   39.4870   21.4850   32.6290 C   0  0  0  0  0  0  0  0  0  0  0  0
   38.2500   21.0570   32.3280 N   0  0  0  0  0  0  0  0  0  0  0  0
   37.2900   21.2180   33.2510 C   0  0  0  0  0  0  0  0  0  0  0  0
   37.5410   21.7840   34.4380 N   0  0  0  0  0  0  0  0  0  0  0  0
   42.0730   22.0740   36.1590 C   0  0  2  0  0  0  0  0  0  0  0  0
   43.2360   21.1370   36.3130 C   0  0  0  0  0  0  0  0  0  0  0  0
   43.0620   19.9060   36.9550 C   0  0  0  0  0  0  0  0  0  0  0  0
   44.1440   19.0430   37.0820 C   0  0  0  0  0  0  0  0  0  0  0  0
   45.3280   19.4650   36.5620 N   0  0  0  0  0  0  0  0  0  0  0  0
   45.4820   20.6690   35.9410 C   0  0  0  0  0  0  0  0  0  0  0  0
   44.4230   21.5120   35.8170 N   0  0  0  0  0  0  0  0  0  0  0  0
   42.6060   23.4100   36.6820 C   0  0  0  0  0  0  0  0  0  0  0  0
   41.3017   21.2301   37.9038 H   0  0  0  0  0  0  0  0  0  0  0  0
   40.5006   20.7630   36.2945 H   0  0  0  0  0  0  0  0  0  0  0  0
   40.3782   22.9001   39.1874 H   0  0  0  0  0  0  0  0  0  0  0  0
   38.5673   24.4764   39.6596 H   0  0  0  0  0  0  0  0  0  0  0  0
   36.9158   24.9914   37.8805 H   0  0  0  0  0  0  0  0  0  0  0  0
   37.1563   23.8710   35.6527 H   0  0  0  0  0  0  0  0  0  0  0  0
   40.6948   22.3942   34.0805 H   0  0  0  0  0  0  0  0  0  0  0  0
   40.3169   21.3822   31.9144 H   0  0  0  0  0  0  0  0  0  0  0  0
   36.2690   20.8757   33.0265 H   0  0  0  0  0  0  0  0  0  0  0  0
   41.7057   22.1820   35.1278 H   0  0  0  0  0  0  0  0  0  0  0  0
   42.0773   19.6237   37.3558 H   0  0  0  0  0  0  0  0  0  0  0  0
   44.0476   18.0663   37.5788 H   0  0  0  0  0  0  0  0  0  0  0  0
   46.4645   20.9585   35.5398 H   0  0  0  0  0  0  0  0  0  0  0  0
   42.6024   23.4009   37.7820 H   0  0  0  0  0  0  0  0  0  0  0  0
   43.6336   23.5618   36.3200 H   0  0  0  0  0  0  0  0  0  0  0  0
   41.9651   24.2275   36.3200 H   0  0  0  0  0  0  0  0  0  0  0  0
  1  2  1  0
  2  3  2  0
  3  4  1  0
  5  4  2  0
  6  5  1  0
  7  6  2  0
  7  2  1  0
  8  7  1  0
  9  8  2  0
 10  9  1  0
 11 10  2  0
 11 12  1  0
 12 13  2  0
 13  8  1  0
 14 15  1  0
 14 21  1  0
 14  1  1  0
 15 16  2  0
 16 17  1  0
 18 17  2  0
 19 18  1  0
 20 19  2  0
 20 15  1  0
  1 22  1  0
  1 23  1  0
  3 24  1  0
  4 25  1  0
  5 26  1  0
  6 27  1  0
  9 28  1  0
 10 29  1  0
 12 30  1  0
 14 31  1  6
 16 32  1  0
 17 33  1  0
 19 34  1  0
 21 35  1  0
 21 36  1  0
 21 37  1  0
M  ISO  8  22   8  23   8  24  14  25  14  26  14  27  14  28  14  29  14
M  ISO  8  30  14  31   8  32  14  33  14  34  14  35   8  36   8  37   8
M  END
>  <minimizedAffinity>  (1) 
-4.57875729

>  <minimizedRMSD>  (1) 
0.662729561

$$$$
