
     RDKit          3D

 20 20  0  0  0  0  0  0  0  0999 V2000
   40.2120   24.9070   35.1820 C   0  0  0  0  0  0  0  0  0  0  0  0
   39.7070   23.8870   36.0330 C   0  0  0  0  0  0  0  0  0  0  0  0
   38.4280   24.2010   36.3700 C   0  0  0  0  0  0  0  0  0  0  0  0
   37.7590   25.3340   35.9410 N   0  0  0  0  0  0  0  0  0  0  0  0
   38.3220   26.2280   35.1450 C   0  0  0  0  0  0  0  0  0  0  0  0
   39.5640   26.0070   34.7650 N   0  0  0  0  0  0  0  0  0  0  0  0
   40.5930   22.8260   36.3350 C   0  0  0  0  0  0  0  0  0  0  0  0
   41.0030   22.8700   37.7160 F   0  0  0  0  0  0  0  0  0  0  0  0
   41.8790   22.8480   35.9360 F   0  0  0  0  0  0  0  0  0  0  0  0
   40.0440   21.5500   36.5290 F   0  0  0  0  0  0  0  0  0  0  0  0
   37.8170   23.2260   37.2030 C   0  0  0  0  0  0  0  0  0  0  0  0
   37.8990   23.4850   38.6120 C   0  0  0  0  0  0  0  0  0  0  0  0
   37.9740   24.8770   38.8330 O   0  0  0  0  0  0  0  0  0  0  0  0
   41.2454   24.7821   34.8264 H   0  0  0  0  0  0  0  0  0  0  0  0
   37.7740   27.1221   34.8129 H   0  0  0  0  0  0  0  0  0  0  0  0
   36.7532   23.1644   36.9301 H   0  0  0  0  0  0  0  0  0  0  0  0
   38.3705   22.2907   37.0329 H   0  0  0  0  0  0  0  0  0  0  0  0
   37.0051   23.0826   39.1110 H   0  0  0  0  0  0  0  0  0  0  0  0
   38.7980   23.0008   39.0212 H   0  0  0  0  0  0  0  0  0  0  0  0
   37.9837   25.0565   39.8065 H   0  0  0  0  0  0  0  0  0  0  0  0
  1  2  2  0
  2  7  1  0
  2  3  1  0
  3 11  1  0
  4  3  2  0
  5  4  1  0
  6  5  2  0
  6  1  1  0
  7 10  1  0
  7  8  1  0
  9  7  1  0
 11 12  1  0
 12 13  1  0
  1 14  1  0
  5 15  1  0
 11 16  1  0
 11 17  1  0
 12 18  1  0
 12 19  1  0
 13 20  1  0
M  ISO  7  14  14  15  14  16   8  17   8  18   8  19   8  20   3
M  END
>  <minimizedAffinity>  (1) 
-3.4685657

>  <minimizedRMSD>  (1) 
0.727707982

$$$$
