
     RDKit          3D

 40 43  0  0  1  0  0  0  0  0999 V2000
   37.7590   27.7650   35.3680 C   0  0  0  0  0  0  0  0  0  0  0  0
   38.7830   26.7190   35.8390 C   0  0  2  0  0  0  0  0  0  0  0  0
   40.0080   26.6570   35.0610 C   0  0  0  0  0  0  0  0  0  0  0  0
   39.0350   25.5080   35.1280 C   0  0  1  0  0  0  0  0  0  0  0  0
   39.3400   24.3290   36.0360 C   0  0  0  0  0  0  0  0  0  0  0  0
   38.3590   23.9880   36.9610 C   0  0  0  0  0  0  0  0  0  0  0  0
   38.8640   22.9550   37.6610 N   0  0  0  0  0  0  0  0  0  0  0  0
   40.1140   22.6320   37.2200 C   0  0  0  0  0  0  0  0  0  0  0  0
   41.0620   21.6910   37.5530 C   0  0  0  0  0  0  0  0  0  0  0  0
   42.2650   21.6630   36.8400 C   0  0  0  0  0  0  0  0  0  0  0  0
   42.5390   22.5560   35.8020 C   0  0  0  0  0  0  0  0  0  0  0  0
   41.5560   23.4790   35.5090 C   0  0  0  0  0  0  0  0  0  0  0  0
   40.3840   23.5150   36.1960 C   0  0  0  0  0  0  0  0  0  0  0  0
   36.8090   27.1180   34.4840 C   0  0  0  0  0  0  0  0  0  0  0  0
   36.4110   28.1070   31.0670 C   0  0  0  0  0  0  0  0  0  0  0  0
   36.7820   27.2670   32.1480 C   0  0  0  0  0  0  0  0  0  0  0  0
   36.5190   27.8610   33.3170 C   0  0  0  0  0  0  0  0  0  0  0  0
   35.9560   29.1290   33.4110 N   0  0  0  0  0  0  0  0  0  0  0  0
   35.6350   29.8560   32.3490 C   0  0  0  0  0  0  0  0  0  0  0  0
   35.8670   29.3350   31.1680 N   0  0  0  0  0  0  0  0  0  0  0  0
   37.3270   26.0110   31.7820 C   0  0  0  0  0  0  0  0  0  0  0  0
   38.7150   25.9260   32.0520 F   0  0  0  0  0  0  0  0  0  0  0  0
   37.5480   25.6810   30.4980 F   0  0  0  0  0  0  0  0  0  0  0  0
   37.0710   24.9100   32.6010 F   0  0  0  0  0  0  0  0  0  0  0  0
   37.2305   28.1836   36.2372 H   0  0  0  0  0  0  0  0  0  0  0  0
   38.2721   28.5798   34.8362 H   0  0  0  0  0  0  0  0  0  0  0  0
   38.5052   26.8847   36.8904 H   0  0  0  0  0  0  0  0  0  0  0  0
   40.9839   26.5899   35.5640 H   0  0  0  0  0  0  0  0  0  0  0  0
   40.4706   27.2571   34.2636 H   0  0  0  0  0  0  0  0  0  0  0  0
   38.5440   24.8959   34.3571 H   0  0  0  0  0  0  0  0  0  0  0  0
   37.3758   24.4632   37.0930 H   0  0  0  0  0  0  0  0  0  0  0  0
   38.3724   22.4729   38.4271 H   0  0  0  0  0  0  0  0  0  0  0  0
   40.8766   20.9734   38.3659 H   0  0  0  0  0  0  0  0  0  0  0  0
   43.0221   20.9108   37.1064 H   0  0  0  0  0  0  0  0  0  0  0  0
   43.4883   22.5253   35.2472 H   0  0  0  0  0  0  0  0  0  0  0  0
   41.7253   24.2038   34.6991 H   0  0  0  0  0  0  0  0  0  0  0  0
   37.2235   26.1450   34.1817 H   0  0  0  0  0  0  0  0  0  0  0  0
   35.8670   27.0186   35.0432 H   0  0  0  0  0  0  0  0  0  0  0  0
   36.5836   27.7196   30.0520 H   0  0  0  0  0  0  0  0  0  0  0  0
   35.1914   30.8570   32.4547 H   0  0  0  0  0  0  0  0  0  0  0  0
  1  2  1  0
  3  4  1  0
  3  2  1  0
  4  2  1  0
  4  5  1  0
  5 13  1  0
  5  6  2  0
  6  7  1  0
  8  9  2  0
  8  7  1  0
 10  9  1  0
 11 10  2  0
 12 11  1  0
 12 13  2  0
 13  8  1  0
 14  1  1  0
 15 20  2  0
 15 16  1  0
 16 17  2  0
 17 18  1  0
 17 14  1  0
 19 18  2  0
 20 19  1  0
 21 22  1  0
 21 16  1  0
 21 24  1  0
 23 21  1  0
  1 25  1  0
  1 26  1  0
  2 27  1  1
  3 28  1  0
  3 29  1  0
  4 30  1  6
  6 31  1  0
  7 32  1  0
  9 33  1  0
 10 34  1  0
 11 35  1  0
 12 36  1  0
 14 37  1  0
 14 38  1  0
 15 39  1  0
 19 40  1  0
M  ISO  8  25   8  26   8  27  13  28  13  29  13  30  13  31  14  32   9
M  ISO  8  33  14  34  14  35  14  36  14  37   8  38   8  39  14  40  14
M  END
>  <minimizedAffinity>  (1) 
-5.86516285

>  <minimizedRMSD>  (1) 
6.83357

$$$$
