
     RDKit          3D

 33 35  0  0  1  0  0  0  0  0999 V2000
   39.8330   24.9690   35.2040 C   0  0  0  0  0  0  0  0  0  0  0  0
   38.5150   24.2450   35.5280 C   0  0  2  0  0  0  0  0  0  0  0  0
   37.9530   24.6020   36.8530 C   0  0  0  0  0  0  0  0  0  0  0  0
   38.3940   23.1960   36.4920 C   0  0  1  0  0  0  0  0  0  0  0  0
   37.2700   22.2210   36.1570 C   0  0  0  0  0  0  0  0  0  0  0  0
   36.9620   21.6580   34.9110 C   0  0  0  0  0  0  0  0  0  0  0  0
   35.8770   20.8350   35.0350 N   0  0  0  0  0  0  0  0  0  0  0  0
   35.5120   20.8780   36.3260 C   0  0  0  0  0  0  0  0  0  0  0  0
   36.3540   21.7050   36.9600 N   0  0  0  0  0  0  0  0  0  0  0  0
   40.8120   23.9660   34.8140 C   0  0  0  0  0  0  0  0  0  0  0  0
   43.8420   23.5680   36.6810 C   0  0  0  0  0  0  0  0  0  0  0  0
   42.5350   23.2410   36.2150 C   0  0  0  0  0  0  0  0  0  0  0  0
   42.0910   24.1800   35.3750 C   0  0  0  0  0  0  0  0  0  0  0  0
   42.8330   25.3040   35.0330 N   0  0  0  0  0  0  0  0  0  0  0  0
   44.0380   25.5380   35.5080 C   0  0  0  0  0  0  0  0  0  0  0  0
   44.5470   24.6540   36.3440 N   0  0  0  0  0  0  0  0  0  0  0  0
   41.9980   22.0250   36.7200 C   0  0  0  0  0  0  0  0  0  0  0  0
   41.1080   22.2440   37.8030 F   0  0  0  0  0  0  0  0  0  0  0  0
   42.7280   21.1920   37.4850 F   0  0  0  0  0  0  0  0  0  0  0  0
   41.0090   21.3870   35.9900 F   0  0  0  0  0  0  0  0  0  0  0  0
   39.6761   25.6786   34.3782 H   0  0  0  0  0  0  0  0  0  0  0  0
   40.1878   25.5286   36.0821 H   0  0  0  0  0  0  0  0  0  0  0  0
   38.2089   24.2623   34.4716 H   0  0  0  0  0  0  0  0  0  0  0  0
   38.5374   25.2054   37.5632 H   0  0  0  0  0  0  0  0  0  0  0  0
   37.0329   25.0762   37.2253 H   0  0  0  0  0  0  0  0  0  0  0  0
   39.0689   22.4652   36.9614 H   0  0  0  0  0  0  0  0  0  0  0  0
   37.5094   21.8490   33.9762 H   0  0  0  0  0  0  0  0  0  0  0  0
   34.6725   20.3323   36.7815 H   0  0  0  0  0  0  0  0  0  0  0  0
   36.2945   21.9167   37.9663 H   0  0  0  0  0  0  0  0  0  0  0  0
   40.4492   22.9800   35.1398 H   0  0  0  0  0  0  0  0  0  0  0  0
   40.9228   24.0291   33.7214 H   0  0  0  0  0  0  0  0  0  0  0  0
   44.3138   22.8632   37.3815 H   0  0  0  0  0  0  0  0  0  0  0  0
   44.6001   26.4381   35.2183 H   0  0  0  0  0  0  0  0  0  0  0  0
  1  2  1  0
  2  4  1  0
  2  3  1  0
  4  3  1  0
  5  4  1  0
  5  9  1  0
  6  7  1  0
  6  5  2  0
  7  8  2  0
  8  9  1  0
 10  1  1  0
 10 13  1  0
 12 11  2  0
 12 17  1  0
 13 12  1  0
 14 13  2  0
 14 15  1  0
 15 16  2  0
 16 11  1  0
 17 19  1  0
 17 18  1  0
 20 17  1  0
  1 21  1  0
  1 22  1  0
  2 23  1  6
  3 24  1  0
  3 25  1  0
  4 26  1  1
  6 27  1  0
  8 28  1  0
  9 29  1  0
 10 30  1  0
 10 31  1  0
 11 32  1  0
 15 33  1  0
M  ISO  8  21   8  22   8  23  13  24  13  25  13  26  13  27  14  28  14
M  ISO  5  29   9  30   8  31   8  32  14  33  14
M  END
>  <minimizedAffinity>  (1) 
-4.50023746

>  <minimizedRMSD>  (1) 
1.48913729

$$$$
