
     RDKit          3D

 32 34  0  0  1  0  0  0  0  0999 V2000
   42.2610   24.7230   34.0840 C   0  0  0  0  0  0  0  0  0  0  0  0
   43.1430   25.3710   35.1370 C   0  0  2  0  0  0  0  0  0  0  0  0
   44.1910   26.2910   34.5960 C   0  0  0  0  0  0  0  0  0  0  0  0
   44.5350   25.0500   35.3550 C   0  0  1  0  0  0  0  0  0  0  0  0
   45.0250   25.2610   36.7790 C   0  0  0  0  0  0  0  0  0  0  0  0
   46.2300   24.5660   37.1550 C   0  0  0  0  0  0  0  0  0  0  0  0
   46.4970   25.0820   38.9290 S   0  0  0  0  0  0  0  0  0  0  0  0
   44.9340   26.1490   38.8580 C   0  0  0  0  0  0  0  0  0  0  0  0
   44.5910   25.9710   37.8020 N   0  0  0  0  0  0  0  0  0  0  0  0
   40.9260   24.5790   34.6250 C   0  0  0  0  0  0  0  0  0  0  0  0
   39.7330   22.6890   37.4190 C   0  0  0  0  0  0  0  0  0  0  0  0
   39.7050   23.6860   36.4110 C   0  0  0  0  0  0  0  0  0  0  0  0
   40.8350   23.6560   35.6920 C   0  0  0  0  0  0  0  0  0  0  0  0
   41.8660   22.7510   35.9430 N   0  0  0  0  0  0  0  0  0  0  0  0
   41.8210   21.8490   36.9030 C   0  0  0  0  0  0  0  0  0  0  0  0
   40.7410   21.8230   37.6440 N   0  0  0  0  0  0  0  0  0  0  0  0
   38.5290   24.4700   36.3660 C   0  0  0  0  0  0  0  0  0  0  0  0
   38.8130   25.8560   36.3180 F   0  0  0  0  0  0  0  0  0  0  0  0
   37.7630   24.6600   37.4600 F   0  0  0  0  0  0  0  0  0  0  0  0
   37.8110   24.5220   35.1770 F   0  0  0  0  0  0  0  0  0  0  0  0
   42.6633   23.7334   33.8215 H   0  0  0  0  0  0  0  0  0  0  0  0
   42.2345   25.3482   33.1793 H   0  0  0  0  0  0  0  0  0  0  0  0
   42.2988   25.3973   35.8417 H   0  0  0  0  0  0  0  0  0  0  0  0
   44.3744   26.3492   33.5130 H   0  0  0  0  0  0  0  0  0  0  0  0
   44.4247   27.3622   34.6846 H   0  0  0  0  0  0  0  0  0  0  0  0
   45.1732   24.1775   35.1515 H   0  0  0  0  0  0  0  0  0  0  0  0
   46.8462   23.8916   36.5422 H   0  0  0  0  0  0  0  0  0  0  0  0
   44.4822   26.7757   39.6410 H   0  0  0  0  0  0  0  0  0  0  0  0
   40.5921   25.5620   34.9884 H   0  0  0  0  0  0  0  0  0  0  0  0
   40.2935   24.1907   33.8131 H   0  0  0  0  0  0  0  0  0  0  0  0
   38.8537   22.6159   38.0758 H   0  0  0  0  0  0  0  0  0  0  0  0
   42.6527   21.1497   37.0742 H   0  0  0  0  0  0  0  0  0  0  0  0
  1 10  1  0
  1  2  1  0
  2  4  1  0
  3  2  1  0
  3  4  1  0
  4  5  1  0
  5  6  2  0
  5  9  1  0
  6  7  1  0
  8  7  1  0
  9  8  2  0
 10 13  1  0
 11 16  2  0
 12 11  1  0
 13 14  1  0
 13 12  2  0
 14 15  2  0
 15 16  1  0
 17 12  1  0
 17 19  1  0
 18 17  1  0
 20 17  1  0
  1 21  1  0
  1 22  1  0
  2 23  1  1
  3 24  1  0
  3 25  1  0
  4 26  1  6
  6 27  1  0
  8 28  1  0
 10 29  1  0
 10 30  1  0
 11 31  1  0
 15 32  1  0
M  ISO  8  21   8  22   8  23  13  24  13  25  13  26  13  27  14  28  14
M  ISO  4  29   8  30   8  31  14  32  14
M  END
>  <minimizedAffinity>  (1) 
-4.3553257

>  <minimizedRMSD>  (1) 
6.7157836

$$$$
