
     RDKit          3D

 33 35  0  0  1  0  0  0  0  0999 V2000
   39.1770   24.7440   35.1270 C   0  0  0  0  0  0  0  0  0  0  0  0
   40.4240   22.4670   37.5870 C   0  0  0  0  0  0  0  0  0  0  0  0
   39.5010   23.3600   36.9880 C   0  0  0  0  0  0  0  0  0  0  0  0
   40.0110   23.8630   35.8510 C   0  0  0  0  0  0  0  0  0  0  0  0
   41.2680   23.5300   35.3670 N   0  0  0  0  0  0  0  0  0  0  0  0
   42.0780   22.6810   35.9900 C   0  0  0  0  0  0  0  0  0  0  0  0
   41.6500   22.1460   37.1110 N   0  0  0  0  0  0  0  0  0  0  0  0
   38.2840   23.5210   37.6790 C   0  0  0  0  0  0  0  0  0  0  0  0
   38.1100   24.8600   38.1410 F   0  0  0  0  0  0  0  0  0  0  0  0
   38.1050   23.0610   38.9300 F   0  0  0  0  0  0  0  0  0  0  0  0
   37.0890   23.6370   36.9530 F   0  0  0  0  0  0  0  0  0  0  0  0
   39.5570   26.1430   35.1920 C   0  0  0  0  0  0  0  0  0  0  0  0
   38.3510   27.0320   35.5150 C   0  0  2  0  0  0  0  0  0  0  0  0
   37.0870   26.4660   35.3020 C   0  0  0  0  0  0  0  0  0  0  0  0
   37.4980   27.5150   34.4260 C   0  0  1  0  0  0  0  0  0  0  0  0
   36.2870   28.0840   33.9610 C   0  0  0  0  0  0  0  0  0  0  0  0
   35.8670   29.5350   33.8910 C   0  0  0  0  0  0  0  0  0  0  0  0
   36.3120   28.8750   32.6420 C   0  0  0  0  0  0  0  0  0  0  0  0
   38.1553   24.6494   35.5236 H   0  0  0  0  0  0  0  0  0  0  0  0
   39.2652   24.4510   34.0704 H   0  0  0  0  0  0  0  0  0  0  0  0
   40.1149   21.9892   38.5283 H   0  0  0  0  0  0  0  0  0  0  0  0
   43.0698   22.4352   35.5826 H   0  0  0  0  0  0  0  0  0  0  0  0
   40.3176   26.2719   35.9761 H   0  0  0  0  0  0  0  0  0  0  0  0
   39.9558   26.4409   34.2111 H   0  0  0  0  0  0  0  0  0  0  0  0
   38.8757   27.5243   36.3471 H   0  0  0  0  0  0  0  0  0  0  0  0
   37.0098   25.4376   34.9193 H   0  0  0  0  0  0  0  0  0  0  0  0
   36.2052   26.3053   35.9396 H   0  0  0  0  0  0  0  0  0  0  0  0
   37.9562   28.0567   33.5854 H   0  0  0  0  0  0  0  0  0  0  0  0
   35.8048   27.2129   34.4286 H   0  0  0  0  0  0  0  0  0  0  0  0
   34.8076   29.8023   34.0184 H   0  0  0  0  0  0  0  0  0  0  0  0
   36.1692   30.4475   34.4259 H   0  0  0  0  0  0  0  0  0  0  0  0
   35.5828   28.6474   31.8505 H   0  0  0  0  0  0  0  0  0  0  0  0
   37.0743   29.0894   31.8785 H   0  0  0  0  0  0  0  0  0  0  0  0
  1 12  1  0
  1  4  1  0
  3  2  2  0
  3  8  1  0
  4  3  1  0
  5  4  2  0
  5  6  1  0
  6  7  2  0
  7  2  1  0
  8  9  1  0
  8 10  1  0
 11  8  1  0
 12 13  1  0
 14 13  1  0
 15 14  1  0
 15 13  1  0
 16 15  1  0
 17 16  1  0
 18 17  1  0
 18 16  1  0
  1 19  1  0
  1 20  1  0
  2 21  1  0
  6 22  1  0
 12 23  1  0
 12 24  1  0
 13 25  1  1
 14 26  1  0
 14 27  1  0
 15 28  1  1
 16 29  1  0
 17 30  1  0
 17 31  1  0
 18 32  1  0
 18 33  1  0
M  ISO  8  19   8  20   8  21  14  22  14  23   8  24   8  25  13  26  13
M  ISO  7  27  13  28  13  29  13  30  13  31  13  32  13  33  13
M  END
>  <minimizedAffinity>  (1) 
-4.7763772

>  <minimizedRMSD>  (1) 
4.56953478

$$$$
