
     RDKit          3D

 31 33  0  0  1  0  0  0  0  0999 V2000
   39.8170   24.8330   35.4230 C   0  0  0  0  0  0  0  0  0  0  0  0
   38.5090   24.0320   35.4050 C   0  0  2  0  0  0  0  0  0  0  0  0
   37.7510   24.0720   36.6850 C   0  0  0  0  0  0  0  0  0  0  0  0
   38.3030   22.8070   36.1190 C   0  0  1  0  0  0  0  0  0  0  0  0
   37.2210   21.9310   35.4850 C   0  0  0  0  0  0  0  0  0  0  0  0
   36.2510   21.2820   36.1650 N   0  0  0  0  0  0  0  0  0  0  0  0
   35.4750   20.6190   35.3730 O   0  0  0  0  0  0  0  0  0  0  0  0
   35.8880   20.7910   34.1420 C   0  0  0  0  0  0  0  0  0  0  0  0
   36.9540   21.5900   34.1880 N   0  0  0  0  0  0  0  0  0  0  0  0
   40.8590   24.0200   34.8240 C   0  0  0  0  0  0  0  0  0  0  0  0
   43.8810   23.5650   36.6800 C   0  0  0  0  0  0  0  0  0  0  0  0
   42.5770   23.2590   36.2180 C   0  0  0  0  0  0  0  0  0  0  0  0
   42.1390   24.2150   35.3880 C   0  0  0  0  0  0  0  0  0  0  0  0
   42.8960   25.3350   35.0560 N   0  0  0  0  0  0  0  0  0  0  0  0
   44.1110   25.5510   35.5310 C   0  0  0  0  0  0  0  0  0  0  0  0
   44.6080   24.6540   36.3530 N   0  0  0  0  0  0  0  0  0  0  0  0
   42.0370   22.0490   36.7020 C   0  0  0  0  0  0  0  0  0  0  0  0
   41.0670   22.2590   37.7130 F   0  0  0  0  0  0  0  0  0  0  0  0
   42.7250   21.2330   37.5190 F   0  0  0  0  0  0  0  0  0  0  0  0
   41.1010   21.3740   35.9160 F   0  0  0  0  0  0  0  0  0  0  0  0
   39.6923   25.7614   34.8464 H   0  0  0  0  0  0  0  0  0  0  0  0
   40.0873   25.0929   36.4571 H   0  0  0  0  0  0  0  0  0  0  0  0
   38.3542   24.2693   34.3421 H   0  0  0  0  0  0  0  0  0  0  0  0
   38.1986   24.5220   37.5834 H   0  0  0  0  0  0  0  0  0  0  0  0
   36.7628   24.4298   37.0098 H   0  0  0  0  0  0  0  0  0  0  0  0
   38.9613   22.0100   36.4951 H   0  0  0  0  0  0  0  0  0  0  0  0
   35.4382   20.3563   33.2372 H   0  0  0  0  0  0  0  0  0  0  0  0
   40.9132   24.2626   33.7524 H   0  0  0  0  0  0  0  0  0  0  0  0
   40.5877   22.9702   35.0091 H   0  0  0  0  0  0  0  0  0  0  0  0
   44.3452   22.8462   37.3713 H   0  0  0  0  0  0  0  0  0  0  0  0
   44.6837   26.4469   35.2490 H   0  0  0  0  0  0  0  0  0  0  0  0
  2  1  1  0
  2  4  1  0
  2  3  1  0
  4  3  1  0
  5  4  1  0
  5  6  2  0
  7  6  1  0
  8  9  2  0
  8  7  1  0
  9  5  1  0
 10 13  1  0
 10  1  1  0
 12 11  2  0
 12 17  1  0
 13 12  1  0
 14 13  2  0
 14 15  1  0
 15 16  2  0
 16 11  1  0
 17 19  1  0
 17 18  1  0
 20 17  1  0
  1 21  1  0
  1 22  1  0
  2 23  1  6
  3 24  1  0
  3 25  1  0
  4 26  1  1
  8 27  1  0
 10 28  1  0
 10 29  1  0
 11 30  1  0
 15 31  1  0
M  ISO  8  21   8  22   8  23  13  24  13  25  13  26  13  27  14  28   8
M  ISO  3  29   8  30  14  31  14
M  END
>  <minimizedAffinity>  (1) 
-4.29104042

>  <minimizedRMSD>  (1) 
1.81977761

$$$$
