
     RDKit          3D

 39 41  0  0  1  0  0  0  0  0999 V2000
   38.2450   26.4140   36.4320 C   0  0  0  0  0  0  0  0  0  0  0  0
   38.3210   24.8750   36.4920 C   0  0  2  0  0  0  0  0  0  0  0  0
   39.4430   24.2660   35.7840 C   0  0  0  0  0  0  0  0  0  0  0  0
   37.9940   24.0120   35.4250 C   0  0  1  0  0  0  0  0  0  0  0  0
   38.1370   23.2120   34.3230 N   0  0  0  0  0  0  0  0  0  0  0  0
   37.5620   21.8830   34.3610 C   0  0  0  0  0  0  0  0  0  0  0  0
   37.4990   21.1730   33.0720 C   0  0  0  0  0  0  0  0  0  0  0  0
   37.2780   21.9030   31.9420 O   0  0  0  0  0  0  0  0  0  0  0  0
   38.1150   23.0150   31.9220 C   0  0  0  0  0  0  0  0  0  0  0  0
   37.7230   23.8690   33.0630 C   0  0  0  0  0  0  0  0  0  0  0  0
   39.1440   26.8530   35.3760 C   0  0  0  0  0  0  0  0  0  0  0  0
   38.3820   27.5860   31.9560 C   0  0  0  0  0  0  0  0  0  0  0  0
   39.1820   27.2120   33.0670 C   0  0  0  0  0  0  0  0  0  0  0  0
   38.4620   27.2290   34.1900 C   0  0  0  0  0  0  0  0  0  0  0  0
   37.1190   27.5720   34.2250 N   0  0  0  0  0  0  0  0  0  0  0  0
   36.4330   27.9110   33.1480 C   0  0  0  0  0  0  0  0  0  0  0  0
   37.0730   27.9190   32.0020 N   0  0  0  0  0  0  0  0  0  0  0  0
   40.5290   26.9000   32.7590 C   0  0  0  0  0  0  0  0  0  0  0  0
   41.4460   27.6910   33.4940 F   0  0  0  0  0  0  0  0  0  0  0  0
   41.1100   27.2990   31.6120 F   0  0  0  0  0  0  0  0  0  0  0  0
   41.0820   25.7300   33.2800 F   0  0  0  0  0  0  0  0  0  0  0  0
   37.2162   26.7311   36.2060 H   0  0  0  0  0  0  0  0  0  0  0  0
   38.5347   26.8551   37.3971 H   0  0  0  0  0  0  0  0  0  0  0  0
   37.9296   24.8998   37.5197 H   0  0  0  0  0  0  0  0  0  0  0  0
   40.0842   24.8714   35.1264 H   0  0  0  0  0  0  0  0  0  0  0  0
   40.3171   23.6542   36.0517 H   0  0  0  0  0  0  0  0  0  0  0  0
   38.0171   24.8636   34.7291 H   0  0  0  0  0  0  0  0  0  0  0  0
   38.1642   21.2747   35.0519 H   0  0  0  0  0  0  0  0  0  0  0  0
   36.5174   22.0192   34.6776 H   0  0  0  0  0  0  0  0  0  0  0  0
   38.4585   20.6514   32.9403 H   0  0  0  0  0  0  0  0  0  0  0  0
   36.6098   20.5313   33.1588 H   0  0  0  0  0  0  0  0  0  0  0  0
   39.1638   22.7008   32.0277 H   0  0  0  0  0  0  0  0  0  0  0  0
   38.0213   23.5609   30.9716 H   0  0  0  0  0  0  0  0  0  0  0  0
   38.2178   24.8477   32.9779 H   0  0  0  0  0  0  0  0  0  0  0  0
   36.6325   24.0136   33.0608 H   0  0  0  0  0  0  0  0  0  0  0  0
   39.7172   27.7183   35.7404 H   0  0  0  0  0  0  0  0  0  0  0  0
   39.7977   26.0045   35.1255 H   0  0  0  0  0  0  0  0  0  0  0  0
   38.8704   27.6067   30.9706 H   0  0  0  0  0  0  0  0  0  0  0  0
   35.3672   28.1762   33.2093 H   0  0  0  0  0  0  0  0  0  0  0  0
  1  2  1  0
  3  2  1  0
  4  3  1  0
  4  2  1  0
  5  6  1  0
  5  4  1  0
  7  6  1  0
  8  7  1  0
  9  8  1  0
  9 10  1  0
 10  5  1  0
 11  1  1  0
 12 17  2  0
 12 13  1  0
 13 14  2  0
 14 15  1  0
 14 11  1  0
 16 15  2  0
 17 16  1  0
 18 13  1  0
 18 21  1  0
 18 19  1  0
 20 18  1  0
  1 22  1  0
  1 23  1  0
  2 24  1  1
  3 25  1  0
  3 26  1  0
  4 27  1  1
  6 28  1  0
  6 29  1  0
  7 30  1  0
  7 31  1  0
  9 32  1  0
  9 33  1  0
 10 34  1  0
 10 35  1  0
 11 36  1  0
 11 37  1  0
 12 38  1  0
 16 39  1  0
M  ISO  8  22   8  23   8  24  13  25  13  26  13  27  13  28  13  29  13
M  ISO  8  30  13  31  13  32  13  33  13  34  13  35  13  36   8  37   8
M  ISO  2  38  14  39  14
M  END
>  <minimizedAffinity>  (1) 
-4.22942924

>  <minimizedRMSD>  (1) 
5.9297986

$$$$
