
     RDKit          3D

 41 43  0  0  1  0  0  0  0  0999 V2000
   42.0140   26.9980   33.8540 C   0  0  0  0  0  0  0  0  0  0  0  0
   40.4840   27.1220   33.8470 C   0  0  2  0  0  0  0  0  0  0  0  0
   39.8380   26.8580   35.1510 C   0  0  0  0  0  0  0  0  0  0  0  0
   39.5890   26.0000   33.9190 C   0  0  1  0  0  0  0  0  0  0  0  0
   38.3300   26.3010   33.1860 N   0  0  0  0  0  0  0  0  0  0  0  0
   37.3550   25.2430   33.2790 C   0  0  0  0  0  0  0  0  0  0  0  0
   37.7370   24.1570   32.3040 C   0  0  0  0  0  0  0  0  0  0  0  0
   37.4130   24.6110   30.9190 C   0  0  0  0  0  0  0  0  0  0  0  0
   37.4460   26.1280   30.9010 C   0  0  0  0  0  0  0  0  0  0  0  0
   38.6180   26.5150   31.7850 C   0  0  0  0  0  0  0  0  0  0  0  0
   42.3550   25.5970   34.0030 C   0  0  0  0  0  0  0  0  0  0  0  0
   43.9970   24.1500   36.8320 C   0  0  0  0  0  0  0  0  0  0  0  0
   42.9900   24.3100   35.8470 C   0  0  0  0  0  0  0  0  0  0  0  0
   43.2680   25.3440   35.0530 C   0  0  0  0  0  0  0  0  0  0  0  0
   44.4000   26.1340   35.2020 N   0  0  0  0  0  0  0  0  0  0  0  0
   45.3050   25.9240   36.1540 C   0  0  0  0  0  0  0  0  0  0  0  0
   45.0940   24.9210   36.9710 N   0  0  0  0  0  0  0  0  0  0  0  0
   41.9390   23.3590   35.9030 C   0  0  0  0  0  0  0  0  0  0  0  0
   41.9870   22.5700   37.0780 F   0  0  0  0  0  0  0  0  0  0  0  0
   41.9460   22.2460   35.1470 F   0  0  0  0  0  0  0  0  0  0  0  0
   40.6560   23.8040   36.2170 F   0  0  0  0  0  0  0  0  0  0  0  0
   42.4303   27.5738   34.6938 H   0  0  0  0  0  0  0  0  0  0  0  0
   42.4311   27.3925   32.9157 H   0  0  0  0  0  0  0  0  0  0  0  0
   40.5334   27.9387   33.1118 H   0  0  0  0  0  0  0  0  0  0  0  0
   40.4247   26.4654   35.9946 H   0  0  0  0  0  0  0  0  0  0  0  0
   39.2192   27.4274   35.8601 H   0  0  0  0  0  0  0  0  0  0  0  0
   39.6309   24.9168   33.7322 H   0  0  0  0  0  0  0  0  0  0  0  0
   37.3434   24.8372   34.3014 H   0  0  0  0  0  0  0  0  0  0  0  0
   36.3533   25.6299   33.0407 H   0  0  0  0  0  0  0  0  0  0  0  0
   38.8151   23.9534   32.3826 H   0  0  0  0  0  0  0  0  0  0  0  0
   37.1782   23.2378   32.5340 H   0  0  0  0  0  0  0  0  0  0  0  0
   38.1566   24.2134   30.2126 H   0  0  0  0  0  0  0  0  0  0  0  0
   36.4183   24.2476   30.6215 H   0  0  0  0  0  0  0  0  0  0  0  0
   37.5981   26.4977   29.8762 H   0  0  0  0  0  0  0  0  0  0  0  0
   36.5013   26.5625   31.2598 H   0  0  0  0  0  0  0  0  0  0  0  0
   39.4910   25.9074   31.5045 H   0  0  0  0  0  0  0  0  0  0  0  0
   38.8171   27.5867   31.6376 H   0  0  0  0  0  0  0  0  0  0  0  0
   41.4314   25.0338   34.2023 H   0  0  0  0  0  0  0  0  0  0  0  0
   42.8436   25.2833   33.0687 H   0  0  0  0  0  0  0  0  0  0  0  0
   43.8720   23.3230   37.5465 H   0  0  0  0  0  0  0  0  0  0  0  0
   46.1934   26.5653   36.2515 H   0  0  0  0  0  0  0  0  0  0  0  0
  1 11  1  0
  2  1  1  0
  2  4  1  0
  2  3  1  0
  4  3  1  0
  5  6  1  0
  5  4  1  0
  7  6  1  0
  8  7  1  0
  9  8  1  0
  9 10  1  0
 10  5  1  0
 11 14  1  0
 12 17  2  0
 13 18  1  0
 13 12  1  0
 14 15  1  0
 14 13  2  0
 15 16  2  0
 16 17  1  0
 18 21  1  0
 18 19  1  0
 20 18  1  0
  1 22  1  0
  1 23  1  0
  2 24  1  6
  3 25  1  0
  3 26  1  0
  4 27  1  1
  6 28  1  0
  6 29  1  0
  7 30  1  0
  7 31  1  0
  8 32  1  0
  8 33  1  0
  9 34  1  0
  9 35  1  0
 10 36  1  0
 10 37  1  0
 11 38  1  0
 11 39  1  0
 12 40  1  0
 16 41  1  0
M  ISO  8  22   8  23   8  24  13  25  13  26  13  27  13  28  13  29  13
M  ISO  8  30  13  31  13  32  13  33  13  34  13  35  13  36  13  37  13
M  ISO  4  38   8  39   8  40  14  41  14
M  END
>  <minimizedAffinity>  (1) 
-4.05439281

>  <minimizedRMSD>  (1) 
4.54555225

$$$$
