
     RDKit          3D

 42 44  0  0  1  0  0  0  0  0999 V2000
   40.9490   21.6520   36.7520 C   0  0  0  0  0  0  0  0  0  0  0  0
   39.8850   22.5950   37.0500 C   0  0  0  0  0  0  0  0  0  0  0  0
   39.5600   22.9690   38.3450 C   0  0  0  0  0  0  0  0  0  0  0  0
   38.5420   23.8670   38.6210 C   0  0  0  0  0  0  0  0  0  0  0  0
   37.8140   24.4230   37.5820 C   0  0  0  0  0  0  0  0  0  0  0  0
   38.1260   24.0590   36.2520 C   0  0  0  0  0  0  0  0  0  0  0  0
   39.1500   23.1560   36.0340 C   0  0  0  0  0  0  0  0  0  0  0  0
   39.2020   22.9360   34.6370 N   0  0  0  0  0  0  0  0  0  0  0  0
   38.3880   21.8840   34.0180 C   0  0  0  0  0  0  0  0  0  0  0  0
   37.5490   22.4720   32.8860 C   0  0  0  0  0  0  0  0  0  0  0  0
   38.3590   23.1250   31.9570 O   0  0  0  0  0  0  0  0  0  0  0  0
   38.9080   24.2120   32.6580 C   0  0  0  0  0  0  0  0  0  0  0  0
   39.9590   23.6290   33.5780 C   0  0  0  0  0  0  0  0  0  0  0  0
   42.1510   22.1750   36.0730 C   0  0  2  0  0  0  0  0  0  0  0  0
   43.2800   21.2070   36.2530 C   0  0  0  0  0  0  0  0  0  0  0  0
   43.0520   19.9910   36.9000 C   0  0  0  0  0  0  0  0  0  0  0  0
   44.1020   19.1100   37.0600 C   0  0  0  0  0  0  0  0  0  0  0  0
   45.3280   19.4870   36.5660 N   0  0  0  0  0  0  0  0  0  0  0  0
   45.5280   20.6590   35.9460 C   0  0  0  0  0  0  0  0  0  0  0  0
   44.4970   21.5080   35.7980 N   0  0  0  0  0  0  0  0  0  0  0  0
   42.6780   23.4700   36.6900 C   0  0  0  0  0  0  0  0  0  0  0  0
   41.2747   21.2102   37.7053 H   0  0  0  0  0  0  0  0  0  0  0  0
   40.5058   20.9460   36.0343 H   0  0  0  0  0  0  0  0  0  0  0  0
   40.1298   22.5381   39.1814 H   0  0  0  0  0  0  0  0  0  0  0  0
   38.3124   24.1377   39.6622 H   0  0  0  0  0  0  0  0  0  0  0  0
   37.0041   25.1380   37.7889 H   0  0  0  0  0  0  0  0  0  0  0  0
   37.5652   24.4858   35.4074 H   0  0  0  0  0  0  0  0  0  0  0  0
   39.0484   21.1025   33.6141 H   0  0  0  0  0  0  0  0  0  0  0  0
   37.7190   21.4513   34.7765 H   0  0  0  0  0  0  0  0  0  0  0  0
   37.0041   21.6603   32.3818 H   0  0  0  0  0  0  0  0  0  0  0  0
   36.8431   23.2002   33.3118 H   0  0  0  0  0  0  0  0  0  0  0  0
   39.3667   24.9256   31.9578 H   0  0  0  0  0  0  0  0  0  0  0  0
   38.1372   24.7575   33.2223 H   0  0  0  0  0  0  0  0  0  0  0  0
   40.5983   22.9190   33.0328 H   0  0  0  0  0  0  0  0  0  0  0  0
   40.6239   24.4040   33.9870 H   0  0  0  0  0  0  0  0  0  0  0  0
   41.8490   22.3376   35.0278 H   0  0  0  0  0  0  0  0  0  0  0  0
   42.0498   19.7388   37.2768 H   0  0  0  0  0  0  0  0  0  0  0  0
   43.9630   18.1422   37.5640 H   0  0  0  0  0  0  0  0  0  0  0  0
   46.5249   20.9225   35.5628 H   0  0  0  0  0  0  0  0  0  0  0  0
   42.6466   23.3929   37.7868 H   0  0  0  0  0  0  0  0  0  0  0  0
   43.7153   23.6361   36.3636 H   0  0  0  0  0  0  0  0  0  0  0  0
   42.0515   24.3132   36.3636 H   0  0  0  0  0  0  0  0  0  0  0  0
  1  2  1  0
  2  3  2  0
  3  4  1  0
  5  4  2  0
  6  5  1  0
  7  6  2  0
  7  2  1  0
  8  7  1  0
  9  8  1  0
 10  9  1  0
 11 12  1  0
 11 10  1  0
 12 13  1  0
 13  8  1  0
 14 15  1  0
 14 21  1  0
 14  1  1  0
 15 16  2  0
 16 17  1  0
 18 17  2  0
 19 18  1  0
 20 19  2  0
 20 15  1  0
  1 22  1  0
  1 23  1  0
  3 24  1  0
  4 25  1  0
  5 26  1  0
  6 27  1  0
  9 28  1  0
  9 29  1  0
 10 30  1  0
 10 31  1  0
 12 32  1  0
 12 33  1  0
 13 34  1  0
 13 35  1  0
 14 36  1  6
 16 37  1  0
 17 38  1  0
 19 39  1  0
 21 40  1  0
 21 41  1  0
 21 42  1  0
M  ISO  8  22   8  23   8  24  14  25  14  26  14  27  14  28  13  29  13
M  ISO  8  30  13  31  13  32  13  33  13  34  13  35  13  36   8  37  14
M  ISO  5  38  14  39  14  40   8  41   8  42   8
M  END
>  <minimizedAffinity>  (1) 
-4.50287676

>  <minimizedRMSD>  (1) 
1.04419267

$$$$
