
     RDKit          3D

 36 38  0  0  1  0  0  0  0  0999 V2000
   40.9190   21.6160   36.9390 C   0  0  0  0  0  0  0  0  0  0  0  0
   39.8210   22.5250   37.1890 C   0  0  0  0  0  0  0  0  0  0  0  0
   39.6140   23.1330   38.4320 C   0  0  0  0  0  0  0  0  0  0  0  0
   38.5890   24.0230   38.6690 C   0  0  0  0  0  0  0  0  0  0  0  0
   37.7260   24.3500   37.6750 C   0  0  0  0  0  0  0  0  0  0  0  0
   37.9160   23.7570   36.4350 C   0  0  0  0  0  0  0  0  0  0  0  0
   38.9440   22.8530   36.1910 C   0  0  0  0  0  0  0  0  0  0  0  0
   38.7710   22.2260   34.8940 C   0  0  0  0  0  0  0  0  0  0  0  0
   37.5560   21.7750   34.3620 C   0  0  0  0  0  0  0  0  0  0  0  0
   37.6660   21.2670   33.1260 N   0  0  0  0  0  0  0  0  0  0  0  0
   38.9590   21.3630   32.7960 C   0  0  0  0  0  0  0  0  0  0  0  0
   39.5610   21.9200   33.8390 N   0  0  0  0  0  0  0  0  0  0  0  0
   42.0610   22.1140   36.1530 C   0  0  2  0  0  0  0  0  0  0  0  0
   43.2110   21.1590   36.2950 C   0  0  0  0  0  0  0  0  0  0  0  0
   43.0200   19.9350   36.9470 C   0  0  0  0  0  0  0  0  0  0  0  0
   44.0910   19.0680   37.0850 C   0  0  0  0  0  0  0  0  0  0  0  0
   45.2970   19.4740   36.5630 N   0  0  0  0  0  0  0  0  0  0  0  0
   45.4520   20.6570   35.9400 C   0  0  0  0  0  0  0  0  0  0  0  0
   44.4090   21.4920   35.8100 N   0  0  0  0  0  0  0  0  0  0  0  0
   42.6220   23.4380   36.6830 C   0  0  0  0  0  0  0  0  0  0  0  0
   41.3088   21.2965   37.9167 H   0  0  0  0  0  0  0  0  0  0  0  0
   40.4823   20.8205   36.3173 H   0  0  0  0  0  0  0  0  0  0  0  0
   40.3000   22.8897   39.2568 H   0  0  0  0  0  0  0  0  0  0  0  0
   38.4703   24.4696   39.6672 H   0  0  0  0  0  0  0  0  0  0  0  0
   36.9040   25.0607   37.8460 H   0  0  0  0  0  0  0  0  0  0  0  0
   37.2283   24.0113   35.6150 H   0  0  0  0  0  0  0  0  0  0  0  0
   36.6021   21.8322   34.9067 H   0  0  0  0  0  0  0  0  0  0  0  0
   39.4273   21.0451   31.8528 H   0  0  0  0  0  0  0  0  0  0  0  0
   40.5735   22.1090   33.8452 H   0  0  0  0  0  0  0  0  0  0  0  0
   41.6848   22.2301   35.1259 H   0  0  0  0  0  0  0  0  0  0  0  0
   42.0307   19.6650   37.3451 H   0  0  0  0  0  0  0  0  0  0  0  0
   43.9820   18.0969   37.5901 H   0  0  0  0  0  0  0  0  0  0  0  0
   46.4354   20.9402   35.5365 H   0  0  0  0  0  0  0  0  0  0  0  0
   42.6163   23.4245   37.7829 H   0  0  0  0  0  0  0  0  0  0  0  0
   43.6532   23.5695   36.3233 H   0  0  0  0  0  0  0  0  0  0  0  0
   41.9992   24.2703   36.3233 H   0  0  0  0  0  0  0  0  0  0  0  0
  1  2  1  0
  2  3  2  0
  3  4  1  0
  5  4  2  0
  6  5  1  0
  7  6  2  0
  7  2  1  0
  8  7  1  0
  9  8  2  0
 10  9  1  0
 11 10  2  0
 11 12  1  0
 12  8  1  0
 13 14  1  0
 13 20  1  0
 13  1  1  0
 14 15  2  0
 15 16  1  0
 17 16  2  0
 18 17  1  0
 19 18  2  0
 19 14  1  0
  1 21  1  0
  1 22  1  0
  3 23  1  0
  4 24  1  0
  5 25  1  0
  6 26  1  0
  9 27  1  0
 11 28  1  0
 12 29  1  0
 13 30  1  6
 15 31  1  0
 16 32  1  0
 18 33  1  0
 20 34  1  0
 20 35  1  0
 20 36  1  0
M  ISO  8  21   8  22   8  23  14  24  14  25  14  26  14  27  14  28  14
M  ISO  8  29   9  30   8  31  14  32  14  33  14  34   8  35   8  36   8
M  END
>  <minimizedAffinity>  (1) 
-4.49676275

>  <minimizedRMSD>  (1) 
0.817062557

$$$$
