
     RDKit          3D

 34 37  0  0  1  0  0  0  0  0999 V2000
   38.1250   23.9280   34.7070 C   0  0  0  0  0  0  0  0  0  0  0  0
   38.2740   25.1480   34.0490 C   0  0  0  0  0  0  0  0  0  0  0  0
   37.8640   24.8870   32.7760 N   0  0  0  0  0  0  0  0  0  0  0  0
   37.5070   23.6060   32.7170 C   0  0  0  0  0  0  0  0  0  0  0  0
   37.6570   22.9810   33.9030 N   0  0  0  0  0  0  0  0  0  0  0  0
   38.4400   23.7030   36.1060 C   0  0  0  0  0  0  0  0  0  0  0  0
   39.6310   23.0530   36.4740 C   0  0  0  0  0  0  0  0  0  0  0  0
   39.8830   22.8620   37.8450 C   0  0  0  0  0  0  0  0  0  0  0  0
   38.9720   23.3110   38.7260 N   0  0  0  0  0  0  0  0  0  0  0  0
   37.8280   23.9370   38.3460 C   0  0  0  0  0  0  0  0  0  0  0  0
   37.5660   24.1300   37.0440 N   0  0  0  0  0  0  0  0  0  0  0  0
   37.3510   21.6030   34.1300 C   0  0  1  0  0  0  0  0  0  0  0  0
   36.1280   21.1470   34.7640 C   0  0  0  0  0  0  0  0  0  0  0  0
   36.2210   21.1010   33.2470 C   0  0  2  0  0  0  0  0  0  0  0  0
   36.2920   19.7330   32.6750 C   0  0  0  0  0  0  0  0  0  0  0  0
   37.4140   19.4210   31.9030 C   0  0  0  0  0  0  0  0  0  0  0  0
   37.5040   18.1550   31.3600 C   0  0  0  0  0  0  0  0  0  0  0  0
   36.4750   17.2450   31.6040 C   0  0  0  0  0  0  0  0  0  0  0  0
   35.3620   17.5690   32.3770 C   0  0  0  0  0  0  0  0  0  0  0  0
   35.2700   18.8410   32.9230 C   0  0  0  0  0  0  0  0  0  0  0  0
   38.6381   26.1004   34.4617 H   0  0  0  0  0  0  0  0  0  0  0  0
   37.1331   23.1142   31.8069 H   0  0  0  0  0  0  0  0  0  0  0  0
   40.3445   22.7042   35.7129 H   0  0  0  0  0  0  0  0  0  0  0  0
   40.7999   22.3593   38.1866 H   0  0  0  0  0  0  0  0  0  0  0  0
   37.1148   24.2865   39.1070 H   0  0  0  0  0  0  0  0  0  0  0  0
   38.3985   21.3594   34.3612 H   0  0  0  0  0  0  0  0  0  0  0  0
   36.1282   20.2096   35.3397 H   0  0  0  0  0  0  0  0  0  0  0  0
   35.4195   21.5922   35.4781 H   0  0  0  0  0  0  0  0  0  0  0  0
   35.6880   21.5103   32.3761 H   0  0  0  0  0  0  0  0  0  0  0  0
   38.2057   20.1654   31.7322 H   0  0  0  0  0  0  0  0  0  0  0  0
   38.3709   17.8690   30.7463 H   0  0  0  0  0  0  0  0  0  0  0  0
   36.5449   16.2363   31.1709 H   0  0  0  0  0  0  0  0  0  0  0  0
   34.5684   16.8276   32.5517 H   0  0  0  0  0  0  0  0  0  0  0  0
   34.4047   19.1304   33.5375 H   0  0  0  0  0  0  0  0  0  0  0  0
  1  6  1  0
  2  1  2  0
  3  2  1  0
  4  3  2  0
  4  5  1  0
  5 12  1  0
  5  1  1  0
  6  7  2  0
  6 11  1  0
  7  8  1  0
  8  9  2  0
 10  9  1  0
 11 10  2  0
 12 13  1  0
 14 12  1  0
 14 13  1  0
 15 20  1  0
 15 14  1  0
 16 15  2  0
 17 18  2  0
 17 16  1  0
 18 19  1  0
 19 20  2  0
  2 21  1  0
  4 22  1  0
  7 23  1  0
  8 24  1  0
 10 25  1  0
 12 26  1  1
 13 27  1  0
 13 28  1  0
 14 29  1  6
 16 30  1  0
 17 31  1  0
 18 32  1  0
 19 33  1  0
 20 34  1  0
M  ISO  8  21  14  22  14  23  14  24  14  25  14  26  13  27  13  28  13
M  ISO  6  29  13  30  14  31  14  32  14  33  14  34  14
M  END
>  <minimizedAffinity>  (1) 
-5.13589478

>  <minimizedRMSD>  (1) 
1.17641664

$$$$
