
     RDKit          3D

 33 36  0  0  1  0  0  0  0  0999 V2000
   38.1710   23.9230   34.6080 C   0  0  0  0  0  0  0  0  0  0  0  0
   38.3480   25.1610   33.9810 C   0  0  0  0  0  0  0  0  0  0  0  0
   37.9430   24.9280   32.7010 N   0  0  0  0  0  0  0  0  0  0  0  0
   37.5680   23.6620   32.6120 C   0  0  0  0  0  0  0  0  0  0  0  0
   37.6960   23.0100   33.7750 N   0  0  0  0  0  0  0  0  0  0  0  0
   38.4700   23.6650   36.0080 C   0  0  0  0  0  0  0  0  0  0  0  0
   39.6520   23.0240   36.3780 C   0  0  0  0  0  0  0  0  0  0  0  0
   39.8910   22.7990   37.7520 C   0  0  0  0  0  0  0  0  0  0  0  0
   38.9610   23.2180   38.6230 N   0  0  0  0  0  0  0  0  0  0  0  0
   37.8230   23.8370   38.2470 C   0  0  0  0  0  0  0  0  0  0  0  0
   37.5720   24.0630   36.9430 N   0  0  0  0  0  0  0  0  0  0  0  0
   37.3630   21.6250   33.9680 C   0  0  1  0  0  0  0  0  0  0  0  0
   36.1730   21.1710   34.6590 C   0  0  0  0  0  0  0  0  0  0  0  0
   36.1610   21.1960   33.1370 C   0  0  2  0  0  0  0  0  0  0  0  0
   36.2310   19.8450   32.5200 C   0  0  0  0  0  0  0  0  0  0  0  0
   35.3690   18.8750   32.9910 C   0  0  0  0  0  0  0  0  0  0  0  0
   35.4330   17.6060   32.4110 C   0  0  0  0  0  0  0  0  0  0  0  0
   36.3710   17.4140   31.3930 C   0  0  0  0  0  0  0  0  0  0  0  0
   37.2180   18.3910   30.9400 C   0  0  0  0  0  0  0  0  0  0  0  0
   37.1070   19.6100   31.5460 N   0  0  0  0  0  0  0  0  0  0  0  0
   38.7241   26.0983   34.4170 H   0  0  0  0  0  0  0  0  0  0  0  0
   37.1936   23.1978   31.6877 H   0  0  0  0  0  0  0  0  0  0  0  0
   40.3800   22.7017   35.6190 H   0  0  0  0  0  0  0  0  0  0  0  0
   40.8078   22.2977   38.0956 H   0  0  0  0  0  0  0  0  0  0  0  0
   37.0970   24.1585   39.0083 H   0  0  0  0  0  0  0  0  0  0  0  0
   38.4151   21.3438   34.1229 H   0  0  0  0  0  0  0  0  0  0  0  0
   36.1841   20.2070   35.1887 H   0  0  0  0  0  0  0  0  0  0  0  0
   35.5272   21.5997   35.4395 H   0  0  0  0  0  0  0  0  0  0  0  0
   35.5622   21.6524   32.3351 H   0  0  0  0  0  0  0  0  0  0  0  0
   34.6542   19.0946   33.7977 H   0  0  0  0  0  0  0  0  0  0  0  0
   34.7722   16.7912   32.7419 H   0  0  0  0  0  0  0  0  0  0  0  0
   36.4330   16.4192   30.9277 H   0  0  0  0  0  0  0  0  0  0  0  0
   37.9447   18.2046   30.1355 H   0  0  0  0  0  0  0  0  0  0  0  0
  1  6  1  0
  2  1  2  0
  3  2  1  0
  4  3  2  0
  4  5  1  0
  5 12  1  0
  5  1  1  0
  6  7  2  0
  6 11  1  0
  7  8  1  0
  8  9  2  0
 10  9  1  0
 11 10  2  0
 12 13  1  0
 14 12  1  0
 14 13  1  0
 15 16  2  0
 15 14  1  0
 17 16  1  0
 18 17  2  0
 19 18  1  0
 19 20  2  0
 20 15  1  0
  2 21  1  0
  4 22  1  0
  7 23  1  0
  8 24  1  0
 10 25  1  0
 12 26  1  6
 13 27  1  0
 13 28  1  0
 14 29  1  1
 16 30  1  0
 17 31  1  0
 18 32  1  0
 19 33  1  0
M  ISO  8  21  14  22  14  23  14  24  14  25  14  26  13  27  13  28  13
M  ISO  5  29  13  30  14  31  14  32  14  33  14
M  END
>  <minimizedAffinity>  (1) 
-5.00772476

>  <minimizedRMSD>  (1) 
0.923582613

$$$$
