
     RDKit          3D

 31 33  0  0  1  0  0  0  0  0999 V2000
   38.0500   23.7710   34.4650 C   0  0  0  0  0  0  0  0  0  0  0  0
   38.1520   25.0060   33.8250 C   0  0  0  0  0  0  0  0  0  0  0  0
   37.6920   24.7420   32.5610 N   0  0  0  0  0  0  0  0  0  0  0  0
   37.3600   23.4640   32.5030 C   0  0  0  0  0  0  0  0  0  0  0  0
   37.5690   22.8210   33.6730 N   0  0  0  0  0  0  0  0  0  0  0  0
   38.4250   23.5370   35.8480 C   0  0  0  0  0  0  0  0  0  0  0  0
   39.6580   22.9590   36.1660 C   0  0  0  0  0  0  0  0  0  0  0  0
   39.9690   22.7560   37.5270 C   0  0  0  0  0  0  0  0  0  0  0  0
   39.0570   23.1290   38.4450 N   0  0  0  0  0  0  0  0  0  0  0  0
   37.8720   23.6850   38.1180 C   0  0  0  0  0  0  0  0  0  0  0  0
   37.5470   23.8930   36.8270 N   0  0  0  0  0  0  0  0  0  0  0  0
   37.2950   21.4330   33.8860 C   0  0  1  0  0  0  0  0  0  0  0  0
   36.0820   20.9780   34.5710 C   0  0  0  0  0  0  0  0  0  0  0  0
   36.1250   20.9210   33.0480 C   0  0  2  0  0  0  0  0  0  0  0  0
   36.1970   19.5520   32.5690 N   0  0  0  0  0  0  0  0  0  0  0  0
   34.9690   18.8910   32.2860 C   0  0  0  0  0  0  0  0  0  0  0  0
   33.9450   19.5200   31.8330 N   0  0  0  0  0  0  0  0  0  0  0  0
   34.8110   17.4760   32.4950 N   0  0  0  0  0  0  0  0  0  0  0  0
   33.8760   20.5240   31.6260 H   0  0  0  0  0  0  0  0  0  0  0  0
   38.5138   25.9604   34.2351 H   0  0  0  0  0  0  0  0  0  0  0  0
   36.9580   22.9776   31.6020 H   0  0  0  0  0  0  0  0  0  0  0  0
   40.3667   22.6702   35.3758 H   0  0  0  0  0  0  0  0  0  0  0  0
   40.9267   22.3070   37.8290 H   0  0  0  0  0  0  0  0  0  0  0  0
   37.1657   23.9707   38.9114 H   0  0  0  0  0  0  0  0  0  0  0  0
   38.3532   21.1881   34.0596 H   0  0  0  0  0  0  0  0  0  0  0  0
   36.1010   20.0449   35.1531 H   0  0  0  0  0  0  0  0  0  0  0  0
   35.3979   21.4286   35.3051 H   0  0  0  0  0  0  0  0  0  0  0  0
   35.5692   21.3235   32.1883 H   0  0  0  0  0  0  0  0  0  0  0  0
   37.1020   19.0777   32.4391 H   0  0  0  0  0  0  0  0  0  0  0  0
   33.9116   17.0213   32.2823 H   0  0  0  0  0  0  0  0  0  0  0  0
   35.5973   16.9180   32.8573 H   0  0  0  0  0  0  0  0  0  0  0  0
  1  6  1  0
  2  1  2  0
  3  2  1  0
  4  3  2  0
  4  5  1  0
  5 12  1  0
  5  1  1  0
  6  7  2  0
  6 11  1  0
  7  8  1  0
  8  9  2  0
 10  9  1  0
 11 10  2  0
 12 13  1  0
 14 12  1  0
 14 13  1  0
 15 14  1  0
 16 18  1  0
 16 15  1  0
 17 16  2  0
 19 17  1  0
  2 20  1  0
  4 21  1  0
  7 22  1  0
  8 23  1  0
 10 24  1  0
 12 25  1  1
 13 26  1  0
 13 27  1  0
 14 28  1  6
 15 29  1  0
 18 30  1  0
 18 31  1  0
M  ISO  8  20  14  21  14  22  14  23  14  24  14  25  13  26  13  27  13
M  ISO  1  28  13
M  END
>  <minimizedAffinity>  (1) 
-5.0103941

>  <minimizedRMSD>  (1) 
0.636113644

$$$$
