
     RDKit          3D

 35 37  0  0  1  0  0  0  0  0999 V2000
   40.9540   21.5790   36.9630 C   0  0  0  0  0  0  0  0  0  0  0  0
   39.8510   22.4960   37.1860 C   0  0  0  0  0  0  0  0  0  0  0  0
   39.6380   23.1290   38.4030 C   0  0  0  0  0  0  0  0  0  0  0  0
   38.5570   23.9860   38.5910 C   0  0  0  0  0  0  0  0  0  0  0  0
   37.6660   24.2280   37.5600 C   0  0  0  0  0  0  0  0  0  0  0  0
   37.8700   23.5910   36.3160 C   0  0  0  0  0  0  0  0  0  0  0  0
   38.9550   22.7460   36.1690 C   0  0  0  0  0  0  0  0  0  0  0  0
   38.8970   22.2230   34.8490 N   0  0  0  0  0  0  0  0  0  0  0  0
   37.6470   21.8000   34.4870 C   0  0  0  0  0  0  0  0  0  0  0  0
   37.7420   21.3490   33.2040 N   0  0  0  0  0  0  0  0  0  0  0  0
   39.0490   21.5220   32.8520 C   0  0  0  0  0  0  0  0  0  0  0  0
   39.7750   22.0580   33.8490 N   0  0  0  0  0  0  0  0  0  0  0  0
   42.1010   22.0760   36.1770 C   0  0  2  0  0  0  0  0  0  0  0  0
   43.2500   21.1210   36.3210 C   0  0  0  0  0  0  0  0  0  0  0  0
   43.0570   19.8960   36.9650 C   0  0  0  0  0  0  0  0  0  0  0  0
   44.1280   19.0370   37.0940 C   0  0  0  0  0  0  0  0  0  0  0  0
   45.3330   19.4410   36.5750 N   0  0  0  0  0  0  0  0  0  0  0  0
   45.5020   20.6200   35.9580 C   0  0  0  0  0  0  0  0  0  0  0  0
   44.4460   21.4370   35.8460 N   0  0  0  0  0  0  0  0  0  0  0  0
   42.6560   23.4040   36.6800 C   0  0  0  0  0  0  0  0  0  0  0  0
   41.3359   21.2759   37.9490 H   0  0  0  0  0  0  0  0  0  0  0  0
   40.5271   20.7669   36.3561 H   0  0  0  0  0  0  0  0  0  0  0  0
   40.3361   22.9502   39.2341 H   0  0  0  0  0  0  0  0  0  0  0  0
   38.4101   24.4741   39.5657 H   0  0  0  0  0  0  0  0  0  0  0  0
   36.8123   24.9059   37.7071 H   0  0  0  0  0  0  0  0  0  0  0  0
   37.1780   23.7640   35.4786 H   0  0  0  0  0  0  0  0  0  0  0  0
   36.7410   21.8200   35.1105 H   0  0  0  0  0  0  0  0  0  0  0  0
   39.4606   21.2543   31.8677 H   0  0  0  0  0  0  0  0  0  0  0  0
   41.7228   22.1852   35.1498 H   0  0  0  0  0  0  0  0  0  0  0  0
   42.0684   19.6218   37.3619 H   0  0  0  0  0  0  0  0  0  0  0  0
   44.0207   18.0634   37.5946 H   0  0  0  0  0  0  0  0  0  0  0  0
   46.4834   20.9090   35.5539 H   0  0  0  0  0  0  0  0  0  0  0  0
   42.6575   23.4077   37.7800 H   0  0  0  0  0  0  0  0  0  0  0  0
   43.6841   23.5349   36.3115 H   0  0  0  0  0  0  0  0  0  0  0  0
   42.0268   24.2275   36.3115 H   0  0  0  0  0  0  0  0  0  0  0  0
  1  2  1  0
  2  3  2  0
  3  4  1  0
  5  4  2  0
  6  5  1  0
  7  6  2  0
  7  2  1  0
  8  7  1  0
  9  8  1  0
 10  9  2  0
 11 10  1  0
 11 12  2  0
 12  8  1  0
 13 14  1  0
 13 20  1  0
 13  1  1  0
 14 15  2  0
 15 16  1  0
 17 16  2  0
 18 17  1  0
 19 18  2  0
 19 14  1  0
  1 21  1  0
  1 22  1  0
  3 23  1  0
  4 24  1  0
  5 25  1  0
  6 26  1  0
  9 27  1  0
 11 28  1  0
 13 29  1  6
 15 30  1  0
 16 31  1  0
 18 32  1  0
 20 33  1  0
 20 34  1  0
 20 35  1  0
M  ISO  8  21   8  22   8  23  14  24  14  25  14  26  14  27  14  28  14
M  ISO  7  29   8  30  14  31  14  32  14  33   8  34   8  35   8
M  END
>  <minimizedAffinity>  (1) 
-4.46852064

>  <minimizedRMSD>  (1) 
0.564202428

$$$$
