
     RDKit          3D

 31 34  0  0  1  0  0  0  0  0999 V2000
   38.0100   23.5780   34.4160 C   0  0  0  0  0  0  0  0  0  0  0  0
   38.1870   24.7440   33.6930 C   0  0  0  0  0  0  0  0  0  0  0  0
   37.6710   24.4450   32.4570 N   0  0  0  0  0  0  0  0  0  0  0  0
   37.2330   23.1910   32.4860 C   0  0  0  0  0  0  0  0  0  0  0  0
   37.4270   22.6180   33.6930 N   0  0  0  0  0  0  0  0  0  0  0  0
   38.4040   23.4000   35.8030 C   0  0  0  0  0  0  0  0  0  0  0  0
   39.6470   22.8410   36.1250 C   0  0  0  0  0  0  0  0  0  0  0  0
   39.9800   22.6900   37.4910 C   0  0  0  0  0  0  0  0  0  0  0  0
   39.0740   23.0940   38.4030 N   0  0  0  0  0  0  0  0  0  0  0  0
   37.8850   23.6280   38.0650 C   0  0  0  0  0  0  0  0  0  0  0  0
   37.5410   23.7840   36.7720 N   0  0  0  0  0  0  0  0  0  0  0  0
   37.0500   21.2660   34.0130 C   0  0  1  0  0  0  0  0  0  0  0  0
   35.8920   20.9560   34.8550 C   0  0  0  0  0  0  0  0  0  0  0  0
   35.7320   20.8550   33.3620 C   0  0  2  0  0  0  0  0  0  0  0  0
   35.7980   19.4810   32.7550 C   0  0  0  0  0  0  0  0  0  0  0  0
   36.6400   19.0860   31.7160 C   0  0  0  0  0  0  0  0  0  0  0  0
   36.3810   17.7910   31.4820 N   0  0  0  0  0  0  0  0  0  0  0  0
   35.4140   17.4260   32.3550 C   0  0  0  0  0  0  0  0  0  0  0  0
   35.0390   18.4440   33.1470 N   0  0  0  0  0  0  0  0  0  0  0  0
   38.6363   25.6898   34.0300 H   0  0  0  0  0  0  0  0  0  0  0  0
   36.7681   22.6809   31.6295 H   0  0  0  0  0  0  0  0  0  0  0  0
   40.3462   22.5275   35.3358 H   0  0  0  0  0  0  0  0  0  0  0  0
   40.9440   22.2583   37.7981 H   0  0  0  0  0  0  0  0  0  0  0  0
   37.1859   23.9407   38.8546 H   0  0  0  0  0  0  0  0  0  0  0  0
   38.0935   20.9225   34.0685 H   0  0  0  0  0  0  0  0  0  0  0  0
   35.8919   20.0414   35.4661 H   0  0  0  0  0  0  0  0  0  0  0  0
   35.3549   21.4954   35.6491 H   0  0  0  0  0  0  0  0  0  0  0  0
   35.0109   21.2658   32.6400 H   0  0  0  0  0  0  0  0  0  0  0  0
   37.3740   19.7144   31.1904 H   0  0  0  0  0  0  0  0  0  0  0  0
   34.9853   16.4145   32.4098 H   0  0  0  0  0  0  0  0  0  0  0  0
   34.3266   18.4322   33.8908 H   0  0  0  0  0  0  0  0  0  0  0  0
  1  6  1  0
  2  1  2  0
  3  4  2  0
  3  2  1  0
  4  5  1  0
  5 12  1  0
  5  1  1  0
  6  7  2  0
  6 11  1  0
  7  8  1  0
  8  9  2  0
 10  9  1  0
 11 10  2  0
 12 13  1  0
 14 12  1  0
 14 13  1  0
 15 19  1  0
 15 14  1  0
 16 15  2  0
 17 16  1  0
 17 18  2  0
 18 19  1  0
  2 20  1  0
  4 21  1  0
  7 22  1  0
  8 23  1  0
 10 24  1  0
 12 25  1  1
 13 26  1  0
 13 27  1  0
 14 28  1  6
 16 29  1  0
 18 30  1  0
 19 31  1  0
M  ISO  8  20  14  21  14  22  14  23  14  24  14  25  13  26  13  27  13
M  ISO  4  28  13  29  14  30  14  31   9
M  END
>  <minimizedAffinity>  (1) 
-4.77843046

>  <minimizedRMSD>  (1) 
0.435305268

$$$$
