
     RDKit          3D

 30 33  0  0  1  0  0  0  0  0999 V2000
   38.1400   23.8510   34.5750 C   0  0  0  0  0  0  0  0  0  0  0  0
   38.3190   25.0670   33.9170 C   0  0  0  0  0  0  0  0  0  0  0  0
   37.9010   24.8130   32.6430 N   0  0  0  0  0  0  0  0  0  0  0  0
   37.5130   23.5510   32.5840 C   0  0  0  0  0  0  0  0  0  0  0  0
   37.6460   22.9140   33.7670 N   0  0  0  0  0  0  0  0  0  0  0  0
   38.4480   23.6100   35.9760 C   0  0  0  0  0  0  0  0  0  0  0  0
   39.6620   23.0090   36.3430 C   0  0  0  0  0  0  0  0  0  0  0  0
   39.9240   22.7940   37.7080 C   0  0  0  0  0  0  0  0  0  0  0  0
   38.9800   23.1820   38.5950 N   0  0  0  0  0  0  0  0  0  0  0  0
   37.8240   23.7570   38.2110 C   0  0  0  0  0  0  0  0  0  0  0  0
   37.5370   23.9800   36.9120 N   0  0  0  0  0  0  0  0  0  0  0  0
   37.3030   21.5450   33.9900 C   0  0  1  0  0  0  0  0  0  0  0  0
   36.1040   21.1380   34.7340 C   0  0  0  0  0  0  0  0  0  0  0  0
   36.0400   21.1150   33.2310 C   0  0  2  0  0  0  0  0  0  0  0  0
   36.0910   19.7740   32.5510 C   0  0  0  0  0  0  0  0  0  0  0  0
   36.9090   19.6470   31.3750 C   0  0  0  0  0  0  0  0  0  0  0  0
   36.6210   17.8530   30.9520 S   0  0  0  0  0  0  0  0  0  0  0  0
   35.4580   17.6270   32.4390 C   0  0  0  0  0  0  0  0  0  0  0  0
   35.4350   18.7090   32.9650 N   0  0  0  0  0  0  0  0  0  0  0  0
   38.7066   26.0106   34.3286 H   0  0  0  0  0  0  0  0  0  0  0  0
   37.1249   23.0728   31.6726 H   0  0  0  0  0  0  0  0  0  0  0  0
   40.3944   22.7119   35.5779 H   0  0  0  0  0  0  0  0  0  0  0  0
   40.8625   22.3273   38.0418 H   0  0  0  0  0  0  0  0  0  0  0  0
   37.0935   24.0530   38.9783 H   0  0  0  0  0  0  0  0  0  0  0  0
   38.3553   21.2435   34.0983 H   0  0  0  0  0  0  0  0  0  0  0  0
   36.1062   20.1906   35.2929 H   0  0  0  0  0  0  0  0  0  0  0  0
   35.4938   21.6094   35.5185 H   0  0  0  0  0  0  0  0  0  0  0  0
   35.3803   21.5522   32.4670 H   0  0  0  0  0  0  0  0  0  0  0  0
   37.5311   20.3983   30.8666 H   0  0  0  0  0  0  0  0  0  0  0  0
   34.9269   16.7146   32.7482 H   0  0  0  0  0  0  0  0  0  0  0  0
  1  6  1  0
  2  1  2  0
  3  2  1  0
  4  3  2  0
  4  5  1  0
  5 12  1  0
  5  1  1  0
  6  7  2  0
  6 11  1  0
  7  8  1  0
  8  9  2  0
 10  9  1  0
 11 10  2  0
 12 13  1  0
 14 12  1  0
 14 13  1  0
 15 19  1  0
 15 14  1  0
 16 15  2  0
 17 16  1  0
 17 18  1  0
 18 19  2  0
  2 20  1  0
  4 21  1  0
  7 22  1  0
  8 23  1  0
 10 24  1  0
 12 25  1  1
 13 26  1  0
 13 27  1  0
 14 28  1  6
 16 29  1  0
 18 30  1  0
M  ISO  8  20  14  21  14  22  14  23  14  24  14  25  13  26  13  27  13
M  ISO  3  28  13  29  14  30  14
M  END
>  <minimizedAffinity>  (1) 
-4.67239857

>  <minimizedRMSD>  (1) 
0.880866468

$$$$
