
     RDKit          3D

 36 38  0  0  1  0  0  0  0  0999 V2000
   40.9350   21.6700   36.9190 C   0  0  0  0  0  0  0  0  0  0  0  0
   39.8420   22.5980   37.1360 C   0  0  0  0  0  0  0  0  0  0  0  0
   39.5020   23.0710   38.4080 C   0  0  0  0  0  0  0  0  0  0  0  0
   38.4910   23.9830   38.6310 C   0  0  0  0  0  0  0  0  0  0  0  0
   37.7780   24.4620   37.5810 C   0  0  0  0  0  0  0  0  0  0  0  0
   38.0960   24.0050   36.3120 C   0  0  0  0  0  0  0  0  0  0  0  0
   39.1140   23.0770   36.0740 C   0  0  0  0  0  0  0  0  0  0  0  0
   39.0760   22.5980   34.6740 C   0  0  0  0  0  0  0  0  0  0  0  0
   39.7800   23.0130   33.5310 C   0  0  0  0  0  0  0  0  0  0  0  0
   39.4440   22.2770   32.4300 C   0  0  0  0  0  0  0  0  0  0  0  0
   38.5210   21.4270   32.9870 C   0  0  0  0  0  0  0  0  0  0  0  0
   38.3220   21.6170   34.2530 O   0  0  0  0  0  0  0  0  0  0  0  0
   42.0910   22.1470   36.1340 C   0  0  2  0  0  0  0  0  0  0  0  0
   43.2230   21.1730   36.2820 C   0  0  0  0  0  0  0  0  0  0  0  0
   43.0110   19.9520   36.9340 C   0  0  0  0  0  0  0  0  0  0  0  0
   44.0670   19.0700   37.0830 C   0  0  0  0  0  0  0  0  0  0  0  0
   45.2790   19.4660   36.5690 N   0  0  0  0  0  0  0  0  0  0  0  0
   45.4660   20.6380   35.9450 C   0  0  0  0  0  0  0  0  0  0  0  0
   44.4290   21.4810   35.8110 N   0  0  0  0  0  0  0  0  0  0  0  0
   42.6750   23.4590   36.6970 C   0  0  0  0  0  0  0  0  0  0  0  0
   41.3108   21.3672   37.9075 H   0  0  0  0  0  0  0  0  0  0  0  0
   40.4995   20.8624   36.3123 H   0  0  0  0  0  0  0  0  0  0  0  0
   40.0689   22.6972   39.2734 H   0  0  0  0  0  0  0  0  0  0  0  0
   38.2646   24.3195   39.6535 H   0  0  0  0  0  0  0  0  0  0  0  0
   36.9700   25.1928   37.7327 H   0  0  0  0  0  0  0  0  0  0  0  0
   37.5228   24.3889   35.4552 H   0  0  0  0  0  0  0  0  0  0  0  0
   40.5138   23.8324   33.5235 H   0  0  0  0  0  0  0  0  0  0  0  0
   39.8085   22.3458   31.3944 H   0  0  0  0  0  0  0  0  0  0  0  0
   37.9962   20.6522   32.4088 H   0  0  0  0  0  0  0  0  0  0  0  0
   41.7285   22.2729   35.1031 H   0  0  0  0  0  0  0  0  0  0  0  0
   42.0147   19.6964   37.3240 H   0  0  0  0  0  0  0  0  0  0  0  0
   43.9428   18.1005   37.5875 H   0  0  0  0  0  0  0  0  0  0  0  0
   46.4563   20.9057   35.5478 H   0  0  0  0  0  0  0  0  0  0  0  0
   42.6599   23.4251   37.7964 H   0  0  0  0  0  0  0  0  0  0  0  0
   43.7113   23.5785   36.3481 H   0  0  0  0  0  0  0  0  0  0  0  0
   42.0703   24.3090   36.3481 H   0  0  0  0  0  0  0  0  0  0  0  0
  1  2  1  0
  2  3  2  0
  3  4  1  0
  5  4  2  0
  6  5  1  0
  7  6  2  0
  7  2  1  0
  8  7  1  0
  9  8  2  0
 10 11  2  0
 10  9  1  0
 11 12  1  0
 12  8  1  0
 13 14  1  0
 13 20  1  0
 13  1  1  0
 14 15  2  0
 15 16  1  0
 17 16  2  0
 18 17  1  0
 19 18  2  0
 19 14  1  0
  1 21  1  0
  1 22  1  0
  3 23  1  0
  4 24  1  0
  5 25  1  0
  6 26  1  0
  9 27  1  0
 10 28  1  0
 11 29  1  0
 13 30  1  6
 15 31  1  0
 16 32  1  0
 18 33  1  0
 20 34  1  0
 20 35  1  0
 20 36  1  0
M  ISO  8  21   8  22   8  23  14  24  14  25  14  26  14  27  14  28  14
M  ISO  8  29  14  30   8  31  14  32  14  33  14  34   8  35   8  36   8
M  END
>  <minimizedAffinity>  (1) 
-4.40437031

>  <minimizedRMSD>  (1) 
0.574179649

$$$$
