
     RDKit          3D

 25 27  0  0  1  0  0  0  0  0999 V2000
   38.0990   23.6980   34.4430 C   0  0  0  0  0  0  0  0  0  0  0  0
   38.2660   24.8850   33.7520 C   0  0  0  0  0  0  0  0  0  0  0  0
   37.8330   24.5850   32.4930 N   0  0  0  0  0  0  0  0  0  0  0  0
   37.4510   23.3260   32.4720 C   0  0  0  0  0  0  0  0  0  0  0  0
   37.6020   22.7270   33.6790 N   0  0  0  0  0  0  0  0  0  0  0  0
   38.4250   23.5050   35.8570 C   0  0  0  0  0  0  0  0  0  0  0  0
   39.6240   22.9240   36.2380 C   0  0  0  0  0  0  0  0  0  0  0  0
   39.8890   22.7610   37.6140 C   0  0  0  0  0  0  0  0  0  0  0  0
   38.9430   23.1870   38.4880 N   0  0  0  0  0  0  0  0  0  0  0  0
   37.7800   23.7500   38.0900 C   0  0  0  0  0  0  0  0  0  0  0  0
   37.5100   23.9140   36.7820 N   0  0  0  0  0  0  0  0  0  0  0  0
   37.2640   21.3490   33.9530 C   0  0  1  0  0  0  0  0  0  0  0  0
   36.0630   20.9950   34.7200 C   0  0  0  0  0  0  0  0  0  0  0  0
   35.9920   20.9280   33.2040 C   0  0  1  0  0  0  0  0  0  0  0  0
   35.1740   21.8900   32.6620 O   0  0  0  0  0  0  0  0  0  0  0  0
   38.6552   25.8427   34.1280 H   0  0  0  0  0  0  0  0  0  0  0  0
   37.0554   22.8188   31.5796 H   0  0  0  0  0  0  0  0  0  0  0  0
   40.3541   22.5967   35.4831 H   0  0  0  0  0  0  0  0  0  0  0  0
   40.8269   22.3058   37.9648 H   0  0  0  0  0  0  0  0  0  0  0  0
   37.0475   24.0771   38.8426 H   0  0  0  0  0  0  0  0  0  0  0  0
   38.3089   21.0249   34.0678 H   0  0  0  0  0  0  0  0  0  0  0  0
   36.0462   20.0654   35.3079 H   0  0  0  0  0  0  0  0  0  0  0  0
   35.4695   21.5038   35.4939 H   0  0  0  0  0  0  0  0  0  0  0  0
   35.7891   20.1904   32.4135 H   0  0  0  0  0  0  0  0  0  0  0  0
   34.7391   22.4015   33.3896 H   0  0  0  0  0  0  0  0  0  0  0  0
  1  6  1  0
  2  1  2  0
  3  2  1  0
  4  3  2  0
  4  5  1  0
  5 12  1  0
  5  1  1  0
  6  7  2  0
  6 11  1  0
  7  8  1  0
  8  9  2  0
 10  9  1  0
 11 10  2  0
 12 13  1  0
 14 12  1  0
 14 13  1  0
 15 14  1  0
  2 16  1  0
  4 17  1  0
  7 18  1  0
  8 19  1  0
 10 20  1  0
 12 21  1  1
 13 22  1  0
 13 23  1  0
 14 24  1  1
 15 25  1  0
M  ISO  8  16  14  17  14  18  14  19  14  20  14  21  13  22  13  23  13
M  ISO  2  24  13  25   3
M  END
>  <minimizedAffinity>  (1) 
-3.87954664

>  <minimizedRMSD>  (1) 
0.404655278

$$$$
