
     RDKit          3D

 27 29  0  0  1  0  0  0  0  0999 V2000
   38.0360   23.5270   34.5840 C   0  0  0  0  0  0  0  0  0  0  0  0
   38.2640   24.6550   33.8190 C   0  0  0  0  0  0  0  0  0  0  0  0
   37.7510   24.3250   32.5950 N   0  0  0  0  0  0  0  0  0  0  0  0
   37.2750   23.1020   32.6770 C   0  0  0  0  0  0  0  0  0  0  0  0
   37.4260   22.5570   33.8960 N   0  0  0  0  0  0  0  0  0  0  0  0
   38.4150   23.3940   35.9890 C   0  0  0  0  0  0  0  0  0  0  0  0
   39.6410   22.8290   36.3450 C   0  0  0  0  0  0  0  0  0  0  0  0
   39.9610   22.7220   37.7240 C   0  0  0  0  0  0  0  0  0  0  0  0
   39.0550   23.1740   38.6010 N   0  0  0  0  0  0  0  0  0  0  0  0
   37.8680   23.7210   38.2360 C   0  0  0  0  0  0  0  0  0  0  0  0
   37.5510   23.8280   36.9370 N   0  0  0  0  0  0  0  0  0  0  0  0
   36.9990   21.2310   34.2780 C   0  0  1  0  0  0  0  0  0  0  0  0
   35.8470   21.0020   35.1470 C   0  0  0  0  0  0  0  0  0  0  0  0
   35.6670   20.8640   33.6450 C   0  0  2  0  0  0  0  0  0  0  0  0
   35.5690   19.4120   33.1860 C   0  0  0  0  0  0  0  0  0  0  0  0
   38.7448   25.5965   34.1229 H   0  0  0  0  0  0  0  0  0  0  0  0
   36.8014   22.5783   31.8335 H   0  0  0  0  0  0  0  0  0  0  0  0
   40.3425   22.4751   35.5752 H   0  0  0  0  0  0  0  0  0  0  0  0
   40.9138   22.2858   38.0585 H   0  0  0  0  0  0  0  0  0  0  0  0
   37.1662   24.0764   39.0049 H   0  0  0  0  0  0  0  0  0  0  0  0
   38.0256   20.8413   34.3426 H   0  0  0  0  0  0  0  0  0  0  0  0
   35.8138   20.1071   35.7858 H   0  0  0  0  0  0  0  0  0  0  0  0
   35.3461   21.5874   35.9322 H   0  0  0  0  0  0  0  0  0  0  0  0
   35.0155   21.2974   32.8719 H   0  0  0  0  0  0  0  0  0  0  0  0
   35.5244   18.7519   34.0648 H   0  0  0  0  0  0  0  0  0  0  0  0
   34.6598   19.2792   32.5812 H   0  0  0  0  0  0  0  0  0  0  0  0
   36.4521   19.1582   32.5812 H   0  0  0  0  0  0  0  0  0  0  0  0
  1  6  1  0
  2  1  2  0
  3  4  2  0
  3  2  1  0
  4  5  1  0
  5 12  1  0
  5  1  1  0
  6  7  2  0
  6 11  1  0
  7  8  1  0
  8  9  2  0
 10  9  1  0
 11 10  2  0
 12 13  1  0
 14 12  1  0
 14 13  1  0
 15 14  1  0
  2 16  1  0
  4 17  1  0
  7 18  1  0
  8 19  1  0
 10 20  1  0
 12 21  1  1
 13 22  1  0
 13 23  1  0
 14 24  1  6
 15 25  1  0
 15 26  1  0
 15 27  1  0
M  ISO  8  16  14  17  14  18  14  19  14  20  14  21  13  22  13  23  13
M  ISO  4  24  13  25   8  26   8  27   8
M  END
>  <minimizedAffinity>  (1) 
-4.24738884

>  <minimizedRMSD>  (1) 
0.128243104

$$$$
