
     RDKit          3D

 30 33  0  0  1  0  0  0  0  0999 V2000
   37.4330   25.7980   32.5820 C   0  0  0  0  0  0  0  0  0  0  0  0
   37.5950   24.6020   31.8810 C   0  0  0  0  0  0  0  0  0  0  0  0
   37.9180   23.6990   32.8500 N   0  0  0  0  0  0  0  0  0  0  0  0
   37.9390   24.3250   34.0070 C   0  0  0  0  0  0  0  0  0  0  0  0
   37.6430   25.6360   33.8880 N   0  0  0  0  0  0  0  0  0  0  0  0
   37.0790   27.0740   31.9800 C   0  0  0  0  0  0  0  0  0  0  0  0
   37.9750   27.7030   31.0980 C   0  0  0  0  0  0  0  0  0  0  0  0
   37.5980   28.9400   30.5330 C   0  0  0  0  0  0  0  0  0  0  0  0
   36.3930   29.4420   30.8770 N   0  0  0  0  0  0  0  0  0  0  0  0
   35.5580   28.8110   31.7280 C   0  0  0  0  0  0  0  0  0  0  0  0
   35.8810   27.6270   32.2900 N   0  0  0  0  0  0  0  0  0  0  0  0
   37.5960   26.5460   34.9900 C   0  0  1  0  0  0  0  0  0  0  0  0
   38.3150   26.3520   36.2340 C   0  0  0  0  0  0  0  0  0  0  0  0
   38.9100   27.2800   35.2070 C   0  0  1  0  0  0  0  0  0  0  0  0
   40.1350   26.7720   34.6350 N   0  0  0  0  0  0  0  0  0  0  0  0
   40.7340   27.2480   33.5050 C   0  0  0  0  0  0  0  0  0  0  0  0
   41.8540   26.5340   33.2760 N   0  0  0  0  0  0  0  0  0  0  0  0
   41.9170   25.6270   34.2810 C   0  0  0  0  0  0  0  0  0  0  0  0
   40.8690   25.7750   35.1090 N   0  0  0  0  0  0  0  0  0  0  0  0
   37.4873   24.4286   30.8001 H   0  0  0  0  0  0  0  0  0  0  0  0
   38.1717   23.8347   34.9638 H   0  0  0  0  0  0  0  0  0  0  0  0
   38.9442   27.2432   30.8547 H   0  0  0  0  0  0  0  0  0  0  0  0
   38.2615   29.4754   29.8380 H   0  0  0  0  0  0  0  0  0  0  0  0
   34.5895   29.2729   31.9701 H   0  0  0  0  0  0  0  0  0  0  0  0
   36.5325   26.7655   34.8144 H   0  0  0  0  0  0  0  0  0  0  0  0
   37.9071   26.7638   37.1689 H   0  0  0  0  0  0  0  0  0  0  0  0
   38.6855   25.4692   36.7757 H   0  0  0  0  0  0  0  0  0  0  0  0
   39.2084   28.3336   35.1032 H   0  0  0  0  0  0  0  0  0  0  0  0
   40.3640   28.0771   32.8839 H   0  0  0  0  0  0  0  0  0  0  0  0
   42.7124   24.8768   34.4017 H   0  0  0  0  0  0  0  0  0  0  0  0
  1  5  1  0
  2  1  2  0
  2  3  1  0
  3  4  2  0
  5  4  1  0
  5 12  1  0
  6 11  1  0
  6  1  1  0
  7  6  2  0
  8  9  2  0
  8  7  1  0
  9 10  1  0
 10 11  2  0
 12 14  1  0
 12 13  1  0
 14 13  1  0
 15 19  1  0
 15 14  1  0
 16 15  1  0
 17 16  2  0
 17 18  1  0
 18 19  2  0
  2 20  1  0
  4 21  1  0
  7 22  1  0
  8 23  1  0
 10 24  1  0
 12 25  1  1
 13 26  1  0
 13 27  1  0
 14 28  1  1
 16 29  1  0
 18 30  1  0
M  ISO  8  20  14  21  14  22  14  23  14  24  14  25  13  26  13  27  13
M  ISO  3  28  13  29  14  30  14
M  END
>  <minimizedAffinity>  (1) 
-3.91747189

>  <minimizedRMSD>  (1) 
6.85763454

$$$$
