
     RDKit          3D

 41 43  0  0  1  0  0  0  0  0999 V2000
   40.9350   21.6800   36.8350 C   0  0  0  0  0  0  0  0  0  0  0  0
   39.8690   22.6220   37.1210 C   0  0  0  0  0  0  0  0  0  0  0  0
   39.5250   23.0170   38.4100 C   0  0  0  0  0  0  0  0  0  0  0  0
   38.4840   23.9000   38.6220 C   0  0  0  0  0  0  0  0  0  0  0  0
   37.7520   24.4220   37.5740 C   0  0  0  0  0  0  0  0  0  0  0  0
   38.0860   24.0340   36.2570 C   0  0  0  0  0  0  0  0  0  0  0  0
   39.1330   23.1470   36.0850 C   0  0  0  0  0  0  0  0  0  0  0  0
   39.2220   22.9100   34.6890 N   0  0  0  0  0  0  0  0  0  0  0  0
   39.8500   23.5900   33.5390 C   0  0  0  0  0  0  0  0  0  0  0  0
   38.7020   23.8210   32.5790 C   0  0  0  0  0  0  0  0  0  0  0  0
   37.8400   22.5970   32.8500 C   0  0  0  0  0  0  0  0  0  0  0  0
   38.6150   21.8100   33.9130 C   0  0  0  0  0  0  0  0  0  0  0  0
   42.1190   22.1800   36.1140 C   0  0  2  0  0  0  0  0  0  0  0  0
   43.2440   21.2070   36.2810 C   0  0  0  0  0  0  0  0  0  0  0  0
   43.0230   19.9850   36.9270 C   0  0  0  0  0  0  0  0  0  0  0  0
   44.0740   19.1000   37.0700 C   0  0  0  0  0  0  0  0  0  0  0  0
   45.2910   19.4810   36.5600 N   0  0  0  0  0  0  0  0  0  0  0  0
   45.4910   20.6540   35.9420 C   0  0  0  0  0  0  0  0  0  0  0  0
   44.4560   21.5070   35.8110 N   0  0  0  0  0  0  0  0  0  0  0  0
   42.6720   23.4860   36.6750 C   0  0  0  0  0  0  0  0  0  0  0  0
   41.2831   21.2765   37.7973 H   0  0  0  0  0  0  0  0  0  0  0  0
   40.4818   20.9487   36.1496 H   0  0  0  0  0  0  0  0  0  0  0  0
   40.0876   22.6222   39.2689 H   0  0  0  0  0  0  0  0  0  0  0  0
   38.2319   24.1946   39.6514 H   0  0  0  0  0  0  0  0  0  0  0  0
   36.9266   25.1248   37.7604 H   0  0  0  0  0  0  0  0  0  0  0  0
   37.5292   24.4263   35.3933 H   0  0  0  0  0  0  0  0  0  0  0  0
   40.3000   24.5451   33.8475 H   0  0  0  0  0  0  0  0  0  0  0  0
   40.6642   23.0010   33.0917 H   0  0  0  0  0  0  0  0  0  0  0  0
   39.0483   23.8472   31.5353 H   0  0  0  0  0  0  0  0  0  0  0  0
   38.1817   24.7799   32.7195 H   0  0  0  0  0  0  0  0  0  0  0  0
   36.8513   22.8940   33.2299 H   0  0  0  0  0  0  0  0  0  0  0  0
   37.6570   22.0046   31.9414 H   0  0  0  0  0  0  0  0  0  0  0  0
   37.9428   21.1999   34.5343 H   0  0  0  0  0  0  0  0  0  0  0  0
   39.3386   21.0883   33.5060 H   0  0  0  0  0  0  0  0  0  0  0  0
   41.7858   22.3227   35.0754 H   0  0  0  0  0  0  0  0  0  0  0  0
   42.0254   19.7327   37.3157 H   0  0  0  0  0  0  0  0  0  0  0  0
   43.9416   18.1301   37.5717 H   0  0  0  0  0  0  0  0  0  0  0  0
   46.4841   20.9159   35.5482 H   0  0  0  0  0  0  0  0  0  0  0  0
   42.6562   23.4487   37.7743 H   0  0  0  0  0  0  0  0  0  0  0  0
   43.7064   23.6254   36.3277 H   0  0  0  0  0  0  0  0  0  0  0  0
   42.0523   24.3258   36.3277 H   0  0  0  0  0  0  0  0  0  0  0  0
  1  2  1  0
  2  3  2  0
  3  4  1  0
  5  4  2  0
  6  5  1  0
  7  6  2  0
  7  2  1  0
  8  7  1  0
  9  8  1  0
 10 11  1  0
 10  9  1  0
 11 12  1  0
 12  8  1  0
 13 14  1  0
 13 20  1  0
 13  1  1  0
 14 15  2  0
 15 16  1  0
 17 16  2  0
 18 17  1  0
 19 18  2  0
 19 14  1  0
  1 21  1  0
  1 22  1  0
  3 23  1  0
  4 24  1  0
  5 25  1  0
  6 26  1  0
  9 27  1  0
  9 28  1  0
 10 29  1  0
 10 30  1  0
 11 31  1  0
 11 32  1  0
 12 33  1  0
 12 34  1  0
 13 35  1  6
 15 36  1  0
 16 37  1  0
 18 38  1  0
 20 39  1  0
 20 40  1  0
 20 41  1  0
M  ISO  8  21   8  22   8  23  14  24  14  25  14  26  14  27  13  28  13
M  ISO  8  29  13  30  13  31  13  32  13  33  13  34  13  35   8  36  14
M  ISO  5  37  14  38  14  39   8  40   8  41   8
M  END
>  <minimizedAffinity>  (1) 
-4.40289402

>  <minimizedRMSD>  (1) 
1.07436991

$$$$
