
     RDKit          3D

 36 38  0  0  1  0  0  0  0  0999 V2000
   40.9310   21.7000   36.8850 C   0  0  0  0  0  0  0  0  0  0  0  0
   39.8530   22.6260   37.1400 C   0  0  0  0  0  0  0  0  0  0  0  0
   39.4810   23.0540   38.4180 C   0  0  0  0  0  0  0  0  0  0  0  0
   38.4700   23.9630   38.6570 C   0  0  0  0  0  0  0  0  0  0  0  0
   37.7860   24.4870   37.6050 C   0  0  0  0  0  0  0  0  0  0  0  0
   38.1400   24.0750   36.3270 C   0  0  0  0  0  0  0  0  0  0  0  0
   39.1520   23.1560   36.0920 C   0  0  0  0  0  0  0  0  0  0  0  0
   39.2090   22.8120   34.6760 C   0  0  0  0  0  0  0  0  0  0  0  0
   38.5240   21.8050   34.0290 C   0  0  0  0  0  0  0  0  0  0  0  0
   38.7670   21.7410   32.6800 C   0  0  0  0  0  0  0  0  0  0  0  0
   39.6290   22.7450   32.4970 N   0  0  0  0  0  0  0  0  0  0  0  0
   39.8650   23.3330   33.6240 N   0  0  0  0  0  0  0  0  0  0  0  0
   42.1040   22.1890   36.1360 C   0  0  2  0  0  0  0  0  0  0  0  0
   43.2230   21.1890   36.2890 C   0  0  0  0  0  0  0  0  0  0  0  0
   42.9960   19.9670   36.9410 C   0  0  0  0  0  0  0  0  0  0  0  0
   44.0450   19.0740   37.0850 C   0  0  0  0  0  0  0  0  0  0  0  0
   45.2570   19.4610   36.5660 N   0  0  0  0  0  0  0  0  0  0  0  0
   45.4550   20.6340   35.9460 C   0  0  0  0  0  0  0  0  0  0  0  0
   44.4280   21.4930   35.8120 N   0  0  0  0  0  0  0  0  0  0  0  0
   42.6900   23.4880   36.7020 C   0  0  0  0  0  0  0  0  0  0  0  0
   41.2922   21.3424   37.8606 H   0  0  0  0  0  0  0  0  0  0  0  0
   40.4867   20.9363   36.2298 H   0  0  0  0  0  0  0  0  0  0  0  0
   40.0246   22.6433   39.2816 H   0  0  0  0  0  0  0  0  0  0  0  0
   38.2206   24.2600   39.6864 H   0  0  0  0  0  0  0  0  0  0  0  0
   36.9767   25.2153   37.7616 H   0  0  0  0  0  0  0  0  0  0  0  0
   37.5965   24.4939   35.4673 H   0  0  0  0  0  0  0  0  0  0  0  0
   37.8432   21.1144   34.5482 H   0  0  0  0  0  0  0  0  0  0  0  0
   38.3563   21.0408   31.9377 H   0  0  0  0  0  0  0  0  0  0  0  0
   40.0439   23.0111   31.5926 H   0  0  0  0  0  0  0  0  0  0  0  0
   41.7571   22.3444   35.1038 H   0  0  0  0  0  0  0  0  0  0  0  0
   41.9978   19.7216   37.3326 H   0  0  0  0  0  0  0  0  0  0  0  0
   43.9145   18.1049   37.5889 H   0  0  0  0  0  0  0  0  0  0  0  0
   46.4486   20.8915   35.5505 H   0  0  0  0  0  0  0  0  0  0  0  0
   42.6727   23.4497   37.8012 H   0  0  0  0  0  0  0  0  0  0  0  0
   43.7275   23.6038   36.3554 H   0  0  0  0  0  0  0  0  0  0  0  0
   42.0901   24.3424   36.3554 H   0  0  0  0  0  0  0  0  0  0  0  0
  1  2  1  0
  2  3  2  0
  3  4  1  0
  5  4  2  0
  6  5  1  0
  7  6  2  0
  7  2  1  0
  8  7  1  0
  9  8  1  0
 10  9  2  0
 11 10  1  0
 11 12  1  0
 12  8  2  0
 13 14  1  0
 13 20  1  0
 13  1  1  0
 14 15  2  0
 15 16  1  0
 17 16  2  0
 18 17  1  0
 19 18  2  0
 19 14  1  0
  1 21  1  0
  1 22  1  0
  3 23  1  0
  4 24  1  0
  5 25  1  0
  6 26  1  0
  9 27  1  0
 10 28  1  0
 11 29  1  0
 13 30  1  6
 15 31  1  0
 16 32  1  0
 18 33  1  0
 20 34  1  0
 20 35  1  0
 20 36  1  0
M  ISO  8  21   8  22   8  23  14  24  14  25  14  26  14  27  14  28  14
M  ISO  8  29   9  30   8  31  14  32  14  33  14  34   8  35   8  36   8
M  END
>  <minimizedAffinity>  (1) 
-4.36552525

>  <minimizedRMSD>  (1) 
0.59154737

$$$$
