
     RDKit          3D

 32 33  0  0  1  0  0  0  0  0999 V2000
   40.9730   21.6990   36.9520 C   0  0  0  0  0  0  0  0  0  0  0  0
   39.8520   22.6260   37.0990 C   0  0  0  0  0  0  0  0  0  0  0  0
   39.4160   23.0690   38.3570 C   0  0  0  0  0  0  0  0  0  0  0  0
   38.3720   23.9460   38.5210 C   0  0  0  0  0  0  0  0  0  0  0  0
   37.7400   24.4030   37.4160 C   0  0  0  0  0  0  0  0  0  0  0  0
   38.1500   23.9790   36.1610 C   0  0  0  0  0  0  0  0  0  0  0  0
   39.1990   23.0940   35.9710 C   0  0  0  0  0  0  0  0  0  0  0  0
   39.4490   22.8350   34.5390 C   0  0  0  0  0  0  0  0  0  0  0  0
   39.4050   21.5260   34.1350 F   0  0  0  0  0  0  0  0  0  0  0  0
   38.2280   23.2480   33.8230 F   0  0  0  0  0  0  0  0  0  0  0  0
   40.3210   23.6710   33.9070 F   0  0  0  0  0  0  0  0  0  0  0  0
   42.1230   22.1650   36.1630 C   0  0  2  0  0  0  0  0  0  0  0  0
   43.2520   21.1770   36.3180 C   0  0  0  0  0  0  0  0  0  0  0  0
   43.0180   19.9580   36.9510 C   0  0  0  0  0  0  0  0  0  0  0  0
   44.0700   19.0700   37.0740 C   0  0  0  0  0  0  0  0  0  0  0  0
   45.2860   19.4450   36.5610 N   0  0  0  0  0  0  0  0  0  0  0  0
   45.4870   20.6240   35.9560 C   0  0  0  0  0  0  0  0  0  0  0  0
   44.4580   21.4830   35.8410 N   0  0  0  0  0  0  0  0  0  0  0  0
   42.7090   23.4750   36.7080 C   0  0  0  0  0  0  0  0  0  0  0  0
   41.3385   21.4570   37.9609 H   0  0  0  0  0  0  0  0  0  0  0  0
   40.5669   20.8451   36.3899 H   0  0  0  0  0  0  0  0  0  0  0  0
   39.9343   22.6967   39.2530 H   0  0  0  0  0  0  0  0  0  0  0  0
   38.0580   24.2683   39.5247 H   0  0  0  0  0  0  0  0  0  0  0  0
   36.9025   25.1096   37.5126 H   0  0  0  0  0  0  0  0  0  0  0  0
   37.6189   24.3622   35.2772 H   0  0  0  0  0  0  0  0  0  0  0  0
   41.7617   22.2881   35.1313 H   0  0  0  0  0  0  0  0  0  0  0  0
   42.0210   19.7086   37.3430 H   0  0  0  0  0  0  0  0  0  0  0  0
   43.9368   18.0955   37.5666 H   0  0  0  0  0  0  0  0  0  0  0  0
   46.4791   20.8855   35.5592 H   0  0  0  0  0  0  0  0  0  0  0  0
   42.6986   23.4518   37.8077 H   0  0  0  0  0  0  0  0  0  0  0  0
   43.7440   23.5892   36.3534 H   0  0  0  0  0  0  0  0  0  0  0  0
   42.1043   24.3227   36.3534 H   0  0  0  0  0  0  0  0  0  0  0  0
  1  2  1  0
  2  3  2  0
  3  4  1  0
  5  4  2  0
  6  5  1  0
  7  6  2  0
  7  2  1  0
  8  7  1  0
  9  8  1  0
 10  8  1  0
 11  8  1  0
 12 13  1  0
 12 19  1  0
 12  1  1  0
 13 14  2  0
 14 15  1  0
 16 15  2  0
 17 16  1  0
 18 17  2  0
 18 13  1  0
  1 20  1  0
  1 21  1  0
  3 22  1  0
  4 23  1  0
  5 24  1  0
  6 25  1  0
 12 26  1  6
 14 27  1  0
 15 28  1  0
 17 29  1  0
 19 30  1  0
 19 31  1  0
 19 32  1  0
M  ISO  8  20   8  21   8  22  14  23  14  24  14  25  14  26   8  27  14
M  ISO  5  28  14  29  14  30   8  31   8  32   8
M  END
>  <minimizedAffinity>  (1) 
-4.32815266

>  <minimizedRMSD>  (1) 
0.469352305

$$$$
