
     RDKit          3D

 37 38  0  0  0  0  0  0  0  0999 V2000
   38.3590   23.9110   37.0200 C   0  0  0  0  0  0  0  0  0  0  0  0
   41.4400   21.7210   37.2830 C   0  0  0  0  0  0  0  0  0  0  0  0
   40.1780   22.2230   37.5990 C   0  0  0  0  0  0  0  0  0  0  0  0
   39.6690   23.2640   36.8240 C   0  0  0  0  0  0  0  0  0  0  0  0
   40.4330   23.7450   35.7910 N   0  0  0  0  0  0  0  0  0  0  0  0
   41.6500   23.2310   35.5180 C   0  0  0  0  0  0  0  0  0  0  0  0
   42.1580   22.2290   36.2520 N   0  0  0  0  0  0  0  0  0  0  0  0
   38.2340   24.0620   38.5600 C   0  0  0  0  0  0  0  0  0  0  0  0
   38.2000   25.2510   36.3730 C   0  0  0  0  0  0  0  0  0  0  0  0
   37.2510   22.9990   36.5760 C   0  0  0  0  0  0  0  0  0  0  0  0
   37.5260   22.1030   35.5210 N   0  0  0  0  0  0  0  0  0  0  0  0
   37.4850   22.5780   34.1870 C   0  0  0  0  0  0  0  0  0  0  0  0
   37.6540   21.3400   33.2860 C   0  0  0  0  0  0  0  0  0  0  0  0
   36.2890   20.6940   33.1990 C   0  0  0  0  0  0  0  0  0  0  0  0
   35.6380   20.8390   34.5550 C   0  0  0  0  0  0  0  0  0  0  0  0
   36.6460   20.9660   35.6570 C   0  0  0  0  0  0  0  0  0  0  0  0
   41.8599   20.8986   37.8808 H   0  0  0  0  0  0  0  0  0  0  0  0
   39.5994   21.8085   38.4377 H   0  0  0  0  0  0  0  0  0  0  0  0
   42.2350   23.6395   34.6808 H   0  0  0  0  0  0  0  0  0  0  0  0
   38.8605   23.3052   39.0547 H   0  0  0  0  0  0  0  0  0  0  0  0
   38.5683   25.0666   38.8583 H   0  0  0  0  0  0  0  0  0  0  0  0
   37.1846   23.9212   38.8583 H   0  0  0  0  0  0  0  0  0  0  0  0
   38.1082   26.0246   37.1496 H   0  0  0  0  0  0  0  0  0  0  0  0
   39.0793   25.4625   35.7469 H   0  0  0  0  0  0  0  0  0  0  0  0
   37.2956   25.2509   35.7469 H   0  0  0  0  0  0  0  0  0  0  0  0
   36.9494   22.3990   37.4473 H   0  0  0  0  0  0  0  0  0  0  0  0
   36.4780   23.6721   36.1767 H   0  0  0  0  0  0  0  0  0  0  0  0
   36.5207   23.0676   33.9858 H   0  0  0  0  0  0  0  0  0  0  0  0
   38.2748   23.3207   34.0009 H   0  0  0  0  0  0  0  0  0  0  0  0
   37.9985   21.6404   32.2855 H   0  0  0  0  0  0  0  0  0  0  0  0
   38.4019   20.6448   33.6950 H   0  0  0  0  0  0  0  0  0  0  0  0
   35.6814   21.1988   32.4335 H   0  0  0  0  0  0  0  0  0  0  0  0
   36.3762   19.6337   32.9194 H   0  0  0  0  0  0  0  0  0  0  0  0
   35.0044   21.7382   34.5493 H   0  0  0  0  0  0  0  0  0  0  0  0
   35.0448   19.9320   34.7432 H   0  0  0  0  0  0  0  0  0  0  0  0
   37.2599   20.0534   35.6709 H   0  0  0  0  0  0  0  0  0  0  0  0
   36.0809   21.1111   36.5895 H   0  0  0  0  0  0  0  0  0  0  0  0
  1  8  1  0
  2  3  2  0
  4  1  1  0
  4  3  1  0
  5  4  2  0
  6  5  1  0
  6  7  2  0
  7  2  1  0
  9  1  1  0
 10  1  1  0
 11 16  1  0
 11 10  1  0
 12 11  1  0
 13 12  1  0
 14 13  1  0
 14 15  1  0
 15 16  1  0
  2 17  1  0
  3 18  1  0
  6 19  1  0
  8 20  1  0
  8 21  1  0
  8 22  1  0
  9 23  1  0
  9 24  1  0
  9 25  1  0
 10 26  1  0
 10 27  1  0
 12 28  1  0
 12 29  1  0
 13 30  1  0
 13 31  1  0
 14 32  1  0
 14 33  1  0
 15 34  1  0
 15 35  1  0
 16 36  1  0
 16 37  1  0
M  ISO  8  17  14  18  14  19  14  20   8  21   8  22   8  23   8  24   8
M  ISO  8  25   8  26   8  27   8  28  13  29  13  30  13  31  13  32  13
M  ISO  5  33  13  34  13  35  13  36  13  37  13
M  END
>  <minimizedAffinity>  (1) 
-3.91023684

>  <minimizedRMSD>  (1) 
1.08385754

$$$$
