
     RDKit          3D

 41 42  0  0  1  0  0  0  0  0999 V2000
   40.9030   21.5970   36.7960 C   0  0  0  0  0  0  0  0  0  0  0  0
   39.7830   22.4810   37.0970 C   0  0  0  0  0  0  0  0  0  0  0  0
   39.5710   23.0530   38.3760 C   0  0  0  0  0  0  0  0  0  0  0  0
   38.5580   23.9330   38.6340 C   0  0  0  0  0  0  0  0  0  0  0  0
   37.7460   24.2520   37.6190 C   0  0  0  0  0  0  0  0  0  0  0  0
   37.9360   23.6970   36.3690 C   0  0  0  0  0  0  0  0  0  0  0  0
   38.9260   22.8000   36.0130 C   0  0  0  0  0  0  0  0  0  0  0  0
   38.8870   22.4550   34.6210 C   0  0  0  0  0  0  0  0  0  0  0  0
   37.4890   21.8210   34.3150 C   0  0  0  0  0  0  0  0  0  0  0  0
   38.5790   23.8470   33.8960 C   0  0  0  0  0  0  0  0  0  0  0  0
   39.7660   21.8290   33.7320 C   0  0  0  0  0  0  0  0  0  0  0  0
   42.0630   22.1890   36.1040 C   0  0  2  0  0  0  0  0  0  0  0  0
   43.2380   21.2500   36.2480 C   0  0  0  0  0  0  0  0  0  0  0  0
   43.0780   20.0180   36.8810 C   0  0  0  0  0  0  0  0  0  0  0  0
   44.1800   19.2030   37.0020 C   0  0  0  0  0  0  0  0  0  0  0  0
   45.3700   19.6510   36.4930 N   0  0  0  0  0  0  0  0  0  0  0  0
   45.5090   20.8440   35.8830 C   0  0  0  0  0  0  0  0  0  0  0  0
   44.4320   21.6390   35.7660 N   0  0  0  0  0  0  0  0  0  0  0  0
   42.5670   23.5040   36.7090 C   0  0  0  0  0  0  0  0  0  0  0  0
   41.2627   21.1826   37.7493 H   0  0  0  0  0  0  0  0  0  0  0  0
   40.4983   20.8581   36.0888 H   0  0  0  0  0  0  0  0  0  0  0  0
   40.2506   22.7770   39.1957 H   0  0  0  0  0  0  0  0  0  0  0  0
   38.4155   24.3624   39.6366 H   0  0  0  0  0  0  0  0  0  0  0  0
   36.9213   24.9615   37.7818 H   0  0  0  0  0  0  0  0  0  0  0  0
   37.2312   23.9978   35.5798 H   0  0  0  0  0  0  0  0  0  0  0  0
   36.9769   21.5887   35.2604 H   0  0  0  0  0  0  0  0  0  0  0  0
   36.8829   22.5323   33.7348 H   0  0  0  0  0  0  0  0  0  0  0  0
   37.6248   20.8964   33.7348 H   0  0  0  0  0  0  0  0  0  0  0  0
   38.4068   24.6251   34.6542 H   0  0  0  0  0  0  0  0  0  0  0  0
   39.4361   24.1307   33.2676 H   0  0  0  0  0  0  0  0  0  0  0  0
   37.6822   23.7426   33.2676 H   0  0  0  0  0  0  0  0  0  0  0  0
   40.5336   21.2823   34.2993 H   0  0  0  0  0  0  0  0  0  0  0  0
   39.2069   21.1245   33.0986 H   0  0  0  0  0  0  0  0  0  0  0  0
   40.2490   22.5877   33.0986 H   0  0  0  0  0  0  0  0  0  0  0  0
   41.7195   22.3661   35.0741 H   0  0  0  0  0  0  0  0  0  0  0  0
   42.0984   19.7064   37.2726 H   0  0  0  0  0  0  0  0  0  0  0  0
   44.1074   18.2212   37.4928 H   0  0  0  0  0  0  0  0  0  0  0  0
   46.4855   21.1613   35.4882 H   0  0  0  0  0  0  0  0  0  0  0  0
   42.5411   23.4363   37.8066 H   0  0  0  0  0  0  0  0  0  0  0  0
   43.5995   23.6883   36.3773 H   0  0  0  0  0  0  0  0  0  0  0  0
   41.9222   24.3311   36.3773 H   0  0  0  0  0  0  0  0  0  0  0  0
  1  2  1  0
  2  3  2  0
  3  4  1  0
  5  4  2  0
  6  5  1  0
  7  6  2  0
  7  2  1  0
  8  7  1  0
  9  8  1  0
 10  8  1  0
 11  8  1  0
 12 13  1  0
 12 19  1  0
 12  1  1  0
 13 14  2  0
 14 15  1  0
 16 15  2  0
 17 16  1  0
 18 17  2  0
 18 13  1  0
  1 20  1  0
  1 21  1  0
  3 22  1  0
  4 23  1  0
  5 24  1  0
  6 25  1  0
  9 26  1  0
  9 27  1  0
  9 28  1  0
 10 29  1  0
 10 30  1  0
 10 31  1  0
 11 32  1  0
 11 33  1  0
 11 34  1  0
 12 35  1  6
 14 36  1  0
 15 37  1  0
 17 38  1  0
 19 39  1  0
 19 40  1  0
 19 41  1  0
M  ISO  8  20   8  21   8  22  14  23  14  24  14  25  14  26   8  27   8
M  ISO  8  28   8  29   8  30   8  31   8  32   8  33   8  34   8  35   8
M  ISO  6  36  14  37  14  38  14  39   8  40   8  41   8
M  END
>  <minimizedAffinity>  (1) 
-4.28981447

>  <minimizedRMSD>  (1) 
0.502479374

$$$$
