
     RDKit          3D

 50 54  0  0  1  0  0  0  0  0999 V2000
   40.9810   23.3130   35.6250 C   0  0  0  0  0  0  0  0  0  0  0  0
   39.8940   23.3920   36.5680 C   0  0  0  0  0  0  0  0  0  0  0  0
   40.0630   23.0440   37.9050 C   0  0  0  0  0  0  0  0  0  0  0  0
   39.0040   23.0980   38.8110 C   0  0  0  0  0  0  0  0  0  0  0  0
   37.7500   23.5020   38.3840 C   0  0  0  0  0  0  0  0  0  0  0  0
   37.5720   23.8560   37.0290 C   0  0  0  0  0  0  0  0  0  0  0  0
   38.6480   23.7900   36.1600 C   0  0  0  0  0  0  0  0  0  0  0  0
   38.1720   24.1850   34.8950 N   0  0  0  0  0  0  0  0  0  0  0  0
   38.0350   23.3380   33.8120 C   0  0  0  0  0  0  0  0  0  0  0  0
   37.5420   23.9950   32.7270 N   0  0  0  0  0  0  0  0  0  0  0  0
   37.3620   25.2510   33.0990 C   0  0  0  0  0  0  0  0  0  0  0  0
   36.9110   26.4260   32.5420 C   0  0  0  0  0  0  0  0  0  0  0  0
   36.8220   27.6130   33.1570 N   0  0  0  0  0  0  0  0  0  0  0  0
   37.2040   27.6950   34.4480 C   0  0  0  0  0  0  0  0  0  0  0  0
   37.6600   26.5750   35.0600 N   0  0  0  0  0  0  0  0  0  0  0  0
   37.7420   25.3890   34.4230 C   0  0  0  0  0  0  0  0  0  0  0  0
   41.8600   24.4890   35.4380 C   0  0  2  0  0  0  0  0  0  0  0  0
   41.4290   25.2970   34.2680 C   0  0  0  0  0  0  0  0  0  0  0  0
   41.3220   24.6910   33.0200 C   0  0  0  0  0  0  0  0  0  0  0  0
   40.9430   25.4570   31.9320 C   0  0  0  0  0  0  0  0  0  0  0  0
   40.6920   26.7930   32.1690 N   0  0  0  0  0  0  0  0  0  0  0  0
   40.8000   27.3570   33.3810 C   0  0  0  0  0  0  0  0  0  0  0  0
   41.1690   26.5840   34.4060 N   0  0  0  0  0  0  0  0  0  0  0  0
   43.3000   24.0980   35.1620 C   0  0  0  0  0  0  0  0  0  0  0  0
   44.2780   24.3410   36.1510 N   0  0  0  0  0  0  0  0  0  0  0  0
   44.3520   25.1350   37.2320 C   0  0  0  0  0  0  0  0  0  0  0  0
   45.4390   25.2800   38.0620 C   0  0  0  0  0  0  0  0  0  0  0  0
   46.5740   24.5510   37.7740 C   0  0  0  0  0  0  0  0  0  0  0  0
   47.5620   24.6840   38.5310 O   0  0  0  0  0  0  0  0  0  0  0  0
   46.5320   23.7460   36.6960 N   0  0  0  0  0  0  0  0  0  0  0  0
   45.4290   23.6470   35.9190 C   0  0  0  0  0  0  0  0  0  0  0  0
   45.6040   22.8410   34.9670 O   0  0  0  0  0  0  0  0  0  0  0  0
   41.6233   22.4788   35.9437 H   0  0  0  0  0  0  0  0  0  0  0  0
   40.4775   23.2048   34.6530 H   0  0  0  0  0  0  0  0  0  0  0  0
   41.0540   22.7191   38.2549 H   0  0  0  0  0  0  0  0  0  0  0  0
   39.1645   22.8201   39.8631 H   0  0  0  0  0  0  0  0  0  0  0  0
   36.9067   23.5463   39.0889 H   0  0  0  0  0  0  0  0  0  0  0  0
   36.5859   24.1818   36.6663 H   0  0  0  0  0  0  0  0  0  0  0  0
   38.2918   22.2685   33.8251 H   0  0  0  0  0  0  0  0  0  0  0  0
   36.5927   26.3867   31.4898 H   0  0  0  0  0  0  0  0  0  0  0  0
   37.1467   28.6494   34.9919 H   0  0  0  0  0  0  0  0  0  0  0  0
   41.7875   25.0558   36.3779 H   0  0  0  0  0  0  0  0  0  0  0  0
   41.5356   23.6186   32.9002 H   0  0  0  0  0  0  0  0  0  0  0  0
   40.8464   25.0219   30.9263 H   0  0  0  0  0  0  0  0  0  0  0  0
   40.5904   28.4269   33.5270 H   0  0  0  0  0  0  0  0  0  0  0  0
   43.3072   23.0166   34.9607 H   0  0  0  0  0  0  0  0  0  0  0  0
   43.5967   24.7552   34.3313 H   0  0  0  0  0  0  0  0  0  0  0  0
   43.4572   25.7260   37.4769 H   0  0  0  0  0  0  0  0  0  0  0  0
   45.4043   25.9564   38.9287 H   0  0  0  0  0  0  0  0  0  0  0  0
   47.3643   23.1889   36.4556 H   0  0  0  0  0  0  0  0  0  0  0  0
  1  2  1  0
  2  3  2  0
  3  4  1  0
  5  4  2  0
  6  5  1  0
  7  2  1  0
  7  6  2  0
  8  7  1  0
  9  8  1  0
 10 11  1  0
 10  9  2  0
 11 16  2  0
 12 11  1  0
 12 13  2  0
 13 14  1  0
 14 15  2  0
 16  8  1  0
 16 15  1  0
 17  1  1  0
 18 23  1  0
 18 17  1  0
 19 18  2  0
 20 21  2  0
 20 19  1  0
 21 22  1  0
 22 23  2  0
 24 17  1  0
 24 25  1  0
 25 26  1  0
 26 27  2  0
 28 27  1  0
 28 29  2  0
 30 28  1  0
 31 25  1  0
 31 30  1  0
 32 31  2  0
  1 33  1  0
  1 34  1  0
  3 35  1  0
  4 36  1  0
  5 37  1  0
  6 38  1  0
  9 39  1  0
 12 40  1  0
 14 41  1  0
 17 42  1  1
 19 43  1  0
 20 44  1  0
 22 45  1  0
 24 46  1  0
 24 47  1  0
 26 48  1  0
 27 49  1  0
 30 50  1  0
M  ISO  8  33   8  34   8  35  14  36  14  37  14  38  14  39  14  40  14
M  ISO  8  41  14  42   8  43  14  44  14  45  14  46   8  47   8  48  14
M  ISO  2  49  14  50   9
M  END
>  <minimizedAffinity>  (1) 
-5.96736813

>  <minimizedRMSD>  (1) 
1.89969921

$$$$
