
     RDKit          3D

 53 57  0  0  1  0  0  0  0  0999 V2000
   41.0500   23.1760   35.6950 C   0  0  0  0  0  0  0  0  0  0  0  0
   39.9120   23.2720   36.5740 C   0  0  0  0  0  0  0  0  0  0  0  0
   40.0400   23.1140   37.9530 C   0  0  0  0  0  0  0  0  0  0  0  0
   38.9360   23.1840   38.7980 C   0  0  0  0  0  0  0  0  0  0  0  0
   37.6710   23.4180   38.2680 C   0  0  0  0  0  0  0  0  0  0  0  0
   37.5410   23.5800   36.8660 C   0  0  0  0  0  0  0  0  0  0  0  0
   38.6650   23.5020   36.0650 C   0  0  0  0  0  0  0  0  0  0  0  0
   38.2250   23.6930   34.7420 N   0  0  0  0  0  0  0  0  0  0  0  0
   37.8540   22.6770   33.8850 C   0  0  0  0  0  0  0  0  0  0  0  0
   37.4620   23.1620   32.6740 N   0  0  0  0  0  0  0  0  0  0  0  0
   37.5760   24.4820   32.7430 C   0  0  0  0  0  0  0  0  0  0  0  0
   37.3650   25.5640   31.9270 C   0  0  0  0  0  0  0  0  0  0  0  0
   37.5650   26.8510   32.2480 N   0  0  0  0  0  0  0  0  0  0  0  0
   38.0180   27.1350   33.4840 C   0  0  0  0  0  0  0  0  0  0  0  0
   38.2500   26.1120   34.3450 N   0  0  0  0  0  0  0  0  0  0  0  0
   38.0440   24.8330   34.0060 C   0  0  0  0  0  0  0  0  0  0  0  0
   42.3560   23.6840   36.1380 C   0  0  2  0  0  0  0  0  0  0  0  0
   42.7630   24.8880   35.3690 C   0  0  0  0  0  0  0  0  0  0  0  0
   41.7930   25.6350   34.7160 C   0  0  0  0  0  0  0  0  0  0  0  0
   42.1780   26.7350   33.9700 C   0  0  0  0  0  0  0  0  0  0  0  0
   43.5280   27.0160   33.9280 N   0  0  0  0  0  0  0  0  0  0  0  0
   44.4470   26.2830   34.5680 C   0  0  0  0  0  0  0  0  0  0  0  0
   44.0530   25.2160   35.2890 N   0  0  0  0  0  0  0  0  0  0  0  0
   43.4910   22.6870   35.9930 C   0  0  0  0  0  0  0  0  0  0  0  0
   43.1940   21.3520   35.7880 N   0  0  0  0  0  0  0  0  0  0  0  0
   43.4190   20.6740   34.5840 C   0  0  0  0  0  0  0  0  0  0  0  0
   43.1350   19.1580   34.7430 C   0  0  0  0  0  0  0  0  0  0  0  0
   44.0200   18.7390   35.7370 O   0  0  0  0  0  0  0  0  0  0  0  0
   43.7010   19.2610   36.9740 C   0  0  0  0  0  0  0  0  0  0  0  0
   42.8710   20.5200   36.9010 C   0  0  0  0  0  0  0  0  0  0  0  0
   40.7903   23.7217   34.7759 H   0  0  0  0  0  0  0  0  0  0  0  0
   41.2136   22.0920   35.6045 H   0  0  0  0  0  0  0  0  0  0  0  0
   41.0356   22.9299   38.3831 H   0  0  0  0  0  0  0  0  0  0  0  0
   39.0635   23.0545   39.8829 H   0  0  0  0  0  0  0  0  0  0  0  0
   36.7897   23.4761   38.9238 H   0  0  0  0  0  0  0  0  0  0  0  0
   36.5535   23.7663   36.4187 H   0  0  0  0  0  0  0  0  0  0  0  0
   37.8725   21.6088   34.1471 H   0  0  0  0  0  0  0  0  0  0  0  0
   36.9963   25.3564   30.9116 H   0  0  0  0  0  0  0  0  0  0  0  0
   38.1966   28.1764   33.7899 H   0  0  0  0  0  0  0  0  0  0  0  0
   42.2008   23.9078   37.2037 H   0  0  0  0  0  0  0  0  0  0  0  0
   40.7315   25.3563   34.7904 H   0  0  0  0  0  0  0  0  0  0  0  0
   41.4431   27.3555   33.4362 H   0  0  0  0  0  0  0  0  0  0  0  0
   45.5125   26.5492   34.5057 H   0  0  0  0  0  0  0  0  0  0  0  0
   44.1003   23.0157   35.1382 H   0  0  0  0  0  0  0  0  0  0  0  0
   43.9770   22.6984   36.9797 H   0  0  0  0  0  0  0  0  0  0  0  0
   44.4673   20.8145   34.2817 H   0  0  0  0  0  0  0  0  0  0  0  0
   42.7414   21.0808   33.8189 H   0  0  0  0  0  0  0  0  0  0  0  0
   42.0934   18.9880   35.0530 H   0  0  0  0  0  0  0  0  0  0  0  0
   43.2717   18.6059   33.8015 H   0  0  0  0  0  0  0  0  0  0  0  0
   43.1354   18.5033   37.5362 H   0  0  0  0  0  0  0  0  0  0  0  0
   44.6479   19.5261   37.4671 H   0  0  0  0  0  0  0  0  0  0  0  0
   43.0310   21.0963   37.8242 H   0  0  0  0  0  0  0  0  0  0  0  0
   41.8229   20.2094   36.7787 H   0  0  0  0  0  0  0  0  0  0  0  0
  1 17  1  0
  1  2  1  0
  2  3  2  0
  3  4  1  0
  5  4  2  0
  6  5  1  0
  7  2  1  0
  7  6  2  0
  8  7  1  0
  9  8  1  0
 10 11  1  0
 10  9  2  0
 11 16  2  0
 12 13  2  0
 12 11  1  0
 13 14  1  0
 14 15  2  0
 16 15  1  0
 16  8  1  0
 18 17  1  0
 19 18  2  0
 20 19  1  0
 21 20  2  0
 21 22  1  0
 22 23  2  0
 23 18  1  0
 24 17  1  0
 25 24  1  0
 25 30  1  0
 26 27  1  0
 26 25  1  0
 27 28  1  0
 28 29  1  0
 30 29  1  0
  1 31  1  0
  1 32  1  0
  3 33  1  0
  4 34  1  0
  5 35  1  0
  6 36  1  0
  9 37  1  0
 12 38  1  0
 14 39  1  0
 17 40  1  1
 19 41  1  0
 20 42  1  0
 22 43  1  0
 24 44  1  0
 24 45  1  0
 26 46  1  0
 26 47  1  0
 27 48  1  0
 27 49  1  0
 29 50  1  0
 29 51  1  0
 30 52  1  0
 30 53  1  0
M  ISO  8  31   8  32   8  33  14  34  14  35  14  36  14  37  14  38  14
M  ISO  8  39  14  40   8  41  14  42  14  43  14  44   8  45   8  46  13
M  ISO  7  47  13  48  13  49  13  50  13  51  13  52  13  53  13
M  END
>  <minimizedAffinity>  (1) 
-5.25462675

>  <minimizedRMSD>  (1) 
1.59254932

$$$$
