
     RDKit          3D

 47 51  0  0  1  0  0  0  0  0999 V2000
   39.9560   23.2080   36.6740 C   0  0  0  0  0  0  0  0  0  0  0  0
   39.8160   22.9990   38.0440 C   0  0  0  0  0  0  0  0  0  0  0  0
   38.6570   23.3630   38.7210 C   0  0  0  0  0  0  0  0  0  0  0  0
   37.6060   23.9530   38.0230 C   0  0  0  0  0  0  0  0  0  0  0  0
   37.7520   24.1640   36.6300 C   0  0  0  0  0  0  0  0  0  0  0  0
   38.9220   23.7860   35.9960 C   0  0  0  0  0  0  0  0  0  0  0  0
   38.7630   24.1150   34.6370 N   0  0  0  0  0  0  0  0  0  0  0  0
   38.0620   23.3470   33.7270 C   0  0  0  0  0  0  0  0  0  0  0  0
   38.0620   23.9110   32.4890 N   0  0  0  0  0  0  0  0  0  0  0  0
   38.7600   25.0370   32.5950 C   0  0  0  0  0  0  0  0  0  0  0  0
   39.1600   26.0810   31.7810 C   0  0  0  0  0  0  0  0  0  0  0  0
   39.8890   27.1380   32.1530 N   0  0  0  0  0  0  0  0  0  0  0  0
   40.2890   27.2280   33.4390 C   0  0  0  0  0  0  0  0  0  0  0  0
   39.9300   26.2390   34.2900 N   0  0  0  0  0  0  0  0  0  0  0  0
   39.1980   25.1790   33.9030 C   0  0  0  0  0  0  0  0  0  0  0  0
   41.1460   22.7980   35.9610 C   0  0  0  0  0  0  0  0  0  0  0  0
   42.4300   22.7780   36.6760 C   0  0  2  0  0  0  0  0  0  0  0  0
   43.2870   23.9290   36.2900 C   0  0  0  0  0  0  0  0  0  0  0  0
   42.9140   24.7200   35.2110 C   0  0  0  0  0  0  0  0  0  0  0  0
   43.7180   25.7820   34.8390 C   0  0  0  0  0  0  0  0  0  0  0  0
   44.8590   25.9850   35.5830 N   0  0  0  0  0  0  0  0  0  0  0  0
   45.2050   25.2130   36.6220 C   0  0  0  0  0  0  0  0  0  0  0  0
   44.4060   24.1830   36.9670 N   0  0  0  0  0  0  0  0  0  0  0  0
   43.2750   21.5400   36.3760 C   0  0  0  0  0  0  0  0  0  0  0  0
   43.3610   21.1910   35.0040 N   0  0  0  0  0  0  0  0  0  0  0  0
   44.4220   21.4940   34.1980 C   0  0  0  0  0  0  0  0  0  0  0  0
   44.2150   21.0260   32.9000 C   0  0  0  0  0  0  0  0  0  0  0  0
   43.0080   20.4290   32.9100 N   0  0  0  0  0  0  0  0  0  0  0  0
   42.5380   20.5460   34.1610 C   0  0  0  0  0  0  0  0  0  0  0  0
   40.6416   22.5351   38.6036 H   0  0  0  0  0  0  0  0  0  0  0  0
   38.5707   23.1857   39.8032 H   0  0  0  0  0  0  0  0  0  0  0  0
   36.6825   24.2487   38.5423 H   0  0  0  0  0  0  0  0  0  0  0  0
   36.9373   24.6271   36.0539 H   0  0  0  0  0  0  0  0  0  0  0  0
   37.5653   22.3969   33.9732 H   0  0  0  0  0  0  0  0  0  0  0  0
   38.8486   26.0375   30.7269 H   0  0  0  0  0  0  0  0  0  0  0  0
   40.8901   28.0815   33.7856 H   0  0  0  0  0  0  0  0  0  0  0  0
   40.9659   21.7775   35.5919 H   0  0  0  0  0  0  0  0  0  0  0  0
   41.2798   23.5783   35.1973 H   0  0  0  0  0  0  0  0  0  0  0  0
   42.1418   22.8025   37.7373 H   0  0  0  0  0  0  0  0  0  0  0  0
   41.9882   24.5039   34.6577 H   0  0  0  0  0  0  0  0  0  0  0  0
   43.4589   26.4325   33.9906 H   0  0  0  0  0  0  0  0  0  0  0  0
   46.1276   25.4165   37.1855 H   0  0  0  0  0  0  0  0  0  0  0  0
   44.2944   21.7249   36.7456 H   0  0  0  0  0  0  0  0  0  0  0  0
   42.7749   20.6978   36.8767 H   0  0  0  0  0  0  0  0  0  0  0  0
   45.3206   22.0354   34.5288 H   0  0  0  0  0  0  0  0  0  0  0  0
   44.8982   21.1246   32.0435 H   0  0  0  0  0  0  0  0  0  0  0  0
   41.5607   20.1472   34.4704 H   0  0  0  0  0  0  0  0  0  0  0  0
  1  2  2  0
  2  3  1  0
  4  3  2  0
  5  4  1  0
  6  5  2  0
  6  1  1  0
  7  6  1  0
  8  7  1  0
  9 10  1  0
  9  8  2  0
 10 15  2  0
 11 12  2  0
 11 10  1  0
 12 13  1  0
 13 14  2  0
 15 14  1  0
 15  7  1  0
 16  1  1  0
 16 17  1  0
 18 17  1  0
 18 23  1  0
 19 18  2  0
 20 19  1  0
 20 21  2  0
 21 22  1  0
 22 23  2  0
 24 17  1  0
 25 24  1  0
 26 25  1  0
 27 28  1  0
 27 26  2  0
 28 29  2  0
 29 25  1  0
  2 30  1  0
  3 31  1  0
  4 32  1  0
  5 33  1  0
  8 34  1  0
 11 35  1  0
 13 36  1  0
 16 37  1  0
 16 38  1  0
 17 39  1  1
 19 40  1  0
 20 41  1  0
 22 42  1  0
 24 43  1  0
 24 44  1  0
 26 45  1  0
 27 46  1  0
 29 47  1  0
M  ISO  8  30  14  31  14  32  14  33  14  34  14  35  14  36  14  37   8
M  ISO  8  38   8  39   8  40  14  41  14  42  14  43   8  44   8  45  14
M  ISO  2  46  14  47  14
M  END
>  <minimizedAffinity>  (1) 
-5.06968403

>  <minimizedRMSD>  (1) 
1.17683172

$$$$
