
     RDKit          3D

 41 44  0  0  1  0  0  0  0  0999 V2000
   39.8740   23.2500   36.5130 C   0  0  0  0  0  0  0  0  0  0  0  0
   40.0480   23.1140   37.8850 C   0  0  0  0  0  0  0  0  0  0  0  0
   38.9790   23.1930   38.7700 C   0  0  0  0  0  0  0  0  0  0  0  0
   37.6940   23.4140   38.2800 C   0  0  0  0  0  0  0  0  0  0  0  0
   37.5190   23.5520   36.8890 C   0  0  0  0  0  0  0  0  0  0  0  0
   38.6120   23.4670   36.0390 C   0  0  0  0  0  0  0  0  0  0  0  0
   38.1230   23.6380   34.7300 N   0  0  0  0  0  0  0  0  0  0  0  0
   37.9040   22.6050   33.8400 C   0  0  0  0  0  0  0  0  0  0  0  0
   37.4190   23.0680   32.6540 N   0  0  0  0  0  0  0  0  0  0  0  0
   37.3260   24.3780   32.7750 C   0  0  0  0  0  0  0  0  0  0  0  0
   36.9310   25.4510   32.0030 C   0  0  0  0  0  0  0  0  0  0  0  0
   36.9340   26.7400   32.3740 N   0  0  0  0  0  0  0  0  0  0  0  0
   37.3580   27.0500   33.6160 C   0  0  0  0  0  0  0  0  0  0  0  0
   37.7620   26.0410   34.4300 N   0  0  0  0  0  0  0  0  0  0  0  0
   37.7530   24.7570   34.0430 C   0  0  0  0  0  0  0  0  0  0  0  0
   40.9850   23.1440   35.5920 C   0  0  0  0  0  0  0  0  0  0  0  0
   42.2450   23.8210   35.9310 C   0  0  2  0  0  0  0  0  0  0  0  0
   42.4280   25.0600   35.1280 C   0  0  0  0  0  0  0  0  0  0  0  0
   41.3130   25.7950   34.7530 C   0  0  0  0  0  0  0  0  0  0  0  0
   41.4730   26.9370   33.9920 C   0  0  0  0  0  0  0  0  0  0  0  0
   42.7670   27.2730   33.6500 N   0  0  0  0  0  0  0  0  0  0  0  0
   43.8340   26.5510   34.0210 C   0  0  0  0  0  0  0  0  0  0  0  0
   43.6520   25.4410   34.7640 N   0  0  0  0  0  0  0  0  0  0  0  0
   43.4810   22.9640   35.6180 C   0  0  0  0  0  0  0  0  0  0  0  0
   44.4320   23.3850   36.5730 O   0  0  0  0  0  0  0  0  0  0  0  0
   41.0591   22.9391   38.2814 H   0  0  0  0  0  0  0  0  0  0  0  0
   39.1469   23.0816   39.8514 H   0  0  0  0  0  0  0  0  0  0  0  0
   36.8350   23.4793   38.9640 H   0  0  0  0  0  0  0  0  0  0  0  0
   36.5145   23.7274   36.4764 H   0  0  0  0  0  0  0  0  0  0  0  0
   38.0964   21.5446   34.0603 H   0  0  0  0  0  0  0  0  0  0  0  0
   36.5796   25.2279   30.9848 H   0  0  0  0  0  0  0  0  0  0  0  0
   37.3761   28.0943   33.9612 H   0  0  0  0  0  0  0  0  0  0  0  0
   40.6471   23.5511   34.6276 H   0  0  0  0  0  0  0  0  0  0  0  0
   41.2427   22.0747   35.6034 H   0  0  0  0  0  0  0  0  0  0  0  0
   42.1671   24.0264   37.0088 H   0  0  0  0  0  0  0  0  0  0  0  0
   40.3076   25.4707   35.0596 H   0  0  0  0  0  0  0  0  0  0  0  0
   40.6138   27.5465   33.6753 H   0  0  0  0  0  0  0  0  0  0  0  0
   44.8464   26.8608   33.7225 H   0  0  0  0  0  0  0  0  0  0  0  0
   43.2557   21.8936   35.7345 H   0  0  0  0  0  0  0  0  0  0  0  0
   43.8334   23.0868   34.5833 H   0  0  0  0  0  0  0  0  0  0  0  0
   44.0770   23.2278   37.4837 H   0  0  0  0  0  0  0  0  0  0  0  0
  1  2  2  0
  2  3  1  0
  4  3  2  0
  5  4  1  0
  6  1  1  0
  6  5  2  0
  7  6  1  0
  8  7  1  0
  9 10  1  0
  9  8  2  0
 10 15  2  0
 11 12  2  0
 11 10  1  0
 12 13  1  0
 13 14  2  0
 15 14  1  0
 15  7  1  0
 16 17  1  0
 16  1  1  0
 18 17  1  0
 19 18  2  0
 20 19  1  0
 21 20  2  0
 21 22  1  0
 22 23  2  0
 23 18  1  0
 24 17  1  0
 24 25  1  0
  2 26  1  0
  3 27  1  0
  4 28  1  0
  5 29  1  0
  8 30  1  0
 11 31  1  0
 13 32  1  0
 16 33  1  0
 16 34  1  0
 17 35  1  1
 19 36  1  0
 20 37  1  0
 22 38  1  0
 24 39  1  0
 24 40  1  0
 25 41  1  0
M  ISO  8  26  14  27  14  28  14  29  14  30  14  31  14  32  14  33   8
M  ISO  8  34   8  35   8  36  14  37  14  38  14  39   8  40   8  41   3
M  END
>  <minimizedAffinity>  (1) 
-5.06911373

>  <minimizedRMSD>  (1) 
0.688176394

$$$$
