
     RDKit          3D

 46 50  0  0  1  0  0  0  0  0999 V2000
   39.9870   23.1920   36.6570 C   0  0  0  0  0  0  0  0  0  0  0  0
   39.8550   22.9790   38.0230 C   0  0  0  0  0  0  0  0  0  0  0  0
   38.7060   23.3460   38.7170 C   0  0  0  0  0  0  0  0  0  0  0  0
   37.6530   23.9450   38.0380 C   0  0  0  0  0  0  0  0  0  0  0  0
   37.7840   24.1650   36.6430 C   0  0  0  0  0  0  0  0  0  0  0  0
   38.9440   23.7820   35.9990 C   0  0  0  0  0  0  0  0  0  0  0  0
   38.7680   24.1180   34.6400 N   0  0  0  0  0  0  0  0  0  0  0  0
   38.0590   23.3500   33.7380 C   0  0  0  0  0  0  0  0  0  0  0  0
   38.0470   23.9150   32.5010 N   0  0  0  0  0  0  0  0  0  0  0  0
   38.7420   25.0390   32.6030 C   0  0  0  0  0  0  0  0  0  0  0  0
   39.1330   26.0830   31.7860 C   0  0  0  0  0  0  0  0  0  0  0  0
   39.8650   27.1430   32.1490 N   0  0  0  0  0  0  0  0  0  0  0  0
   40.2790   27.2330   33.4310 C   0  0  0  0  0  0  0  0  0  0  0  0
   39.9300   26.2400   34.2920 N   0  0  0  0  0  0  0  0  0  0  0  0
   39.1970   25.1860   33.9110 C   0  0  0  0  0  0  0  0  0  0  0  0
   41.1680   22.7870   35.9300 C   0  0  0  0  0  0  0  0  0  0  0  0
   42.4530   22.7610   36.6450 C   0  0  2  0  0  0  0  0  0  0  0  0
   43.3060   23.9220   36.2670 C   0  0  0  0  0  0  0  0  0  0  0  0
   42.9100   24.7400   35.2190 C   0  0  0  0  0  0  0  0  0  0  0  0
   43.7060   25.8100   34.8520 C   0  0  0  0  0  0  0  0  0  0  0  0
   44.8630   25.9930   35.5720 N   0  0  0  0  0  0  0  0  0  0  0  0
   45.2280   25.1960   36.5800 C   0  0  0  0  0  0  0  0  0  0  0  0
   44.4420   24.1550   36.9260 N   0  0  0  0  0  0  0  0  0  0  0  0
   43.3030   21.5280   36.2930 C   0  0  0  0  0  0  0  0  0  0  0  0
   43.2720   21.2490   34.8900 N   0  0  0  0  0  0  0  0  0  0  0  0
   42.3910   20.6470   34.0720 C   0  0  0  0  0  0  0  0  0  0  0  0
   42.8700   20.6580   32.8150 N   0  0  0  0  0  0  0  0  0  0  0  0
   44.0620   21.2810   32.8830 C   0  0  0  0  0  0  0  0  0  0  0  0
   44.3150   21.6440   34.1450 N   0  0  0  0  0  0  0  0  0  0  0  0
   40.6827   22.5065   38.5723 H   0  0  0  0  0  0  0  0  0  0  0  0
   38.6321   23.1624   39.7990 H   0  0  0  0  0  0  0  0  0  0  0  0
   36.7375   24.2423   38.5704 H   0  0  0  0  0  0  0  0  0  0  0  0
   36.9671   24.6375   36.0779 H   0  0  0  0  0  0  0  0  0  0  0  0
   37.5653   22.3995   33.9886 H   0  0  0  0  0  0  0  0  0  0  0  0
   38.8112   26.0383   30.7351 H   0  0  0  0  0  0  0  0  0  0  0  0
   40.8830   28.0875   33.7702 H   0  0  0  0  0  0  0  0  0  0  0  0
   41.2813   23.4784   35.0819 H   0  0  0  0  0  0  0  0  0  0  0  0
   40.9799   21.7343   35.6720 H   0  0  0  0  0  0  0  0  0  0  0  0
   42.1766   22.7657   37.7097 H   0  0  0  0  0  0  0  0  0  0  0  0
   41.9701   24.5393   34.6839 H   0  0  0  0  0  0  0  0  0  0  0  0
   43.4275   26.4807   34.0258 H   0  0  0  0  0  0  0  0  0  0  0  0
   46.1641   25.3872   37.1250 H   0  0  0  0  0  0  0  0  0  0  0  0
   44.3438   21.7135   36.5970 H   0  0  0  0  0  0  0  0  0  0  0  0
   42.8865   20.6601   36.8253 H   0  0  0  0  0  0  0  0  0  0  0  0
   41.4289   20.2133   34.3822 H   0  0  0  0  0  0  0  0  0  0  0  0
   44.7286   21.4641   32.0274 H   0  0  0  0  0  0  0  0  0  0  0  0
  1  2  2  0
  2  3  1  0
  4  3  2  0
  5  4  1  0
  6  5  2  0
  6  1  1  0
  7  6  1  0
  8  7  1  0
  9 10  1  0
  9  8  2  0
 10 15  2  0
 11 12  2  0
 11 10  1  0
 12 13  1  0
 13 14  2  0
 15 14  1  0
 15  7  1  0
 16 17  1  0
 16  1  1  0
 18 17  1  0
 18 23  1  0
 19 18  2  0
 20 19  1  0
 20 21  2  0
 21 22  1  0
 22 23  2  0
 24 17  1  0
 25 24  1  0
 26 25  1  0
 27 28  1  0
 27 26  2  0
 28 29  2  0
 29 25  1  0
  2 30  1  0
  3 31  1  0
  4 32  1  0
  5 33  1  0
  8 34  1  0
 11 35  1  0
 13 36  1  0
 16 37  1  0
 16 38  1  0
 17 39  1  1
 19 40  1  0
 20 41  1  0
 22 42  1  0
 24 43  1  0
 24 44  1  0
 26 45  1  0
 28 46  1  0
M  ISO  8  30  14  31  14  32  14  33  14  34  14  35  14  36  14  37   8
M  ISO  8  38   8  39   8  40  14  41  14  42  14  43   8  44   8  45  14
M  ISO  1  46  14
M  END
>  <minimizedAffinity>  (1) 
-5.06514359

>  <minimizedRMSD>  (1) 
1.17194915

$$$$
