
     RDKit          3D

 45 49  0  0  1  0  0  0  0  0999 V2000
   41.0630   23.1680   35.7020 C   0  0  0  0  0  0  0  0  0  0  0  0
   39.9200   23.2720   36.5840 C   0  0  0  0  0  0  0  0  0  0  0  0
   40.0400   23.1160   37.9610 C   0  0  0  0  0  0  0  0  0  0  0  0
   38.9360   23.1910   38.8080 C   0  0  0  0  0  0  0  0  0  0  0  0
   37.6740   23.4300   38.2720 C   0  0  0  0  0  0  0  0  0  0  0  0
   37.5530   23.5890   36.8710 C   0  0  0  0  0  0  0  0  0  0  0  0
   38.6760   23.5060   36.0700 C   0  0  0  0  0  0  0  0  0  0  0  0
   38.2360   23.6960   34.7450 N   0  0  0  0  0  0  0  0  0  0  0  0
   37.8720   22.6730   33.8920 C   0  0  0  0  0  0  0  0  0  0  0  0
   37.4830   23.1530   32.6790 N   0  0  0  0  0  0  0  0  0  0  0  0
   37.5930   24.4660   32.7450 C   0  0  0  0  0  0  0  0  0  0  0  0
   37.3810   25.5560   31.9210 C   0  0  0  0  0  0  0  0  0  0  0  0
   37.5780   26.8410   32.2430 N   0  0  0  0  0  0  0  0  0  0  0  0
   38.0270   27.1340   33.4810 C   0  0  0  0  0  0  0  0  0  0  0  0
   38.2570   26.1110   34.3430 N   0  0  0  0  0  0  0  0  0  0  0  0
   38.0550   24.8310   34.0090 C   0  0  0  0  0  0  0  0  0  0  0  0
   42.3510   23.7040   36.1630 C   0  0  2  0  0  0  0  0  0  0  0  0
   42.7650   24.8920   35.3720 C   0  0  0  0  0  0  0  0  0  0  0  0
   41.7940   25.6300   34.7030 C   0  0  0  0  0  0  0  0  0  0  0  0
   42.1680   26.7260   33.9510 C   0  0  0  0  0  0  0  0  0  0  0  0
   43.5170   27.0190   33.9200 N   0  0  0  0  0  0  0  0  0  0  0  0
   44.4390   26.2980   34.5710 C   0  0  0  0  0  0  0  0  0  0  0  0
   44.0490   25.2320   35.2980 N   0  0  0  0  0  0  0  0  0  0  0  0
   43.5060   22.7110   36.0100 C   0  0  0  0  0  0  0  0  0  0  0  0
   43.2110   21.6730   35.0240 C   0  0  0  0  0  0  0  0  0  0  0  0
   42.7350   20.4240   35.1830 N   0  0  0  0  0  0  0  0  0  0  0  0
   42.6200   19.8290   34.0180 O   0  0  0  0  0  0  0  0  0  0  0  0
   43.0220   20.6920   33.1140 C   0  0  0  0  0  0  0  0  0  0  0  0
   43.4000   21.8560   33.6940 N   0  0  0  0  0  0  0  0  0  0  0  0
   40.8053   23.6954   34.7717 H   0  0  0  0  0  0  0  0  0  0  0  0
   41.2371   22.0857   35.6106 H   0  0  0  0  0  0  0  0  0  0  0  0
   41.0339   22.9282   38.3933 H   0  0  0  0  0  0  0  0  0  0  0  0
   39.0611   23.0621   39.8932 H   0  0  0  0  0  0  0  0  0  0  0  0
   36.7898   23.4939   38.9232 H   0  0  0  0  0  0  0  0  0  0  0  0
   36.5674   23.7782   36.4207 H   0  0  0  0  0  0  0  0  0  0  0  0
   37.8936   21.6060   34.1587 H   0  0  0  0  0  0  0  0  0  0  0  0
   37.0159   25.3479   30.9044 H   0  0  0  0  0  0  0  0  0  0  0  0
   38.2025   28.1766   33.7845 H   0  0  0  0  0  0  0  0  0  0  0  0
   42.1758   23.9437   37.2222 H   0  0  0  0  0  0  0  0  0  0  0  0
   40.7346   25.3422   34.7726 H   0  0  0  0  0  0  0  0  0  0  0  0
   41.4306   27.3333   33.4057 H   0  0  0  0  0  0  0  0  0  0  0  0
   45.5026   26.5727   34.5131 H   0  0  0  0  0  0  0  0  0  0  0  0
   44.4048   23.2587   35.6905 H   0  0  0  0  0  0  0  0  0  0  0  0
   43.6624   22.2205   36.9821 H   0  0  0  0  0  0  0  0  0  0  0  0
   43.0483   20.4962   32.0319 H   0  0  0  0  0  0  0  0  0  0  0  0
  1 17  1  0
  1  2  1  0
  2  3  2  0
  3  4  1  0
  5  4  2  0
  6  5  1  0
  7  2  1  0
  7  6  2  0
  8  7  1  0
  9  8  1  0
 10 11  1  0
 10  9  2  0
 11 16  2  0
 12 13  2  0
 12 11  1  0
 13 14  1  0
 14 15  2  0
 16 15  1  0
 16  8  1  0
 18 17  1  0
 19 18  2  0
 20 19  1  0
 21 20  2  0
 21 22  1  0
 22 23  2  0
 23 18  1  0
 24 17  1  0
 25 26  2  0
 25 24  1  0
 27 26  1  0
 28 29  2  0
 28 27  1  0
 29 25  1  0
  1 30  1  0
  1 31  1  0
  3 32  1  0
  4 33  1  0
  5 34  1  0
  6 35  1  0
  9 36  1  0
 12 37  1  0
 14 38  1  0
 17 39  1  1
 19 40  1  0
 20 41  1  0
 22 42  1  0
 24 43  1  0
 24 44  1  0
 28 45  1  0
M  ISO  8  30   8  31   8  32  14  33  14  34  14  35  14  36  14  37  14
M  ISO  8  38  14  39   8  40  14  41  14  42  14  43   8  44   8  45  14
M  END
>  <minimizedAffinity>  (1) 
-5.04157257

>  <minimizedRMSD>  (1) 
0.73560971

$$$$
