
     RDKit          3D

 31 34  0  0  0  0  0  0  0  0999 V2000
   39.9950   22.7240   37.0040 C   0  0  0  0  0  0  0  0  0  0  0  0
   38.7640   23.3350   37.4080 C   0  0  0  0  0  0  0  0  0  0  0  0
   38.1600   24.2430   36.5090 C   0  0  0  0  0  0  0  0  0  0  0  0
   38.7840   24.4800   35.3210 N   0  0  0  0  0  0  0  0  0  0  0  0
   39.9550   23.8780   34.9740 C   0  0  0  0  0  0  0  0  0  0  0  0
   40.5480   22.9990   35.8320 N   0  0  0  0  0  0  0  0  0  0  0  0
   40.5870   24.1360   33.7250 N   0  0  0  0  0  0  0  0  0  0  0  0
   41.8920   24.4180   33.4690 C   0  0  0  0  0  0  0  0  0  0  0  0
   42.0790   24.6470   32.1430 C   0  0  0  0  0  0  0  0  0  0  0  0
   40.8860   24.5080   31.5590 N   0  0  0  0  0  0  0  0  0  0  0  0
   39.9720   24.1920   32.5420 C   0  0  0  0  0  0  0  0  0  0  0  0
   38.6190   24.0500   32.0360 C   0  0  0  0  0  0  0  0  0  0  0  0
   38.0130   24.8300   31.0470 C   0  0  0  0  0  0  0  0  0  0  0  0
   36.7770   24.4440   30.7420 N   0  0  0  0  0  0  0  0  0  0  0  0
   36.4890   23.3820   31.5100 C   0  0  0  0  0  0  0  0  0  0  0  0
   35.3510   22.6080   31.5640 C   0  0  0  0  0  0  0  0  0  0  0  0
   35.2820   21.5310   32.4210 C   0  0  0  0  0  0  0  0  0  0  0  0
   36.3960   21.2680   33.2200 C   0  0  0  0  0  0  0  0  0  0  0  0
   37.4940   22.0790   33.1180 C   0  0  0  0  0  0  0  0  0  0  0  0
   37.6030   23.1580   32.2800 C   0  0  0  0  0  0  0  0  0  0  0  0
   40.4910   22.0123   37.6804 H   0  0  0  0  0  0  0  0  0  0  0  0
   38.3059   23.1061   38.3815 H   0  0  0  0  0  0  0  0  0  0  0  0
   37.2136   24.7439   36.7610 H   0  0  0  0  0  0  0  0  0  0  0  0
   42.6859   24.4555   34.2295 H   0  0  0  0  0  0  0  0  0  0  0  0
   43.0282   24.8980   31.6470 H   0  0  0  0  0  0  0  0  0  0  0  0
   38.5119   25.6839   30.5655 H   0  0  0  0  0  0  0  0  0  0  0  0
   36.1560   24.8797   30.0453 H   0  0  0  0  0  0  0  0  0  0  0  0
   34.4930   22.8507   30.9199 H   0  0  0  0  0  0  0  0  0  0  0  0
   34.3816   20.9013   32.4735 H   0  0  0  0  0  0  0  0  0  0  0  0
   36.3916   20.4209   33.9217 H   0  0  0  0  0  0  0  0  0  0  0  0
   38.3570   21.8463   33.7592 H   0  0  0  0  0  0  0  0  0  0  0  0
  1  2  2  0
  3  2  1  0
  4  3  2  0
  5  4  1  0
  5  6  2  0
  6  1  1  0
  7  5  1  0
  8  7  1  0
  9  8  2  0
 10  9  1  0
 10 11  2  0
 11  7  1  0
 12 20  1  0
 12 11  1  0
 13 12  2  0
 14 13  1  0
 14 15  1  0
 15 16  2  0
 15 20  1  0
 16 17  1  0
 17 18  2  0
 19 18  1  0
 20 19  2  0
  1 21  1  0
  2 22  1  0
  3 23  1  0
  8 24  1  0
  9 25  1  0
 13 26  1  0
 14 27  1  0
 16 28  1  0
 17 29  1  0
 18 30  1  0
 19 31  1  0
M  ISO  8  21  14  22  14  23  14  24  14  25  14  26  14  27   9  28  14
M  ISO  3  29  14  30  14  31  14
M  END
>  <minimizedAffinity>  (1) 
-4.60591507

>  <minimizedRMSD>  (1) 
6.02779245

$$$$
