
     RDKit          3D

 30 32  0  0  0  0  0  0  0  0999 V2000
   38.2300   22.2180   35.7040 C   0  0  0  0  0  0  0  0  0  0  0  0
   37.3170   22.7850   36.6160 C   0  0  0  0  0  0  0  0  0  0  0  0
   37.5700   24.0830   37.0530 C   0  0  0  0  0  0  0  0  0  0  0  0
   38.6860   24.7560   36.5880 N   0  0  0  0  0  0  0  0  0  0  0  0
   39.5280   24.1550   35.7100 C   0  0  0  0  0  0  0  0  0  0  0  0
   39.2950   22.8990   35.2780 N   0  0  0  0  0  0  0  0  0  0  0  0
   40.6850   24.8470   35.2240 N   0  0  0  0  0  0  0  0  0  0  0  0
   41.9640   24.4220   35.1340 C   0  0  0  0  0  0  0  0  0  0  0  0
   42.7360   25.4460   34.6000 C   0  0  0  0  0  0  0  0  0  0  0  0
   41.9220   26.5020   34.3620 N   0  0  0  0  0  0  0  0  0  0  0  0
   40.6930   26.1060   34.7490 C   0  0  0  0  0  0  0  0  0  0  0  0
   39.5480   27.0660   34.6110 C   0  0  0  0  0  0  0  0  0  0  0  0
   38.7530   26.7690   33.3440 C   0  0  0  0  0  0  0  0  0  0  0  0
   37.4490   26.1780   33.8240 C   0  0  0  0  0  0  0  0  0  0  0  0
   37.2070   26.9410   35.1050 C   0  0  0  0  0  0  0  0  0  0  0  0
   38.5670   26.9180   35.7540 C   0  0  0  0  0  0  0  0  0  0  0  0
   38.0612   21.1950   35.3367 H   0  0  0  0  0  0  0  0  0  0  0  0
   36.4389   22.2242   36.9688 H   0  0  0  0  0  0  0  0  0  0  0  0
   36.8865   24.5704   37.7638 H   0  0  0  0  0  0  0  0  0  0  0  0
   42.3329   23.4300   35.4337 H   0  0  0  0  0  0  0  0  0  0  0  0
   43.8178   25.4062   34.4048 H   0  0  0  0  0  0  0  0  0  0  0  0
   39.9875   28.0742   34.5933 H   0  0  0  0  0  0  0  0  0  0  0  0
   39.2922   26.0498   32.7100 H   0  0  0  0  0  0  0  0  0  0  0  0
   38.5959   27.6722   32.7361 H   0  0  0  0  0  0  0  0  0  0  0  0
   36.6411   26.3510   33.0978 H   0  0  0  0  0  0  0  0  0  0  0  0
   37.4812   25.0868   33.9587 H   0  0  0  0  0  0  0  0  0  0  0  0
   36.8810   27.9713   34.8995 H   0  0  0  0  0  0  0  0  0  0  0  0
   36.4125   26.5094   35.7315 H   0  0  0  0  0  0  0  0  0  0  0  0
   38.7280   25.9660   36.2811 H   0  0  0  0  0  0  0  0  0  0  0  0
   38.6813   27.7155   36.5030 H   0  0  0  0  0  0  0  0  0  0  0  0
  1  2  2  0
  2  3  1  0
  4  3  2  0
  5  4  1  0
  6  1  1  0
  6  5  2  0
  7  5  1  0
  8  7  1  0
  9  8  2  0
 10  9  1  0
 10 11  2  0
 11  7  1  0
 12 11  1  0
 12 16  1  0
 13 14  1  0
 13 12  1  0
 14 15  1  0
 15 16  1  0
  1 17  1  0
  2 18  1  0
  3 19  1  0
  8 20  1  0
  9 21  1  0
 12 22  1  0
 13 23  1  0
 13 24  1  0
 14 25  1  0
 14 26  1  0
 15 27  1  0
 15 28  1  0
 16 29  1  0
 16 30  1  0
M  ISO  8  17  14  18  14  19  14  20  14  21  14  22  13  23  13  24  13
M  ISO  6  25  13  26  13  27  13  28  13  29  13  30  13
M  END
>  <minimizedAffinity>  (1) 
-4.56859016

>  <minimizedRMSD>  (1) 
5.88075638

$$$$
