
     RDKit          3D

 28 31  0  0  0  0  0  0  0  0999 V2000
   39.7170   23.0060   36.9720 C   0  0  0  0  0  0  0  0  0  0  0  0
   38.3770   23.1760   37.3870 C   0  0  0  0  0  0  0  0  0  0  0  0
   37.5240   23.8490   36.5190 C   0  0  0  0  0  0  0  0  0  0  0  0
   38.0060   24.3170   35.3130 N   0  0  0  0  0  0  0  0  0  0  0  0
   39.2970   24.1310   34.9570 C   0  0  0  0  0  0  0  0  0  0  0  0
   40.1370   23.4770   35.7950 N   0  0  0  0  0  0  0  0  0  0  0  0
   39.8080   24.6030   33.7270 N   0  0  0  0  0  0  0  0  0  0  0  0
   40.9260   25.2870   33.4310 C   0  0  0  0  0  0  0  0  0  0  0  0
   41.0140   25.5330   32.0810 C   0  0  0  0  0  0  0  0  0  0  0  0
   39.9080   24.9820   31.5100 N   0  0  0  0  0  0  0  0  0  0  0  0
   39.2120   24.4350   32.5310 C   0  0  0  0  0  0  0  0  0  0  0  0
   37.9890   23.7830   32.1960 N   0  0  0  0  0  0  0  0  0  0  0  0
   37.2500   24.0470   31.0840 C   0  0  0  0  0  0  0  0  0  0  0  0
   36.1420   23.2520   31.0620 N   0  0  0  0  0  0  0  0  0  0  0  0
   36.1620   22.4710   32.1590 C   0  0  0  0  0  0  0  0  0  0  0  0
   35.3060   21.4870   32.6490 C   0  0  0  0  0  0  0  0  0  0  0  0
   35.6390   20.8790   33.8240 N   0  0  0  0  0  0  0  0  0  0  0  0
   36.7650   21.2320   34.4730 C   0  0  0  0  0  0  0  0  0  0  0  0
   37.6030   22.1920   33.9970 N   0  0  0  0  0  0  0  0  0  0  0  0
   37.3070   22.8140   32.8410 C   0  0  0  0  0  0  0  0  0  0  0  0
   40.4246   22.4779   37.6281 H   0  0  0  0  0  0  0  0  0  0  0  0
   38.0236   22.7923   38.3555 H   0  0  0  0  0  0  0  0  0  0  0  0
   36.4703   24.0077   36.7921 H   0  0  0  0  0  0  0  0  0  0  0  0
   41.6731   25.6082   34.1717 H   0  0  0  0  0  0  0  0  0  0  0  0
   41.8216   26.0708   31.5629 H   0  0  0  0  0  0  0  0  0  0  0  0
   37.5082   24.7915   30.3165 H   0  0  0  0  0  0  0  0  0  0  0  0
   34.3908   21.2092   32.1057 H   0  0  0  0  0  0  0  0  0  0  0  0
   37.0150   20.7279   35.4182 H   0  0  0  0  0  0  0  0  0  0  0  0
  1  2  2  0
  3  2  1  0
  4  3  2  0
  5  4  1  0
  5  6  2  0
  6  1  1  0
  7  5  1  0
  8  7  1  0
  9  8  2  0
 10  9  1  0
 10 11  2  0
 11  7  1  0
 12 11  1  0
 12 20  1  0
 13 12  1  0
 14 13  2  0
 14 15  1  0
 15 16  2  0
 15 20  1  0
 16 17  1  0
 17 18  2  0
 19 18  1  0
 20 19  2  0
  1 21  1  0
  2 22  1  0
  3 23  1  0
  8 24  1  0
  9 25  1  0
 13 26  1  0
 16 27  1  0
 18 28  1  0
M  ISO  8  21  14  22  14  23  14  24  14  25  14  26  14  27  14  28  14
M  END
>  <minimizedAffinity>  (1) 
-4.52383804

>  <minimizedRMSD>  (1) 
5.30465794

$$$$
