
     RDKit          3D

 19 20  0  0  0  0  0  0  0  0999 V2000
   39.9610   22.6790   37.2830 C   0  0  0  0  0  0  0  0  0  0  0  0
   39.3780   23.4410   38.3170 C   0  0  0  0  0  0  0  0  0  0  0  0
   37.9820   23.6230   38.2830 C   0  0  0  0  0  0  0  0  0  0  0  0
   37.2790   23.0510   37.2540 N   0  0  0  0  0  0  0  0  0  0  0  0
   37.8800   22.3310   36.2880 C   0  0  0  0  0  0  0  0  0  0  0  0
   39.2300   22.1430   36.3010 N   0  0  0  0  0  0  0  0  0  0  0  0
   37.1390   21.7390   35.2220 N   0  0  0  0  0  0  0  0  0  0  0  0
   37.3470   21.7600   33.8890 C   0  0  0  0  0  0  0  0  0  0  0  0
   36.3520   21.0370   33.2500 C   0  0  0  0  0  0  0  0  0  0  0  0
   35.5130   20.5600   34.2080 N   0  0  0  0  0  0  0  0  0  0  0  0
   36.0120   20.9990   35.3880 C   0  0  0  0  0  0  0  0  0  0  0  0
   35.3540   20.6680   36.6240 N   0  0  0  0  0  0  0  0  0  0  0  0
   41.0496   22.5213   37.2850 H   0  0  0  0  0  0  0  0  0  0  0  0
   39.9909   23.8767   39.1198 H   0  0  0  0  0  0  0  0  0  0  0  0
   37.4694   24.2081   39.0608 H   0  0  0  0  0  0  0  0  0  0  0  0
   38.1798   22.2730   33.3858 H   0  0  0  0  0  0  0  0  0  0  0  0
   36.2581   20.8780   32.1656 H   0  0  0  0  0  0  0  0  0  0  0  0
   34.4986   20.0943   36.6145 H   0  0  0  0  0  0  0  0  0  0  0  0
   35.7384   21.0047   37.5183 H   0  0  0  0  0  0  0  0  0  0  0  0
  1  2  2  0
  3  2  1  0
  4  3  2  0
  5  6  2  0
  5  4  1  0
  6  1  1  0
  7 11  1  0
  7  5  1  0
  8  7  1  0
  9  8  2  0
  9 10  1  0
 10 11  2  0
 11 12  1  0
  1 13  1  0
  2 14  1  0
  3 15  1  0
  8 16  1  0
  9 17  1  0
 12 18  1  0
 12 19  1  0
M  ISO  5  13  14  14  14  15  14  16  14  17  14
M  END
>  <minimizedAffinity>  (1) 
-4.50574017

>  <minimizedRMSD>  (1) 
0.138659447

$$$$
