
     RDKit          3D

 29 30  0  0  0  0  0  0  0  0999 V2000
   38.0920   23.7030   37.2530 C   0  0  0  0  0  0  0  0  0  0  0  0
   41.4760   22.0340   37.1850 C   0  0  0  0  0  0  0  0  0  0  0  0
   40.1720   22.3320   37.6090 C   0  0  0  0  0  0  0  0  0  0  0  0
   39.4560   23.3110   36.9010 C   0  0  0  0  0  0  0  0  0  0  0  0
   40.0590   23.9130   35.8490 N   0  0  0  0  0  0  0  0  0  0  0  0
   41.3050   23.6080   35.4650 C   0  0  0  0  0  0  0  0  0  0  0  0
   42.0270   22.6730   36.1210 N   0  0  0  0  0  0  0  0  0  0  0  0
   38.1760   24.4530   38.5800 C   0  0  0  0  0  0  0  0  0  0  0  0
   37.4000   24.5470   36.2080 C   0  0  0  0  0  0  0  0  0  0  0  0
   37.2410   22.4650   37.4790 C   0  0  0  0  0  0  0  0  0  0  0  0
   36.7990   21.8340   36.2330 C   0  0  0  0  0  0  0  0  0  0  0  0
   37.3460   21.8490   34.9670 C   0  0  0  0  0  0  0  0  0  0  0  0
   36.5560   21.0960   34.1140 C   0  0  0  0  0  0  0  0  0  0  0  0
   35.5310   20.6310   34.8820 N   0  0  0  0  0  0  0  0  0  0  0  0
   35.6810   21.0660   36.1160 N   0  0  0  0  0  0  0  0  0  0  0  0
   42.0601   21.2721   37.7220 H   0  0  0  0  0  0  0  0  0  0  0  0
   39.7240   21.8144   38.4700 H   0  0  0  0  0  0  0  0  0  0  0  0
   41.7478   24.1268   34.6020 H   0  0  0  0  0  0  0  0  0  0  0  0
   38.0958   23.7372   39.4114 H   0  0  0  0  0  0  0  0  0  0  0  0
   39.1389   24.9811   38.6424 H   0  0  0  0  0  0  0  0  0  0  0  0
   37.3538   25.1811   38.6424 H   0  0  0  0  0  0  0  0  0  0  0  0
   36.7773   25.3064   36.7035 H   0  0  0  0  0  0  0  0  0  0  0  0
   38.1540   25.0439   35.5799 H   0  0  0  0  0  0  0  0  0  0  0  0
   36.7649   23.9050   35.5799 H   0  0  0  0  0  0  0  0  0  0  0  0
   37.8317   21.7341   38.0508 H   0  0  0  0  0  0  0  0  0  0  0  0
   36.3391   22.7827   38.0227 H   0  0  0  0  0  0  0  0  0  0  0  0
   38.2670   22.3772   34.6792 H   0  0  0  0  0  0  0  0  0  0  0  0
   36.7213   20.9121   33.0422 H   0  0  0  0  0  0  0  0  0  0  0  0
   34.7605   20.0336   34.5499 H   0  0  0  0  0  0  0  0  0  0  0  0
  1 10  1  0
  1  8  1  0
  2  3  2  0
  4  1  1  0
  4  3  1  0
  5  4  2  0
  6  5  1  0
  6  7  2  0
  7  2  1  0
  9  1  1  0
 11 10  1  0
 12 11  1  0
 13 14  1  0
 13 12  2  0
 14 15  1  0
 15 11  2  0
  2 16  1  0
  3 17  1  0
  6 18  1  0
  8 19  1  0
  8 20  1  0
  8 21  1  0
  9 22  1  0
  9 23  1  0
  9 24  1  0
 10 25  1  0
 10 26  1  0
 12 27  1  0
 13 28  1  0
 14 29  1  0
M  ISO  8  16  14  17  14  18  14  19   8  20   8  21   8  22   8  23   8
M  ISO  6  24   8  25   8  26   8  27  14  28  14  29   9
M  END
>  <minimizedAffinity>  (1) 
-3.65162635

>  <minimizedRMSD>  (1) 
1.13326943

$$$$
