
     RDKit          3D

 23 25  0  0  0  0  0  0  0  0999 V2000
   39.9680   22.9240   38.0170 C   0  0  0  0  0  0  0  0  0  0  0  0
   38.7390   23.2970   38.5960 C   0  0  0  0  0  0  0  0  0  0  0  0
   37.6900   23.5570   37.7220 C   0  0  0  0  0  0  0  0  0  0  0  0
   37.8900   23.4410   36.3550 N   0  0  0  0  0  0  0  0  0  0  0  0
   39.1010   23.0760   35.8610 C   0  0  0  0  0  0  0  0  0  0  0  0
   40.1510   22.8150   36.6980 N   0  0  0  0  0  0  0  0  0  0  0  0
   39.3090   22.9580   34.4680 N   0  0  0  0  0  0  0  0  0  0  0  0
   40.2970   23.4240   33.6780 C   0  0  0  0  0  0  0  0  0  0  0  0
   40.0980   23.0700   32.3680 C   0  0  0  0  0  0  0  0  0  0  0  0
   38.9380   22.3540   32.3340 N   0  0  0  0  0  0  0  0  0  0  0  0
   38.5020   22.3100   33.6070 C   0  0  0  0  0  0  0  0  0  0  0  0
   37.2840   21.6100   33.8700 N   0  0  0  0  0  0  0  0  0  0  0  0
   36.4060   21.0130   33.0410 C   0  0  0  0  0  0  0  0  0  0  0  0
   35.3940   20.4770   33.7470 N   0  0  0  0  0  0  0  0  0  0  0  0
   35.6820   20.7640   35.0400 C   0  0  0  0  0  0  0  0  0  0  0  0
   36.8510   21.4640   35.1100 N   0  0  0  0  0  0  0  0  0  0  0  0
   40.8177   22.7124   38.6828 H   0  0  0  0  0  0  0  0  0  0  0  0
   38.6157   23.3785   39.6860 H   0  0  0  0  0  0  0  0  0  0  0  0
   36.7056   23.8535   38.1131 H   0  0  0  0  0  0  0  0  0  0  0  0
   41.1534   24.0130   34.0381 H   0  0  0  0  0  0  0  0  0  0  0  0
   40.7460   23.3152   31.5136 H   0  0  0  0  0  0  0  0  0  0  0  0
   36.5025   20.9700   31.9461 H   0  0  0  0  0  0  0  0  0  0  0  0
   35.0653   20.4756   35.9040 H   0  0  0  0  0  0  0  0  0  0  0  0
  1  2  2  0
  3  2  1  0
  4  3  2  0
  5  4  1  0
  5  6  2  0
  6  1  1  0
  7  5  1  0
  8  7  1  0
  9  8  2  0
 10  9  1  0
 10 11  2  0
 11 12  1  0
 11  7  1  0
 12 16  1  0
 13 14  2  0
 13 12  1  0
 14 15  1  0
 15 16  2  0
  1 17  1  0
  2 18  1  0
  3 19  1  0
  8 20  1  0
  9 21  1  0
 13 22  1  0
 15 23  1  0
M  ISO  7  17  14  18  14  19  14  20  14  21  14  22  14  23  14
M  END
>  <minimizedAffinity>  (1) 
-4.3337369

>  <minimizedRMSD>  (1) 
3.01552272

$$$$
