
     RDKit          3D

 30 32  0  0  0  0  0  0  0  0999 V2000
   39.1460   22.3390   35.8300 C   0  0  0  0  0  0  0  0  0  0  0  0
   38.0040   22.7800   36.5240 C   0  0  0  0  0  0  0  0  0  0  0  0
   37.8410   24.1610   36.6490 C   0  0  0  0  0  0  0  0  0  0  0  0
   38.7850   24.9980   36.0990 N   0  0  0  0  0  0  0  0  0  0  0  0
   39.8620   24.5310   35.4430 C   0  0  0  0  0  0  0  0  0  0  0  0
   40.0340   23.1920   35.3130 N   0  0  0  0  0  0  0  0  0  0  0  0
   40.8300   25.3930   34.8830 N   0  0  0  0  0  0  0  0  0  0  0  0
   42.1720   25.3840   34.9550 C   0  0  0  0  0  0  0  0  0  0  0  0
   42.7210   26.4270   34.2540 C   0  0  0  0  0  0  0  0  0  0  0  0
   41.6830   27.1190   33.7190 N   0  0  0  0  0  0  0  0  0  0  0  0
   40.5610   26.4700   34.1190 C   0  0  0  0  0  0  0  0  0  0  0  0
   39.3300   27.0180   33.6690 N   0  0  0  0  0  0  0  0  0  0  0  0
   38.3200   27.3590   34.6870 C   0  0  0  0  0  0  0  0  0  0  0  0
   37.2800   26.2410   34.5140 C   0  0  0  0  0  0  0  0  0  0  0  0
   36.7620   26.2670   33.2390 O   0  0  0  0  0  0  0  0  0  0  0  0
   37.2590   27.2830   32.4500 C   0  0  0  0  0  0  0  0  0  0  0  0
   38.7620   27.3520   32.3730 C   0  0  0  0  0  0  0  0  0  0  0  0
   39.3124   21.2583   35.7096 H   0  0  0  0  0  0  0  0  0  0  0  0
   37.2761   22.0720   36.9469 H   0  0  0  0  0  0  0  0  0  0  0  0
   36.9705   24.5742   37.1795 H   0  0  0  0  0  0  0  0  0  0  0  0
   42.7570   24.6338   35.5072 H   0  0  0  0  0  0  0  0  0  0  0  0
   43.7912   26.6574   34.1465 H   0  0  0  0  0  0  0  0  0  0  0  0
   38.7541   27.3447   35.6976 H   0  0  0  0  0  0  0  0  0  0  0  0
   37.9011   28.3690   34.5669 H   0  0  0  0  0  0  0  0  0  0  0  0
   37.7602   25.2674   34.6913 H   0  0  0  0  0  0  0  0  0  0  0  0
   36.4645   26.3945   35.2360 H   0  0  0  0  0  0  0  0  0  0  0  0
   36.8711   27.1439   31.4301 H   0  0  0  0  0  0  0  0  0  0  0  0
   36.9316   28.2234   32.9173 H   0  0  0  0  0  0  0  0  0  0  0  0
   39.1236   26.6373   31.6191 H   0  0  0  0  0  0  0  0  0  0  0  0
   39.0681   28.3700   32.0901 H   0  0  0  0  0  0  0  0  0  0  0  0
  1  2  2  0
  2  3  1  0
  4  3  2  0
  5  4  1  0
  6  5  2  0
  6  1  1  0
  7  8  1  0
  7  5  1  0
  9  8  2  0
 10 11  2  0
 10  9  1  0
 11  7  1  0
 12 11  1  0
 12 13  1  0
 14 13  1  0
 15 14  1  0
 16 15  1  0
 17 16  1  0
 17 12  1  0
  1 18  1  0
  2 19  1  0
  3 20  1  0
  8 21  1  0
  9 22  1  0
 13 23  1  0
 13 24  1  0
 14 25  1  0
 14 26  1  0
 16 27  1  0
 16 28  1  0
 17 29  1  0
 17 30  1  0
M  ISO  8  18  14  19  14  20  14  21  14  22  14  23  13  24  13  25  13
M  ISO  5  26  13  27  13  28  13  29  13  30  13
M  END
>  <minimizedAffinity>  (1) 
-4.2311058

>  <minimizedRMSD>  (1) 
6.62133408

$$$$
