
     RDKit          3D

 20 21  0  0  0  0  0  0  0  0999 V2000
   40.0150   22.6100   37.3250 C   0  0  0  0  0  0  0  0  0  0  0  0
   39.4590   23.4440   38.3160 C   0  0  0  0  0  0  0  0  0  0  0  0
   38.0960   23.7100   38.2350 C   0  0  0  0  0  0  0  0  0  0  0  0
   37.3610   23.1520   37.2000 N   0  0  0  0  0  0  0  0  0  0  0  0
   37.9550   22.3560   36.2760 C   0  0  0  0  0  0  0  0  0  0  0  0
   39.2840   22.0820   36.3340 N   0  0  0  0  0  0  0  0  0  0  0  0
   37.2040   21.7800   35.2090 N   0  0  0  0  0  0  0  0  0  0  0  0
   37.4350   21.7370   33.8890 C   0  0  0  0  0  0  0  0  0  0  0  0
   36.4060   21.0570   33.2490 C   0  0  0  0  0  0  0  0  0  0  0  0
   35.5170   20.6700   34.2070 N   0  0  0  0  0  0  0  0  0  0  0  0
   36.0370   21.1250   35.3650 C   0  0  0  0  0  0  0  0  0  0  0  0
   35.2690   20.8480   36.6170 C   0  0  0  0  0  0  0  0  0  0  0  0
   41.0907   22.3839   37.3668 H   0  0  0  0  0  0  0  0  0  0  0  0
   40.0778   23.8674   39.1208 H   0  0  0  0  0  0  0  0  0  0  0  0
   37.6081   24.3540   38.9815 H   0  0  0  0  0  0  0  0  0  0  0  0
   38.3100   22.1753   33.3868 H   0  0  0  0  0  0  0  0  0  0  0  0
   36.3240   20.8662   32.1688 H   0  0  0  0  0  0  0  0  0  0  0  0
   35.8978   21.0748   37.4906 H   0  0  0  0  0  0  0  0  0  0  0  0
   34.3673   21.4775   36.6409 H   0  0  0  0  0  0  0  0  0  0  0  0
   34.9767   19.7878   36.6409 H   0  0  0  0  0  0  0  0  0  0  0  0
  1  2  2  0
  3  2  1  0
  4  3  2  0
  5  6  2  0
  5  4  1  0
  6  1  1  0
  7 11  1  0
  7  5  1  0
  8  7  1  0
  9  8  2  0
  9 10  1  0
 10 11  2  0
 11 12  1  0
  1 13  1  0
  2 14  1  0
  3 15  1  0
  8 16  1  0
  9 17  1  0
 12 18  1  0
 12 19  1  0
 12 20  1  0
M  ISO  8  13  14  14  14  15  14  16  14  17  14  18   8  19   8  20   8
M  END
>  <minimizedAffinity>  (1) 
-4.15318966

>  <minimizedRMSD>  (1) 
0.221058294

$$$$
