
     RDKit          3D

 24 26  0  0  0  0  0  0  0  0999 V2000
   39.9850   22.9340   37.9110 C   0  0  0  0  0  0  0  0  0  0  0  0
   38.7340   23.2560   38.5330 C   0  0  0  0  0  0  0  0  0  0  0  0
   37.6480   23.6240   37.7050 C   0  0  0  0  0  0  0  0  0  0  0  0
   37.8900   23.6400   36.3710 N   0  0  0  0  0  0  0  0  0  0  0  0
   39.0530   23.3390   35.7940 C   0  0  0  0  0  0  0  0  0  0  0  0
   40.1180   22.9800   36.5750 N   0  0  0  0  0  0  0  0  0  0  0  0
   39.2390   23.3720   34.3820 N   0  0  0  0  0  0  0  0  0  0  0  0
   40.2160   23.9860   33.6630 C   0  0  0  0  0  0  0  0  0  0  0  0
   40.0190   23.7900   32.3320 C   0  0  0  0  0  0  0  0  0  0  0  0
   38.9240   23.0560   32.2170 N   0  0  0  0  0  0  0  0  0  0  0  0
   38.4390   22.7940   33.4830 C   0  0  0  0  0  0  0  0  0  0  0  0
   37.2430   21.9730   33.5340 C   0  0  0  0  0  0  0  0  0  0  0  0
   36.3030   21.7560   32.5180 C   0  0  0  0  0  0  0  0  0  0  0  0
   35.3050   20.9710   32.8860 N   0  0  0  0  0  0  0  0  0  0  0  0
   35.5290   20.6210   34.1750 C   0  0  0  0  0  0  0  0  0  0  0  0
   36.6730   21.2390   34.4840 N   0  0  0  0  0  0  0  0  0  0  0  0
   40.8447   22.6464   38.5341 H   0  0  0  0  0  0  0  0  0  0  0  0
   38.6217   23.2178   39.6266 H   0  0  0  0  0  0  0  0  0  0  0  0
   36.6626   23.8826   38.1199 H   0  0  0  0  0  0  0  0  0  0  0  0
   41.0481   24.5601   34.0967 H   0  0  0  0  0  0  0  0  0  0  0  0
   40.6469   24.1676   31.5115 H   0  0  0  0  0  0  0  0  0  0  0  0
   36.3871   22.1955   31.5131 H   0  0  0  0  0  0  0  0  0  0  0  0
   34.9120   19.9769   34.8188 H   0  0  0  0  0  0  0  0  0  0  0  0
   37.0952   21.1501   35.4193 H   0  0  0  0  0  0  0  0  0  0  0  0
  1  2  2  0
  3  2  1  0
  4  3  2  0
  5  4  1  0
  5  6  2  0
  6  1  1  0
  7  5  1  0
  8  7  1  0
  9  8  2  0
 10  9  1  0
 10 11  2  0
 11 12  1  0
 11  7  1  0
 12 16  1  0
 13 14  1  0
 13 12  2  0
 14 15  2  0
 15 16  1  0
  1 17  1  0
  2 18  1  0
  3 19  1  0
  8 20  1  0
  9 21  1  0
 13 22  1  0
 15 23  1  0
 16 24  1  0
M  ISO  8  17  14  18  14  19  14  20  14  21  14  22  14  23  14  24   9
M  END
>  <minimizedAffinity>  (1) 
-4.04759979

>  <minimizedRMSD>  (1) 
3.42117476

$$$$
