
     RDKit          3D

 24 26  0  0  0  0  0  0  0  0999 V2000
   40.7460   22.8670   37.0900 C   0  0  0  0  0  0  0  0  0  0  0  0
   39.6870   22.9460   38.0460 C   0  0  0  0  0  0  0  0  0  0  0  0
   38.3930   23.1790   37.5520 C   0  0  0  0  0  0  0  0  0  0  0  0
   38.2320   23.3130   36.2010 N   0  0  0  0  0  0  0  0  0  0  0  0
   39.2440   23.2340   35.3300 C   0  0  0  0  0  0  0  0  0  0  0  0
   40.4880   23.0110   35.7950 N   0  0  0  0  0  0  0  0  0  0  0  0
   39.0670   23.3750   33.9300 N   0  0  0  0  0  0  0  0  0  0  0  0
   39.7290   24.0810   33.0080 C   0  0  0  0  0  0  0  0  0  0  0  0
   39.1870   23.9040   31.7620 C   0  0  0  0  0  0  0  0  0  0  0  0
   38.1500   23.0600   31.8930 N   0  0  0  0  0  0  0  0  0  0  0  0
   38.0900   22.7490   33.2120 C   0  0  0  0  0  0  0  0  0  0  0  0
   37.0940   21.8480   33.7990 C   0  0  0  0  0  0  0  0  0  0  0  0
   36.2400   21.1450   32.9630 C   0  0  0  0  0  0  0  0  0  0  0  0
   35.4150   20.3830   33.7730 C   0  0  0  0  0  0  0  0  0  0  0  0
   35.8150   20.6650   35.0660 C   0  0  0  0  0  0  0  0  0  0  0  0
   36.8030   21.5300   35.0310 O   0  0  0  0  0  0  0  0  0  0  0  0
   41.7773   22.6865   37.4273 H   0  0  0  0  0  0  0  0  0  0  0  0
   39.8771   22.8293   39.1231 H   0  0  0  0  0  0  0  0  0  0  0  0
   37.5326   23.2517   38.2335 H   0  0  0  0  0  0  0  0  0  0  0  0
   40.5972   24.7217   33.2220 H   0  0  0  0  0  0  0  0  0  0  0  0
   39.5363   24.3672   30.8274 H   0  0  0  0  0  0  0  0  0  0  0  0
   36.2214   21.1850   31.8639 H   0  0  0  0  0  0  0  0  0  0  0  0
   34.6133   19.6998   33.4558 H   0  0  0  0  0  0  0  0  0  0  0  0
   35.3762   20.2341   35.9780 H   0  0  0  0  0  0  0  0  0  0  0  0
  1  2  2  0
  3  2  1  0
  4  3  2  0
  5  6  2  0
  5  4  1  0
  6  1  1  0
  7  5  1  0
  8  7  1  0
  9 10  1  0
  9  8  2  0
 10 11  2  0
 11 12  1  0
 11  7  1  0
 12 16  1  0
 13 14  1  0
 13 12  2  0
 14 15  2  0
 16 15  1  0
  1 17  1  0
  2 18  1  0
  3 19  1  0
  8 20  1  0
  9 21  1  0
 13 22  1  0
 14 23  1  0
 15 24  1  0
M  ISO  8  17  14  18  14  19  14  20  14  21  14  22  14  23  14  24  14
M  END
>  <minimizedAffinity>  (1) 
-3.95717359

>  <minimizedRMSD>  (1) 
3.11228037

$$$$
