
     RDKit          3D

 22 24  0  0  0  0  0  0  0  0999 V2000
   41.5560   22.3120   36.5300 C   0  0  0  0  0  0  0  0  0  0  0  0
   40.7670   22.5320   37.7000 C   0  0  0  0  0  0  0  0  0  0  0  0
   39.4250   22.9250   37.5150 C   0  0  0  0  0  0  0  0  0  0  0  0
   38.9500   23.0730   36.2290 N   0  0  0  0  0  0  0  0  0  0  0  0
   39.7440   22.8490   35.1490 C   0  0  0  0  0  0  0  0  0  0  0  0
   41.0210   22.4760   35.3270 N   0  0  0  0  0  0  0  0  0  0  0  0
   39.2410   23.0150   33.8350 N   0  0  0  0  0  0  0  0  0  0  0  0
   39.7850   23.6680   32.7800 C   0  0  0  0  0  0  0  0  0  0  0  0
   38.9240   23.5800   31.6950 C   0  0  0  0  0  0  0  0  0  0  0  0
   37.8530   22.8730   32.0870 N   0  0  0  0  0  0  0  0  0  0  0  0
   38.0690   22.5440   33.3820 C   0  0  0  0  0  0  0  0  0  0  0  0
   37.0660   21.7450   34.1260 C   0  0  0  0  0  0  0  0  0  0  0  0
   36.1430   20.8970   33.6580 N   0  0  0  0  0  0  0  0  0  0  0  0
   35.4620   20.4010   34.6320 O   0  0  0  0  0  0  0  0  0  0  0  0
   35.8740   20.8720   35.7800 C   0  0  0  0  0  0  0  0  0  0  0  0
   36.8690   21.7030   35.4490 N   0  0  0  0  0  0  0  0  0  0  0  0
   42.6083   22.0063   36.6264 H   0  0  0  0  0  0  0  0  0  0  0  0
   41.1897   22.4000   38.7069 H   0  0  0  0  0  0  0  0  0  0  0  0
   38.7704   23.1097   38.3795 H   0  0  0  0  0  0  0  0  0  0  0  0
   40.7554   24.1859   32.7829 H   0  0  0  0  0  0  0  0  0  0  0  0
   39.0893   24.0109   30.6965 H   0  0  0  0  0  0  0  0  0  0  0  0
   35.4914   20.6391   36.7847 H   0  0  0  0  0  0  0  0  0  0  0  0
  1  2  2  0
  3  2  1  0
  4  3  2  0
  5  6  2  0
  5  4  1  0
  6  1  1  0
  7  5  1  0
  8  7  1  0
  9 10  1  0
  9  8  2  0
 10 11  2  0
 11  7  1  0
 11 12  1  0
 12 16  1  0
 13 12  2  0
 13 14  1  0
 14 15  1  0
 16 15  2  0
  1 17  1  0
  2 18  1  0
  3 19  1  0
  8 20  1  0
  9 21  1  0
 15 22  1  0
M  ISO  6  17  14  18  14  19  14  20  14  21  14  22  14
M  END
>  <minimizedAffinity>  (1) 
-3.77469873

>  <minimizedRMSD>  (1) 
2.97099638

$$$$
