
     RDKit          3D

 18 19  0  0  0  0  0  0  0  0999 V2000
   40.1430   22.5920   37.3280 C   0  0  0  0  0  0  0  0  0  0  0  0
   39.5890   23.4470   38.3270 C   0  0  0  0  0  0  0  0  0  0  0  0
   38.2080   23.7330   38.2580 C   0  0  0  0  0  0  0  0  0  0  0  0
   37.4810   23.1720   37.2350 N   0  0  0  0  0  0  0  0  0  0  0  0
   38.0470   22.3670   36.3090 C   0  0  0  0  0  0  0  0  0  0  0  0
   39.3650   22.0950   36.3760 N   0  0  0  0  0  0  0  0  0  0  0  0
   37.2800   21.7960   35.2560 N   0  0  0  0  0  0  0  0  0  0  0  0
   37.5360   21.7350   33.9310 C   0  0  0  0  0  0  0  0  0  0  0  0
   36.4940   21.0790   33.2890 C   0  0  0  0  0  0  0  0  0  0  0  0
   35.5900   20.7380   34.2330 N   0  0  0  0  0  0  0  0  0  0  0  0
   36.0880   21.1820   35.4120 C   0  0  0  0  0  0  0  0  0  0  0  0
   35.1450   20.9030   36.9010 S   0  0  0  0  0  0  0  0  0  0  0  0
   41.2148   22.3453   37.3475 H   0  0  0  0  0  0  0  0  0  0  0  0
   40.2173   23.8696   39.1249 H   0  0  0  0  0  0  0  0  0  0  0  0
   37.7276   24.3860   39.0015 H   0  0  0  0  0  0  0  0  0  0  0  0
   38.4309   22.1418   33.4373 H   0  0  0  0  0  0  0  0  0  0  0  0
   36.4186   20.8747   32.2108 H   0  0  0  0  0  0  0  0  0  0  0  0
   35.9372   21.1374   37.9939 H   0  0  0  0  0  0  0  0  0  0  0  0
  1  2  2  0
  3  2  1  0
  4  3  2  0
  5  6  2  0
  5  4  1  0
  6  1  1  0
  7 11  1  0
  7  5  1  0
  8  7  1  0
  9  8  2  0
  9 10  1  0
 10 11  2  0
 11 12  1  0
  1 13  1  0
  2 14  1  0
  3 15  1  0
  8 16  1  0
  9 17  1  0
 12 18  1  0
M  ISO  6  13  14  14  14  15  14  16  14  17  14  18  11
M  END
>  <minimizedAffinity>  (1) 
-3.74998641

>  <minimizedRMSD>  (1) 
0.317154258

$$$$
