
     RDKit          3D

 26 27  0  0  0  0  0  0  0  0999 V2000
   39.4520   22.7540   37.1960 C   0  0  0  0  0  0  0  0  0  0  0  0
   38.6590   23.9040   37.3740 C   0  0  0  0  0  0  0  0  0  0  0  0
   37.8900   24.3200   36.2740 C   0  0  0  0  0  0  0  0  0  0  0  0
   37.9490   23.6000   35.1110 N   0  0  0  0  0  0  0  0  0  0  0  0
   38.7180   22.5100   34.9860 C   0  0  0  0  0  0  0  0  0  0  0  0
   39.4600   22.1030   36.0370 N   0  0  0  0  0  0  0  0  0  0  0  0
   38.7700   21.7730   33.7750 N   0  0  0  0  0  0  0  0  0  0  0  0
   39.8270   21.2990   33.0830 C   0  0  0  0  0  0  0  0  0  0  0  0
   39.4100   20.6350   31.9540 C   0  0  0  0  0  0  0  0  0  0  0  0
   38.0520   20.6910   31.9320 N   0  0  0  0  0  0  0  0  0  0  0  0
   37.7120   21.3820   33.0410 C   0  0  0  0  0  0  0  0  0  0  0  0
   36.2600   21.6120   33.2950 C   0  0  0  0  0  0  0  0  0  0  0  0
   35.5250   21.8800   31.9970 C   0  0  0  0  0  0  0  0  0  0  0  0
   35.6520   20.4080   34.0230 C   0  0  0  0  0  0  0  0  0  0  0  0
   40.0733   22.3894   38.0273 H   0  0  0  0  0  0  0  0  0  0  0  0
   38.6424   24.4505   38.3285 H   0  0  0  0  0  0  0  0  0  0  0  0
   37.2497   25.2115   36.3463 H   0  0  0  0  0  0  0  0  0  0  0  0
   40.8781   21.4265   33.3814 H   0  0  0  0  0  0  0  0  0  0  0  0
   40.0551   20.1488   31.2073 H   0  0  0  0  0  0  0  0  0  0  0  0
   36.1535   22.4991   33.9366 H   0  0  0  0  0  0  0  0  0  0  0  0
   34.5127   22.2491   32.2183 H   0  0  0  0  0  0  0  0  0  0  0  0
   36.0721   22.6365   31.4153 H   0  0  0  0  0  0  0  0  0  0  0  0
   35.4567   20.9489   31.4153 H   0  0  0  0  0  0  0  0  0  0  0  0
   35.7286   20.5597   35.1098 H   0  0  0  0  0  0  0  0  0  0  0  0
   34.5938   20.3050   33.7408 H   0  0  0  0  0  0  0  0  0  0  0  0
   36.1973   19.4953   33.7408 H   0  0  0  0  0  0  0  0  0  0  0  0
  1  2  2  0
  3  2  1  0
  4  3  2  0
  5  4  1  0
  5  6  2  0
  6  1  1  0
  7  5  1  0
  8  7  1  0
  9  8  2  0
 10  9  1  0
 10 11  2  0
 11 12  1  0
 11  7  1  0
 12 14  1  0
 13 12  1  0
  1 15  1  0
  2 16  1  0
  3 17  1  0
  8 18  1  0
  9 19  1  0
 12 20  1  0
 13 21  1  0
 13 22  1  0
 13 23  1  0
 14 24  1  0
 14 25  1  0
 14 26  1  0
M  ISO  8  15  14  16  14  17  14  18  14  19  14  20   8  21   8  22   8
M  ISO  4  23   8  24   8  25   8  26   8
M  END
>  <minimizedAffinity>  (1) 
-3.64421463

>  <minimizedRMSD>  (1) 
2.79725623

$$$$
