
     RDKit          3D

 38 42  0  0  0  0  0  0  0  0999 V2000
   39.3960   23.3470   38.5340 C   0  0  0  0  0  0  0  0  0  0  0  0
   38.1190   23.9530   38.6430 C   0  0  0  0  0  0  0  0  0  0  0  0
   37.3840   24.1130   37.4510 C   0  0  0  0  0  0  0  0  0  0  0  0
   37.9240   23.6830   36.2540 N   0  0  0  0  0  0  0  0  0  0  0  0
   39.1620   23.1050   36.2230 C   0  0  0  0  0  0  0  0  0  0  0  0
   39.8640   22.9520   37.3520 N   0  0  0  0  0  0  0  0  0  0  0  0
   39.7080   22.6470   35.0100 N   0  0  0  0  0  0  0  0  0  0  0  0
   40.9410   22.8120   34.4790 C   0  0  0  0  0  0  0  0  0  0  0  0
   41.0480   22.1950   33.2570 C   0  0  0  0  0  0  0  0  0  0  0  0
   39.8340   21.6200   33.0120 N   0  0  0  0  0  0  0  0  0  0  0  0
   39.0620   21.9130   34.0820 C   0  0  0  0  0  0  0  0  0  0  0  0
   37.7170   21.4440   34.0720 N   0  0  0  0  0  0  0  0  0  0  0  0
   37.0490   21.4410   35.2740 C   0  0  0  0  0  0  0  0  0  0  0  0
   35.7660   21.0130   34.9350 C   0  0  0  0  0  0  0  0  0  0  0  0
   35.6890   20.7660   33.5770 N   0  0  0  0  0  0  0  0  0  0  0  0
   36.9030   21.0320   33.0330 C   0  0  0  0  0  0  0  0  0  0  0  0
   37.4290   20.9660   31.7120 N   0  0  0  0  0  0  0  0  0  0  0  0
   38.1250   21.8960   31.0100 C   0  0  0  0  0  0  0  0  0  0  0  0
   38.4020   21.3650   29.8060 N   0  0  0  0  0  0  0  0  0  0  0  0
   37.8820   20.1050   29.7500 C   0  0  0  0  0  0  0  0  0  0  0  0
   37.8700   19.1190   28.7650 C   0  0  0  0  0  0  0  0  0  0  0  0
   38.4320   19.3410   27.6550 O   0  0  0  0  0  0  0  0  0  0  0  0
   37.2630   17.9410   28.9980 N   0  0  0  0  0  0  0  0  0  0  0  0
   36.6610   17.7180   30.2010 C   0  0  0  0  0  0  0  0  0  0  0  0
   36.0150   16.4530   30.4400 N   0  0  0  0  0  0  0  0  0  0  0  0
   36.6580   18.6580   31.1740 N   0  0  0  0  0  0  0  0  0  0  0  0
   37.2680   19.8470   30.9470 C   0  0  0  0  0  0  0  0  0  0  0  0
   40.0074   23.2015   39.4368 H   0  0  0  0  0  0  0  0  0  0  0  0
   37.7200   24.2832   39.6134 H   0  0  0  0  0  0  0  0  0  0  0  0
   36.3870   24.5772   37.4735 H   0  0  0  0  0  0  0  0  0  0  0  0
   41.7551   23.3699   34.9647 H   0  0  0  0  0  0  0  0  0  0  0  0
   41.9342   22.1691   32.6059 H   0  0  0  0  0  0  0  0  0  0  0  0
   37.4353   21.7121   36.2676 H   0  0  0  0  0  0  0  0  0  0  0  0
   34.9352   20.8897   35.6454 H   0  0  0  0  0  0  0  0  0  0  0  0
   38.4099   22.8988   31.3611 H   0  0  0  0  0  0  0  0  0  0  0  0
   37.2531   17.2112   28.2712 H   0  0  0  0  0  0  0  0  0  0  0  0
   35.5565   16.2716   31.3443 H   0  0  0  0  0  0  0  0  0  0  0  0
   36.0115   15.7298   29.7066 H   0  0  0  0  0  0  0  0  0  0  0  0
  1  2  2  0
  3  2  1  0
  4  3  2  0
  5  4  1  0
  5  6  2  0
  6  1  1  0
  7  5  1  0
  8  7  1  0
  9  8  2  0
 10  9  1  0
 10 11  2  0
 11  7  1  0
 12 11  1  0
 12 13  1  0
 14 13  2  0
 15 14  1  0
 16 15  2  0
 16 12  1  0
 17 16  1  0
 18 17  1  0
 19 18  2  0
 20 19  1  0
 20 27  2  0
 21 23  1  0
 21 20  1  0
 22 21  2  0
 23 24  1  0
 24 25  1  0
 24 26  2  0
 27 26  1  0
 27 17  1  0
  1 28  1  0
  2 29  1  0
  3 30  1  0
  8 31  1  0
  9 32  1  0
 13 33  1  0
 14 34  1  0
 18 35  1  0
 23 36  1  0
 25 37  1  0
 25 38  1  0
M  ISO  8  28  14  29  14  30  14  31  14  32  14  33  14  34  14  35  14
M  ISO  1  36   9
M  END
>  <minimizedAffinity>  (1) 
-5.53924799

>  <minimizedRMSD>  (1) 
1.17494559

$$$$
