
     RDKit          3D

 38 42  0  0  0  0  0  0  0  0999 V2000
   39.0720   23.2350   38.4400 C   0  0  0  0  0  0  0  0  0  0  0  0
   37.8990   23.9710   38.2490 C   0  0  0  0  0  0  0  0  0  0  0  0
   37.5140   24.2360   36.9180 C   0  0  0  0  0  0  0  0  0  0  0  0
   38.2960   23.7680   35.8840 N   0  0  0  0  0  0  0  0  0  0  0  0
   39.4330   23.0540   36.1370 C   0  0  0  0  0  0  0  0  0  0  0  0
   39.7930   22.8050   37.4060 N   0  0  0  0  0  0  0  0  0  0  0  0
   40.2240   22.5570   35.0640 N   0  0  0  0  0  0  0  0  0  0  0  0
   41.5550   22.6210   34.8850 C   0  0  0  0  0  0  0  0  0  0  0  0
   41.9110   22.0230   33.7110 C   0  0  0  0  0  0  0  0  0  0  0  0
   40.7580   21.5790   33.1530 N   0  0  0  0  0  0  0  0  0  0  0  0
   39.7580   21.9050   33.9750 C   0  0  0  0  0  0  0  0  0  0  0  0
   38.4220   21.5820   33.6290 N   0  0  0  0  0  0  0  0  0  0  0  0
   37.4760   21.6560   34.6040 C   0  0  0  0  0  0  0  0  0  0  0  0
   36.2800   21.3800   33.9340 C   0  0  0  0  0  0  0  0  0  0  0  0
   36.5360   21.1450   32.5970 N   0  0  0  0  0  0  0  0  0  0  0  0
   37.8770   21.2680   32.4010 C   0  0  0  0  0  0  0  0  0  0  0  0
   38.4460   21.1200   31.0930 C   0  0  0  0  0  0  0  0  0  0  0  0
   38.8950   20.1520   30.2410 C   0  0  0  0  0  0  0  0  0  0  0  0
   39.4380   20.5700   29.1110 N   0  0  0  0  0  0  0  0  0  0  0  0
   39.3890   21.9100   29.1260 C   0  0  0  0  0  0  0  0  0  0  0  0
   39.8120   22.8420   28.2060 C   0  0  0  0  0  0  0  0  0  0  0  0
   39.6500   24.1870   28.4510 C   0  0  0  0  0  0  0  0  0  0  0  0
   39.0670   24.5850   29.6110 C   0  0  0  0  0  0  0  0  0  0  0  0
   38.6570   23.6260   30.5030 C   0  0  0  0  0  0  0  0  0  0  0  0
   38.7920   22.2450   30.3160 C   0  0  0  0  0  0  0  0  0  0  0  0
   39.4057   23.0068   39.4630 H   0  0  0  0  0  0  0  0  0  0  0  0
   37.3014   24.3284   39.1006 H   0  0  0  0  0  0  0  0  0  0  0  0
   36.5995   24.8100   36.7076 H   0  0  0  0  0  0  0  0  0  0  0  0
   42.2594   23.0903   35.5875 H   0  0  0  0  0  0  0  0  0  0  0  0
   42.9267   21.9219   33.3010 H   0  0  0  0  0  0  0  0  0  0  0  0
   37.6188   21.8807   35.6713 H   0  0  0  0  0  0  0  0  0  0  0  0
   35.2846   21.3539   34.4015 H   0  0  0  0  0  0  0  0  0  0  0  0
   38.8094   19.0822   30.4822 H   0  0  0  0  0  0  0  0  0  0  0  0
   39.8251   19.9790   28.3615 H   0  0  0  0  0  0  0  0  0  0  0  0
   40.2826   22.5101   27.2688 H   0  0  0  0  0  0  0  0  0  0  0  0
   39.9891   24.9310   27.7152 H   0  0  0  0  0  0  0  0  0  0  0  0
   38.9263   25.6535   29.8311 H   0  0  0  0  0  0  0  0  0  0  0  0
   38.1863   23.9685   31.4363 H   0  0  0  0  0  0  0  0  0  0  0  0
  2  1  2  0
  3  2  1  0
  4  5  1  0
  4  3  2  0
  5  6  2  0
  6  1  1  0
  7  5  1  0
  8  7  1  0
  9  8  2  0
 10  9  1  0
 10 11  2  0
 11  7  1  0
 12 11  1  0
 12 13  1  0
 14 13  2  0
 15 14  1  0
 16 15  2  0
 16 12  1  0
 17 16  1  0
 18 17  2  0
 19 20  1  0
 19 18  1  0
 20 25  2  0
 21 22  2  0
 21 20  1  0
 22 23  1  0
 23 24  2  0
 25 24  1  0
 25 17  1  0
  1 26  1  0
  2 27  1  0
  3 28  1  0
  8 29  1  0
  9 30  1  0
 13 31  1  0
 14 32  1  0
 18 33  1  0
 19 34  1  0
 21 35  1  0
 22 36  1  0
 23 37  1  0
 24 38  1  0
M  ISO  8  26  14  27  14  28  14  29  14  30  14  31  14  32  14  33  14
M  ISO  5  34   9  35  14  36  14  37  14  38  14
M  END
>  <minimizedAffinity>  (1) 
-4.89377117

>  <minimizedRMSD>  (1) 
1.80729067

$$$$
