
     RDKit          3D

 33 35  0  0  0  0  0  0  0  0999 V2000
   39.8050   23.0690   38.2520 C   0  0  0  0  0  0  0  0  0  0  0  0
   38.5430   23.4790   38.6940 C   0  0  0  0  0  0  0  0  0  0  0  0
   37.5620   23.7270   37.7110 C   0  0  0  0  0  0  0  0  0  0  0  0
   37.8830   23.5600   36.3780 N   0  0  0  0  0  0  0  0  0  0  0  0
   39.1340   23.1560   36.0130 C   0  0  0  0  0  0  0  0  0  0  0  0
   40.0730   22.9180   36.9500 N   0  0  0  0  0  0  0  0  0  0  0  0
   39.4480   22.9640   34.6400 N   0  0  0  0  0  0  0  0  0  0  0  0
   40.5180   23.3820   33.9380 C   0  0  0  0  0  0  0  0  0  0  0  0
   40.4220   22.9830   32.6320 C   0  0  0  0  0  0  0  0  0  0  0  0
   39.2550   22.2960   32.5280 N   0  0  0  0  0  0  0  0  0  0  0  0
   38.6910   22.3000   33.7440 C   0  0  0  0  0  0  0  0  0  0  0  0
   37.4400   21.6620   33.9230 N   0  0  0  0  0  0  0  0  0  0  0  0
   37.0490   21.3900   35.2100 C   0  0  0  0  0  0  0  0  0  0  0  0
   35.7750   20.8350   35.0680 C   0  0  0  0  0  0  0  0  0  0  0  0
   35.4360   20.7790   33.7210 N   0  0  0  0  0  0  0  0  0  0  0  0
   36.4700   21.2910   33.0120 C   0  0  0  0  0  0  0  0  0  0  0  0
   36.5520   21.4360   31.5470 C   0  0  0  0  0  0  0  0  0  0  0  0
   35.9520   20.2270   30.8310 C   0  0  0  0  0  0  0  0  0  0  0  0
   35.5970   22.5910   31.1990 C   0  0  0  0  0  0  0  0  0  0  0  0
   40.5943   22.8663   38.9909 H   0  0  0  0  0  0  0  0  0  0  0  0
   38.3242   23.6031   39.7649 H   0  0  0  0  0  0  0  0  0  0  0  0
   36.5519   24.0500   38.0031 H   0  0  0  0  0  0  0  0  0  0  0  0
   41.3532   23.9633   34.3557 H   0  0  0  0  0  0  0  0  0  0  0  0
   41.1457   23.1796   31.8273 H   0  0  0  0  0  0  0  0  0  0  0  0
   37.6097   21.5680   36.1395 H   0  0  0  0  0  0  0  0  0  0  0  0
   35.1368   20.4940   35.8965 H   0  0  0  0  0  0  0  0  0  0  0  0
   37.6032   21.5726   31.2532 H   0  0  0  0  0  0  0  0  0  0  0  0
   35.5920   19.5015   31.5753 H   0  0  0  0  0  0  0  0  0  0  0  0
   35.1115   20.5538   30.2011 H   0  0  0  0  0  0  0  0  0  0  0  0
   36.7206   19.7553   30.2011 H   0  0  0  0  0  0  0  0  0  0  0  0
   35.2199   23.0470   32.1263 H   0  0  0  0  0  0  0  0  0  0  0  0
   36.1363   23.3482   30.6110 H   0  0  0  0  0  0  0  0  0  0  0  0
   34.7520   22.2035   30.6110 H   0  0  0  0  0  0  0  0  0  0  0  0
  1  2  2  0
  3  2  1  0
  4  3  2  0
  5  4  1  0
  5  6  2  0
  6  1  1  0
  7  5  1  0
  8  7  1  0
  9  8  2  0
 10  9  1  0
 10 11  2  0
 11 12  1  0
 11  7  1  0
 12 13  1  0
 14 13  2  0
 15 14  1  0
 16 15  2  0
 16 12  1  0
 17 16  1  0
 18 17  1  0
 19 17  1  0
  1 20  1  0
  2 21  1  0
  3 22  1  0
  8 23  1  0
  9 24  1  0
 13 25  1  0
 14 26  1  0
 17 27  1  0
 18 28  1  0
 18 29  1  0
 18 30  1  0
 19 31  1  0
 19 32  1  0
 19 33  1  0
M  ISO  8  20  14  21  14  22  14  23  14  24  14  25  14  26  14  27   8
M  ISO  6  28   8  29   8  30   8  31   8  32   8  33   8
M  END
>  <minimizedAffinity>  (1) 
-4.87396383

>  <minimizedRMSD>  (1) 
0.577788234

$$$$
