
     RDKit          3D

 38 41  0  0  0  0  0  0  0  0999 V2000
   39.5250   23.2350   38.4070 C   0  0  0  0  0  0  0  0  0  0  0  0
   38.2680   23.8620   38.5840 C   0  0  0  0  0  0  0  0  0  0  0  0
   37.4600   24.0340   37.4420 C   0  0  0  0  0  0  0  0  0  0  0  0
   37.9190   23.5930   36.2180 N   0  0  0  0  0  0  0  0  0  0  0  0
   39.1310   22.9960   36.1030 C   0  0  0  0  0  0  0  0  0  0  0  0
   39.9030   22.8330   37.1980 N   0  0  0  0  0  0  0  0  0  0  0  0
   39.5970   22.5210   34.8690 N   0  0  0  0  0  0  0  0  0  0  0  0
   40.7970   22.6570   34.2560 C   0  0  0  0  0  0  0  0  0  0  0  0
   40.8180   22.0240   33.0470 C   0  0  0  0  0  0  0  0  0  0  0  0
   39.5960   21.4630   32.8790 N   0  0  0  0  0  0  0  0  0  0  0  0
   38.8880   21.7790   33.9870 C   0  0  0  0  0  0  0  0  0  0  0  0
   37.5260   21.3400   34.0720 N   0  0  0  0  0  0  0  0  0  0  0  0
   36.9390   21.3670   35.3010 C   0  0  0  0  0  0  0  0  0  0  0  0
   35.6280   20.9670   35.0490 C   0  0  0  0  0  0  0  0  0  0  0  0
   35.4540   20.7060   33.6930 N   0  0  0  0  0  0  0  0  0  0  0  0
   36.6490   20.9400   33.0830 C   0  0  0  0  0  0  0  0  0  0  0  0
   37.0830   20.8370   31.7370 N   0  0  0  0  0  0  0  0  0  0  0  0
   37.9330   21.9820   31.4680 C   0  0  0  0  0  0  0  0  0  0  0  0
   38.5560   21.9640   30.0980 C   0  0  0  0  0  0  0  0  0  0  0  0
   38.8860   20.5740   29.8090 N   0  0  0  0  0  0  0  0  0  0  0  0
   37.6510   19.8610   29.5610 C   0  0  0  0  0  0  0  0  0  0  0  0
   36.7640   19.8030   30.7760 C   0  0  0  0  0  0  0  0  0  0  0  0
   40.1889   23.0806   39.2704 H   0  0  0  0  0  0  0  0  0  0  0  0
   37.9345   24.2021   39.5755 H   0  0  0  0  0  0  0  0  0  0  0  0
   36.4741   24.5146   37.5258 H   0  0  0  0  0  0  0  0  0  0  0  0
   41.6488   23.2090   34.6798 H   0  0  0  0  0  0  0  0  0  0  0  0
   41.6634   21.9781   32.3448 H   0  0  0  0  0  0  0  0  0  0  0  0
   37.3928   21.6401   36.2651 H   0  0  0  0  0  0  0  0  0  0  0  0
   34.8425   20.8712   35.8131 H   0  0  0  0  0  0  0  0  0  0  0  0
   37.3262   22.8947   31.5617 H   0  0  0  0  0  0  0  0  0  0  0  0
   38.7567   21.9493   32.1963 H   0  0  0  0  0  0  0  0  0  0  0  0
   37.8444   22.3481   29.3523 H   0  0  0  0  0  0  0  0  0  0  0  0
   39.4524   22.6005   30.0614 H   0  0  0  0  0  0  0  0  0  0  0  0
   39.4909   20.5245   28.9768 H   0  0  0  0  0  0  0  0  0  0  0  0
   37.1070   20.3691   28.7512 H   0  0  0  0  0  0  0  0  0  0  0  0
   37.9111   18.8277   29.2878 H   0  0  0  0  0  0  0  0  0  0  0  0
   35.7184   19.9263   30.4572 H   0  0  0  0  0  0  0  0  0  0  0  0
   36.9225   18.8295   31.2630 H   0  0  0  0  0  0  0  0  0  0  0  0
  1  2  2  0
  3  2  1  0
  4  3  2  0
  5  4  1  0
  5  6  2  0
  6  1  1  0
  7  5  1  0
  8  7  1  0
  9  8  2  0
 10  9  1  0
 10 11  2  0
 11 12  1  0
 11  7  1  0
 12 13  1  0
 14 13  2  0
 15 14  1  0
 16 15  2  0
 16 12  1  0
 17 16  1  0
 18 17  1  0
 19 18  1  0
 20 19  1  0
 21 20  1  0
 21 22  1  0
 22 17  1  0
  1 23  1  0
  2 24  1  0
  3 25  1  0
  8 26  1  0
  9 27  1  0
 13 28  1  0
 14 29  1  0
 18 30  1  0
 18 31  1  0
 19 32  1  0
 19 33  1  0
 20 34  1  0
 21 35  1  0
 21 36  1  0
 22 37  1  0
 22 38  1  0
M  ISO  8  23  14  24  14  25  14  26  14  27  14  28  14  29  14  30  13
M  ISO  8  31  13  32  13  33  13  34   5  35  13  36  13  37  13  38  13
M  END
>  <minimizedAffinity>  (1) 
-4.78673983

>  <minimizedRMSD>  (1) 
0.903225005

$$$$
