
     RDKit          3D

 40 43  0  0  0  0  0  0  0  0999 V2000
   39.6100   23.0180   38.2100 C   0  0  0  0  0  0  0  0  0  0  0  0
   38.2720   23.4250   38.4440 C   0  0  0  0  0  0  0  0  0  0  0  0
   37.5000   23.7820   37.3210 C   0  0  0  0  0  0  0  0  0  0  0  0
   38.0690   23.7210   36.0660 N   0  0  0  0  0  0  0  0  0  0  0  0
   39.3430   23.3280   35.9020 C   0  0  0  0  0  0  0  0  0  0  0  0
   40.1000   22.9810   36.9740 N   0  0  0  0  0  0  0  0  0  0  0  0
   39.9340   23.2310   34.6110 N   0  0  0  0  0  0  0  0  0  0  0  0
   41.1330   23.6510   34.1630 C   0  0  0  0  0  0  0  0  0  0  0  0
   41.3120   23.3390   32.8470 C   0  0  0  0  0  0  0  0  0  0  0  0
   40.1770   22.6990   32.4550 N   0  0  0  0  0  0  0  0  0  0  0  0
   39.3680   22.6460   33.5260 C   0  0  0  0  0  0  0  0  0  0  0  0
   38.0820   22.0600   33.4020 N   0  0  0  0  0  0  0  0  0  0  0  0
   37.4370   21.7040   34.5530 C   0  0  0  0  0  0  0  0  0  0  0  0
   36.1980   21.2380   34.1080 C   0  0  0  0  0  0  0  0  0  0  0  0
   36.1320   21.3180   32.7260 N   0  0  0  0  0  0  0  0  0  0  0  0
   37.3070   21.8300   32.2820 C   0  0  0  0  0  0  0  0  0  0  0  0
   37.6920   22.0980   30.8830 C   0  0  0  0  0  0  0  0  0  0  0  0
   38.1470   23.5410   30.8420 C   0  0  0  0  0  0  0  0  0  0  0  0
   38.7720   23.9070   29.5190 C   0  0  0  0  0  0  0  0  0  0  0  0
   39.9030   22.9810   29.1470 C   0  0  0  0  0  0  0  0  0  0  0  0
   39.3800   21.5690   29.1750 C   0  0  0  0  0  0  0  0  0  0  0  0
   38.9500   21.2660   30.6010 C   0  0  0  0  0  0  0  0  0  0  0  0
   40.2485   22.7303   39.0583 H   0  0  0  0  0  0  0  0  0  0  0  0
   37.8539   23.4605   39.4608 H   0  0  0  0  0  0  0  0  0  0  0  0
   36.4558   24.1056   37.4435 H   0  0  0  0  0  0  0  0  0  0  0  0
   41.8745   24.1791   34.7806 H   0  0  0  0  0  0  0  0  0  0  0  0
   42.1945   23.5599   32.2286 H   0  0  0  0  0  0  0  0  0  0  0  0
   37.8068   21.7692   35.5869 H   0  0  0  0  0  0  0  0  0  0  0  0
   35.3937   20.8630   34.7580 H   0  0  0  0  0  0  0  0  0  0  0  0
   36.8737   21.8795   30.1811 H   0  0  0  0  0  0  0  0  0  0  0  0
   37.2766   24.1913   31.0140 H   0  0  0  0  0  0  0  0  0  0  0  0
   38.9098   23.6756   31.6231 H   0  0  0  0  0  0  0  0  0  0  0  0
   38.0005   23.8558   28.7366 H   0  0  0  0  0  0  0  0  0  0  0  0
   39.1837   24.9230   29.6098 H   0  0  0  0  0  0  0  0  0  0  0  0
   40.7257   23.0883   29.8693 H   0  0  0  0  0  0  0  0  0  0  0  0
   40.2828   23.2269   28.1444 H   0  0  0  0  0  0  0  0  0  0  0  0
   38.5200   21.4741   28.4958 H   0  0  0  0  0  0  0  0  0  0  0  0
   40.1572   20.8628   28.8477 H   0  0  0  0  0  0  0  0  0  0  0  0
   38.7246   20.1946   30.7069 H   0  0  0  0  0  0  0  0  0  0  0  0
   39.7512   21.5170   31.3117 H   0  0  0  0  0  0  0  0  0  0  0  0
  1  2  2  0
  3  2  1  0
  4  3  2  0
  5  4  1  0
  5  6  2  0
  6  1  1  0
  7  5  1  0
  8  7  1  0
  9  8  2  0
 10  9  1  0
 10 11  2  0
 11  7  1  0
 12 11  1  0
 12 13  1  0
 14 13  2  0
 15 14  1  0
 16 15  2  0
 16 12  1  0
 17 16  1  0
 18 17  1  0
 19 18  1  0
 20 21  1  0
 20 19  1  0
 21 22  1  0
 22 17  1  0
  1 23  1  0
  2 24  1  0
  3 25  1  0
  8 26  1  0
  9 27  1  0
 13 28  1  0
 14 29  1  0
 17 30  1  0
 18 31  1  0
 18 32  1  0
 19 33  1  0
 19 34  1  0
 20 35  1  0
 20 36  1  0
 21 37  1  0
 21 38  1  0
 22 39  1  0
 22 40  1  0
M  ISO  8  23  14  24  14  25  14  26  14  27  14  28  14  29  14  30  13
M  ISO  8  31  13  32  13  33  13  34  13  35  13  36  13  37  13  38  13
M  ISO  2  39  13  40  13
M  END
>  <minimizedAffinity>  (1) 
-4.57850599

>  <minimizedRMSD>  (1) 
1.61315167

$$$$
