
     RDKit          3D

 31 34  0  0  0  0  0  0  0  0999 V2000
   39.4770   23.0900   38.2560 C   0  0  0  0  0  0  0  0  0  0  0  0
   38.1090   23.4300   38.3910 C   0  0  0  0  0  0  0  0  0  0  0  0
   37.4140   23.8140   37.2260 C   0  0  0  0  0  0  0  0  0  0  0  0
   38.0830   23.8440   36.0160 N   0  0  0  0  0  0  0  0  0  0  0  0
   39.3840   23.5090   35.9440 C   0  0  0  0  0  0  0  0  0  0  0  0
   40.0560   23.1400   37.0630 N   0  0  0  0  0  0  0  0  0  0  0  0
   40.0850   23.5040   34.7240 N   0  0  0  0  0  0  0  0  0  0  0  0
   41.3030   23.9870   34.3860 C   0  0  0  0  0  0  0  0  0  0  0  0
   41.5900   23.7540   33.0640 C   0  0  0  0  0  0  0  0  0  0  0  0
   40.5160   23.1020   32.5550 N   0  0  0  0  0  0  0  0  0  0  0  0
   39.6340   22.9680   33.5700 C   0  0  0  0  0  0  0  0  0  0  0  0
   38.3880   22.3320   33.2890 N   0  0  0  0  0  0  0  0  0  0  0  0
   37.6820   21.8640   34.3720 C   0  0  0  0  0  0  0  0  0  0  0  0
   36.5040   21.3590   33.8010 C   0  0  0  0  0  0  0  0  0  0  0  0
   36.5340   21.5280   32.4270 N   0  0  0  0  0  0  0  0  0  0  0  0
   37.7070   22.1330   32.1060 C   0  0  0  0  0  0  0  0  0  0  0  0
   38.3110   22.5610   30.8940 N   0  0  0  0  0  0  0  0  0  0  0  0
   38.3830   23.8480   30.5010 C   0  0  0  0  0  0  0  0  0  0  0  0
   39.0460   23.8200   29.2710 C   0  0  0  0  0  0  0  0  0  0  0  0
   39.3660   22.5390   28.9330 N   0  0  0  0  0  0  0  0  0  0  0  0
   38.9030   21.7780   29.9480 C   0  0  0  0  0  0  0  0  0  0  0  0
   40.0586   22.7850   39.1384 H   0  0  0  0  0  0  0  0  0  0  0  0
   37.6069   23.3958   39.3691 H   0  0  0  0  0  0  0  0  0  0  0  0
   36.3498   24.0871   37.2790 H   0  0  0  0  0  0  0  0  0  0  0  0
   41.9792   24.5024   35.0840 H   0  0  0  0  0  0  0  0  0  0  0  0
   42.5064   24.0388   32.5263 H   0  0  0  0  0  0  0  0  0  0  0  0
   37.9716   21.8813   35.4331 H   0  0  0  0  0  0  0  0  0  0  0  0
   35.6784   20.8970   34.3621 H   0  0  0  0  0  0  0  0  0  0  0  0
   38.0016   24.7314   31.0341 H   0  0  0  0  0  0  0  0  0  0  0  0
   39.2769   24.7064   28.6619 H   0  0  0  0  0  0  0  0  0  0  0  0
   38.9910   20.6829   30.0035 H   0  0  0  0  0  0  0  0  0  0  0  0
  1  2  2  0
  3  2  1  0
  4  3  2  0
  5  4  1  0
  5  6  2  0
  6  1  1  0
  7  5  1  0
  8  7  1  0
  9  8  2  0
 10  9  1  0
 10 11  2  0
 11  7  1  0
 12 11  1  0
 12 13  1  0
 14 13  2  0
 15 14  1  0
 16 15  2  0
 16 12  1  0
 17 16  1  0
 18 17  1  0
 19 18  2  0
 20 19  1  0
 20 21  2  0
 21 17  1  0
  1 22  1  0
  2 23  1  0
  3 24  1  0
  8 25  1  0
  9 26  1  0
 13 27  1  0
 14 28  1  0
 18 29  1  0
 19 30  1  0
 21 31  1  0
M  ISO  8  22  14  23  14  24  14  25  14  26  14  27  14  28  14  29  14
M  ISO  2  30  14  31  14
M  END
>  <minimizedAffinity>  (1) 
-4.56221533

>  <minimizedRMSD>  (1) 
1.68042076

$$$$
