
     RDKit          3D

 31 34  0  0  0  0  0  0  0  0999 V2000
   39.3990   23.0810   38.1830 C   0  0  0  0  0  0  0  0  0  0  0  0
   38.0520   23.4570   38.2850 C   0  0  0  0  0  0  0  0  0  0  0  0
   37.4020   23.8470   37.0930 C   0  0  0  0  0  0  0  0  0  0  0  0
   38.1080   23.8390   35.9090 N   0  0  0  0  0  0  0  0  0  0  0  0
   39.4200   23.4610   35.8720 C   0  0  0  0  0  0  0  0  0  0  0  0
   40.0280   23.0930   37.0090 N   0  0  0  0  0  0  0  0  0  0  0  0
   40.1180   23.4470   34.6550 N   0  0  0  0  0  0  0  0  0  0  0  0
   41.3390   23.9450   34.3500 C   0  0  0  0  0  0  0  0  0  0  0  0
   41.6260   23.7230   33.0350 C   0  0  0  0  0  0  0  0  0  0  0  0
   40.5750   23.0740   32.4950 N   0  0  0  0  0  0  0  0  0  0  0  0
   39.6810   22.9210   33.4940 C   0  0  0  0  0  0  0  0  0  0  0  0
   38.4400   22.2890   33.2030 N   0  0  0  0  0  0  0  0  0  0  0  0
   37.6850   21.8630   34.2700 C   0  0  0  0  0  0  0  0  0  0  0  0
   36.5200   21.3660   33.6790 C   0  0  0  0  0  0  0  0  0  0  0  0
   36.6030   21.4960   32.3040 N   0  0  0  0  0  0  0  0  0  0  0  0
   37.7910   22.0650   32.0010 C   0  0  0  0  0  0  0  0  0  0  0  0
   38.4440   22.4480   30.7580 C   0  0  0  0  0  0  0  0  0  0  0  0
   39.1730   21.6880   29.8650 C   0  0  0  0  0  0  0  0  0  0  0  0
   39.5370   22.5850   28.8850 C   0  0  0  0  0  0  0  0  0  0  0  0
   39.0370   23.8350   29.1920 C   0  0  0  0  0  0  0  0  0  0  0  0
   38.3870   23.6750   30.3400 O   0  0  0  0  0  0  0  0  0  0  0  0
   39.9447   22.7713   39.0865 H   0  0  0  0  0  0  0  0  0  0  0  0
   37.5248   23.4486   39.2504 H   0  0  0  0  0  0  0  0  0  0  0  0
   36.3456   24.1533   37.1094 H   0  0  0  0  0  0  0  0  0  0  0  0
   42.0049   24.4559   35.0610 H   0  0  0  0  0  0  0  0  0  0  0  0
   42.5467   24.0194   32.5110 H   0  0  0  0  0  0  0  0  0  0  0  0
   37.9387   21.9038   35.3396 H   0  0  0  0  0  0  0  0  0  0  0  0
   35.6666   20.9366   34.2243 H   0  0  0  0  0  0  0  0  0  0  0  0
   39.4085   20.6151   29.9228 H   0  0  0  0  0  0  0  0  0  0  0  0
   40.1347   22.3426   27.9939 H   0  0  0  0  0  0  0  0  0  0  0  0
   39.1519   24.7625   28.6119 H   0  0  0  0  0  0  0  0  0  0  0  0
  1  2  2  0
  3  2  1  0
  4  3  2  0
  5  4  1  0
  5  6  2  0
  6  1  1  0
  7  5  1  0
  8  7  1  0
  9  8  2  0
 10  9  1  0
 10 11  2  0
 11  7  1  0
 12 11  1  0
 12 13  1  0
 14 13  2  0
 15 14  1  0
 16 15  2  0
 16 12  1  0
 17 16  1  0
 18 17  2  0
 19 20  2  0
 19 18  1  0
 20 21  1  0
 21 17  1  0
  1 22  1  0
  2 23  1  0
  3 24  1  0
  8 25  1  0
  9 26  1  0
 13 27  1  0
 14 28  1  0
 18 29  1  0
 19 30  1  0
 20 31  1  0
M  ISO  8  22  14  23  14  24  14  25  14  26  14  27  14  28  14  29  14
M  ISO  2  30  14  31  14
M  END
>  <minimizedAffinity>  (1) 
-4.34518862

>  <minimizedRMSD>  (1) 
1.76542032

$$$$
