
     RDKit          3D

 24 24  0  0  0  0  0  0  0  0999 V2000
   38.5340   23.5490   36.9870 C   0  0  0  0  0  0  0  0  0  0  0  0
   41.8890   21.8250   37.0960 C   0  0  0  0  0  0  0  0  0  0  0  0
   40.5690   22.1250   37.4220 C   0  0  0  0  0  0  0  0  0  0  0  0
   39.9270   23.1520   36.7200 C   0  0  0  0  0  0  0  0  0  0  0  0
   40.6290   23.8110   35.7460 N   0  0  0  0  0  0  0  0  0  0  0  0
   41.8980   23.4960   35.4570 C   0  0  0  0  0  0  0  0  0  0  0  0
   42.5320   22.5120   36.1210 N   0  0  0  0  0  0  0  0  0  0  0  0
   38.3060   23.3660   38.4860 C   0  0  0  0  0  0  0  0  0  0  0  0
   38.2110   24.9570   36.5370 C   0  0  0  0  0  0  0  0  0  0  0  0
   37.5940   22.6130   36.2410 C   0  0  0  0  0  0  0  0  0  0  0  0
   36.6530   21.9480   37.1050 N   0  0  0  0  0  0  0  0  0  0  0  0
   42.4146   21.0229   37.6349 H   0  0  0  0  0  0  0  0  0  0  0  0
   40.0434   21.5685   38.2120 H   0  0  0  0  0  0  0  0  0  0  0  0
   42.4286   24.0482   34.6674 H   0  0  0  0  0  0  0  0  0  0  0  0
   39.0451   23.9592   39.0444 H   0  0  0  0  0  0  0  0  0  0  0  0
   37.2922   23.7039   38.7466 H   0  0  0  0  0  0  0  0  0  0  0  0
   38.4165   22.3031   38.7466 H   0  0  0  0  0  0  0  0  0  0  0  0
   38.0638   25.5988   37.4181 H   0  0  0  0  0  0  0  0  0  0  0  0
   39.0426   25.3487   35.9329 H   0  0  0  0  0  0  0  0  0  0  0  0
   37.2918   24.9471   35.9329 H   0  0  0  0  0  0  0  0  0  0  0  0
   37.0330   23.1995   35.4985 H   0  0  0  0  0  0  0  0  0  0  0  0
   38.2127   21.8347   35.7704 H   0  0  0  0  0  0  0  0  0  0  0  0
   36.9044   22.1257   38.0879 H   0  0  0  0  0  0  0  0  0  0  0  0
   35.7054   22.3082   36.9225 H   0  0  0  0  0  0  0  0  0  0  0  0
  1  8  1  0
  2  3  2  0
  4  1  1  0
  4  3  1  0
  5  4  2  0
  6  5  1  0
  6  7  2  0
  7  2  1  0
  9  1  1  0
 10  1  1  0
 10 11  1  0
  2 12  1  0
  3 13  1  0
  6 14  1  0
  8 15  1  0
  8 16  1  0
  8 17  1  0
  9 18  1  0
  9 19  1  0
  9 20  1  0
 10 21  1  0
 10 22  1  0
 11 23  1  0
 11 24  1  0
M  ISO  8  12  14  13  14  14  14  15   8  16   8  17   8  18   8  19   8
M  ISO  5  20   8  21   8  22   8  23   5  24   5
M  END
>  <minimizedAffinity>  (1) 
-3.48002934

>  <minimizedRMSD>  (1) 
0.981471956

$$$$
