
     RDKit          3D

 29 32  0  0  0  0  0  0  0  0999 V2000
   39.3960   23.0690   38.3530 C   0  0  0  0  0  0  0  0  0  0  0  0
   38.0610   23.4820   38.4080 C   0  0  0  0  0  0  0  0  0  0  0  0
   37.4650   23.8830   37.1960 C   0  0  0  0  0  0  0  0  0  0  0  0
   38.2020   23.8530   36.0310 N   0  0  0  0  0  0  0  0  0  0  0  0
   39.4830   23.4470   36.0310 C   0  0  0  0  0  0  0  0  0  0  0  0
   40.0580   23.0610   37.1980 N   0  0  0  0  0  0  0  0  0  0  0  0
   40.2560   23.3810   34.8490 N   0  0  0  0  0  0  0  0  0  0  0  0
   41.5160   23.7900   34.5990 C   0  0  0  0  0  0  0  0  0  0  0  0
   41.8710   23.5190   33.2980 C   0  0  0  0  0  0  0  0  0  0  0  0
   40.7940   22.9260   32.7310 N   0  0  0  0  0  0  0  0  0  0  0  0
   39.8400   22.8520   33.6700 C   0  0  0  0  0  0  0  0  0  0  0  0
   38.5810   22.2930   33.3400 N   0  0  0  0  0  0  0  0  0  0  0  0
   37.7800   21.8850   34.3810 C   0  0  0  0  0  0  0  0  0  0  0  0
   36.6130   21.4430   33.7450 C   0  0  0  0  0  0  0  0  0  0  0  0
   36.7350   21.5860   32.3790 N   0  0  0  0  0  0  0  0  0  0  0  0
   37.9590   22.1130   32.1200 C   0  0  0  0  0  0  0  0  0  0  0  0
   38.5420   22.4470   30.8270 C   0  0  0  0  0  0  0  0  0  0  0  0
   39.2090   21.8140   29.8680 N   0  0  0  0  0  0  0  0  0  0  0  0
   39.4810   22.6310   28.9260 O   0  0  0  0  0  0  0  0  0  0  0  0
   39.0240   23.8120   29.1990 C   0  0  0  0  0  0  0  0  0  0  0  0
   38.4350   23.7130   30.3830 N   0  0  0  0  0  0  0  0  0  0  0  0
   39.9045   22.7473   39.2739 H   0  0  0  0  0  0  0  0  0  0  0  0
   37.5014   23.4933   39.3550 H   0  0  0  0  0  0  0  0  0  0  0  0
   36.4174   24.2182   37.1792 H   0  0  0  0  0  0  0  0  0  0  0  0
   42.1722   24.2753   35.3365 H   0  0  0  0  0  0  0  0  0  0  0  0
   42.8348   23.7394   32.8159 H   0  0  0  0  0  0  0  0  0  0  0  0
   38.0031   21.9018   35.4580 H   0  0  0  0  0  0  0  0  0  0  0  0
   35.7283   21.0405   34.2601 H   0  0  0  0  0  0  0  0  0  0  0  0
   39.1076   24.7141   28.5751 H   0  0  0  0  0  0  0  0  0  0  0  0
  1  2  2  0
  3  2  1  0
  4  5  1  0
  4  3  2  0
  5  6  2  0
  6  1  1  0
  7  5  1  0
  8  7  1  0
  9  8  2  0
 10  9  1  0
 10 11  2  0
 11  7  1  0
 12 11  1  0
 12 13  1  0
 14 13  2  0
 15 14  1  0
 16 15  2  0
 16 12  1  0
 17 16  1  0
 18 17  2  0
 19 20  1  0
 19 18  1  0
 20 21  2  0
 21 17  1  0
  1 22  1  0
  2 23  1  0
  3 24  1  0
  8 25  1  0
  9 26  1  0
 13 27  1  0
 14 28  1  0
 20 29  1  0
M  ISO  8  22  14  23  14  24  14  25  14  26  14  27  14  28  14  29  14
M  END
>  <minimizedAffinity>  (1) 
-4.27150393

>  <minimizedRMSD>  (1) 
1.87846816

$$$$
