
     RDKit          3D

 27 29  0  0  0  0  0  0  0  0999 V2000
   39.9270   22.9780   38.0150 C   0  0  0  0  0  0  0  0  0  0  0  0
   38.6660   23.3120   38.5730 C   0  0  0  0  0  0  0  0  0  0  0  0
   37.6140   23.5690   37.6680 C   0  0  0  0  0  0  0  0  0  0  0  0
   37.8400   23.4910   36.3090 N   0  0  0  0  0  0  0  0  0  0  0  0
   39.0660   23.1660   35.8390 C   0  0  0  0  0  0  0  0  0  0  0  0
   40.0800   22.9180   36.6930 N   0  0  0  0  0  0  0  0  0  0  0  0
   39.3180   23.0530   34.4580 N   0  0  0  0  0  0  0  0  0  0  0  0
   40.3370   23.5130   33.6980 C   0  0  0  0  0  0  0  0  0  0  0  0
   40.1720   23.1630   32.3740 C   0  0  0  0  0  0  0  0  0  0  0  0
   39.0050   22.4570   32.3040 N   0  0  0  0  0  0  0  0  0  0  0  0
   38.5250   22.4130   33.5710 C   0  0  0  0  0  0  0  0  0  0  0  0
   37.2870   21.7400   33.7790 N   0  0  0  0  0  0  0  0  0  0  0  0
   37.0120   21.3560   35.0720 C   0  0  0  0  0  0  0  0  0  0  0  0
   35.7360   20.7740   34.9840 C   0  0  0  0  0  0  0  0  0  0  0  0
   35.2870   20.8160   33.6690 N   0  0  0  0  0  0  0  0  0  0  0  0
   36.2530   21.4150   32.9260 C   0  0  0  0  0  0  0  0  0  0  0  0
   36.3890   21.7550   31.4880 C   0  0  0  0  0  0  0  0  0  0  0  0
   40.7808   22.7680   38.6759 H   0  0  0  0  0  0  0  0  0  0  0  0
   38.5152   23.3681   39.6612 H   0  0  0  0  0  0  0  0  0  0  0  0
   36.6147   23.8313   38.0457 H   0  0  0  0  0  0  0  0  0  0  0  0
   41.1882   24.0919   34.0856 H   0  0  0  0  0  0  0  0  0  0  0  0
   40.8468   23.4047   31.5396 H   0  0  0  0  0  0  0  0  0  0  0  0
   37.6431   21.4765   35.9648 H   0  0  0  0  0  0  0  0  0  0  0  0
   35.1758   20.3485   35.8297 H   0  0  0  0  0  0  0  0  0  0  0  0
   36.7959   22.7721   31.3886 H   0  0  0  0  0  0  0  0  0  0  0  0
   37.0699   21.0389   31.0047 H   0  0  0  0  0  0  0  0  0  0  0  0
   35.4021   21.7060   31.0047 H   0  0  0  0  0  0  0  0  0  0  0  0
  1  2  2  0
  3  2  1  0
  4  3  2  0
  5  4  1  0
  5  6  2  0
  6  1  1  0
  7  5  1  0
  8  7  1  0
  9  8  2  0
 10  9  1  0
 10 11  2  0
 11 12  1  0
 11  7  1  0
 12 13  1  0
 14 13  2  0
 15 14  1  0
 16 15  2  0
 16 12  1  0
 17 16  1  0
  1 18  1  0
  2 19  1  0
  3 20  1  0
  8 21  1  0
  9 22  1  0
 13 23  1  0
 14 24  1  0
 17 25  1  0
 17 26  1  0
 17 27  1  0
M  ISO  8  18  14  19  14  20  14  21  14  22  14  23  14  24  14  25   8
M  ISO  2  26   8  27   8
M  END
>  <minimizedAffinity>  (1) 
-4.40021849

>  <minimizedRMSD>  (1) 
0.144382998

$$$$
