
     RDKit          3D

 41 45  0  0  0  0  0  0  0  0999 V2000
   39.9440   23.0410   38.1440 C   0  0  0  0  0  0  0  0  0  0  0  0
   38.6910   23.5200   38.6420 C   0  0  0  0  0  0  0  0  0  0  0  0
   37.6650   23.7570   37.7070 C   0  0  0  0  0  0  0  0  0  0  0  0
   37.8700   23.5330   36.3680 N   0  0  0  0  0  0  0  0  0  0  0  0
   39.0870   23.0740   35.9560 C   0  0  0  0  0  0  0  0  0  0  0  0
   40.1030   22.8340   36.8270 N   0  0  0  0  0  0  0  0  0  0  0  0
   39.3360   22.8010   34.5920 N   0  0  0  0  0  0  0  0  0  0  0  0
   40.3780   23.1150   33.7910 C   0  0  0  0  0  0  0  0  0  0  0  0
   40.1940   22.6330   32.5050 C   0  0  0  0  0  0  0  0  0  0  0  0
   38.9910   21.9950   32.5120 N   0  0  0  0  0  0  0  0  0  0  0  0
   38.5020   22.1110   33.7720 C   0  0  0  0  0  0  0  0  0  0  0  0
   37.2250   21.5390   34.0440 N   0  0  0  0  0  0  0  0  0  0  0  0
   36.9720   21.2660   35.3580 C   0  0  0  0  0  0  0  0  0  0  0  0
   35.6580   20.7710   35.3270 C   0  0  0  0  0  0  0  0  0  0  0  0
   35.1800   20.7610   34.0070 N   0  0  0  0  0  0  0  0  0  0  0  0
   36.1620   21.2390   33.2040 C   0  0  0  0  0  0  0  0  0  0  0  0
   36.2870   21.4490   31.7530 C   0  0  0  0  0  0  0  0  0  0  0  0
   36.7950   20.2730   31.0090 C   0  0  0  0  0  0  0  0  0  0  0  0
   37.6590   20.0480   29.9420 C   0  0  0  0  0  0  0  0  0  0  0  0
   37.7470   18.7340   29.6760 N   0  0  0  0  0  0  0  0  0  0  0  0
   36.9770   18.0390   30.5160 C   0  0  0  0  0  0  0  0  0  0  0  0
   36.7020   16.6910   30.6800 C   0  0  0  0  0  0  0  0  0  0  0  0
   35.8440   16.2300   31.6550 C   0  0  0  0  0  0  0  0  0  0  0  0
   35.2510   17.1470   32.4800 C   0  0  0  0  0  0  0  0  0  0  0  0
   35.5240   18.4870   32.3170 C   0  0  0  0  0  0  0  0  0  0  0  0
   36.3800   18.9750   31.3480 C   0  0  0  0  0  0  0  0  0  0  0  0
   40.7742   22.8430   38.8379 H   0  0  0  0  0  0  0  0  0  0  0  0
   38.5348   23.6967   39.7164 H   0  0  0  0  0  0  0  0  0  0  0  0
   36.6882   24.1258   38.0533 H   0  0  0  0  0  0  0  0  0  0  0  0
   41.2616   23.6822   34.1188 H   0  0  0  0  0  0  0  0  0  0  0  0
   40.8800   22.7433   31.6522 H   0  0  0  0  0  0  0  0  0  0  0  0
   37.6339   21.4006   36.2262 H   0  0  0  0  0  0  0  0  0  0  0  0
   35.0875   20.4399   36.2073 H   0  0  0  0  0  0  0  0  0  0  0  0
   35.2942   21.7059   31.3552 H   0  0  0  0  0  0  0  0  0  0  0  0
   37.0244   22.2532   31.6132 H   0  0  0  0  0  0  0  0  0  0  0  0
   38.1952   20.8359   29.3928 H   0  0  0  0  0  0  0  0  0  0  0  0
   38.3259   18.3219   28.9304 H   0  0  0  0  0  0  0  0  0  0  0  0
   37.1846   15.9645   30.0097 H   0  0  0  0  0  0  0  0  0  0  0  0
   35.6414   15.1546   31.7671 H   0  0  0  0  0  0  0  0  0  0  0  0
   34.5600   16.8155   33.2691 H   0  0  0  0  0  0  0  0  0  0  0  0
   35.0360   19.2052   32.9923 H   0  0  0  0  0  0  0  0  0  0  0  0
  1  2  2  0
  3  2  1  0
  4  3  2  0
  5  4  1  0
  5  6  2  0
  6  1  1  0
  7  5  1  0
  8  7  1  0
  9 10  1  0
  9  8  2  0
 10 11  2  0
 11 12  1  0
 11  7  1  0
 12 13  1  0
 14 13  2  0
 15 14  1  0
 16 15  2  0
 16 12  1  0
 17 16  1  0
 18 26  1  0
 18 17  1  0
 19 18  2  0
 20 19  1  0
 20 21  1  0
 21 22  2  0
 21 26  1  0
 22 23  1  0
 23 24  2  0
 25 24  1  0
 26 25  2  0
  1 27  1  0
  2 28  1  0
  3 29  1  0
  8 30  1  0
  9 31  1  0
 13 32  1  0
 14 33  1  0
 17 34  1  0
 17 35  1  0
 19 36  1  0
 20 37  1  0
 22 38  1  0
 23 39  1  0
 24 40  1  0
 25 41  1  0
M  ISO  8  27  14  28  14  29  14  30  14  31  14  32  14  33  14  34   8
M  ISO  7  35   8  36  14  37   9  38  14  39  14  40  14  41  14
M  END
>  <minimizedAffinity>  (1) 
-5.73634291

>  <minimizedRMSD>  (1) 
0.601561427

$$$$
