
     RDKit          3D

 40 43  0  0  0  0  0  0  0  0999 V2000
   40.0740   23.1610   38.1580 C   0  0  0  0  0  0  0  0  0  0  0  0
   38.8220   23.4440   38.7890 C   0  0  0  0  0  0  0  0  0  0  0  0
   37.7000   23.6690   37.9420 C   0  0  0  0  0  0  0  0  0  0  0  0
   37.8430   23.6090   36.5730 N   0  0  0  0  0  0  0  0  0  0  0  0
   39.0690   23.3320   36.0400 C   0  0  0  0  0  0  0  0  0  0  0  0
   40.1590   23.1120   36.8220 N   0  0  0  0  0  0  0  0  0  0  0  0
   39.2420   23.2370   34.6470 N   0  0  0  0  0  0  0  0  0  0  0  0
   40.1820   23.7640   33.8210 C   0  0  0  0  0  0  0  0  0  0  0  0
   39.9580   23.4050   32.5020 C   0  0  0  0  0  0  0  0  0  0  0  0
   38.8470   22.6340   32.5200 N   0  0  0  0  0  0  0  0  0  0  0  0
   38.4370   22.5450   33.7960 C   0  0  0  0  0  0  0  0  0  0  0  0
   37.2630   21.8060   34.0860 N   0  0  0  0  0  0  0  0  0  0  0  0
   37.1160   21.3730   35.3720 C   0  0  0  0  0  0  0  0  0  0  0  0
   35.8540   20.7490   35.3570 C   0  0  0  0  0  0  0  0  0  0  0  0
   35.2910   20.8260   34.0700 N   0  0  0  0  0  0  0  0  0  0  0  0
   36.1780   21.4860   33.2790 C   0  0  0  0  0  0  0  0  0  0  0  0
   36.1750   21.8260   31.8530 C   0  0  0  0  0  0  0  0  0  0  0  0
   36.3970   20.5580   31.1340 N   0  0  0  0  0  0  0  0  0  0  0  0
   37.5540   20.5430   30.3980 C   0  0  0  0  0  0  0  0  0  0  0  0
   38.0210   19.5040   29.6220 C   0  0  0  0  0  0  0  0  0  0  0  0
   39.2720   19.5590   28.8600 C   0  0  0  0  0  0  0  0  0  0  0  0
   37.2460   18.3650   29.5820 C   0  0  0  0  0  0  0  0  0  0  0  0
   37.5570   17.3460   28.9140 O   0  0  0  0  0  0  0  0  0  0  0  0
   36.1160   18.3930   30.3070 N   0  0  0  0  0  0  0  0  0  0  0  0
   35.7120   19.4370   31.0450 C   0  0  0  0  0  0  0  0  0  0  0  0
   34.6480   19.4080   31.7030 O   0  0  0  0  0  0  0  0  0  0  0  0
   40.9696   22.9831   38.7715 H   0  0  0  0  0  0  0  0  0  0  0  0
   38.7298   23.4861   39.8843 H   0  0  0  0  0  0  0  0  0  0  0  0
   36.7165   23.8913   38.3817 H   0  0  0  0  0  0  0  0  0  0  0  0
   41.0167   24.3967   34.1571 H   0  0  0  0  0  0  0  0  0  0  0  0
   40.5578   23.6876   31.6243 H   0  0  0  0  0  0  0  0  0  0  0  0
   37.8138   21.4844   36.2150 H   0  0  0  0  0  0  0  0  0  0  0  0
   35.3774   20.2707   36.2254 H   0  0  0  0  0  0  0  0  0  0  0  0
   35.2076   22.2640   31.5663 H   0  0  0  0  0  0  0  0  0  0  0  0
   36.9516   22.5672   31.6132 H   0  0  0  0  0  0  0  0  0  0  0  0
   38.1721   21.4524   30.4302 H   0  0  0  0  0  0  0  0  0  0  0  0
   40.1235   19.5964   29.5553 H   0  0  0  0  0  0  0  0  0  0  0  0
   39.3551   18.6636   28.2264 H   0  0  0  0  0  0  0  0  0  0  0  0
   39.2762   20.4582   28.2264 H   0  0  0  0  0  0  0  0  0  0  0  0
   35.5182   17.5543   30.2954 H   0  0  0  0  0  0  0  0  0  0  0  0
  1  2  2  0
  3  2  1  0
  4  3  2  0
  5  4  1  0
  5  6  2  0
  6  1  1  0
  7  5  1  0
  8  7  1  0
  9 10  1  0
  9  8  2  0
 10 11  2  0
 11 12  1  0
 11  7  1  0
 12 13  1  0
 14 13  2  0
 15 14  1  0
 16 15  2  0
 16 12  1  0
 17 16  1  0
 18 17  1  0
 19 18  1  0
 20 19  2  0
 21 20  1  0
 22 20  1  0
 22 24  1  0
 23 22  2  0
 24 25  1  0
 25 18  1  0
 25 26  2  0
  1 27  1  0
  2 28  1  0
  3 29  1  0
  8 30  1  0
  9 31  1  0
 13 32  1  0
 14 33  1  0
 17 34  1  0
 17 35  1  0
 19 36  1  0
 21 37  1  0
 21 38  1  0
 21 39  1  0
 24 40  1  0
M  ISO  8  27  14  28  14  29  14  30  14  31  14  32  14  33  14  34   8
M  ISO  6  35   8  36  14  37   8  38   8  39   8  40   9
M  END
>  <minimizedAffinity>  (1) 
-5.29452896

>  <minimizedRMSD>  (1) 
0.519880652

$$$$
