
     RDKit          3D

 37 40  0  0  0  0  0  0  0  0999 V2000
   39.9340   22.8710   38.2290 C   0  0  0  0  0  0  0  0  0  0  0  0
   38.6380   23.2140   38.7310 C   0  0  0  0  0  0  0  0  0  0  0  0
   37.6470   23.5740   37.7750 C   0  0  0  0  0  0  0  0  0  0  0  0
   37.9530   23.5830   36.4290 N   0  0  0  0  0  0  0  0  0  0  0  0
   39.2090   23.2420   36.0250 C   0  0  0  0  0  0  0  0  0  0  0  0
   40.1820   22.8930   36.9090 N   0  0  0  0  0  0  0  0  0  0  0  0
   39.5340   23.2170   34.6650 N   0  0  0  0  0  0  0  0  0  0  0  0
   40.6000   23.7140   33.9940 C   0  0  0  0  0  0  0  0  0  0  0  0
   40.5100   23.4550   32.6340 C   0  0  0  0  0  0  0  0  0  0  0  0
   39.3480   22.7730   32.4520 N   0  0  0  0  0  0  0  0  0  0  0  0
   38.7860   22.6450   33.6840 C   0  0  0  0  0  0  0  0  0  0  0  0
   37.5410   21.9900   33.7810 N   0  0  0  0  0  0  0  0  0  0  0  0
   37.1980   21.4980   35.0040 C   0  0  0  0  0  0  0  0  0  0  0  0
   35.9240   20.9600   34.8170 C   0  0  0  0  0  0  0  0  0  0  0  0
   35.5270   21.1340   33.4840 N   0  0  0  0  0  0  0  0  0  0  0  0
   36.5540   21.7780   32.8560 C   0  0  0  0  0  0  0  0  0  0  0  0
   36.7340   22.2000   31.4370 C   0  0  0  0  0  0  0  0  0  0  0  0
   36.4280   23.6180   31.1860 C   0  0  0  0  0  0  0  0  0  0  0  0
   37.3180   24.6420   30.9380 C   0  0  0  0  0  0  0  0  0  0  0  0
   36.9610   25.9410   30.7150 C   0  0  0  0  0  0  0  0  0  0  0  0
   35.6500   26.3160   30.7280 C   0  0  0  0  0  0  0  0  0  0  0  0
   34.7060   25.3640   30.9670 C   0  0  0  0  0  0  0  0  0  0  0  0
   35.1020   24.0870   31.1820 C   0  0  0  0  0  0  0  0  0  0  0  0
   40.7330   22.5872   38.9297 H   0  0  0  0  0  0  0  0  0  0  0  0
   38.4177   23.1999   39.8086 H   0  0  0  0  0  0  0  0  0  0  0  0
   36.6349   23.8457   38.1095 H   0  0  0  0  0  0  0  0  0  0  0  0
   41.4325   24.2550   34.4676 H   0  0  0  0  0  0  0  0  0  0  0  0
   41.2341   23.7438   31.8580 H   0  0  0  0  0  0  0  0  0  0  0  0
   37.7913   21.5198   35.9300 H   0  0  0  0  0  0  0  0  0  0  0  0
   35.3220   20.4727   35.5981 H   0  0  0  0  0  0  0  0  0  0  0  0
   37.7809   22.0174   31.1529 H   0  0  0  0  0  0  0  0  0  0  0  0
   36.0217   21.6122   30.8395 H   0  0  0  0  0  0  0  0  0  0  0  0
   38.3898   24.3952   30.9185 H   0  0  0  0  0  0  0  0  0  0  0  0
   37.7399   26.6936   30.5227 H   0  0  0  0  0  0  0  0  0  0  0  0
   35.3618   27.3625   30.5497 H   0  0  0  0  0  0  0  0  0  0  0  0
   33.6384   25.6283   30.9851 H   0  0  0  0  0  0  0  0  0  0  0  0
   34.3114   23.3460   31.3715 H   0  0  0  0  0  0  0  0  0  0  0  0
  1  2  2  0
  3  2  1  0
  4  3  2  0
  5  4  1  0
  5  6  2  0
  6  1  1  0
  7  5  1  0
  8  7  1  0
  9  8  2  0
 10  9  1  0
 10 11  2  0
 11 12  1  0
 11  7  1  0
 12 13  1  0
 14 13  2  0
 15 14  1  0
 16 15  2  0
 16 12  1  0
 17 16  1  0
 18 17  1  0
 19 18  2  0
 20 21  2  0
 20 19  1  0
 21 22  1  0
 22 23  2  0
 23 18  1  0
  1 24  1  0
  2 25  1  0
  3 26  1  0
  8 27  1  0
  9 28  1  0
 13 29  1  0
 14 30  1  0
 17 31  1  0
 17 32  1  0
 19 33  1  0
 20 34  1  0
 21 35  1  0
 22 36  1  0
 23 37  1  0
M  ISO  8  24  14  25  14  26  14  27  14  28  14  29  14  30  14  31   8
M  ISO  6  32   8  33  14  34  14  35  14  36  14  37  14
M  END
>  <minimizedAffinity>  (1) 
-5.29161453

>  <minimizedRMSD>  (1) 
0.950243175

$$$$
