
     RDKit          3D

 37 40  0  0  0  0  0  0  0  0999 V2000
   39.9860   23.1720   38.2320 C   0  0  0  0  0  0  0  0  0  0  0  0
   38.7120   23.5150   38.7810 C   0  0  0  0  0  0  0  0  0  0  0  0
   37.6470   23.7420   37.8670 C   0  0  0  0  0  0  0  0  0  0  0  0
   37.8580   23.6310   36.5080 N   0  0  0  0  0  0  0  0  0  0  0  0
   39.1020   23.3000   36.0600 C   0  0  0  0  0  0  0  0  0  0  0  0
   40.1450   23.0750   36.9020 N   0  0  0  0  0  0  0  0  0  0  0  0
   39.3430   23.1500   34.6810 N   0  0  0  0  0  0  0  0  0  0  0  0
   40.3380   23.6240   33.8990 C   0  0  0  0  0  0  0  0  0  0  0  0
   40.1710   23.2240   32.5770 C   0  0  0  0  0  0  0  0  0  0  0  0
   39.0390   22.4840   32.5550 N   0  0  0  0  0  0  0  0  0  0  0  0
   38.5600   22.4510   33.8170 C   0  0  0  0  0  0  0  0  0  0  0  0
   37.3540   21.7580   34.0650 N   0  0  0  0  0  0  0  0  0  0  0  0
   37.1160   21.3770   35.3510 C   0  0  0  0  0  0  0  0  0  0  0  0
   35.8490   20.7820   35.2980 C   0  0  0  0  0  0  0  0  0  0  0  0
   35.3600   20.8160   33.9820 N   0  0  0  0  0  0  0  0  0  0  0  0
   36.3140   21.4260   33.2290 C   0  0  0  0  0  0  0  0  0  0  0  0
   36.4040   21.7070   31.7660 C   0  0  0  0  0  0  0  0  0  0  0  0
   36.8010   20.5480   31.0120 N   0  0  0  0  0  0  0  0  0  0  0  0
   37.9400   20.2360   30.3810 C   0  0  0  0  0  0  0  0  0  0  0  0
   38.1990   19.0990   29.6910 C   0  0  0  0  0  0  0  0  0  0  0  0
   37.2250   18.1310   29.5960 C   0  0  0  0  0  0  0  0  0  0  0  0
   37.3860   17.0520   28.9770 O   0  0  0  0  0  0  0  0  0  0  0  0
   36.0550   18.3760   30.2050 N   0  0  0  0  0  0  0  0  0  0  0  0
   35.8890   19.5340   30.8680 C   0  0  0  0  0  0  0  0  0  0  0  0
   34.7430   19.6750   31.4150 O   0  0  0  0  0  0  0  0  0  0  0  0
   40.8393   22.9868   38.9010 H   0  0  0  0  0  0  0  0  0  0  0  0
   38.5614   23.6000   39.8673 H   0  0  0  0  0  0  0  0  0  0  0  0
   36.6489   24.0077   38.2455 H   0  0  0  0  0  0  0  0  0  0  0  0
   41.1710   24.2449   34.2604 H   0  0  0  0  0  0  0  0  0  0  0  0
   40.8251   23.4608   31.7249 H   0  0  0  0  0  0  0  0  0  0  0  0
   37.7676   21.5065   36.2277 H   0  0  0  0  0  0  0  0  0  0  0  0
   35.3163   20.3521   36.1591 H   0  0  0  0  0  0  0  0  0  0  0  0
   35.4189   22.0414   31.4086 H   0  0  0  0  0  0  0  0  0  0  0  0
   37.1691   22.4834   31.6184 H   0  0  0  0  0  0  0  0  0  0  0  0
   38.7492   20.9797   30.4276 H   0  0  0  0  0  0  0  0  0  0  0  0
   39.1779   18.9510   29.2115 H   0  0  0  0  0  0  0  0  0  0  0  0
   35.2924   17.6848   30.1652 H   0  0  0  0  0  0  0  0  0  0  0  0
  1  2  2  0
  3  2  1  0
  4  3  2  0
  5  4  1  0
  5  6  2  0
  6  1  1  0
  7  5  1  0
  8  7  1  0
  9  8  2  0
 10  9  1  0
 10 11  2  0
 11 12  1  0
 11  7  1  0
 12 13  1  0
 14 13  2  0
 15 14  1  0
 16 15  2  0
 16 12  1  0
 17 16  1  0
 18 17  1  0
 19 18  1  0
 20 19  2  0
 21 20  1  0
 21 23  1  0
 22 21  2  0
 23 24  1  0
 24 18  1  0
 24 25  2  0
  1 26  1  0
  2 27  1  0
  3 28  1  0
  8 29  1  0
  9 30  1  0
 13 31  1  0
 14 32  1  0
 17 33  1  0
 17 34  1  0
 19 35  1  0
 20 36  1  0
 23 37  1  0
M  ISO  8  26  14  27  14  28  14  29  14  30  14  31  14  32  14  33   8
M  ISO  4  34   8  35  14  36  14  37   9
M  END
>  <minimizedAffinity>  (1) 
-5.07954168

>  <minimizedRMSD>  (1) 
0.397544563

$$$$
