
     RDKit          3D

 40 43  0  0  0  0  0  0  0  0999 V2000
   39.7360   23.0230   38.1200 C   0  0  0  0  0  0  0  0  0  0  0  0
   38.4730   23.5930   38.4700 C   0  0  0  0  0  0  0  0  0  0  0  0
   37.5430   23.8330   37.4200 C   0  0  0  0  0  0  0  0  0  0  0  0
   37.8650   23.5220   36.1190 N   0  0  0  0  0  0  0  0  0  0  0  0
   39.0890   22.9780   35.8580 C   0  0  0  0  0  0  0  0  0  0  0  0
   40.0030   22.7350   36.8360 N   0  0  0  0  0  0  0  0  0  0  0  0
   39.4490   22.6150   34.5460 N   0  0  0  0  0  0  0  0  0  0  0  0
   40.5810   22.8400   33.8370 C   0  0  0  0  0  0  0  0  0  0  0  0
   40.5000   22.2910   32.5670 C   0  0  0  0  0  0  0  0  0  0  0  0
   39.2740   21.7040   32.4880 N   0  0  0  0  0  0  0  0  0  0  0  0
   38.6690   21.9140   33.6820 C   0  0  0  0  0  0  0  0  0  0  0  0
   37.3570   21.4220   33.8620 N   0  0  0  0  0  0  0  0  0  0  0  0
   36.9380   21.2530   35.1470 C   0  0  0  0  0  0  0  0  0  0  0  0
   35.6120   20.8220   35.0170 C   0  0  0  0  0  0  0  0  0  0  0  0
   35.2730   20.7410   33.6610 N   0  0  0  0  0  0  0  0  0  0  0  0
   36.3710   21.1150   32.9540 C   0  0  0  0  0  0  0  0  0  0  0  0
   36.6500   21.1850   31.4890 C   0  0  0  0  0  0  0  0  0  0  0  0
   36.4050   19.8550   30.9080 C   0  0  0  0  0  0  0  0  0  0  0  0
   37.1720   19.7330   29.5800 C   0  0  0  0  0  0  0  0  0  0  0  0
   36.8020   18.2840   29.2610 C   0  0  0  0  0  0  0  0  0  0  0  0
   36.9030   17.5870   30.6200 C   0  0  0  0  0  0  0  0  0  0  0  0
   37.0580   18.7120   31.6490 C   0  0  0  0  0  0  0  0  0  0  0  0
   40.4860   22.8211   38.8990 H   0  0  0  0  0  0  0  0  0  0  0  0
   38.2284   23.8376   39.5142 H   0  0  0  0  0  0  0  0  0  0  0  0
   36.5601   24.2701   37.6500 H   0  0  0  0  0  0  0  0  0  0  0  0
   41.4538   23.3888   34.2205 H   0  0  0  0  0  0  0  0  0  0  0  0
   41.2700   22.3230   31.7821 H   0  0  0  0  0  0  0  0  0  0  0  0
   37.5091   21.4171   36.0727 H   0  0  0  0  0  0  0  0  0  0  0  0
   34.9387   20.5833   35.8535 H   0  0  0  0  0  0  0  0  0  0  0  0
   35.9853   21.9246   31.0187 H   0  0  0  0  0  0  0  0  0  0  0  0
   37.6932   21.4880   31.3158 H   0  0  0  0  0  0  0  0  0  0  0  0
   35.3073   19.7873   30.8860 H   0  0  0  0  0  0  0  0  0  0  0  0
   36.8031   20.4357   28.8184 H   0  0  0  0  0  0  0  0  0  0  0  0
   38.2472   19.9623   29.6177 H   0  0  0  0  0  0  0  0  0  0  0  0
   35.7802   18.2176   28.8592 H   0  0  0  0  0  0  0  0  0  0  0  0
   37.4513   17.8324   28.4965 H   0  0  0  0  0  0  0  0  0  0  0  0
   35.9917   17.0049   30.8217 H   0  0  0  0  0  0  0  0  0  0  0  0
   37.7480   16.8837   30.6552 H   0  0  0  0  0  0  0  0  0  0  0  0
   38.1159   18.9206   31.8663 H   0  0  0  0  0  0  0  0  0  0  0  0
   36.6203   18.4951   32.6346 H   0  0  0  0  0  0  0  0  0  0  0  0
  1  2  2  0
  3  2  1  0
  4  3  2  0
  5  4  1  0
  5  6  2  0
  6  1  1  0
  7  5  1  0
  8  7  1  0
  9  8  2  0
 10  9  1  0
 10 11  2  0
 11 12  1  0
 11  7  1  0
 12 13  1  0
 14 13  2  0
 15 14  1  0
 16 15  2  0
 16 12  1  0
 17 16  1  0
 18 17  1  0
 18 22  1  0
 19 18  1  0
 20 19  1  0
 20 21  1  0
 21 22  1  0
  1 23  1  0
  2 24  1  0
  3 25  1  0
  8 26  1  0
  9 27  1  0
 13 28  1  0
 14 29  1  0
 17 30  1  0
 17 31  1  0
 18 32  1  0
 19 33  1  0
 19 34  1  0
 20 35  1  0
 20 36  1  0
 21 37  1  0
 21 38  1  0
 22 39  1  0
 22 40  1  0
M  ISO  8  23  14  24  14  25  14  26  14  27  14  28  14  29  14  30   8
M  ISO  8  31   8  32  13  33  13  34  13  35  13  36  13  37  13  38  13
M  ISO  2  39  13  40  13
M  END
>  <minimizedAffinity>  (1) 
-4.96662283

>  <minimizedRMSD>  (1) 
0.872012317

$$$$
