
     RDKit          3D

 41 44  0  0  0  0  0  0  0  0999 V2000
   39.7550   23.0910   38.2460 C   0  0  0  0  0  0  0  0  0  0  0  0
   38.5100   23.7180   38.5680 C   0  0  0  0  0  0  0  0  0  0  0  0
   37.5830   23.9270   37.5050 C   0  0  0  0  0  0  0  0  0  0  0  0
   37.9100   23.5280   36.2280 N   0  0  0  0  0  0  0  0  0  0  0  0
   39.1160   22.9330   35.9920 C   0  0  0  0  0  0  0  0  0  0  0  0
   40.0140   22.7250   36.9870 N   0  0  0  0  0  0  0  0  0  0  0  0
   39.4470   22.5030   34.7000 N   0  0  0  0  0  0  0  0  0  0  0  0
   40.5790   22.6640   33.9690 C   0  0  0  0  0  0  0  0  0  0  0  0
   40.4710   22.0840   32.7270 C   0  0  0  0  0  0  0  0  0  0  0  0
   39.2170   21.5370   32.6840 N   0  0  0  0  0  0  0  0  0  0  0  0
   38.6390   21.8040   33.8720 C   0  0  0  0  0  0  0  0  0  0  0  0
   37.3220   21.3440   34.0770 N   0  0  0  0  0  0  0  0  0  0  0  0
   36.8850   21.2610   35.3650 C   0  0  0  0  0  0  0  0  0  0  0  0
   35.5640   20.8500   35.2820 C   0  0  0  0  0  0  0  0  0  0  0  0
   35.2240   20.6850   33.9630 N   0  0  0  0  0  0  0  0  0  0  0  0
   36.3150   20.9880   33.1950 C   0  0  0  0  0  0  0  0  0  0  0  0
   36.6130   20.9610   31.7360 C   0  0  0  0  0  0  0  0  0  0  0  0
   36.6010   19.7210   31.1120 N   0  0  0  0  0  0  0  0  0  0  0  0
   36.6860   19.6830   29.6990 C   0  0  0  0  0  0  0  0  0  0  0  0
   37.0840   18.3720   29.1160 C   0  0  0  0  0  0  0  0  0  0  0  0
   36.3980   17.2470   29.7690 N   0  0  0  0  0  0  0  0  0  0  0  0
   36.7840   17.3590   31.1760 C   0  0  0  0  0  0  0  0  0  0  0  0
   36.0170   18.5830   31.6960 C   0  0  0  0  0  0  0  0  0  0  0  0
   40.4996   22.9100   39.0352 H   0  0  0  0  0  0  0  0  0  0  0  0
   38.2766   24.0274   39.5975 H   0  0  0  0  0  0  0  0  0  0  0  0
   36.6121   24.4043   37.7037 H   0  0  0  0  0  0  0  0  0  0  0  0
   41.4741   23.1940   34.3266 H   0  0  0  0  0  0  0  0  0  0  0  0
   41.2329   22.0638   31.9339 H   0  0  0  0  0  0  0  0  0  0  0  0
   37.4596   21.4751   36.2782 H   0  0  0  0  0  0  0  0  0  0  0  0
   34.8940   20.6826   36.1382 H   0  0  0  0  0  0  0  0  0  0  0  0
   35.8657   21.5925   31.2332 H   0  0  0  0  0  0  0  0  0  0  0  0
   37.6516   21.3131   31.6506 H   0  0  0  0  0  0  0  0  0  0  0  0
   35.6989   19.9489   29.2928 H   0  0  0  0  0  0  0  0  0  0  0  0
   37.4831   20.3898   29.4252 H   0  0  0  0  0  0  0  0  0  0  0  0
   36.8318   18.3684   28.0453 H   0  0  0  0  0  0  0  0  0  0  0  0
   38.1657   18.2460   29.2708 H   0  0  0  0  0  0  0  0  0  0  0  0
   35.3769   17.3304   29.6626 H   0  0  0  0  0  0  0  0  0  0  0  0
   36.4932   16.4548   31.7309 H   0  0  0  0  0  0  0  0  0  0  0  0
   37.8716   17.4661   31.3013 H   0  0  0  0  0  0  0  0  0  0  0  0
   36.0963   18.6394   32.7917 H   0  0  0  0  0  0  0  0  0  0  0  0
   34.9507   18.5146   31.4345 H   0  0  0  0  0  0  0  0  0  0  0  0
  1  2  2  0
  3  2  1  0
  4  3  2  0
  5  4  1  0
  5  6  2  0
  6  1  1  0
  7  5  1  0
  8  7  1  0
  9  8  2  0
 10  9  1  0
 10 11  2  0
 11 12  1  0
 11  7  1  0
 12 13  1  0
 14 13  2  0
 15 14  1  0
 16 15  2  0
 16 12  1  0
 17 16  1  0
 18 23  1  0
 18 17  1  0
 19 18  1  0
 20 19  1  0
 20 21  1  0
 21 22  1  0
 22 23  1  0
  1 24  1  0
  2 25  1  0
  3 26  1  0
  8 27  1  0
  9 28  1  0
 13 29  1  0
 14 30  1  0
 17 31  1  0
 17 32  1  0
 19 33  1  0
 19 34  1  0
 20 35  1  0
 20 36  1  0
 21 37  1  0
 22 38  1  0
 22 39  1  0
 23 40  1  0
 23 41  1  0
M  ISO  8  24  14  25  14  26  14  27  14  28  14  29  14  30  14  31   8
M  ISO  8  32   8  33  13  34  13  35  13  36  13  37   5  38  13  39  13
M  ISO  2  40  13  41  13
M  END
>  <minimizedAffinity>  (1) 
-4.92092085

>  <minimizedRMSD>  (1) 
1.105088

$$$$
