
     RDKit          3D

 34 37  0  0  0  0  0  0  0  0999 V2000
   39.8560   22.9870   38.0970 C   0  0  0  0  0  0  0  0  0  0  0  0
   38.5880   23.4830   38.5390 C   0  0  0  0  0  0  0  0  0  0  0  0
   37.6020   23.7500   37.5490 C   0  0  0  0  0  0  0  0  0  0  0  0
   37.8820   23.5310   36.2170 N   0  0  0  0  0  0  0  0  0  0  0  0
   39.1140   23.0550   35.8690 C   0  0  0  0  0  0  0  0  0  0  0  0
   40.0820   22.7880   36.7870 N   0  0  0  0  0  0  0  0  0  0  0  0
   39.4180   22.7950   34.5200 N   0  0  0  0  0  0  0  0  0  0  0  0
   40.4990   23.1200   33.7740 C   0  0  0  0  0  0  0  0  0  0  0  0
   40.3700   22.6550   32.4710 C   0  0  0  0  0  0  0  0  0  0  0  0
   39.1720   22.0230   32.4170 N   0  0  0  0  0  0  0  0  0  0  0  0
   38.6230   22.1190   33.6470 C   0  0  0  0  0  0  0  0  0  0  0  0
   37.3440   21.5560   33.8570 N   0  0  0  0  0  0  0  0  0  0  0  0
   36.9920   21.2900   35.1460 C   0  0  0  0  0  0  0  0  0  0  0  0
   35.6840   20.8100   35.0510 C   0  0  0  0  0  0  0  0  0  0  0  0
   35.2790   20.7900   33.7090 N   0  0  0  0  0  0  0  0  0  0  0  0
   36.3290   21.2550   32.9860 C   0  0  0  0  0  0  0  0  0  0  0  0
   36.5430   21.4230   31.5140 C   0  0  0  0  0  0  0  0  0  0  0  0
   36.5900   20.0560   30.9330 C   0  0  0  0  0  0  0  0  0  0  0  0
   36.7000   19.5040   29.6760 C   0  0  0  0  0  0  0  0  0  0  0  0
   36.6960   18.1710   29.7470 N   0  0  0  0  0  0  0  0  0  0  0  0
   36.5840   17.7980   31.0340 C   0  0  0  0  0  0  0  0  0  0  0  0
   36.5230   18.9290   31.7100 N   0  0  0  0  0  0  0  0  0  0  0  0
   40.6463   22.7685   38.8302 H   0  0  0  0  0  0  0  0  0  0  0  0
   38.3833   23.6517   39.6065 H   0  0  0  0  0  0  0  0  0  0  0  0
   36.6143   24.1319   37.8468 H   0  0  0  0  0  0  0  0  0  0  0  0
   41.3677   23.6800   34.1504 H   0  0  0  0  0  0  0  0  0  0  0  0
   41.0927   22.7752   31.6505 H   0  0  0  0  0  0  0  0  0  0  0  0
   37.5990   21.4229   36.0537 H   0  0  0  0  0  0  0  0  0  0  0  0
   35.0636   20.4944   35.9028 H   0  0  0  0  0  0  0  0  0  0  0  0
   35.7133   21.9946   31.0727 H   0  0  0  0  0  0  0  0  0  0  0  0
   37.4729   21.9735   31.3086 H   0  0  0  0  0  0  0  0  0  0  0  0
   36.7800   20.0814   28.7431 H   0  0  0  0  0  0  0  0  0  0  0  0
   36.5506   16.7743   31.4351 H   0  0  0  0  0  0  0  0  0  0  0  0
   36.4326   18.9624   32.7355 H   0  0  0  0  0  0  0  0  0  0  0  0
  1  2  2  0
  3  2  1  0
  4  3  2  0
  5  4  1  0
  5  6  2  0
  6  1  1  0
  7  5  1  0
  8  7  1  0
  9  8  2  0
 10  9  1  0
 10 11  2  0
 11 12  1  0
 11  7  1  0
 12 13  1  0
 14 13  2  0
 15 14  1  0
 16 15  2  0
 16 12  1  0
 17 16  1  0
 18 17  1  0
 18 22  1  0
 19 20  1  0
 19 18  2  0
 20 21  2  0
 21 22  1  0
  1 23  1  0
  2 24  1  0
  3 25  1  0
  8 26  1  0
  9 27  1  0
 13 28  1  0
 14 29  1  0
 17 30  1  0
 17 31  1  0
 19 32  1  0
 21 33  1  0
 22 34  1  0
M  ISO  8  23  14  24  14  25  14  26  14  27  14  28  14  29  14  30   8
M  ISO  4  31   8  32  14  33  14  34   9
M  END
>  <minimizedAffinity>  (1) 
-4.86656189

>  <minimizedRMSD>  (1) 
0.441052645

$$$$
