
     RDKit          3D

 33 36  0  0  0  0  0  0  0  0999 V2000
   39.8810   23.0190   38.0790 C   0  0  0  0  0  0  0  0  0  0  0  0
   38.5950   23.3740   38.5900 C   0  0  0  0  0  0  0  0  0  0  0  0
   37.5670   23.6450   37.6450 C   0  0  0  0  0  0  0  0  0  0  0  0
   37.8290   23.5610   36.2960 N   0  0  0  0  0  0  0  0  0  0  0  0
   39.0770   23.2150   35.8770 C   0  0  0  0  0  0  0  0  0  0  0  0
   40.0840   22.9500   36.7530 N   0  0  0  0  0  0  0  0  0  0  0  0
   39.3690   23.0880   34.5090 N   0  0  0  0  0  0  0  0  0  0  0  0
   40.4090   23.5450   33.7650 C   0  0  0  0  0  0  0  0  0  0  0  0
   40.2820   23.1720   32.4340 C   0  0  0  0  0  0  0  0  0  0  0  0
   39.1310   22.4650   32.3560 N   0  0  0  0  0  0  0  0  0  0  0  0
   38.6050   22.4270   33.5990 C   0  0  0  0  0  0  0  0  0  0  0  0
   37.3700   21.7630   33.7840 N   0  0  0  0  0  0  0  0  0  0  0  0
   37.0790   21.3580   35.0530 C   0  0  0  0  0  0  0  0  0  0  0  0
   35.7990   20.8020   34.9380 C   0  0  0  0  0  0  0  0  0  0  0  0
   35.3610   20.8840   33.6050 N   0  0  0  0  0  0  0  0  0  0  0  0
   36.3470   21.4840   32.8880 C   0  0  0  0  0  0  0  0  0  0  0  0
   36.4940   21.8140   31.4570 C   0  0  0  0  0  0  0  0  0  0  0  0
   36.8940   20.5740   30.7380 C   0  0  0  0  0  0  0  0  0  0  0  0
   35.9990   19.3470   30.9280 C   0  0  0  0  0  0  0  0  0  0  0  0
   36.9170   18.1180   29.8350 S   0  0  0  0  0  0  0  0  0  0  0  0
   38.2300   19.4060   29.3720 C   0  0  0  0  0  0  0  0  0  0  0  0
   37.9600   20.4900   29.9540 N   0  0  0  0  0  0  0  0  0  0  0  0
   40.7065   22.8017   38.7728 H   0  0  0  0  0  0  0  0  0  0  0  0
   38.4071   23.4354   39.6721 H   0  0  0  0  0  0  0  0  0  0  0  0
   36.5609   23.9222   37.9926 H   0  0  0  0  0  0  0  0  0  0  0  0
   41.2458   24.1357   34.1661 H   0  0  0  0  0  0  0  0  0  0  0  0
   40.9748   23.4036   31.6116 H   0  0  0  0  0  0  0  0  0  0  0  0
   37.7028   21.4471   35.9547 H   0  0  0  0  0  0  0  0  0  0  0  0
   35.2224   20.3661   35.7671 H   0  0  0  0  0  0  0  0  0  0  0  0
   35.5377   22.1842   31.0591 H   0  0  0  0  0  0  0  0  0  0  0  0
   37.2549   22.5967   31.3215 H   0  0  0  0  0  0  0  0  0  0  0  0
   35.0858   19.2199   31.5280 H   0  0  0  0  0  0  0  0  0  0  0  0
   39.0872   19.2344   28.7043 H   0  0  0  0  0  0  0  0  0  0  0  0
  1  2  2  0
  3  2  1  0
  4  3  2  0
  5  4  1  0
  5  6  2  0
  6  1  1  0
  7  5  1  0
  8  7  1  0
  9  8  2  0
 10  9  1  0
 10 11  2  0
 11 12  1  0
 11  7  1  0
 12 13  1  0
 14 13  2  0
 15 14  1  0
 16 15  2  0
 16 12  1  0
 17 16  1  0
 18 19  2  0
 18 17  1  0
 20 19  1  0
 21 20  1  0
 21 22  2  0
 22 18  1  0
  1 23  1  0
  2 24  1  0
  3 25  1  0
  8 26  1  0
  9 27  1  0
 13 28  1  0
 14 29  1  0
 17 30  1  0
 17 31  1  0
 19 32  1  0
 21 33  1  0
M  ISO  8  23  14  24  14  25  14  26  14  27  14  28  14  29  14  30   8
M  ISO  3  31   8  32  14  33  14
M  END
>  <minimizedAffinity>  (1) 
-4.74876308

>  <minimizedRMSD>  (1) 
0.149046257

$$$$
