
     RDKit          3D

 34 37  0  0  0  0  0  0  0  0999 V2000
   39.8610   23.0020   38.1180 C   0  0  0  0  0  0  0  0  0  0  0  0
   38.5740   23.3990   38.5960 C   0  0  0  0  0  0  0  0  0  0  0  0
   37.5750   23.6810   37.6240 C   0  0  0  0  0  0  0  0  0  0  0  0
   37.8620   23.5700   36.2840 N   0  0  0  0  0  0  0  0  0  0  0  0
   39.1110   23.1840   35.8970 C   0  0  0  0  0  0  0  0  0  0  0  0
   40.0890   22.9070   36.7980 N   0  0  0  0  0  0  0  0  0  0  0  0
   39.4260   23.0330   34.5340 N   0  0  0  0  0  0  0  0  0  0  0  0
   40.4910   23.4540   33.8120 C   0  0  0  0  0  0  0  0  0  0  0  0
   40.3850   23.0760   32.4810 C   0  0  0  0  0  0  0  0  0  0  0  0
   39.2120   22.3970   32.3830 N   0  0  0  0  0  0  0  0  0  0  0  0
   38.6600   22.3850   33.6190 C   0  0  0  0  0  0  0  0  0  0  0  0
   37.4080   21.7470   33.7850 N   0  0  0  0  0  0  0  0  0  0  0  0
   37.0920   21.3630   35.0560 C   0  0  0  0  0  0  0  0  0  0  0  0
   35.8040   20.8220   34.9270 C   0  0  0  0  0  0  0  0  0  0  0  0
   35.3910   20.8940   33.5870 N   0  0  0  0  0  0  0  0  0  0  0  0
   36.3930   21.4680   32.8790 C   0  0  0  0  0  0  0  0  0  0  0  0
   36.5850   21.7850   31.4410 C   0  0  0  0  0  0  0  0  0  0  0  0
   36.9330   20.6210   30.6860 N   0  0  0  0  0  0  0  0  0  0  0  0
   36.1760   19.4910   30.6060 C   0  0  0  0  0  0  0  0  0  0  0  0
   36.7400   18.5190   29.8070 C   0  0  0  0  0  0  0  0  0  0  0  0
   37.8940   19.0500   29.3640 N   0  0  0  0  0  0  0  0  0  0  0  0
   37.9650   20.2780   29.9030 C   0  0  0  0  0  0  0  0  0  0  0  0
   40.6659   22.7740   38.8323 H   0  0  0  0  0  0  0  0  0  0  0  0
   38.3645   23.4831   39.6726 H   0  0  0  0  0  0  0  0  0  0  0  0
   36.5691   23.9890   37.9454 H   0  0  0  0  0  0  0  0  0  0  0  0
   41.3346   24.0242   34.2282 H   0  0  0  0  0  0  0  0  0  0  0  0
   41.1019   23.2831   31.6728 H   0  0  0  0  0  0  0  0  0  0  0  0
   37.7027   21.4557   35.9662 H   0  0  0  0  0  0  0  0  0  0  0  0
   35.2075   20.4043   35.7515 H   0  0  0  0  0  0  0  0  0  0  0  0
   35.6502   22.2040   31.0401 H   0  0  0  0  0  0  0  0  0  0  0  0
   37.4089   22.5088   31.3558 H   0  0  0  0  0  0  0  0  0  0  0  0
   35.2142   19.3669   31.1252 H   0  0  0  0  0  0  0  0  0  0  0  0
   36.3333   17.5224   29.5803 H   0  0  0  0  0  0  0  0  0  0  0  0
   38.8113   20.9551   29.7149 H   0  0  0  0  0  0  0  0  0  0  0  0
  1  2  2  0
  3  2  1  0
  4  3  2  0
  5  4  1  0
  5  6  2  0
  6  1  1  0
  7  5  1  0
  8  7  1  0
  9  8  2  0
 10  9  1  0
 10 11  2  0
 11 12  1  0
 11  7  1  0
 12 13  1  0
 14 13  2  0
 15 14  1  0
 16 15  2  0
 16 12  1  0
 17 16  1  0
 18 17  1  0
 19 18  1  0
 20 19  2  0
 21 20  1  0
 21 22  2  0
 22 18  1  0
  1 23  1  0
  2 24  1  0
  3 25  1  0
  8 26  1  0
  9 27  1  0
 13 28  1  0
 14 29  1  0
 17 30  1  0
 17 31  1  0
 19 32  1  0
 20 33  1  0
 22 34  1  0
M  ISO  8  23  14  24  14  25  14  26  14  27  14  28  14  29  14  30   8
M  ISO  4  31   8  32  14  33  14  34  14
M  END
>  <minimizedAffinity>  (1) 
-4.74380827

>  <minimizedRMSD>  (1) 
0.191279739

$$$$
