
     RDKit          3D

 34 37  0  0  0  0  0  0  0  0999 V2000
   39.8050   22.9560   38.1530 C   0  0  0  0  0  0  0  0  0  0  0  0
   38.5430   23.4490   38.5700 C   0  0  0  0  0  0  0  0  0  0  0  0
   37.6020   23.7390   37.5460 C   0  0  0  0  0  0  0  0  0  0  0  0
   37.9150   23.5440   36.2280 N   0  0  0  0  0  0  0  0  0  0  0  0
   39.1510   23.0630   35.9040 C   0  0  0  0  0  0  0  0  0  0  0  0
   40.0860   22.7730   36.8520 N   0  0  0  0  0  0  0  0  0  0  0  0
   39.5100   22.8150   34.5680 N   0  0  0  0  0  0  0  0  0  0  0  0
   40.6290   23.1200   33.8710 C   0  0  0  0  0  0  0  0  0  0  0  0
   40.5490   22.6690   32.5600 C   0  0  0  0  0  0  0  0  0  0  0  0
   39.3290   22.0590   32.4370 N   0  0  0  0  0  0  0  0  0  0  0  0
   38.7360   22.1660   33.6580 C   0  0  0  0  0  0  0  0  0  0  0  0
   37.4390   21.6280   33.8050 N   0  0  0  0  0  0  0  0  0  0  0  0
   37.0440   21.3350   35.0760 C   0  0  0  0  0  0  0  0  0  0  0  0
   35.7330   20.8730   34.9320 C   0  0  0  0  0  0  0  0  0  0  0  0
   35.3640   20.8930   33.5810 N   0  0  0  0  0  0  0  0  0  0  0  0
   36.4440   21.3670   32.8860 C   0  0  0  0  0  0  0  0  0  0  0  0
   36.7070   21.5870   31.4290 C   0  0  0  0  0  0  0  0  0  0  0  0
   36.0000   22.8830   31.0880 C   0  0  0  0  0  0  0  0  0  0  0  0
   36.8830   24.0450   30.6830 C   0  0  0  0  0  0  0  0  0  0  0  0
   36.0550   24.0630   31.9500 C   0  0  0  0  0  0  0  0  0  0  0  0
   40.5684   22.7189   38.9087 H   0  0  0  0  0  0  0  0  0  0  0  0
   38.3043   23.5995   39.6332 H   0  0  0  0  0  0  0  0  0  0  0  0
   36.6082   24.1256   37.8161 H   0  0  0  0  0  0  0  0  0  0  0  0
   41.4927   23.6572   34.2898 H   0  0  0  0  0  0  0  0  0  0  0  0
   41.3132   22.7796   31.7765 H   0  0  0  0  0  0  0  0  0  0  0  0
   37.6251   21.4386   36.0042 H   0  0  0  0  0  0  0  0  0  0  0  0
   35.0862   20.5423   35.7580 H   0  0  0  0  0  0  0  0  0  0  0  0
   37.7872   21.6761   31.2413 H   0  0  0  0  0  0  0  0  0  0  0  0
   36.3462   20.7485   30.8153 H   0  0  0  0  0  0  0  0  0  0  0  0
   35.1539   22.3236   30.6622 H   0  0  0  0  0  0  0  0  0  0  0  0
   37.9781   23.9560   30.7355 H   0  0  0  0  0  0  0  0  0  0  0  0
   36.9864   24.6882   29.7967 H   0  0  0  0  0  0  0  0  0  0  0  0
   35.1818   24.7279   32.0231 H   0  0  0  0  0  0  0  0  0  0  0  0
   36.2776   24.2307   33.0141 H   0  0  0  0  0  0  0  0  0  0  0  0
  1  2  2  0
  3  2  1  0
  4  3  2  0
  5  4  1  0
  5  6  2  0
  6  1  1  0
  7  5  1  0
  8  7  1  0
  9  8  2  0
 10  9  1  0
 10 11  2  0
 11 12  1  0
 11  7  1  0
 12 13  1  0
 14 13  2  0
 15 14  1  0
 16 15  2  0
 16 12  1  0
 17 16  1  0
 18 17  1  0
 18 20  1  0
 19 18  1  0
 19 20  1  0
  1 21  1  0
  2 22  1  0
  3 23  1  0
  8 24  1  0
  9 25  1  0
 13 26  1  0
 14 27  1  0
 17 28  1  0
 17 29  1  0
 18 30  1  0
 19 31  1  0
 19 32  1  0
 20 33  1  0
 20 34  1  0
M  ISO  8  21  14  22  14  23  14  24  14  25  14  26  14  27  14  28   8
M  ISO  6  29   8  30  13  31  13  32  13  33  13  34  13
M  END
>  <minimizedAffinity>  (1) 
-4.72268438

>  <minimizedRMSD>  (1) 
1.14501214

$$$$
