
     RDKit          3D

 29 31  0  0  0  0  0  0  0  0999 V2000
   39.9090   22.9740   38.0050 C   0  0  0  0  0  0  0  0  0  0  0  0
   38.6420   23.3480   38.5470 C   0  0  0  0  0  0  0  0  0  0  0  0
   37.5980   23.6260   37.6210 C   0  0  0  0  0  0  0  0  0  0  0  0
   37.8290   23.5280   36.2660 N   0  0  0  0  0  0  0  0  0  0  0  0
   39.0680   23.1630   35.8250 C   0  0  0  0  0  0  0  0  0  0  0  0
   40.0920   22.8910   36.6770 N   0  0  0  0  0  0  0  0  0  0  0  0
   39.3180   23.0310   34.4490 N   0  0  0  0  0  0  0  0  0  0  0  0
   40.3410   23.4800   33.6870 C   0  0  0  0  0  0  0  0  0  0  0  0
   40.1800   23.1170   32.3580 C   0  0  0  0  0  0  0  0  0  0  0  0
   39.0120   22.4160   32.2910 N   0  0  0  0  0  0  0  0  0  0  0  0
   38.5220   22.3850   33.5640 C   0  0  0  0  0  0  0  0  0  0  0  0
   37.2870   21.7290   33.7750 N   0  0  0  0  0  0  0  0  0  0  0  0
   37.0240   21.3280   35.0530 C   0  0  0  0  0  0  0  0  0  0  0  0
   35.7450   20.7680   34.9770 C   0  0  0  0  0  0  0  0  0  0  0  0
   35.2640   20.8370   33.6630 N   0  0  0  0  0  0  0  0  0  0  0  0
   36.2470   21.4410   32.9250 C   0  0  0  0  0  0  0  0  0  0  0  0
   36.3680   21.7670   31.4680 C   0  0  0  0  0  0  0  0  0  0  0  0
   35.9950   23.1130   31.1480 N   0  0  0  0  0  0  0  0  0  0  0  0
   40.7456   22.7511   38.6835 H   0  0  0  0  0  0  0  0  0  0  0  0
   38.4801   23.4181   39.6328 H   0  0  0  0  0  0  0  0  0  0  0  0
   36.6035   23.9200   37.9879 H   0  0  0  0  0  0  0  0  0  0  0  0
   41.1928   24.0596   34.0723 H   0  0  0  0  0  0  0  0  0  0  0  0
   40.8591   23.3484   31.5242 H   0  0  0  0  0  0  0  0  0  0  0  0
   37.6695   21.4234   35.9386 H   0  0  0  0  0  0  0  0  0  0  0  0
   35.1958   20.3357   35.8264 H   0  0  0  0  0  0  0  0  0  0  0  0
   37.4138   21.6142   31.1632 H   0  0  0  0  0  0  0  0  0  0  0  0
   35.6742   21.1038   30.9306 H   0  0  0  0  0  0  0  0  0  0  0  0
   35.8477   23.6445   32.0179 H   0  0  0  0  0  0  0  0  0  0  0  0
   36.7450   23.5556   30.5980 H   0  0  0  0  0  0  0  0  0  0  0  0
  1  2  2  0
  3  2  1  0
  4  3  2  0
  5  4  1  0
  5  6  2  0
  6  1  1  0
  7  5  1  0
  8  7  1  0
  9  8  2  0
 10  9  1  0
 10 11  2  0
 11 12  1  0
 11  7  1  0
 12 13  1  0
 14 13  2  0
 15 14  1  0
 16 15  2  0
 16 12  1  0
 17 16  1  0
 18 17  1  0
  1 19  1  0
  2 20  1  0
  3 21  1  0
  8 22  1  0
  9 23  1  0
 13 24  1  0
 14 25  1  0
 17 26  1  0
 17 27  1  0
 18 28  1  0
 18 29  1  0
M  ISO  8  19  14  20  14  21  14  22  14  23  14  24  14  25  14  26   8
M  ISO  3  27   8  28   5  29   5
M  END
>  <minimizedAffinity>  (1) 
-4.34673357

>  <minimizedRMSD>  (1) 
0.0345620103

$$$$
