
     RDKit          3D

 46 49  0  0  1  0  0  0  0  0999 V2000
   40.0790   22.8330   38.0250 C   0  0  0  0  0  0  0  0  0  0  0  0
   38.7970   23.1970   38.5720 C   0  0  0  0  0  0  0  0  0  0  0  0
   37.7860   23.6320   37.6490 C   0  0  0  0  0  0  0  0  0  0  0  0
   38.0340   23.6960   36.2990 N   0  0  0  0  0  0  0  0  0  0  0  0
   39.2890   23.3260   35.8690 C   0  0  0  0  0  0  0  0  0  0  0  0
   40.2990   22.9020   36.7020 N   0  0  0  0  0  0  0  0  0  0  0  0
   39.5880   23.3410   34.4950 N   0  0  0  0  0  0  0  0  0  0  0  0
   40.6430   23.8440   33.8110 C   0  0  0  0  0  0  0  0  0  0  0  0
   40.5250   23.6230   32.4440 C   0  0  0  0  0  0  0  0  0  0  0  0
   39.3490   22.9570   32.2850 N   0  0  0  0  0  0  0  0  0  0  0  0
   38.8070   22.8010   33.5190 C   0  0  0  0  0  0  0  0  0  0  0  0
   37.5700   22.1560   33.6220 N   0  0  0  0  0  0  0  0  0  0  0  0
   37.2730   21.6110   34.8240 C   0  0  0  0  0  0  0  0  0  0  0  0
   35.9870   21.0850   34.6520 C   0  0  0  0  0  0  0  0  0  0  0  0
   35.5460   21.3280   33.3400 N   0  0  0  0  0  0  0  0  0  0  0  0
   36.5530   22.0040   32.6950 C   0  0  0  0  0  0  0  0  0  0  0  0
   36.6690   22.4900   31.3170 C   0  0  2  0  0  0  0  0  0  0  0  0
   37.8190   21.8920   30.6510 N   0  0  0  0  0  0  0  0  0  0  0  0
   38.0350   20.5310   30.4280 C   0  0  0  0  0  0  0  0  0  0  0  0
   37.1480   19.7910   29.9290 N   0  0  0  0  0  0  0  0  0  0  0  0
   39.3230   19.9610   30.7850 N   0  0  0  0  0  0  0  0  0  0  0  0
   36.2380   20.0630   29.6310 H   0  0  0  0  0  0  0  0  0  0  0  0
   36.5380   23.8470   31.0590 N   0  0  0  0  0  0  0  0  0  0  0  0
   35.2180   24.2860   30.7320 C   0  0  0  0  0  0  0  0  0  0  0  0
   35.3180   25.8100   30.8610 C   0  0  0  0  0  0  0  0  0  0  0  0
   36.2480   26.0080   32.0280 C   0  0  0  0  0  0  0  0  0  0  0  0
   36.7970   24.6370   32.2700 C   0  0  0  0  0  0  0  0  0  0  0  0
   40.8833   22.4962   38.6956 H   0  0  0  0  0  0  0  0  0  0  0  0
   38.6002   23.1440   39.6530 H   0  0  0  0  0  0  0  0  0  0  0  0
   36.7949   23.9192   38.0300 H   0  0  0  0  0  0  0  0  0  0  0  0
   41.4907   24.3645   34.2805 H   0  0  0  0  0  0  0  0  0  0  0  0
   41.2326   23.9230   31.6570 H   0  0  0  0  0  0  0  0  0  0  0  0
   37.8983   21.5867   35.7287 H   0  0  0  0  0  0  0  0  0  0  0  0
   35.4089   20.5605   35.4271 H   0  0  0  0  0  0  0  0  0  0  0  0
   35.7327   22.1309   30.8650 H   0  0  0  0  0  0  0  0  0  0  0  0
   38.5452   22.5383   30.3107 H   0  0  0  0  0  0  0  0  0  0  0  0
   39.5038   18.9591   30.6290 H   0  0  0  0  0  0  0  0  0  0  0  0
   40.0552   20.5589   31.1940 H   0  0  0  0  0  0  0  0  0  0  0  0
   34.4796   23.8774   31.4375 H   0  0  0  0  0  0  0  0  0  0  0  0
   34.8865   23.9567   29.7362 H   0  0  0  0  0  0  0  0  0  0  0  0
   35.7363   26.2547   29.9460 H   0  0  0  0  0  0  0  0  0  0  0  0
   34.3397   26.2908   31.0086 H   0  0  0  0  0  0  0  0  0  0  0  0
   37.0519   26.7150   31.7752 H   0  0  0  0  0  0  0  0  0  0  0  0
   35.7460   26.4316   32.9103 H   0  0  0  0  0  0  0  0  0  0  0  0
   36.2958   24.1773   33.1346 H   0  0  0  0  0  0  0  0  0  0  0  0
   37.8747   24.6798   32.4860 H   0  0  0  0  0  0  0  0  0  0  0  0
  1  2  2  0
  3  2  1  0
  4  3  2  0
  5  4  1  0
  5  6  2  0
  6  1  1  0
  7  5  1  0
  8  7  1  0
  9  8  2  0
 10  9  1  0
 10 11  2  0
 11 12  1  0
 11  7  1  0
 12 13  1  0
 14 13  2  0
 15 14  1  0
 16 15  2  0
 16 12  1  0
 17 16  1  0
 18 17  1  0
 19 18  1  0
 19 21  1  0
 20 19  2  0
 22 20  1  0
 23 17  1  0
 23 27  1  0
 24 25  1  0
 24 23  1  0
 25 26  1  0
 26 27  1  0
  1 28  1  0
  2 29  1  0
  3 30  1  0
  8 31  1  0
  9 32  1  0
 13 33  1  0
 14 34  1  0
 17 35  1  6
 18 36  1  0
 21 37  1  0
 21 38  1  0
 24 39  1  0
 24 40  1  0
 25 41  1  0
 25 42  1  0
 26 43  1  0
 26 44  1  0
 27 45  1  0
 27 46  1  0
M  ISO  8  28  14  29  14  30  14  31  14  32  14  33  14  34  14  35   8
M  ISO  8  39  13  40  13  41  13  42  13  43  13  44  13  45  13  46  13
M  END
>  <minimizedAffinity>  (1) 
-5.16261196

>  <minimizedRMSD>  (1) 
1.09647477

$$$$
