
     RDKit          3D

 11 11  0  0  0  0  0  0  0  0999 V2000
   39.9930   22.6720   37.5950 C   0  0  0  0  0  0  0  0  0  0  0  0
   39.0510   23.2910   38.4500 C   0  0  0  0  0  0  0  0  0  0  0  0
   37.7380   23.4230   37.9740 C   0  0  0  0  0  0  0  0  0  0  0  0
   37.4450   22.9560   36.7360 N   0  0  0  0  0  0  0  0  0  0  0  0
   38.3810   22.3690   35.9500 C   0  0  0  0  0  0  0  0  0  0  0  0
   39.6410   22.2320   36.3820 N   0  0  0  0  0  0  0  0  0  0  0  0
   38.1130   21.8810   34.6770 O   0  0  0  0  0  0  0  0  0  0  0  0
   41.0325   22.5505   37.9336 H   0  0  0  0  0  0  0  0  0  0  0  0
   39.3367   23.6543   39.4482 H   0  0  0  0  0  0  0  0  0  0  0  0
   36.9617   23.8961   38.5933 H   0  0  0  0  0  0  0  0  0  0  0  0
   37.1998   21.9529   34.3014 H   0  0  0  0  0  0  0  0  0  0  0  0
  1  2  2  0
  3  2  1  0
  4  3  2  0
  5  6  2  0
  5  4  1  0
  6  1  1  0
  7  5  1  0
  1  8  1  0
  2  9  1  0
  3 10  1  0
  7 11  1  0
M  ISO  4   8  14   9  14  10  14  11   3
M  END
>  <minimizedAffinity>  (1) 
-2.69226599

>  <minimizedRMSD>  (1) 
0.267645687

$$$$
