
     RDKit          3D

 27 29  0  0  0  0  0  0  0  0999 V2000
   36.9740   22.0330   35.2450 O   0  0  0  0  0  0  0  0  0  0  0  0
   37.0380   21.9760   33.8960 C   0  0  0  0  0  0  0  0  0  0  0  0
   37.7440   23.0640   33.3680 C   0  0  0  0  0  0  0  0  0  0  0  0
   37.9460   23.2290   32.0020 C   0  0  0  0  0  0  0  0  0  0  0  0
   37.4250   22.2730   31.1230 C   0  0  0  0  0  0  0  0  0  0  0  0
   36.7320   21.2010   31.6240 C   0  0  0  0  0  0  0  0  0  0  0  0
   36.1920   20.2050   30.8230 C   0  0  0  0  0  0  0  0  0  0  0  0
   35.5080   19.1400   31.4100 C   0  0  0  0  0  0  0  0  0  0  0  0
   35.3360   19.0220   32.7910 C   0  0  0  0  0  0  0  0  0  0  0  0
   35.8770   20.0180   33.5720 C   0  0  0  0  0  0  0  0  0  0  0  0
   36.5490   21.0650   32.9840 C   0  0  0  0  0  0  0  0  0  0  0  0
   40.1810   22.1830   36.7450 C   0  0  0  0  0  0  0  0  0  0  0  0
   39.9550   22.9420   37.9070 C   0  0  0  0  0  0  0  0  0  0  0  0
   38.6630   23.4010   38.1550 C   0  0  0  0  0  0  0  0  0  0  0  0
   37.7090   23.0830   37.2580 N   0  0  0  0  0  0  0  0  0  0  0  0
   37.9520   22.3530   36.1520 C   0  0  0  0  0  0  0  0  0  0  0  0
   39.1860   21.9150   35.9140 N   0  0  0  0  0  0  0  0  0  0  0  0
   38.1537   23.8155   34.0589 H   0  0  0  0  0  0  0  0  0  0  0  0
   38.5053   24.0955   31.6194 H   0  0  0  0  0  0  0  0  0  0  0  0
   37.5703   22.3806   30.0380 H   0  0  0  0  0  0  0  0  0  0  0  0
   36.3027   20.2548   29.7297 H   0  0  0  0  0  0  0  0  0  0  0  0
   35.0866   18.3608   30.7579 H   0  0  0  0  0  0  0  0  0  0  0  0
   34.7939   18.1733   33.2336 H   0  0  0  0  0  0  0  0  0  0  0  0
   35.7721   19.9770   34.6662 H   0  0  0  0  0  0  0  0  0  0  0  0
   41.1919   21.8093   36.5250 H   0  0  0  0  0  0  0  0  0  0  0  0
   40.7770   23.1676   38.6023 H   0  0  0  0  0  0  0  0  0  0  0  0
   38.4308   23.9996   39.0482 H   0  0  0  0  0  0  0  0  0  0  0  0
  1 16  1  0
  2  1  1  0
  3  2  2  0
  4  3  1  0
  5  6  1  0
  5  4  2  0
  6 11  2  0
  7  8  2  0
  7  6  1  0
  8  9  1  0
  9 10  2  0
 11 10  1  0
 11  2  1  0
 12 13  2  0
 13 14  1  0
 15 14  2  0
 16 15  1  0
 17 16  2  0
 17 12  1  0
  3 18  1  0
  4 19  1  0
  5 20  1  0
  7 21  1  0
  8 22  1  0
  9 23  1  0
 10 24  1  0
 12 25  1  0
 13 26  1  0
 14 27  1  0
M  ISO  8  18  14  19  14  20  14  21  14  22  14  23  14  24  14  25  14
M  ISO  2  26  14  27  14
M  END
>  <minimizedAffinity>  (1) 
-4.64104986

>  <minimizedRMSD>  (1) 
2.62521386

$$$$
