
     RDKit          3D

 21 22  0  0  0  0  0  0  0  0999 V2000
   39.9160   22.7120   37.6760 C   0  0  0  0  0  0  0  0  0  0  0  0
   38.8220   23.3440   38.3360 C   0  0  0  0  0  0  0  0  0  0  0  0
   37.6200   23.4200   37.6160 C   0  0  0  0  0  0  0  0  0  0  0  0
   37.5520   22.9090   36.3710 N   0  0  0  0  0  0  0  0  0  0  0  0
   38.6350   22.3130   35.7900 C   0  0  0  0  0  0  0  0  0  0  0  0
   39.7950   22.2250   36.4470 N   0  0  0  0  0  0  0  0  0  0  0  0
   38.5900   21.7820   34.5140 O   0  0  0  0  0  0  0  0  0  0  0  0
   37.4740   21.8510   33.6970 C   0  0  0  0  0  0  0  0  0  0  0  0
   36.4360   20.9710   33.7570 C   0  0  0  0  0  0  0  0  0  0  0  0
   35.3570   21.1230   32.8920 C   0  0  0  0  0  0  0  0  0  0  0  0
   35.2980   22.1520   31.9570 C   0  0  0  0  0  0  0  0  0  0  0  0
   36.3790   23.0380   31.9230 C   0  0  0  0  0  0  0  0  0  0  0  0
   37.4510   22.8910   32.7770 C   0  0  0  0  0  0  0  0  0  0  0  0
   40.8813   22.6260   38.1963 H   0  0  0  0  0  0  0  0  0  0  0  0
   38.9150   23.7500   39.3541 H   0  0  0  0  0  0  0  0  0  0  0  0
   36.7361   23.8952   38.0664 H   0  0  0  0  0  0  0  0  0  0  0  0
   36.4508   20.1459   34.4843 H   0  0  0  0  0  0  0  0  0  0  0  0
   34.5239   20.4069   32.9490 H   0  0  0  0  0  0  0  0  0  0  0  0
   34.4409   22.2631   31.2765 H   0  0  0  0  0  0  0  0  0  0  0  0
   36.3740   23.8680   31.2012 H   0  0  0  0  0  0  0  0  0  0  0  0
   38.2909   23.5997   32.7296 H   0  0  0  0  0  0  0  0  0  0  0  0
  1  2  2  0
  3  2  1  0
  4  3  2  0
  5  4  1  0
  5  6  2  0
  6  1  1  0
  7  5  1  0
  8  9  2  0
  8  7  1  0
 10  9  1  0
 11 10  2  0
 12 11  1  0
 12 13  2  0
 13  8  1  0
  1 14  1  0
  2 15  1  0
  3 16  1  0
  9 17  1  0
 10 18  1  0
 11 19  1  0
 12 20  1  0
 13 21  1  0
M  ISO  8  14  14  15  14  16  14  17  14  18  14  19  14  20  14  21  14
M  END
>  <minimizedAffinity>  (1) 
-4.12205219

>  <minimizedRMSD>  (1) 
0.754665554

$$$$
