
     RDKit          3D

 18 19  0  0  0  0  0  0  0  0999 V2000
   39.7830   22.7770   37.9200 C   0  0  0  0  0  0  0  0  0  0  0  0
   39.0330   23.6240   38.7560 C   0  0  0  0  0  0  0  0  0  0  0  0
   37.8730   24.2000   38.2300 C   0  0  0  0  0  0  0  0  0  0  0  0
   37.5370   23.9100   36.9500 N   0  0  0  0  0  0  0  0  0  0  0  0
   38.2850   23.0900   36.1810 C   0  0  0  0  0  0  0  0  0  0  0  0
   39.3960   22.5280   36.6590 N   0  0  0  0  0  0  0  0  0  0  0  0
   37.9630   22.7810   34.8730 O   0  0  0  0  0  0  0  0  0  0  0  0
   35.4470   20.2910   35.0570 N   0  0  0  0  0  0  0  0  0  0  0  0
   36.2750   21.1360   35.6480 N   0  0  0  0  0  0  0  0  0  0  0  0
   36.9750   21.7930   34.7070 C   0  0  0  0  0  0  0  0  0  0  0  0
   36.5880   21.3580   33.4340 C   0  0  0  0  0  0  0  0  0  0  0  0
   35.6250   20.4140   33.7330 C   0  0  0  0  0  0  0  0  0  0  0  0
   40.7017   22.3111   38.3059 H   0  0  0  0  0  0  0  0  0  0  0  0
   39.3490   23.8265   39.7900 H   0  0  0  0  0  0  0  0  0  0  0  0
   37.2495   24.8709   38.8392 H   0  0  0  0  0  0  0  0  0  0  0  0
   34.7868   19.6552   35.5269 H   0  0  0  0  0  0  0  0  0  0  0  0
   36.9558   21.6838   32.4498 H   0  0  0  0  0  0  0  0  0  0  0  0
   35.0723   19.8347   32.9787 H   0  0  0  0  0  0  0  0  0  0  0  0
  1  2  2  0
  3  2  1  0
  4  3  2  0
  5  6  2  0
  5  4  1  0
  6  1  1  0
  7  5  1  0
  8  9  1  0
 10  7  1  0
 10  9  2  0
 11 12  2  0
 11 10  1  0
 12  8  1  0
  1 13  1  0
  2 14  1  0
  3 15  1  0
  8 16  1  0
 11 17  1  0
 12 18  1  0
M  ISO  6  13  14  14  14  15  14  16   9  17  14  18  14
M  END
>  <minimizedAffinity>  (1) 
-3.80997896

>  <minimizedRMSD>  (1) 
1.18882501

$$$$
