
     RDKit          3D

 18 19  0  0  0  0  0  0  0  0999 V2000
   39.8490   22.9240   37.5120 C   0  0  0  0  0  0  0  0  0  0  0  0
   39.0520   23.2050   38.6360 C   0  0  0  0  0  0  0  0  0  0  0  0
   37.8840   23.9370   38.4280 C   0  0  0  0  0  0  0  0  0  0  0  0
   37.5830   24.3330   37.1730 N   0  0  0  0  0  0  0  0  0  0  0  0
   38.3850   24.0370   36.1160 C   0  0  0  0  0  0  0  0  0  0  0  0
   39.5020   23.3390   36.2980 N   0  0  0  0  0  0  0  0  0  0  0  0
   38.0960   24.4310   34.8280 O   0  0  0  0  0  0  0  0  0  0  0  0
   37.6210   25.6520   34.4530 C   0  0  0  0  0  0  0  0  0  0  0  0
   37.4670   26.9100   35.0010 C   0  0  0  0  0  0  0  0  0  0  0  0
   36.8960   27.7330   34.0550 C   0  0  0  0  0  0  0  0  0  0  0  0
   36.7160   26.9690   32.9630 N   0  0  0  0  0  0  0  0  0  0  0  0
   37.1460   25.7250   33.1890 N   0  0  0  0  0  0  0  0  0  0  0  0
   40.7781   22.3493   37.6401 H   0  0  0  0  0  0  0  0  0  0  0  0
   39.3391   22.8605   39.6404 H   0  0  0  0  0  0  0  0  0  0  0  0
   37.2210   24.1869   39.2694 H   0  0  0  0  0  0  0  0  0  0  0  0
   37.7523   27.2055   36.0214 H   0  0  0  0  0  0  0  0  0  0  0  0
   36.6399   28.7966   34.1694 H   0  0  0  0  0  0  0  0  0  0  0  0
   36.3046   27.2969   32.0775 H   0  0  0  0  0  0  0  0  0  0  0  0
  1  2  2  0
  3  2  1  0
  4  3  2  0
  5  6  2  0
  5  4  1  0
  6  1  1  0
  7  5  1  0
  8  7  1  0
  8  9  1  0
 10  9  2  0
 11 12  1  0
 11 10  1  0
 12  8  2  0
  1 13  1  0
  2 14  1  0
  3 15  1  0
  9 16  1  0
 10 17  1  0
 11 18  1  0
M  ISO  6  13  14  14  14  15  14  16  14  17  14  18   9
M  END
>  <minimizedAffinity>  (1) 
-3.63184595

>  <minimizedRMSD>  (1) 
4.53796577

$$$$
