
     RDKit          3D

 17 18  0  0  0  0  0  0  0  0999 V2000
   39.9040   22.7160   37.6480 C   0  0  0  0  0  0  0  0  0  0  0  0
   38.8230   23.3400   38.3060 C   0  0  0  0  0  0  0  0  0  0  0  0
   37.6230   23.4070   37.5900 C   0  0  0  0  0  0  0  0  0  0  0  0
   37.5490   22.8900   36.3400 N   0  0  0  0  0  0  0  0  0  0  0  0
   38.6320   22.3000   35.7620 C   0  0  0  0  0  0  0  0  0  0  0  0
   39.7970   22.2120   36.4030 N   0  0  0  0  0  0  0  0  0  0  0  0
   38.6020   21.7620   34.4940 O   0  0  0  0  0  0  0  0  0  0  0  0
   37.4990   21.9210   33.6280 C   0  0  0  0  0  0  0  0  0  0  0  0
   37.5330   23.0150   32.7220 C   0  0  0  0  0  0  0  0  0  0  0  0
   35.8800   22.7240   31.8750 S   0  0  0  0  0  0  0  0  0  0  0  0
   35.4960   21.2140   32.9030 C   0  0  0  0  0  0  0  0  0  0  0  0
   36.5100   21.0230   33.7350 N   0  0  0  0  0  0  0  0  0  0  0  0
   40.8690   22.6382   38.1703 H   0  0  0  0  0  0  0  0  0  0  0  0
   38.9182   23.7498   39.3224 H   0  0  0  0  0  0  0  0  0  0  0  0
   36.7388   23.8799   38.0424 H   0  0  0  0  0  0  0  0  0  0  0  0
   38.2937   23.7938   32.5644 H   0  0  0  0  0  0  0  0  0  0  0  0
   34.5904   20.5938   32.8312 H   0  0  0  0  0  0  0  0  0  0  0  0
  1  2  2  0
  3  2  1  0
  4  3  2  0
  5  4  1  0
  5  6  2  0
  6  1  1  0
  7  5  1  0
  8 12  1  0
  8  7  1  0
  9  8  2  0
 10  9  1  0
 10 11  1  0
 11 12  2  0
  1 13  1  0
  2 14  1  0
  3 15  1  0
  9 16  1  0
 11 17  1  0
M  ISO  5  13  14  14  14  15  14  16  14  17  14
M  END
>  <minimizedAffinity>  (1) 
-3.53077722

>  <minimizedRMSD>  (1) 
0.811016023

$$$$
