
     RDKit          3D

 15 15  0  0  0  0  0  0  0  0999 V2000
   39.7710   23.0240   36.9550 C   0  0  0  0  0  0  0  0  0  0  0  0
   39.1190   23.0690   38.2230 C   0  0  0  0  0  0  0  0  0  0  0  0
   38.1400   24.0470   38.4060 C   0  0  0  0  0  0  0  0  0  0  0  0
   37.8600   24.8930   37.3930 N   0  0  0  0  0  0  0  0  0  0  0  0
   38.4990   24.8190   36.2070 C   0  0  0  0  0  0  0  0  0  0  0  0
   39.4390   23.8990   35.9950 N   0  0  0  0  0  0  0  0  0  0  0  0
   38.2330   25.6770   35.1380 O   0  0  0  0  0  0  0  0  0  0  0  0
   37.7640   26.9490   35.3570 C   0  0  0  0  0  0  0  0  0  0  0  0
   38.6160   27.6650   36.2770 N   0  0  0  0  0  0  0  0  0  0  0  0
   36.7320   27.4630   34.8430 O   0  0  0  0  0  0  0  0  0  0  0  0
   40.5483   22.2693   36.7644 H   0  0  0  0  0  0  0  0  0  0  0  0
   39.3774   22.3613   39.0245 H   0  0  0  0  0  0  0  0  0  0  0  0
   37.6040   24.1269   39.3632 H   0  0  0  0  0  0  0  0  0  0  0  0
   38.3907   28.6354   36.5387 H   0  0  0  0  0  0  0  0  0  0  0  0
   39.4490   27.2053   36.6716 H   0  0  0  0  0  0  0  0  0  0  0  0
  1  2  2  0
  2  3  1  0
  4  3  2  0
  5  4  1  0
  6  5  2  0
  6  1  1  0
  7  8  1  0
  7  5  1  0
  8  9  1  0
 10  8  2  0
  1 11  1  0
  2 12  1  0
  3 13  1  0
  9 14  1  0
  9 15  1  0
M  ISO  3  11  14  12  14  13  14
M  END
>  <minimizedAffinity>  (1) 
-3.48986292

>  <minimizedRMSD>  (1) 
4.37181187

$$$$
