
     RDKit          3D

 14 14  0  0  0  0  0  0  0  0999 V2000
   39.9930   22.7170   37.6530 C   0  0  0  0  0  0  0  0  0  0  0  0
   38.9800   23.3100   38.4440 C   0  0  0  0  0  0  0  0  0  0  0  0
   37.6980   23.3900   37.9020 C   0  0  0  0  0  0  0  0  0  0  0  0
   37.4740   22.9040   36.6550 N   0  0  0  0  0  0  0  0  0  0  0  0
   38.4800   22.3420   35.9320 C   0  0  0  0  0  0  0  0  0  0  0  0
   39.7300   22.2490   36.4260 N   0  0  0  0  0  0  0  0  0  0  0  0
   38.3000   21.8300   34.6500 O   0  0  0  0  0  0  0  0  0  0  0  0
   37.7110   22.6340   33.6560 C   0  0  0  0  0  0  0  0  0  0  0  0
   38.0990   23.8310   33.4290 O   0  0  0  0  0  0  0  0  0  0  0  0
   36.6590   22.1410   32.8640 O   0  0  0  0  0  0  0  0  0  0  0  0
   41.0146   22.6391   38.0533 H   0  0  0  0  0  0  0  0  0  0  0  0
   39.1968   23.6945   39.4516 H   0  0  0  0  0  0  0  0  0  0  0  0
   36.8775   23.8419   38.4786 H   0  0  0  0  0  0  0  0  0  0  0  0
   36.2523   22.7155   32.1678 H   0  0  0  0  0  0  0  0  0  0  0  0
  1  2  2  0
  3  2  1  0
  4  3  2  0
  5  6  2  0
  5  4  1  0
  6  1  1  0
  7  5  1  0
  8  7  1  0
  9  8  2  0
 10  8  1  0
  1 11  1  0
  2 12  1  0
  3 13  1  0
 10 14  1  0
M  ISO  4  11  14  12  14  13  14  14   3
M  END
>  <minimizedAffinity>  (1) 
-2.96960306

>  <minimizedRMSD>  (1) 
0.528537095

$$$$
