
     RDKit          3D

 25 27  0  0  1  0  0  0  0  0999 V2000
   38.2800   21.7990   34.6480 O   0  0  0  0  0  0  0  0  0  0  0  0
   40.0040   22.6640   37.5990 C   0  0  0  0  0  0  0  0  0  0  0  0
   39.0280   23.2970   38.4090 C   0  0  0  0  0  0  0  0  0  0  0  0
   37.7290   23.4090   37.8650 C   0  0  0  0  0  0  0  0  0  0  0  0
   37.5260   22.9100   36.6330 N   0  0  0  0  0  0  0  0  0  0  0  0
   38.5060   22.3080   35.8980 C   0  0  0  0  0  0  0  0  0  0  0  0
   39.7370   22.1840   36.3700 N   0  0  0  0  0  0  0  0  0  0  0  0
   36.9850   21.7470   34.0400 C   0  0  1  0  0  0  0  0  0  0  0  0
   36.9220   22.2910   32.6410 C   0  0  0  0  0  0  0  0  0  0  0  0
   36.8920   20.8150   32.8610 C   0  0  2  0  0  0  0  0  0  0  0  0
   35.5830   20.1490   32.5560 C   0  0  0  0  0  0  0  0  0  0  0  0
   35.4160   18.6770   32.8090 C   0  0  0  0  0  0  0  0  0  0  0  0
   35.6830   19.1390   31.4310 C   0  0  0  0  0  0  0  0  0  0  0  0
   41.0259   22.5603   37.9926 H   0  0  0  0  0  0  0  0  0  0  0  0
   39.2699   23.6817   39.4108 H   0  0  0  0  0  0  0  0  0  0  0  0
   36.9139   23.8867   38.4284 H   0  0  0  0  0  0  0  0  0  0  0  0
   36.4107   21.9052   34.9647 H   0  0  0  0  0  0  0  0  0  0  0  0
   37.8103   22.7615   32.1944 H   0  0  0  0  0  0  0  0  0  0  0  0
   36.2757   23.0104   32.1169 H   0  0  0  0  0  0  0  0  0  0  0  0
   37.4830   19.9453   32.5380 H   0  0  0  0  0  0  0  0  0  0  0  0
   34.9785   21.0271   32.8269 H   0  0  0  0  0  0  0  0  0  0  0  0
   36.1914   18.1255   33.3608 H   0  0  0  0  0  0  0  0  0  0  0  0
   34.6364   18.0585   33.2777 H   0  0  0  0  0  0  0  0  0  0  0  0
   34.8905   19.0841   30.6701 H   0  0  0  0  0  0  0  0  0  0  0  0
   36.4363   18.9022   30.6652 H   0  0  0  0  0  0  0  0  0  0  0  0
  1  6  1  0
  2  3  2  0
  4  3  1  0
  5  4  2  0
  6  7  2  0
  6  5  1  0
  7  2  1  0
  8  1  1  0
  9 10  1  0
  9  8  1  0
 10  8  1  0
 11 12  1  0
 11 10  1  0
 13 11  1  0
 13 12  1  0
  2 14  1  0
  3 15  1  0
  4 16  1  0
  8 17  1  1
  9 18  1  0
  9 19  1  0
 10 20  1  6
 11 21  1  0
 12 22  1  0
 12 23  1  0
 13 24  1  0
 13 25  1  0
M  ISO  8  14  14  15  14  16  14  17  13  18  13  19  13  20  13  21  13
M  ISO  4  22  13  23  13  24  13  25  13
M  END
>  <minimizedAffinity>  (1) 
-3.87454104

>  <minimizedRMSD>  (1) 
1.94298255

$$$$
