
     RDKit          3D

 30 32  0  0  1  0  0  0  0  0999 V2000
   37.8180   23.0440   33.5000 C   0  0  1  0  0  0  0  0  0  0  0  0
   37.5780   22.9750   32.0210 C   0  0  0  0  0  0  0  0  0  0  0  0
   37.2180   21.8120   32.8740 C   0  0  2  0  0  0  0  0  0  0  0  0
   35.8700   21.4320   33.0520 N   0  0  0  0  0  0  0  0  0  0  0  0
   35.5730   20.3650   33.9390 C   0  0  0  0  0  0  0  0  0  0  0  0
   35.3740   19.1270   33.0900 C   0  0  0  0  0  0  0  0  0  0  0  0
   34.8150   19.7000   31.8070 C   0  0  0  0  0  0  0  0  0  0  0  0
   35.1660   21.1620   31.8100 C   0  0  0  0  0  0  0  0  0  0  0  0
   39.1780   22.8890   33.9040 O   0  0  0  0  0  0  0  0  0  0  0  0
   41.1290   21.9570   36.6890 C   0  0  0  0  0  0  0  0  0  0  0  0
   40.4170   22.4650   37.8040 C   0  0  0  0  0  0  0  0  0  0  0  0
   39.2220   23.1520   37.5300 C   0  0  0  0  0  0  0  0  0  0  0  0
   38.8520   23.2720   36.2450 N   0  0  0  0  0  0  0  0  0  0  0  0
   39.5770   22.7630   35.2070 C   0  0  0  0  0  0  0  0  0  0  0  0
   40.7070   22.1100   35.4220 N   0  0  0  0  0  0  0  0  0  0  0  0
   37.5349   23.7414   34.3022 H   0  0  0  0  0  0  0  0  0  0  0  0
   38.4308   22.9049   31.3298 H   0  0  0  0  0  0  0  0  0  0  0  0
   37.0373   23.5992   31.2943 H   0  0  0  0  0  0  0  0  0  0  0  0
   37.4708   20.7418   32.8999 H   0  0  0  0  0  0  0  0  0  0  0  0
   36.4072   20.2127   34.6396 H   0  0  0  0  0  0  0  0  0  0  0  0
   34.6719   20.5849   34.5304 H   0  0  0  0  0  0  0  0  0  0  0  0
   36.3279   18.6088   32.9121 H   0  0  0  0  0  0  0  0  0  0  0  0
   34.7214   18.3743   33.5564 H   0  0  0  0  0  0  0  0  0  0  0  0
   33.7231   19.5705   31.7759 H   0  0  0  0  0  0  0  0  0  0  0  0
   35.2324   19.1903   30.9261 H   0  0  0  0  0  0  0  0  0  0  0  0
   35.8127   21.3961   30.9516 H   0  0  0  0  0  0  0  0  0  0  0  0
   34.2603   21.7813   31.7318 H   0  0  0  0  0  0  0  0  0  0  0  0
   42.0684   21.4135   36.8683 H   0  0  0  0  0  0  0  0  0  0  0  0
   40.7815   22.3284   38.8328 H   0  0  0  0  0  0  0  0  0  0  0  0
   38.6110   23.5766   38.3402 H   0  0  0  0  0  0  0  0  0  0  0  0
  1  9  1  0
  2  3  1  0
  2  1  1  0
  3  4  1  0
  3  1  1  0
  4  5  1  0
  6  5  1  0
  7  8  1  0
  7  6  1  0
  8  4  1  0
  9 14  1  0
 10 11  2  0
 12 11  1  0
 13 12  2  0
 14 15  2  0
 14 13  1  0
 15 10  1  0
  1 16  1  1
  2 17  1  0
  2 18  1  0
  3 19  1  6
  5 20  1  0
  5 21  1  0
  6 22  1  0
  6 23  1  0
  7 24  1  0
  7 25  1  0
  8 26  1  0
  8 27  1  0
 10 28  1  0
 11 29  1  0
 12 30  1  0
M  ISO  8  16  13  17  13  18  13  19  13  20  13  21  13  22  13  23  13
M  ISO  7  24  13  25  13  26  13  27  13  28  14  29  14  30  14
M  END
>  <minimizedAffinity>  (1) 
-3.8215363

>  <minimizedRMSD>  (1) 
1.97568095

$$$$
