
     RDKit          3D

 19 20  0  0  1  0  0  0  0  0999 V2000
   37.8730   21.7050   34.7690 O   0  0  0  0  0  0  0  0  0  0  0  0
   39.9500   22.6900   37.4360 C   0  0  0  0  0  0  0  0  0  0  0  0
   39.0840   23.3520   38.3420 C   0  0  0  0  0  0  0  0  0  0  0  0
   37.7320   23.4430   37.9740 C   0  0  0  0  0  0  0  0  0  0  0  0
   37.3530   22.8990   36.7970 N   0  0  0  0  0  0  0  0  0  0  0  0
   38.2370   22.2710   35.9650 C   0  0  0  0  0  0  0  0  0  0  0  0
   39.5430   22.1590   36.2700 N   0  0  0  0  0  0  0  0  0  0  0  0
   37.6550   22.4710   33.5850 C   0  0  1  0  0  0  0  0  0  0  0  0
   37.9200   21.7480   32.2980 C   0  0  0  0  0  0  0  0  0  0  0  0
   36.5170   21.9870   32.7270 C   0  0  1  0  0  0  0  0  0  0  0  0
   35.6280   20.5670   33.4060 S   0  0  0  0  0  0  0  0  0  0  0  0
   41.0141   22.6061   37.7017 H   0  0  0  0  0  0  0  0  0  0  0  0
   39.4534   23.7743   39.2882 H   0  0  0  0  0  0  0  0  0  0  0  0
   37.0014   23.9436   38.6263 H   0  0  0  0  0  0  0  0  0  0  0  0
   37.9620   23.4355   34.0156 H   0  0  0  0  0  0  0  0  0  0  0  0
   38.3332   20.7287   32.3165 H   0  0  0  0  0  0  0  0  0  0  0  0
   38.5010   21.9693   31.3905 H   0  0  0  0  0  0  0  0  0  0  0  0
   35.6372   22.4420   32.2485 H   0  0  0  0  0  0  0  0  0  0  0  0
   35.6609   20.6195   34.7746 H   0  0  0  0  0  0  0  0  0  0  0  0
  1  6  1  0
  2  3  2  0
  4  3  1  0
  5  4  2  0
  6  7  2  0
  6  5  1  0
  7  2  1  0
  8  1  1  0
  9 10  1  0
  9  8  1  0
 10 11  1  0
 10  8  1  0
  2 12  1  0
  3 13  1  0
  4 14  1  0
  8 15  1  1
  9 16  1  0
  9 17  1  0
 10 18  1  6
 11 19  1  0
M  ISO  8  12  14  13  14  14  14  15  13  16  13  17  13  18  13  19  11
M  END
>  <minimizedAffinity>  (1) 
-3.24090219

>  <minimizedRMSD>  (1) 
1.08930075

$$$$
