
     RDKit          3D

 38 40  0  0  1  0  0  0  0  0999 V2000
   39.7050   23.2170   35.0080 C   0  0  1  0  0  0  0  0  0  0  0  0
   39.9300   24.6950   35.2560 C   0  0  0  0  0  0  0  0  0  0  0  0
   40.8420   23.6720   35.8550 C   0  0  2  0  0  0  0  0  0  0  0  0
   42.2340   23.6450   35.3700 C   0  0  0  0  0  0  0  0  0  0  0  0
   43.1740   23.1060   36.4310 C   0  0  0  0  0  0  0  0  0  0  0  0
   43.9970   24.2990   36.8710 C   0  0  0  0  0  0  0  0  0  0  0  0
   44.0210   25.2490   35.6890 C   0  0  0  0  0  0  0  0  0  0  0  0
   42.6640   25.0660   35.0790 C   0  0  0  0  0  0  0  0  0  0  0  0
   38.5700   22.7330   35.7330 O   0  0  0  0  0  0  0  0  0  0  0  0
   35.6400   20.7780   35.5030 C   0  0  0  0  0  0  0  0  0  0  0  0
   35.5320   20.4730   34.1330 C   0  0  0  0  0  0  0  0  0  0  0  0
   36.5380   20.9840   33.2780 C   0  0  0  0  0  0  0  0  0  0  0  0
   37.5170   21.7170   33.8300 N   0  0  0  0  0  0  0  0  0  0  0  0
   37.5730   21.9820   35.1700 C   0  0  0  0  0  0  0  0  0  0  0  0
   36.6500   21.5170   35.9750 N   0  0  0  0  0  0  0  0  0  0  0  0
   36.5120   20.7260   31.8730 N   0  0  0  0  0  0  0  0  0  0  0  0
   35.7060   19.6610   31.3330 C   0  0  0  0  0  0  0  0  0  0  0  0
   34.5750   19.4260   31.9440 N   0  0  0  0  0  0  0  0  0  0  0  0
   36.2180   18.9620   30.1860 N   0  0  0  0  0  0  0  0  0  0  0  0
   34.0020   18.6520   31.5430 H   0  0  0  0  0  0  0  0  0  0  0  0
   39.6212   22.5529   34.1351 H   0  0  0  0  0  0  0  0  0  0  0  0
   40.2865   25.3433   34.4420 H   0  0  0  0  0  0  0  0  0  0  0  0
   39.3213   25.5241   35.6459 H   0  0  0  0  0  0  0  0  0  0  0  0
   41.1759   23.3919   36.8650 H   0  0  0  0  0  0  0  0  0  0  0  0
   42.2768   23.0027   34.4780 H   0  0  0  0  0  0  0  0  0  0  0  0
   42.6053   22.6954   37.2783 H   0  0  0  0  0  0  0  0  0  0  0  0
   43.8036   22.2894   36.0478 H   0  0  0  0  0  0  0  0  0  0  0  0
   43.5318   24.7840   37.7418 H   0  0  0  0  0  0  0  0  0  0  0  0
   45.0130   24.0000   37.1684 H   0  0  0  0  0  0  0  0  0  0  0  0
   44.1685   26.2876   36.0199 H   0  0  0  0  0  0  0  0  0  0  0  0
   44.8423   25.0447   34.9864 H   0  0  0  0  0  0  0  0  0  0  0  0
   42.7133   25.2304   33.9925 H   0  0  0  0  0  0  0  0  0  0  0  0
   41.9458   25.7862   35.4980 H   0  0  0  0  0  0  0  0  0  0  0  0
   34.8775   20.4005   36.2002 H   0  0  0  0  0  0  0  0  0  0  0  0
   34.7024   19.8644   33.7439 H   0  0  0  0  0  0  0  0  0  0  0  0
   37.0765   21.3086   31.2383 H   0  0  0  0  0  0  0  0  0  0  0  0
   35.6753   18.1935   29.7667 H   0  0  0  0  0  0  0  0  0  0  0  0
   37.1275   19.2296   29.7835 H   0  0  0  0  0  0  0  0  0  0  0  0
  1  2  1  0
  1  9  1  0
  1  3  1  0
  2  3  1  0
  4  3  1  0
  4  5  1  0
  5  6  1  0
  7  6  1  0
  8  4  1  0
  8  7  1  0
 10 15  2  0
 11 10  1  0
 12 13  1  0
 12 11  2  0
 13 14  2  0
 14  9  1  0
 14 15  1  0
 16 12  1  0
 17 16  1  0
 17 18  2  0
 19 17  1  0
 20 18  1  0
  1 21  1  6
  2 22  1  0
  2 23  1  0
  3 24  1  1
  4 25  1  0
  5 26  1  0
  5 27  1  0
  6 28  1  0
  6 29  1  0
  7 30  1  0
  7 31  1  0
  8 32  1  0
  8 33  1  0
 10 34  1  0
 11 35  1  0
 16 36  1  0
 19 37  1  0
 19 38  1  0
M  ISO  8  21  13  22  13  23  13  24  13  25  13  26  13  27  13  28  13
M  ISO  7  29  13  30  13  31  13  32  13  33  13  34  14  35  14
M  END
>  <minimizedAffinity>  (1) 
-4.83152533

>  <minimizedRMSD>  (1) 
0.169406354

$$$$
