
     RDKit          3D

 45 49  0  0  1  0  0  0  0  0999 V2000
   39.6530   23.1790   34.8470 C   0  0  1  0  0  0  0  0  0  0  0  0
   39.8660   24.5970   35.3360 C   0  0  0  0  0  0  0  0  0  0  0  0
   40.7750   23.5110   35.7800 C   0  0  2  0  0  0  0  0  0  0  0  0
   42.1780   23.5640   35.3100 C   0  0  0  0  0  0  0  0  0  0  0  0
   43.1300   23.0140   36.3340 C   0  0  0  0  0  0  0  0  0  0  0  0
   43.9030   24.2120   36.8570 C   0  0  0  0  0  0  0  0  0  0  0  0
   43.8850   25.2270   35.7300 C   0  0  0  0  0  0  0  0  0  0  0  0
   42.5510   25.0070   35.0820 C   0  0  0  0  0  0  0  0  0  0  0  0
   38.5250   22.5590   35.4380 O   0  0  0  0  0  0  0  0  0  0  0  0
   35.5540   20.7790   34.7820 C   0  0  0  0  0  0  0  0  0  0  0  0
   35.7880   20.2130   33.5130 C   0  0  0  0  0  0  0  0  0  0  0  0
   37.0350   20.4750   32.8760 C   0  0  0  0  0  0  0  0  0  0  0  0
   37.8480   21.2530   33.6000 N   0  0  0  0  0  0  0  0  0  0  0  0
   37.6060   21.7790   34.8040 C   0  0  0  0  0  0  0  0  0  0  0  0
   36.4680   21.5530   35.4080 N   0  0  0  0  0  0  0  0  0  0  0  0
   37.1700   19.8470   31.5760 C   0  0  0  0  0  0  0  0  0  0  0  0
   37.5950   20.5300   30.5030 N   0  0  0  0  0  0  0  0  0  0  0  0
   37.7360   19.9990   29.2870 C   0  0  0  0  0  0  0  0  0  0  0  0
   37.4570   18.7090   29.0360 N   0  0  0  0  0  0  0  0  0  0  0  0
   37.0240   17.9410   30.0510 C   0  0  0  0  0  0  0  0  0  0  0  0
   36.7380   16.6250   29.8060 C   0  0  0  0  0  0  0  0  0  0  0  0
   36.2920   15.8170   30.8310 C   0  0  0  0  0  0  0  0  0  0  0  0
   36.1470   16.3800   32.1020 C   0  0  0  0  0  0  0  0  0  0  0  0
   36.4540   17.7090   32.2740 C   0  0  0  0  0  0  0  0  0  0  0  0
   36.9000   18.5490   31.2790 C   0  0  0  0  0  0  0  0  0  0  0  0
   39.5861   22.6663   33.8761 H   0  0  0  0  0  0  0  0  0  0  0  0
   40.2292   25.3697   34.6424 H   0  0  0  0  0  0  0  0  0  0  0  0
   39.2426   25.3472   35.8444 H   0  0  0  0  0  0  0  0  0  0  0  0
   41.0969   23.0873   36.7428 H   0  0  0  0  0  0  0  0  0  0  0  0
   42.2501   22.9627   34.3917 H   0  0  0  0  0  0  0  0  0  0  0  0
   42.5766   22.5276   37.1508 H   0  0  0  0  0  0  0  0  0  0  0  0
   43.7987   22.2548   35.9022 H   0  0  0  0  0  0  0  0  0  0  0  0
   43.4152   24.6233   37.7530 H   0  0  0  0  0  0  0  0  0  0  0  0
   44.9290   23.9415   37.1473 H   0  0  0  0  0  0  0  0  0  0  0  0
   43.9674   26.2514   36.1221 H   0  0  0  0  0  0  0  0  0  0  0  0
   44.7259   25.1062   35.0312 H   0  0  0  0  0  0  0  0  0  0  0  0
   42.6171   25.2135   34.0036 H   0  0  0  0  0  0  0  0  0  0  0  0
   41.7928   25.6790   35.5105 H   0  0  0  0  0  0  0  0  0  0  0  0
   34.5932   20.5839   35.2808 H   0  0  0  0  0  0  0  0  0  0  0  0
   35.0272   19.5848   33.0266 H   0  0  0  0  0  0  0  0  0  0  0  0
   38.0917   20.6372   28.4647 H   0  0  0  0  0  0  0  0  0  0  0  0
   36.8636   16.2128   28.7939 H   0  0  0  0  0  0  0  0  0  0  0  0
   36.0566   14.7574   30.6528 H   0  0  0  0  0  0  0  0  0  0  0  0
   35.7942   15.7718   32.9479 H   0  0  0  0  0  0  0  0  0  0  0  0
   36.3343   18.1327   33.2820 H   0  0  0  0  0  0  0  0  0  0  0  0
  1  2  1  0
  1  9  1  0
  1  3  1  0
  2  3  1  0
  4  3  1  0
  4  5  1  0
  5  6  1  0
  7  6  1  0
  8  4  1  0
  8  7  1  0
 10 15  2  0
 11 10  1  0
 12 11  2  0
 12 13  1  0
 13 14  2  0
 14 15  1  0
 14  9  1  0
 16 12  1  0
 17 16  2  0
 18 17  1  0
 19 18  2  0
 19 20  1  0
 20 25  2  0
 21 20  1  0
 21 22  2  0
 22 23  1  0
 23 24  2  0
 25 16  1  0
 25 24  1  0
  1 26  1  6
  2 27  1  0
  2 28  1  0
  3 29  1  1
  4 30  1  0
  5 31  1  0
  5 32  1  0
  6 33  1  0
  6 34  1  0
  7 35  1  0
  7 36  1  0
  8 37  1  0
  8 38  1  0
 10 39  1  0
 11 40  1  0
 18 41  1  0
 21 42  1  0
 22 43  1  0
 23 44  1  0
 24 45  1  0
M  ISO  8  26  13  27  13  28  13  29  13  30  13  31  13  32  13  33  13
M  ISO  8  34  13  35  13  36  13  37  13  38  13  39  14  40  14  41  14
M  ISO  4  42  14  43  14  44  14  45  14
M  END
>  <minimizedAffinity>  (1) 
-4.63949919

>  <minimizedRMSD>  (1) 
1.74364197

$$$$
