
     RDKit          3D

 40 43  0  0  1  0  0  0  0  0999 V2000
   39.8080   23.5360   35.2620 C   0  0  1  0  0  0  0  0  0  0  0  0
   40.1000   25.0130   35.0860 C   0  0  0  0  0  0  0  0  0  0  0  0
   40.9850   24.1660   35.9290 C   0  0  2  0  0  0  0  0  0  0  0  0
   42.3590   23.9280   35.4380 C   0  0  0  0  0  0  0  0  0  0  0  0
   43.2080   23.2590   36.5070 C   0  0  0  0  0  0  0  0  0  0  0  0
   44.2150   24.3190   36.9130 C   0  0  0  0  0  0  0  0  0  0  0  0
   44.3780   25.2280   35.7200 C   0  0  0  0  0  0  0  0  0  0  0  0
   42.9930   25.2600   35.1310 C   0  0  0  0  0  0  0  0  0  0  0  0
   38.6800   23.3030   36.1080 O   0  0  0  0  0  0  0  0  0  0  0  0
   35.7780   21.3520   36.5320 C   0  0  0  0  0  0  0  0  0  0  0  0
   35.5850   20.7350   35.2570 C   0  0  0  0  0  0  0  0  0  0  0  0
   36.5300   21.0440   34.2560 C   0  0  0  0  0  0  0  0  0  0  0  0
   37.5250   21.8840   34.5760 N   0  0  0  0  0  0  0  0  0  0  0  0
   37.6580   22.4480   35.8200 C   0  0  0  0  0  0  0  0  0  0  0  0
   36.8030   22.1880   36.7800 N   0  0  0  0  0  0  0  0  0  0  0  0
   36.4630   20.4940   32.9210 C   0  0  0  0  0  0  0  0  0  0  0  0
   35.7890   19.3520   32.5930 C   0  0  0  0  0  0  0  0  0  0  0  0
   35.7110   18.8060   31.3230 C   0  0  0  0  0  0  0  0  0  0  0  0
   36.3650   19.4610   30.2870 C   0  0  0  0  0  0  0  0  0  0  0  0
   37.0410   20.6120   30.6340 C   0  0  0  0  0  0  0  0  0  0  0  0
   37.0840   21.0990   31.8890 N   0  0  0  0  0  0  0  0  0  0  0  0
   39.6719   22.6620   34.6081 H   0  0  0  0  0  0  0  0  0  0  0  0
   40.4591   25.3923   34.1179 H   0  0  0  0  0  0  0  0  0  0  0  0
   39.5342   25.9438   35.2390 H   0  0  0  0  0  0  0  0  0  0  0  0
   41.3369   24.1765   36.9712 H   0  0  0  0  0  0  0  0  0  0  0  0
   42.3058   23.2817   34.5495 H   0  0  0  0  0  0  0  0  0  0  0  0
   42.5883   22.9624   37.3661 H   0  0  0  0  0  0  0  0  0  0  0  0
   43.6920   22.3410   36.1422 H   0  0  0  0  0  0  0  0  0  0  0  0
   43.8414   24.8880   37.7771 H   0  0  0  0  0  0  0  0  0  0  0  0
   45.1745   23.8675   37.2054 H   0  0  0  0  0  0  0  0  0  0  0  0
   44.7000   26.2333   36.0293 H   0  0  0  0  0  0  0  0  0  0  0  0
   45.1441   24.8814   35.0108 H   0  0  0  0  0  0  0  0  0  0  0  0
   43.0476   25.4117   34.0429 H   0  0  0  0  0  0  0  0  0  0  0  0
   42.4025   26.0855   35.5551 H   0  0  0  0  0  0  0  0  0  0  0  0
   35.0630   21.1356   37.3394 H   0  0  0  0  0  0  0  0  0  0  0  0
   34.7426   20.0540   35.0661 H   0  0  0  0  0  0  0  0  0  0  0  0
   35.2659   18.8234   33.4035 H   0  0  0  0  0  0  0  0  0  0  0  0
   35.1470   17.8796   31.1395 H   0  0  0  0  0  0  0  0  0  0  0  0
   36.3449   19.0848   29.2535 H   0  0  0  0  0  0  0  0  0  0  0  0
   37.5734   21.1615   29.8437 H   0  0  0  0  0  0  0  0  0  0  0  0
  1  3  1  0
  1  9  1  0
  2  1  1  0
  2  3  1  0
  4  3  1  0
  4  5  1  0
  5  6  1  0
  7  6  1  0
  8  4  1  0
  8  7  1  0
 10 15  2  0
 11 10  1  0
 12 13  1  0
 12 11  2  0
 13 14  2  0
 14  9  1  0
 14 15  1  0
 16 12  1  0
 17 16  2  0
 18 17  1  0
 19 20  1  0
 19 18  2  0
 20 21  2  0
 21 16  1  0
  1 22  1  6
  2 23  1  0
  2 24  1  0
  3 25  1  1
  4 26  1  0
  5 27  1  0
  5 28  1  0
  6 29  1  0
  6 30  1  0
  7 31  1  0
  7 32  1  0
  8 33  1  0
  8 34  1  0
 10 35  1  0
 11 36  1  0
 17 37  1  0
 18 38  1  0
 19 39  1  0
 20 40  1  0
M  ISO  8  22  13  23  13  24  13  25  13  26  13  27  13  28  13  29  13
M  ISO  8  30  13  31  13  32  13  33  13  34  13  35  14  36  14  37  14
M  ISO  3  38  14  39  14  40  14
M  END
>  <minimizedAffinity>  (1) 
-4.56364107

>  <minimizedRMSD>  (1) 
1.07306075

$$$$
