
     RDKit          3D

 38 41  0  0  1  0  0  0  0  0999 V2000
   39.8250   23.2670   35.1360 C   0  0  1  0  0  0  0  0  0  0  0  0
   40.0260   24.7710   35.1510 C   0  0  0  0  0  0  0  0  0  0  0  0
   40.9520   23.8830   35.8950 C   0  0  2  0  0  0  0  0  0  0  0  0
   42.3450   23.7970   35.4140 C   0  0  0  0  0  0  0  0  0  0  0  0
   43.2530   23.1990   36.4710 C   0  0  0  0  0  0  0  0  0  0  0  0
   44.1460   24.3240   36.9150 C   0  0  0  0  0  0  0  0  0  0  0  0
   44.1790   25.3330   35.8230 C   0  0  0  0  0  0  0  0  0  0  0  0
   42.8460   25.1970   35.1570 C   0  0  0  0  0  0  0  0  0  0  0  0
   38.7010   22.8740   35.9230 O   0  0  0  0  0  0  0  0  0  0  0  0
   35.7480   20.9540   35.9470 C   0  0  0  0  0  0  0  0  0  0  0  0
   35.5350   20.6190   34.5950 C   0  0  0  0  0  0  0  0  0  0  0  0
   36.4870   21.1010   33.6660 C   0  0  0  0  0  0  0  0  0  0  0  0
   37.5140   21.8350   34.1280 N   0  0  0  0  0  0  0  0  0  0  0  0
   37.6530   22.1220   35.4690 C   0  0  0  0  0  0  0  0  0  0  0  0
   36.7980   21.6960   36.3680 N   0  0  0  0  0  0  0  0  0  0  0  0
   36.3580   20.8060   32.2160 C   0  0  0  0  0  0  0  0  0  0  0  0
   35.0160   20.4580   31.6350 C   0  0  0  0  0  0  0  0  0  0  0  0
   35.5720   21.8100   31.3670 C   0  0  0  0  0  0  0  0  0  0  0  0
   39.7541   22.4704   34.3808 H   0  0  0  0  0  0  0  0  0  0  0  0
   40.3698   25.2901   34.2442 H   0  0  0  0  0  0  0  0  0  0  0  0
   39.4015   25.6389   35.4092 H   0  0  0  0  0  0  0  0  0  0  0  0
   41.2919   23.7836   36.9364 H   0  0  0  0  0  0  0  0  0  0  0  0
   42.3586   23.1699   34.5104 H   0  0  0  0  0  0  0  0  0  0  0  0
   42.6609   22.8209   37.3175 H   0  0  0  0  0  0  0  0  0  0  0  0
   43.8309   22.3488   36.0796 H   0  0  0  0  0  0  0  0  0  0  0  0
   43.7469   24.7790   37.8335 H   0  0  0  0  0  0  0  0  0  0  0  0
   45.1592   23.9513   37.1259 H   0  0  0  0  0  0  0  0  0  0  0  0
   44.3094   26.3459   36.2316 H   0  0  0  0  0  0  0  0  0  0  0  0
   45.0158   25.1734   35.1271 H   0  0  0  0  0  0  0  0  0  0  0  0
   42.9491   25.3652   34.0748 H   0  0  0  0  0  0  0  0  0  0  0  0
   42.1385   25.9386   35.5564 H   0  0  0  0  0  0  0  0  0  0  0  0
   35.0263   20.5952   36.6956 H   0  0  0  0  0  0  0  0  0  0  0  0
   34.6728   20.0138   34.2781 H   0  0  0  0  0  0  0  0  0  0  0  0
   37.3525   20.3366   32.1892 H   0  0  0  0  0  0  0  0  0  0  0  0
   34.9490   19.7242   30.8183 H   0  0  0  0  0  0  0  0  0  0  0  0
   34.0701   20.0861   32.0556 H   0  0  0  0  0  0  0  0  0  0  0  0
   35.9225   22.0712   30.3576 H   0  0  0  0  0  0  0  0  0  0  0  0
   35.2165   22.8412   31.5092 H   0  0  0  0  0  0  0  0  0  0  0  0
  1  2  1  0
  1  3  1  0
  1  9  1  0
  2  3  1  0
  4  3  1  0
  4  5  1  0
  5  6  1  0
  7  6  1  0
  8  4  1  0
  8  7  1  0
 10 15  2  0
 11 10  1  0
 12 13  1  0
 12 11  2  0
 13 14  2  0
 14  9  1  0
 14 15  1  0
 16 12  1  0
 17 16  1  0
 18 17  1  0
 18 16  1  0
  1 19  1  6
  2 20  1  0
  2 21  1  0
  3 22  1  1
  4 23  1  0
  5 24  1  0
  5 25  1  0
  6 26  1  0
  6 27  1  0
  7 28  1  0
  7 29  1  0
  8 30  1  0
  8 31  1  0
 10 32  1  0
 11 33  1  0
 16 34  1  0
 17 35  1  0
 17 36  1  0
 18 37  1  0
 18 38  1  0
M  ISO  8  19  13  20  13  21  13  22  13  23  13  24  13  25  13  26  13
M  ISO  8  27  13  28  13  29  13  30  13  31  13  32  14  33  14  34  13
M  ISO  4  35  13  36  13  37  13  38  13
M  END
>  <minimizedAffinity>  (1) 
-4.53392935

>  <minimizedRMSD>  (1) 
0.479082346

$$$$
