
     RDKit          3D

 38 41  0  0  1  0  0  0  0  0999 V2000
   39.7760   23.3760   35.1190 C   0  0  1  0  0  0  0  0  0  0  0  0
   40.0300   24.8690   35.1250 C   0  0  0  0  0  0  0  0  0  0  0  0
   40.9240   23.9500   35.8830 C   0  0  2  0  0  0  0  0  0  0  0  0
   42.3160   23.8110   35.4040 C   0  0  0  0  0  0  0  0  0  0  0  0
   43.2040   23.2050   36.4670 C   0  0  0  0  0  0  0  0  0  0  0  0
   44.1170   24.3300   36.9150 C   0  0  0  0  0  0  0  0  0  0  0  0
   44.2040   25.2870   35.7620 C   0  0  0  0  0  0  0  0  0  0  0  0
   42.8550   25.1940   35.1240 C   0  0  0  0  0  0  0  0  0  0  0  0
   38.6420   23.0190   35.9190 O   0  0  0  0  0  0  0  0  0  0  0  0
   35.7190   21.0620   36.0220 C   0  0  0  0  0  0  0  0  0  0  0  0
   35.5830   20.5520   34.7150 C   0  0  0  0  0  0  0  0  0  0  0  0
   36.5800   20.9330   33.7850 C   0  0  0  0  0  0  0  0  0  0  0  0
   37.5600   21.7360   34.2130 N   0  0  0  0  0  0  0  0  0  0  0  0
   37.6310   22.1970   35.5070 C   0  0  0  0  0  0  0  0  0  0  0  0
   36.7320   21.8750   36.4170 N   0  0  0  0  0  0  0  0  0  0  0  0
   36.5210   20.4540   32.4090 C   0  0  0  0  0  0  0  0  0  0  0  0
   36.2630   19.1490   32.0410 C   0  0  0  0  0  0  0  0  0  0  0  0
   36.2720   19.0020   30.6860 C   0  0  0  0  0  0  0  0  0  0  0  0
   36.5510   20.2900   30.2450 C   0  0  0  0  0  0  0  0  0  0  0  0
   36.6860   21.0880   31.2760 O   0  0  0  0  0  0  0  0  0  0  0  0
   39.6737   22.5851   34.3614 H   0  0  0  0  0  0  0  0  0  0  0  0
   40.3965   25.3692   34.2165 H   0  0  0  0  0  0  0  0  0  0  0  0
   39.4355   25.7603   35.3742 H   0  0  0  0  0  0  0  0  0  0  0  0
   41.2557   23.8423   36.9263 H   0  0  0  0  0  0  0  0  0  0  0  0
   42.3130   23.1663   34.5127 H   0  0  0  0  0  0  0  0  0  0  0  0
   42.6004   22.8395   37.3108 H   0  0  0  0  0  0  0  0  0  0  0  0
   43.7716   22.3437   36.0850 H   0  0  0  0  0  0  0  0  0  0  0  0
   43.6956   24.8340   37.7973 H   0  0  0  0  0  0  0  0  0  0  0  0
   45.1107   23.9506   37.1953 H   0  0  0  0  0  0  0  0  0  0  0  0
   44.4017   26.3099   36.1149 H   0  0  0  0  0  0  0  0  0  0  0  0
   45.0223   25.0457   35.0676 H   0  0  0  0  0  0  0  0  0  0  0  0
   42.9410   25.3512   34.0387 H   0  0  0  0  0  0  0  0  0  0  0  0
   42.1804   25.9626   35.5292 H   0  0  0  0  0  0  0  0  0  0  0  0
   34.9585   20.7846   36.7668 H   0  0  0  0  0  0  0  0  0  0  0  0
   34.7478   19.8939   34.4331 H   0  0  0  0  0  0  0  0  0  0  0  0
   36.0740   18.3309   32.7516 H   0  0  0  0  0  0  0  0  0  0  0  0
   36.1013   18.0926   30.0911 H   0  0  0  0  0  0  0  0  0  0  0  0
   36.6443   20.5934   29.1918 H   0  0  0  0  0  0  0  0  0  0  0  0
  1  2  1  0
  1  3  1  0
  1  9  1  0
  2  3  1  0
  4  3  1  0
  4  5  1  0
  5  6  1  0
  7  6  1  0
  8  4  1  0
  8  7  1  0
 10 15  2  0
 11 10  1  0
 12 13  1  0
 12 11  2  0
 13 14  2  0
 14  9  1  0
 14 15  1  0
 16 12  1  0
 17 16  2  0
 18 17  1  0
 19 18  2  0
 19 20  1  0
 20 16  1  0
  1 21  1  6
  2 22  1  0
  2 23  1  0
  3 24  1  1
  4 25  1  0
  5 26  1  0
  5 27  1  0
  6 28  1  0
  6 29  1  0
  7 30  1  0
  7 31  1  0
  8 32  1  0
  8 33  1  0
 10 34  1  0
 11 35  1  0
 17 36  1  0
 18 37  1  0
 19 38  1  0
M  ISO  8  21  13  22  13  23  13  24  13  25  13  26  13  27  13  28  13
M  ISO  8  29  13  30  13  31  13  32  13  33  13  34  14  35  14  36  14
M  ISO  2  37  14  38  14
M  END
>  <minimizedAffinity>  (1) 
-4.50057077

>  <minimizedRMSD>  (1) 
0.5635342

$$$$
