
     RDKit          3D

 43 46  0  0  1  0  0  0  0  0999 V2000
   39.7420   23.3330   35.0320 C   0  0  1  0  0  0  0  0  0  0  0  0
   39.9860   24.8030   35.3040 C   0  0  0  0  0  0  0  0  0  0  0  0
   40.8770   23.7710   35.8950 C   0  0  2  0  0  0  0  0  0  0  0  0
   42.2710   23.7210   35.4050 C   0  0  0  0  0  0  0  0  0  0  0  0
   43.1990   23.1720   36.4760 C   0  0  0  0  0  0  0  0  0  0  0  0
   44.0610   24.3400   36.8880 C   0  0  0  0  0  0  0  0  0  0  0  0
   44.1020   25.2690   35.7020 C   0  0  0  0  0  0  0  0  0  0  0  0
   42.7210   25.1280   35.1090 C   0  0  0  0  0  0  0  0  0  0  0  0
   38.6060   22.8300   35.7400 O   0  0  0  0  0  0  0  0  0  0  0  0
   35.6840   20.8870   35.4800 C   0  0  0  0  0  0  0  0  0  0  0  0
   35.6790   20.4280   34.1480 C   0  0  0  0  0  0  0  0  0  0  0  0
   36.7620   20.8330   33.3360 C   0  0  0  0  0  0  0  0  0  0  0  0
   37.6890   21.6150   33.9060 N   0  0  0  0  0  0  0  0  0  0  0  0
   37.6410   22.0300   35.2030 C   0  0  0  0  0  0  0  0  0  0  0  0
   36.6530   21.6800   36.0040 N   0  0  0  0  0  0  0  0  0  0  0  0
   36.8450   20.4190   31.9770 N   0  0  0  0  0  0  0  0  0  0  0  0
   37.6170   21.0980   30.9530 C   0  0  0  0  0  0  0  0  0  0  0  0
   37.7100   20.0820   29.8430 C   0  0  0  0  0  0  0  0  0  0  0  0
   36.3500   19.4200   29.9260 C   0  0  0  0  0  0  0  0  0  0  0  0
   36.1800   19.2710   31.4230 C   0  0  0  0  0  0  0  0  0  0  0  0
   39.6518   22.6878   34.1457 H   0  0  0  0  0  0  0  0  0  0  0  0
   40.3573   25.4577   34.5018 H   0  0  0  0  0  0  0  0  0  0  0  0
   39.3836   25.6335   35.7008 H   0  0  0  0  0  0  0  0  0  0  0  0
   41.2003   23.4869   36.9073 H   0  0  0  0  0  0  0  0  0  0  0  0
   42.3066   23.0773   34.5137 H   0  0  0  0  0  0  0  0  0  0  0  0
   42.6202   22.7982   37.3335 H   0  0  0  0  0  0  0  0  0  0  0  0
   43.7994   22.3275   36.1067 H   0  0  0  0  0  0  0  0  0  0  0  0
   43.6216   24.8505   37.7577 H   0  0  0  0  0  0  0  0  0  0  0  0
   45.0706   24.0120   37.1763 H   0  0  0  0  0  0  0  0  0  0  0  0
   44.2920   26.3052   36.0184 H   0  0  0  0  0  0  0  0  0  0  0  0
   44.9050   25.0266   34.9904 H   0  0  0  0  0  0  0  0  0  0  0  0
   42.7549   25.2956   34.0224 H   0  0  0  0  0  0  0  0  0  0  0  0
   42.0268   25.8664   35.5366 H   0  0  0  0  0  0  0  0  0  0  0  0
   34.8531   20.5847   36.1343 H   0  0  0  0  0  0  0  0  0  0  0  0
   34.8734   19.7873   33.7602 H   0  0  0  0  0  0  0  0  0  0  0  0
   37.1007   22.0069   30.6106 H   0  0  0  0  0  0  0  0  0  0  0  0
   38.6028   21.4290   31.3116 H   0  0  0  0  0  0  0  0  0  0  0  0
   38.5201   19.3605   30.0253 H   0  0  0  0  0  0  0  0  0  0  0  0
   37.9397   20.5136   28.8576 H   0  0  0  0  0  0  0  0  0  0  0  0
   35.5651   20.0580   29.4936 H   0  0  0  0  0  0  0  0  0  0  0  0
   36.2759   18.4743   29.3691 H   0  0  0  0  0  0  0  0  0  0  0  0
   35.1142   19.2702   31.6951 H   0  0  0  0  0  0  0  0  0  0  0  0
   36.5961   18.3247   31.7990 H   0  0  0  0  0  0  0  0  0  0  0  0
  1  2  1  0
  1  9  1  0
  1  3  1  0
  2  3  1  0
  4  3  1  0
  4  5  1  0
  5  6  1  0
  7  6  1  0
  8  4  1  0
  8  7  1  0
 10 15  2  0
 11 10  1  0
 12 13  1  0
 12 11  2  0
 13 14  2  0
 14  9  1  0
 14 15  1  0
 16 12  1  0
 17 16  1  0
 18 19  1  0
 18 17  1  0
 19 20  1  0
 20 16  1  0
  1 21  1  6
  2 22  1  0
  2 23  1  0
  3 24  1  1
  4 25  1  0
  5 26  1  0
  5 27  1  0
  6 28  1  0
  6 29  1  0
  7 30  1  0
  7 31  1  0
  8 32  1  0
  8 33  1  0
 10 34  1  0
 11 35  1  0
 17 36  1  0
 17 37  1  0
 18 38  1  0
 18 39  1  0
 19 40  1  0
 19 41  1  0
 20 42  1  0
 20 43  1  0
M  ISO  8  21  13  22  13  23  13  24  13  25  13  26  13  27  13  28  13
M  ISO  8  29  13  30  13  31  13  32  13  33  13  34  14  35  14  36  13
M  ISO  7  37  13  38  13  39  13  40  13  41  13  42  13  43  13
M  END
>  <minimizedAffinity>  (1) 
-4.49778128

>  <minimizedRMSD>  (1) 
0.388951182

$$$$
