
     RDKit          3D

 37 40  0  0  1  0  0  0  0  0999 V2000
   39.7400   23.3010   35.0360 C   0  0  1  0  0  0  0  0  0  0  0  0
   39.9770   24.7810   35.2710 C   0  0  0  0  0  0  0  0  0  0  0  0
   40.8790   23.7590   35.8850 C   0  0  2  0  0  0  0  0  0  0  0  0
   42.2710   23.7150   35.3960 C   0  0  0  0  0  0  0  0  0  0  0  0
   43.2030   23.1520   36.4560 C   0  0  0  0  0  0  0  0  0  0  0  0
   44.0580   24.3150   36.8890 C   0  0  0  0  0  0  0  0  0  0  0  0
   44.0760   25.2900   35.7520 C   0  0  0  0  0  0  0  0  0  0  0  0
   42.7290   25.1190   35.1010 C   0  0  0  0  0  0  0  0  0  0  0  0
   38.6030   22.8200   35.7580 O   0  0  0  0  0  0  0  0  0  0  0  0
   35.6700   20.8740   35.4930 C   0  0  0  0  0  0  0  0  0  0  0  0
   35.6570   20.4230   34.1580 C   0  0  0  0  0  0  0  0  0  0  0  0
   36.7380   20.8370   33.3440 C   0  0  0  0  0  0  0  0  0  0  0  0
   37.6770   21.6150   33.8980 N   0  0  0  0  0  0  0  0  0  0  0  0
   37.6270   22.0190   35.2120 C   0  0  0  0  0  0  0  0  0  0  0  0
   36.6480   21.6620   36.0080 N   0  0  0  0  0  0  0  0  0  0  0  0
   36.8130   20.4330   31.9820 N   0  0  0  0  0  0  0  0  0  0  0  0
   35.8510   19.8630   31.2340 C   0  0  0  0  0  0  0  0  0  0  0  0
   36.3600   19.6480   29.9940 N   0  0  0  0  0  0  0  0  0  0  0  0
   37.6240   20.0820   29.9810 C   0  0  0  0  0  0  0  0  0  0  0  0
   37.8870   20.5670   31.2290 N   0  0  0  0  0  0  0  0  0  0  0  0
   39.6521   22.6320   34.1672 H   0  0  0  0  0  0  0  0  0  0  0  0
   40.3421   25.4181   34.4519 H   0  0  0  0  0  0  0  0  0  0  0  0
   39.3729   25.6185   35.6501 H   0  0  0  0  0  0  0  0  0  0  0  0
   41.2069   23.4903   36.9001 H   0  0  0  0  0  0  0  0  0  0  0  0
   42.2986   23.0782   34.4995 H   0  0  0  0  0  0  0  0  0  0  0  0
   42.6269   22.7591   37.3067 H   0  0  0  0  0  0  0  0  0  0  0  0
   43.8081   22.3183   36.0703 H   0  0  0  0  0  0  0  0  0  0  0  0
   43.6287   24.7870   37.7851 H   0  0  0  0  0  0  0  0  0  0  0  0
   45.0765   23.9830   37.1387 H   0  0  0  0  0  0  0  0  0  0  0  0
   44.2037   26.3183   36.1212 H   0  0  0  0  0  0  0  0  0  0  0  0
   44.9079   25.1108   35.0550 H   0  0  0  0  0  0  0  0  0  0  0  0
   42.8132   25.2682   34.0144 H   0  0  0  0  0  0  0  0  0  0  0  0
   42.0099   25.8556   35.4887 H   0  0  0  0  0  0  0  0  0  0  0  0
   34.8436   20.5714   36.1529 H   0  0  0  0  0  0  0  0  0  0  0  0
   34.8503   19.7838   33.7697 H   0  0  0  0  0  0  0  0  0  0  0  0
   34.8326   19.6151   31.5679 H   0  0  0  0  0  0  0  0  0  0  0  0
   38.3185   20.0537   29.1285 H   0  0  0  0  0  0  0  0  0  0  0  0
  1  2  1  0
  1  9  1  0
  1  3  1  0
  2  3  1  0
  4  3  1  0
  4  5  1  0
  5  6  1  0
  7  6  1  0
  8  4  1  0
  8  7  1  0
 10 15  2  0
 11 10  1  0
 12 13  1  0
 12 11  2  0
 13 14  2  0
 14  9  1  0
 14 15  1  0
 16 12  1  0
 17 16  1  0
 18 17  2  0
 19 18  1  0
 19 20  2  0
 20 16  1  0
  1 21  1  6
  2 22  1  0
  2 23  1  0
  3 24  1  1
  4 25  1  0
  5 26  1  0
  5 27  1  0
  6 28  1  0
  6 29  1  0
  7 30  1  0
  7 31  1  0
  8 32  1  0
  8 33  1  0
 10 34  1  0
 11 35  1  0
 17 36  1  0
 19 37  1  0
M  ISO  8  21  13  22  13  23  13  24  13  25  13  26  13  27  13  28  13
M  ISO  8  29  13  30  13  31  13  32  13  33  13  34  14  35  14  36  14
M  ISO  1  37  14
M  END
>  <minimizedAffinity>  (1) 
-4.46563721

>  <minimizedRMSD>  (1) 
0.442393303

$$$$
