
     RDKit          3D

 38 41  0  0  1  0  0  0  0  0999 V2000
   39.7730   23.3840   35.1940 C   0  0  1  0  0  0  0  0  0  0  0  0
   40.0520   24.8710   35.0480 C   0  0  0  0  0  0  0  0  0  0  0  0
   40.9380   24.0070   35.8800 C   0  0  2  0  0  0  0  0  0  0  0  0
   42.3220   23.8140   35.3960 C   0  0  0  0  0  0  0  0  0  0  0  0
   43.1850   23.1760   36.4720 C   0  0  0  0  0  0  0  0  0  0  0  0
   44.1500   24.2680   36.8910 C   0  0  0  0  0  0  0  0  0  0  0  0
   44.2880   25.1770   35.7080 C   0  0  0  0  0  0  0  0  0  0  0  0
   42.9070   25.1830   35.1150 C   0  0  0  0  0  0  0  0  0  0  0  0
   38.6400   23.1190   35.9980 O   0  0  0  0  0  0  0  0  0  0  0  0
   35.7400   21.1420   36.2880 C   0  0  0  0  0  0  0  0  0  0  0  0
   35.5360   20.6170   35.0030 C   0  0  0  0  0  0  0  0  0  0  0  0
   36.4730   20.9890   34.0300 C   0  0  0  0  0  0  0  0  0  0  0  0
   37.4870   21.8040   34.3550 N   0  0  0  0  0  0  0  0  0  0  0  0
   37.6180   22.2800   35.6410 C   0  0  0  0  0  0  0  0  0  0  0  0
   36.7640   21.9540   36.5780 N   0  0  0  0  0  0  0  0  0  0  0  0
   36.5550   20.6210   32.5980 C   0  0  0  0  0  0  0  0  0  0  0  0
   36.2300   19.3850   32.2760 C   0  0  0  0  0  0  0  0  0  0  0  0
   36.2130   18.7800   31.0590 C   0  0  0  0  0  0  0  0  0  0  0  0
   36.6610   19.8440   30.0730 C   0  0  0  0  0  0  0  0  0  0  0  0
   36.9810   21.4040   31.1510 S   0  0  0  0  0  0  0  0  0  0  0  0
   39.6548   22.5182   34.5259 H   0  0  0  0  0  0  0  0  0  0  0  0
   40.4143   25.2733   34.0905 H   0  0  0  0  0  0  0  0  0  0  0  0
   39.4786   25.7946   35.2158 H   0  0  0  0  0  0  0  0  0  0  0  0
   41.2803   23.9834   36.9251 H   0  0  0  0  0  0  0  0  0  0  0  0
   42.3030   23.1697   34.5047 H   0  0  0  0  0  0  0  0  0  0  0  0
   42.5680   22.8558   37.3245 H   0  0  0  0  0  0  0  0  0  0  0  0
   43.7059   22.2779   36.1087 H   0  0  0  0  0  0  0  0  0  0  0  0
   43.7493   24.8215   37.7530 H   0  0  0  0  0  0  0  0  0  0  0  0
   45.1221   23.8511   37.1930 H   0  0  0  0  0  0  0  0  0  0  0  0
   44.5872   26.1883   36.0207 H   0  0  0  0  0  0  0  0  0  0  0  0
   45.0603   24.8461   34.9981 H   0  0  0  0  0  0  0  0  0  0  0  0
   42.9581   25.3609   34.0307 H   0  0  0  0  0  0  0  0  0  0  0  0
   42.2871   25.9813   35.5492 H   0  0  0  0  0  0  0  0  0  0  0  0
   35.0321   20.8765   37.0870 H   0  0  0  0  0  0  0  0  0  0  0  0
   34.6902   19.9524   34.7730 H   0  0  0  0  0  0  0  0  0  0  0  0
   35.9268   18.7469   33.1192 H   0  0  0  0  0  0  0  0  0  0  0  0
   35.9338   17.7397   30.8357 H   0  0  0  0  0  0  0  0  0  0  0  0
   36.7768   19.7446   28.9836 H   0  0  0  0  0  0  0  0  0  0  0  0
  1  3  1  0
  1  9  1  0
  2  1  1  0
  2  3  1  0
  4  3  1  0
  4  5  1  0
  5  6  1  0
  7  6  1  0
  8  4  1  0
  8  7  1  0
 10 15  2  0
 11 10  1  0
 12 13  1  0
 12 11  2  0
 13 14  2  0
 14  9  1  0
 14 15  1  0
 16 12  1  0
 17 16  2  0
 18 17  1  0
 19 18  2  0
 19 20  1  0
 20 16  1  0
  1 21  1  6
  2 22  1  0
  2 23  1  0
  3 24  1  1
  4 25  1  0
  5 26  1  0
  5 27  1  0
  6 28  1  0
  6 29  1  0
  7 30  1  0
  7 31  1  0
  8 32  1  0
  8 33  1  0
 10 34  1  0
 11 35  1  0
 17 36  1  0
 18 37  1  0
 19 38  1  0
M  ISO  8  21  13  22  13  23  13  24  13  25  13  26  13  27  13  28  13
M  ISO  8  29  13  30  13  31  13  32  13  33  13  34  14  35  14  36  14
M  ISO  2  37  14  38  14
M  END
>  <minimizedAffinity>  (1) 
-4.46102476

>  <minimizedRMSD>  (1) 
0.669448793

$$$$
