
     RDKit          3D

 38 41  0  0  1  0  0  0  0  0999 V2000
   39.7150   23.3220   35.0370 C   0  0  1  0  0  0  0  0  0  0  0  0
   39.9580   24.7940   35.3180 C   0  0  0  0  0  0  0  0  0  0  0  0
   40.8580   23.7560   35.8890 C   0  0  2  0  0  0  0  0  0  0  0  0
   42.2490   23.7110   35.3930 C   0  0  0  0  0  0  0  0  0  0  0  0
   43.1820   23.1380   36.4450 C   0  0  0  0  0  0  0  0  0  0  0  0
   44.0390   24.3160   36.8780 C   0  0  0  0  0  0  0  0  0  0  0  0
   44.0770   25.2600   35.7040 C   0  0  0  0  0  0  0  0  0  0  0  0
   42.7000   25.1240   35.1170 C   0  0  0  0  0  0  0  0  0  0  0  0
   38.5810   22.8150   35.7320 O   0  0  0  0  0  0  0  0  0  0  0  0
   35.6650   20.8580   35.4770 C   0  0  0  0  0  0  0  0  0  0  0  0
   35.6720   20.4120   34.1170 C   0  0  0  0  0  0  0  0  0  0  0  0
   36.7550   20.8350   33.3110 C   0  0  0  0  0  0  0  0  0  0  0  0
   37.6920   21.6170   33.8640 N   0  0  0  0  0  0  0  0  0  0  0  0
   37.6240   22.0120   35.1810 C   0  0  0  0  0  0  0  0  0  0  0  0
   36.6350   21.6470   35.9870 N   0  0  0  0  0  0  0  0  0  0  0  0
   36.7940   20.4100   31.9540 N   0  0  0  0  0  0  0  0  0  0  0  0
   35.8600   19.6600   31.3310 C   0  0  0  0  0  0  0  0  0  0  0  0
   36.3570   19.5240   30.0430 C   0  0  0  0  0  0  0  0  0  0  0  0
   37.5330   20.1670   29.9150 N   0  0  0  0  0  0  0  0  0  0  0  0
   37.8100   20.7230   31.1080 C   0  0  0  0  0  0  0  0  0  0  0  0
   39.6221   22.6777   34.1503 H   0  0  0  0  0  0  0  0  0  0  0  0
   40.3182   25.4563   34.5170 H   0  0  0  0  0  0  0  0  0  0  0  0
   39.3590   25.6202   35.7287 H   0  0  0  0  0  0  0  0  0  0  0  0
   41.1933   23.4631   36.8949 H   0  0  0  0  0  0  0  0  0  0  0  0
   42.2789   23.0820   34.4910 H   0  0  0  0  0  0  0  0  0  0  0  0
   42.6101   22.7399   37.2962 H   0  0  0  0  0  0  0  0  0  0  0  0
   43.7846   22.3028   36.0585 H   0  0  0  0  0  0  0  0  0  0  0  0
   43.5922   24.8120   37.7523 H   0  0  0  0  0  0  0  0  0  0  0  0
   45.0501   23.9926   37.1661 H   0  0  0  0  0  0  0  0  0  0  0  0
   44.2666   26.2925   36.0327 H   0  0  0  0  0  0  0  0  0  0  0  0
   44.8788   25.0288   34.9873 H   0  0  0  0  0  0  0  0  0  0  0  0
   42.7302   25.3074   34.0328 H   0  0  0  0  0  0  0  0  0  0  0  0
   42.0070   25.8543   35.5601 H   0  0  0  0  0  0  0  0  0  0  0  0
   34.8379   20.5462   36.1318 H   0  0  0  0  0  0  0  0  0  0  0  0
   34.8728   19.7705   33.7173 H   0  0  0  0  0  0  0  0  0  0  0  0
   34.9262   19.2532   31.7463 H   0  0  0  0  0  0  0  0  0  0  0  0
   35.8583   18.9668   29.2363 H   0  0  0  0  0  0  0  0  0  0  0  0
   38.6986   21.3228   31.3542 H   0  0  0  0  0  0  0  0  0  0  0  0
  1  2  1  0
  1  9  1  0
  1  3  1  0
  2  3  1  0
  4  3  1  0
  4  5  1  0
  5  6  1  0
  7  6  1  0
  8  4  1  0
  8  7  1  0
 10 15  2  0
 11 10  1  0
 12 13  1  0
 12 11  2  0
 13 14  2  0
 14  9  1  0
 14 15  1  0
 16 12  1  0
 17 16  1  0
 18 17  2  0
 19 18  1  0
 19 20  2  0
 20 16  1  0
  1 21  1  6
  2 22  1  0
  2 23  1  0
  3 24  1  1
  4 25  1  0
  5 26  1  0
  5 27  1  0
  6 28  1  0
  6 29  1  0
  7 30  1  0
  7 31  1  0
  8 32  1  0
  8 33  1  0
 10 34  1  0
 11 35  1  0
 17 36  1  0
 18 37  1  0
 20 38  1  0
M  ISO  8  21  13  22  13  23  13  24  13  25  13  26  13  27  13  28  13
M  ISO  8  29  13  30  13  31  13  32  13  33  13  34  14  35  14  36  14
M  ISO  2  37  14  38  14
M  END
>  <minimizedAffinity>  (1) 
-4.45882416

>  <minimizedRMSD>  (1) 
0.544737875

$$$$
