
     RDKit          3D

 34 36  0  0  1  0  0  0  0  0999 V2000
   39.7460   23.2360   35.0530 C   0  0  1  0  0  0  0  0  0  0  0  0
   39.9630   24.7240   35.2620 C   0  0  0  0  0  0  0  0  0  0  0  0
   40.8790   23.7270   35.8850 C   0  0  2  0  0  0  0  0  0  0  0  0
   42.2720   23.6960   35.3940 C   0  0  0  0  0  0  0  0  0  0  0  0
   43.2050   23.1370   36.4570 C   0  0  0  0  0  0  0  0  0  0  0  0
   44.0500   24.3240   36.8880 C   0  0  0  0  0  0  0  0  0  0  0  0
   44.0780   25.2730   35.7170 C   0  0  0  0  0  0  0  0  0  0  0  0
   42.7120   25.1090   35.1090 C   0  0  0  0  0  0  0  0  0  0  0  0
   38.6170   22.7500   35.7600 O   0  0  0  0  0  0  0  0  0  0  0  0
   35.6800   20.8140   35.5440 C   0  0  0  0  0  0  0  0  0  0  0  0
   35.5470   20.5420   34.1500 C   0  0  0  0  0  0  0  0  0  0  0  0
   36.5480   21.0750   33.3050 C   0  0  0  0  0  0  0  0  0  0  0  0
   37.5340   21.7880   33.8690 N   0  0  0  0  0  0  0  0  0  0  0  0
   37.6040   22.0160   35.2240 C   0  0  0  0  0  0  0  0  0  0  0  0
   36.6990   21.5400   36.0460 N   0  0  0  0  0  0  0  0  0  0  0  0
   36.4700   20.8320   31.8700 C   0  0  0  0  0  0  0  0  0  0  0  0
   37.2600   20.0200   31.3460 O   0  0  0  0  0  0  0  0  0  0  0  0
   35.5060   21.5300   31.1560 O   0  0  0  0  0  0  0  0  0  0  0  0
   39.6691   22.5457   34.2000 H   0  0  0  0  0  0  0  0  0  0  0  0
   40.3147   25.3526   34.4306 H   0  0  0  0  0  0  0  0  0  0  0  0
   39.3495   25.5594   35.6306 H   0  0  0  0  0  0  0  0  0  0  0  0
   41.2153   23.4796   36.9027 H   0  0  0  0  0  0  0  0  0  0  0  0
   42.3121   23.0646   34.4942 H   0  0  0  0  0  0  0  0  0  0  0  0
   42.6312   22.7397   37.3072 H   0  0  0  0  0  0  0  0  0  0  0  0
   43.8169   22.3047   36.0790 H   0  0  0  0  0  0  0  0  0  0  0  0
   43.5997   24.8137   37.7640 H   0  0  0  0  0  0  0  0  0  0  0  0
   45.0653   24.0093   37.1711 H   0  0  0  0  0  0  0  0  0  0  0  0
   44.2389   26.3083   36.0521 H   0  0  0  0  0  0  0  0  0  0  0  0
   44.8933   25.0613   35.0096 H   0  0  0  0  0  0  0  0  0  0  0  0
   42.7585   25.2789   34.0232 H   0  0  0  0  0  0  0  0  0  0  0  0
   42.0028   25.8351   35.5331 H   0  0  0  0  0  0  0  0  0  0  0  0
   34.9225   20.4164   36.2354 H   0  0  0  0  0  0  0  0  0  0  0  0
   34.7099   19.9489   33.7532 H   0  0  0  0  0  0  0  0  0  0  0  0
   35.4189   21.3947   30.1792 H   0  0  0  0  0  0  0  0  0  0  0  0
  1  2  1  0
  1  9  1  0
  1  3  1  0
  2  3  1  0
  4  3  1  0
  4  5  1  0
  5  6  1  0
  7  6  1  0
  8  4  1  0
  8  7  1  0
 10 15  2  0
 11 10  1  0
 12 13  1  0
 12 11  2  0
 13 14  2  0
 14  9  1  0
 14 15  1  0
 16 12  1  0
 17 16  2  0
 18 16  1  0
  1 19  1  6
  2 20  1  0
  2 21  1  0
  3 22  1  1
  4 23  1  0
  5 24  1  0
  5 25  1  0
  6 26  1  0
  6 27  1  0
  7 28  1  0
  7 29  1  0
  8 30  1  0
  8 31  1  0
 10 32  1  0
 11 33  1  0
 18 34  1  0
M  ISO  8  19  13  20  13  21  13  22  13  23  13  24  13  25  13  26  13
M  ISO  8  27  13  28  13  29  13  30  13  31  13  32  14  33  14  34   3
M  END
>  <minimizedAffinity>  (1) 
-4.26370907

>  <minimizedRMSD>  (1) 
0.078939274

$$$$
