
     RDKit          3D

 39 41  0  0  0  0  0  0  0  0999 V2000
   37.3340   22.6570   37.3330 C   0  0  0  0  0  0  0  0  0  0  0  0
   36.9750   21.9730   36.1060 C   0  0  0  0  0  0  0  0  0  0  0  0
   35.8710   21.2160   35.9730 C   0  0  0  0  0  0  0  0  0  0  0  0
   35.4750   20.5620   34.8770 C   0  0  0  0  0  0  0  0  0  0  0  0
   36.4500   20.7850   33.7780 C   0  0  0  0  0  0  0  0  0  0  0  0
   37.7720   21.9080   34.5310 S   0  0  0  0  0  0  0  0  0  0  0  0
   36.5240   20.3420   32.4380 N   0  0  0  0  0  0  0  0  0  0  0  0
   37.2160   21.0970   31.5880 C   0  0  0  0  0  0  0  0  0  0  0  0
   37.2860   20.6530   30.2620 C   0  0  0  0  0  0  0  0  0  0  0  0
   36.6320   19.4750   29.9610 C   0  0  0  0  0  0  0  0  0  0  0  0
   36.7490   19.1490   28.7390 O   0  0  0  0  0  0  0  0  0  0  0  0
   35.9470   18.7530   30.8670 N   0  0  0  0  0  0  0  0  0  0  0  0
   35.8830   19.1920   32.1570 C   0  0  0  0  0  0  0  0  0  0  0  0
   35.2470   18.5350   33.0230 O   0  0  0  0  0  0  0  0  0  0  0  0
   38.1910   23.8810   37.1460 C   0  0  0  0  0  0  0  0  0  0  0  0
   41.5410   22.1740   37.2190 C   0  0  0  0  0  0  0  0  0  0  0  0
   40.2440   22.4860   37.5950 C   0  0  0  0  0  0  0  0  0  0  0  0
   39.5640   23.4720   36.8400 C   0  0  0  0  0  0  0  0  0  0  0  0
   40.2040   24.0630   35.7910 N   0  0  0  0  0  0  0  0  0  0  0  0
   41.4620   23.7310   35.4590 C   0  0  0  0  0  0  0  0  0  0  0  0
   42.1390   22.7860   36.1700 N   0  0  0  0  0  0  0  0  0  0  0  0
   38.2320   24.6360   38.4800 C   0  0  0  0  0  0  0  0  0  0  0  0
   37.5420   24.7100   36.0760 C   0  0  0  0  0  0  0  0  0  0  0  0
   36.4061   22.9629   37.8384 H   0  0  0  0  0  0  0  0  0  0  0  0
   37.9337   21.9458   37.9200 H   0  0  0  0  0  0  0  0  0  0  0  0
   35.2264   21.1258   36.8597 H   0  0  0  0  0  0  0  0  0  0  0  0
   34.5640   19.9504   34.7999 H   0  0  0  0  0  0  0  0  0  0  0  0
   37.7093   22.0254   31.9118 H   0  0  0  0  0  0  0  0  0  0  0  0
   37.8370   21.2171   29.4950 H   0  0  0  0  0  0  0  0  0  0  0  0
   35.4768   17.8796   30.5897 H   0  0  0  0  0  0  0  0  0  0  0  0
   42.0967   21.4123   37.7855 H   0  0  0  0  0  0  0  0  0  0  0  0
   39.7611   21.9864   38.4478 H   0  0  0  0  0  0  0  0  0  0  0  0
   41.9499   24.2258   34.6063 H   0  0  0  0  0  0  0  0  0  0  0  0
   38.1929   23.9156   39.3104 H   0  0  0  0  0  0  0  0  0  0  0  0
   39.1631   25.2183   38.5433 H   0  0  0  0  0  0  0  0  0  0  0  0
   37.3694   25.3157   38.5433 H   0  0  0  0  0  0  0  0  0  0  0  0
   36.9278   25.4946   36.5420 H   0  0  0  0  0  0  0  0  0  0  0  0
   38.3185   25.1751   35.4509 H   0  0  0  0  0  0  0  0  0  0  0  0
   36.9041   24.0678   35.4509 H   0  0  0  0  0  0  0  0  0  0  0  0
  2  1  1  0
  3  2  2  0
  4  3  1  0
  5  6  1  0
  5  4  2  0
  6  2  1  0
  7  5  1  0
  8  7  1  0
  9  8  2  0
 10  9  1  0
 10 12  1  0
 11 10  2  0
 12 13  1  0
 13  7  1  0
 13 14  2  0
 15  1  1  0
 15 22  1  0
 16 17  2  0
 18 15  1  0
 18 17  1  0
 19 18  2  0
 20 19  1  0
 20 21  2  0
 21 16  1  0
 23 15  1  0
  1 24  1  0
  1 25  1  0
  3 26  1  0
  4 27  1  0
  8 28  1  0
  9 29  1  0
 12 30  1  0
 16 31  1  0
 17 32  1  0
 20 33  1  0
 22 34  1  0
 22 35  1  0
 22 36  1  0
 23 37  1  0
 23 38  1  0
 23 39  1  0
M  ISO  8  24   8  25   8  26  14  27  14  28  14  29  14  30   9  31  14
M  ISO  8  32  14  33  14  34   8  35   8  36   8  37   8  38   8  39   8
M  END
>  <minimizedAffinity>  (1) 
-5.18401003

>  <minimizedRMSD>  (1) 
0.898513913

$$$$
