
     RDKit          3D

 38 41  0  0  1  0  0  0  0  0999 V2000
   39.6970   23.3080   35.0420 C   0  0  1  0  0  0  0  0  0  0  0  0
   39.9590   24.7670   35.3530 C   0  0  0  0  0  0  0  0  0  0  0  0
   40.8510   23.7040   35.8960 C   0  0  2  0  0  0  0  0  0  0  0  0
   42.2410   23.6680   35.3940 C   0  0  0  0  0  0  0  0  0  0  0  0
   43.1860   23.1210   36.4510 C   0  0  0  0  0  0  0  0  0  0  0  0
   44.0280   24.3010   36.8770 C   0  0  0  0  0  0  0  0  0  0  0  0
   44.0220   25.2840   35.7460 C   0  0  0  0  0  0  0  0  0  0  0  0
   42.6770   25.0910   35.1210 C   0  0  0  0  0  0  0  0  0  0  0  0
   38.5590   22.8060   35.7440 O   0  0  0  0  0  0  0  0  0  0  0  0
   35.6510   20.8400   35.4070 C   0  0  0  0  0  0  0  0  0  0  0  0
   35.6720   20.3860   34.0720 C   0  0  0  0  0  0  0  0  0  0  0  0
   36.7700   20.8070   33.2840 C   0  0  0  0  0  0  0  0  0  0  0  0
   37.6820   21.5890   33.8680 N   0  0  0  0  0  0  0  0  0  0  0  0
   37.6060   21.9980   35.1720 C   0  0  0  0  0  0  0  0  0  0  0  0
   36.6100   21.6350   35.9440 N   0  0  0  0  0  0  0  0  0  0  0  0
   36.8770   20.3990   31.9250 N   0  0  0  0  0  0  0  0  0  0  0  0
   37.8960   20.6130   31.1190 N   0  0  0  0  0  0  0  0  0  0  0  0
   37.6450   20.0810   29.8950 C   0  0  0  0  0  0  0  0  0  0  0  0
   36.3750   19.5090   29.9960 C   0  0  0  0  0  0  0  0  0  0  0  0
   35.9120   19.7210   31.2820 C   0  0  0  0  0  0  0  0  0  0  0  0
   39.5899   22.6857   34.1413 H   0  0  0  0  0  0  0  0  0  0  0  0
   40.3224   25.4424   34.5645 H   0  0  0  0  0  0  0  0  0  0  0  0
   39.3727   25.5911   35.7855 H   0  0  0  0  0  0  0  0  0  0  0  0
   41.1881   23.3748   36.8900 H   0  0  0  0  0  0  0  0  0  0  0  0
   42.2728   23.0328   34.4965 H   0  0  0  0  0  0  0  0  0  0  0  0
   42.6198   22.7223   37.3057 H   0  0  0  0  0  0  0  0  0  0  0  0
   43.8009   22.2946   36.0652 H   0  0  0  0  0  0  0  0  0  0  0  0
   43.6002   24.7626   37.7792 H   0  0  0  0  0  0  0  0  0  0  0  0
   45.0546   23.9827   37.1109 H   0  0  0  0  0  0  0  0  0  0  0  0
   44.1382   26.3124   36.1186 H   0  0  0  0  0  0  0  0  0  0  0  0
   44.8493   25.1270   35.0382 H   0  0  0  0  0  0  0  0  0  0  0  0
   42.7404   25.2615   34.0361 H   0  0  0  0  0  0  0  0  0  0  0  0
   41.9517   25.8029   35.5418 H   0  0  0  0  0  0  0  0  0  0  0  0
   34.8113   20.5327   36.0477 H   0  0  0  0  0  0  0  0  0  0  0  0
   34.8793   19.7407   33.6657 H   0  0  0  0  0  0  0  0  0  0  0  0
   38.3016   20.0972   29.0126 H   0  0  0  0  0  0  0  0  0  0  0  0
   35.8373   18.9824   29.1938 H   0  0  0  0  0  0  0  0  0  0  0  0
   34.9453   19.3984   31.6960 H   0  0  0  0  0  0  0  0  0  0  0  0
  1  2  1  0
  1  9  1  0
  1  3  1  0
  2  3  1  0
  4  3  1  0
  4  5  1  0
  5  6  1  0
  7  6  1  0
  8  4  1  0
  8  7  1  0
 10 15  2  0
 11 10  1  0
 12 13  1  0
 12 11  2  0
 13 14  2  0
 14  9  1  0
 14 15  1  0
 16 12  1  0
 17 16  1  0
 18 19  1  0
 18 17  2  0
 19 20  2  0
 20 16  1  0
  1 21  1  6
  2 22  1  0
  2 23  1  0
  3 24  1  1
  4 25  1  0
  5 26  1  0
  5 27  1  0
  6 28  1  0
  6 29  1  0
  7 30  1  0
  7 31  1  0
  8 32  1  0
  8 33  1  0
 10 34  1  0
 11 35  1  0
 18 36  1  0
 19 37  1  0
 20 38  1  0
M  ISO  8  21  13  22  13  23  13  24  13  25  13  26  13  27  13  28  13
M  ISO  8  29  13  30  13  31  13  32  13  33  13  34  14  35  14  36  14
M  ISO  2  37  14  38  14
M  END
>  <minimizedAffinity>  (1) 
-4.47900867

>  <minimizedRMSD>  (1) 
0.389069349

$$$$
