
     RDKit          3D

 48 52  0  0  1  0  0  0  0  0999 V2000
   35.6980   21.0630   36.1700 C   0  0  0  0  0  0  0  0  0  0  0  0
   35.5400   20.6260   34.8510 C   0  0  0  0  0  0  0  0  0  0  0  0
   36.5160   21.0050   33.9140 C   0  0  0  0  0  0  0  0  0  0  0  0
   37.5240   21.7540   34.3730 N   0  0  0  0  0  0  0  0  0  0  0  0
   37.6490   22.1600   35.6730 C   0  0  0  0  0  0  0  0  0  0  0  0
   36.7500   21.8260   36.5720 N   0  0  0  0  0  0  0  0  0  0  0  0
   36.4140   20.6030   32.5680 N   0  0  0  0  0  0  0  0  0  0  0  0
   36.3240   19.3460   32.1450 N   0  0  0  0  0  0  0  0  0  0  0  0
   36.2030   19.3240   30.7890 C   0  0  0  0  0  0  0  0  0  0  0  0
   36.2250   20.6710   30.3890 C   0  0  0  0  0  0  0  0  0  0  0  0
   36.3630   21.4630   31.5310 C   0  0  0  0  0  0  0  0  0  0  0  0
   36.4430   22.8630   31.3100 C   0  0  0  0  0  0  0  0  0  0  0  0
   37.5510   23.6890   31.0740 C   0  0  0  0  0  0  0  0  0  0  0  0
   37.5230   25.0500   30.8760 C   0  0  0  0  0  0  0  0  0  0  0  0
   36.2920   25.6700   30.9100 C   0  0  0  0  0  0  0  0  0  0  0  0
   35.1250   24.9700   31.1330 C   0  0  0  0  0  0  0  0  0  0  0  0
   35.2550   23.6110   31.3210 C   0  0  0  0  0  0  0  0  0  0  0  0
   38.7080   22.9250   36.1100 O   0  0  0  0  0  0  0  0  0  0  0  0
   39.8410   23.2400   35.2970 C   0  0  1  0  0  0  0  0  0  0  0  0
   40.0270   24.7340   35.1970 C   0  0  0  0  0  0  0  0  0  0  0  0
   40.9700   23.9060   35.9810 C   0  0  2  0  0  0  0  0  0  0  0  0
   42.3570   23.8170   35.4760 C   0  0  0  0  0  0  0  0  0  0  0  0
   43.2880   23.2380   36.5210 C   0  0  0  0  0  0  0  0  0  0  0  0
   44.1810   24.3830   36.9350 C   0  0  0  0  0  0  0  0  0  0  0  0
   44.2090   25.3590   35.8040 C   0  0  0  0  0  0  0  0  0  0  0  0
   42.8640   25.2090   35.1840 C   0  0  0  0  0  0  0  0  0  0  0  0
   34.9395   20.7777   36.9139 H   0  0  0  0  0  0  0  0  0  0  0  0
   34.6802   20.0062   34.5568 H   0  0  0  0  0  0  0  0  0  0  0  0
   36.1081   18.4388   30.1430 H   0  0  0  0  0  0  0  0  0  0  0  0
   36.1470   21.0381   29.3550 H   0  0  0  0  0  0  0  0  0  0  0  0
   38.5370   23.2022   31.0443 H   0  0  0  0  0  0  0  0  0  0  0  0
   38.4461   25.6210   30.6976 H   0  0  0  0  0  0  0  0  0  0  0  0
   36.2391   26.7576   30.7543 H   0  0  0  0  0  0  0  0  0  0  0  0
   34.1449   25.4686   31.1594 H   0  0  0  0  0  0  0  0  0  0  0  0
   34.3255   23.0505   31.4993 H   0  0  0  0  0  0  0  0  0  0  0  0
   39.7744   22.3788   34.6159 H   0  0  0  0  0  0  0  0  0  0  0  0
   40.3485   25.1879   34.2480 H   0  0  0  0  0  0  0  0  0  0  0  0
   39.4021   25.6153   35.4037 H   0  0  0  0  0  0  0  0  0  0  0  0
   41.3304   23.8679   37.0196 H   0  0  0  0  0  0  0  0  0  0  0  0
   42.3437   23.1769   34.5815 H   0  0  0  0  0  0  0  0  0  0  0  0
   42.7156   22.8644   37.3828 H   0  0  0  0  0  0  0  0  0  0  0  0
   43.8655   22.3872   36.1304 H   0  0  0  0  0  0  0  0  0  0  0  0
   43.7793   24.8655   37.8382 H   0  0  0  0  0  0  0  0  0  0  0  0
   45.1951   24.0223   37.1621 H   0  0  0  0  0  0  0  0  0  0  0  0
   44.3601   26.3843   36.1728 H   0  0  0  0  0  0  0  0  0  0  0  0
   45.0306   25.1726   35.0967 H   0  0  0  0  0  0  0  0  0  0  0  0
   42.9377   25.3570   34.0965 H   0  0  0  0  0  0  0  0  0  0  0  0
   42.1719   25.9576   35.5970 H   0  0  0  0  0  0  0  0  0  0  0  0
  1  6  2  0
  2  1  1  0
  3  4  1  0
  3  2  2  0
  4  5  2  0
  5 18  1  0
  5  6  1  0
  7  3  1  0
  8  7  1  0
  9  8  2  0
 10  9  1  0
 10 11  2  0
 11  7  1  0
 12 17  1  0
 12 11  1  0
 13 12  2  0
 14 15  2  0
 14 13  1  0
 15 16  1  0
 16 17  2  0
 19 21  1  0
 19 18  1  0
 20 19  1  0
 20 21  1  0
 22 21  1  0
 22 23  1  0
 23 24  1  0
 25 24  1  0
 26 22  1  0
 26 25  1  0
  1 27  1  0
  2 28  1  0
  9 29  1  0
 10 30  1  0
 13 31  1  0
 14 32  1  0
 15 33  1  0
 16 34  1  0
 17 35  1  0
 19 36  1  6
 20 37  1  0
 20 38  1  0
 21 39  1  1
 22 40  1  0
 23 41  1  0
 23 42  1  0
 24 43  1  0
 24 44  1  0
 25 45  1  0
 25 46  1  0
 26 47  1  0
 26 48  1  0
M  ISO  8  27  14  28  14  29  14  30  14  31  14  32  14  33  14  34  14
M  ISO  8  35  14  36  13  37  13  38  13  39  13  40  13  41  13  42  13
M  ISO  6  43  13  44  13  45  13  46  13  47  13  48  13
M  END
>  <minimizedAffinity>  (1) 
-5.74597359

>  <minimizedRMSD>  (1) 
3.18426728

$$$$
