
     RDKit          3D

 46 50  0  0  1  0  0  0  0  0999 V2000
   41.2980   24.2920   35.1470 O   0  0  0  0  0  0  0  0  0  0  0  0
   38.3300   22.8930   36.4940 C   0  0  0  0  0  0  0  0  0  0  0  0
   37.6940   22.3050   35.3870 C   0  0  0  0  0  0  0  0  0  0  0  0
   38.3270   22.4210   34.1330 C   0  0  0  0  0  0  0  0  0  0  0  0
   39.5030   23.0840   34.1000 N   0  0  0  0  0  0  0  0  0  0  0  0
   40.0850   23.6340   35.2150 C   0  0  0  0  0  0  0  0  0  0  0  0
   39.5220   23.5530   36.4010 N   0  0  0  0  0  0  0  0  0  0  0  0
   37.7550   21.8530   32.9790 N   0  0  0  0  0  0  0  0  0  0  0  0
   37.8950   20.5700   32.6100 N   0  0  0  0  0  0  0  0  0  0  0  0
   37.1520   20.3550   31.4860 C   0  0  0  0  0  0  0  0  0  0  0  0
   36.5430   21.5880   31.1780 C   0  0  0  0  0  0  0  0  0  0  0  0
   36.9420   22.5400   32.1360 C   0  0  0  0  0  0  0  0  0  0  0  0
   36.5470   23.9310   31.9680 C   0  0  0  0  0  0  0  0  0  0  0  0
   35.4500   24.1960   31.1550 C   0  0  0  0  0  0  0  0  0  0  0  0
   34.9370   25.4190   30.8730 C   0  0  0  0  0  0  0  0  0  0  0  0
   35.5520   26.4880   31.4380 N   0  0  0  0  0  0  0  0  0  0  0  0
   36.6080   26.2700   32.2230 C   0  0  0  0  0  0  0  0  0  0  0  0
   37.0040   25.0560   32.4170 N   0  0  0  0  0  0  0  0  0  0  0  0
   42.5130   23.7690   35.6820 C   0  0  1  0  0  0  0  0  0  0  0  0
   43.6880   24.2250   34.8450 C   0  0  0  0  0  0  0  0  0  0  0  0
   43.4840   24.7580   36.2110 C   0  0  2  0  0  0  0  0  0  0  0  0
   44.4930   24.3850   37.2260 C   0  0  0  0  0  0  0  0  0  0  0  0
   44.8850   25.5870   38.0630 C   0  0  0  0  0  0  0  0  0  0  0  0
   46.3090   25.9040   37.6630 C   0  0  0  0  0  0  0  0  0  0  0  0
   46.9100   24.6520   37.1300 C   0  0  0  0  0  0  0  0  0  0  0  0
   45.7490   23.9410   36.5180 C   0  0  0  0  0  0  0  0  0  0  0  0
   37.8461   22.8182   37.4790 H   0  0  0  0  0  0  0  0  0  0  0  0
   36.7370   21.7736   35.4954 H   0  0  0  0  0  0  0  0  0  0  0  0
   37.0491   19.4102   30.9322 H   0  0  0  0  0  0  0  0  0  0  0  0
   35.8680   21.7757   30.3300 H   0  0  0  0  0  0  0  0  0  0  0  0
   34.9504   23.3298   30.6966 H   0  0  0  0  0  0  0  0  0  0  0  0
   34.0626   25.5388   30.2165 H   0  0  0  0  0  0  0  0  0  0  0  0
   37.1337   27.1114   32.6980 H   0  0  0  0  0  0  0  0  0  0  0  0
   42.1051   22.8299   36.0842 H   0  0  0  0  0  0  0  0  0  0  0  0
   44.5203   23.5354   34.6405 H   0  0  0  0  0  0  0  0  0  0  0  0
   43.8104   24.6657   33.8446 H   0  0  0  0  0  0  0  0  0  0  0  0
   43.3557   25.7491   36.6706 H   0  0  0  0  0  0  0  0  0  0  0  0
   44.0632   23.5959   37.8605 H   0  0  0  0  0  0  0  0  0  0  0  0
   44.2248   26.4396   37.8459 H   0  0  0  0  0  0  0  0  0  0  0  0
   44.7972   25.3830   39.1403 H   0  0  0  0  0  0  0  0  0  0  0  0
   46.3170   26.6846   36.8880 H   0  0  0  0  0  0  0  0  0  0  0  0
   46.8821   26.2733   38.5262 H   0  0  0  0  0  0  0  0  0  0  0  0
   47.6773   24.8751   36.3741 H   0  0  0  0  0  0  0  0  0  0  0  0
   47.4171   24.0571   37.9038 H   0  0  0  0  0  0  0  0  0  0  0  0
   45.6813   24.1913   35.4490 H   0  0  0  0  0  0  0  0  0  0  0  0
   45.8757   22.8530   36.6188 H   0  0  0  0  0  0  0  0  0  0  0  0
  1  6  1  0
  1 19  1  0
  3  2  2  0
  4  3  1  0
  5  4  2  0
  5  6  1  0
  6  7  2  0
  7  2  1  0
  8  4  1  0
  9  8  1  0
 10  9  2  0
 11 10  1  0
 11 12  2  0
 12  8  1  0
 13 12  1  0
 13 18  1  0
 14 13  2  0
 15 14  1  0
 15 16  2  0
 16 17  1  0
 17 18  2  0
 19 21  1  0
 20 19  1  0
 20 21  1  0
 21 22  1  0
 22 23  1  0
 24 23  1  0
 25 24  1  0
 26 25  1  0
 26 22  1  0
  2 27  1  0
  3 28  1  0
 10 29  1  0
 11 30  1  0
 14 31  1  0
 15 32  1  0
 17 33  1  0
 19 34  1  1
 20 35  1  0
 20 36  1  0
 21 37  1  6
 22 38  1  0
 23 39  1  0
 23 40  1  0
 24 41  1  0
 24 42  1  0
 25 43  1  0
 25 44  1  0
 26 45  1  0
 26 46  1  0
M  ISO  8  27  14  28  14  29  14  30  14  31  14  32  14  33  14  34  13
M  ISO  8  35  13  36  13  37  13  38  13  39  13  40  13  41  13  42  13
M  ISO  4  43  13  44  13  45  13  46  13
M  END
>  <minimizedAffinity>  (1) 
-5.6773901

>  <minimizedRMSD>  (1) 
4.03635216

$$$$
