
     RDKit          3D

 51 55  0  0  1  0  0  0  0  0999 V2000
   43.6160   23.1550   35.9050 C   0  0  1  0  0  0  0  0  0  0  0  0
   43.2540   24.6230   36.0540 C   0  0  0  0  0  0  0  0  0  0  0  0
   44.4110   24.0350   36.7870 C   0  0  2  0  0  0  0  0  0  0  0  0
   45.7490   24.5300   36.3910 C   0  0  0  0  0  0  0  0  0  0  0  0
   46.8340   23.6050   36.9390 C   0  0  0  0  0  0  0  0  0  0  0  0
   47.5330   24.4270   38.0020 C   0  0  0  0  0  0  0  0  0  0  0  0
   47.3300   25.8620   37.6570 C   0  0  0  0  0  0  0  0  0  0  0  0
   45.9750   25.8740   37.0290 C   0  0  0  0  0  0  0  0  0  0  0  0
   42.7050   22.2840   36.5640 O   0  0  0  0  0  0  0  0  0  0  0  0
   39.4800   22.7870   37.8950 C   0  0  0  0  0  0  0  0  0  0  0  0
   38.6530   22.9260   36.7670 C   0  0  0  0  0  0  0  0  0  0  0  0
   39.2680   22.8380   35.5090 C   0  0  0  0  0  0  0  0  0  0  0  0
   40.5920   22.6260   35.4860 N   0  0  0  0  0  0  0  0  0  0  0  0
   41.3540   22.4970   36.6180 C   0  0  0  0  0  0  0  0  0  0  0  0
   40.8200   22.5740   37.8150 N   0  0  0  0  0  0  0  0  0  0  0  0
   38.5010   22.9910   34.3430 N   0  0  0  0  0  0  0  0  0  0  0  0
   38.0650   22.0290   33.5730 N   0  0  0  0  0  0  0  0  0  0  0  0
   37.3470   22.5250   32.5190 C   0  0  0  0  0  0  0  0  0  0  0  0
   37.3760   23.8910   32.7050 C   0  0  0  0  0  0  0  0  0  0  0  0
   38.0950   24.1470   33.8360 C   0  0  0  0  0  0  0  0  0  0  0  0
   38.2690   25.5600   34.1170 C   0  0  0  0  0  0  0  0  0  0  0  0
   39.6390   25.9100   34.6700 C   0  0  0  0  0  0  0  0  0  0  0  0
   39.3970   27.3740   35.0590 C   0  0  0  0  0  0  0  0  0  0  0  0
   37.9130   27.5020   35.3370 C   0  0  0  0  0  0  0  0  0  0  0  0
   37.4360   26.0440   35.3430 C   0  0  0  0  0  0  0  0  0  0  0  0
   43.8602   22.4751   35.0755 H   0  0  0  0  0  0  0  0  0  0  0  0
   43.4237   25.3219   35.2217 H   0  0  0  0  0  0  0  0  0  0  0  0
   42.3503   25.1838   36.3346 H   0  0  0  0  0  0  0  0  0  0  0  0
   44.7283   23.9319   37.8352 H   0  0  0  0  0  0  0  0  0  0  0  0
   45.7942   24.5789   35.2930 H   0  0  0  0  0  0  0  0  0  0  0  0
   46.3881   22.7003   37.3780 H   0  0  0  0  0  0  0  0  0  0  0  0
   47.5249   23.2609   36.1552 H   0  0  0  0  0  0  0  0  0  0  0  0
   47.0991   24.2123   38.9897 H   0  0  0  0  0  0  0  0  0  0  0  0
   48.6050   24.1835   38.0403 H   0  0  0  0  0  0  0  0  0  0  0  0
   47.3523   26.4914   38.5589 H   0  0  0  0  0  0  0  0  0  0  0  0
   48.1144   26.2622   36.9978 H   0  0  0  0  0  0  0  0  0  0  0  0
   45.9242   26.6637   36.2649 H   0  0  0  0  0  0  0  0  0  0  0  0
   45.2031   26.0730   37.7870 H   0  0  0  0  0  0  0  0  0  0  0  0
   39.0199   22.8539   38.8919 H   0  0  0  0  0  0  0  0  0  0  0  0
   37.5708   23.0963   36.8662 H   0  0  0  0  0  0  0  0  0  0  0  0
   36.8587   21.9630   31.7092 H   0  0  0  0  0  0  0  0  0  0  0  0
   36.9027   24.6423   32.0557 H   0  0  0  0  0  0  0  0  0  0  0  0
   38.0160   26.0012   33.1416 H   0  0  0  0  0  0  0  0  0  0  0  0
   39.8980   25.2923   35.5425 H   0  0  0  0  0  0  0  0  0  0  0  0
   40.4768   25.7451   33.9765 H   0  0  0  0  0  0  0  0  0  0  0  0
   39.9762   27.6295   35.9586 H   0  0  0  0  0  0  0  0  0  0  0  0
   39.7134   28.0576   34.2574 H   0  0  0  0  0  0  0  0  0  0  0  0
   37.7331   27.9808   36.3108 H   0  0  0  0  0  0  0  0  0  0  0  0
   37.3865   28.1273   34.6010 H   0  0  0  0  0  0  0  0  0  0  0  0
   36.3524   25.9560   35.1755 H   0  0  0  0  0  0  0  0  0  0  0  0
   37.5753   25.4866   36.2810 H   0  0  0  0  0  0  0  0  0  0  0  0
  1  2  1  0
  1  9  1  0
  1  3  1  0
  2  3  1  0
  4  3  1  0
  4  5  1  0
  4  8  1  0
  5  6  1  0
  7  6  1  0
  8  7  1  0
  9 14  1  0
 11 10  2  0
 12 11  1  0
 13 12  2  0
 13 14  1  0
 14 15  2  0
 15 10  1  0
 16 12  1  0
 17 16  1  0
 18 19  1  0
 18 17  2  0
 19 20  2  0
 20 21  1  0
 20 16  1  0
 21 22  1  0
 21 25  1  0
 22 23  1  0
 23 24  1  0
 24 25  1  0
  1 26  1  6
  2 27  1  0
  2 28  1  0
  3 29  1  1
  4 30  1  0
  5 31  1  0
  5 32  1  0
  6 33  1  0
  6 34  1  0
  7 35  1  0
  7 36  1  0
  8 37  1  0
  8 38  1  0
 10 39  1  0
 11 40  1  0
 18 41  1  0
 19 42  1  0
 21 43  1  0
 22 44  1  0
 22 45  1  0
 23 46  1  0
 23 47  1  0
 24 48  1  0
 24 49  1  0
 25 50  1  0
 25 51  1  0
M  ISO  8  26  13  27  13  28  13  29  13  30  13  31  13  32  13  33  13
M  ISO  8  34  13  35  13  36  13  37  13  38  13  39  14  40  14  41  14
M  ISO  8  42  14  43  13  44  13  45  13  46  13  47  13  48  13  49  13
M  ISO  2  50  13  51  13
M  END
>  <minimizedAffinity>  (1) 
-5.37690163

>  <minimizedRMSD>  (1) 
5.77800846

$$$$
