
     RDKit          3D

 45 49  0  0  1  0  0  0  0  0999 V2000
   38.6550   23.1040   36.0610 O   0  0  0  0  0  0  0  0  0  0  0  0
   35.7280   21.1320   36.2930 C   0  0  0  0  0  0  0  0  0  0  0  0
   35.5510   20.6300   35.0030 C   0  0  0  0  0  0  0  0  0  0  0  0
   36.4870   20.9980   34.0230 C   0  0  0  0  0  0  0  0  0  0  0  0
   37.4820   21.8050   34.4080 N   0  0  0  0  0  0  0  0  0  0  0  0
   37.6200   22.2770   35.6970 C   0  0  0  0  0  0  0  0  0  0  0  0
   36.7620   21.9520   36.6310 N   0  0  0  0  0  0  0  0  0  0  0  0
   36.3590   20.5520   32.6920 N   0  0  0  0  0  0  0  0  0  0  0  0
   36.3290   19.2940   32.2910 N   0  0  0  0  0  0  0  0  0  0  0  0
   36.2200   19.2430   30.9380 C   0  0  0  0  0  0  0  0  0  0  0  0
   36.1810   20.5810   30.5180 C   0  0  0  0  0  0  0  0  0  0  0  0
   36.2700   21.3730   31.6360 C   0  0  0  0  0  0  0  0  0  0  0  0
   36.2650   22.7570   31.4030 N   0  0  0  0  0  0  0  0  0  0  0  0
   35.3780   23.7700   31.4510 N   0  0  0  0  0  0  0  0  0  0  0  0
   35.9900   24.9080   31.0770 C   0  0  0  0  0  0  0  0  0  0  0  0
   37.3190   24.6370   30.7720 C   0  0  0  0  0  0  0  0  0  0  0  0
   37.4590   23.2810   30.9860 C   0  0  0  0  0  0  0  0  0  0  0  0
   39.7980   23.3490   35.2590 C   0  0  1  0  0  0  0  0  0  0  0  0
   40.0380   24.8450   35.1050 C   0  0  0  0  0  0  0  0  0  0  0  0
   40.9570   23.9880   35.9200 C   0  0  2  0  0  0  0  0  0  0  0  0
   42.3340   23.8360   35.4150 C   0  0  0  0  0  0  0  0  0  0  0  0
   43.2240   23.1910   36.4500 C   0  0  0  0  0  0  0  0  0  0  0  0
   44.1790   24.2700   36.8930 C   0  0  0  0  0  0  0  0  0  0  0  0
   44.2530   25.2850   35.8040 C   0  0  0  0  0  0  0  0  0  0  0  0
   42.9110   25.2160   35.1640 C   0  0  0  0  0  0  0  0  0  0  0  0
   35.0013   20.8536   37.0704 H   0  0  0  0  0  0  0  0  0  0  0  0
   34.7063   19.9680   34.7618 H   0  0  0  0  0  0  0  0  0  0  0  0
   36.1724   18.3439   30.3061 H   0  0  0  0  0  0  0  0  0  0  0  0
   36.0946   20.9325   29.4793 H   0  0  0  0  0  0  0  0  0  0  0  0
   35.5136   25.8979   31.0212 H   0  0  0  0  0  0  0  0  0  0  0  0
   38.0888   25.3467   30.4346 H   0  0  0  0  0  0  0  0  0  0  0  0
   38.3876   22.7088   30.8434 H   0  0  0  0  0  0  0  0  0  0  0  0
   39.7021   22.4657   34.6105 H   0  0  0  0  0  0  0  0  0  0  0  0
   40.3733   25.2557   34.1412 H   0  0  0  0  0  0  0  0  0  0  0  0
   39.4502   25.7575   35.2834 H   0  0  0  0  0  0  0  0  0  0  0  0
   41.3178   23.9590   36.9587 H   0  0  0  0  0  0  0  0  0  0  0  0
   42.2960   23.2184   34.5055 H   0  0  0  0  0  0  0  0  0  0  0  0
   42.6262   22.8341   37.3016 H   0  0  0  0  0  0  0  0  0  0  0  0
   43.7562   22.3188   36.0424 H   0  0  0  0  0  0  0  0  0  0  0  0
   43.8116   24.7389   37.8178 H   0  0  0  0  0  0  0  0  0  0  0  0
   45.1741   23.8456   37.0923 H   0  0  0  0  0  0  0  0  0  0  0  0
   44.4403   26.2880   36.2150 H   0  0  0  0  0  0  0  0  0  0  0  0
   45.0727   25.0914   35.0964 H   0  0  0  0  0  0  0  0  0  0  0  0
   43.0058   25.3883   34.0817 H   0  0  0  0  0  0  0  0  0  0  0  0
   42.2493   25.9861   35.5872 H   0  0  0  0  0  0  0  0  0  0  0  0
  2  7  2  0
  3  2  1  0
  4  5  1  0
  4  3  2  0
  5  6  2  0
  6  1  1  0
  6  7  1  0
  8  4  1  0
  9  8  1  0
 10  9  2  0
 11 10  1  0
 11 12  2  0
 12  8  1  0
 13 14  1  0
 13 12  1  0
 15 14  2  0
 16 17  2  0
 16 15  1  0
 17 13  1  0
 18 20  1  0
 18  1  1  0
 19 18  1  0
 19 20  1  0
 21 20  1  0
 21 22  1  0
 22 23  1  0
 24 23  1  0
 25 21  1  0
 25 24  1  0
  2 26  1  0
  3 27  1  0
 10 28  1  0
 11 29  1  0
 15 30  1  0
 16 31  1  0
 17 32  1  0
 18 33  1  6
 19 34  1  0
 19 35  1  0
 20 36  1  1
 21 37  1  0
 22 38  1  0
 22 39  1  0
 23 40  1  0
 23 41  1  0
 24 42  1  0
 24 43  1  0
 25 44  1  0
 25 45  1  0
M  ISO  8  26  14  27  14  28  14  29  14  30  14  31  14  32  14  33  13
M  ISO  8  34  13  35  13  36  13  37  13  38  13  39  13  40  13  41  13
M  ISO  4  42  13  43  13  44  13  45  13
M  END
>  <minimizedAffinity>  (1) 
-5.37578726

>  <minimizedRMSD>  (1) 
2.73151755

$$$$
