
     RDKit          3D

 50 53  0  0  1  0  0  0  0  0999 V2000
   39.8810   24.9150   33.9180 C   0  0  1  0  0  0  0  0  0  0  0  0
   40.3480   25.9140   34.9490 C   0  0  0  0  0  0  0  0  0  0  0  0
   40.7430   24.4920   35.0460 C   0  0  2  0  0  0  0  0  0  0  0  0
   42.1810   24.1900   34.8510 C   0  0  0  0  0  0  0  0  0  0  0  0
   42.6740   23.2090   35.8970 C   0  0  0  0  0  0  0  0  0  0  0  0
   43.6050   24.0070   36.7820 C   0  0  0  0  0  0  0  0  0  0  0  0
   44.1090   25.1520   35.9750 C   0  0  0  0  0  0  0  0  0  0  0  0
   42.9740   25.4570   35.0540 C   0  0  0  0  0  0  0  0  0  0  0  0
   38.4850   24.6630   34.0660 O   0  0  0  0  0  0  0  0  0  0  0  0
   35.9360   24.5170   31.6100 C   0  0  0  0  0  0  0  0  0  0  0  0
   36.0830   23.2380   31.0570 C   0  0  0  0  0  0  0  0  0  0  0  0
   37.1010   22.4120   31.5460 C   0  0  0  0  0  0  0  0  0  0  0  0
   37.8570   22.9260   32.5240 N   0  0  0  0  0  0  0  0  0  0  0  0
   37.6890   24.1780   33.0490 C   0  0  0  0  0  0  0  0  0  0  0  0
   36.7370   24.9810   32.6000 N   0  0  0  0  0  0  0  0  0  0  0  0
   37.2780   21.1190   31.0230 N   0  0  0  0  0  0  0  0  0  0  0  0
   38.1920   20.8150   30.0900 N   0  0  0  0  0  0  0  0  0  0  0  0
   38.1130   19.4660   29.8500 C   0  0  0  0  0  0  0  0  0  0  0  0
   37.0880   18.9810   30.7030 C   0  0  0  0  0  0  0  0  0  0  0  0
   36.5720   20.0440   31.4330 C   0  0  0  0  0  0  0  0  0  0  0  0
   35.4740   19.7120   32.3490 C   0  0  0  0  0  0  0  0  0  0  0  0
   35.6940   20.4480   33.7250 C   0  0  0  0  0  0  0  0  0  0  0  0
   35.3480   18.2830   32.7560 C   0  0  0  0  0  0  0  0  0  0  0  0
   34.1280   20.3220   31.9350 C   0  0  0  0  0  0  0  0  0  0  0  0
   39.9426   24.7746   32.8287 H   0  0  0  0  0  0  0  0  0  0  0  0
   41.0938   26.6765   34.6800 H   0  0  0  0  0  0  0  0  0  0  0  0
   39.8550   26.6352   35.6174 H   0  0  0  0  0  0  0  0  0  0  0  0
   40.6493   23.6850   35.7876 H   0  0  0  0  0  0  0  0  0  0  0  0
   42.3070   23.7711   33.8417 H   0  0  0  0  0  0  0  0  0  0  0  0
   41.8309   22.8130   36.4821 H   0  0  0  0  0  0  0  0  0  0  0  0
   43.1795   22.3438   35.4431 H   0  0  0  0  0  0  0  0  0  0  0  0
   43.0610   24.3780   37.6632 H   0  0  0  0  0  0  0  0  0  0  0  0
   44.4387   23.3819   37.1345 H   0  0  0  0  0  0  0  0  0  0  0  0
   44.3368   26.0154   36.6173 H   0  0  0  0  0  0  0  0  0  0  0  0
   45.0430   24.9215   35.4416 H   0  0  0  0  0  0  0  0  0  0  0  0
   43.3628   25.8122   34.0882 H   0  0  0  0  0  0  0  0  0  0  0  0
   42.3345   26.2417   35.4845 H   0  0  0  0  0  0  0  0  0  0  0  0
   35.1390   25.1704   31.2254 H   0  0  0  0  0  0  0  0  0  0  0  0
   35.4131   22.8911   30.2564 H   0  0  0  0  0  0  0  0  0  0  0  0
   38.7192   18.8814   29.1424 H   0  0  0  0  0  0  0  0  0  0  0  0
   36.7564   17.9346   30.7744 H   0  0  0  0  0  0  0  0  0  0  0  0
   35.4858   19.7516   34.5507 H   0  0  0  0  0  0  0  0  0  0  0  0
   36.7354   20.7958   33.7924 H   0  0  0  0  0  0  0  0  0  0  0  0
   35.0143   21.3103   33.7924 H   0  0  0  0  0  0  0  0  0  0  0  0
   35.3419   18.2136   33.8538 H   0  0  0  0  0  0  0  0  0  0  0  0
   34.4099   17.8695   32.3572 H   0  0  0  0  0  0  0  0  0  0  0  0
   36.1993   17.7117   32.3572 H   0  0  0  0  0  0  0  0  0  0  0  0
   33.5516   20.5832   32.8347 H   0  0  0  0  0  0  0  0  0  0  0  0
   34.3046   21.2281   31.3368 H   0  0  0  0  0  0  0  0  0  0  0  0
   33.5631   19.5919   31.3368 H   0  0  0  0  0  0  0  0  0  0  0  0
  1  9  1  0
  1  2  1  0
  1  3  1  0
  2  3  1  0
  4  3  1  0
  4  8  1  0
  4  5  1  0
  5  6  1  0
  7  6  1  0
  8  7  1  0
 10 15  2  0
 11 12  2  0
 11 10  1  0
 12 13  1  0
 13 14  2  0
 14  9  1  0
 15 14  1  0
 16 20  1  0
 16 12  1  0
 17 16  1  0
 18 17  2  0
 18 19  1  0
 19 20  2  0
 20 21  1  0
 21 23  1  0
 21 22  1  0
 24 21  1  0
  1 25  1  6
  2 26  1  0
  2 27  1  0
  3 28  1  1
  4 29  1  0
  5 30  1  0
  5 31  1  0
  6 32  1  0
  6 33  1  0
  7 34  1  0
  7 35  1  0
  8 36  1  0
  8 37  1  0
 10 38  1  0
 11 39  1  0
 18 40  1  0
 19 41  1  0
 22 42  1  0
 22 43  1  0
 22 44  1  0
 23 45  1  0
 23 46  1  0
 23 47  1  0
 24 48  1  0
 24 49  1  0
 24 50  1  0
M  ISO  8  25  13  26  13  27  13  28  13  29  13  30  13  31  13  32  13
M  ISO  8  33  13  34  13  35  13  36  13  37  13  38  14  39  14  40  14
M  ISO  8  41  14  42   8  43   8  44   8  45   8  46   8  47   8  48   8
M  ISO  2  49   8  50   8
M  END
>  <minimizedAffinity>  (1) 
-5.06798029

>  <minimizedRMSD>  (1) 
2.32727671

$$$$
