
     RDKit          3D

 45 49  0  0  1  0  0  0  0  0999 V2000
   42.7110   22.8580   36.2980 C   0  0  1  0  0  0  0  0  0  0  0  0
   42.5550   24.3310   35.9470 C   0  0  0  0  0  0  0  0  0  0  0  0
   43.6920   23.8590   36.7700 C   0  0  2  0  0  0  0  0  0  0  0  0
   45.0390   23.9730   36.1840 C   0  0  0  0  0  0  0  0  0  0  0  0
   46.0580   24.4100   37.2270 C   0  0  0  0  0  0  0  0  0  0  0  0
   46.4490   25.8120   36.8230 C   0  0  0  0  0  0  0  0  0  0  0  0
   46.1630   25.9660   35.3590 C   0  0  0  0  0  0  0  0  0  0  0  0
   45.0080   25.0540   35.1400 C   0  0  0  0  0  0  0  0  0  0  0  0
   41.7120   22.4500   37.2230 O   0  0  0  0  0  0  0  0  0  0  0  0
   38.3690   23.2790   38.0000 C   0  0  0  0  0  0  0  0  0  0  0  0
   37.6920   23.1510   36.7770 C   0  0  0  0  0  0  0  0  0  0  0  0
   38.4380   22.7630   35.6550 C   0  0  0  0  0  0  0  0  0  0  0  0
   39.7440   22.5480   35.8530 N   0  0  0  0  0  0  0  0  0  0  0  0
   40.3650   22.6850   37.0710 C   0  0  0  0  0  0  0  0  0  0  0  0
   39.6950   23.0440   38.1320 N   0  0  0  0  0  0  0  0  0  0  0  0
   37.8220   22.6050   34.3980 N   0  0  0  0  0  0  0  0  0  0  0  0
   37.2150   21.5260   33.9530 N   0  0  0  0  0  0  0  0  0  0  0  0
   36.7170   21.7100   32.7090 C   0  0  0  0  0  0  0  0  0  0  0  0
   37.0640   23.0200   32.3940 C   0  0  0  0  0  0  0  0  0  0  0  0
   37.7480   23.5400   33.4640 C   0  0  0  0  0  0  0  0  0  0  0  0
   38.1740   24.8570   33.2860 N   0  0  0  0  0  0  0  0  0  0  0  0
   39.3020   25.6320   33.4060 C   0  0  0  0  0  0  0  0  0  0  0  0
   39.0190   26.9420   33.0940 C   0  0  0  0  0  0  0  0  0  0  0  0
   37.6960   26.9910   32.7720 N   0  0  0  0  0  0  0  0  0  0  0  0
   37.1950   25.7320   32.8910 C   0  0  0  0  0  0  0  0  0  0  0  0
   42.8116   21.8961   35.7740 H   0  0  0  0  0  0  0  0  0  0  0  0
   42.7241   24.6744   34.9158 H   0  0  0  0  0  0  0  0  0  0  0  0
   41.7626   25.0849   36.0640 H   0  0  0  0  0  0  0  0  0  0  0  0
   44.0976   24.0793   37.7685 H   0  0  0  0  0  0  0  0  0  0  0  0
   45.3194   22.9917   35.7737 H   0  0  0  0  0  0  0  0  0  0  0  0
   45.6095   24.4073   38.2314 H   0  0  0  0  0  0  0  0  0  0  0  0
   46.9245   23.7337   37.2689 H   0  0  0  0  0  0  0  0  0  0  0  0
   45.8623   26.5439   37.3975 H   0  0  0  0  0  0  0  0  0  0  0  0
   47.5161   25.9858   37.0255 H   0  0  0  0  0  0  0  0  0  0  0  0
   45.8964   27.0053   35.1164 H   0  0  0  0  0  0  0  0  0  0  0  0
   47.0281   25.7266   34.7231 H   0  0  0  0  0  0  0  0  0  0  0  0
   44.0688   25.6207   35.2225 H   0  0  0  0  0  0  0  0  0  0  0  0
   45.0703   24.6066   34.1370 H   0  0  0  0  0  0  0  0  0  0  0  0
   37.7971   23.5833   38.8890 H   0  0  0  0  0  0  0  0  0  0  0  0
   36.6125   23.3485   36.7014 H   0  0  0  0  0  0  0  0  0  0  0  0
   36.1643   20.9892   32.0886 H   0  0  0  0  0  0  0  0  0  0  0  0
   36.8317   23.5448   31.4556 H   0  0  0  0  0  0  0  0  0  0  0  0
   40.2913   25.2583   33.7086 H   0  0  0  0  0  0  0  0  0  0  0  0
   39.7243   27.7861   33.1028 H   0  0  0  0  0  0  0  0  0  0  0  0
   36.1485   25.4541   32.6970 H   0  0  0  0  0  0  0  0  0  0  0  0
  1  3  1  0
  1  9  1  0
  2  1  1  0
  2  3  1  0
  4  3  1  0
  4  5  1  0
  6  5  1  0
  7  6  1  0
  8  7  1  0
  8  4  1  0
 10 15  2  0
 11 10  1  0
 12 13  1  0
 12 11  2  0
 13 14  2  0
 14  9  1  0
 14 15  1  0
 16 12  1  0
 17 16  1  0
 18 17  2  0
 19 18  1  0
 19 20  2  0
 20 16  1  0
 21 22  1  0
 21 20  1  0
 23 22  2  0
 24 25  2  0
 24 23  1  0
 25 21  1  0
  1 26  1  6
  2 27  1  0
  2 28  1  0
  3 29  1  1
  4 30  1  0
  5 31  1  0
  5 32  1  0
  6 33  1  0
  6 34  1  0
  7 35  1  0
  7 36  1  0
  8 37  1  0
  8 38  1  0
 10 39  1  0
 11 40  1  0
 18 41  1  0
 19 42  1  0
 22 43  1  0
 23 44  1  0
 25 45  1  0
M  ISO  8  26  13  27  13  28  13  29  13  30  13  31  13  32  13  33  13
M  ISO  8  34  13  35  13  36  13  37  13  38  13  39  14  40  14  41  14
M  ISO  4  42  14  43  14  44  14  45  14
M  END
>  <minimizedAffinity>  (1) 
-5.04757786

>  <minimizedRMSD>  (1) 
5.12219334

$$$$
