
     RDKit          3D

 53 57  0  0  1  0  0  0  0  0999 V2000
   42.6100   23.1510   36.3500 O   0  0  0  0  0  0  0  0  0  0  0  0
   39.6090   22.0790   34.8340 C   0  0  0  0  0  0  0  0  0  0  0  0
   38.8670   23.2610   34.6610 C   0  0  0  0  0  0  0  0  0  0  0  0
   39.4580   24.4600   35.0980 C   0  0  0  0  0  0  0  0  0  0  0  0
   40.6820   24.3870   35.6440 N   0  0  0  0  0  0  0  0  0  0  0  0
   41.3630   23.2000   35.7890 C   0  0  0  0  0  0  0  0  0  0  0  0
   40.8530   22.0630   35.3980 N   0  0  0  0  0  0  0  0  0  0  0  0
   38.7590   25.6790   34.9700 N   0  0  0  0  0  0  0  0  0  0  0  0
   38.6000   26.5860   35.9160 N   0  0  0  0  0  0  0  0  0  0  0  0
   37.8630   27.6340   35.4730 C   0  0  0  0  0  0  0  0  0  0  0  0
   37.5600   27.3190   34.1570 C   0  0  0  0  0  0  0  0  0  0  0  0
   38.1330   26.1000   33.8850 C   0  0  0  0  0  0  0  0  0  0  0  0
   37.9180   25.6430   32.5860 N   0  0  0  0  0  0  0  0  0  0  0  0
   39.1280   25.7490   31.7430 C   0  0  0  0  0  0  0  0  0  0  0  0
   38.6530   25.4530   30.3270 C   0  0  0  0  0  0  0  0  0  0  0  0
   38.0070   24.1100   30.3710 C   0  0  0  0  0  0  0  0  0  0  0  0
   36.7170   24.1270   31.1350 C   0  0  0  0  0  0  0  0  0  0  0  0
   36.6060   25.1800   32.1920 C   0  0  0  0  0  0  0  0  0  0  0  0
   43.6520   24.0780   36.0660 C   0  0  1  0  0  0  0  0  0  0  0  0
   43.9420   24.9940   37.2490 C   0  0  0  0  0  0  0  0  0  0  0  0
   44.8980   23.9370   36.8490 C   0  0  2  0  0  0  0  0  0  0  0  0
   46.2100   24.3780   36.3320 C   0  0  0  0  0  0  0  0  0  0  0  0
   47.3460   23.7240   37.1110 C   0  0  0  0  0  0  0  0  0  0  0  0
   47.9710   24.8490   37.9050 C   0  0  0  0  0  0  0  0  0  0  0  0
   47.6680   26.1200   37.1850 C   0  0  0  0  0  0  0  0  0  0  0  0
   46.3270   25.8690   36.5700 C   0  0  0  0  0  0  0  0  0  0  0  0
   39.1691   21.1273   34.5011 H   0  0  0  0  0  0  0  0  0  0  0  0
   37.8668   23.2483   34.2033 H   0  0  0  0  0  0  0  0  0  0  0  0
   37.5703   28.5343   36.0331 H   0  0  0  0  0  0  0  0  0  0  0  0
   36.9699   27.9318   33.4596 H   0  0  0  0  0  0  0  0  0  0  0  0
   39.5533   26.7616   31.8038 H   0  0  0  0  0  0  0  0  0  0  0  0
   39.9173   25.0544   32.0663 H   0  0  0  0  0  0  0  0  0  0  0  0
   39.5071   25.4416   29.6339 H   0  0  0  0  0  0  0  0  0  0  0  0
   37.9502   26.2218   29.9736 H   0  0  0  0  0  0  0  0  0  0  0  0
   37.8046   23.7803   29.3413 H   0  0  0  0  0  0  0  0  0  0  0  0
   38.6943   23.4212   30.8840 H   0  0  0  0  0  0  0  0  0  0  0  0
   35.8995   24.2821   30.4155 H   0  0  0  0  0  0  0  0  0  0  0  0
   36.6673   23.1635   31.6634 H   0  0  0  0  0  0  0  0  0  0  0  0
   36.0260   26.0279   31.7987 H   0  0  0  0  0  0  0  0  0  0  0  0
   36.1020   24.7504   33.0703 H   0  0  0  0  0  0  0  0  0  0  0  0
   43.4373   24.1819   34.9922 H   0  0  0  0  0  0  0  0  0  0  0  0
   44.1867   26.0532   37.0812 H   0  0  0  0  0  0  0  0  0  0  0  0
   43.4174   25.2665   38.1767 H   0  0  0  0  0  0  0  0  0  0  0  0
   45.3700   23.0664   37.3278 H   0  0  0  0  0  0  0  0  0  0  0  0
   46.2787   24.1091   35.2676 H   0  0  0  0  0  0  0  0  0  0  0  0
   46.9563   22.9456   37.7835 H   0  0  0  0  0  0  0  0  0  0  0  0
   48.0727   23.2312   36.4484 H   0  0  0  0  0  0  0  0  0  0  0  0
   47.5427   24.8785   38.9178 H   0  0  0  0  0  0  0  0  0  0  0  0
   49.0573   24.7034   37.9990 H   0  0  0  0  0  0  0  0  0  0  0  0
   47.6258   26.9671   37.8855 H   0  0  0  0  0  0  0  0  0  0  0  0
   48.4353   26.3819   36.4416 H   0  0  0  0  0  0  0  0  0  0  0  0
   46.2438   26.4098   35.6157 H   0  0  0  0  0  0  0  0  0  0  0  0
   45.5233   26.2207   37.2337 H   0  0  0  0  0  0  0  0  0  0  0  0
  2  7  2  0
  3  2  1  0
  3  4  2  0
  4  5  1  0
  5  6  2  0
  6  1  1  0
  7  6  1  0
  8  4  1  0
  8  9  1  0
 10  9  2  0
 11 10  1  0
 12 11  2  0
 12  8  1  0
 13 12  1  0
 14 13  1  0
 15 16  1  0
 15 14  1  0
 16 17  1  0
 17 18  1  0
 18 13  1  0
 19  1  1  0
 19 21  1  0
 19 20  1  0
 21 20  1  0
 22 26  1  0
 22 21  1  0
 22 23  1  0
 23 24  1  0
 25 24  1  0
 26 25  1  0
  2 27  1  0
  3 28  1  0
 10 29  1  0
 11 30  1  0
 14 31  1  0
 14 32  1  0
 15 33  1  0
 15 34  1  0
 16 35  1  0
 16 36  1  0
 17 37  1  0
 17 38  1  0
 18 39  1  0
 18 40  1  0
 19 41  1  6
 20 42  1  0
 20 43  1  0
 21 44  1  1
 22 45  1  0
 23 46  1  0
 23 47  1  0
 24 48  1  0
 24 49  1  0
 25 50  1  0
 25 51  1  0
 26 52  1  0
 26 53  1  0
M  ISO  8  27  14  28  14  29  14  30  14  31  13  32  13  33  13  34  13
M  ISO  8  35  13  36  13  37  13  38  13  39  13  40  13  41  13  42  13
M  ISO  8  43  13  44  13  45  13  46  13  47  13  48  13  49  13  50  13
M  ISO  3  51  13  52  13  53  13
M  END
>  <minimizedAffinity>  (1) 
-4.93271494

>  <minimizedRMSD>  (1) 
6.12473869

$$$$
