
     RDKit          3D

 47 50  0  0  1  0  0  0  0  0999 V2000
   41.8620   24.7070   34.6220 C   0  0  1  0  0  0  0  0  0  0  0  0
   42.5160   25.9520   34.0350 C   0  0  0  0  0  0  0  0  0  0  0  0
   42.8770   25.4540   35.3900 C   0  0  2  0  0  0  0  0  0  0  0  0
   44.2520   24.9470   35.5560 C   0  0  0  0  0  0  0  0  0  0  0  0
   44.3790   24.1740   36.8630 C   0  0  0  0  0  0  0  0  0  0  0  0
   45.2540   25.0430   37.7400 C   0  0  0  0  0  0  0  0  0  0  0  0
   46.0750   25.9030   36.8450 C   0  0  0  0  0  0  0  0  0  0  0  0
   45.1920   26.1140   35.6600 C   0  0  0  0  0  0  0  0  0  0  0  0
   40.5070   24.9280   35.0040 O   0  0  0  0  0  0  0  0  0  0  0  0
   37.9280   22.9020   36.2920 C   0  0  0  0  0  0  0  0  0  0  0  0
   37.6790   21.9700   35.2720 C   0  0  0  0  0  0  0  0  0  0  0  0
   38.4480   22.0700   34.1050 C   0  0  0  0  0  0  0  0  0  0  0  0
   39.3650   23.0470   34.0550 N   0  0  0  0  0  0  0  0  0  0  0  0
   39.5720   23.9360   35.0790 C   0  0  0  0  0  0  0  0  0  0  0  0
   38.8690   23.8770   36.1930 N   0  0  0  0  0  0  0  0  0  0  0  0
   38.2180   21.1830   33.0420 N   0  0  0  0  0  0  0  0  0  0  0  0
   39.1300   20.4180   32.4760 N   0  0  0  0  0  0  0  0  0  0  0  0
   38.5790   19.6670   31.4750 C   0  0  0  0  0  0  0  0  0  0  0  0
   37.2440   20.0320   31.4670 C   0  0  0  0  0  0  0  0  0  0  0  0
   37.0500   20.9700   32.4420 C   0  0  0  0  0  0  0  0  0  0  0  0
   35.6940   21.5140   32.5070 C   0  0  0  0  0  0  0  0  0  0  0  0
   35.5080   22.7160   31.5210 C   0  0  0  0  0  0  0  0  0  0  0  0
   34.6440   20.5220   32.0270 C   0  0  0  0  0  0  0  0  0  0  0  0
   41.7435   23.6520   34.3342 H   0  0  0  0  0  0  0  0  0  0  0  0
   43.2306   25.8623   33.2036 H   0  0  0  0  0  0  0  0  0  0  0  0
   42.1582   26.9048   33.6178 H   0  0  0  0  0  0  0  0  0  0  0  0
   42.8755   25.8544   36.4145 H   0  0  0  0  0  0  0  0  0  0  0  0
   44.4872   24.3005   34.6976 H   0  0  0  0  0  0  0  0  0  0  0  0
   43.3913   24.0274   37.3245 H   0  0  0  0  0  0  0  0  0  0  0  0
   44.8053   23.1710   36.7135 H   0  0  0  0  0  0  0  0  0  0  0  0
   44.6273   25.6700   38.3913 H   0  0  0  0  0  0  0  0  0  0  0  0
   45.8999   24.4217   38.3779 H   0  0  0  0  0  0  0  0  0  0  0  0
   46.3160   26.8598   37.3313 H   0  0  0  0  0  0  0  0  0  0  0  0
   47.0424   25.4494   36.5836 H   0  0  0  0  0  0  0  0  0  0  0  0
   45.8035   26.1810   34.7481 H   0  0  0  0  0  0  0  0  0  0  0  0
   44.6233   27.0487   35.7738 H   0  0  0  0  0  0  0  0  0  0  0  0
   37.3330   22.8399   37.2151 H   0  0  0  0  0  0  0  0  0  0  0  0
   36.9101   21.1915   35.3846 H   0  0  0  0  0  0  0  0  0  0  0  0
   39.0828   18.9378   30.8235 H   0  0  0  0  0  0  0  0  0  0  0  0
   36.4716   19.6352   30.7918 H   0  0  0  0  0  0  0  0  0  0  0  0
   35.5672   21.7877   33.5648 H   0  0  0  0  0  0  0  0  0  0  0  0
   35.3646   23.6429   32.0957 H   0  0  0  0  0  0  0  0  0  0  0  0
   36.4020   22.8121   30.8873 H   0  0  0  0  0  0  0  0  0  0  0  0
   34.6268   22.5374   30.8873 H   0  0  0  0  0  0  0  0  0  0  0  0
   34.1533   20.0585   32.8956 H   0  0  0  0  0  0  0  0  0  0  0  0
   33.8931   21.0482   31.4193 H   0  0  0  0  0  0  0  0  0  0  0  0
   35.1267   19.7425   31.4193 H   0  0  0  0  0  0  0  0  0  0  0  0
  1  9  1  0
  1  3  1  0
  2  1  1  0
  2  3  1  0
  3  4  1  0
  4  8  1  0
  4  5  1  0
  5  6  1  0
  7  6  1  0
  8  7  1  0
  9 14  1  0
 11 10  2  0
 12 11  1  0
 13 12  2  0
 13 14  1  0
 14 15  2  0
 15 10  1  0
 16 12  1  0
 17 16  1  0
 18 17  2  0
 19 18  1  0
 19 20  2  0
 20 21  1  0
 20 16  1  0
 22 21  1  0
 23 21  1  0
  1 24  1  6
  2 25  1  0
  2 26  1  0
  3 27  1  1
  4 28  1  0
  5 29  1  0
  5 30  1  0
  6 31  1  0
  6 32  1  0
  7 33  1  0
  7 34  1  0
  8 35  1  0
  8 36  1  0
 10 37  1  0
 11 38  1  0
 18 39  1  0
 19 40  1  0
 21 41  1  0
 22 42  1  0
 22 43  1  0
 22 44  1  0
 23 45  1  0
 23 46  1  0
 23 47  1  0
M  ISO  8  24  13  25  13  26  13  27  13  28  13  29  13  30  13  31  13
M  ISO  8  32  13  33  13  34  13  35  13  36  13  37  14  38  14  39  14
M  ISO  8  40  14  41   8  42   8  43   8  44   8  45   8  46   8  47   8
M  END
>  <minimizedAffinity>  (1) 
-4.86446619

>  <minimizedRMSD>  (1) 
2.48817039

$$$$
