
     RDKit          3D

 39 42  0  0  1  0  0  0  0  0999 V2000
   39.8070   23.1970   35.1810 C   0  0  1  0  0  0  0  0  0  0  0  0
   40.0280   24.7040   35.2670 C   0  0  0  0  0  0  0  0  0  0  0  0
   40.9500   23.7440   35.9440 C   0  0  2  0  0  0  0  0  0  0  0  0
   42.3330   23.6900   35.4350 C   0  0  0  0  0  0  0  0  0  0  0  0
   43.2790   23.1710   36.5000 C   0  0  0  0  0  0  0  0  0  0  0  0
   44.1210   24.3620   36.8980 C   0  0  0  0  0  0  0  0  0  0  0  0
   44.1000   25.3230   35.7660 C   0  0  0  0  0  0  0  0  0  0  0  0
   42.7830   25.0920   35.1160 C   0  0  0  0  0  0  0  0  0  0  0  0
   38.6840   22.7870   35.9400 O   0  0  0  0  0  0  0  0  0  0  0  0
   35.6450   20.9860   35.7830 C   0  0  0  0  0  0  0  0  0  0  0  0
   35.5690   20.5370   34.4540 C   0  0  0  0  0  0  0  0  0  0  0  0
   36.6290   20.8860   33.6010 C   0  0  0  0  0  0  0  0  0  0  0  0
   37.6320   21.6210   34.1170 N   0  0  0  0  0  0  0  0  0  0  0  0
   37.6530   22.0320   35.4250 C   0  0  0  0  0  0  0  0  0  0  0  0
   36.6810   21.7280   36.2620 N   0  0  0  0  0  0  0  0  0  0  0  0
   36.6170   20.4860   32.2500 N   0  0  0  0  0  0  0  0  0  0  0  0
   37.0400   21.1930   31.2180 N   0  0  0  0  0  0  0  0  0  0  0  0
   36.8740   20.5110   30.0580 C   0  0  0  0  0  0  0  0  0  0  0  0
   36.3090   19.3030   30.4300 C   0  0  0  0  0  0  0  0  0  0  0  0
   36.1660   19.3260   31.7920 C   0  0  0  0  0  0  0  0  0  0  0  0
   35.4520   17.9070   32.5610 S   0  0  0  0  0  0  0  0  0  0  0  0
   39.7182   22.4361   34.3916 H   0  0  0  0  0  0  0  0  0  0  0  0
   40.3649   25.2655   34.3831 H   0  0  0  0  0  0  0  0  0  0  0  0
   39.4262   25.5696   35.5811 H   0  0  0  0  0  0  0  0  0  0  0  0
   41.3029   23.5595   36.9694 H   0  0  0  0  0  0  0  0  0  0  0  0
   42.3490   23.0315   34.5540 H   0  0  0  0  0  0  0  0  0  0  0  0
   42.7151   22.7912   37.3647 H   0  0  0  0  0  0  0  0  0  0  0  0
   43.8948   22.3373   36.1315 H   0  0  0  0  0  0  0  0  0  0  0  0
   43.7017   24.8339   37.7989 H   0  0  0  0  0  0  0  0  0  0  0  0
   45.1518   24.0498   37.1216 H   0  0  0  0  0  0  0  0  0  0  0  0
   44.1788   26.3577   36.1311 H   0  0  0  0  0  0  0  0  0  0  0  0
   44.9427   25.1775   35.0741 H   0  0  0  0  0  0  0  0  0  0  0  0
   42.8804   25.2119   34.0269 H   0  0  0  0  0  0  0  0  0  0  0  0
   42.0459   25.8188   35.4882 H   0  0  0  0  0  0  0  0  0  0  0  0
   34.8270   20.7251   36.4706 H   0  0  0  0  0  0  0  0  0  0  0  0
   34.7175   19.9389   34.0974 H   0  0  0  0  0  0  0  0  0  0  0  0
   37.1321   20.8449   29.0422 H   0  0  0  0  0  0  0  0  0  0  0  0
   36.0277   18.4791   29.7577 H   0  0  0  0  0  0  0  0  0  0  0  0
   35.5202   18.0426   33.9226 H   0  0  0  0  0  0  0  0  0  0  0  0
  1  2  1  0
  1  9  1  0
  1  3  1  0
  2  3  1  0
  4  3  1  0
  4  5  1  0
  5  6  1  0
  7  6  1  0
  8  4  1  0
  8  7  1  0
 10 15  2  0
 11 10  1  0
 12 13  1  0
 12 11  2  0
 13 14  2  0
 14  9  1  0
 14 15  1  0
 16 12  1  0
 17 16  1  0
 18 19  1  0
 18 17  2  0
 19 20  2  0
 20 16  1  0
 20 21  1  0
  1 22  1  6
  2 23  1  0
  2 24  1  0
  3 25  1  1
  4 26  1  0
  5 27  1  0
  5 28  1  0
  6 29  1  0
  6 30  1  0
  7 31  1  0
  7 32  1  0
  8 33  1  0
  8 34  1  0
 10 35  1  0
 11 36  1  0
 18 37  1  0
 19 38  1  0
 21 39  1  0
M  ISO  8  22  13  23  13  24  13  25  13  26  13  27  13  28  13  29  13
M  ISO  8  30  13  31  13  32  13  33  13  34  13  35  14  36  14  37  14
M  ISO  2  38  14  39  11
M  END
>  <minimizedAffinity>  (1) 
-4.65031767

>  <minimizedRMSD>  (1) 
0.583433568

$$$$
