
     RDKit          3D

 49 54  0  0  1  0  0  0  0  0999 V2000
   38.9560   22.4930   35.4690 C   0  0  0  0  0  0  0  0  0  0  0  0
   38.7980   21.9040   34.2010 C   0  0  0  0  0  0  0  0  0  0  0  0
   39.8160   22.1370   33.2590 C   0  0  0  0  0  0  0  0  0  0  0  0
   40.8610   22.9000   33.6360 N   0  0  0  0  0  0  0  0  0  0  0  0
   40.9590   23.4520   34.8970 C   0  0  0  0  0  0  0  0  0  0  0  0
   40.0280   23.2580   35.8040 N   0  0  0  0  0  0  0  0  0  0  0  0
   39.7160   21.5960   31.9610 N   0  0  0  0  0  0  0  0  0  0  0  0
   40.6500   20.8940   31.3410 N   0  0  0  0  0  0  0  0  0  0  0  0
   40.2310   20.5300   30.0980 C   0  0  0  0  0  0  0  0  0  0  0  0
   38.9560   21.0590   29.9810 C   0  0  0  0  0  0  0  0  0  0  0  0
   38.6690   21.7140   31.1560 C   0  0  0  0  0  0  0  0  0  0  0  0
   37.4200   22.3170   31.1840 N   0  0  0  0  0  0  0  0  0  0  0  0
   36.2180   21.6570   31.2340 C   0  0  0  0  0  0  0  0  0  0  0  0
   35.1620   22.5220   31.2160 N   0  0  0  0  0  0  0  0  0  0  0  0
   35.6570   23.7700   31.1520 C   0  0  0  0  0  0  0  0  0  0  0  0
   35.1590   25.0560   31.1040 C   0  0  0  0  0  0  0  0  0  0  0  0
   35.9260   26.1600   31.0420 N   0  0  0  0  0  0  0  0  0  0  0  0
   37.2590   25.9840   31.0260 C   0  0  0  0  0  0  0  0  0  0  0  0
   37.8260   24.7410   31.0710 N   0  0  0  0  0  0  0  0  0  0  0  0
   37.0300   23.6350   31.1330 C   0  0  0  0  0  0  0  0  0  0  0  0
   42.0240   24.2270   35.2600 O   0  0  0  0  0  0  0  0  0  0  0  0
   42.1180   25.6190   35.0120 C   0  0  1  0  0  0  0  0  0  0  0  0
   43.5080   26.0210   34.5320 C   0  0  0  0  0  0  0  0  0  0  0  0
   42.3420   26.0410   33.6140 C   0  0  2  0  0  0  0  0  0  0  0  0
   41.9190   27.3620   33.1120 C   0  0  0  0  0  0  0  0  0  0  0  0
   40.5020   27.2960   32.5550 C   0  0  0  0  0  0  0  0  0  0  0  0
   40.6610   27.4750   31.0630 C   0  0  0  0  0  0  0  0  0  0  0  0
   41.9330   28.2210   30.8450 C   0  0  0  0  0  0  0  0  0  0  0  0
   42.8060   27.7440   31.9580 C   0  0  0  0  0  0  0  0  0  0  0  0
   38.1746   22.3263   36.2251 H   0  0  0  0  0  0  0  0  0  0  0  0
   37.9187   21.2895   33.9576 H   0  0  0  0  0  0  0  0  0  0  0  0
   40.7842   19.9436   29.3496 H   0  0  0  0  0  0  0  0  0  0  0  0
   38.2935   20.9712   29.1073 H   0  0  0  0  0  0  0  0  0  0  0  0
   36.1174   20.5627   31.2827 H   0  0  0  0  0  0  0  0  0  0  0  0
   34.0669   25.1869   31.1172 H   0  0  0  0  0  0  0  0  0  0  0  0
   37.9130   26.8670   30.9752 H   0  0  0  0  0  0  0  0  0  0  0  0
   41.4043   25.9290   35.7895 H   0  0  0  0  0  0  0  0  0  0  0  0
   43.9599   26.9641   34.8731 H   0  0  0  0  0  0  0  0  0  0  0  0
   44.5028   25.5516   34.5270 H   0  0  0  0  0  0  0  0  0  0  0  0
   42.0702   25.5743   32.6557 H   0  0  0  0  0  0  0  0  0  0  0  0
   41.9752   28.0806   33.9429 H   0  0  0  0  0  0  0  0  0  0  0  0
   40.0424   26.3225   32.7810 H   0  0  0  0  0  0  0  0  0  0  0  0
   39.8479   28.0624   32.9963 H   0  0  0  0  0  0  0  0  0  0  0  0
   40.7093   26.4938   30.5681 H   0  0  0  0  0  0  0  0  0  0  0  0
   39.8069   28.0250   30.6411 H   0  0  0  0  0  0  0  0  0  0  0  0
   42.3717   27.9746   29.8668 H   0  0  0  0  0  0  0  0  0  0  0  0
   41.7968   29.3125   30.8423 H   0  0  0  0  0  0  0  0  0  0  0  0
   43.3873   26.8702   31.6285 H   0  0  0  0  0  0  0  0  0  0  0  0
   43.5075   28.5355   32.2602 H   0  0  0  0  0  0  0  0  0  0  0  0
  1  6  2  0
  2  1  1  0
  3  4  1  0
  3  2  2  0
  4  5  2  0
  5 21  1  0
  5  6  1  0
  7  3  1  0
  8  7  1  0
  9  8  2  0
 10  9  1  0
 10 11  2  0
 11 12  1  0
 11  7  1  0
 12 13  1  0
 14 13  2  0
 15 14  1  0
 16 15  2  0
 17 16  1  0
 18 17  2  0
 18 19  1  0
 19 20  2  0
 20 15  1  0
 20 12  1  0
 22 21  1  0
 23 22  1  0
 24 23  1  0
 24 22  1  0
 25 24  1  0
 26 25  1  0
 27 26  1  0
 28 27  1  0
 28 29  1  0
 29 25  1  0
  1 30  1  0
  2 31  1  0
  9 32  1  0
 10 33  1  0
 13 34  1  0
 16 35  1  0
 18 36  1  0
 22 37  1  1
 23 38  1  0
 23 39  1  0
 24 40  1  6
 25 41  1  0
 26 42  1  0
 26 43  1  0
 27 44  1  0
 27 45  1  0
 28 46  1  0
 28 47  1  0
 29 48  1  0
 29 49  1  0
M  ISO  8  30  14  31  14  32  14  33  14  34  14  35  14  36  14  37  13
M  ISO  8  38  13  39  13  40  13  41  13  42  13  43  13  44  13  45  13
M  ISO  4  46  13  47  13  48  13  49  13
M  END
>  <minimizedAffinity>  (1) 
-4.44387722

>  <minimizedRMSD>  (1) 
4.71317387

$$$$
