
     RDKit          3D

 43 46  0  0  0  0  0  0  0  0999 V2000
   37.2750   22.5120   37.0750 C   0  0  0  0  0  0  0  0  0  0  0  0
   37.0200   21.8940   35.7980 C   0  0  0  0  0  0  0  0  0  0  0  0
   35.8990   21.2160   35.4920 C   0  0  0  0  0  0  0  0  0  0  0  0
   35.6120   20.6320   34.2940 C   0  0  0  0  0  0  0  0  0  0  0  0
   36.7070   20.8370   33.3610 C   0  0  0  0  0  0  0  0  0  0  0  0
   37.9760   21.8300   34.3180 S   0  0  0  0  0  0  0  0  0  0  0  0
   37.0010   20.5520   32.0060 C   0  0  0  0  0  0  0  0  0  0  0  0
   36.4020   19.4770   31.4000 N   0  0  0  0  0  0  0  0  0  0  0  0
   36.6850   19.0500   30.1780 C   0  0  0  0  0  0  0  0  0  0  0  0
   37.5990   19.6450   29.4070 N   0  0  0  0  0  0  0  0  0  0  0  0
   38.2510   20.7110   29.8910 C   0  0  0  0  0  0  0  0  0  0  0  0
   39.1820   21.3890   29.1330 C   0  0  0  0  0  0  0  0  0  0  0  0
   39.8370   22.5260   29.6210 C   0  0  0  0  0  0  0  0  0  0  0  0
   39.4860   22.9240   30.9170 C   0  0  0  0  0  0  0  0  0  0  0  0
   38.5560   22.2160   31.6320 C   0  0  0  0  0  0  0  0  0  0  0  0
   37.9210   21.1130   31.1620 C   0  0  0  0  0  0  0  0  0  0  0  0
   38.1460   23.7450   37.0260 C   0  0  0  0  0  0  0  0  0  0  0  0
   41.4800   22.0300   37.2550 C   0  0  0  0  0  0  0  0  0  0  0  0
   40.1550   22.3350   37.5400 C   0  0  0  0  0  0  0  0  0  0  0  0
   39.5290   23.3510   36.7940 C   0  0  0  0  0  0  0  0  0  0  0  0
   40.2430   23.9920   35.8270 N   0  0  0  0  0  0  0  0  0  0  0  0
   41.5250   23.6660   35.5820 C   0  0  0  0  0  0  0  0  0  0  0  0
   42.1470   22.6800   36.2990 N   0  0  0  0  0  0  0  0  0  0  0  0
   38.0650   24.4240   38.3960 C   0  0  0  0  0  0  0  0  0  0  0  0
   37.5750   24.6410   35.9560 C   0  0  0  0  0  0  0  0  0  0  0  0
   36.3079   22.7950   37.5161 H   0  0  0  0  0  0  0  0  0  0  0  0
   37.8269   21.7698   37.6705 H   0  0  0  0  0  0  0  0  0  0  0  0
   35.1415   21.1240   36.2843 H   0  0  0  0  0  0  0  0  0  0  0  0
   34.6854   20.0847   34.0665 H   0  0  0  0  0  0  0  0  0  0  0  0
   36.1481   18.1743   29.7845 H   0  0  0  0  0  0  0  0  0  0  0  0
   39.4157   21.0279   28.1206 H   0  0  0  0  0  0  0  0  0  0  0  0
   40.5812   23.0729   29.0235 H   0  0  0  0  0  0  0  0  0  0  0  0
   39.9599   23.8105   31.3637 H   0  0  0  0  0  0  0  0  0  0  0  0
   38.3098   22.5622   32.6466 H   0  0  0  0  0  0  0  0  0  0  0  0
   41.9880   21.2395   37.8269 H   0  0  0  0  0  0  0  0  0  0  0  0
   39.6091   21.7962   38.3285 H   0  0  0  0  0  0  0  0  0  0  0  0
   42.0802   24.1985   34.7957 H   0  0  0  0  0  0  0  0  0  0  0  0
   38.1555   23.6652   39.1872 H   0  0  0  0  0  0  0  0  0  0  0  0
   38.8825   25.1537   38.4925 H   0  0  0  0  0  0  0  0  0  0  0  0
   37.0988   24.9409   38.4925 H   0  0  0  0  0  0  0  0  0  0  0  0
   37.0407   25.4795   36.4266 H   0  0  0  0  0  0  0  0  0  0  0  0
   38.3913   25.0313   35.3304 H   0  0  0  0  0  0  0  0  0  0  0  0
   36.8765   24.0659   35.3304 H   0  0  0  0  0  0  0  0  0  0  0  0
  2  1  1  0
  3  2  2  0
  4  3  1  0
  5  4  2  0
  5  6  1  0
  6  2  1  0
  7  5  1  0
  8  7  2  0
  9  8  1  0
 10 11  1  0
 10  9  2  0
 11 16  2  0
 12 13  2  0
 12 11  1  0
 13 14  1  0
 14 15  2  0
 16 15  1  0
 16  7  1  0
 17  1  1  0
 17 24  1  0
 18 19  2  0
 20 17  1  0
 20 19  1  0
 21 20  2  0
 22 21  1  0
 22 23  2  0
 23 18  1  0
 25 17  1  0
  1 26  1  0
  1 27  1  0
  3 28  1  0
  4 29  1  0
  9 30  1  0
 12 31  1  0
 13 32  1  0
 14 33  1  0
 15 34  1  0
 18 35  1  0
 19 36  1  0
 22 37  1  0
 24 38  1  0
 24 39  1  0
 24 40  1  0
 25 41  1  0
 25 42  1  0
 25 43  1  0
M  ISO  8  26   8  27   8  28  14  29  14  30  14  31  14  32  14  33  14
M  ISO  8  34  14  35  14  36  14  37  14  38   8  39   8  40   8  41   8
M  ISO  2  42   8  43   8
M  END
>  <minimizedAffinity>  (1) 
-4.89688969

>  <minimizedRMSD>  (1) 
0.288844168

$$$$
