
     RDKit          3D

 42 44  0  0  0  0  0  0  0  0999 V2000
   37.2500   22.6090   37.1050 C   0  0  0  0  0  0  0  0  0  0  0  0
   37.0090   21.9350   35.8420 C   0  0  0  0  0  0  0  0  0  0  0  0
   35.9160   21.1940   35.5810 C   0  0  0  0  0  0  0  0  0  0  0  0
   35.6140   20.5550   34.4480 C   0  0  0  0  0  0  0  0  0  0  0  0
   36.6990   20.7720   33.4530 C   0  0  0  0  0  0  0  0  0  0  0  0
   37.9480   21.8650   34.3490 S   0  0  0  0  0  0  0  0  0  0  0  0
   37.1730   19.3940   29.5460 C   0  0  0  0  0  0  0  0  0  0  0  0
   36.2950   18.7800   30.4120 C   0  0  0  0  0  0  0  0  0  0  0  0
   36.1430   19.2500   31.7220 C   0  0  0  0  0  0  0  0  0  0  0  0
   36.8780   20.3230   32.1190 C   0  0  0  0  0  0  0  0  0  0  0  0
   37.7730   20.9860   31.3150 C   0  0  0  0  0  0  0  0  0  0  0  0
   37.8970   20.4870   30.0130 C   0  0  0  0  0  0  0  0  0  0  0  0
   37.4110   18.8610   27.9040 S   0  0  0  0  0  0  0  0  0  0  0  0
   38.4380   19.7490   27.2680 O   0  0  0  0  0  0  0  0  0  0  0  0
   36.1310   18.8390   27.1270 O   0  0  0  0  0  0  0  0  0  0  0  0
   38.1550   23.8130   37.0000 C   0  0  0  0  0  0  0  0  0  0  0  0
   41.4380   22.0030   37.2660 C   0  0  0  0  0  0  0  0  0  0  0  0
   40.1250   22.3480   37.5530 C   0  0  0  0  0  0  0  0  0  0  0  0
   39.5260   23.3710   36.7820 C   0  0  0  0  0  0  0  0  0  0  0  0
   40.2700   23.9620   35.8010 N   0  0  0  0  0  0  0  0  0  0  0  0
   41.5360   23.5960   35.5580 C   0  0  0  0  0  0  0  0  0  0  0  0
   42.1200   22.6210   36.2860 N   0  0  0  0  0  0  0  0  0  0  0  0
   38.1130   24.5490   38.3400 C   0  0  0  0  0  0  0  0  0  0  0  0
   37.6070   24.6860   35.9010 C   0  0  0  0  0  0  0  0  0  0  0  0
   36.2821   22.9390   37.5103 H   0  0  0  0  0  0  0  0  0  0  0  0
   37.7603   21.8854   37.7577 H   0  0  0  0  0  0  0  0  0  0  0  0
   35.1848   21.1042   36.3979 H   0  0  0  0  0  0  0  0  0  0  0  0
   34.7044   19.9605   34.2768 H   0  0  0  0  0  0  0  0  0  0  0  0
   35.7088   17.9137   30.0716 H   0  0  0  0  0  0  0  0  0  0  0  0
   35.4433   18.7613   32.4160 H   0  0  0  0  0  0  0  0  0  0  0  0
   38.3530   21.8505   31.6703 H   0  0  0  0  0  0  0  0  0  0  0  0
   38.5998   20.9821   29.3267 H   0  0  0  0  0  0  0  0  0  0  0  0
   37.8598   17.5666   27.9052 H   0  0  0  0  0  0  0  0  0  0  0  0
   41.9290   21.2107   37.8500 H   0  0  0  0  0  0  0  0  0  0  0  0
   39.5677   21.8417   38.3549 H   0  0  0  0  0  0  0  0  0  0  0  0
   42.1040   24.0943   34.7586 H   0  0  0  0  0  0  0  0  0  0  0  0
   38.1547   23.8183   39.1612 H   0  0  0  0  0  0  0  0  0  0  0  0
   38.9737   25.2302   38.4113 H   0  0  0  0  0  0  0  0  0  0  0  0
   37.1804   25.1279   38.4113 H   0  0  0  0  0  0  0  0  0  0  0  0
   37.0715   25.5391   36.3430 H   0  0  0  0  0  0  0  0  0  0  0  0
   38.4354   25.0556   35.2788 H   0  0  0  0  0  0  0  0  0  0  0  0
   36.9140   24.1006   35.2788 H   0  0  0  0  0  0  0  0  0  0  0  0
  2  1  1  0
  3  2  2  0
  4  3  1  0
  5  6  1  0
  5  4  2  0
  6  2  1  0
  7 12  2  0
  7  8  1  0
  8  9  2  0
  9 10  1  0
 10  5  1  0
 11 10  2  0
 12 11  1  0
 13  7  1  0
 14 13  2  0
 15 13  2  0
 16  1  1  0
 16 23  1  0
 17 18  2  0
 19 16  1  0
 19 18  1  0
 20 19  2  0
 21 20  1  0
 21 22  2  0
 22 17  1  0
 24 16  1  0
  1 25  1  0
  1 26  1  0
  3 27  1  0
  4 28  1  0
  8 29  1  0
  9 30  1  0
 11 31  1  0
 12 32  1  0
 13 33  1  0
 17 34  1  0
 18 35  1  0
 21 36  1  0
 23 37  1  0
 23 38  1  0
 23 39  1  0
 24 40  1  0
 24 41  1  0
 24 42  1  0
M  ISO  8  25   8  26   8  27  14  28  14  29  14  30  14  31  14  32  14
M  ISO  8  33  11  34  14  35  14  36  14  37   8  38   8  39   8  40   8
M  ISO  2  41   8  42   8
M  END
>  <minimizedAffinity>  (1) 
-4.88339615

>  <minimizedRMSD>  (1) 
0.758768857

$$$$
