
     RDKit          3D

 38 40  0  0  1  0  0  0  0  0999 V2000
   38.7020   22.7220   36.0550 N   0  0  0  0  0  0  0  0  0  0  0  0
   38.9660   23.0390   37.4330 C   0  0  0  0  0  0  0  0  0  0  0  0
   40.4720   22.7610   37.5360 C   0  0  0  0  0  0  0  0  0  0  0  0
   40.9600   22.5920   36.1010 C   0  0  0  0  0  0  0  0  0  0  0  0
   39.8490   23.3010   35.3620 C   0  0  2  0  0  0  0  0  0  0  0  0
   37.6000   22.0130   35.4660 C   0  0  0  0  0  0  0  0  0  0  0  0
   36.5650   21.4870   36.2710 C   0  0  0  0  0  0  0  0  0  0  0  0
   35.5440   20.8050   35.6320 C   0  0  0  0  0  0  0  0  0  0  0  0
   35.5910   20.6780   34.2610 N   0  0  0  0  0  0  0  0  0  0  0  0
   36.6000   21.1990   33.5450 C   0  0  0  0  0  0  0  0  0  0  0  0
   37.6030   21.8650   34.1350 N   0  0  0  0  0  0  0  0  0  0  0  0
   39.9110   24.7810   35.4180 C   0  0  0  0  0  0  0  0  0  0  0  0
   38.7850   25.3400   34.5970 C   0  0  0  0  0  0  0  0  0  0  0  0
   38.9780   26.8220   34.2930 C   0  0  0  0  0  0  0  0  0  0  0  0
   40.3140   27.1350   33.7020 C   0  0  0  0  0  0  0  0  0  0  0  0
   41.2020   25.9330   33.5890 C   0  0  0  0  0  0  0  0  0  0  0  0
   41.2490   25.2200   34.9230 C   0  0  0  0  0  0  0  0  0  0  0  0
   38.7372   24.0923   37.6526 H   0  0  0  0  0  0  0  0  0  0  0  0
   38.3571   22.4648   38.1468 H   0  0  0  0  0  0  0  0  0  0  0  0
   40.9857   23.6054   38.0188 H   0  0  0  0  0  0  0  0  0  0  0  0
   40.6791   21.8673   38.1430 H   0  0  0  0  0  0  0  0  0  0  0  0
   41.9331   23.0792   35.9405 H   0  0  0  0  0  0  0  0  0  0  0  0
   41.1336   21.5513   35.7898 H   0  0  0  0  0  0  0  0  0  0  0  0
   39.8584   23.1567   34.2715 H   0  0  0  0  0  0  0  0  0  0  0  0
   36.5703   21.6145   37.3636 H   0  0  0  0  0  0  0  0  0  0  0  0
   34.7118   20.3731   36.2073 H   0  0  0  0  0  0  0  0  0  0  0  0
   36.6040   21.0770   32.4518 H   0  0  0  0  0  0  0  0  0  0  0  0
   39.7936   25.1536   36.4463 H   0  0  0  0  0  0  0  0  0  0  0  0
   38.7298   24.7873   33.6475 H   0  0  0  0  0  0  0  0  0  0  0  0
   37.8564   25.2310   35.1765 H   0  0  0  0  0  0  0  0  0  0  0  0
   38.1995   27.1369   33.5825 H   0  0  0  0  0  0  0  0  0  0  0  0
   38.9100   27.3622   35.2488 H   0  0  0  0  0  0  0  0  0  0  0  0
   40.1626   27.5544   32.6964 H   0  0  0  0  0  0  0  0  0  0  0  0
   40.8117   27.8489   34.3748 H   0  0  0  0  0  0  0  0  0  0  0  0
   40.8036   25.2524   32.8222 H   0  0  0  0  0  0  0  0  0  0  0  0
   42.2162   26.2491   33.3037 H   0  0  0  0  0  0  0  0  0  0  0  0
   41.8892   24.3315   34.8192 H   0  0  0  0  0  0  0  0  0  0  0  0
   41.6426   25.9385   35.6570 H   0  0  0  0  0  0  0  0  0  0  0  0
  1  2  1  0
  2  3  1  0
  4  3  1  0
  5 12  1  0
  5  1  1  0
  5  4  1  0
  6  1  1  0
  6  7  2  0
  8  7  1  0
  9  8  2  0
 10 11  2  0
 10  9  1  0
 11  6  1  0
 13 12  1  0
 14 13  1  0
 15 14  1  0
 16 15  1  0
 16 17  1  0
 17 12  1  0
  2 18  1  0
  2 19  1  0
  3 20  1  0
  3 21  1  0
  4 22  1  0
  4 23  1  0
  5 24  1  6
  7 25  1  0
  8 26  1  0
 10 27  1  0
 12 28  1  0
 13 29  1  0
 13 30  1  0
 14 31  1  0
 14 32  1  0
 15 33  1  0
 15 34  1  0
 16 35  1  0
 16 36  1  0
 17 37  1  0
 17 38  1  0
M  ISO  8  18  13  19  13  20  13  21  13  22  13  23  13  24  13  25  14
M  ISO  8  26  14  27  14  28  13  29  13  30  13  31  13  32  13  33  13
M  ISO  5  34  13  35  13  36  13  37  13  38  13
M  END
>  <minimizedAffinity>  (1) 
-4.4471817

>  <minimizedRMSD>  (1) 
1.72609544

$$$$
