
     RDKit          3D

 39 41  0  0  0  0  0  0  0  0999 V2000
   38.1950   23.8790   37.2440 C   0  0  0  0  0  0  0  0  0  0  0  0
   41.4490   21.9780   37.2990 C   0  0  0  0  0  0  0  0  0  0  0  0
   40.1680   22.3430   37.6710 C   0  0  0  0  0  0  0  0  0  0  0  0
   39.5460   23.3900   36.9530 C   0  0  0  0  0  0  0  0  0  0  0  0
   40.2290   23.9920   35.9320 N   0  0  0  0  0  0  0  0  0  0  0  0
   41.4730   23.6020   35.6080 C   0  0  0  0  0  0  0  0  0  0  0  0
   42.0880   22.5940   36.2900 N   0  0  0  0  0  0  0  0  0  0  0  0
   38.2600   24.5520   38.6250 C   0  0  0  0  0  0  0  0  0  0  0  0
   37.6170   24.7930   36.2220 C   0  0  0  0  0  0  0  0  0  0  0  0
   37.2650   22.6950   37.3770 C   0  0  0  0  0  0  0  0  0  0  0  0
   36.9770   22.0260   36.1230 C   0  0  0  0  0  0  0  0  0  0  0  0
   35.9060   21.2320   35.9260 C   0  0  0  0  0  0  0  0  0  0  0  0
   35.5910   20.5910   34.7700 C   0  0  0  0  0  0  0  0  0  0  0  0
   36.5850   20.8800   33.7390 C   0  0  0  0  0  0  0  0  0  0  0  0
   37.8360   22.0260   34.5560 S   0  0  0  0  0  0  0  0  0  0  0  0
   36.7430   20.4820   32.3730 C   0  0  0  0  0  0  0  0  0  0  0  0
   37.5560   21.1950   31.5510 C   0  0  0  0  0  0  0  0  0  0  0  0
   37.6340   20.7110   30.2370 C   0  0  0  0  0  0  0  0  0  0  0  0
   36.9290   19.5900   29.8260 C   0  0  0  0  0  0  0  0  0  0  0  0
   36.1130   18.9030   30.7190 C   0  0  0  0  0  0  0  0  0  0  0  0
   36.0180   19.3650   32.0330 C   0  0  0  0  0  0  0  0  0  0  0  0
   41.9558   21.1658   37.8408 H   0  0  0  0  0  0  0  0  0  0  0  0
   39.6502   21.8354   38.4982 H   0  0  0  0  0  0  0  0  0  0  0  0
   42.0017   24.1016   34.7829 H   0  0  0  0  0  0  0  0  0  0  0  0
   38.1860   23.7854   39.4103 H   0  0  0  0  0  0  0  0  0  0  0  0
   39.2143   25.0897   38.7263 H   0  0  0  0  0  0  0  0  0  0  0  0
   37.4263   25.2624   38.7263 H   0  0  0  0  0  0  0  0  0  0  0  0
   37.0938   25.6203   36.7239 H   0  0  0  0  0  0  0  0  0  0  0  0
   38.4240   25.1973   35.5933 H   0  0  0  0  0  0  0  0  0  0  0  0
   36.9058   24.2372   35.5933 H   0  0  0  0  0  0  0  0  0  0  0  0
   37.7280   21.9666   38.0590 H   0  0  0  0  0  0  0  0  0  0  0  0
   36.3085   23.0834   37.7569 H   0  0  0  0  0  0  0  0  0  0  0  0
   35.2252   21.0900   36.7782 H   0  0  0  0  0  0  0  0  0  0  0  0
   34.7114   19.9454   34.6301 H   0  0  0  0  0  0  0  0  0  0  0  0
   38.1101   22.0829   31.8896 H   0  0  0  0  0  0  0  0  0  0  0  0
   38.2729   21.2358   29.5115 H   0  0  0  0  0  0  0  0  0  0  0  0
   37.0156   19.2414   28.7863 H   0  0  0  0  0  0  0  0  0  0  0  0
   35.5533   18.0128   30.3960 H   0  0  0  0  0  0  0  0  0  0  0  0
   35.3841   18.8522   32.7714 H   0  0  0  0  0  0  0  0  0  0  0  0
  1 10  1  0
  1  8  1  0
  2  3  2  0
  4  1  1  0
  4  3  1  0
  5  4  2  0
  6  5  1  0
  6  7  2  0
  7  2  1  0
  9  1  1  0
 11 10  1  0
 12 11  2  0
 13 12  1  0
 14 15  1  0
 14 13  2  0
 15 11  1  0
 16 14  1  0
 17 16  2  0
 18 17  1  0
 19 18  2  0
 19 20  1  0
 20 21  2  0
 21 16  1  0
  2 22  1  0
  3 23  1  0
  6 24  1  0
  8 25  1  0
  8 26  1  0
  8 27  1  0
  9 28  1  0
  9 29  1  0
  9 30  1  0
 10 31  1  0
 10 32  1  0
 12 33  1  0
 13 34  1  0
 17 35  1  0
 18 36  1  0
 19 37  1  0
 20 38  1  0
 21 39  1  0
M  ISO  8  22  14  23  14  24  14  25   8  26   8  27   8  28   8  29   8
M  ISO  8  30   8  31   8  32   8  33  14  34  14  35  14  36  14  37  14
M  ISO  2  38  14  39  14
M  END
>  <minimizedAffinity>  (1) 
-4.8097415

>  <minimizedRMSD>  (1) 
0.697455943

$$$$
