
     RDKit          3D

 30 32  0  0  1  0  0  0  0  0999 V2000
   37.8170   22.7050   34.3150 N   0  0  0  0  0  0  0  0  0  0  0  0
   37.8760   22.6500   35.7770 C   0  0  0  0  0  0  0  0  0  0  0  0
   39.3760   22.5780   36.0260 C   0  0  0  0  0  0  0  0  0  0  0  0
   40.0290   22.8460   34.6900 C   0  0  0  0  0  0  0  0  0  0  0  0
   38.9140   23.5960   33.9930 C   0  0  2  0  0  0  0  0  0  0  0  0
   36.9050   22.0430   33.4450 C   0  0  0  0  0  0  0  0  0  0  0  0
   36.1550   20.9350   33.8510 C   0  0  0  0  0  0  0  0  0  0  0  0
   35.2840   20.3460   32.9370 C   0  0  0  0  0  0  0  0  0  0  0  0
   35.2140   20.8940   31.6850 N   0  0  0  0  0  0  0  0  0  0  0  0
   35.9570   21.9730   31.3210 C   0  0  0  0  0  0  0  0  0  0  0  0
   36.8000   22.5470   32.1950 N   0  0  0  0  0  0  0  0  0  0  0  0
   38.6920   24.9500   34.5060 C   0  0  0  0  0  0  0  0  0  0  0  0
   39.6070   25.7900   35.1060 C   0  0  0  0  0  0  0  0  0  0  0  0
   39.2770   27.0550   35.5500 C   0  0  0  0  0  0  0  0  0  0  0  0
   38.0180   27.5020   35.4000 N   0  0  0  0  0  0  0  0  0  0  0  0
   37.1090   26.6970   34.8160 C   0  0  0  0  0  0  0  0  0  0  0  0
   37.4380   25.4650   34.3850 N   0  0  0  0  0  0  0  0  0  0  0  0
   37.4377   23.5517   36.2297 H   0  0  0  0  0  0  0  0  0  0  0  0
   37.3113   21.8134   36.2143 H   0  0  0  0  0  0  0  0  0  0  0  0
   39.6793   23.3391   36.7600 H   0  0  0  0  0  0  0  0  0  0  0  0
   39.6722   21.5996   36.4321 H   0  0  0  0  0  0  0  0  0  0  0  0
   40.9326   23.4644   34.7949 H   0  0  0  0  0  0  0  0  0  0  0  0
   40.3829   21.9488   34.1610 H   0  0  0  0  0  0  0  0  0  0  0  0
   39.0917   23.7882   32.9246 H   0  0  0  0  0  0  0  0  0  0  0  0
   36.2508   20.5363   34.8717 H   0  0  0  0  0  0  0  0  0  0  0  0
   34.6748   19.4723   33.2117 H   0  0  0  0  0  0  0  0  0  0  0  0
   35.8670   22.3790   30.3027 H   0  0  0  0  0  0  0  0  0  0  0  0
   40.6410   25.4379   35.2359 H   0  0  0  0  0  0  0  0  0  0  0  0
   40.0386   27.6924   36.0230 H   0  0  0  0  0  0  0  0  0  0  0  0
   36.0764   27.0541   34.6888 H   0  0  0  0  0  0  0  0  0  0  0  0
  1  2  1  0
  2  3  1  0
  4  3  1  0
  5  1  1  0
  5 12  1  0
  5  4  1  0
  6  7  2  0
  6  1  1  0
  8  7  1  0
  9  8  2  0
 10  9  1  0
 10 11  2  0
 11  6  1  0
 12 13  2  0
 13 14  1  0
 15 14  2  0
 16 15  1  0
 17 12  1  0
 17 16  2  0
  2 18  1  0
  2 19  1  0
  3 20  1  0
  3 21  1  0
  4 22  1  0
  4 23  1  0
  5 24  1  6
  7 25  1  0
  8 26  1  0
 10 27  1  0
 13 28  1  0
 14 29  1  0
 16 30  1  0
M  ISO  8  18  13  19  13  20  13  21  13  22  13  23  13  24  13  25  14
M  ISO  5  26  14  27  14  28  14  29  14  30  14
M  END
>  <minimizedAffinity>  (1) 
-4.15801001

>  <minimizedRMSD>  (1) 
2.51515007

$$$$
