
     RDKit          3D

 35 37  0  0  1  0  0  0  0  0999 V2000
   38.4540   22.7180   36.2390 N   0  0  0  0  0  0  0  0  0  0  0  0
   38.2460   23.6530   37.3140 C   0  0  0  0  0  0  0  0  0  0  0  0
   39.3490   23.2520   38.3050 C   0  0  0  0  0  0  0  0  0  0  0  0
   40.2520   22.2950   37.5320 C   0  0  0  0  0  0  0  0  0  0  0  0
   39.8840   22.6900   36.1200 C   0  0  2  0  0  0  0  0  0  0  0  0
   37.4860   21.9900   35.4720 C   0  0  0  0  0  0  0  0  0  0  0  0
   36.3980   21.3470   36.1080 C   0  0  0  0  0  0  0  0  0  0  0  0
   35.4910   20.6530   35.3140 C   0  0  0  0  0  0  0  0  0  0  0  0
   35.7080   20.6340   33.9520 N   0  0  0  0  0  0  0  0  0  0  0  0
   36.7660   21.2660   33.3920 C   0  0  0  0  0  0  0  0  0  0  0  0
   37.6440   21.9360   34.1450 N   0  0  0  0  0  0  0  0  0  0  0  0
   40.5110   23.9650   35.6910 C   0  0  0  0  0  0  0  0  0  0  0  0
   40.1660   24.4460   34.3380 C   0  0  0  0  0  0  0  0  0  0  0  0
   41.4870   24.9520   33.7420 C   0  0  0  0  0  0  0  0  0  0  0  0
   42.4630   23.9440   34.3080 C   0  0  0  0  0  0  0  0  0  0  0  0
   42.0120   23.7970   35.7310 C   0  0  0  0  0  0  0  0  0  0  0  0
   38.3744   24.6905   36.9716 H   0  0  0  0  0  0  0  0  0  0  0  0
   37.2328   23.6192   37.7410 H   0  0  0  0  0  0  0  0  0  0  0  0
   39.9146   24.1371   38.6317 H   0  0  0  0  0  0  0  0  0  0  0  0
   38.9372   22.7863   39.2125 H   0  0  0  0  0  0  0  0  0  0  0  0
   41.3165   22.4740   37.7439 H   0  0  0  0  0  0  0  0  0  0  0  0
   40.1177   21.2295   37.7701 H   0  0  0  0  0  0  0  0  0  0  0  0
   40.2439   22.0177   35.3272 H   0  0  0  0  0  0  0  0  0  0  0  0
   36.2729   21.3946   37.1998 H   0  0  0  0  0  0  0  0  0  0  0  0
   34.6279   20.1356   35.7583 H   0  0  0  0  0  0  0  0  0  0  0  0
   36.9052   21.2277   32.3015 H   0  0  0  0  0  0  0  0  0  0  0  0
   40.1176   24.7165   36.3913 H   0  0  0  0  0  0  0  0  0  0  0  0
   39.7574   23.6258   33.7295 H   0  0  0  0  0  0  0  0  0  0  0  0
   39.3986   25.2336   34.3648 H   0  0  0  0  0  0  0  0  0  0  0  0
   41.7184   25.9727   34.0806 H   0  0  0  0  0  0  0  0  0  0  0  0
   41.4923   25.0217   32.6442 H   0  0  0  0  0  0  0  0  0  0  0  0
   42.3969   22.9859   33.7717 H   0  0  0  0  0  0  0  0  0  0  0  0
   43.5127   24.2599   34.2172 H   0  0  0  0  0  0  0  0  0  0  0  0
   42.4701   24.5723   36.3627 H   0  0  0  0  0  0  0  0  0  0  0  0
   42.3055   22.8261   36.1568 H   0  0  0  0  0  0  0  0  0  0  0  0
  1  2  1  0
  2  3  1  0
  4  3  1  0
  5  1  1  0
  5  4  1  0
  6  7  2  0
  6  1  1  0
  8  7  1  0
  9  8  2  0
 10  9  1  0
 10 11  2  0
 11  6  1  0
 12 16  1  0
 12  5  1  0
 13 12  1  0
 14 15  1  0
 14 13  1  0
 15 16  1  0
  2 17  1  0
  2 18  1  0
  3 19  1  0
  3 20  1  0
  4 21  1  0
  4 22  1  0
  5 23  1  6
  7 24  1  0
  8 25  1  0
 10 26  1  0
 12 27  1  0
 13 28  1  0
 13 29  1  0
 14 30  1  0
 14 31  1  0
 15 32  1  0
 15 33  1  0
 16 34  1  0
 16 35  1  0
M  ISO  8  17  13  18  13  19  13  20  13  21  13  22  13  23  13  24  14
M  ISO  8  25  14  26  14  27  13  28  13  29  13  30  13  31  13  32  13
M  ISO  3  33  13  34  13  35  13
M  END
>  <minimizedAffinity>  (1) 
-4.13848972

>  <minimizedRMSD>  (1) 
1.32475722

$$$$
