
     RDKit          3D

 29 31  0  0  1  0  0  0  0  0999 V2000
   38.4090   22.7740   36.2720 N   0  0  0  0  0  0  0  0  0  0  0  0
   38.1720   23.6580   37.3930 C   0  0  0  0  0  0  0  0  0  0  0  0
   39.3270   23.2920   38.3250 C   0  0  0  0  0  0  0  0  0  0  0  0
   40.2520   22.4270   37.5080 C   0  0  0  0  0  0  0  0  0  0  0  0
   39.8630   22.8160   36.1060 C   0  0  2  0  0  0  0  0  0  0  0  0
   37.4690   22.0270   35.4960 C   0  0  0  0  0  0  0  0  0  0  0  0
   36.3890   21.3460   36.0980 C   0  0  0  0  0  0  0  0  0  0  0  0
   35.5030   20.6340   35.3010 C   0  0  0  0  0  0  0  0  0  0  0  0
   35.7410   20.6390   33.9480 N   0  0  0  0  0  0  0  0  0  0  0  0
   36.7760   21.2970   33.4090 C   0  0  0  0  0  0  0  0  0  0  0  0
   37.6470   21.9930   34.1660 N   0  0  0  0  0  0  0  0  0  0  0  0
   40.3590   24.1310   35.6390 C   0  0  0  0  0  0  0  0  0  0  0  0
   41.7470   24.3910   35.2120 C   0  0  0  0  0  0  0  0  0  0  0  0
   40.7300   24.1390   34.1330 C   0  0  0  0  0  0  0  0  0  0  0  0
   38.2214   24.7139   37.0886 H   0  0  0  0  0  0  0  0  0  0  0  0
   37.1772   23.5449   37.8486 H   0  0  0  0  0  0  0  0  0  0  0  0
   39.8492   24.1992   38.6632 H   0  0  0  0  0  0  0  0  0  0  0  0
   38.9720   22.7693   39.2254 H   0  0  0  0  0  0  0  0  0  0  0  0
   41.3071   22.6615   37.7124 H   0  0  0  0  0  0  0  0  0  0  0  0
   40.1623   21.3508   37.7170 H   0  0  0  0  0  0  0  0  0  0  0  0
   40.2918   22.1716   35.3244 H   0  0  0  0  0  0  0  0  0  0  0  0
   36.2507   21.3792   37.1888 H   0  0  0  0  0  0  0  0  0  0  0  0
   34.6496   20.0908   35.7330 H   0  0  0  0  0  0  0  0  0  0  0  0
   36.9188   21.2684   32.3187 H   0  0  0  0  0  0  0  0  0  0  0  0
   39.7185   24.6665   36.3553 H   0  0  0  0  0  0  0  0  0  0  0  0
   42.1716   25.3986   35.3323 H   0  0  0  0  0  0  0  0  0  0  0  0
   42.7181   23.9396   35.4634 H   0  0  0  0  0  0  0  0  0  0  0  0
   40.3948   24.9598   33.4820 H   0  0  0  0  0  0  0  0  0  0  0  0
   40.6283   23.4402   33.2896 H   0  0  0  0  0  0  0  0  0  0  0  0
  1  2  1  0
  2  3  1  0
  4  3  1  0
  5  1  1  0
  5  4  1  0
  6  7  2  0
  6  1  1  0
  8  7  1  0
  9  8  2  0
 10  9  1  0
 10 11  2  0
 11  6  1  0
 12  5  1  0
 13 12  1  0
 14 13  1  0
 14 12  1  0
  2 15  1  0
  2 16  1  0
  3 17  1  0
  3 18  1  0
  4 19  1  0
  4 20  1  0
  5 21  1  6
  7 22  1  0
  8 23  1  0
 10 24  1  0
 12 25  1  0
 13 26  1  0
 13 27  1  0
 14 28  1  0
 14 29  1  0
M  ISO  8  15  13  16  13  17  13  18  13  19  13  20  13  21  13  22  14
M  ISO  7  23  14  24  14  25  13  26  13  27  13  28  13  29  13
M  END
>  <minimizedAffinity>  (1) 
-3.84786487

>  <minimizedRMSD>  (1) 
1.58738005

$$$$
