
     RDKit          3D

 29 31  0  0  1  0  0  0  0  0999 V2000
   38.5610   23.8750   36.2810 N   0  0  0  0  0  0  0  0  0  0  0  0
   37.7160   24.8000   37.0470 C   0  0  0  0  0  0  0  0  0  0  0  0
   37.8700   24.2500   38.4570 C   0  0  0  0  0  0  0  0  0  0  0  0
   38.9870   23.2250   38.3850 C   0  0  0  0  0  0  0  0  0  0  0  0
   39.7070   23.7330   37.1420 C   0  0  1  0  0  0  0  0  0  0  0  0
   38.2920   23.2840   35.0140 C   0  0  0  0  0  0  0  0  0  0  0  0
   37.7460   22.0110   34.8690 C   0  0  0  0  0  0  0  0  0  0  0  0
   37.5140   21.5160   33.5870 C   0  0  0  0  0  0  0  0  0  0  0  0
   37.8420   22.3230   32.5270 N   0  0  0  0  0  0  0  0  0  0  0  0
   38.3730   23.5640   32.7010 C   0  0  0  0  0  0  0  0  0  0  0  0
   38.5970   24.0400   33.9240 N   0  0  0  0  0  0  0  0  0  0  0  0
   40.7130   22.8370   36.6610 N   0  0  0  0  0  0  0  0  0  0  0  0
   41.4670   22.8600   35.5940 N   0  0  0  0  0  0  0  0  0  0  0  0
   42.2930   21.7820   35.5510 C   0  0  0  0  0  0  0  0  0  0  0  0
   42.0360   21.0300   36.6700 C   0  0  0  0  0  0  0  0  0  0  0  0
   41.0420   21.7100   37.3540 C   0  0  0  0  0  0  0  0  0  0  0  0
   38.0845   25.8340   36.9760 H   0  0  0  0  0  0  0  0  0  0  0  0
   36.6747   24.8529   36.6963 H   0  0  0  0  0  0  0  0  0  0  0  0
   38.1360   25.0571   39.1554 H   0  0  0  0  0  0  0  0  0  0  0  0
   36.9334   23.8013   38.8196 H   0  0  0  0  0  0  0  0  0  0  0  0
   39.6320   23.2563   39.2755 H   0  0  0  0  0  0  0  0  0  0  0  0
   38.6603   22.1755   38.3433 H   0  0  0  0  0  0  0  0  0  0  0  0
   40.3064   24.6468   37.2674 H   0  0  0  0  0  0  0  0  0  0  0  0
   37.5013   21.4049   35.7537 H   0  0  0  0  0  0  0  0  0  0  0  0
   37.0840   20.5157   33.4308 H   0  0  0  0  0  0  0  0  0  0  0  0
   38.6193   24.1794   31.8231 H   0  0  0  0  0  0  0  0  0  0  0  0
   43.0296   21.5546   34.7664 H   0  0  0  0  0  0  0  0  0  0  0  0
   42.5182   20.0855   36.9622 H   0  0  0  0  0  0  0  0  0  0  0  0
   40.5900   21.3915   38.3049 H   0  0  0  0  0  0  0  0  0  0  0  0
  1  2  1  0
  1  5  1  0
  2  3  1  0
  4  3  1  0
  5  4  1  0
  6  1  1  0
  7  6  2  0
  8  7  1  0
  9 10  1  0
  9  8  2  0
 10 11  2  0
 11  6  1  0
 12  5  1  0
 12 16  1  0
 13 12  1  0
 14 13  2  0
 14 15  1  0
 15 16  2  0
  2 17  1  0
  2 18  1  0
  3 19  1  0
  3 20  1  0
  4 21  1  0
  4 22  1  0
  5 23  1  1
  7 24  1  0
  8 25  1  0
 10 26  1  0
 14 27  1  0
 15 28  1  0
 16 29  1  0
M  ISO  8  17  13  18  13  19  13  20  13  21  13  22  13  23  13  24  14
M  ISO  5  25  14  26  14  27  14  28  14  29  14
M  END
>  <minimizedAffinity>  (1) 
-3.82055902

>  <minimizedRMSD>  (1) 
1.42080605

$$$$
