
     RDKit          3D

 25 26  0  0  1  0  0  0  0  0999 V2000
   38.5210   23.7760   36.2980 N   0  0  0  0  0  0  0  0  0  0  0  0
   37.7410   24.7760   37.0200 C   0  0  0  0  0  0  0  0  0  0  0  0
   37.8970   24.3120   38.4690 C   0  0  0  0  0  0  0  0  0  0  0  0
   38.9550   23.2290   38.4430 C   0  0  0  0  0  0  0  0  0  0  0  0
   39.6820   23.6170   37.1480 C   0  0  1  0  0  0  0  0  0  0  0  0
   38.2120   23.1240   35.0670 C   0  0  0  0  0  0  0  0  0  0  0  0
   37.4710   21.9440   35.0160 C   0  0  0  0  0  0  0  0  0  0  0  0
   37.2060   21.3620   33.7760 C   0  0  0  0  0  0  0  0  0  0  0  0
   37.7060   22.0080   32.6560 N   0  0  0  0  0  0  0  0  0  0  0  0
   38.4180   23.1460   32.7520 C   0  0  0  0  0  0  0  0  0  0  0  0
   38.6710   23.7040   33.9440 N   0  0  0  0  0  0  0  0  0  0  0  0
   40.5570   22.4950   36.6960 C   0  0  0  0  0  0  0  0  0  0  0  0
   41.4180   22.6320   35.7630 O   0  0  0  0  0  0  0  0  0  0  0  0
   40.6370   21.1650   37.1390 O   0  0  0  0  0  0  0  0  0  0  0  0
   38.1538   25.7854   36.8765 H   0  0  0  0  0  0  0  0  0  0  0  0
   36.6952   24.8493   36.6870 H   0  0  0  0  0  0  0  0  0  0  0  0
   38.2202   25.1482   39.1064 H   0  0  0  0  0  0  0  0  0  0  0  0
   36.9467   23.9403   38.8799 H   0  0  0  0  0  0  0  0  0  0  0  0
   39.6190   23.2827   39.3184 H   0  0  0  0  0  0  0  0  0  0  0  0
   38.5714   22.1985   38.4741 H   0  0  0  0  0  0  0  0  0  0  0  0
   40.3530   24.4875   37.1930 H   0  0  0  0  0  0  0  0  0  0  0  0
   37.1003   21.4782   35.9410 H   0  0  0  0  0  0  0  0  0  0  0  0
   36.6258   20.4314   33.6908 H   0  0  0  0  0  0  0  0  0  0  0  0
   38.7982   23.6256   31.8380 H   0  0  0  0  0  0  0  0  0  0  0  0
   41.2845   20.5426   36.7225 H   0  0  0  0  0  0  0  0  0  0  0  0
  1  2  1  0
  1  5  1  0
  2  3  1  0
  4  3  1  0
  5  4  1  0
  6  1  1  0
  7  6  2  0
  8  7  1  0
  9 10  1  0
  9  8  2  0
 10 11  2  0
 11  6  1  0
 12 14  1  0
 12  5  1  0
 13 12  2  0
  2 15  1  0
  2 16  1  0
  3 17  1  0
  3 18  1  0
  4 19  1  0
  4 20  1  0
  5 21  1  1
  7 22  1  0
  8 23  1  0
 10 24  1  0
 14 25  1  0
M  ISO  8  15  13  16  13  17  13  18  13  19  13  20  13  21  13  22  14
M  ISO  3  23  14  24  14  25   3
M  END
>  <minimizedAffinity>  (1) 
-3.60812497

>  <minimizedRMSD>  (1) 
1.25868213

$$$$
