
     RDKit          3D

 39 41  0  0  0  0  0  0  0  0999 V2000
   37.2320   22.5610   37.0740 C   0  0  0  0  0  0  0  0  0  0  0  0
   37.0170   21.9200   35.8000 C   0  0  0  0  0  0  0  0  0  0  0  0
   35.9290   21.1860   35.4970 C   0  0  0  0  0  0  0  0  0  0  0  0
   35.6740   20.5770   34.3080 C   0  0  0  0  0  0  0  0  0  0  0  0
   36.7730   20.8310   33.3720 C   0  0  0  0  0  0  0  0  0  0  0  0
   37.9990   21.8890   34.3050 S   0  0  0  0  0  0  0  0  0  0  0  0
   36.9930   20.4280   32.0230 C   0  0  0  0  0  0  0  0  0  0  0  0
   36.1720   19.4650   31.4870 C   0  0  0  0  0  0  0  0  0  0  0  0
   36.4320   19.1060   30.1590 C   0  0  0  0  0  0  0  0  0  0  0  0
   37.4760   19.7140   29.4510 C   0  0  0  0  0  0  0  0  0  0  0  0
   38.2810   20.6900   30.0480 C   0  0  0  0  0  0  0  0  0  0  0  0
   38.0060   21.0360   31.3780 C   0  0  0  0  0  0  0  0  0  0  0  0
   38.1260   23.7850   37.0130 C   0  0  0  0  0  0  0  0  0  0  0  0
   41.4340   22.0120   37.2710 C   0  0  0  0  0  0  0  0  0  0  0  0
   40.1130   22.3410   37.5510 C   0  0  0  0  0  0  0  0  0  0  0  0
   39.5040   23.3600   36.7980 C   0  0  0  0  0  0  0  0  0  0  0  0
   40.2270   23.9850   35.8240 N   0  0  0  0  0  0  0  0  0  0  0  0
   41.5070   23.6340   35.5850 C   0  0  0  0  0  0  0  0  0  0  0  0
   42.1080   22.6550   36.3010 N   0  0  0  0  0  0  0  0  0  0  0  0
   38.0690   24.4720   38.3830 C   0  0  0  0  0  0  0  0  0  0  0  0
   37.5770   24.6840   35.9490 C   0  0  0  0  0  0  0  0  0  0  0  0
   36.2546   22.8677   37.4748 H   0  0  0  0  0  0  0  0  0  0  0  0
   37.7447   21.8275   37.7136 H   0  0  0  0  0  0  0  0  0  0  0  0
   35.1736   21.0677   36.2878 H   0  0  0  0  0  0  0  0  0  0  0  0
   34.7765   19.9823   34.0823 H   0  0  0  0  0  0  0  0  0  0  0  0
   35.3590   19.0037   32.0669 H   0  0  0  0  0  0  0  0  0  0  0  0
   35.8120   18.3412   29.6684 H   0  0  0  0  0  0  0  0  0  0  0  0
   37.6662   19.4194   28.4084 H   0  0  0  0  0  0  0  0  0  0  0  0
   39.1011   21.1691   29.4930 H   0  0  0  0  0  0  0  0  0  0  0  0
   38.6125   21.7975   31.8901 H   0  0  0  0  0  0  0  0  0  0  0  0
   41.9325   21.2189   37.8477 H   0  0  0  0  0  0  0  0  0  0  0  0
   39.5575   21.8168   38.3426 H   0  0  0  0  0  0  0  0  0  0  0  0
   42.0717   24.1516   34.7956 H   0  0  0  0  0  0  0  0  0  0  0  0
   38.1320   23.7130   39.1767 H   0  0  0  0  0  0  0  0  0  0  0  0
   38.9121   25.1721   38.4775 H   0  0  0  0  0  0  0  0  0  0  0  0
   37.1220   25.0236   38.4775 H   0  0  0  0  0  0  0  0  0  0  0  0
   37.0584   25.5332   36.4181 H   0  0  0  0  0  0  0  0  0  0  0  0
   38.4011   25.0578   35.3236 H   0  0  0  0  0  0  0  0  0  0  0  0
   36.8681   24.1216   35.3236 H   0  0  0  0  0  0  0  0  0  0  0  0
  2  1  1  0
  3  2  2  0
  4  3  1  0
  5  6  1  0
  5  4  2  0
  6  2  1  0
  7  5  1  0
  8  7  2  0
  9  8  1  0
 10 11  1  0
 10  9  2  0
 11 12  2  0
 12  7  1  0
 13  1  1  0
 13 20  1  0
 14 15  2  0
 16 13  1  0
 16 15  1  0
 17 16  2  0
 18 17  1  0
 18 19  2  0
 19 14  1  0
 21 13  1  0
  1 22  1  0
  1 23  1  0
  3 24  1  0
  4 25  1  0
  8 26  1  0
  9 27  1  0
 10 28  1  0
 11 29  1  0
 12 30  1  0
 14 31  1  0
 15 32  1  0
 18 33  1  0
 20 34  1  0
 20 35  1  0
 20 36  1  0
 21 37  1  0
 21 38  1  0
 21 39  1  0
M  ISO  8  22   8  23   8  24  14  25  14  26  14  27  14  28  14  29  14
M  ISO  8  30  14  31  14  32  14  33  14  34   8  35   8  36   8  37   8
M  ISO  2  38   8  39   8
M  END
>  <minimizedAffinity>  (1) 
-4.77507162

>  <minimizedRMSD>  (1) 
0.340879202

$$$$
