
     RDKit          3D

 29 31  0  0  1  0  0  0  0  0999 V2000
   38.5760   23.8740   36.2530 N   0  0  0  0  0  0  0  0  0  0  0  0
   37.7330   24.7930   36.9910 C   0  0  0  0  0  0  0  0  0  0  0  0
   37.8480   24.2340   38.4190 C   0  0  0  0  0  0  0  0  0  0  0  0
   38.9850   23.2200   38.3740 C   0  0  0  0  0  0  0  0  0  0  0  0
   39.7150   23.7210   37.1380 C   0  0  1  0  0  0  0  0  0  0  0  0
   38.3380   23.2730   34.9730 C   0  0  0  0  0  0  0  0  0  0  0  0
   37.7230   22.0050   34.8520 C   0  0  0  0  0  0  0  0  0  0  0  0
   37.5330   21.4900   33.5740 C   0  0  0  0  0  0  0  0  0  0  0  0
   37.9520   22.2460   32.5110 N   0  0  0  0  0  0  0  0  0  0  0  0
   38.5290   23.4430   32.6770 C   0  0  0  0  0  0  0  0  0  0  0  0
   38.7380   23.9880   33.8940 N   0  0  0  0  0  0  0  0  0  0  0  0
   40.7520   22.8110   36.6660 C   0  0  0  0  0  0  0  0  0  0  0  0
   41.1340   21.6060   37.2400 C   0  0  0  0  0  0  0  0  0  0  0  0
   42.1480   21.0790   36.4680 C   0  0  0  0  0  0  0  0  0  0  0  0
   42.3420   21.9910   35.4520 C   0  0  0  0  0  0  0  0  0  0  0  0
   41.5230   22.9820   35.5920 O   0  0  0  0  0  0  0  0  0  0  0  0
   38.1130   25.8235   36.9310 H   0  0  0  0  0  0  0  0  0  0  0  0
   36.7010   24.8557   36.6154 H   0  0  0  0  0  0  0  0  0  0  0  0
   38.0815   25.0409   39.1292 H   0  0  0  0  0  0  0  0  0  0  0  0
   36.9061   23.7737   38.7521 H   0  0  0  0  0  0  0  0  0  0  0  0
   39.6167   23.2709   39.2731 H   0  0  0  0  0  0  0  0  0  0  0  0
   38.6727   22.1658   38.3396 H   0  0  0  0  0  0  0  0  0  0  0  0
   40.3125   24.6353   37.2683 H   0  0  0  0  0  0  0  0  0  0  0  0
   37.4044   21.4428   35.7422 H   0  0  0  0  0  0  0  0  0  0  0  0
   37.0617   20.5078   33.4217 H   0  0  0  0  0  0  0  0  0  0  0  0
   38.8454   24.0047   31.7857 H   0  0  0  0  0  0  0  0  0  0  0  0
   40.7055   21.1535   38.1464 H   0  0  0  0  0  0  0  0  0  0  0  0
   42.6868   20.1335   36.6284 H   0  0  0  0  0  0  0  0  0  0  0  0
   43.0819   21.8907   34.6442 H   0  0  0  0  0  0  0  0  0  0  0  0
  1  2  1  0
  1  5  1  0
  2  3  1  0
  4  3  1  0
  5  4  1  0
  6  1  1  0
  7  6  2  0
  8  7  1  0
  9 10  1  0
  9  8  2  0
 10 11  2  0
 11  6  1  0
 12  5  1  0
 12 13  2  0
 14 13  1  0
 15 16  1  0
 15 14  2  0
 16 12  1  0
  2 17  1  0
  2 18  1  0
  3 19  1  0
  3 20  1  0
  4 21  1  0
  4 22  1  0
  5 23  1  1
  7 24  1  0
  8 25  1  0
 10 26  1  0
 13 27  1  0
 14 28  1  0
 15 29  1  0
M  ISO  8  17  13  18  13  19  13  20  13  21  13  22  13  23  13  24  14
M  ISO  5  25  14  26  14  27  14  28  14  29  14
M  END
>  <minimizedAffinity>  (1) 
-3.83536029

>  <minimizedRMSD>  (1) 
1.46218789

$$$$
