
     RDKit          3D

 45 48  0  0  1  0  0  0  0  0999 V2000
   38.8780   23.8070   36.3450 N   0  0  0  0  0  0  0  0  0  0  0  0
   37.8990   24.6840   36.9650 C   0  0  0  0  0  0  0  0  0  0  0  0
   37.8070   24.0930   38.3710 C   0  0  0  0  0  0  0  0  0  0  0  0
   38.9960   23.1510   38.4910 C   0  0  0  0  0  0  0  0  0  0  0  0
   39.8860   23.6780   37.4070 C   0  0  1  0  0  0  0  0  0  0  0  0
   38.8620   23.2300   35.0450 C   0  0  0  0  0  0  0  0  0  0  0  0
   38.1970   22.0260   34.7710 C   0  0  0  0  0  0  0  0  0  0  0  0
   38.2400   21.5360   33.4680 C   0  0  0  0  0  0  0  0  0  0  0  0
   38.9320   22.2610   32.5290 N   0  0  0  0  0  0  0  0  0  0  0  0
   39.5470   23.4000   32.8350 C   0  0  0  0  0  0  0  0  0  0  0  0
   39.5360   23.9170   34.0780 N   0  0  0  0  0  0  0  0  0  0  0  0
   41.0240   22.8450   37.0650 C   0  0  0  0  0  0  0  0  0  0  0  0
   41.1900   21.4990   37.4220 C   0  0  0  0  0  0  0  0  0  0  0  0
   42.4040   21.0950   36.8950 C   0  0  0  0  0  0  0  0  0  0  0  0
   42.9140   22.2130   36.2460 C   0  0  0  0  0  0  0  0  0  0  0  0
   42.0850   23.2120   36.3660 O   0  0  0  0  0  0  0  0  0  0  0  0
   44.2040   22.2330   35.5360 C   0  0  0  0  0  0  0  0  0  0  0  0
   45.0120   23.4740   35.7510 C   0  0  0  0  0  0  0  0  0  0  0  0
   46.3310   23.2270   36.4460 C   0  0  0  0  0  0  0  0  0  0  0  0
   47.1800   22.1860   35.7880 C   0  0  0  0  0  0  0  0  0  0  0  0
   46.3160   21.1240   35.1140 C   0  0  0  0  0  0  0  0  0  0  0  0
   45.0490   21.0370   35.9580 C   0  0  0  0  0  0  0  0  0  0  0  0
   38.2513   25.7258   36.9894 H   0  0  0  0  0  0  0  0  0  0  0  0
   36.9369   24.7285   36.4336 H   0  0  0  0  0  0  0  0  0  0  0  0
   37.8684   24.8888   39.1279 H   0  0  0  0  0  0  0  0  0  0  0  0
   36.8527   23.5707   38.5339 H   0  0  0  0  0  0  0  0  0  0  0  0
   39.4738   23.2267   39.4789 H   0  0  0  0  0  0  0  0  0  0  0  0
   38.7428   22.0851   38.3928 H   0  0  0  0  0  0  0  0  0  0  0  0
   40.4304   24.5985   37.6648 H   0  0  0  0  0  0  0  0  0  0  0  0
   37.6573   21.4846   35.5620 H   0  0  0  0  0  0  0  0  0  0  0  0
   37.7349   20.5966   33.1991 H   0  0  0  0  0  0  0  0  0  0  0  0
   40.0852   23.9402   32.0422 H   0  0  0  0  0  0  0  0  0  0  0  0
   40.4908   20.8838   38.0074 H   0  0  0  0  0  0  0  0  0  0  0  0
   42.8670   20.1003   36.9732 H   0  0  0  0  0  0  0  0  0  0  0  0
   43.9454   22.1963   34.4675 H   0  0  0  0  0  0  0  0  0  0  0  0
   45.2159   23.9299   34.7709 H   0  0  0  0  0  0  0  0  0  0  0  0
   44.4220   24.1325   36.4055 H   0  0  0  0  0  0  0  0  0  0  0  0
   46.8943   24.1716   36.4646 H   0  0  0  0  0  0  0  0  0  0  0  0
   46.0948   22.8546   37.4537 H   0  0  0  0  0  0  0  0  0  0  0  0
   47.8163   22.6666   35.0302 H   0  0  0  0  0  0  0  0  0  0  0  0
   47.7983   21.6996   36.5569 H   0  0  0  0  0  0  0  0  0  0  0  0
   46.0724   21.4230   34.0838 H   0  0  0  0  0  0  0  0  0  0  0  0
   46.8332   20.1552   35.0516 H   0  0  0  0  0  0  0  0  0  0  0  0
   45.2941   21.0966   37.0287 H   0  0  0  0  0  0  0  0  0  0  0  0
   44.5187   20.0853   35.8061 H   0  0  0  0  0  0  0  0  0  0  0  0
  1  2  1  0
  1  5  1  0
  2  3  1  0
  3  4  1  0
  5  4  1  0
  6  1  1  0
  7  6  2  0
  8  7  1  0
  9 10  1  0
  9  8  2  0
 10 11  2  0
 11  6  1  0
 12  5  1  0
 12 13  2  0
 14 13  1  0
 15 16  1  0
 15 14  2  0
 16 12  1  0
 17 18  1  0
 17 22  1  0
 17 15  1  0
 18 19  1  0
 20 19  1  0
 21 20  1  0
 21 22  1  0
  2 23  1  0
  2 24  1  0
  3 25  1  0
  3 26  1  0
  4 27  1  0
  4 28  1  0
  5 29  1  1
  7 30  1  0
  8 31  1  0
 10 32  1  0
 13 33  1  0
 14 34  1  0
 17 35  1  0
 18 36  1  0
 18 37  1  0
 19 38  1  0
 19 39  1  0
 20 40  1  0
 20 41  1  0
 21 42  1  0
 21 43  1  0
 22 44  1  0
 22 45  1  0
M  ISO  8  23  13  24  13  25  13  26  13  27  13  28  13  29  13  30  14
M  ISO  8  31  14  32  14  33  14  34  14  35  13  36  13  37  13  38  13
M  ISO  7  39  13  40  13  41  13  42  13  43  13  44  13  45  13
M  END
>  <minimizedAffinity>  (1) 
-4.36309814

>  <minimizedRMSD>  (1) 
1.13296187

$$$$
