
     RDKit          3D

 42 45  0  0  1  0  0  0  0  0999 V2000
   38.8080   23.8330   36.3700 N   0  0  0  0  0  0  0  0  0  0  0  0
   37.8520   24.7210   37.0080 C   0  0  0  0  0  0  0  0  0  0  0  0
   37.8260   24.1590   38.4350 C   0  0  0  0  0  0  0  0  0  0  0  0
   38.9870   23.1870   38.5100 C   0  0  0  0  0  0  0  0  0  0  0  0
   39.8500   23.6940   37.3950 C   0  0  1  0  0  0  0  0  0  0  0  0
   38.7480   23.2470   35.0740 C   0  0  0  0  0  0  0  0  0  0  0  0
   38.0570   22.0510   34.8300 C   0  0  0  0  0  0  0  0  0  0  0  0
   38.0530   21.5500   33.5290 C   0  0  0  0  0  0  0  0  0  0  0  0
   38.7270   22.2570   32.5630 N   0  0  0  0  0  0  0  0  0  0  0  0
   39.3670   23.3880   32.8450 C   0  0  0  0  0  0  0  0  0  0  0  0
   39.4040   23.9190   34.0840 N   0  0  0  0  0  0  0  0  0  0  0  0
   40.9670   22.8430   37.0270 C   0  0  0  0  0  0  0  0  0  0  0  0
   41.1380   21.5050   37.4100 C   0  0  0  0  0  0  0  0  0  0  0  0
   42.3260   21.0810   36.8410 C   0  0  0  0  0  0  0  0  0  0  0  0
   42.8160   22.1780   36.1440 C   0  0  0  0  0  0  0  0  0  0  0  0
   41.9980   23.1870   36.2750 O   0  0  0  0  0  0  0  0  0  0  0  0
   44.1030   22.0630   35.4040 C   0  0  0  0  0  0  0  0  0  0  0  0
   45.0060   20.9920   35.9300 C   0  0  0  0  0  0  0  0  0  0  0  0
   46.3870   21.6170   35.7270 C   0  0  0  0  0  0  0  0  0  0  0  0
   46.1490   23.0180   36.2690 C   0  0  0  0  0  0  0  0  0  0  0  0
   44.8430   23.3840   35.6110 C   0  0  0  0  0  0  0  0  0  0  0  0
   38.1992   25.7646   36.9925 H   0  0  0  0  0  0  0  0  0  0  0  0
   36.8679   24.7508   36.5175 H   0  0  0  0  0  0  0  0  0  0  0  0
   37.9543   24.9682   39.1690 H   0  0  0  0  0  0  0  0  0  0  0  0
   36.8682   23.6682   38.6624 H   0  0  0  0  0  0  0  0  0  0  0  0
   39.5025   23.2462   39.4799 H   0  0  0  0  0  0  0  0  0  0  0  0
   38.7014   22.1286   38.4197 H   0  0  0  0  0  0  0  0  0  0  0  0
   40.4183   24.6077   37.6234 H   0  0  0  0  0  0  0  0  0  0  0  0
   37.5336   21.5239   35.6413 H   0  0  0  0  0  0  0  0  0  0  0  0
   37.5258   20.6163   33.2833 H   0  0  0  0  0  0  0  0  0  0  0  0
   39.8892   23.9135   32.0319 H   0  0  0  0  0  0  0  0  0  0  0  0
   40.4606   20.9092   38.0394 H   0  0  0  0  0  0  0  0  0  0  0  0
   42.7855   20.0850   36.9233 H   0  0  0  0  0  0  0  0  0  0  0  0
   43.8654   21.8227   34.3572 H   0  0  0  0  0  0  0  0  0  0  0  0
   44.8104   20.7903   36.9935 H   0  0  0  0  0  0  0  0  0  0  0  0
   44.8802   20.0196   35.4313 H   0  0  0  0  0  0  0  0  0  0  0  0
   47.1599   21.0864   36.3024 H   0  0  0  0  0  0  0  0  0  0  0  0
   46.7526   21.5862   34.6900 H   0  0  0  0  0  0  0  0  0  0  0  0
   46.0580   23.0135   37.3652 H   0  0  0  0  0  0  0  0  0  0  0  0
   46.9672   23.7225   36.0587 H   0  0  0  0  0  0  0  0  0  0  0  0
   45.0248   23.8778   34.6450 H   0  0  0  0  0  0  0  0  0  0  0  0
   44.2598   24.0853   36.2259 H   0  0  0  0  0  0  0  0  0  0  0  0
  1  2  1  0
  1  5  1  0
  2  3  1  0
  3  4  1  0
  5  4  1  0
  6  1  1  0
  7  6  2  0
  8  7  1  0
  9 10  1  0
  9  8  2  0
 10 11  2  0
 11  6  1  0
 12  5  1  0
 12 13  2  0
 14 13  1  0
 15 16  1  0
 15 14  2  0
 16 12  1  0
 17 21  1  0
 17 18  1  0
 17 15  1  0
 19 18  1  0
 19 20  1  0
 21 20  1  0
  2 22  1  0
  2 23  1  0
  3 24  1  0
  3 25  1  0
  4 26  1  0
  4 27  1  0
  5 28  1  1
  7 29  1  0
  8 30  1  0
 10 31  1  0
 13 32  1  0
 14 33  1  0
 17 34  1  0
 18 35  1  0
 18 36  1  0
 19 37  1  0
 19 38  1  0
 20 39  1  0
 20 40  1  0
 21 41  1  0
 21 42  1  0
M  ISO  8  22  13  23  13  24  13  25  13  26  13  27  13  28  13  29  14
M  ISO  8  30  14  31  14  32  14  33  14  34  13  35  13  36  13  37  13
M  ISO  5  38  13  39  13  40  13  41  13  42  13
M  END
>  <minimizedAffinity>  (1) 
-4.31633711

>  <minimizedRMSD>  (1) 
1.20129657

$$$$
