
     RDKit          3D

 39 42  0  0  1  0  0  0  0  0999 V2000
   38.8390   23.7570   36.2390 N   0  0  0  0  0  0  0  0  0  0  0  0
   37.7620   24.5730   36.7890 C   0  0  0  0  0  0  0  0  0  0  0  0
   37.6320   23.9920   38.1990 C   0  0  0  0  0  0  0  0  0  0  0  0
   38.8480   23.1050   38.3880 C   0  0  0  0  0  0  0  0  0  0  0  0
   39.7800   23.6780   37.3650 C   0  0  1  0  0  0  0  0  0  0  0  0
   38.9400   23.1910   34.9330 C   0  0  0  0  0  0  0  0  0  0  0  0
   38.3260   21.9720   34.6070 C   0  0  0  0  0  0  0  0  0  0  0  0
   38.4850   21.4930   33.3070 C   0  0  0  0  0  0  0  0  0  0  0  0
   39.2320   22.2440   32.4290 N   0  0  0  0  0  0  0  0  0  0  0  0
   39.7940   23.3950   32.7890 C   0  0  0  0  0  0  0  0  0  0  0  0
   39.6720   23.9040   34.0320 N   0  0  0  0  0  0  0  0  0  0  0  0
   40.9740   22.8990   37.0970 C   0  0  0  0  0  0  0  0  0  0  0  0
   41.0990   21.5110   37.2540 C   0  0  0  0  0  0  0  0  0  0  0  0
   42.3910   21.1760   36.8910 C   0  0  0  0  0  0  0  0  0  0  0  0
   42.9860   22.3790   36.5310 C   0  0  0  0  0  0  0  0  0  0  0  0
   42.1360   23.3590   36.6640 O   0  0  0  0  0  0  0  0  0  0  0  0
   44.3600   22.5630   36.0690 C   0  0  0  0  0  0  0  0  0  0  0  0
   44.9830   23.7640   36.3720 C   0  0  0  0  0  0  0  0  0  0  0  0
   46.2980   23.9690   35.9420 C   0  0  0  0  0  0  0  0  0  0  0  0
   46.9390   22.9780   35.2310 C   0  0  0  0  0  0  0  0  0  0  0  0
   46.3190   21.7780   34.9260 C   0  0  0  0  0  0  0  0  0  0  0  0
   45.0390   21.5980   35.3540 C   0  0  0  0  0  0  0  0  0  0  0  0
   38.0377   25.6375   36.8164 H   0  0  0  0  0  0  0  0  0  0  0  0
   36.8315   24.5433   36.2031 H   0  0  0  0  0  0  0  0  0  0  0  0
   37.6246   24.7982   38.9474 H   0  0  0  0  0  0  0  0  0  0  0  0
   36.6947   23.4298   38.3229 H   0  0  0  0  0  0  0  0  0  0  0  0
   39.2592   23.1941   39.4043 H   0  0  0  0  0  0  0  0  0  0  0  0
   38.6485   22.0298   38.2687 H   0  0  0  0  0  0  0  0  0  0  0  0
   40.2599   24.6235   37.6576 H   0  0  0  0  0  0  0  0  0  0  0  0
   37.7394   21.4135   35.3513 H   0  0  0  0  0  0  0  0  0  0  0  0
   38.0270   20.5434   32.9930 H   0  0  0  0  0  0  0  0  0  0  0  0
   40.3807   23.9529   32.0443 H   0  0  0  0  0  0  0  0  0  0  0  0
   40.3171   20.8192   37.6005 H   0  0  0  0  0  0  0  0  0  0  0  0
   42.8479   20.1754   36.8880 H   0  0  0  0  0  0  0  0  0  0  0  0
   44.4524   24.5419   36.9406 H   0  0  0  0  0  0  0  0  0  0  0  0
   46.8157   24.9126   36.1693 H   0  0  0  0  0  0  0  0  0  0  0  0
   47.9733   23.1450   34.8959 H   0  0  0  0  0  0  0  0  0  0  0  0
   46.8431   20.9961   34.3568 H   0  0  0  0  0  0  0  0  0  0  0  0
   44.5291   20.6513   35.1219 H   0  0  0  0  0  0  0  0  0  0  0  0
  1  2  1  0
  1  5  1  0
  2  3  1  0
  3  4  1  0
  5  4  1  0
  6  1  1  0
  7  6  2  0
  8  7  1  0
  9 10  1  0
  9  8  2  0
 10 11  2  0
 11  6  1  0
 12 13  2  0
 12  5  1  0
 14 13  1  0
 15 16  1  0
 15 14  2  0
 16 12  1  0
 17 18  2  0
 17 15  1  0
 19 18  1  0
 20 19  2  0
 21 20  1  0
 21 22  2  0
 22 17  1  0
  2 23  1  0
  2 24  1  0
  3 25  1  0
  3 26  1  0
  4 27  1  0
  4 28  1  0
  5 29  1  1
  7 30  1  0
  8 31  1  0
 10 32  1  0
 13 33  1  0
 14 34  1  0
 18 35  1  0
 19 36  1  0
 20 37  1  0
 21 38  1  0
 22 39  1  0
M  ISO  8  23  13  24  13  25  13  26  13  27  13  28  13  29  13  30  14
M  ISO  8  31  14  32  14  33  14  34  14  35  14  36  14  37  14  38  14
M  ISO  1  39  14
M  END
>  <minimizedAffinity>  (1) 
-4.30742073

>  <minimizedRMSD>  (1) 
1.83196115

$$$$
