
     RDKit          3D

 44 47  0  0  1  0  0  0  0  0999 V2000
   38.9800   23.8010   36.2430 N   0  0  0  0  0  0  0  0  0  0  0  0
   37.9940   24.7120   36.8080 C   0  0  0  0  0  0  0  0  0  0  0  0
   37.8320   24.1300   38.2210 C   0  0  0  0  0  0  0  0  0  0  0  0
   38.9950   23.1650   38.4080 C   0  0  0  0  0  0  0  0  0  0  0  0
   39.9350   23.6580   37.3490 C   0  0  1  0  0  0  0  0  0  0  0  0
   39.0180   23.2030   34.9440 C   0  0  0  0  0  0  0  0  0  0  0  0
   38.3450   22.0060   34.6610 C   0  0  0  0  0  0  0  0  0  0  0  0
   38.4350   21.5000   33.3720 C   0  0  0  0  0  0  0  0  0  0  0  0
   39.1700   22.1940   32.4540 N   0  0  0  0  0  0  0  0  0  0  0  0
   39.8000   23.3370   32.7640 C   0  0  0  0  0  0  0  0  0  0  0  0
   39.7350   23.8540   34.0010 N   0  0  0  0  0  0  0  0  0  0  0  0
   41.0610   22.7940   37.0760 C   0  0  0  0  0  0  0  0  0  0  0  0
   41.1880   21.4590   37.4330 C   0  0  0  0  0  0  0  0  0  0  0  0
   42.3960   20.9950   36.9910 C   0  0  0  0  0  0  0  0  0  0  0  0
   42.9770   22.0720   36.3710 C   0  0  0  0  0  0  0  0  0  0  0  0
   42.1840   23.0880   36.4380 O   0  0  0  0  0  0  0  0  0  0  0  0
   44.2250   22.2110   35.7190 N   0  0  0  0  0  0  0  0  0  0  0  0
   45.3990   23.0450   35.8870 C   0  0  0  0  0  0  0  0  0  0  0  0
   46.6290   22.2090   36.1020 C   0  0  0  0  0  0  0  0  0  0  0  0
   46.3490   20.7360   36.0810 C   0  0  0  0  0  0  0  0  0  0  0  0
   45.4760   20.3010   34.9520 C   0  0  0  0  0  0  0  0  0  0  0  0
   44.3680   21.2690   34.6030 C   0  0  0  0  0  0  0  0  0  0  0  0
   38.3693   25.7456   36.8375 H   0  0  0  0  0  0  0  0  0  0  0  0
   37.0574   24.7783   36.2350 H   0  0  0  0  0  0  0  0  0  0  0  0
   37.8749   24.9319   38.9728 H   0  0  0  0  0  0  0  0  0  0  0  0
   36.8627   23.6242   38.3419 H   0  0  0  0  0  0  0  0  0  0  0  0
   39.4351   23.2498   39.4126 H   0  0  0  0  0  0  0  0  0  0  0  0
   38.7258   22.1019   38.3220 H   0  0  0  0  0  0  0  0  0  0  0  0
   40.4855   24.5740   37.6096 H   0  0  0  0  0  0  0  0  0  0  0  0
   37.7641   21.4846   35.4361 H   0  0  0  0  0  0  0  0  0  0  0  0
   37.9273   20.5638   33.0968 H   0  0  0  0  0  0  0  0  0  0  0  0
   40.3807   23.8603   31.9901 H   0  0  0  0  0  0  0  0  0  0  0  0
   40.4388   20.8699   37.9822 H   0  0  0  0  0  0  0  0  0  0  0  0
   42.8101   19.9825   37.1069 H   0  0  0  0  0  0  0  0  0  0  0  0
   45.5353   23.6597   34.9850 H   0  0  0  0  0  0  0  0  0  0  0  0
   45.2511   23.6833   36.7705 H   0  0  0  0  0  0  0  0  0  0  0  0
   47.3526   22.4394   35.3062 H   0  0  0  0  0  0  0  0  0  0  0  0
   47.0226   22.4543   37.0995 H   0  0  0  0  0  0  0  0  0  0  0  0
   47.3078   20.2026   36.0024 H   0  0  0  0  0  0  0  0  0  0  0  0
   45.8090   20.5011   37.0101 H   0  0  0  0  0  0  0  0  0  0  0  0
   46.1079   20.1675   34.0616 H   0  0  0  0  0  0  0  0  0  0  0  0
   44.9863   19.3713   35.2773 H   0  0  0  0  0  0  0  0  0  0  0  0
   44.6246   21.8151   33.6833 H   0  0  0  0  0  0  0  0  0  0  0  0
   43.4251   20.7281   34.4345 H   0  0  0  0  0  0  0  0  0  0  0  0
  1  2  1  0
  1  5  1  0
  2  3  1  0
  3  4  1  0
  5  4  1  0
  6  1  1  0
  7  6  2  0
  8  7  1  0
  9 10  1  0
  9  8  2  0
 10 11  2  0
 11  6  1  0
 12  5  1  0
 12 13  2  0
 14 13  1  0
 15 16  1  0
 15 14  2  0
 16 12  1  0
 17 18  1  0
 17 15  1  0
 18 19  1  0
 20 19  1  0
 21 20  1  0
 22 21  1  0
 22 17  1  0
  2 23  1  0
  2 24  1  0
  3 25  1  0
  3 26  1  0
  4 27  1  0
  4 28  1  0
  5 29  1  1
  7 30  1  0
  8 31  1  0
 10 32  1  0
 13 33  1  0
 14 34  1  0
 18 35  1  0
 18 36  1  0
 19 37  1  0
 19 38  1  0
 20 39  1  0
 20 40  1  0
 21 41  1  0
 21 42  1  0
 22 43  1  0
 22 44  1  0
M  ISO  8  23  13  24  13  25  13  26  13  27  13  28  13  29  13  30  14
M  ISO  8  31  14  32  14  33  14  34  14  35  13  36  13  37  13  38  13
M  ISO  6  39  13  40  13  41  13  42  13  43  13  44  13
M  END
>  <minimizedAffinity>  (1) 
-4.21540546

>  <minimizedRMSD>  (1) 
1.30225146

$$$$
