
     RDKit          3D

 38 40  0  0  0  0  0  0  0  0999 V2000
   38.1190   23.7920   37.0110 C   0  0  0  0  0  0  0  0  0  0  0  0
   41.4390   22.0320   37.2700 C   0  0  0  0  0  0  0  0  0  0  0  0
   40.1210   22.3340   37.5620 C   0  0  0  0  0  0  0  0  0  0  0  0
   39.5080   23.3620   36.8070 C   0  0  0  0  0  0  0  0  0  0  0  0
   40.2280   24.0160   35.8260 N   0  0  0  0  0  0  0  0  0  0  0  0
   41.5200   23.6620   35.5980 C   0  0  0  0  0  0  0  0  0  0  0  0
   42.1280   22.6690   36.3200 N   0  0  0  0  0  0  0  0  0  0  0  0
   38.0500   24.4460   38.3940 C   0  0  0  0  0  0  0  0  0  0  0  0
   37.5730   24.6900   35.9540 C   0  0  0  0  0  0  0  0  0  0  0  0
   37.2370   22.5490   37.0480 C   0  0  0  0  0  0  0  0  0  0  0  0
   37.0510   21.9170   35.7650 C   0  0  0  0  0  0  0  0  0  0  0  0
   35.9590   21.2000   35.4370 C   0  0  0  0  0  0  0  0  0  0  0  0
   35.7120   20.6050   34.2410 C   0  0  0  0  0  0  0  0  0  0  0  0
   36.8260   20.8540   33.3240 C   0  0  0  0  0  0  0  0  0  0  0  0
   38.0610   21.8960   34.2970 S   0  0  0  0  0  0  0  0  0  0  0  0
   37.0610   20.4640   31.9810 C   0  0  0  0  0  0  0  0  0  0  0  0
   36.2310   19.4960   31.4740 C   0  0  0  0  0  0  0  0  0  0  0  0
   36.4170   19.0710   30.1530 C   0  0  0  0  0  0  0  0  0  0  0  0
   37.4510   19.6820   29.4540 C   0  0  0  0  0  0  0  0  0  0  0  0
   38.2650   20.6640   30.0240 C   0  0  0  0  0  0  0  0  0  0  0  0
   38.0530   21.0400   31.2880 N   0  0  0  0  0  0  0  0  0  0  0  0
   41.9386   21.2366   37.8424 H   0  0  0  0  0  0  0  0  0  0  0  0
   39.5717   21.7968   38.3492 H   0  0  0  0  0  0  0  0  0  0  0  0
   42.0906   24.1845   34.8161 H   0  0  0  0  0  0  0  0  0  0  0  0
   38.1317   23.6712   39.1705 H   0  0  0  0  0  0  0  0  0  0  0  0
   38.8775   25.1625   38.5025 H   0  0  0  0  0  0  0  0  0  0  0  0
   37.0912   24.9741   38.5025 H   0  0  0  0  0  0  0  0  0  0  0  0
   37.0566   25.5393   36.4252 H   0  0  0  0  0  0  0  0  0  0  0  0
   38.3971   25.0633   35.3284 H   0  0  0  0  0  0  0  0  0  0  0  0
   36.8623   24.1301   35.3284 H   0  0  0  0  0  0  0  0  0  0  0  0
   37.6989   21.8185   37.7285 H   0  0  0  0  0  0  0  0  0  0  0  0
   36.2428   22.8771   37.3855 H   0  0  0  0  0  0  0  0  0  0  0  0
   35.1903   21.0847   36.2154 H   0  0  0  0  0  0  0  0  0  0  0  0
   34.8105   20.0235   33.9980 H   0  0  0  0  0  0  0  0  0  0  0  0
   35.4334   19.0615   32.0946 H   0  0  0  0  0  0  0  0  0  0  0  0
   35.7817   18.2985   29.6952 H   0  0  0  0  0  0  0  0  0  0  0  0
   37.6356   19.3810   28.4122 H   0  0  0  0  0  0  0  0  0  0  0  0
   39.0737   21.1236   29.4368 H   0  0  0  0  0  0  0  0  0  0  0  0
  1 10  1  0
  1  8  1  0
  2  3  2  0
  4  1  1  0
  4  3  1  0
  5  4  2  0
  6  5  1  0
  6  7  2  0
  7  2  1  0
  9  1  1  0
 11 10  1  0
 12 11  2  0
 13 12  1  0
 14 13  2  0
 14 15  1  0
 15 11  1  0
 16 14  1  0
 17 16  2  0
 18 17  1  0
 19 20  1  0
 19 18  2  0
 20 21  2  0
 21 16  1  0
  2 22  1  0
  3 23  1  0
  6 24  1  0
  8 25  1  0
  8 26  1  0
  8 27  1  0
  9 28  1  0
  9 29  1  0
  9 30  1  0
 10 31  1  0
 10 32  1  0
 12 33  1  0
 13 34  1  0
 17 35  1  0
 18 36  1  0
 19 37  1  0
 20 38  1  0
M  ISO  8  22  14  23  14  24  14  25   8  26   8  27   8  28   8  29   8
M  ISO  8  30   8  31   8  32   8  33  14  34  14  35  14  36  14  37  14
M  ISO  1  38  14
M  END
>  <minimizedAffinity>  (1) 
-4.69119072

>  <minimizedRMSD>  (1) 
0.541059911

$$$$
