
     RDKit          3D

 37 40  0  0  1  0  0  0  0  0999 V2000
   38.8730   23.7810   36.2160 N   0  0  0  0  0  0  0  0  0  0  0  0
   37.8270   24.6310   36.7650 C   0  0  0  0  0  0  0  0  0  0  0  0
   37.6660   24.0390   38.1650 C   0  0  0  0  0  0  0  0  0  0  0  0
   38.8780   23.1440   38.3740 C   0  0  0  0  0  0  0  0  0  0  0  0
   39.8160   23.6880   37.3400 C   0  0  1  0  0  0  0  0  0  0  0  0
   38.9540   23.1980   34.9200 C   0  0  0  0  0  0  0  0  0  0  0  0
   38.3300   21.9810   34.6090 C   0  0  0  0  0  0  0  0  0  0  0  0
   38.4700   21.4890   33.3130 C   0  0  0  0  0  0  0  0  0  0  0  0
   39.2120   22.2270   32.4180 N   0  0  0  0  0  0  0  0  0  0  0  0
   39.7840   23.3750   32.7650 C   0  0  0  0  0  0  0  0  0  0  0  0
   39.6820   23.8960   34.0000 N   0  0  0  0  0  0  0  0  0  0  0  0
   40.9960   22.8830   37.0750 C   0  0  0  0  0  0  0  0  0  0  0  0
   41.1240   21.5110   37.3330 C   0  0  0  0  0  0  0  0  0  0  0  0
   42.3930   21.1430   36.9350 C   0  0  0  0  0  0  0  0  0  0  0  0
   42.9750   22.3100   36.4530 C   0  0  0  0  0  0  0  0  0  0  0  0
   42.1340   23.3030   36.5490 O   0  0  0  0  0  0  0  0  0  0  0  0
   44.3380   22.3530   35.9270 C   0  0  0  0  0  0  0  0  0  0  0  0
   45.2060   23.4180   36.1870 C   0  0  0  0  0  0  0  0  0  0  0  0
   46.4990   23.4210   35.6660 C   0  0  0  0  0  0  0  0  0  0  0  0
   46.9390   22.3850   34.8950 N   0  0  0  0  0  0  0  0  0  0  0  0
   46.0810   21.3840   34.6690 C   0  0  0  0  0  0  0  0  0  0  0  0
   44.8180   21.3520   35.1610 N   0  0  0  0  0  0  0  0  0  0  0  0
   38.1436   25.6836   36.8066 H   0  0  0  0  0  0  0  0  0  0  0  0
   36.9005   24.6458   36.1723 H   0  0  0  0  0  0  0  0  0  0  0  0
   37.6449   24.8389   38.9198 H   0  0  0  0  0  0  0  0  0  0  0  0
   36.7248   23.4782   38.2634 H   0  0  0  0  0  0  0  0  0  0  0  0
   39.2891   23.2509   39.3887 H   0  0  0  0  0  0  0  0  0  0  0  0
   38.6698   22.0683   38.2766 H   0  0  0  0  0  0  0  0  0  0  0  0
   40.3162   24.6262   37.6222 H   0  0  0  0  0  0  0  0  0  0  0  0
   37.7484   21.4323   35.3644 H   0  0  0  0  0  0  0  0  0  0  0  0
   38.0019   20.5396   33.0138 H   0  0  0  0  0  0  0  0  0  0  0  0
   40.3661   23.9226   32.0092 H   0  0  0  0  0  0  0  0  0  0  0  0
   40.3584   20.8529   37.7697 H   0  0  0  0  0  0  0  0  0  0  0  0
   42.8463   20.1421   36.9877 H   0  0  0  0  0  0  0  0  0  0  0  0
   44.8658   24.2601   36.8076 H   0  0  0  0  0  0  0  0  0  0  0  0
   47.1704   24.2661   35.8784 H   0  0  0  0  0  0  0  0  0  0  0  0
   46.4188   20.5400   34.0497 H   0  0  0  0  0  0  0  0  0  0  0  0
  1  2  1  0
  1  5  1  0
  2  3  1  0
  3  4  1  0
  5  4  1  0
  6  1  1  0
  7  6  2  0
  8  7  1  0
  9 10  1  0
  9  8  2  0
 10 11  2  0
 11  6  1  0
 12 13  2  0
 12  5  1  0
 14 13  1  0
 15 16  1  0
 15 14  2  0
 16 12  1  0
 17 18  2  0
 17 15  1  0
 19 18  1  0
 20 19  2  0
 21 20  1  0
 21 22  2  0
 22 17  1  0
  2 23  1  0
  2 24  1  0
  3 25  1  0
  3 26  1  0
  4 27  1  0
  4 28  1  0
  5 29  1  1
  7 30  1  0
  8 31  1  0
 10 32  1  0
 13 33  1  0
 14 34  1  0
 18 35  1  0
 19 36  1  0
 21 37  1  0
M  ISO  8  23  13  24  13  25  13  26  13  27  13  28  13  29  13  30  14
M  ISO  7  31  14  32  14  33  14  34  14  35  14  36  14  37  14
M  END
>  <minimizedAffinity>  (1) 
-4.07783222

>  <minimizedRMSD>  (1) 
1.50446296

$$$$
