
     RDKit          3D

 32 34  0  0  1  0  0  0  0  0999 V2000
   38.9040   23.8000   36.2370 N   0  0  0  0  0  0  0  0  0  0  0  0
   37.8800   24.6790   36.7820 C   0  0  0  0  0  0  0  0  0  0  0  0
   37.7120   24.1120   38.1900 C   0  0  0  0  0  0  0  0  0  0  0  0
   38.8960   23.1800   38.4000 C   0  0  0  0  0  0  0  0  0  0  0  0
   39.8470   23.6890   37.3590 C   0  0  1  0  0  0  0  0  0  0  0  0
   38.9730   23.2060   34.9450 C   0  0  0  0  0  0  0  0  0  0  0  0
   38.3320   21.9940   34.6470 C   0  0  0  0  0  0  0  0  0  0  0  0
   38.4630   21.4920   33.3540 C   0  0  0  0  0  0  0  0  0  0  0  0
   39.2070   22.2080   32.4490 N   0  0  0  0  0  0  0  0  0  0  0  0
   39.7940   23.3540   32.7840 C   0  0  0  0  0  0  0  0  0  0  0  0
   39.7020   23.8840   34.0150 N   0  0  0  0  0  0  0  0  0  0  0  0
   41.0030   22.8470   37.1040 C   0  0  0  0  0  0  0  0  0  0  0  0
   41.1070   21.4800   37.3960 C   0  0  0  0  0  0  0  0  0  0  0  0
   42.3640   21.0740   36.9910 C   0  0  0  0  0  0  0  0  0  0  0  0
   42.9610   22.2150   36.4730 C   0  0  0  0  0  0  0  0  0  0  0  0
   42.1440   23.2280   36.5530 O   0  0  0  0  0  0  0  0  0  0  0  0
   44.3350   22.3640   35.8860 C   0  0  0  0  0  0  0  0  0  0  0  0
   44.2780   22.7030   34.5600 F   0  0  0  0  0  0  0  0  0  0  0  0
   45.0830   21.2420   36.1500 F   0  0  0  0  0  0  0  0  0  0  0  0
   45.0060   23.4200   36.5160 F   0  0  0  0  0  0  0  0  0  0  0  0
   38.2199   25.7248   36.8076 H   0  0  0  0  0  0  0  0  0  0  0  0
   36.9506   24.7042   36.1942 H   0  0  0  0  0  0  0  0  0  0  0  0
   37.7243   24.9220   38.9341 H   0  0  0  0  0  0  0  0  0  0  0  0
   36.7536   23.5845   38.3045 H   0  0  0  0  0  0  0  0  0  0  0  0
   39.3141   23.2794   39.4126 H   0  0  0  0  0  0  0  0  0  0  0  0
   38.6538   22.1108   38.3097 H   0  0  0  0  0  0  0  0  0  0  0  0
   40.3747   24.6160   37.6276 H   0  0  0  0  0  0  0  0  0  0  0  0
   37.7460   21.4584   35.4084 H   0  0  0  0  0  0  0  0  0  0  0  0
   37.9824   20.5456   33.0653 H   0  0  0  0  0  0  0  0  0  0  0  0
   40.3787   23.8896   32.0216 H   0  0  0  0  0  0  0  0  0  0  0  0
   40.3340   20.8497   37.8599 H   0  0  0  0  0  0  0  0  0  0  0  0
   42.7975   20.0656   37.0633 H   0  0  0  0  0  0  0  0  0  0  0  0
  1  2  1  0
  1  5  1  0
  2  3  1  0
  3  4  1  0
  5  4  1  0
  6  1  1  0
  7  6  2  0
  8  7  1  0
  9 10  1  0
  9  8  2  0
 10 11  2  0
 11  6  1  0
 12  5  1  0
 12 13  2  0
 14 13  1  0
 15 16  1  0
 15 14  2  0
 16 12  1  0
 17 19  1  0
 17 15  1  0
 17 20  1  0
 18 17  1  0
  2 21  1  0
  2 22  1  0
  3 23  1  0
  3 24  1  0
  4 25  1  0
  4 26  1  0
  5 27  1  1
  7 28  1  0
  8 29  1  0
 10 30  1  0
 13 31  1  0
 14 32  1  0
M  ISO  8  21  13  22  13  23  13  24  13  25  13  26  13  27  13  28  14
M  ISO  4  29  14  30  14  31  14  32  14
M  END
>  <minimizedAffinity>  (1) 
-4.07489634

>  <minimizedRMSD>  (1) 
1.16800439

$$$$
