
     RDKit          3D

 36 39  0  0  1  0  0  0  0  0999 V2000
   38.9050   23.7900   36.2280 N   0  0  0  0  0  0  0  0  0  0  0  0
   37.8650   24.6550   36.7740 C   0  0  0  0  0  0  0  0  0  0  0  0
   37.7170   24.0970   38.1900 C   0  0  0  0  0  0  0  0  0  0  0  0
   38.9030   23.1670   38.3880 C   0  0  0  0  0  0  0  0  0  0  0  0
   39.8490   23.6930   37.3500 C   0  0  1  0  0  0  0  0  0  0  0  0
   38.9750   23.2000   34.9320 C   0  0  0  0  0  0  0  0  0  0  0  0
   38.3330   21.9900   34.6340 C   0  0  0  0  0  0  0  0  0  0  0  0
   38.4630   21.4890   33.3390 C   0  0  0  0  0  0  0  0  0  0  0  0
   39.2130   22.2150   32.4360 N   0  0  0  0  0  0  0  0  0  0  0  0
   39.8010   23.3630   32.7750 C   0  0  0  0  0  0  0  0  0  0  0  0
   39.7060   23.8850   34.0070 N   0  0  0  0  0  0  0  0  0  0  0  0
   41.0100   22.8600   37.0880 C   0  0  0  0  0  0  0  0  0  0  0  0
   41.1170   21.4900   37.3670 C   0  0  0  0  0  0  0  0  0  0  0  0
   42.3740   21.0880   36.9650 C   0  0  0  0  0  0  0  0  0  0  0  0
   42.9720   22.2370   36.4580 C   0  0  0  0  0  0  0  0  0  0  0  0
   42.1530   23.2470   36.5450 O   0  0  0  0  0  0  0  0  0  0  0  0
   44.3080   22.3980   35.8920 C   0  0  0  0  0  0  0  0  0  0  0  0
   45.1320   23.4830   36.2190 C   0  0  0  0  0  0  0  0  0  0  0  0
   46.3240   23.3630   35.5330 C   0  0  0  0  0  0  0  0  0  0  0  0
   46.1600   22.1880   34.8070 C   0  0  0  0  0  0  0  0  0  0  0  0
   44.9840   21.6750   35.0520 O   0  0  0  0  0  0  0  0  0  0  0  0
   38.1842   25.7076   36.7882 H   0  0  0  0  0  0  0  0  0  0  0  0
   36.9313   24.6560   36.1924 H   0  0  0  0  0  0  0  0  0  0  0  0
   37.7405   24.9120   38.9284 H   0  0  0  0  0  0  0  0  0  0  0  0
   36.7601   23.5708   38.3226 H   0  0  0  0  0  0  0  0  0  0  0  0
   39.3228   23.2564   39.4008 H   0  0  0  0  0  0  0  0  0  0  0  0
   38.6651   22.0978   38.2873 H   0  0  0  0  0  0  0  0  0  0  0  0
   40.3642   24.6256   37.6236 H   0  0  0  0  0  0  0  0  0  0  0  0
   37.7470   21.4542   35.3953 H   0  0  0  0  0  0  0  0  0  0  0  0
   37.9824   20.5439   33.0461 H   0  0  0  0  0  0  0  0  0  0  0  0
   40.3861   23.9023   32.0155 H   0  0  0  0  0  0  0  0  0  0  0  0
   40.3430   20.8543   37.8217 H   0  0  0  0  0  0  0  0  0  0  0  0
   42.8083   20.0795   37.0310 H   0  0  0  0  0  0  0  0  0  0  0  0
   44.8714   24.2981   36.9101 H   0  0  0  0  0  0  0  0  0  0  0  0
   47.1944   24.0352   35.5552 H   0  0  0  0  0  0  0  0  0  0  0  0
   46.9091   21.7552   34.1277 H   0  0  0  0  0  0  0  0  0  0  0  0
  1  2  1  0
  1  5  1  0
  2  3  1  0
  3  4  1  0
  5  4  1  0
  6  1  1  0
  7  6  2  0
  8  7  1  0
  9 10  1  0
  9  8  2  0
 10 11  2  0
 11  6  1  0
 12  5  1  0
 12 13  2  0
 14 13  1  0
 15 16  1  0
 15 14  2  0
 16 12  1  0
 17 18  2  0
 17 15  1  0
 19 18  1  0
 20 21  1  0
 20 19  2  0
 21 17  1  0
  2 22  1  0
  2 23  1  0
  3 24  1  0
  3 25  1  0
  4 26  1  0
  4 27  1  0
  5 28  1  1
  7 29  1  0
  8 30  1  0
 10 31  1  0
 13 32  1  0
 14 33  1  0
 18 34  1  0
 19 35  1  0
 20 36  1  0
M  ISO  8  22  13  23  13  24  13  25  13  26  13  27  13  28  13  29  14
M  ISO  7  30  14  31  14  32  14  33  14  34  14  35  14  36  14
M  END
>  <minimizedAffinity>  (1) 
-4.07196045

>  <minimizedRMSD>  (1) 
1.389678

$$$$
