
     RDKit          3D

 36 39  0  0  1  0  0  0  0  0999 V2000
   38.9140   23.7960   36.2410 N   0  0  0  0  0  0  0  0  0  0  0  0
   37.8840   24.6690   36.7860 C   0  0  0  0  0  0  0  0  0  0  0  0
   37.7470   24.1150   38.2100 C   0  0  0  0  0  0  0  0  0  0  0  0
   38.9090   23.1650   38.3940 C   0  0  0  0  0  0  0  0  0  0  0  0
   39.8600   23.6850   37.3600 C   0  0  1  0  0  0  0  0  0  0  0  0
   38.9770   23.2070   34.9470 C   0  0  0  0  0  0  0  0  0  0  0  0
   38.3310   21.9970   34.6490 C   0  0  0  0  0  0  0  0  0  0  0  0
   38.4520   21.4920   33.3570 C   0  0  0  0  0  0  0  0  0  0  0  0
   39.1970   22.2090   32.4500 N   0  0  0  0  0  0  0  0  0  0  0  0
   39.7980   23.3630   32.7820 C   0  0  0  0  0  0  0  0  0  0  0  0
   39.7080   23.8870   34.0160 N   0  0  0  0  0  0  0  0  0  0  0  0
   41.0210   22.8520   37.0940 C   0  0  0  0  0  0  0  0  0  0  0  0
   41.1240   21.4840   37.3780 C   0  0  0  0  0  0  0  0  0  0  0  0
   42.3840   21.0910   36.9660 C   0  0  0  0  0  0  0  0  0  0  0  0
   42.9810   22.2360   36.4540 C   0  0  0  0  0  0  0  0  0  0  0  0
   42.1570   23.2440   36.5450 O   0  0  0  0  0  0  0  0  0  0  0  0
   44.3280   22.2360   35.9140 C   0  0  0  0  0  0  0  0  0  0  0  0
   44.8700   21.2810   35.0480 C   0  0  0  0  0  0  0  0  0  0  0  0
   46.1270   21.6990   34.8290 N   0  0  0  0  0  0  0  0  0  0  0  0
   46.3820   22.8370   35.5000 C   0  0  0  0  0  0  0  0  0  0  0  0
   45.2740   23.1570   36.1620 N   0  0  0  0  0  0  0  0  0  0  0  0
   38.2081   25.7202   36.7918 H   0  0  0  0  0  0  0  0  0  0  0  0
   36.9461   24.6742   36.2113 H   0  0  0  0  0  0  0  0  0  0  0  0
   37.7989   24.9312   38.9456 H   0  0  0  0  0  0  0  0  0  0  0  0
   36.7817   23.6084   38.3570 H   0  0  0  0  0  0  0  0  0  0  0  0
   39.3333   23.2350   39.4065 H   0  0  0  0  0  0  0  0  0  0  0  0
   38.6510   22.1015   38.2830 H   0  0  0  0  0  0  0  0  0  0  0  0
   40.3856   24.6103   37.6385 H   0  0  0  0  0  0  0  0  0  0  0  0
   37.7466   21.4636   35.4132 H   0  0  0  0  0  0  0  0  0  0  0  0
   37.9662   20.5477   33.0703 H   0  0  0  0  0  0  0  0  0  0  0  0
   40.3832   23.8968   32.0187 H   0  0  0  0  0  0  0  0  0  0  0  0
   40.3538   20.8476   37.8383 H   0  0  0  0  0  0  0  0  0  0  0  0
   42.8215   20.0838   37.0302 H   0  0  0  0  0  0  0  0  0  0  0  0
   44.3768   20.3873   34.6380 H   0  0  0  0  0  0  0  0  0  0  0  0
   47.3287   23.3972   35.5008 H   0  0  0  0  0  0  0  0  0  0  0  0
   45.1592   23.9811   36.7692 H   0  0  0  0  0  0  0  0  0  0  0  0
  1  2  1  0
  1  5  1  0
  2  3  1  0
  3  4  1  0
  5  4  1  0
  6  1  1  0
  7  6  2  0
  8  7  1  0
  9 10  1  0
  9  8  2  0
 10 11  2  0
 11  6  1  0
 12  5  1  0
 12 13  2  0
 14 13  1  0
 15 16  1  0
 15 14  2  0
 16 12  1  0
 17 21  1  0
 17 15  1  0
 18 17  2  0
 19 18  1  0
 19 20  2  0
 20 21  1  0
  2 22  1  0
  2 23  1  0
  3 24  1  0
  3 25  1  0
  4 26  1  0
  4 27  1  0
  5 28  1  1
  7 29  1  0
  8 30  1  0
 10 31  1  0
 13 32  1  0
 14 33  1  0
 18 34  1  0
 20 35  1  0
 21 36  1  0
M  ISO  8  22  13  23  13  24  13  25  13  26  13  27  13  28  13  29  14
M  ISO  7  30  14  31  14  32  14  33  14  34  14  35  14  36   9
M  END
>  <minimizedAffinity>  (1) 
-3.97008419

>  <minimizedRMSD>  (1) 
1.35548687

$$$$
