
     RDKit          3D

 36 39  0  0  1  0  0  0  0  0999 V2000
   39.0070   23.8120   36.1740 N   0  0  0  0  0  0  0  0  0  0  0  0
   37.9690   24.6820   36.6930 C   0  0  0  0  0  0  0  0  0  0  0  0
   37.7470   24.0920   38.0840 C   0  0  0  0  0  0  0  0  0  0  0  0
   38.9140   23.1500   38.3190 C   0  0  0  0  0  0  0  0  0  0  0  0
   39.9070   23.6700   37.3250 C   0  0  1  0  0  0  0  0  0  0  0  0
   39.1210   23.2430   34.8730 C   0  0  0  0  0  0  0  0  0  0  0  0
   38.5400   22.0090   34.5460 C   0  0  0  0  0  0  0  0  0  0  0  0
   38.7060   21.5310   33.2470 C   0  0  0  0  0  0  0  0  0  0  0  0
   39.4300   22.2990   32.3640 N   0  0  0  0  0  0  0  0  0  0  0  0
   39.9610   23.4650   32.7220 C   0  0  0  0  0  0  0  0  0  0  0  0
   39.8280   23.9650   33.9610 N   0  0  0  0  0  0  0  0  0  0  0  0
   41.0700   22.8300   37.0960 C   0  0  0  0  0  0  0  0  0  0  0  0
   41.1570   21.4610   37.3740 C   0  0  0  0  0  0  0  0  0  0  0  0
   42.4300   21.0660   37.0020 C   0  0  0  0  0  0  0  0  0  0  0  0
   43.0500   22.2120   36.5180 C   0  0  0  0  0  0  0  0  0  0  0  0
   42.2270   23.2210   36.5880 O   0  0  0  0  0  0  0  0  0  0  0  0
   44.3910   22.2000   36.0350 N   0  0  0  0  0  0  0  0  0  0  0  0
   45.1840   23.2870   36.0300 C   0  0  0  0  0  0  0  0  0  0  0  0
   46.3900   22.8700   35.4930 C   0  0  0  0  0  0  0  0  0  0  0  0
   46.3040   21.5540   35.1870 N   0  0  0  0  0  0  0  0  0  0  0  0
   45.0720   21.1530   35.5250 C   0  0  0  0  0  0  0  0  0  0  0  0
   38.3103   25.7262   36.7489 H   0  0  0  0  0  0  0  0  0  0  0  0
   37.0623   24.7200   36.0713 H   0  0  0  0  0  0  0  0  0  0  0  0
   37.7382   24.8889   38.8422 H   0  0  0  0  0  0  0  0  0  0  0  0
   36.7816   23.5696   38.1552 H   0  0  0  0  0  0  0  0  0  0  0  0
   39.2945   23.2274   39.3482 H   0  0  0  0  0  0  0  0  0  0  0  0
   38.6677   22.0847   38.1986 H   0  0  0  0  0  0  0  0  0  0  0  0
   40.4326   24.5861   37.6326 H   0  0  0  0  0  0  0  0  0  0  0  0
   37.9704   21.4356   35.2922 H   0  0  0  0  0  0  0  0  0  0  0  0
   38.2714   20.5691   32.9372 H   0  0  0  0  0  0  0  0  0  0  0  0
   40.5294   24.0401   31.9762 H   0  0  0  0  0  0  0  0  0  0  0  0
   40.3691   20.8247   37.8034 H   0  0  0  0  0  0  0  0  0  0  0  0
   42.8610   20.0565   37.0742 H   0  0  0  0  0  0  0  0  0  0  0  0
   44.9272   24.2977   36.3801 H   0  0  0  0  0  0  0  0  0  0  0  0
   47.2749   23.5052   35.3398 H   0  0  0  0  0  0  0  0  0  0  0  0
   44.6781   20.1329   35.4059 H   0  0  0  0  0  0  0  0  0  0  0  0
  1  2  1  0
  1  5  1  0
  2  3  1  0
  3  4  1  0
  5  4  1  0
  6  1  1  0
  7  6  2  0
  8  7  1  0
  9 10  1  0
  9  8  2  0
 10 11  2  0
 11  6  1  0
 12  5  1  0
 12 13  2  0
 14 13  1  0
 15 16  1  0
 15 14  2  0
 16 12  1  0
 17 15  1  0
 18 17  1  0
 19 18  2  0
 20 19  1  0
 20 21  2  0
 21 17  1  0
  2 22  1  0
  2 23  1  0
  3 24  1  0
  3 25  1  0
  4 26  1  0
  4 27  1  0
  5 28  1  1
  7 29  1  0
  8 30  1  0
 10 31  1  0
 13 32  1  0
 14 33  1  0
 18 34  1  0
 19 35  1  0
 21 36  1  0
M  ISO  8  22  13  23  13  24  13  25  13  26  13  27  13  28  13  29  14
M  ISO  7  30  14  31  14  32  14  33  14  34  14  35  14  36  14
M  END
>  <minimizedAffinity>  (1) 
-3.95496416

>  <minimizedRMSD>  (1) 
1.4912703

$$$$
