
     RDKit          3D

 34 37  0  0  1  0  0  0  0  0999 V2000
   39.0080   23.8110   36.2100 N   0  0  0  0  0  0  0  0  0  0  0  0
   37.9900   24.7010   36.7550 C   0  0  0  0  0  0  0  0  0  0  0  0
   37.7950   24.1190   38.1540 C   0  0  0  0  0  0  0  0  0  0  0  0
   38.9530   23.1540   38.3580 C   0  0  0  0  0  0  0  0  0  0  0  0
   39.9310   23.6630   37.3450 C   0  0  1  0  0  0  0  0  0  0  0  0
   39.0820   23.2390   34.9060 C   0  0  0  0  0  0  0  0  0  0  0  0
   38.4640   22.0160   34.6000 C   0  0  0  0  0  0  0  0  0  0  0  0
   38.5920   21.5290   33.3010 C   0  0  0  0  0  0  0  0  0  0  0  0
   39.3150   22.2770   32.3990 N   0  0  0  0  0  0  0  0  0  0  0  0
   39.8800   23.4310   32.7460 C   0  0  0  0  0  0  0  0  0  0  0  0
   39.7910   23.9510   33.9850 N   0  0  0  0  0  0  0  0  0  0  0  0
   41.0740   22.8110   37.0880 C   0  0  0  0  0  0  0  0  0  0  0  0
   41.1780   21.4550   37.4250 C   0  0  0  0  0  0  0  0  0  0  0  0
   42.4240   21.0300   37.0010 C   0  0  0  0  0  0  0  0  0  0  0  0
   43.0160   22.1490   36.4270 C   0  0  0  0  0  0  0  0  0  0  0  0
   42.2020   23.1650   36.4940 O   0  0  0  0  0  0  0  0  0  0  0  0
   44.3680   22.0480   35.8640 C   0  0  0  0  0  0  0  0  0  0  0  0
   45.2650   22.8250   35.2550 N   0  0  0  0  0  0  0  0  0  0  0  0
   46.3170   22.0820   35.0030 O   0  0  0  0  0  0  0  0  0  0  0  0
   46.1450   20.8610   35.4180 C   0  0  0  0  0  0  0  0  0  0  0  0
   44.9090   20.8110   35.9720 N   0  0  0  0  0  0  0  0  0  0  0  0
   38.3465   25.7407   36.7983 H   0  0  0  0  0  0  0  0  0  0  0  0
   37.0684   24.7486   36.1563 H   0  0  0  0  0  0  0  0  0  0  0  0
   37.8225   24.9177   38.9099 H   0  0  0  0  0  0  0  0  0  0  0  0
   36.8220   23.6158   38.2546 H   0  0  0  0  0  0  0  0  0  0  0  0
   39.3580   23.2190   39.3787 H   0  0  0  0  0  0  0  0  0  0  0  0
   38.6862   22.0937   38.2377 H   0  0  0  0  0  0  0  0  0  0  0  0
   40.4718   24.5727   37.6449 H   0  0  0  0  0  0  0  0  0  0  0  0
   37.8970   21.4602   35.3614 H   0  0  0  0  0  0  0  0  0  0  0  0
   38.1295   20.5759   33.0050 H   0  0  0  0  0  0  0  0  0  0  0  0
   40.4467   23.9866   31.9843 H   0  0  0  0  0  0  0  0  0  0  0  0
   40.4146   20.8451   37.9302 H   0  0  0  0  0  0  0  0  0  0  0  0
   42.8543   20.0223   37.0974 H   0  0  0  0  0  0  0  0  0  0  0  0
   46.8625   20.0313   35.3354 H   0  0  0  0  0  0  0  0  0  0  0  0
  1  2  1  0
  1  5  1  0
  2  3  1  0
  3  4  1  0
  5  4  1  0
  6  1  1  0
  7  6  2  0
  8  7  1  0
  9 10  1  0
  9  8  2  0
 10 11  2  0
 11  6  1  0
 12  5  1  0
 12 13  2  0
 14 13  1  0
 15 16  1  0
 15 14  2  0
 16 12  1  0
 17 21  1  0
 17 15  1  0
 18 17  2  0
 19 18  1  0
 19 20  1  0
 20 21  2  0
  2 22  1  0
  2 23  1  0
  3 24  1  0
  3 25  1  0
  4 26  1  0
  4 27  1  0
  5 28  1  1
  7 29  1  0
  8 30  1  0
 10 31  1  0
 13 32  1  0
 14 33  1  0
 20 34  1  0
M  ISO  8  22  13  23  13  24  13  25  13  26  13  27  13  28  13  29  14
M  ISO  5  30  14  31  14  32  14  33  14  34  14
M  END
>  <minimizedAffinity>  (1) 
-3.90745211

>  <minimizedRMSD>  (1) 
1.38570523

$$$$
