
     RDKit          3D

 30 32  0  0  1  0  0  0  0  0999 V2000
   38.5870   23.8600   36.3030 N   0  0  0  0  0  0  0  0  0  0  0  0
   37.7320   24.7920   37.0240 C   0  0  0  0  0  0  0  0  0  0  0  0
   37.8470   24.2560   38.4590 C   0  0  0  0  0  0  0  0  0  0  0  0
   38.9680   23.2400   38.4200 C   0  0  0  0  0  0  0  0  0  0  0  0
   39.7290   23.7070   37.2160 C   0  0  1  0  0  0  0  0  0  0  0  0
   38.3630   23.2600   35.0310 C   0  0  0  0  0  0  0  0  0  0  0  0
   37.7450   22.0060   34.9040 C   0  0  0  0  0  0  0  0  0  0  0  0
   37.5680   21.4930   33.6210 C   0  0  0  0  0  0  0  0  0  0  0  0
   38.0100   22.2490   32.5560 N   0  0  0  0  0  0  0  0  0  0  0  0
   38.5900   23.4320   32.7330 C   0  0  0  0  0  0  0  0  0  0  0  0
   38.7860   23.9750   33.9490 N   0  0  0  0  0  0  0  0  0  0  0  0
   40.7690   22.8110   36.7390 C   0  0  0  0  0  0  0  0  0  0  0  0
   41.1230   21.5880   37.3260 C   0  0  0  0  0  0  0  0  0  0  0  0
   42.1490   21.0660   36.5560 C   0  0  0  0  0  0  0  0  0  0  0  0
   42.3640   21.9970   35.5460 C   0  0  0  0  0  0  0  0  0  0  0  0
   41.5420   23.0000   35.6840 O   0  0  0  0  0  0  0  0  0  0  0  0
   43.5980   21.8260   34.2470 S   0  0  0  0  0  0  0  0  0  0  0  0
   38.1064   25.8235   36.9480 H   0  0  0  0  0  0  0  0  0  0  0  0
   36.7012   24.8448   36.6437 H   0  0  0  0  0  0  0  0  0  0  0  0
   38.0907   25.0714   39.1560 H   0  0  0  0  0  0  0  0  0  0  0  0
   36.9031   23.8105   38.8061 H   0  0  0  0  0  0  0  0  0  0  0  0
   39.5845   23.2824   39.3300 H   0  0  0  0  0  0  0  0  0  0  0  0
   38.6326   22.1936   38.3690 H   0  0  0  0  0  0  0  0  0  0  0  0
   40.3474   24.6028   37.3748 H   0  0  0  0  0  0  0  0  0  0  0  0
   37.4109   21.4460   35.7899 H   0  0  0  0  0  0  0  0  0  0  0  0
   37.0903   20.5149   33.4624 H   0  0  0  0  0  0  0  0  0  0  0  0
   38.9244   23.9916   31.8470 H   0  0  0  0  0  0  0  0  0  0  0  0
   40.6744   21.1329   38.2214 H   0  0  0  0  0  0  0  0  0  0  0  0
   42.6812   20.1158   36.7108 H   0  0  0  0  0  0  0  0  0  0  0  0
   44.8345   21.6547   34.8115 H   0  0  0  0  0  0  0  0  0  0  0  0
  1  2  1  0
  1  5  1  0
  2  3  1  0
  4  3  1  0
  5  4  1  0
  6  1  1  0
  7  6  2  0
  8  7  1  0
  9 10  1  0
  9  8  2  0
 10 11  2  0
 11  6  1  0
 12  5  1  0
 12 13  2  0
 14 13  1  0
 15 16  1  0
 15 14  2  0
 16 12  1  0
 17 15  1  0
  2 18  1  0
  2 19  1  0
  3 20  1  0
  3 21  1  0
  4 22  1  0
  4 23  1  0
  5 24  1  1
  7 25  1  0
  8 26  1  0
 10 27  1  0
 13 28  1  0
 14 29  1  0
 17 30  1  0
M  ISO  8  18  13  19  13  20  13  21  13  22  13  23  13  24  13  25  14
M  ISO  5  26  14  27  14  28  14  29  14  30  11
M  END
>  <minimizedAffinity>  (1) 
-3.88705206

>  <minimizedRMSD>  (1) 
0.0737889037

$$$$
