
     RDKit          3D

 31 33  0  0  1  0  0  0  0  0999 V2000
   38.5260   23.8880   36.3360 N   0  0  0  0  0  0  0  0  0  0  0  0
   37.6900   24.7990   37.0980 C   0  0  0  0  0  0  0  0  0  0  0  0
   37.8540   24.2440   38.5150 C   0  0  0  0  0  0  0  0  0  0  0  0
   38.9700   23.2310   38.4330 C   0  0  0  0  0  0  0  0  0  0  0  0
   39.6920   23.7090   37.2090 C   0  0  1  0  0  0  0  0  0  0  0  0
   38.2780   23.3110   35.0570 C   0  0  0  0  0  0  0  0  0  0  0  0
   37.7320   22.0250   34.9300 C   0  0  0  0  0  0  0  0  0  0  0  0
   37.5160   21.5240   33.6460 C   0  0  0  0  0  0  0  0  0  0  0  0
   37.8570   22.3350   32.5830 N   0  0  0  0  0  0  0  0  0  0  0  0
   38.3740   23.5510   32.7610 C   0  0  0  0  0  0  0  0  0  0  0  0
   38.6000   24.0750   33.9740 N   0  0  0  0  0  0  0  0  0  0  0  0
   40.7210   22.8300   36.6960 C   0  0  0  0  0  0  0  0  0  0  0  0
   41.1190   21.6200   37.2780 C   0  0  0  0  0  0  0  0  0  0  0  0
   42.1170   21.0960   36.4840 C   0  0  0  0  0  0  0  0  0  0  0  0
   42.2800   22.0130   35.4540 C   0  0  0  0  0  0  0  0  0  0  0  0
   41.4510   23.0080   35.6090 O   0  0  0  0  0  0  0  0  0  0  0  0
   43.2540   21.8260   34.3840 C   0  0  0  0  0  0  0  0  0  0  0  0
   44.2270   21.0520   34.5690 O   0  0  0  0  0  0  0  0  0  0  0  0
   38.0541   25.8345   37.0267 H   0  0  0  0  0  0  0  0  0  0  0  0
   36.6470   24.8488   36.7520 H   0  0  0  0  0  0  0  0  0  0  0  0
   38.1195   25.0507   39.2141 H   0  0  0  0  0  0  0  0  0  0  0  0
   36.9217   23.7906   38.8827 H   0  0  0  0  0  0  0  0  0  0  0  0
   39.6150   23.2660   39.3233 H   0  0  0  0  0  0  0  0  0  0  0  0
   38.6335   22.1848   38.3845 H   0  0  0  0  0  0  0  0  0  0  0  0
   40.3187   24.6009   37.3564 H   0  0  0  0  0  0  0  0  0  0  0  0
   37.4809   21.4277   35.8189 H   0  0  0  0  0  0  0  0  0  0  0  0
   37.0907   20.5221   33.4873 H   0  0  0  0  0  0  0  0  0  0  0  0
   38.6261   24.1504   31.8738 H   0  0  0  0  0  0  0  0  0  0  0  0
   40.7118   21.1717   38.1963 H   0  0  0  0  0  0  0  0  0  0  0  0
   42.6658   20.1546   36.6341 H   0  0  0  0  0  0  0  0  0  0  0  0
   43.1383   22.3559   33.4270 H   0  0  0  0  0  0  0  0  0  0  0  0
  1  2  1  0
  1  5  1  0
  2  3  1  0
  4  3  1  0
  5  4  1  0
  6  1  1  0
  7  6  2  0
  8  7  1  0
  9 10  1  0
  9  8  2  0
 10 11  2  0
 11  6  1  0
 12  5  1  0
 12 13  2  0
 14 13  1  0
 15 16  1  0
 15 14  2  0
 16 12  1  0
 17 18  2  0
 17 15  1  0
  2 19  1  0
  2 20  1  0
  3 21  1  0
  3 22  1  0
  4 23  1  0
  4 24  1  0
  5 25  1  1
  7 26  1  0
  8 27  1  0
 10 28  1  0
 13 29  1  0
 14 30  1  0
 17 31  1  0
M  ISO  8  19  13  20  13  21  13  22  13  23  13  24  13  25  13  26  14
M  ISO  5  27  14  28  14  29  14  30  14  31   6
M  END
>  <minimizedAffinity>  (1) 
-3.80433035

>  <minimizedRMSD>  (1) 
0.413133115

$$$$
