
     RDKit          3D

 49 53  0  0  1  0  0  0  0  0999 V2000
   40.7070   24.1730   34.1890 C   0  0  0  0  0  0  0  0  0  0  0  0
   40.8030   25.5770   34.2910 C   0  0  0  0  0  0  0  0  0  0  0  0
   42.0620   25.8450   34.8030 C   0  0  0  0  0  0  0  0  0  0  0  0
   42.6580   24.5950   34.9830 C   0  0  0  0  0  0  0  0  0  0  0  0
   41.8300   23.6500   34.6120 O   0  0  0  0  0  0  0  0  0  0  0  0
   38.5940   23.0570   34.7640 N   0  0  0  0  0  0  0  0  0  0  0  0
   37.5690   22.3480   33.9960 C   0  0  0  0  0  0  0  0  0  0  0  0
   37.4180   23.2520   32.7750 C   0  0  0  0  0  0  0  0  0  0  0  0
   38.5970   24.2050   32.8440 C   0  0  0  0  0  0  0  0  0  0  0  0
   39.5500   23.4690   33.6990 C   0  0  1  0  0  0  0  0  0  0  0  0
   38.6480   23.2810   36.1670 C   0  0  0  0  0  0  0  0  0  0  0  0
   37.7750   24.1600   36.8030 C   0  0  0  0  0  0  0  0  0  0  0  0
   37.9080   24.3160   38.1820 C   0  0  0  0  0  0  0  0  0  0  0  0
   38.9000   23.5860   38.8240 N   0  0  0  0  0  0  0  0  0  0  0  0
   39.7110   22.7560   38.1620 C   0  0  0  0  0  0  0  0  0  0  0  0
   39.6190   22.5750   36.8330 N   0  0  0  0  0  0  0  0  0  0  0  0
   44.0310   24.3740   35.5190 C   0  0  0  0  0  0  0  0  0  0  0  0
   44.5100   25.6800   36.1160 C   0  0  0  0  0  0  0  0  0  0  0  0
   45.2250   25.4980   37.3870 C   0  0  0  0  0  0  0  0  0  0  0  0
   44.7800   25.9350   38.6210 C   0  0  0  0  0  0  0  0  0  0  0  0
   45.6840   25.5950   39.5630 N   0  0  0  0  0  0  0  0  0  0  0  0
   46.6790   24.9550   38.9240 C   0  0  0  0  0  0  0  0  0  0  0  0
   47.8410   24.4060   39.4290 C   0  0  0  0  0  0  0  0  0  0  0  0
   48.7140   23.7940   38.5510 C   0  0  0  0  0  0  0  0  0  0  0  0
   48.4700   23.7100   37.1890 C   0  0  0  0  0  0  0  0  0  0  0  0
   47.3230   24.2540   36.7000 C   0  0  0  0  0  0  0  0  0  0  0  0
   46.4410   24.8680   37.5650 C   0  0  0  0  0  0  0  0  0  0  0  0
   40.0317   26.3123   34.0183 H   0  0  0  0  0  0  0  0  0  0  0  0
   42.4986   26.8309   35.0210 H   0  0  0  0  0  0  0  0  0  0  0  0
   37.9068   21.3409   33.7102 H   0  0  0  0  0  0  0  0  0  0  0  0
   36.6320   22.1820   34.5478 H   0  0  0  0  0  0  0  0  0  0  0  0
   36.4692   23.8068   32.8196 H   0  0  0  0  0  0  0  0  0  0  0  0
   37.4039   22.6793   31.8360 H   0  0  0  0  0  0  0  0  0  0  0  0
   39.0189   24.3891   31.8449 H   0  0  0  0  0  0  0  0  0  0  0  0
   38.3356   25.2002   33.2329 H   0  0  0  0  0  0  0  0  0  0  0  0
   40.0916   22.6738   33.1658 H   0  0  0  0  0  0  0  0  0  0  0  0
   37.0086   24.7110   36.2381 H   0  0  0  0  0  0  0  0  0  0  0  0
   37.2490   24.9949   38.7431 H   0  0  0  0  0  0  0  0  0  0  0  0
   40.4789   22.2027   38.7225 H   0  0  0  0  0  0  0  0  0  0  0  0
   44.0091   23.5939   36.2942 H   0  0  0  0  0  0  0  0  0  0  0  0
   44.7087   24.0466   34.7168 H   0  0  0  0  0  0  0  0  0  0  0  0
   45.1871   26.1667   35.3986 H   0  0  0  0  0  0  0  0  0  0  0  0
   43.6216   26.2953   36.3214 H   0  0  0  0  0  0  0  0  0  0  0  0
   43.8390   26.4739   38.8053 H   0  0  0  0  0  0  0  0  0  0  0  0
   45.6238   25.7878   40.5730 H   0  0  0  0  0  0  0  0  0  0  0  0
   48.0660   24.4549   40.5046 H   0  0  0  0  0  0  0  0  0  0  0  0
   49.6409   23.3552   38.9488 H   0  0  0  0  0  0  0  0  0  0  0  0
   49.1878   23.2146   36.5186 H   0  0  0  0  0  0  0  0  0  0  0  0
   47.1007   24.2047   35.6238 H   0  0  0  0  0  0  0  0  0  0  0  0
  1  2  2  0
  1  5  1  0
  2  3  1  0
  3  4  2  0
  4 17  1  0
  5  4  1  0
  6 11  1  0
  7  6  1  0
  8  9  1  0
  8  7  1  0
  9 10  1  0
 10  1  1  0
 10  6  1  0
 11 12  2  0
 11 16  1  0
 12 13  1  0
 13 14  2  0
 15 14  1  0
 16 15  2  0
 17 18  1  0
 18 19  1  0
 19 27  1  0
 19 20  2  0
 20 21  1  0
 22 23  2  0
 22 21  1  0
 24 23  1  0
 25 24  2  0
 26 25  1  0
 26 27  2  0
 27 22  1  0
  2 28  1  0
  3 29  1  0
  7 30  1  0
  7 31  1  0
  8 32  1  0
  8 33  1  0
  9 34  1  0
  9 35  1  0
 10 36  1  6
 12 37  1  0
 13 38  1  0
 15 39  1  0
 17 40  1  0
 17 41  1  0
 18 42  1  0
 18 43  1  0
 20 44  1  0
 21 45  1  0
 23 46  1  0
 24 47  1  0
 25 48  1  0
 26 49  1  0
M  ISO  8  28  14  29  14  30  13  31  13  32  13  33  13  34  13  35  13
M  ISO  8  36  13  37  14  38  14  39  14  40   8  41   8  42   8  43   8
M  ISO  6  44  14  45   9  46  14  47  14  48  14  49  14
M  END
>  <minimizedAffinity>  (1) 
-5.94501305

>  <minimizedRMSD>  (1) 
4.16074467

$$$$
