
     RDKit          3D

 45 48  0  0  1  0  0  0  0  0999 V2000
   40.9910   22.8920   37.0630 C   0  0  0  0  0  0  0  0  0  0  0  0
   41.1760   21.5250   37.3640 C   0  0  0  0  0  0  0  0  0  0  0  0
   42.4500   21.2010   36.9280 C   0  0  0  0  0  0  0  0  0  0  0  0
   42.9670   22.3740   36.3910 C   0  0  0  0  0  0  0  0  0  0  0  0
   42.0830   23.3360   36.4900 O   0  0  0  0  0  0  0  0  0  0  0  0
   38.8410   23.7210   36.2110 N   0  0  0  0  0  0  0  0  0  0  0  0
   37.7630   24.5410   36.7700 C   0  0  0  0  0  0  0  0  0  0  0  0
   37.6270   23.9600   38.1660 C   0  0  0  0  0  0  0  0  0  0  0  0
   38.8600   23.0880   38.3580 C   0  0  0  0  0  0  0  0  0  0  0  0
   39.7930   23.6390   37.3510 C   0  0  1  0  0  0  0  0  0  0  0  0
   38.9360   23.1600   34.9080 C   0  0  0  0  0  0  0  0  0  0  0  0
   38.3320   21.9480   34.5860 C   0  0  0  0  0  0  0  0  0  0  0  0
   38.4820   21.4760   33.2840 C   0  0  0  0  0  0  0  0  0  0  0  0
   39.2250   22.2470   32.3970 N   0  0  0  0  0  0  0  0  0  0  0  0
   39.7820   23.4010   32.7600 C   0  0  0  0  0  0  0  0  0  0  0  0
   39.6620   23.8950   34.0050 N   0  0  0  0  0  0  0  0  0  0  0  0
   44.3210   22.5010   35.7970 C   0  0  0  0  0  0  0  0  0  0  0  0
   44.5750   23.9870   35.5600 C   0  0  0  0  0  0  0  0  0  0  0  0
   45.2460   24.5070   36.8050 C   0  0  0  0  0  0  0  0  0  0  0  0
   44.5060   25.4050   37.5820 C   0  0  0  0  0  0  0  0  0  0  0  0
   45.0430   25.9310   38.7400 C   0  0  0  0  0  0  0  0  0  0  0  0
   46.3180   25.5640   39.1230 C   0  0  0  0  0  0  0  0  0  0  0  0
   47.0390   24.6660   38.3290 C   0  0  0  0  0  0  0  0  0  0  0  0
   46.5220   24.1280   37.1680 C   0  0  0  0  0  0  0  0  0  0  0  0
   40.4529   20.8520   37.8480 H   0  0  0  0  0  0  0  0  0  0  0  0
   42.9475   20.2221   36.9930 H   0  0  0  0  0  0  0  0  0  0  0  0
   38.0439   25.6040   36.8036 H   0  0  0  0  0  0  0  0  0  0  0  0
   36.8328   24.5162   36.1833 H   0  0  0  0  0  0  0  0  0  0  0  0
   37.6019   24.7632   38.9172 H   0  0  0  0  0  0  0  0  0  0  0  0
   36.6958   23.3864   38.2834 H   0  0  0  0  0  0  0  0  0  0  0  0
   39.2658   23.1897   39.3753 H   0  0  0  0  0  0  0  0  0  0  0  0
   38.6634   22.0126   38.2357 H   0  0  0  0  0  0  0  0  0  0  0  0
   40.2829   24.5710   37.6694 H   0  0  0  0  0  0  0  0  0  0  0  0
   37.7563   21.3826   35.3336 H   0  0  0  0  0  0  0  0  0  0  0  0
   38.0279   20.5252   32.9682 H   0  0  0  0  0  0  0  0  0  0  0  0
   40.3598   23.9693   32.0162 H   0  0  0  0  0  0  0  0  0  0  0  0
   45.0748   22.0958   36.4881 H   0  0  0  0  0  0  0  0  0  0  0  0
   44.3866   21.9394   34.8535 H   0  0  0  0  0  0  0  0  0  0  0  0
   45.2305   24.1267   34.6878 H   0  0  0  0  0  0  0  0  0  0  0  0
   43.6370   24.5249   35.3578 H   0  0  0  0  0  0  0  0  0  0  0  0
   43.4917   25.6932   37.2688 H   0  0  0  0  0  0  0  0  0  0  0  0
   44.4608   26.6358   39.3518 H   0  0  0  0  0  0  0  0  0  0  0  0
   46.7618   25.9734   40.0425 H   0  0  0  0  0  0  0  0  0  0  0  0
   48.0539   24.3785   38.6410 H   0  0  0  0  0  0  0  0  0  0  0  0
   47.1048   23.4242   36.5556 H   0  0  0  0  0  0  0  0  0  0  0  0
  1 10  1  0
  1  2  2  0
  3  2  1  0
  4  5  1  0
  4  3  2  0
  5  1  1  0
  6  7  1  0
  6 10  1  0
  7  8  1  0
  8  9  1  0
 10  9  1  0
 11  6  1  0
 12 11  2  0
 13 12  1  0
 14 15  1  0
 14 13  2  0
 15 16  2  0
 16 11  1  0
 17  4  1  0
 18 17  1  0
 18 19  1  0
 19 24  1  0
 19 20  2  0
 20 21  1  0
 21 22  2  0
 23 22  1  0
 24 23  2  0
  2 25  1  0
  3 26  1  0
  7 27  1  0
  7 28  1  0
  8 29  1  0
  8 30  1  0
  9 31  1  0
  9 32  1  0
 10 33  1  1
 12 34  1  0
 13 35  1  0
 15 36  1  0
 17 37  1  0
 17 38  1  0
 18 39  1  0
 18 40  1  0
 20 41  1  0
 21 42  1  0
 22 43  1  0
 23 44  1  0
 24 45  1  0
M  ISO  8  25  14  26  14  27  13  28  13  29  13  30  13  31  13  32  13
M  ISO  8  33  13  34  14  35  14  36  14  37   8  38   8  39   8  40   8
M  ISO  5  41  14  42  14  43  14  44  14  45  14
M  END
>  <minimizedAffinity>  (1) 
-5.6409502

>  <minimizedRMSD>  (1) 
1.97656441

$$$$
