
     RDKit          3D

 45 48  0  0  1  0  0  0  0  0999 V2000
   41.0340   22.8680   37.1180 C   0  0  0  0  0  0  0  0  0  0  0  0
   41.1850   21.4970   37.4210 C   0  0  0  0  0  0  0  0  0  0  0  0
   42.4160   21.1180   36.9080 C   0  0  0  0  0  0  0  0  0  0  0  0
   42.9420   22.2690   36.3250 C   0  0  0  0  0  0  0  0  0  0  0  0
   42.1030   23.2630   36.4720 O   0  0  0  0  0  0  0  0  0  0  0  0
   38.8910   23.8130   36.3760 N   0  0  0  0  0  0  0  0  0  0  0  0
   37.8740   24.6680   36.9980 C   0  0  0  0  0  0  0  0  0  0  0  0
   37.7800   24.0670   38.3940 C   0  0  0  0  0  0  0  0  0  0  0  0
   38.9700   23.1320   38.5050 C   0  0  0  0  0  0  0  0  0  0  0  0
   39.8870   23.6660   37.4730 C   0  0  1  0  0  0  0  0  0  0  0  0
   38.9030   23.2770   35.0580 C   0  0  0  0  0  0  0  0  0  0  0  0
   38.3200   22.0500   34.7610 C   0  0  0  0  0  0  0  0  0  0  0  0
   38.3870   21.6080   33.4390 C   0  0  0  0  0  0  0  0  0  0  0  0
   39.0310   22.4240   32.5160 N   0  0  0  0  0  0  0  0  0  0  0  0
   39.5730   23.5940   32.8580 C   0  0  0  0  0  0  0  0  0  0  0  0
   39.5320   24.0590   34.1200 N   0  0  0  0  0  0  0  0  0  0  0  0
   44.2580   22.3510   35.6400 C   0  0  0  0  0  0  0  0  0  0  0  0
   44.7300   23.7860   35.7270 C   0  0  0  0  0  0  0  0  0  0  0  0
   45.8030   23.9760   36.6820 N   0  0  0  0  0  0  0  0  0  0  0  0
   46.9460   23.2750   36.4410 C   0  0  0  0  0  0  0  0  0  0  0  0
   48.0180   23.4150   37.3270 C   0  0  0  0  0  0  0  0  0  0  0  0
   47.8110   24.2720   38.3880 C   0  0  0  0  0  0  0  0  0  0  0  0
   48.7890   24.3980   39.1940 O   0  0  0  0  0  0  0  0  0  0  0  0
   46.6810   24.9630   38.6230 N   0  0  0  0  0  0  0  0  0  0  0  0
   45.6650   24.8030   37.7460 C   0  0  0  0  0  0  0  0  0  0  0  0
   44.5720   25.3920   37.8630 O   0  0  0  0  0  0  0  0  0  0  0  0
   40.4686   20.8572   37.9572 H   0  0  0  0  0  0  0  0  0  0  0  0
   42.8788   20.1211   36.9519 H   0  0  0  0  0  0  0  0  0  0  0  0
   38.2000   25.7180   37.0342 H   0  0  0  0  0  0  0  0  0  0  0  0
   36.9172   24.6917   36.4559 H   0  0  0  0  0  0  0  0  0  0  0  0
   37.8366   24.8560   39.1584 H   0  0  0  0  0  0  0  0  0  0  0  0
   36.8271   23.5406   38.5519 H   0  0  0  0  0  0  0  0  0  0  0  0
   39.4239   23.1818   39.5057 H   0  0  0  0  0  0  0  0  0  0  0  0
   38.7129   22.0723   38.3605 H   0  0  0  0  0  0  0  0  0  0  0  0
   40.4319   24.5678   37.7890 H   0  0  0  0  0  0  0  0  0  0  0  0
   37.8246   21.4503   35.5388 H   0  0  0  0  0  0  0  0  0  0  0  0
   37.9453   20.6467   33.1376 H   0  0  0  0  0  0  0  0  0  0  0  0
   40.0691   24.1977   32.0838 H   0  0  0  0  0  0  0  0  0  0  0  0
   44.1515   22.0543   34.5861 H   0  0  0  0  0  0  0  0  0  0  0  0
   44.9842   21.6758   36.1161 H   0  0  0  0  0  0  0  0  0  0  0  0
   45.0861   24.0979   34.7341 H   0  0  0  0  0  0  0  0  0  0  0  0
   43.8771   24.3910   36.0683 H   0  0  0  0  0  0  0  0  0  0  0  0
   47.0237   22.6121   35.5667 H   0  0  0  0  0  0  0  0  0  0  0  0
   48.9666   22.8760   37.1871 H   0  0  0  0  0  0  0  0  0  0  0  0
   46.5937   25.5878   39.4371 H   0  0  0  0  0  0  0  0  0  0  0  0
  1  2  2  0
  1 10  1  0
  3  2  1  0
  4  5  1  0
  4  3  2  0
  5  1  1  0
  6  7  1  0
  6 10  1  0
  7  8  1  0
  8  9  1  0
 10  9  1  0
 11  6  1  0
 12 11  2  0
 13 12  1  0
 14 15  1  0
 14 13  2  0
 15 16  2  0
 16 11  1  0
 17 18  1  0
 17  4  1  0
 18 19  1  0
 19 25  1  0
 20 19  1  0
 20 21  2  0
 21 22  1  0
 22 24  1  0
 22 23  2  0
 25 26  2  0
 25 24  1  0
  2 27  1  0
  3 28  1  0
  7 29  1  0
  7 30  1  0
  8 31  1  0
  8 32  1  0
  9 33  1  0
  9 34  1  0
 10 35  1  1
 12 36  1  0
 13 37  1  0
 15 38  1  0
 17 39  1  0
 17 40  1  0
 18 41  1  0
 18 42  1  0
 20 43  1  0
 21 44  1  0
 24 45  1  0
M  ISO  8  27  14  28  14  29  13  30  13  31  13  32  13  33  13  34  13
M  ISO  8  35  13  36  14  37  14  38  14  39   8  40   8  41   8  42   8
M  ISO  3  43  14  44  14  45   9
M  END
>  <minimizedAffinity>  (1) 
-4.98284769

>  <minimizedRMSD>  (1) 
1.74044013

$$$$
