
     RDKit          3D

 42 45  0  0  1  0  0  0  0  0999 V2000
   38.8230   23.7180   36.2420 N   0  0  0  0  0  0  0  0  0  0  0  0
   37.7100   24.4900   36.8010 C   0  0  0  0  0  0  0  0  0  0  0  0
   37.5860   23.8890   38.1910 C   0  0  0  0  0  0  0  0  0  0  0  0
   38.8530   23.0720   38.3870 C   0  0  0  0  0  0  0  0  0  0  0  0
   39.7700   23.6670   37.3870 C   0  0  1  0  0  0  0  0  0  0  0  0
   38.9460   23.1740   34.9350 C   0  0  0  0  0  0  0  0  0  0  0  0
   38.3700   21.9550   34.5890 C   0  0  0  0  0  0  0  0  0  0  0  0
   38.5500   21.5040   33.2820 C   0  0  0  0  0  0  0  0  0  0  0  0
   39.2880   22.3010   32.4170 N   0  0  0  0  0  0  0  0  0  0  0  0
   39.8170   23.4610   32.8050 C   0  0  0  0  0  0  0  0  0  0  0  0
   39.6710   23.9370   34.0540 N   0  0  0  0  0  0  0  0  0  0  0  0
   40.9950   22.9590   37.1040 C   0  0  0  0  0  0  0  0  0  0  0  0
   41.1890   21.5740   37.2860 C   0  0  0  0  0  0  0  0  0  0  0  0
   42.4900   21.3080   36.8960 C   0  0  0  0  0  0  0  0  0  0  0  0
   43.0160   22.5420   36.4970 C   0  0  0  0  0  0  0  0  0  0  0  0
   42.1090   23.4680   36.6360 O   0  0  0  0  0  0  0  0  0  0  0  0
   44.3960   22.7360   35.9960 C   0  0  0  0  0  0  0  0  0  0  0  0
   44.6140   24.2420   35.8600 C   0  0  0  0  0  0  0  0  0  0  0  0
   45.2970   24.6920   37.1190 C   0  0  0  0  0  0  0  0  0  0  0  0
   44.7880   25.5310   38.0830 C   0  0  0  0  0  0  0  0  0  0  0  0
   45.7590   25.6670   39.0580 C   0  0  0  0  0  0  0  0  0  0  0  0
   46.8100   24.9240   38.6680 N   0  0  0  0  0  0  0  0  0  0  0  0
   46.5440   24.3340   37.5070 N   0  0  0  0  0  0  0  0  0  0  0  0
   37.9495   25.5626   36.8478 H   0  0  0  0  0  0  0  0  0  0  0  0
   36.7859   24.4356   36.2068 H   0  0  0  0  0  0  0  0  0  0  0  0
   37.5177   24.6826   38.9496 H   0  0  0  0  0  0  0  0  0  0  0  0
   36.6801   23.2734   38.2932 H   0  0  0  0  0  0  0  0  0  0  0  0
   39.2474   23.1871   39.4074 H   0  0  0  0  0  0  0  0  0  0  0  0
   38.7036   21.9898   38.2587 H   0  0  0  0  0  0  0  0  0  0  0  0
   40.2207   24.6172   37.7096 H   0  0  0  0  0  0  0  0  0  0  0  0
   37.7938   21.3688   35.3200 H   0  0  0  0  0  0  0  0  0  0  0  0
   38.1213   20.5479   32.9470 H   0  0  0  0  0  0  0  0  0  0  0  0
   40.3939   24.0504   32.0771 H   0  0  0  0  0  0  0  0  0  0  0  0
   40.4525   20.8491   37.6630 H   0  0  0  0  0  0  0  0  0  0  0  0
   43.0016   20.3342   36.8990 H   0  0  0  0  0  0  0  0  0  0  0  0
   45.1195   22.3123   36.7081 H   0  0  0  0  0  0  0  0  0  0  0  0
   44.5377   22.2299   35.0297 H   0  0  0  0  0  0  0  0  0  0  0  0
   45.2478   24.4564   34.9869 H   0  0  0  0  0  0  0  0  0  0  0  0
   43.6596   24.7696   35.7162 H   0  0  0  0  0  0  0  0  0  0  0  0
   43.7952   26.0046   38.0790 H   0  0  0  0  0  0  0  0  0  0  0  0
   45.6859   26.2677   39.9766 H   0  0  0  0  0  0  0  0  0  0  0  0
   47.6914   24.8265   39.1919 H   0  0  0  0  0  0  0  0  0  0  0  0
  1  2  1  0
  1  5  1  0
  2  3  1  0
  3  4  1  0
  5  4  1  0
  6  1  1  0
  7  6  2  0
  8  7  1  0
  9 10  1  0
  9  8  2  0
 10 11  2  0
 11  6  1  0
 12 13  2  0
 12  5  1  0
 14 13  1  0
 15 16  1  0
 15 14  2  0
 16 12  1  0
 17 15  1  0
 18 17  1  0
 18 19  1  0
 19 23  2  0
 19 20  1  0
 20 21  2  0
 22 21  1  0
 23 22  1  0
  2 24  1  0
  2 25  1  0
  3 26  1  0
  3 27  1  0
  4 28  1  0
  4 29  1  0
  5 30  1  1
  7 31  1  0
  8 32  1  0
 10 33  1  0
 13 34  1  0
 14 35  1  0
 17 36  1  0
 17 37  1  0
 18 38  1  0
 18 39  1  0
 20 40  1  0
 21 41  1  0
 22 42  1  0
M  ISO  8  24  13  25  13  26  13  27  13  28  13  29  13  30  13  31  14
M  ISO  8  32  14  33  14  34  14  35  14  36   8  37   8  38   8  39   8
M  ISO  3  40  14  41  14  42   9
M  END
>  <minimizedAffinity>  (1) 
-4.96363926

>  <minimizedRMSD>  (1) 
1.78868723

$$$$
