
     RDKit          3D

 42 44  0  0  1  0  0  0  0  0999 V2000
   39.0460   23.8130   36.1820 N   0  0  0  0  0  0  0  0  0  0  0  0
   37.9980   24.6830   36.7270 C   0  0  0  0  0  0  0  0  0  0  0  0
   37.7760   24.0590   38.1010 C   0  0  0  0  0  0  0  0  0  0  0  0
   38.9520   23.1350   38.3170 C   0  0  0  0  0  0  0  0  0  0  0  0
   39.9460   23.6570   37.3550 C   0  0  1  0  0  0  0  0  0  0  0  0
   39.1560   23.2750   34.8720 C   0  0  0  0  0  0  0  0  0  0  0  0
   38.6250   22.0340   34.5370 C   0  0  0  0  0  0  0  0  0  0  0  0
   38.7880   21.5880   33.2280 C   0  0  0  0  0  0  0  0  0  0  0  0
   39.4670   22.4090   32.3450 N   0  0  0  0  0  0  0  0  0  0  0  0
   39.9610   23.6010   32.7200 C   0  0  0  0  0  0  0  0  0  0  0  0
   39.8270   24.0710   33.9750 N   0  0  0  0  0  0  0  0  0  0  0  0
   41.1130   22.8560   37.0910 C   0  0  0  0  0  0  0  0  0  0  0  0
   41.2200   21.4760   37.3600 C   0  0  0  0  0  0  0  0  0  0  0  0
   42.4870   21.0900   36.9640 C   0  0  0  0  0  0  0  0  0  0  0  0
   43.0800   22.2520   36.4760 C   0  0  0  0  0  0  0  0  0  0  0  0
   42.2510   23.2460   36.5700 O   0  0  0  0  0  0  0  0  0  0  0  0
   44.4610   22.3260   35.9300 C   0  0  0  0  0  0  0  0  0  0  0  0
   44.8600   23.7980   35.9110 C   0  0  0  0  0  0  0  0  0  0  0  0
   45.1070   24.2660   37.2710 N   0  0  0  0  0  0  0  0  0  0  0  0
   44.8470   25.6300   37.6710 C   0  0  0  0  0  0  0  0  0  0  0  0
   44.7630   26.4100   36.6540 N   0  0  0  0  0  0  0  0  0  0  0  0
   44.7050   26.0350   39.0280 N   0  0  0  0  0  0  0  0  0  0  0  0
   44.5830   27.4230   36.6430 H   0  0  0  0  0  0  0  0  0  0  0  0
   38.3416   25.7248   36.8086 H   0  0  0  0  0  0  0  0  0  0  0  0
   37.0917   24.7396   36.1062 H   0  0  0  0  0  0  0  0  0  0  0  0
   37.7506   24.8375   38.8777 H   0  0  0  0  0  0  0  0  0  0  0  0
   36.8179   23.5214   38.1561 H   0  0  0  0  0  0  0  0  0  0  0  0
   39.3251   23.2003   39.3497 H   0  0  0  0  0  0  0  0  0  0  0  0
   38.7100   22.0726   38.1663 H   0  0  0  0  0  0  0  0  0  0  0  0
   40.4681   24.5560   37.7145 H   0  0  0  0  0  0  0  0  0  0  0  0
   38.0932   21.4243   35.2823 H   0  0  0  0  0  0  0  0  0  0  0  0
   38.3898   20.6144   32.9062 H   0  0  0  0  0  0  0  0  0  0  0  0
   40.4927   24.2135   31.9770 H   0  0  0  0  0  0  0  0  0  0  0  0
   40.4450   20.8311   37.8000 H   0  0  0  0  0  0  0  0  0  0  0  0
   42.9300   20.0848   37.0217 H   0  0  0  0  0  0  0  0  0  0  0  0
   45.1506   21.7568   36.5707 H   0  0  0  0  0  0  0  0  0  0  0  0
   44.5045   21.8965   34.9183 H   0  0  0  0  0  0  0  0  0  0  0  0
   45.7746   23.9198   35.3122 H   0  0  0  0  0  0  0  0  0  0  0  0
   44.0433   24.3877   35.4691 H   0  0  0  0  0  0  0  0  0  0  0  0
   45.4781   23.6037   37.9672 H   0  0  0  0  0  0  0  0  0  0  0  0
   44.5201   27.0227   39.2540 H   0  0  0  0  0  0  0  0  0  0  0  0
   44.7872   25.3404   39.7841 H   0  0  0  0  0  0  0  0  0  0  0  0
  1  2  1  0
  1  5  1  0
  2  3  1  0
  3  4  1  0
  5  4  1  0
  6  1  1  0
  7  6  2  0
  8  7  1  0
  9 10  1  0
  9  8  2  0
 10 11  2  0
 11  6  1  0
 12  5  1  0
 12 13  2  0
 14 13  1  0
 15 16  1  0
 15 14  2  0
 16 12  1  0
 17 15  1  0
 18 17  1  0
 18 19  1  0
 19 20  1  0
 20 22  1  0
 21 20  2  0
 23 21  1  0
  2 24  1  0
  2 25  1  0
  3 26  1  0
  3 27  1  0
  4 28  1  0
  4 29  1  0
  5 30  1  1
  7 31  1  0
  8 32  1  0
 10 33  1  0
 13 34  1  0
 14 35  1  0
 17 36  1  0
 17 37  1  0
 18 38  1  0
 18 39  1  0
 19 40  1  0
 22 41  1  0
 22 42  1  0
M  ISO  8  24  13  25  13  26  13  27  13  28  13  29  13  30  13  31  14
M  ISO  8  32  14  33  14  34  14  35  14  36   8  37   8  38   8  39   8
M  END
>  <minimizedAffinity>  (1) 
-4.7710638

>  <minimizedRMSD>  (1) 
1.83340394

$$$$
