
     RDKit          3D

 48 51  0  0  1  0  0  0  0  0999 V2000
   38.8080   23.7220   36.2300 N   0  0  0  0  0  0  0  0  0  0  0  0
   37.7280   24.5170   36.8170 C   0  0  0  0  0  0  0  0  0  0  0  0
   37.5860   23.8980   38.1960 C   0  0  0  0  0  0  0  0  0  0  0  0
   38.8400   23.0500   38.3810 C   0  0  0  0  0  0  0  0  0  0  0  0
   39.7500   23.6520   37.3780 C   0  0  1  0  0  0  0  0  0  0  0  0
   38.9210   23.1760   34.9300 C   0  0  0  0  0  0  0  0  0  0  0  0
   38.3350   21.9540   34.5820 C   0  0  0  0  0  0  0  0  0  0  0  0
   38.5100   21.5090   33.2710 C   0  0  0  0  0  0  0  0  0  0  0  0
   39.2440   22.2940   32.4070 N   0  0  0  0  0  0  0  0  0  0  0  0
   39.7920   23.4670   32.7870 C   0  0  0  0  0  0  0  0  0  0  0  0
   39.6480   23.9340   34.0420 N   0  0  0  0  0  0  0  0  0  0  0  0
   40.9770   22.9250   37.0870 C   0  0  0  0  0  0  0  0  0  0  0  0
   41.1640   21.5440   37.2760 C   0  0  0  0  0  0  0  0  0  0  0  0
   42.4570   21.2630   36.8770 C   0  0  0  0  0  0  0  0  0  0  0  0
   42.9880   22.4680   36.4670 C   0  0  0  0  0  0  0  0  0  0  0  0
   42.0980   23.4170   36.6040 O   0  0  0  0  0  0  0  0  0  0  0  0
   44.3720   22.6960   35.9370 C   0  0  0  0  0  0  0  0  0  0  0  0
   44.4990   24.1480   35.5860 C   0  0  0  0  0  0  0  0  0  0  0  0
   45.4000   24.9010   36.4020 N   0  0  0  0  0  0  0  0  0  0  0  0
   46.7760   24.5120   36.2460 C   0  0  0  0  0  0  0  0  0  0  0  0
   47.3730   23.9880   37.5080 C   0  0  0  0  0  0  0  0  0  0  0  0
   47.3190   25.0090   38.4470 O   0  0  0  0  0  0  0  0  0  0  0  0
   46.0630   25.4480   38.7200 C   0  0  0  0  0  0  0  0  0  0  0  0
   44.9870   25.0870   37.7540 C   0  0  0  0  0  0  0  0  0  0  0  0
   38.0057   25.5793   36.8835 H   0  0  0  0  0  0  0  0  0  0  0  0
   36.7987   24.5015   36.2286 H   0  0  0  0  0  0  0  0  0  0  0  0
   37.5317   24.6807   38.9670 H   0  0  0  0  0  0  0  0  0  0  0  0
   36.6669   23.3006   38.2873 H   0  0  0  0  0  0  0  0  0  0  0  0
   39.2439   23.1458   39.3997 H   0  0  0  0  0  0  0  0  0  0  0  0
   38.6764   21.9702   38.2493 H   0  0  0  0  0  0  0  0  0  0  0  0
   40.1978   24.6021   37.7048 H   0  0  0  0  0  0  0  0  0  0  0  0
   37.7592   21.3673   35.3129 H   0  0  0  0  0  0  0  0  0  0  0  0
   38.0737   20.5566   32.9355 H   0  0  0  0  0  0  0  0  0  0  0  0
   40.3683   24.0540   32.0567 H   0  0  0  0  0  0  0  0  0  0  0  0
   40.4256   20.8276   37.6653 H   0  0  0  0  0  0  0  0  0  0  0  0
   42.9577   20.2836   36.8848 H   0  0  0  0  0  0  0  0  0  0  0  0
   45.1142   22.4309   36.7044 H   0  0  0  0  0  0  0  0  0  0  0  0
   44.5497   22.0708   35.0495 H   0  0  0  0  0  0  0  0  0  0  0  0
   44.8471   24.2160   34.5447 H   0  0  0  0  0  0  0  0  0  0  0  0
   43.5038   24.5870   35.7498 H   0  0  0  0  0  0  0  0  0  0  0  0
   46.8349   23.7278   35.4768 H   0  0  0  0  0  0  0  0  0  0  0  0
   47.3439   25.4088   35.9574 H   0  0  0  0  0  0  0  0  0  0  0  0
   46.7991   23.1195   37.8633 H   0  0  0  0  0  0  0  0  0  0  0  0
   48.4119   23.6666   37.3425 H   0  0  0  0  0  0  0  0  0  0  0  0
   45.7766   25.0406   39.7008 H   0  0  0  0  0  0  0  0  0  0  0  0
   46.1305   26.5448   38.6702 H   0  0  0  0  0  0  0  0  0  0  0  0
   44.2366   25.8912   37.7695 H   0  0  0  0  0  0  0  0  0  0  0  0
   44.6052   24.1101   38.0855 H   0  0  0  0  0  0  0  0  0  0  0  0
  1  2  1  0
  1  5  1  0
  2  3  1  0
  3  4  1  0
  5  4  1  0
  6  1  1  0
  7  6  2  0
  8  7  1  0
  9 10  1  0
  9  8  2  0
 10 11  2  0
 11  6  1  0
 12 13  2  0
 12  5  1  0
 14 13  1  0
 15 16  1  0
 15 14  2  0
 16 12  1  0
 17 15  1  0
 18 17  1  0
 18 19  1  0
 19 24  1  0
 20 19  1  0
 20 21  1  0
 21 22  1  0
 22 23  1  0
 24 23  1  0
  2 25  1  0
  2 26  1  0
  3 27  1  0
  3 28  1  0
  4 29  1  0
  4 30  1  0
  5 31  1  1
  7 32  1  0
  8 33  1  0
 10 34  1  0
 13 35  1  0
 14 36  1  0
 17 37  1  0
 17 38  1  0
 18 39  1  0
 18 40  1  0
 20 41  1  0
 20 42  1  0
 21 43  1  0
 21 44  1  0
 23 45  1  0
 23 46  1  0
 24 47  1  0
 24 48  1  0
M  ISO  8  25  13  26  13  27  13  28  13  29  13  30  13  31  13  32  14
M  ISO  8  33  14  34  14  35  14  36  14  37   8  38   8  39   8  40   8
M  ISO  8  41  13  42  13  43  13  44  13  45  13  46  13  47  13  48  13
M  END
>  <minimizedAffinity>  (1) 
-4.63278961

>  <minimizedRMSD>  (1) 
1.44665241

$$$$
