
     RDKit          3D

 40 43  0  0  1  0  0  0  0  0999 V2000
   38.8000   23.7280   36.2670 N   0  0  0  0  0  0  0  0  0  0  0  0
   37.7110   24.5060   36.8460 C   0  0  0  0  0  0  0  0  0  0  0  0
   37.5750   23.8800   38.2220 C   0  0  0  0  0  0  0  0  0  0  0  0
   38.8270   23.0380   38.4040 C   0  0  0  0  0  0  0  0  0  0  0  0
   39.7440   23.6460   37.4150 C   0  0  1  0  0  0  0  0  0  0  0  0
   38.9150   23.1990   34.9520 C   0  0  0  0  0  0  0  0  0  0  0  0
   38.3560   21.9720   34.6030 C   0  0  0  0  0  0  0  0  0  0  0  0
   38.5250   21.5410   33.2890 C   0  0  0  0  0  0  0  0  0  0  0  0
   39.2360   22.3610   32.4220 N   0  0  0  0  0  0  0  0  0  0  0  0
   39.7520   23.5340   32.8160 C   0  0  0  0  0  0  0  0  0  0  0  0
   39.6140   23.9940   34.0740 N   0  0  0  0  0  0  0  0  0  0  0  0
   40.9610   22.9380   37.1160 C   0  0  0  0  0  0  0  0  0  0  0  0
   41.1700   21.5600   37.3280 C   0  0  0  0  0  0  0  0  0  0  0  0
   42.4600   21.2820   36.9110 C   0  0  0  0  0  0  0  0  0  0  0  0
   42.9700   22.5040   36.4640 C   0  0  0  0  0  0  0  0  0  0  0  0
   42.0670   23.4190   36.6060 O   0  0  0  0  0  0  0  0  0  0  0  0
   44.3330   22.7020   35.9180 C   0  0  0  0  0  0  0  0  0  0  0  0
   44.9060   23.9540   36.5170 C   0  0  0  0  0  0  0  0  0  0  0  0
   44.7830   25.1540   35.6830 C   0  0  0  0  0  0  0  0  0  0  0  0
   45.5390   26.2570   35.9590 N   0  0  0  0  0  0  0  0  0  0  0  0
   45.2740   27.2030   35.1080 O   0  0  0  0  0  0  0  0  0  0  0  0
   44.3720   26.7920   34.2650 C   0  0  0  0  0  0  0  0  0  0  0  0
   44.0730   25.5480   34.6140 N   0  0  0  0  0  0  0  0  0  0  0  0
   37.9740   25.5718   36.9157 H   0  0  0  0  0  0  0  0  0  0  0  0
   36.7844   24.4822   36.2537 H   0  0  0  0  0  0  0  0  0  0  0  0
   37.5187   24.6594   38.9962 H   0  0  0  0  0  0  0  0  0  0  0  0
   36.6588   23.2776   38.3102 H   0  0  0  0  0  0  0  0  0  0  0  0
   39.2242   23.1258   39.4260 H   0  0  0  0  0  0  0  0  0  0  0  0
   38.6649   21.9598   38.2587 H   0  0  0  0  0  0  0  0  0  0  0  0
   40.1975   24.5871   37.7596 H   0  0  0  0  0  0  0  0  0  0  0  0
   37.8027   21.3669   35.3362 H   0  0  0  0  0  0  0  0  0  0  0  0
   38.1085   20.5815   32.9487 H   0  0  0  0  0  0  0  0  0  0  0  0
   40.3073   24.1417   32.0864 H   0  0  0  0  0  0  0  0  0  0  0  0
   40.4468   20.8435   37.7447 H   0  0  0  0  0  0  0  0  0  0  0  0
   42.9732   20.3092   36.9278 H   0  0  0  0  0  0  0  0  0  0  0  0
   44.9665   21.8415   36.1792 H   0  0  0  0  0  0  0  0  0  0  0  0
   44.2921   22.7915   34.8224 H   0  0  0  0  0  0  0  0  0  0  0  0
   44.3876   24.1452   37.4681 H   0  0  0  0  0  0  0  0  0  0  0  0
   45.9843   23.7718   36.6355 H   0  0  0  0  0  0  0  0  0  0  0  0
   43.9426   27.3632   33.4287 H   0  0  0  0  0  0  0  0  0  0  0  0
  1  2  1  0
  1  5  1  0
  2  3  1  0
  3  4  1  0
  5  4  1  0
  6  1  1  0
  7  6  2  0
  8  7  1  0
  9 10  1  0
  9  8  2  0
 10 11  2  0
 11  6  1  0
 12 13  2  0
 12  5  1  0
 14 13  1  0
 15 16  1  0
 15 14  2  0
 16 12  1  0
 17 15  1  0
 17 18  1  0
 19 20  2  0
 19 18  1  0
 21 20  1  0
 22 23  2  0
 22 21  1  0
 23 19  1  0
  2 24  1  0
  2 25  1  0
  3 26  1  0
  3 27  1  0
  4 28  1  0
  4 29  1  0
  5 30  1  1
  7 31  1  0
  8 32  1  0
 10 33  1  0
 13 34  1  0
 14 35  1  0
 17 36  1  0
 17 37  1  0
 18 38  1  0
 18 39  1  0
 22 40  1  0
M  ISO  8  24  13  25  13  26  13  27  13  28  13  29  13  30  13  31  14
M  ISO  8  32  14  33  14  34  14  35  14  36   8  37   8  38   8  39   8
M  ISO  1  40  14
M  END
>  <minimizedAffinity>  (1) 
-4.37726641

>  <minimizedRMSD>  (1) 
0.630360186

$$$$
