
     RDKit          3D

 42 45  0  0  1  0  0  0  0  0999 V2000
   38.8250   23.7370   36.2730 N   0  0  0  0  0  0  0  0  0  0  0  0
   37.7470   24.5360   36.8480 C   0  0  0  0  0  0  0  0  0  0  0  0
   37.6160   23.9260   38.2410 C   0  0  0  0  0  0  0  0  0  0  0  0
   38.8420   23.0510   38.4080 C   0  0  0  0  0  0  0  0  0  0  0  0
   39.7680   23.6450   37.4190 C   0  0  1  0  0  0  0  0  0  0  0  0
   38.9300   23.2010   34.9580 C   0  0  0  0  0  0  0  0  0  0  0  0
   38.3550   21.9740   34.6240 C   0  0  0  0  0  0  0  0  0  0  0  0
   38.5170   21.5330   33.3100 C   0  0  0  0  0  0  0  0  0  0  0  0
   39.2330   22.3400   32.4360 N   0  0  0  0  0  0  0  0  0  0  0  0
   39.7610   23.5100   32.8180 C   0  0  0  0  0  0  0  0  0  0  0  0
   39.6360   23.9830   34.0730 N   0  0  0  0  0  0  0  0  0  0  0  0
   40.9760   22.9210   37.1200 C   0  0  0  0  0  0  0  0  0  0  0  0
   41.1710   21.5410   37.3340 C   0  0  0  0  0  0  0  0  0  0  0  0
   42.4570   21.2490   36.9150 C   0  0  0  0  0  0  0  0  0  0  0  0
   42.9820   22.4560   36.4680 C   0  0  0  0  0  0  0  0  0  0  0  0
   42.0890   23.3800   36.6080 O   0  0  0  0  0  0  0  0  0  0  0  0
   44.3440   22.6490   35.9180 C   0  0  0  0  0  0  0  0  0  0  0  0
   44.9110   23.9170   36.4980 C   0  0  0  0  0  0  0  0  0  0  0  0
   44.8030   25.0720   35.6670 N   0  0  0  0  0  0  0  0  0  0  0  0
   44.0500   25.5070   34.6910 N   0  0  0  0  0  0  0  0  0  0  0  0
   44.3900   26.7130   34.2440 C   0  0  0  0  0  0  0  0  0  0  0  0
   45.4680   27.1210   34.9880 C   0  0  0  0  0  0  0  0  0  0  0  0
   45.6990   26.0790   35.8620 C   0  0  0  0  0  0  0  0  0  0  0  0
   38.0212   25.6000   36.9007 H   0  0  0  0  0  0  0  0  0  0  0  0
   36.8158   24.5151   36.2629 H   0  0  0  0  0  0  0  0  0  0  0  0
   37.5977   24.7148   39.0074 H   0  0  0  0  0  0  0  0  0  0  0  0
   36.6836   23.3533   38.3532 H   0  0  0  0  0  0  0  0  0  0  0  0
   39.2473   23.1183   39.4284 H   0  0  0  0  0  0  0  0  0  0  0  0
   38.6509   21.9787   38.2545 H   0  0  0  0  0  0  0  0  0  0  0  0
   40.2352   24.5797   37.7627 H   0  0  0  0  0  0  0  0  0  0  0  0
   37.7984   21.3804   35.3642 H   0  0  0  0  0  0  0  0  0  0  0  0
   38.0905   20.5753   32.9768 H   0  0  0  0  0  0  0  0  0  0  0  0
   40.3171   24.1066   32.0799 H   0  0  0  0  0  0  0  0  0  0  0  0
   40.4412   20.8328   37.7534 H   0  0  0  0  0  0  0  0  0  0  0  0
   42.9576   20.2697   36.9320 H   0  0  0  0  0  0  0  0  0  0  0  0
   44.9812   21.7959   36.1941 H   0  0  0  0  0  0  0  0  0  0  0  0
   44.3041   22.7180   34.8209 H   0  0  0  0  0  0  0  0  0  0  0  0
   44.3820   24.1257   37.4396 H   0  0  0  0  0  0  0  0  0  0  0  0
   45.9883   23.7361   36.6269 H   0  0  0  0  0  0  0  0  0  0  0  0
   43.9012   27.2746   33.4342 H   0  0  0  0  0  0  0  0  0  0  0  0
   46.0235   28.0669   34.9060 H   0  0  0  0  0  0  0  0  0  0  0  0
   46.5000   26.0635   36.6158 H   0  0  0  0  0  0  0  0  0  0  0  0
  1  2  1  0
  1  5  1  0
  2  3  1  0
  3  4  1  0
  5  4  1  0
  6  1  1  0
  7  6  2  0
  8  7  1  0
  9 10  1  0
  9  8  2  0
 10 11  2  0
 11  6  1  0
 12 13  2  0
 12  5  1  0
 14 13  1  0
 15 16  1  0
 15 14  2  0
 16 12  1  0
 17 15  1  0
 17 18  1  0
 19 23  1  0
 19 18  1  0
 20 19  1  0
 21 20  2  0
 21 22  1  0
 22 23  2  0
  2 24  1  0
  2 25  1  0
  3 26  1  0
  3 27  1  0
  4 28  1  0
  4 29  1  0
  5 30  1  1
  7 31  1  0
  8 32  1  0
 10 33  1  0
 13 34  1  0
 14 35  1  0
 17 36  1  0
 17 37  1  0
 18 38  1  0
 18 39  1  0
 21 40  1  0
 22 41  1  0
 23 42  1  0
M  ISO  8  24  13  25  13  26  13  27  13  28  13  29  13  30  13  31  14
M  ISO  8  32  14  33  14  34  14  35  14  36   8  37   8  38   8  39   8
M  ISO  3  40  14  41  14  42  14
M  END
>  <minimizedAffinity>  (1) 
-4.27522421

>  <minimizedRMSD>  (1) 
0.638860822

$$$$
