
     RDKit          3D

 37 39  0  0  1  0  0  0  0  0999 V2000
   38.9050   23.7970   36.3660 N   0  0  0  0  0  0  0  0  0  0  0  0
   37.8710   24.6490   36.9590 C   0  0  0  0  0  0  0  0  0  0  0  0
   37.7470   24.0490   38.3480 C   0  0  0  0  0  0  0  0  0  0  0  0
   38.9380   23.1220   38.4980 C   0  0  0  0  0  0  0  0  0  0  0  0
   39.8750   23.6560   37.4860 C   0  0  1  0  0  0  0  0  0  0  0  0
   38.9550   23.2550   35.0530 C   0  0  0  0  0  0  0  0  0  0  0  0
   38.3780   22.0290   34.7420 C   0  0  0  0  0  0  0  0  0  0  0  0
   38.4820   21.5820   33.4250 C   0  0  0  0  0  0  0  0  0  0  0  0
   39.1550   22.3910   32.5180 N   0  0  0  0  0  0  0  0  0  0  0  0
   39.6890   23.5580   32.8690 C   0  0  0  0  0  0  0  0  0  0  0  0
   39.6130   24.0290   34.1280 N   0  0  0  0  0  0  0  0  0  0  0  0
   41.0390   22.8730   37.1640 C   0  0  0  0  0  0  0  0  0  0  0  0
   41.1550   21.4840   37.3840 C   0  0  0  0  0  0  0  0  0  0  0  0
   42.4170   21.1240   36.9390 C   0  0  0  0  0  0  0  0  0  0  0  0
   42.9960   22.3090   36.4730 C   0  0  0  0  0  0  0  0  0  0  0  0
   42.1540   23.2990   36.6260 O   0  0  0  0  0  0  0  0  0  0  0  0
   44.3610   22.4270   35.8930 C   0  0  0  0  0  0  0  0  0  0  0  0
   44.9460   23.7320   36.3770 C   0  0  0  0  0  0  0  0  0  0  0  0
   46.1820   24.0070   35.6640 N   0  0  0  0  0  0  0  0  0  0  0  0
   38.1921   25.7002   37.0022 H   0  0  0  0  0  0  0  0  0  0  0  0
   36.9279   24.6707   36.3932 H   0  0  0  0  0  0  0  0  0  0  0  0
   37.7769   24.8397   39.1122 H   0  0  0  0  0  0  0  0  0  0  0  0
   36.7949   23.5135   38.4772 H   0  0  0  0  0  0  0  0  0  0  0  0
   39.3659   23.1821   39.5096 H   0  0  0  0  0  0  0  0  0  0  0  0
   38.6924   22.0591   38.3568 H   0  0  0  0  0  0  0  0  0  0  0  0
   40.4076   24.5615   37.8122 H   0  0  0  0  0  0  0  0  0  0  0  0
   37.8583   21.4332   35.5068 H   0  0  0  0  0  0  0  0  0  0  0  0
   38.0457   20.6210   33.1148 H   0  0  0  0  0  0  0  0  0  0  0  0
   40.2089   24.1568   32.1067 H   0  0  0  0  0  0  0  0  0  0  0  0
   40.3953   20.8196   37.8214 H   0  0  0  0  0  0  0  0  0  0  0  0
   42.8674   20.1205   36.9499 H   0  0  0  0  0  0  0  0  0  0  0  0
   44.3042   22.4249   34.7945 H   0  0  0  0  0  0  0  0  0  0  0  0
   44.9900   21.5801   36.2047 H   0  0  0  0  0  0  0  0  0  0  0  0
   44.2286   24.5453   36.1929 H   0  0  0  0  0  0  0  0  0  0  0  0
   45.1543   23.6612   37.4548 H   0  0  0  0  0  0  0  0  0  0  0  0
   46.9391   24.1755   36.3417 H   0  0  0  0  0  0  0  0  0  0  0  0
   46.4241   23.1993   35.0725 H   0  0  0  0  0  0  0  0  0  0  0  0
  1  2  1  0
  1  5  1  0
  2  3  1  0
  3  4  1  0
  5  4  1  0
  6  1  1  0
  7  6  2  0
  8  7  1  0
  9 10  1  0
  9  8  2  0
 10 11  2  0
 11  6  1  0
 12 13  2  0
 12  5  1  0
 14 13  1  0
 15 16  1  0
 15 14  2  0
 16 12  1  0
 17 18  1  0
 17 15  1  0
 19 18  1  0
  2 20  1  0
  2 21  1  0
  3 22  1  0
  3 23  1  0
  4 24  1  0
  4 25  1  0
  5 26  1  1
  7 27  1  0
  8 28  1  0
 10 29  1  0
 13 30  1  0
 14 31  1  0
 17 32  1  0
 17 33  1  0
 18 34  1  0
 18 35  1  0
 19 36  1  0
 19 37  1  0
M  ISO  8  20  13  21  13  22  13  23  13  24  13  25  13  26  13  27  14
M  ISO  8  28  14  29  14  30  14  31  14  32   8  33   8  34   8  35   8
M  ISO  2  36   5  37   5
M  END
>  <minimizedAffinity>  (1) 
-3.80109668

>  <minimizedRMSD>  (1) 
0.060847681

$$$$
