
     RDKit          3D

 36 38  0  0  0  0  0  0  0  0999 V2000
   38.1550   23.7640   37.0500 C   0  0  0  0  0  0  0  0  0  0  0  0
   41.4560   21.9780   37.2450 C   0  0  0  0  0  0  0  0  0  0  0  0
   40.1440   22.3290   37.5370 C   0  0  0  0  0  0  0  0  0  0  0  0
   39.5280   23.3480   36.7970 C   0  0  0  0  0  0  0  0  0  0  0  0
   40.2470   23.9570   35.8150 N   0  0  0  0  0  0  0  0  0  0  0  0
   41.5110   23.6030   35.5500 C   0  0  0  0  0  0  0  0  0  0  0  0
   42.1170   22.6240   36.2540 N   0  0  0  0  0  0  0  0  0  0  0  0
   38.1270   24.4830   38.3990 C   0  0  0  0  0  0  0  0  0  0  0  0
   37.5790   24.6640   35.9870 C   0  0  0  0  0  0  0  0  0  0  0  0
   37.2430   22.5730   37.1440 C   0  0  0  0  0  0  0  0  0  0  0  0
   36.9730   21.9270   35.8770 C   0  0  0  0  0  0  0  0  0  0  0  0
   35.8900   21.1670   35.6260 C   0  0  0  0  0  0  0  0  0  0  0  0
   35.5750   20.5450   34.4870 C   0  0  0  0  0  0  0  0  0  0  0  0
   36.6120   20.8050   33.4820 C   0  0  0  0  0  0  0  0  0  0  0  0
   37.8770   21.9040   34.3350 S   0  0  0  0  0  0  0  0  0  0  0  0
   36.8420   20.4390   32.1310 C   0  0  0  0  0  0  0  0  0  0  0  0
   36.0210   19.8770   31.2360 C   0  0  0  0  0  0  0  0  0  0  0  0
   36.4710   19.6100   29.9660 C   0  0  0  0  0  0  0  0  0  0  0  0
   37.7680   19.9190   29.6140 C   0  0  0  0  0  0  0  0  0  0  0  0
   38.4240   20.6440   31.1750 S   0  0  0  0  0  0  0  0  0  0  0  0
   41.9553   21.1805   37.8148 H   0  0  0  0  0  0  0  0  0  0  0  0
   39.5952   21.8137   38.3390 H   0  0  0  0  0  0  0  0  0  0  0  0
   42.0622   24.1166   34.7485 H   0  0  0  0  0  0  0  0  0  0  0  0
   38.1559   23.7411   39.2106 H   0  0  0  0  0  0  0  0  0  0  0  0
   38.9999   25.1476   38.4785 H   0  0  0  0  0  0  0  0  0  0  0  0
   37.2050   25.0777   38.4785 H   0  0  0  0  0  0  0  0  0  0  0  0
   37.0446   25.4990   36.4636 H   0  0  0  0  0  0  0  0  0  0  0  0
   38.3925   25.0591   35.3608 H   0  0  0  0  0  0  0  0  0  0  0  0
   36.8795   24.0908   35.3608 H   0  0  0  0  0  0  0  0  0  0  0  0
   37.7080   21.8353   37.8145 H   0  0  0  0  0  0  0  0  0  0  0  0
   36.2782   22.9444   37.5197 H   0  0  0  0  0  0  0  0  0  0  0  0
   35.1808   21.0440   36.4578 H   0  0  0  0  0  0  0  0  0  0  0  0
   34.6760   19.9318   34.3268 H   0  0  0  0  0  0  0  0  0  0  0  0
   34.9868   19.6291   31.5171 H   0  0  0  0  0  0  0  0  0  0  0  0
   35.7964   19.1494   29.2293 H   0  0  0  0  0  0  0  0  0  0  0  0
   38.2784   19.7709   28.6509 H   0  0  0  0  0  0  0  0  0  0  0  0
  1 10  1  0
  1  8  1  0
  2  3  2  0
  4  1  1  0
  4  3  1  0
  5  4  2  0
  6  5  1  0
  6  7  2  0
  7  2  1  0
  9  1  1  0
 11 10  1  0
 12 11  2  0
 13 12  1  0
 14 15  1  0
 14 13  2  0
 15 11  1  0
 16 14  1  0
 17 16  2  0
 18 17  1  0
 19 18  2  0
 19 20  1  0
 20 16  1  0
  2 21  1  0
  3 22  1  0
  6 23  1  0
  8 24  1  0
  8 25  1  0
  8 26  1  0
  9 27  1  0
  9 28  1  0
  9 29  1  0
 10 30  1  0
 10 31  1  0
 12 32  1  0
 13 33  1  0
 17 34  1  0
 18 35  1  0
 19 36  1  0
M  ISO  8  21  14  22  14  23  14  24   8  25   8  26   8  27   8  28   8
M  ISO  8  29   8  30   8  31   8  32  14  33  14  34  14  35  14  36  14
M  END
>  <minimizedAffinity>  (1) 
-4.57402325

>  <minimizedRMSD>  (1) 
0.545028031

$$$$
