
     RDKit          3D

 45 48  0  0  1  0  0  0  0  0999 V2000
   38.7070   23.7970   36.2690 N   0  0  0  0  0  0  0  0  0  0  0  0
   37.7980   24.7230   36.9690 C   0  0  0  0  0  0  0  0  0  0  0  0
   37.8490   24.1900   38.3880 C   0  0  0  0  0  0  0  0  0  0  0  0
   39.0150   23.2220   38.3990 C   0  0  0  0  0  0  0  0  0  0  0  0
   39.8300   23.6500   37.2620 C   0  0  1  0  0  0  0  0  0  0  0  0
   38.5440   23.2150   34.9950 C   0  0  0  0  0  0  0  0  0  0  0  0
   37.9040   22.0040   34.8120 C   0  0  0  0  0  0  0  0  0  0  0  0
   37.7950   21.5140   33.5150 C   0  0  0  0  0  0  0  0  0  0  0  0
   38.3350   22.2690   32.4830 N   0  0  0  0  0  0  0  0  0  0  0  0
   38.9400   23.4310   32.7180 C   0  0  0  0  0  0  0  0  0  0  0  0
   39.0670   23.9400   33.9440 N   0  0  0  0  0  0  0  0  0  0  0  0
   40.8930   22.8090   36.8010 C   0  0  0  0  0  0  0  0  0  0  0  0
   41.1840   21.5310   37.3510 C   0  0  0  0  0  0  0  0  0  0  0  0
   42.2700   21.0480   36.6350 C   0  0  0  0  0  0  0  0  0  0  0  0
   42.5710   22.0440   35.7050 C   0  0  0  0  0  0  0  0  0  0  0  0
   41.7430   23.0420   35.8450 O   0  0  0  0  0  0  0  0  0  0  0  0
   43.6730   21.9700   34.7080 C   0  0  0  0  0  0  0  0  0  0  0  0
   44.9570   22.3640   35.4190 C   0  0  0  0  0  0  0  0  0  0  0  0
   45.0430   23.6990   35.6640 O   0  0  0  0  0  0  0  0  0  0  0  0
   45.5260   24.2930   36.8080 C   0  0  0  0  0  0  0  0  0  0  0  0
   44.5360   25.1040   37.3430 C   0  0  0  0  0  0  0  0  0  0  0  0
   44.6840   25.8630   38.5100 C   0  0  0  0  0  0  0  0  0  0  0  0
   45.9300   25.7470   39.1160 C   0  0  0  0  0  0  0  0  0  0  0  0
   46.8820   24.9420   38.5680 C   0  0  0  0  0  0  0  0  0  0  0  0
   46.6730   24.2510   37.4600 N   0  0  0  0  0  0  0  0  0  0  0  0
   38.1630   25.7594   36.9166 H   0  0  0  0  0  0  0  0  0  0  0  0
   36.7847   24.7616   36.5427 H   0  0  0  0  0  0  0  0  0  0  0  0
   38.0187   25.0085   39.1030 H   0  0  0  0  0  0  0  0  0  0  0  0
   36.9062   23.7061   38.6828 H   0  0  0  0  0  0  0  0  0  0  0  0
   39.5810   23.2999   39.3390 H   0  0  0  0  0  0  0  0  0  0  0  0
   38.6981   22.1712   38.3255 H   0  0  0  0  0  0  0  0  0  0  0  0
   40.4564   24.5249   37.4902 H   0  0  0  0  0  0  0  0  0  0  0  0
   37.4935   21.4449   35.6657 H   0  0  0  0  0  0  0  0  0  0  0  0
   37.2950   20.5553   33.3127 H   0  0  0  0  0  0  0  0  0  0  0  0
   39.3516   23.9938   31.8672 H   0  0  0  0  0  0  0  0  0  0  0  0
   40.6566   21.0282   38.1750 H   0  0  0  0  0  0  0  0  0  0  0  0
   42.7841   20.0852   36.7714 H   0  0  0  0  0  0  0  0  0  0  0  0
   43.4754   22.6633   33.8772 H   0  0  0  0  0  0  0  0  0  0  0  0
   43.7545   20.9541   34.2941 H   0  0  0  0  0  0  0  0  0  0  0  0
   45.0045   21.8282   36.3785 H   0  0  0  0  0  0  0  0  0  0  0  0
   45.7938   22.0975   34.7567 H   0  0  0  0  0  0  0  0  0  0  0  0
   43.5718   25.1540   36.8160 H   0  0  0  0  0  0  0  0  0  0  0  0
   43.8817   26.4980   38.9137 H   0  0  0  0  0  0  0  0  0  0  0  0
   46.1469   26.3057   40.0384 H   0  0  0  0  0  0  0  0  0  0  0  0
   47.8602   24.8637   39.0650 H   0  0  0  0  0  0  0  0  0  0  0  0
  1  2  1  0
  1  5  1  0
  2  3  1  0
  3  4  1  0
  5  4  1  0
  6  1  1  0
  7  6  2  0
  8  7  1  0
  9 10  1  0
  9  8  2  0
 10 11  2  0
 11  6  1  0
 12  5  1  0
 12 13  2  0
 14 13  1  0
 15 16  1  0
 15 14  2  0
 16 12  1  0
 17 18  1  0
 17 15  1  0
 18 19  1  0
 19 20  1  0
 20 21  2  0
 20 25  1  0
 21 22  1  0
 22 23  2  0
 24 23  1  0
 25 24  2  0
  2 26  1  0
  2 27  1  0
  3 28  1  0
  3 29  1  0
  4 30  1  0
  4 31  1  0
  5 32  1  1
  7 33  1  0
  8 34  1  0
 10 35  1  0
 13 36  1  0
 14 37  1  0
 17 38  1  0
 17 39  1  0
 18 40  1  0
 18 41  1  0
 21 42  1  0
 22 43  1  0
 23 44  1  0
 24 45  1  0
M  ISO  8  26  13  27  13  28  13  29  13  30  13  31  13  32  13  33  14
M  ISO  8  34  14  35  14  36  14  37  14  38   8  39   8  40   8  41   8
M  ISO  4  42  14  43  14  44  14  45  14
M  END
>  <minimizedAffinity>  (1) 
-5.33119011

>  <minimizedRMSD>  (1) 
2.82111073

$$$$
