
     RDKit          3D

 50 54  0  0  1  0  0  0  0  0999 V2000
   40.8440   22.8250   36.8760 C   0  0  0  0  0  0  0  0  0  0  0  0
   41.0930   21.5270   37.3970 C   0  0  0  0  0  0  0  0  0  0  0  0
   42.1940   21.0440   36.7090 C   0  0  0  0  0  0  0  0  0  0  0  0
   42.5490   22.0670   35.8120 C   0  0  0  0  0  0  0  0  0  0  0  0
   41.7250   23.0810   35.9560 O   0  0  0  0  0  0  0  0  0  0  0  0
   38.6660   23.8200   36.3200 N   0  0  0  0  0  0  0  0  0  0  0  0
   37.7690   24.7580   37.0130 C   0  0  0  0  0  0  0  0  0  0  0  0
   37.7840   24.2200   38.4230 C   0  0  0  0  0  0  0  0  0  0  0  0
   38.9620   23.2670   38.4680 C   0  0  0  0  0  0  0  0  0  0  0  0
   39.7790   23.6720   37.3270 C   0  0  1  0  0  0  0  0  0  0  0  0
   38.5080   23.2270   35.0400 C   0  0  0  0  0  0  0  0  0  0  0  0
   37.8550   22.0230   34.8680 C   0  0  0  0  0  0  0  0  0  0  0  0
   37.7620   21.5340   33.5640 C   0  0  0  0  0  0  0  0  0  0  0  0
   38.3250   22.2800   32.5380 N   0  0  0  0  0  0  0  0  0  0  0  0
   38.9420   23.4370   32.7710 C   0  0  0  0  0  0  0  0  0  0  0  0
   39.0610   23.9560   34.0050 N   0  0  0  0  0  0  0  0  0  0  0  0
   43.6830   21.9790   34.8680 C   0  0  0  0  0  0  0  0  0  0  0  0
   44.9510   22.2460   35.6810 C   0  0  0  0  0  0  0  0  0  0  0  0
   44.8310   23.3310   36.5000 O   0  0  0  0  0  0  0  0  0  0  0  0
   45.2380   24.5770   36.0400 C   0  0  0  0  0  0  0  0  0  0  0  0
   44.6100   25.4160   35.1970 N   0  0  0  0  0  0  0  0  0  0  0  0
   45.1440   26.5990   34.8470 C   0  0  0  0  0  0  0  0  0  0  0  0
   46.3510   27.0200   35.3240 N   0  0  0  0  0  0  0  0  0  0  0  0
   46.9940   26.1930   36.1690 C   0  0  0  0  0  0  0  0  0  0  0  0
   48.2270   26.6430   36.6440 C   0  0  0  0  0  0  0  0  0  0  0  0
   48.9280   25.8330   37.5140 C   0  0  0  0  0  0  0  0  0  0  0  0
   48.4400   24.6140   37.9110 C   0  0  0  0  0  0  0  0  0  0  0  0
   47.2190   24.1920   37.4270 C   0  0  0  0  0  0  0  0  0  0  0  0
   46.4790   24.9550   36.5610 C   0  0  0  0  0  0  0  0  0  0  0  0
   40.5268   21.0106   38.1861 H   0  0  0  0  0  0  0  0  0  0  0  0
   42.6857   20.0684   36.8371 H   0  0  0  0  0  0  0  0  0  0  0  0
   38.1575   25.7863   36.9731 H   0  0  0  0  0  0  0  0  0  0  0  0
   36.7633   24.8192   36.5716 H   0  0  0  0  0  0  0  0  0  0  0  0
   37.9200   25.0370   39.1469 H   0  0  0  0  0  0  0  0  0  0  0  0
   36.8392   23.7210   38.6844 H   0  0  0  0  0  0  0  0  0  0  0  0
   39.5204   23.3778   39.4092 H   0  0  0  0  0  0  0  0  0  0  0  0
   38.6579   22.2109   38.4210 H   0  0  0  0  0  0  0  0  0  0  0  0
   40.4078   24.5453   37.5551 H   0  0  0  0  0  0  0  0  0  0  0  0
   37.4274   21.4739   35.7199 H   0  0  0  0  0  0  0  0  0  0  0  0
   37.2549   20.5806   33.3546 H   0  0  0  0  0  0  0  0  0  0  0  0
   39.3704   23.9887   31.9213 H   0  0  0  0  0  0  0  0  0  0  0  0
   43.5754   22.7330   34.0743 H   0  0  0  0  0  0  0  0  0  0  0  0
   43.7218   20.9910   34.3860 H   0  0  0  0  0  0  0  0  0  0  0  0
   45.1667   21.3612   36.2979 H   0  0  0  0  0  0  0  0  0  0  0  0
   45.7646   22.4536   34.9704 H   0  0  0  0  0  0  0  0  0  0  0  0
   44.5899   27.2487   34.1535 H   0  0  0  0  0  0  0  0  0  0  0  0
   48.6296   27.6183   36.3328 H   0  0  0  0  0  0  0  0  0  0  0  0
   49.9011   26.1729   37.8982 H   0  0  0  0  0  0  0  0  0  0  0  0
   49.0138   23.9823   38.6050 H   0  0  0  0  0  0  0  0  0  0  0  0
   46.8276   23.2145   37.7453 H   0  0  0  0  0  0  0  0  0  0  0  0
  1 10  1  0
  1  2  2  0
  3  2  1  0
  4  5  1  0
  4  3  2  0
  5  1  1  0
  6  7  1  0
  6 10  1  0
  7  8  1  0
  8  9  1  0
 10  9  1  0
 11  6  1  0
 12 11  2  0
 13 12  1  0
 14 15  1  0
 14 13  2  0
 15 16  2  0
 16 11  1  0
 17 18  1  0
 17  4  1  0
 18 19  1  0
 20 19  1  0
 20 29  1  0
 21 20  2  0
 22 21  1  0
 22 23  2  0
 23 24  1  0
 24 29  2  0
 24 25  1  0
 25 26  2  0
 26 27  1  0
 28 27  2  0
 29 28  1  0
  2 30  1  0
  3 31  1  0
  7 32  1  0
  7 33  1  0
  8 34  1  0
  8 35  1  0
  9 36  1  0
  9 37  1  0
 10 38  1  1
 12 39  1  0
 13 40  1  0
 15 41  1  0
 17 42  1  0
 17 43  1  0
 18 44  1  0
 18 45  1  0
 22 46  1  0
 25 47  1  0
 26 48  1  0
 27 49  1  0
 28 50  1  0
M  ISO  8  30  14  31  14  32  13  33  13  34  13  35  13  36  13  37  13
M  ISO  8  38  13  39  14  40  14  41  14  42   8  43   8  44   8  45   8
M  ISO  5  46  14  47  14  48  14  49  14  50  14
M  END
>  <minimizedAffinity>  (1) 
-5.16559362

>  <minimizedRMSD>  (1) 
2.19969916

$$$$
