
     RDKit          3D

 48 51  0  0  1  0  0  0  0  0999 V2000
   38.6970   23.6480   36.2940 N   0  0  0  0  0  0  0  0  0  0  0  0
   37.5640   24.3650   36.9010 C   0  0  0  0  0  0  0  0  0  0  0  0
   37.4710   23.7040   38.2550 C   0  0  0  0  0  0  0  0  0  0  0  0
   38.7810   22.9520   38.4200 C   0  0  0  0  0  0  0  0  0  0  0  0
   39.6660   23.5880   37.4450 C   0  0  1  0  0  0  0  0  0  0  0  0
   38.8180   23.1610   34.9700 C   0  0  0  0  0  0  0  0  0  0  0  0
   38.3220   21.9270   34.5940 C   0  0  0  0  0  0  0  0  0  0  0  0
   38.4990   21.5430   33.2660 C   0  0  0  0  0  0  0  0  0  0  0  0
   39.1570   22.4190   32.4130 N   0  0  0  0  0  0  0  0  0  0  0  0
   39.6140   23.5950   32.8340 C   0  0  0  0  0  0  0  0  0  0  0  0
   39.4680   24.0100   34.1030 N   0  0  0  0  0  0  0  0  0  0  0  0
   40.9100   22.9530   37.1060 C   0  0  0  0  0  0  0  0  0  0  0  0
   41.1760   21.5720   37.3050 C   0  0  0  0  0  0  0  0  0  0  0  0
   42.4700   21.3600   36.8520 C   0  0  0  0  0  0  0  0  0  0  0  0
   42.9040   22.6080   36.4100 C   0  0  0  0  0  0  0  0  0  0  0  0
   41.9670   23.5000   36.5780 O   0  0  0  0  0  0  0  0  0  0  0  0
   44.2540   22.8740   35.8300 C   0  0  0  0  0  0  0  0  0  0  0  0
   44.7040   24.2310   36.3390 C   0  0  0  0  0  0  0  0  0  0  0  0
   44.0870   25.2690   35.7140 O   0  0  0  0  0  0  0  0  0  0  0  0
   44.5700   27.4550   34.9830 N   0  0  0  0  0  0  0  0  0  0  0  0
   45.7490   28.0140   34.3050 C   0  0  0  0  0  0  0  0  0  0  0  0
   46.9460   27.2480   34.8820 C   0  0  0  0  0  0  0  0  0  0  0  0
   46.2840   26.2480   35.8360 C   0  0  0  0  0  0  0  0  0  0  0  0
   44.9830   26.0470   35.0490 C   0  0  1  0  0  0  0  0  0  0  0  0
   37.7741   25.4407   36.9939 H   0  0  0  0  0  0  0  0  0  0  0  0
   36.6356   24.3103   36.3135 H   0  0  0  0  0  0  0  0  0  0  0  0
   37.3572   24.4595   39.0464 H   0  0  0  0  0  0  0  0  0  0  0  0
   36.6004   23.0356   38.3281 H   0  0  0  0  0  0  0  0  0  0  0  0
   39.1741   23.0666   39.4410 H   0  0  0  0  0  0  0  0  0  0  0  0
   38.6758   21.8688   38.2599 H   0  0  0  0  0  0  0  0  0  0  0  0
   40.0965   24.5283   37.8197 H   0  0  0  0  0  0  0  0  0  0  0  0
   37.8079   21.2738   35.3144 H   0  0  0  0  0  0  0  0  0  0  0  0
   38.1278   20.5730   32.9037 H   0  0  0  0  0  0  0  0  0  0  0  0
   40.1299   24.2510   32.1174 H   0  0  0  0  0  0  0  0  0  0  0  0
   40.4938   20.8221   37.7320 H   0  0  0  0  0  0  0  0  0  0  0  0
   43.0307   20.4137   36.8436 H   0  0  0  0  0  0  0  0  0  0  0  0
   44.1965   22.8840   34.7315 H   0  0  0  0  0  0  0  0  0  0  0  0
   44.9668   22.0906   36.1268 H   0  0  0  0  0  0  0  0  0  0  0  0
   44.4850   24.2909   37.4153 H   0  0  0  0  0  0  0  0  0  0  0  0
   45.7807   24.3176   36.1310 H   0  0  0  0  0  0  0  0  0  0  0  0
   43.7112   27.5792   34.4280 H   0  0  0  0  0  0  0  0  0  0  0  0
   45.8414   29.0896   34.5160 H   0  0  0  0  0  0  0  0  0  0  0  0
   45.6825   27.9097   33.2120 H   0  0  0  0  0  0  0  0  0  0  0  0
   47.5034   26.7287   34.0885 H   0  0  0  0  0  0  0  0  0  0  0  0
   47.6813   27.8995   35.3769 H   0  0  0  0  0  0  0  0  0  0  0  0
   46.8620   25.3172   35.9333 H   0  0  0  0  0  0  0  0  0  0  0  0
   46.1749   26.5721   36.8815 H   0  0  0  0  0  0  0  0  0  0  0  0
   45.0753   25.5255   34.0849 H   0  0  0  0  0  0  0  0  0  0  0  0
  1  2  1  0
  1  5  1  0
  2  3  1  0
  3  4  1  0
  5  4  1  0
  6  1  1  0
  7  6  2  0
  8  7  1  0
  9 10  1  0
  9  8  2  0
 10 11  2  0
 11  6  1  0
 12 13  2  0
 12  5  1  0
 14 13  1  0
 15 16  1  0
 15 14  2  0
 16 12  1  0
 17 18  1  0
 17 15  1  0
 19 18  1  0
 20 24  1  0
 21 22  1  0
 21 20  1  0
 22 23  1  0
 24 19  1  0
 24 23  1  0
  2 25  1  0
  2 26  1  0
  3 27  1  0
  3 28  1  0
  4 29  1  0
  4 30  1  0
  5 31  1  1
  7 32  1  0
  8 33  1  0
 10 34  1  0
 13 35  1  0
 14 36  1  0
 17 37  1  0
 17 38  1  0
 18 39  1  0
 18 40  1  0
 20 41  1  0
 21 42  1  0
 21 43  1  0
 22 44  1  0
 22 45  1  0
 23 46  1  0
 23 47  1  0
 24 48  1  6
M  ISO  8  25  13  26  13  27  13  28  13  29  13  30  13  31  13  32  14
M  ISO  8  33  14  34  14  35  14  36  14  37   8  38   8  39   8  40   8
M  ISO  8  41   5  42  13  43  13  44  13  45  13  46  13  47  13  48  13
M  END
>  <minimizedAffinity>  (1) 
-4.43244839

>  <minimizedRMSD>  (1) 
1.31191385

$$$$
