
     RDKit          3D

 39 41  0  0  1  0  0  0  0  0999 V2000
   38.7890   23.7560   36.3100 N   0  0  0  0  0  0  0  0  0  0  0  0
   37.8100   24.6310   36.9800 C   0  0  0  0  0  0  0  0  0  0  0  0
   37.8090   24.0730   38.3830 C   0  0  0  0  0  0  0  0  0  0  0  0
   39.0310   23.1760   38.4530 C   0  0  0  0  0  0  0  0  0  0  0  0
   39.8690   23.6460   37.3530 C   0  0  1  0  0  0  0  0  0  0  0  0
   38.7100   23.1830   35.0130 C   0  0  0  0  0  0  0  0  0  0  0  0
   38.0520   21.9950   34.7780 C   0  0  0  0  0  0  0  0  0  0  0  0
   38.0400   21.5220   33.4670 C   0  0  0  0  0  0  0  0  0  0  0  0
   38.6880   22.2760   32.4890 N   0  0  0  0  0  0  0  0  0  0  0  0
   39.3090   23.4170   32.7790 C   0  0  0  0  0  0  0  0  0  0  0  0
   39.3470   23.9140   34.0260 N   0  0  0  0  0  0  0  0  0  0  0  0
   40.9920   22.8620   36.9300 C   0  0  0  0  0  0  0  0  0  0  0  0
   41.2070   21.5150   37.3250 C   0  0  0  0  0  0  0  0  0  0  0  0
   42.3870   21.1230   36.7090 C   0  0  0  0  0  0  0  0  0  0  0  0
   42.8160   22.2380   35.9840 C   0  0  0  0  0  0  0  0  0  0  0  0
   41.9660   23.2250   36.1490 O   0  0  0  0  0  0  0  0  0  0  0  0
   44.0470   22.2790   35.1630 C   0  0  0  0  0  0  0  0  0  0  0  0
   45.1400   22.9290   36.0120 C   0  0  0  0  0  0  0  0  0  0  0  0
   45.1530   24.2940   35.8950 O   0  0  0  0  0  0  0  0  0  0  0  0
   45.2560   24.9590   37.1080 C   0  0  0  0  0  0  0  0  0  0  0  0
   44.0360   24.8520   37.7510 F   0  0  0  0  0  0  0  0  0  0  0  0
   46.2590   24.5120   37.9180 F   0  0  0  0  0  0  0  0  0  0  0  0
   45.3980   26.3150   36.7920 F   0  0  0  0  0  0  0  0  0  0  0  0
   38.1362   25.6814   36.9667 H   0  0  0  0  0  0  0  0  0  0  0  0
   36.8191   24.6395   36.5025 H   0  0  0  0  0  0  0  0  0  0  0  0
   37.8832   24.8849   39.1215 H   0  0  0  0  0  0  0  0  0  0  0  0
   36.8822   23.5248   38.6077 H   0  0  0  0  0  0  0  0  0  0  0  0
   39.5479   23.2918   39.4171 H   0  0  0  0  0  0  0  0  0  0  0  0
   38.7809   22.1079   38.3721 H   0  0  0  0  0  0  0  0  0  0  0  0
   40.4432   24.5459   37.6185 H   0  0  0  0  0  0  0  0  0  0  0  0
   37.5571   21.4434   35.5909 H   0  0  0  0  0  0  0  0  0  0  0  0
   37.5333   20.5799   33.2108 H   0  0  0  0  0  0  0  0  0  0  0  0
   39.8077   23.9713   31.9703 H   0  0  0  0  0  0  0  0  0  0  0  0
   40.5693   20.9073   37.9838 H   0  0  0  0  0  0  0  0  0  0  0  0
   42.8803   20.1422   36.7770 H   0  0  0  0  0  0  0  0  0  0  0  0
   44.3460   21.2584   34.8820 H   0  0  0  0  0  0  0  0  0  0  0  0
   43.8795   22.8524   34.2393 H   0  0  0  0  0  0  0  0  0  0  0  0
   44.9701   22.6669   37.0667 H   0  0  0  0  0  0  0  0  0  0  0  0
   46.1097   22.5535   35.6532 H   0  0  0  0  0  0  0  0  0  0  0  0
  1  2  1  0
  1  5  1  0
  2  3  1  0
  3  4  1  0
  5  4  1  0
  6  1  1  0
  7  6  2  0
  8  7  1  0
  9 10  1  0
  9  8  2  0
 10 11  2  0
 11  6  1  0
 12 13  2  0
 12  5  1  0
 14 13  1  0
 15 16  1  0
 15 14  2  0
 16 12  1  0
 17 15  1  0
 17 18  1  0
 19 18  1  0
 19 20  1  0
 20 21  1  0
 20 22  1  0
 23 20  1  0
  2 24  1  0
  2 25  1  0
  3 26  1  0
  3 27  1  0
  4 28  1  0
  4 29  1  0
  5 30  1  1
  7 31  1  0
  8 32  1  0
 10 33  1  0
 13 34  1  0
 14 35  1  0
 17 36  1  0
 17 37  1  0
 18 38  1  0
 18 39  1  0
M  ISO  8  24  13  25  13  26  13  27  13  28  13  29  13  30  13  31  14
M  ISO  8  32  14  33  14  34  14  35  14  36   8  37   8  38   8  39   8
M  END
>  <minimizedAffinity>  (1) 
-4.40165663

>  <minimizedRMSD>  (1) 
0.964338839

$$$$
