
     RDKit          3D

 44 47  0  0  1  0  0  0  0  0999 V2000
   38.7960   23.6930   36.2700 N   0  0  0  0  0  0  0  0  0  0  0  0
   37.6810   24.4600   36.8490 C   0  0  0  0  0  0  0  0  0  0  0  0
   37.5790   23.8690   38.2290 C   0  0  0  0  0  0  0  0  0  0  0  0
   38.8440   23.0430   38.4000 C   0  0  0  0  0  0  0  0  0  0  0  0
   39.7620   23.6280   37.4260 C   0  0  1  0  0  0  0  0  0  0  0  0
   38.9090   23.1670   34.9560 C   0  0  0  0  0  0  0  0  0  0  0  0
   38.3480   21.9550   34.6060 C   0  0  0  0  0  0  0  0  0  0  0  0
   38.5220   21.5310   33.2880 C   0  0  0  0  0  0  0  0  0  0  0  0
   39.2420   22.3520   32.4250 N   0  0  0  0  0  0  0  0  0  0  0  0
   39.7580   23.5110   32.8210 C   0  0  0  0  0  0  0  0  0  0  0  0
   39.6190   23.9650   34.0790 N   0  0  0  0  0  0  0  0  0  0  0  0
   40.9860   22.9490   37.1090 C   0  0  0  0  0  0  0  0  0  0  0  0
   41.1950   21.5590   37.3250 C   0  0  0  0  0  0  0  0  0  0  0  0
   42.4870   21.2990   36.8920 C   0  0  0  0  0  0  0  0  0  0  0  0
   42.9830   22.5280   36.4430 C   0  0  0  0  0  0  0  0  0  0  0  0
   42.0660   23.4540   36.5920 O   0  0  0  0  0  0  0  0  0  0  0  0
   44.3410   22.7280   35.8870 C   0  0  0  0  0  0  0  0  0  0  0  0
   44.8850   24.0250   36.4790 C   0  0  0  0  0  0  0  0  0  0  0  0
   44.5140   25.1280   35.7480 O   0  0  0  0  0  0  0  0  0  0  0  0
   45.2830   26.1700   35.3010 C   0  0  0  0  0  0  0  0  0  0  0  0
   46.6170   26.0350   35.6800 C   0  0  0  0  0  0  0  0  0  0  0  0
   47.5620   26.9980   35.3200 C   0  0  0  0  0  0  0  0  0  0  0  0
   47.1380   28.0430   34.6060 N   0  0  0  0  0  0  0  0  0  0  0  0
   45.8420   28.1830   34.2330 C   0  0  0  0  0  0  0  0  0  0  0  0
   44.9510   27.2580   34.5820 N   0  0  0  0  0  0  0  0  0  0  0  0
   37.9137   25.5343   36.8904 H   0  0  0  0  0  0  0  0  0  0  0  0
   36.7490   24.3950   36.2684 H   0  0  0  0  0  0  0  0  0  0  0  0
   37.5316   24.6644   38.9873 H   0  0  0  0  0  0  0  0  0  0  0  0
   36.6702   23.2615   38.3513 H   0  0  0  0  0  0  0  0  0  0  0  0
   39.2410   23.1372   39.4215 H   0  0  0  0  0  0  0  0  0  0  0  0
   38.6795   21.9666   38.2438 H   0  0  0  0  0  0  0  0  0  0  0  0
   40.2279   24.5576   37.7850 H   0  0  0  0  0  0  0  0  0  0  0  0
   37.7882   21.3499   35.3344 H   0  0  0  0  0  0  0  0  0  0  0  0
   38.1022   20.5753   32.9410 H   0  0  0  0  0  0  0  0  0  0  0  0
   40.3176   24.1193   32.0952 H   0  0  0  0  0  0  0  0  0  0  0  0
   40.4796   20.8385   37.7482 H   0  0  0  0  0  0  0  0  0  0  0  0
   43.0106   20.3317   36.8999 H   0  0  0  0  0  0  0  0  0  0  0  0
   44.9903   21.8850   36.1660 H   0  0  0  0  0  0  0  0  0  0  0  0
   44.3088   22.7835   34.7889 H   0  0  0  0  0  0  0  0  0  0  0  0
   44.5010   24.1344   37.5040 H   0  0  0  0  0  0  0  0  0  0  0  0
   45.9834   23.9663   36.4656 H   0  0  0  0  0  0  0  0  0  0  0  0
   46.9292   25.1602   36.2693 H   0  0  0  0  0  0  0  0  0  0  0  0
   48.6173   26.8990   35.6141 H   0  0  0  0  0  0  0  0  0  0  0  0
   45.5282   29.0576   33.6443 H   0  0  0  0  0  0  0  0  0  0  0  0
  1  2  1  0
  1  5  1  0
  2  3  1  0
  3  4  1  0
  5  4  1  0
  6  1  1  0
  7  6  2  0
  8  7  1  0
  9 10  1  0
  9  8  2  0
 10 11  2  0
 11  6  1  0
 12 13  2  0
 12  5  1  0
 14 13  1  0
 15 16  1  0
 15 14  2  0
 16 12  1  0
 17 15  1  0
 17 18  1  0
 19 18  1  0
 20 21  2  0
 20 19  1  0
 22 21  1  0
 23 22  2  0
 24 25  2  0
 24 23  1  0
 25 20  1  0
  2 26  1  0
  2 27  1  0
  3 28  1  0
  3 29  1  0
  4 30  1  0
  4 31  1  0
  5 32  1  1
  7 33  1  0
  8 34  1  0
 10 35  1  0
 13 36  1  0
 14 37  1  0
 17 38  1  0
 17 39  1  0
 18 40  1  0
 18 41  1  0
 21 42  1  0
 22 43  1  0
 24 44  1  0
M  ISO  8  26  13  27  13  28  13  29  13  30  13  31  13  32  13  33  14
M  ISO  8  34  14  35  14  36  14  37  14  38   8  39   8  40   8  41   8
M  ISO  3  42  14  43  14  44  14
M  END
>  <minimizedAffinity>  (1) 
-4.38268328

>  <minimizedRMSD>  (1) 
1.06625116

$$$$
