
     RDKit          3D

 46 49  0  0  1  0  0  0  0  0999 V2000
   41.0090   22.9580   37.0790 C   0  0  0  0  0  0  0  0  0  0  0  0
   41.2200   21.5710   37.3040 C   0  0  0  0  0  0  0  0  0  0  0  0
   42.5190   21.3130   36.8890 C   0  0  0  0  0  0  0  0  0  0  0  0
   43.0170   22.5400   36.4400 C   0  0  0  0  0  0  0  0  0  0  0  0
   42.0940   23.4650   36.5750 O   0  0  0  0  0  0  0  0  0  0  0  0
   38.8430   23.7260   36.2020 N   0  0  0  0  0  0  0  0  0  0  0  0
   37.7230   24.4950   36.7710 C   0  0  0  0  0  0  0  0  0  0  0  0
   37.5790   23.8600   38.1430 C   0  0  0  0  0  0  0  0  0  0  0  0
   38.8400   23.0440   38.3270 C   0  0  0  0  0  0  0  0  0  0  0  0
   39.7820   23.6310   37.3780 C   0  0  1  0  0  0  0  0  0  0  0  0
   38.9850   23.2180   34.8820 C   0  0  0  0  0  0  0  0  0  0  0  0
   38.5170   21.9700   34.5280 C   0  0  0  0  0  0  0  0  0  0  0  0
   38.7140   21.5720   33.2050 C   0  0  0  0  0  0  0  0  0  0  0  0
   39.3640   22.4530   32.3370 N   0  0  0  0  0  0  0  0  0  0  0  0
   39.7910   23.6470   32.7450 C   0  0  0  0  0  0  0  0  0  0  0  0
   39.6260   24.0780   34.0080 N   0  0  0  0  0  0  0  0  0  0  0  0
   44.3810   22.7510   35.8990 C   0  0  0  0  0  0  0  0  0  0  0  0
   44.9220   24.0370   36.5150 C   0  0  0  0  0  0  0  0  0  0  0  0
   44.5810   25.1460   35.7760 O   0  0  0  0  0  0  0  0  0  0  0  0
   45.3660   26.1670   35.3200 C   0  0  0  0  0  0  0  0  0  0  0  0
   46.7000   26.0130   35.7170 C   0  0  0  0  0  0  0  0  0  0  0  0
   47.6620   26.9530   35.3510 C   0  0  0  0  0  0  0  0  0  0  0  0
   47.2880   28.0390   34.5940 C   0  0  0  0  0  0  0  0  0  0  0  0
   45.9620   28.2020   34.1940 C   0  0  0  0  0  0  0  0  0  0  0  0
   45.0150   27.2670   34.5590 C   0  0  0  0  0  0  0  0  0  0  0  0
   40.5016   20.8500   37.7213 H   0  0  0  0  0  0  0  0  0  0  0  0
   43.0455   20.3474   36.9091 H   0  0  0  0  0  0  0  0  0  0  0  0
   37.9690   25.5644   36.8479 H   0  0  0  0  0  0  0  0  0  0  0  0
   36.8054   24.4620   36.1652 H   0  0  0  0  0  0  0  0  0  0  0  0
   37.5011   24.6333   38.9214 H   0  0  0  0  0  0  0  0  0  0  0  0
   36.6712   23.2438   38.2216 H   0  0  0  0  0  0  0  0  0  0  0  0
   39.2162   23.1324   39.3569 H   0  0  0  0  0  0  0  0  0  0  0  0
   38.6783   21.9698   38.1537 H   0  0  0  0  0  0  0  0  0  0  0  0
   40.2480   24.5500   37.7630 H   0  0  0  0  0  0  0  0  0  0  0  0
   38.0114   21.3179   35.2554 H   0  0  0  0  0  0  0  0  0  0  0  0
   38.3662   20.5891   32.8543 H   0  0  0  0  0  0  0  0  0  0  0  0
   40.2970   24.3043   32.0225 H   0  0  0  0  0  0  0  0  0  0  0  0
   45.0280   21.9034   36.1693 H   0  0  0  0  0  0  0  0  0  0  0  0
   44.3563   22.8263   34.8019 H   0  0  0  0  0  0  0  0  0  0  0  0
   44.5100   24.1457   37.5291 H   0  0  0  0  0  0  0  0  0  0  0  0
   46.0196   23.9676   36.5366 H   0  0  0  0  0  0  0  0  0  0  0  0
   46.9913   25.1425   36.3231 H   0  0  0  0  0  0  0  0  0  0  0  0
   48.7090   26.8277   35.6642 H   0  0  0  0  0  0  0  0  0  0  0  0
   48.0414   28.7853   34.3016 H   0  0  0  0  0  0  0  0  0  0  0  0
   45.6717   29.0737   33.5891 H   0  0  0  0  0  0  0  0  0  0  0  0
   43.9701   27.3980   34.2413 H   0  0  0  0  0  0  0  0  0  0  0  0
  1  2  2  0
  1 10  1  0
  3  2  1  0
  4  5  1  0
  4  3  2  0
  5  1  1  0
  6  7  1  0
  6 10  1  0
  7  8  1  0
  8  9  1  0
 10  9  1  0
 11  6  1  0
 12 11  2  0
 13 12  1  0
 14 15  1  0
 14 13  2  0
 15 16  2  0
 16 11  1  0
 17  4  1  0
 17 18  1  0
 19 18  1  0
 20 21  2  0
 20 19  1  0
 22 21  1  0
 23 22  2  0
 24 25  2  0
 24 23  1  0
 25 20  1  0
  2 26  1  0
  3 27  1  0
  7 28  1  0
  7 29  1  0
  8 30  1  0
  8 31  1  0
  9 32  1  0
  9 33  1  0
 10 34  1  1
 12 35  1  0
 13 36  1  0
 15 37  1  0
 17 38  1  0
 17 39  1  0
 18 40  1  0
 18 41  1  0
 21 42  1  0
 22 43  1  0
 23 44  1  0
 24 45  1  0
 25 46  1  0
M  ISO  8  26  14  27  14  28  13  29  13  30  13  31  13  32  13  33  13
M  ISO  8  34  13  35  14  36  14  37  14  38   8  39   8  40   8  41   8
M  ISO  5  42  14  43  14  44  14  45  14  46  14
M  END
>  <minimizedAffinity>  (1) 
-4.36041927

>  <minimizedRMSD>  (1) 
1.12547529

$$$$
