
     RDKit          3D

 34 36  0  0  0  0  0  0  0  0999 V2000
   38.1460   23.7570   37.0340 C   0  0  0  0  0  0  0  0  0  0  0  0
   41.4830   22.0250   37.2340 C   0  0  0  0  0  0  0  0  0  0  0  0
   40.1690   22.3210   37.5440 C   0  0  0  0  0  0  0  0  0  0  0  0
   39.5360   23.3470   36.8070 C   0  0  0  0  0  0  0  0  0  0  0  0
   40.2430   23.9920   35.8370 N   0  0  0  0  0  0  0  0  0  0  0  0
   41.5160   23.6730   35.5690 C   0  0  0  0  0  0  0  0  0  0  0  0
   42.1410   22.6920   36.2640 N   0  0  0  0  0  0  0  0  0  0  0  0
   38.0990   24.4180   38.4210 C   0  0  0  0  0  0  0  0  0  0  0  0
   37.5710   24.6450   35.9830 C   0  0  0  0  0  0  0  0  0  0  0  0
   37.2800   22.5120   37.0930 C   0  0  0  0  0  0  0  0  0  0  0  0
   37.0090   21.9070   35.8040 C   0  0  0  0  0  0  0  0  0  0  0  0
   35.9250   21.1490   35.5470 C   0  0  0  0  0  0  0  0  0  0  0  0
   35.6180   20.5700   34.3810 C   0  0  0  0  0  0  0  0  0  0  0  0
   36.6530   20.8770   33.3760 C   0  0  0  0  0  0  0  0  0  0  0  0
   37.9130   21.9590   34.2770 S   0  0  0  0  0  0  0  0  0  0  0  0
   36.8190   20.5170   31.9830 C   0  0  0  0  0  0  0  0  0  0  0  0
   37.7700   20.8710   31.1290 N   0  0  0  0  0  0  0  0  0  0  0  0
   37.5450   20.3240   29.9700 O   0  0  0  0  0  0  0  0  0  0  0  0
   36.4460   19.6000   30.0310 C   0  0  0  0  0  0  0  0  0  0  0  0
   35.9630   19.7030   31.2980 N   0  0  0  0  0  0  0  0  0  0  0  0
   42.0022   21.2299   37.7893 H   0  0  0  0  0  0  0  0  0  0  0  0
   39.6347   21.7769   38.3367 H   0  0  0  0  0  0  0  0  0  0  0  0
   42.0585   24.2118   34.7782 H   0  0  0  0  0  0  0  0  0  0  0  0
   38.1542   23.6423   39.1989 H   0  0  0  0  0  0  0  0  0  0  0  0
   38.9505   25.1061   38.5283 H   0  0  0  0  0  0  0  0  0  0  0  0
   37.1587   24.9787   38.5283 H   0  0  0  0  0  0  0  0  0  0  0  0
   37.0323   25.4769   36.4603 H   0  0  0  0  0  0  0  0  0  0  0  0
   38.3822   25.0447   35.3567 H   0  0  0  0  0  0  0  0  0  0  0  0
   36.8744   24.0684   35.3567 H   0  0  0  0  0  0  0  0  0  0  0  0
   37.7908   21.7676   37.7214 H   0  0  0  0  0  0  0  0  0  0  0  0
   36.3083   22.8258   37.5020 H   0  0  0  0  0  0  0  0  0  0  0  0
   35.2228   20.9906   36.3788 H   0  0  0  0  0  0  0  0  0  0  0  0
   34.7245   19.9550   34.1983 H   0  0  0  0  0  0  0  0  0  0  0  0
   36.0014   19.0196   29.2091 H   0  0  0  0  0  0  0  0  0  0  0  0
  1 10  1  0
  1  8  1  0
  2  3  2  0
  4  1  1  0
  4  3  1  0
  5  4  2  0
  6  5  1  0
  6  7  2  0
  7  2  1  0
  9  1  1  0
 11 10  1  0
 12 11  2  0
 13 12  1  0
 14 15  1  0
 14 13  2  0
 15 11  1  0
 16 14  1  0
 17 16  2  0
 18 19  1  0
 18 17  1  0
 19 20  2  0
 20 16  1  0
  2 21  1  0
  3 22  1  0
  6 23  1  0
  8 24  1  0
  8 25  1  0
  8 26  1  0
  9 27  1  0
  9 28  1  0
  9 29  1  0
 10 30  1  0
 10 31  1  0
 12 32  1  0
 13 33  1  0
 19 34  1  0
M  ISO  8  21  14  22  14  23  14  24   8  25   8  26   8  27   8  28   8
M  ISO  6  29   8  30   8  31   8  32  14  33  14  34  14
M  END
>  <minimizedAffinity>  (1) 
-4.56580305

>  <minimizedRMSD>  (1) 
0.435571402

$$$$
