
     RDKit          3D

 43 46  0  0  1  0  0  0  0  0999 V2000
   38.6780   23.7920   36.3200 N   0  0  0  0  0  0  0  0  0  0  0  0
   37.7110   24.6640   37.0010 C   0  0  0  0  0  0  0  0  0  0  0  0
   37.6910   24.0710   38.3940 C   0  0  0  0  0  0  0  0  0  0  0  0
   38.9190   23.1890   38.4610 C   0  0  0  0  0  0  0  0  0  0  0  0
   39.7560   23.6740   37.3660 C   0  0  1  0  0  0  0  0  0  0  0  0
   38.5990   23.2300   35.0230 C   0  0  0  0  0  0  0  0  0  0  0  0
   38.0110   21.9940   34.7950 C   0  0  0  0  0  0  0  0  0  0  0  0
   37.9910   21.5360   33.4780 C   0  0  0  0  0  0  0  0  0  0  0  0
   38.5510   22.3340   32.4930 N   0  0  0  0  0  0  0  0  0  0  0  0
   39.1070   23.5230   32.7770 C   0  0  0  0  0  0  0  0  0  0  0  0
   39.1490   24.0030   34.0280 N   0  0  0  0  0  0  0  0  0  0  0  0
   40.8780   22.8960   36.9370 C   0  0  0  0  0  0  0  0  0  0  0  0
   41.1340   21.5670   37.3720 C   0  0  0  0  0  0  0  0  0  0  0  0
   42.2950   21.1640   36.7380 C   0  0  0  0  0  0  0  0  0  0  0  0
   42.6810   22.2500   35.9610 C   0  0  0  0  0  0  0  0  0  0  0  0
   41.8230   23.2380   36.1100 O   0  0  0  0  0  0  0  0  0  0  0  0
   43.8950   22.2900   35.0850 C   0  0  0  0  0  0  0  0  0  0  0  0
   45.0290   22.8520   35.9300 C   0  0  0  0  0  0  0  0  0  0  0  0
   44.7610   24.0910   36.4060 O   0  0  0  0  0  0  0  0  0  0  0  0
   44.6760   25.2070   35.5960 C   0  0  0  0  0  0  0  0  0  0  0  0
   43.9230   25.9360   34.6980 C   0  0  0  0  0  0  0  0  0  0  0  0
   44.6240   27.0560   34.2990 C   0  0  0  0  0  0  0  0  0  0  0  0
   45.8140   26.9630   34.9920 C   0  0  0  0  0  0  0  0  0  0  0  0
   45.8130   25.8800   35.7350 O   0  0  0  0  0  0  0  0  0  0  0  0
   38.0539   25.7091   37.0150 H   0  0  0  0  0  0  0  0  0  0  0  0
   36.7240   24.7001   36.5168 H   0  0  0  0  0  0  0  0  0  0  0  0
   37.7434   24.8652   39.1532 H   0  0  0  0  0  0  0  0  0  0  0  0
   36.7665   23.5083   38.5906 H   0  0  0  0  0  0  0  0  0  0  0  0
   39.4321   23.3042   39.4272 H   0  0  0  0  0  0  0  0  0  0  0  0
   38.6798   22.1190   38.3722 H   0  0  0  0  0  0  0  0  0  0  0  0
   40.3253   24.5739   37.6420 H   0  0  0  0  0  0  0  0  0  0  0  0
   37.5801   21.4022   35.6160 H   0  0  0  0  0  0  0  0  0  0  0  0
   37.5413   20.5641   33.2268 H   0  0  0  0  0  0  0  0  0  0  0  0
   39.5399   24.1196   31.9605 H   0  0  0  0  0  0  0  0  0  0  0  0
   40.5281   20.9758   38.0744 H   0  0  0  0  0  0  0  0  0  0  0  0
   42.8036   20.1929   36.8290 H   0  0  0  0  0  0  0  0  0  0  0  0
   43.7133   22.9388   34.2155 H   0  0  0  0  0  0  0  0  0  0  0  0
   44.1432   21.2866   34.7086 H   0  0  0  0  0  0  0  0  0  0  0  0
   45.2011   22.1774   36.7816 H   0  0  0  0  0  0  0  0  0  0  0  0
   45.9173   22.9283   35.2858 H   0  0  0  0  0  0  0  0  0  0  0  0
   42.9147   25.6649   34.3519 H   0  0  0  0  0  0  0  0  0  0  0  0
   44.3083   27.8391   33.5940 H   0  0  0  0  0  0  0  0  0  0  0  0
   46.6396   27.6874   34.9311 H   0  0  0  0  0  0  0  0  0  0  0  0
  1  2  1  0
  1  5  1  0
  2  3  1  0
  3  4  1  0
  5  4  1  0
  6  1  1  0
  7  6  2  0
  8  7  1  0
  9 10  1  0
  9  8  2  0
 10 11  2  0
 11  6  1  0
 12  5  1  0
 12 13  2  0
 14 13  1  0
 15 16  1  0
 15 14  2  0
 16 12  1  0
 17 18  1  0
 17 15  1  0
 18 19  1  0
 20 24  1  0
 20 19  1  0
 21 20  2  0
 22 21  1  0
 22 23  2  0
 23 24  1  0
  2 25  1  0
  2 26  1  0
  3 27  1  0
  3 28  1  0
  4 29  1  0
  4 30  1  0
  5 31  1  1
  7 32  1  0
  8 33  1  0
 10 34  1  0
 13 35  1  0
 14 36  1  0
 17 37  1  0
 17 38  1  0
 18 39  1  0
 18 40  1  0
 21 41  1  0
 22 42  1  0
 23 43  1  0
M  ISO  8  25  13  26  13  27  13  28  13  29  13  30  13  31  13  32  14
M  ISO  8  33  14  34  14  35  14  36  14  37   8  38   8  39   8  40   8
M  ISO  3  41  14  42  14  43  14
M  END
>  <minimizedAffinity>  (1) 
-4.20920134

>  <minimizedRMSD>  (1) 
0.960076034

$$$$
