
     RDKit          3D

 41 44  0  0  1  0  0  0  0  0999 V2000
   39.1800   23.3930   36.1140 N   0  0  0  0  0  0  0  0  0  0  0  0
   39.5160   22.8380   37.4150 C   0  0  0  0  0  0  0  0  0  0  0  0
   38.6760   23.2400   38.5560 C   0  0  0  0  0  0  0  0  0  0  0  0
   38.0350   24.5800   38.5220 C   0  0  0  0  0  0  0  0  0  0  0  0
   37.7280   25.0560   37.1120 C   0  0  0  0  0  0  0  0  0  0  0  0
   39.0190   24.8050   36.2780 C   0  0  2  0  0  0  0  0  0  0  0  0
   38.7960   25.5920   35.0590 C   0  0  0  0  0  0  0  0  0  0  0  0
   37.5600   25.8150   34.5030 C   0  0  0  0  0  0  0  0  0  0  0  0
   37.3000   26.5560   33.3700 C   0  0  0  0  0  0  0  0  0  0  0  0
   38.3490   27.1490   32.7020 C   0  0  0  0  0  0  0  0  0  0  0  0
   39.6180   26.9700   33.2020 C   0  0  0  0  0  0  0  0  0  0  0  0
   40.6410   27.5780   32.5080 C   0  0  0  0  0  0  0  0  0  0  0  0
   41.9430   27.4510   32.9390 C   0  0  0  0  0  0  0  0  0  0  0  0
   42.1650   26.6900   34.0930 C   0  0  0  0  0  0  0  0  0  0  0  0
   41.1080   26.1140   34.7340 C   0  0  0  0  0  0  0  0  0  0  0  0
   39.8020   26.2230   34.3280 C   0  0  0  0  0  0  0  0  0  0  0  0
   39.0490   22.6330   34.9270 C   0  0  0  0  0  0  0  0  0  0  0  0
   40.1390   22.3270   34.0820 C   0  0  0  0  0  0  0  0  0  0  0  0
   39.8520   21.5720   32.9340 C   0  0  0  0  0  0  0  0  0  0  0  0
   38.5730   21.1850   32.7050 N   0  0  0  0  0  0  0  0  0  0  0  0
   37.5770   21.5060   33.5470 C   0  0  0  0  0  0  0  0  0  0  0  0
   37.8010   22.2270   34.6580 N   0  0  0  0  0  0  0  0  0  0  0  0
   39.4592   21.7426   37.3321 H   0  0  0  0  0  0  0  0  0  0  0  0
   40.5150   23.2374   37.6440 H   0  0  0  0  0  0  0  0  0  0  0  0
   37.8707   22.4961   38.6454 H   0  0  0  0  0  0  0  0  0  0  0  0
   39.3767   23.2960   39.4021 H   0  0  0  0  0  0  0  0  0  0  0  0
   37.0934   24.5326   39.0887 H   0  0  0  0  0  0  0  0  0  0  0  0
   38.7445   25.2953   38.9635 H   0  0  0  0  0  0  0  0  0  0  0  0
   36.8860   24.4863   36.6921 H   0  0  0  0  0  0  0  0  0  0  0  0
   37.4437   26.1186   37.1006 H   0  0  0  0  0  0  0  0  0  0  0  0
   39.9715   25.1228   36.7272 H   0  0  0  0  0  0  0  0  0  0  0  0
   36.6963   25.3594   35.0095 H   0  0  0  0  0  0  0  0  0  0  0  0
   36.2691   26.6722   33.0042 H   0  0  0  0  0  0  0  0  0  0  0  0
   38.1769   27.7479   31.7956 H   0  0  0  0  0  0  0  0  0  0  0  0
   40.4172   28.1670   31.6064 H   0  0  0  0  0  0  0  0  0  0  0  0
   42.7741   27.9278   32.3988 H   0  0  0  0  0  0  0  0  0  0  0  0
   43.1860   26.5575   34.4804 H   0  0  0  0  0  0  0  0  0  0  0  0
   41.3166   25.5221   35.6374 H   0  0  0  0  0  0  0  0  0  0  0  0
   41.1608   22.6633   34.3120 H   0  0  0  0  0  0  0  0  0  0  0  0
   40.6526   21.2985   32.2309 H   0  0  0  0  0  0  0  0  0  0  0  0
   36.5539   21.1706   33.3215 H   0  0  0  0  0  0  0  0  0  0  0  0
  1  6  1  0
  1  2  1  0
  2  3  1  0
  4  3  1  0
  5  4  1  0
  6  5  1  0
  7  6  1  0
  8  7  2  0
  9  8  1  0
 10 11  1  0
 10  9  2  0
 11 16  2  0
 12 13  2  0
 12 11  1  0
 13 14  1  0
 14 15  2  0
 16 15  1  0
 16  7  1  0
 17  1  1  0
 18 17  2  0
 19 18  1  0
 20 19  2  0
 20 21  1  0
 21 22  2  0
 22 17  1  0
  2 23  1  0
  2 24  1  0
  3 25  1  0
  3 26  1  0
  4 27  1  0
  4 28  1  0
  5 29  1  0
  5 30  1  0
  6 31  1  1
  8 32  1  0
  9 33  1  0
 10 34  1  0
 12 35  1  0
 13 36  1  0
 14 37  1  0
 15 38  1  0
 18 39  1  0
 19 40  1  0
 21 41  1  0
M  ISO  8  23  13  24  13  25  13  26  13  27  13  28  13  29  13  30  13
M  ISO  8  31  13  32  14  33  14  34  14  35  14  36  14  37  14  38  14
M  ISO  3  39  14  40  14  41  14
M  END
>  <minimizedAffinity>  (1) 
-5.45039845

>  <minimizedRMSD>  (1) 
3.00967717

$$$$
