
     RDKit          3D

 39 42  0  0  1  0  0  0  0  0999 V2000
   38.9930   23.8850   34.4150 N   0  0  0  0  0  0  0  0  0  0  0  0
   40.2430   23.9630   33.7170 C   0  0  0  0  0  0  0  0  0  0  0  0
   40.3890   25.0320   32.7290 C   0  0  0  0  0  0  0  0  0  0  0  0
   39.1740   25.5120   32.0230 C   0  0  0  0  0  0  0  0  0  0  0  0
   37.9380   25.3890   32.8600 C   0  0  0  0  0  0  0  0  0  0  0  0
   37.8710   24.0020   33.4880 C   0  0  1  0  0  0  0  0  0  0  0  0
   37.8110   22.9250   32.5000 C   0  0  0  0  0  0  0  0  0  0  0  0
   38.4180   22.8640   31.2980 N   0  0  0  0  0  0  0  0  0  0  0  0
   38.3550   21.8760   30.4260 C   0  0  0  0  0  0  0  0  0  0  0  0
   37.6390   20.7720   30.6620 N   0  0  0  0  0  0  0  0  0  0  0  0
   36.9800   20.7110   31.8410 C   0  0  0  0  0  0  0  0  0  0  0  0
   36.2340   19.5810   32.0990 C   0  0  0  0  0  0  0  0  0  0  0  0
   35.5410   19.4620   33.2740 C   0  0  0  0  0  0  0  0  0  0  0  0
   35.5920   20.4770   34.1930 C   0  0  0  0  0  0  0  0  0  0  0  0
   36.3540   21.5850   33.8830 C   0  0  0  0  0  0  0  0  0  0  0  0
   37.0780   21.7770   32.7240 C   0  0  0  0  0  0  0  0  0  0  0  0
   38.8550   23.7190   35.8360 C   0  0  0  0  0  0  0  0  0  0  0  0
   37.8130   24.2460   36.5950 C   0  0  0  0  0  0  0  0  0  0  0  0
   37.8350   23.9920   37.9710 C   0  0  0  0  0  0  0  0  0  0  0  0
   38.8570   23.2550   38.4840 N   0  0  0  0  0  0  0  0  0  0  0  0
   39.8500   22.7630   37.7060 C   0  0  0  0  0  0  0  0  0  0  0  0
   39.8400   22.9990   36.3910 N   0  0  0  0  0  0  0  0  0  0  0  0
   41.0347   24.0964   34.4690 H   0  0  0  0  0  0  0  0  0  0  0  0
   40.3042   23.0299   33.1378 H   0  0  0  0  0  0  0  0  0  0  0  0
   40.8265   25.8973   33.2484 H   0  0  0  0  0  0  0  0  0  0  0  0
   41.0039   24.5838   31.9346 H   0  0  0  0  0  0  0  0  0  0  0  0
   39.3157   26.5698   31.7564 H   0  0  0  0  0  0  0  0  0  0  0  0
   39.0366   24.8847   31.1299 H   0  0  0  0  0  0  0  0  0  0  0  0
   37.9593   26.1486   33.6554 H   0  0  0  0  0  0  0  0  0  0  0  0
   37.0538   25.5408   32.2235 H   0  0  0  0  0  0  0  0  0  0  0  0
   36.9274   23.8874   34.0417 H   0  0  0  0  0  0  0  0  0  0  0  0
   38.9069   21.9630   29.4785 H   0  0  0  0  0  0  0  0  0  0  0  0
   36.1951   18.7701   31.3567 H   0  0  0  0  0  0  0  0  0  0  0  0
   34.9479   18.5585   33.4785 H   0  0  0  0  0  0  0  0  0  0  0  0
   35.0446   20.4110   35.1448 H   0  0  0  0  0  0  0  0  0  0  0  0
   36.3874   22.3914   34.6304 H   0  0  0  0  0  0  0  0  0  0  0  0
   37.0078   24.8362   36.1330 H   0  0  0  0  0  0  0  0  0  0  0  0
   37.0410   24.3809   38.6254 H   0  0  0  0  0  0  0  0  0  0  0  0
   40.6616   22.1714   38.1548 H   0  0  0  0  0  0  0  0  0  0  0  0
  1 17  1  0
  2  1  1  0
  3  2  1  0
  4  3  1  0
  4  5  1  0
  5  6  1  0
  6  1  1  0
  7 16  1  0
  7  6  1  0
  8  7  2  0
  9 10  2  0
  9  8  1  0
 10 11  1  0
 11 12  1  0
 11 16  2  0
 12 13  2  0
 13 14  1  0
 15 14  2  0
 16 15  1  0
 17 22  1  0
 17 18  2  0
 18 19  1  0
 19 20  2  0
 21 20  1  0
 22 21  2  0
  2 23  1  0
  2 24  1  0
  3 25  1  0
  3 26  1  0
  4 27  1  0
  4 28  1  0
  5 29  1  0
  5 30  1  0
  6 31  1  1
  9 32  1  0
 12 33  1  0
 13 34  1  0
 14 35  1  0
 15 36  1  0
 18 37  1  0
 19 38  1  0
 21 39  1  0
M  ISO  8  23  13  24  13  25  13  26  13  27  13  28  13  29  13  30  13
M  ISO  8  31  13  32  14  33  14  34  14  35  14  36  14  37  14  38  14
M  ISO  1  39  14
M  END
>  <minimizedAffinity>  (1) 
-5.19391108

>  <minimizedRMSD>  (1) 
6.5122757

$$$$
