
     RDKit          3D

 38 40  0  0  1  0  0  0  0  0999 V2000
   38.1880   22.8340   35.9160 N   0  0  0  0  0  0  0  0  0  0  0  0
   39.5590   22.5580   36.2820 C   0  0  0  0  0  0  0  0  0  0  0  0
   39.9050   22.6470   37.7240 C   0  0  0  0  0  0  0  0  0  0  0  0
   39.1290   23.5900   38.5660 C   0  0  0  0  0  0  0  0  0  0  0  0
   37.7200   23.8410   38.0580 C   0  0  0  0  0  0  0  0  0  0  0  0
   37.8220   24.0610   36.5400 C   0  0  1  0  0  0  0  0  0  0  0  0
   37.3900   22.0060   35.0910 C   0  0  0  0  0  0  0  0  0  0  0  0
   37.5610   21.8360   33.7230 C   0  0  0  0  0  0  0  0  0  0  0  0
   36.7200   21.0020   33.0090 C   0  0  0  0  0  0  0  0  0  0  0  0
   35.7420   20.3780   33.7080 N   0  0  0  0  0  0  0  0  0  0  0  0
   35.5850   20.5480   35.0250 C   0  0  0  0  0  0  0  0  0  0  0  0
   36.4060   21.3590   35.7090 N   0  0  0  0  0  0  0  0  0  0  0  0
   38.7280   25.1930   36.2110 C   0  0  0  0  0  0  0  0  0  0  0  0
   38.7880   25.3730   34.7140 C   0  0  0  0  0  0  0  0  0  0  0  0
   39.2220   26.8370   34.5910 C   0  0  0  0  0  0  0  0  0  0  0  0
   38.2330   27.4800   35.5510 C   0  0  0  0  0  0  0  0  0  0  0  0
   38.3140   26.5270   36.7360 C   0  0  0  0  0  0  0  0  0  0  0  0
   39.7921   21.5363   35.9476 H   0  0  0  0  0  0  0  0  0  0  0  0
   40.1481   23.3511   35.7983 H   0  0  0  0  0  0  0  0  0  0  0  0
   39.7779   21.6426   38.1542 H   0  0  0  0  0  0  0  0  0  0  0  0
   40.9308   23.0439   37.7381 H   0  0  0  0  0  0  0  0  0  0  0  0
   39.0633   23.1751   39.5826 H   0  0  0  0  0  0  0  0  0  0  0  0
   39.6574   24.5545   38.5409 H   0  0  0  0  0  0  0  0  0  0  0  0
   37.0809   22.9715   38.2716 H   0  0  0  0  0  0  0  0  0  0  0  0
   37.2747   24.7169   38.5525 H   0  0  0  0  0  0  0  0  0  0  0  0
   36.8423   24.3588   36.1382 H   0  0  0  0  0  0  0  0  0  0  0  0
   38.3713   22.3687   33.2038 H   0  0  0  0  0  0  0  0  0  0  0  0
   36.8396   20.8527   31.9258 H   0  0  0  0  0  0  0  0  0  0  0  0
   34.7768   20.0190   35.5513 H   0  0  0  0  0  0  0  0  0  0  0  0
   39.6807   24.9097   36.6822 H   0  0  0  0  0  0  0  0  0  0  0  0
   39.5265   24.6968   34.2587 H   0  0  0  0  0  0  0  0  0  0  0  0
   37.8429   25.1440   34.1998 H   0  0  0  0  0  0  0  0  0  0  0  0
   40.2626   26.9842   34.9159 H   0  0  0  0  0  0  0  0  0  0  0  0
   39.2094   27.2423   33.5685 H   0  0  0  0  0  0  0  0  0  0  0  0
   38.5441   28.4977   35.8294 H   0  0  0  0  0  0  0  0  0  0  0  0
   37.2204   27.6067   35.1403 H   0  0  0  0  0  0  0  0  0  0  0  0
   37.3312   26.4501   37.2240 H   0  0  0  0  0  0  0  0  0  0  0  0
   39.0382   26.8929   37.4787 H   0  0  0  0  0  0  0  0  0  0  0  0
  1  2  1  0
  1  6  1  0
  2  3  1  0
  3  4  1  0
  5  4  1  0
  6  5  1  0
  7 12  1  0
  7  1  1  0
  8  7  2  0
  9 10  2  0
  9  8  1  0
 10 11  1  0
 11 12  2  0
 13  6  1  0
 13 17  1  0
 14 13  1  0
 15 14  1  0
 15 16  1  0
 16 17  1  0
  2 18  1  0
  2 19  1  0
  3 20  1  0
  3 21  1  0
  4 22  1  0
  4 23  1  0
  5 24  1  0
  5 25  1  0
  6 26  1  6
  8 27  1  0
  9 28  1  0
 11 29  1  0
 13 30  1  0
 14 31  1  0
 14 32  1  0
 15 33  1  0
 15 34  1  0
 16 35  1  0
 16 36  1  0
 17 37  1  0
 17 38  1  0
M  ISO  8  18  13  19  13  20  13  21  13  22  13  23  13  24  13  25  13
M  ISO  8  26  13  27  14  28  14  29  14  30  13  31  13  32  13  33  13
M  ISO  5  34  13  35  13  36  13  37  13  38  13
M  END
>  <minimizedAffinity>  (1) 
-5.14757776

>  <minimizedRMSD>  (1) 
1.6264689

$$$$
