
     RDKit          3D

 39 42  0  0  1  0  0  0  0  0999 V2000
   38.2070   24.4460   36.2060 N   0  0  0  0  0  0  0  0  0  0  0  0
   37.5710   24.9300   37.4060 C   0  0  0  0  0  0  0  0  0  0  0  0
   38.1950   24.5970   38.6950 C   0  0  0  0  0  0  0  0  0  0  0  0
   38.9360   23.3000   38.7820 C   0  0  0  0  0  0  0  0  0  0  0  0
   39.5170   22.8550   37.4710 C   0  0  0  0  0  0  0  0  0  0  0  0
   38.4450   23.0440   36.3840 C   0  0  2  0  0  0  0  0  0  0  0  0
   38.9540   22.4640   35.1560 N   0  0  0  0  0  0  0  0  0  0  0  0
   40.2580   22.3990   34.8290 C   0  0  0  0  0  0  0  0  0  0  0  0
   40.3860   21.8010   33.6210 N   0  0  0  0  0  0  0  0  0  0  0  0
   39.1670   21.4780   33.1690 C   0  0  0  0  0  0  0  0  0  0  0  0
   38.7010   20.8610   32.0180 C   0  0  0  0  0  0  0  0  0  0  0  0
   39.5210   20.4790   31.1350 O   0  0  0  0  0  0  0  0  0  0  0  0
   37.3840   20.6660   31.8330 N   0  0  0  0  0  0  0  0  0  0  0  0
   36.5280   21.0900   32.8030 C   0  0  0  0  0  0  0  0  0  0  0  0
   35.1450   20.8440   32.5280 N   0  0  0  0  0  0  0  0  0  0  0  0
   36.9510   21.6980   33.9440 N   0  0  0  0  0  0  0  0  0  0  0  0
   38.2760   21.8940   34.1290 C   0  0  0  0  0  0  0  0  0  0  0  0
   38.5270   25.2310   35.0710 C   0  0  0  0  0  0  0  0  0  0  0  0
   37.6960   25.3730   33.9470 C   0  0  0  0  0  0  0  0  0  0  0  0
   38.1230   26.1700   32.8980 C   0  0  0  0  0  0  0  0  0  0  0  0
   39.3310   26.7750   33.0140 N   0  0  0  0  0  0  0  0  0  0  0  0
   40.1090   26.6220   34.1050 C   0  0  0  0  0  0  0  0  0  0  0  0
   39.7000   25.8540   35.1170 N   0  0  0  0  0  0  0  0  0  0  0  0
   37.5291   26.0269   37.3355 H   0  0  0  0  0  0  0  0  0  0  0  0
   36.5976   24.4182   37.4292 H   0  0  0  0  0  0  0  0  0  0  0  0
   38.9061   25.4010   38.9358 H   0  0  0  0  0  0  0  0  0  0  0  0
   37.3550   24.4909   39.3973 H   0  0  0  0  0  0  0  0  0  0  0  0
   39.7564   23.4152   39.5056 H   0  0  0  0  0  0  0  0  0  0  0  0
   38.2115   22.5328   39.0928 H   0  0  0  0  0  0  0  0  0  0  0  0
   40.4026   23.4616   37.2306 H   0  0  0  0  0  0  0  0  0  0  0  0
   39.8202   21.7991   37.5275 H   0  0  0  0  0  0  0  0  0  0  0  0
   37.5006   22.5561   36.6671 H   0  0  0  0  0  0  0  0  0  0  0  0
   41.0886   22.7727   35.4458 H   0  0  0  0  0  0  0  0  0  0  0  0
   37.0319   20.2081   30.9802 H   0  0  0  0  0  0  0  0  0  0  0  0
   34.4258   21.1315   33.2070 H   0  0  0  0  0  0  0  0  0  0  0  0
   34.8690   20.3795   31.6511 H   0  0  0  0  0  0  0  0  0  0  0  0
   36.7238   24.8604   33.9011 H   0  0  0  0  0  0  0  0  0  0  0  0
   37.5026   26.3077   32.0002 H   0  0  0  0  0  0  0  0  0  0  0  0
   41.0825   27.1312   34.1608 H   0  0  0  0  0  0  0  0  0  0  0  0
  1  6  1  0
  1  2  1  0
  2  3  1  0
  3  4  1  0
  5  4  1  0
  6  5  1  0
  7  6  1  0
  8  7  1  0
  9  8  2  0
 10  9  1  0
 10 17  2  0
 11 10  1  0
 12 11  2  0
 13 11  1  0
 13 14  1  0
 14 16  2  0
 15 14  1  0
 16 17  1  0
 17  7  1  0
 18 23  1  0
 18  1  1  0
 19 18  2  0
 20 21  2  0
 20 19  1  0
 21 22  1  0
 22 23  2  0
  2 24  1  0
  2 25  1  0
  3 26  1  0
  3 27  1  0
  4 28  1  0
  4 29  1  0
  5 30  1  0
  5 31  1  0
  6 32  1  1
  8 33  1  0
 13 34  1  0
 15 35  1  0
 15 36  1  0
 19 37  1  0
 20 38  1  0
 22 39  1  0
M  ISO  8  24  13  25  13  26  13  27  13  28  13  29  13  30  13  31  13
M  ISO  6  32  13  33  14  34   9  37  14  38  14  39  14
M  END
>  <minimizedAffinity>  (1) 
-5.00545502

>  <minimizedRMSD>  (1) 
5.43076468

$$$$
