
     RDKit          3D

 36 39  0  0  1  0  0  0  0  0999 V2000
   39.2870   23.5290   35.9790 N   0  0  0  0  0  0  0  0  0  0  0  0
   39.4270   23.0290   37.3250 C   0  0  0  0  0  0  0  0  0  0  0  0
   40.6770   22.3170   37.6660 C   0  0  0  0  0  0  0  0  0  0  0  0
   41.3840   21.5980   36.5830 C   0  0  0  0  0  0  0  0  0  0  0  0
   41.1190   22.1550   35.2020 C   0  0  0  0  0  0  0  0  0  0  0  0
   39.6210   22.4610   35.0770 C   0  0  2  0  0  0  0  0  0  0  0  0
   39.4280   22.9360   33.7200 N   0  0  0  0  0  0  0  0  0  0  0  0
   40.3470   23.5470   32.9550 C   0  0  0  0  0  0  0  0  0  0  0  0
   39.8640   23.8660   31.7460 N   0  0  0  0  0  0  0  0  0  0  0  0
   38.5740   23.4460   31.7190 C   0  0  0  0  0  0  0  0  0  0  0  0
   37.6240   23.5300   30.7100 C   0  0  0  0  0  0  0  0  0  0  0  0
   36.4070   23.0200   30.9740 N   0  0  0  0  0  0  0  0  0  0  0  0
   36.1760   22.4660   32.1730 C   0  0  0  0  0  0  0  0  0  0  0  0
   37.1010   22.3780   33.1720 N   0  0  0  0  0  0  0  0  0  0  0  0
   38.3270   22.8760   32.9480 C   0  0  0  0  0  0  0  0  0  0  0  0
   38.8900   24.8470   35.6260 C   0  0  0  0  0  0  0  0  0  0  0  0
   37.5630   25.2710   35.5190 C   0  0  0  0  0  0  0  0  0  0  0  0
   37.3150   26.5870   35.1670 C   0  0  0  0  0  0  0  0  0  0  0  0
   38.3820   27.4000   34.9430 N   0  0  0  0  0  0  0  0  0  0  0  0
   39.6590   26.9580   35.0550 C   0  0  0  0  0  0  0  0  0  0  0  0
   39.8950   25.6890   35.3950 N   0  0  0  0  0  0  0  0  0  0  0  0
   39.3424   23.8890   38.0056 H   0  0  0  0  0  0  0  0  0  0  0  0
   38.6379   22.2690   37.4232 H   0  0  0  0  0  0  0  0  0  0  0  0
   41.3761   23.0611   38.0755 H   0  0  0  0  0  0  0  0  0  0  0  0
   40.3615   21.5252   38.3614 H   0  0  0  0  0  0  0  0  0  0  0  0
   42.4651   21.6551   36.7778 H   0  0  0  0  0  0  0  0  0  0  0  0
   41.0077   20.5644   36.5877 H   0  0  0  0  0  0  0  0  0  0  0  0
   41.6992   23.0782   35.0572 H   0  0  0  0  0  0  0  0  0  0  0  0
   41.4181   21.4227   34.4376 H   0  0  0  0  0  0  0  0  0  0  0  0
   39.0031   21.5802   35.3059 H   0  0  0  0  0  0  0  0  0  0  0  0
   41.3753   23.7606   33.2820 H   0  0  0  0  0  0  0  0  0  0  0  0
   37.8556   23.9923   29.7391 H   0  0  0  0  0  0  0  0  0  0  0  0
   35.1737   22.0550   32.3639 H   0  0  0  0  0  0  0  0  0  0  0  0
   36.7333   24.5745   35.7102 H   0  0  0  0  0  0  0  0  0  0  0  0
   36.2859   26.9636   35.0714 H   0  0  0  0  0  0  0  0  0  0  0  0
   40.4983   27.6435   34.8661 H   0  0  0  0  0  0  0  0  0  0  0  0
  1  2  1  0
  2  3  1  0
  4  3  1  0
  5  4  1  0
  6  5  1  0
  6  1  1  0
  7  6  1  0
  8  7  1  0
  9  8  2  0
 10  9  1  0
 10 15  2  0
 11 12  2  0
 11 10  1  0
 12 13  1  0
 13 14  2  0
 15 14  1  0
 15  7  1  0
 16  1  1  0
 17 16  2  0
 18 17  1  0
 19 20  1  0
 19 18  2  0
 20 21  2  0
 21 16  1  0
  2 22  1  0
  2 23  1  0
  3 24  1  0
  3 25  1  0
  4 26  1  0
  4 27  1  0
  5 28  1  0
  5 29  1  0
  6 30  1  1
  8 31  1  0
 11 32  1  0
 13 33  1  0
 17 34  1  0
 18 35  1  0
 20 36  1  0
M  ISO  8  22  13  23  13  24  13  25  13  26  13  27  13  28  13  29  13
M  ISO  7  30  13  31  14  32  14  33  14  34  14  35  14  36  14
M  END
>  <minimizedAffinity>  (1) 
-4.54453421

>  <minimizedRMSD>  (1) 
4.75492144

$$$$
