
     RDKit          3D

 36 38  0  0  1  0  0  0  0  0999 V2000
   38.5250   23.3500   34.9490 N   0  0  0  0  0  0  0  0  0  0  0  0
   37.8660   22.3100   35.6980 C   0  0  0  0  0  0  0  0  0  0  0  0
   37.1470   22.7140   36.9180 C   0  0  0  0  0  0  0  0  0  0  0  0
   37.6180   23.9150   37.6440 C   0  0  0  0  0  0  0  0  0  0  0  0
   38.3140   24.9190   36.7740 C   0  0  0  0  0  0  0  0  0  0  0  0
   39.2890   24.1560   35.8530 C   0  0  2  0  0  0  0  0  0  0  0  0
   40.0950   25.1220   35.1630 N   0  0  0  0  0  0  0  0  0  0  0  0
   39.5230   26.2860   34.8250 C   0  0  0  0  0  0  0  0  0  0  0  0
   40.3070   27.2260   34.1540 C   0  0  0  0  0  0  0  0  0  0  0  0
   41.6220   26.9260   33.8680 C   0  0  0  0  0  0  0  0  0  0  0  0
   42.4450   27.8630   33.1850 N   0  0  0  0  0  0  0  0  0  0  0  0
   42.1590   25.7270   34.2320 N   0  0  0  0  0  0  0  0  0  0  0  0
   41.3910   24.8290   34.8800 C   0  0  0  0  0  0  0  0  0  0  0  0
   41.8810   23.7120   35.2220 O   0  0  0  0  0  0  0  0  0  0  0  0
   38.4310   23.5410   33.5400 C   0  0  0  0  0  0  0  0  0  0  0  0
   39.2940   23.0000   32.5890 C   0  0  0  0  0  0  0  0  0  0  0  0
   39.0680   23.2800   31.2520 C   0  0  0  0  0  0  0  0  0  0  0  0
   38.0120   24.0720   30.9250 N   0  0  0  0  0  0  0  0  0  0  0  0
   37.1890   24.5870   31.8660 C   0  0  0  0  0  0  0  0  0  0  0  0
   37.4100   24.3140   33.1490 N   0  0  0  0  0  0  0  0  0  0  0  0
   37.1377   21.8299   35.0279 H   0  0  0  0  0  0  0  0  0  0  0  0
   38.6770   21.6553   36.0496 H   0  0  0  0  0  0  0  0  0  0  0  0
   36.0997   22.8946   36.6343 H   0  0  0  0  0  0  0  0  0  0  0  0
   37.3190   21.8862   37.6216 H   0  0  0  0  0  0  0  0  0  0  0  0
   36.7477   24.4028   38.1072 H   0  0  0  0  0  0  0  0  0  0  0  0
   38.3544   23.5708   38.3851 H   0  0  0  0  0  0  0  0  0  0  0  0
   37.5753   25.4630   36.1670 H   0  0  0  0  0  0  0  0  0  0  0  0
   38.8613   25.6462   37.3917 H   0  0  0  0  0  0  0  0  0  0  0  0
   39.9544   23.4893   36.4210 H   0  0  0  0  0  0  0  0  0  0  0  0
   38.4705   26.4937   35.0683 H   0  0  0  0  0  0  0  0  0  0  0  0
   39.8804   28.1954   33.8567 H   0  0  0  0  0  0  0  0  0  0  0  0
   43.4262   27.6301   32.9757 H   0  0  0  0  0  0  0  0  0  0  0  0
   42.0599   28.7747   32.8996 H   0  0  0  0  0  0  0  0  0  0  0  0
   40.1376   22.3635   32.8943 H   0  0  0  0  0  0  0  0  0  0  0  0
   39.7275   22.8712   30.4722 H   0  0  0  0  0  0  0  0  0  0  0  0
   36.3434   25.2266   31.5730 H   0  0  0  0  0  0  0  0  0  0  0  0
  1  2  1  0
  1  6  1  0
  2  3  1  0
  3  4  1  0
  5  4  1  0
  6  5  1  0
  7  6  1  0
  8  7  1  0
  9  8  2  0
 10  9  1  0
 10 12  2  0
 11 10  1  0
 12 13  1  0
 13  7  1  0
 13 14  2  0
 15  1  1  0
 16 15  2  0
 17 16  1  0
 18 17  2  0
 18 19  1  0
 19 20  2  0
 20 15  1  0
  2 21  1  0
  2 22  1  0
  3 23  1  0
  3 24  1  0
  4 25  1  0
  4 26  1  0
  5 27  1  0
  5 28  1  0
  6 29  1  1
  8 30  1  0
  9 31  1  0
 11 32  1  0
 11 33  1  0
 16 34  1  0
 17 35  1  0
 19 36  1  0
M  ISO  8  21  13  22  13  23  13  24  13  25  13  26  13  27  13  28  13
M  ISO  6  29  13  30  14  31  14  34  14  35  14  36  14
M  END
>  <minimizedAffinity>  (1) 
-4.5170064

>  <minimizedRMSD>  (1) 
4.00917244

$$$$
