
     RDKit          3D

 39 41  0  0  1  0  0  0  0  0999 V2000
   38.1900   22.8940   34.5970 N   0  0  0  0  0  0  0  0  0  0  0  0
   37.3070   21.8230   34.1860 C   0  0  0  0  0  0  0  0  0  0  0  0
   37.0500   21.6990   32.7310 C   0  0  0  0  0  0  0  0  0  0  0  0
   37.1150   22.9200   31.8970 C   0  0  0  0  0  0  0  0  0  0  0  0
   38.0660   23.9590   32.4370 C   0  0  0  0  0  0  0  0  0  0  0  0
   37.7910   24.1020   33.9500 C   0  0  2  0  0  0  0  0  0  0  0  0
   39.2870   22.7340   35.5110 C   0  0  0  0  0  0  0  0  0  0  0  0
   39.1690   22.8210   36.9020 C   0  0  0  0  0  0  0  0  0  0  0  0
   40.3380   22.6470   37.6460 C   0  0  0  0  0  0  0  0  0  0  0  0
   41.5060   22.4070   37.0000 N   0  0  0  0  0  0  0  0  0  0  0  0
   41.5660   22.3330   35.6590 C   0  0  0  0  0  0  0  0  0  0  0  0
   40.4740   22.4930   34.9190 N   0  0  0  0  0  0  0  0  0  0  0  0
   38.3160   25.3170   34.4670 N   0  0  0  0  0  0  0  0  0  0  0  0
   39.2310   26.0370   33.6520 C   0  0  0  0  0  0  0  0  0  0  0  0
   40.0680   26.9120   34.5680 C   0  0  0  0  0  0  0  0  0  0  0  0
   39.3380   27.2670   35.7690 N   0  0  0  0  0  0  0  0  0  0  0  0
   37.9460   27.5070   35.3720 C   0  0  0  0  0  0  0  0  0  0  0  0
   37.3470   26.1370   35.1320 C   0  0  0  0  0  0  0  0  0  0  0  0
   37.7483   20.8757   34.5293 H   0  0  0  0  0  0  0  0  0  0  0  0
   36.3314   22.0617   34.6346 H   0  0  0  0  0  0  0  0  0  0  0  0
   37.7902   20.9914   32.3294 H   0  0  0  0  0  0  0  0  0  0  0  0
   35.9975   21.3854   32.6687 H   0  0  0  0  0  0  0  0  0  0  0  0
   36.1087   23.3611   31.8441 H   0  0  0  0  0  0  0  0  0  0  0  0
   37.4873   22.6196   30.9065 H   0  0  0  0  0  0  0  0  0  0  0  0
   39.1052   23.6375   32.2733 H   0  0  0  0  0  0  0  0  0  0  0  0
   37.9185   24.9212   31.9248 H   0  0  0  0  0  0  0  0  0  0  0  0
   36.7169   24.2110   34.1610 H   0  0  0  0  0  0  0  0  0  0  0  0
   38.2013   23.0172   37.3869 H   0  0  0  0  0  0  0  0  0  0  0  0
   40.3117   22.7040   38.7442 H   0  0  0  0  0  0  0  0  0  0  0  0
   42.5309   22.1376   35.1683 H   0  0  0  0  0  0  0  0  0  0  0  0
   39.8798   25.3360   33.1064 H   0  0  0  0  0  0  0  0  0  0  0  0
   38.6928   26.6513   32.9152 H   0  0  0  0  0  0  0  0  0  0  0  0
   40.9796   26.3653   34.8512 H   0  0  0  0  0  0  0  0  0  0  0  0
   40.3206   27.8371   34.0290 H   0  0  0  0  0  0  0  0  0  0  0  0
   39.3832   26.4963   36.4508 H   0  0  0  0  0  0  0  0  0  0  0  0
   37.4027   28.0281   36.1740 H   0  0  0  0  0  0  0  0  0  0  0  0
   37.8828   28.1408   34.4752 H   0  0  0  0  0  0  0  0  0  0  0  0
   36.4493   26.2314   34.5033 H   0  0  0  0  0  0  0  0  0  0  0  0
   37.0671   25.6791   36.0922 H   0  0  0  0  0  0  0  0  0  0  0  0
  1  7  1  0
  2  1  1  0
  3  2  1  0
  4  5  1  0
  4  3  1  0
  5  6  1  0
  6 13  1  0
  6  1  1  0
  7  8  2  0
  8  9  1  0
 10  9  2  0
 11 10  1  0
 12  7  1  0
 12 11  2  0
 13 18  1  0
 14 13  1  0
 14 15  1  0
 15 16  1  0
 17 16  1  0
 18 17  1  0
  2 19  1  0
  2 20  1  0
  3 21  1  0
  3 22  1  0
  4 23  1  0
  4 24  1  0
  5 25  1  0
  5 26  1  0
  6 27  1  6
  8 28  1  0
  9 29  1  0
 11 30  1  0
 14 31  1  0
 14 32  1  0
 15 33  1  0
 15 34  1  0
 16 35  1  0
 17 36  1  0
 17 37  1  0
 18 38  1  0
 18 39  1  0
M  ISO  8  19  13  20  13  21  13  22  13  23  13  24  13  25  13  26  13
M  ISO  8  27  13  28  14  29  14  30  14  31  13  32  13  33  13  34  13
M  ISO  5  35   5  36  13  37  13  38  13  39  13
M  END
>  <minimizedAffinity>  (1) 
-4.27102566

>  <minimizedRMSD>  (1) 
4.38229179

$$$$
