
     RDKit          3D

 33 35  0  0  1  0  0  0  0  0999 V2000
   39.1250   23.2310   35.9200 N   0  0  0  0  0  0  0  0  0  0  0  0
   39.5110   22.7420   37.2000 C   0  0  0  0  0  0  0  0  0  0  0  0
   38.7550   23.2200   38.3730 C   0  0  0  0  0  0  0  0  0  0  0  0
   38.1470   24.5680   38.3090 C   0  0  0  0  0  0  0  0  0  0  0  0
   37.8150   25.0190   36.9060 C   0  0  0  0  0  0  0  0  0  0  0  0
   39.0020   24.6750   35.9950 C   0  0  2  0  0  0  0  0  0  0  0  0
   38.8970   22.4390   34.7570 C   0  0  0  0  0  0  0  0  0  0  0  0
   39.9210   21.9990   33.8940 C   0  0  0  0  0  0  0  0  0  0  0  0
   39.5390   21.2290   32.7940 C   0  0  0  0  0  0  0  0  0  0  0  0
   38.2170   20.9490   32.6230 N   0  0  0  0  0  0  0  0  0  0  0  0
   37.2870   21.3900   33.4740 C   0  0  0  0  0  0  0  0  0  0  0  0
   37.6140   22.1330   34.5400 N   0  0  0  0  0  0  0  0  0  0  0  0
   38.7610   25.2770   34.6570 C   0  0  0  0  0  0  0  0  0  0  0  0
   39.7930   25.6120   33.7800 C   0  0  0  0  0  0  0  0  0  0  0  0
   39.6030   26.1650   32.5480 C   0  0  0  0  0  0  0  0  0  0  0  0
   38.3130   26.3980   32.1670 N   0  0  0  0  0  0  0  0  0  0  0  0
   37.2820   26.0840   32.9990 C   0  0  0  0  0  0  0  0  0  0  0  0
   37.5190   25.5380   34.2090 N   0  0  0  0  0  0  0  0  0  0  0  0
   39.4194   21.6461   37.1744 H   0  0  0  0  0  0  0  0  0  0  0  0
   40.5300   23.1284   37.3496 H   0  0  0  0  0  0  0  0  0  0  0  0
   37.9405   22.5025   38.5511 H   0  0  0  0  0  0  0  0  0  0  0  0
   39.5083   23.2974   39.1709 H   0  0  0  0  0  0  0  0  0  0  0  0
   37.2189   24.5586   38.8994 H   0  0  0  0  0  0  0  0  0  0  0  0
   38.8904   25.2749   38.7062 H   0  0  0  0  0  0  0  0  0  0  0  0
   36.9121   24.4997   36.5523 H   0  0  0  0  0  0  0  0  0  0  0  0
   37.6275   26.1028   36.8909 H   0  0  0  0  0  0  0  0  0  0  0  0
   39.9443   25.0807   36.3919 H   0  0  0  0  0  0  0  0  0  0  0  0
   40.9755   22.2514   34.0793 H   0  0  0  0  0  0  0  0  0  0  0  0
   40.2892   20.8565   32.0809 H   0  0  0  0  0  0  0  0  0  0  0  0
   36.2311   21.1381   33.2962 H   0  0  0  0  0  0  0  0  0  0  0  0
   40.8264   25.4176   34.1030 H   0  0  0  0  0  0  0  0  0  0  0  0
   40.4503   26.4120   31.8914 H   0  0  0  0  0  0  0  0  0  0  0  0
   36.2468   26.2774   32.6814 H   0  0  0  0  0  0  0  0  0  0  0  0
  1  6  1  0
  1  2  1  0
  2  3  1  0
  4  3  1  0
  5  4  1  0
  6  5  1  0
  7  1  1  0
  8  7  2  0
  9  8  1  0
 10  9  2  0
 10 11  1  0
 11 12  2  0
 12  7  1  0
 13  6  1  0
 14 13  2  0
 15 14  1  0
 16 15  2  0
 16 17  1  0
 17 18  2  0
 18 13  1  0
  2 19  1  0
  2 20  1  0
  3 21  1  0
  3 22  1  0
  4 23  1  0
  4 24  1  0
  5 25  1  0
  5 26  1  0
  6 27  1  1
  8 28  1  0
  9 29  1  0
 11 30  1  0
 14 31  1  0
 15 32  1  0
 17 33  1  0
M  ISO  8  19  13  20  13  21  13  22  13  23  13  24  13  25  13  26  13
M  ISO  7  27  13  28  14  29  14  30  14  31  14  32  14  33  14
M  END
>  <minimizedAffinity>  (1) 
-4.20974398

>  <minimizedRMSD>  (1) 
2.53983998

$$$$
