
     RDKit          3D

 32 34  0  0  1  0  0  0  0  0999 V2000
   38.4180   23.4020   34.9650 N   0  0  0  0  0  0  0  0  0  0  0  0
   39.6250   22.8560   35.5340 C   0  0  0  0  0  0  0  0  0  0  0  0
   39.6090   22.6380   36.9980 C   0  0  0  0  0  0  0  0  0  0  0  0
   38.8150   23.5620   37.8360 C   0  0  0  0  0  0  0  0  0  0  0  0
   37.6060   24.1140   37.1240 C   0  0  0  0  0  0  0  0  0  0  0  0
   38.0060   24.5640   35.7230 C   0  0  1  0  0  0  0  0  0  0  0  0
   37.7320   22.8760   33.8240 C   0  0  0  0  0  0  0  0  0  0  0  0
   37.6630   23.5350   32.5830 C   0  0  0  0  0  0  0  0  0  0  0  0
   36.9540   22.8910   31.5630 C   0  0  0  0  0  0  0  0  0  0  0  0
   36.3830   21.6870   31.8190 N   0  0  0  0  0  0  0  0  0  0  0  0
   36.4820   21.0990   33.0310 C   0  0  0  0  0  0  0  0  0  0  0  0
   37.1540   21.6950   34.0200 N   0  0  0  0  0  0  0  0  0  0  0  0
   38.9800   25.6850   35.7320 C   0  0  0  0  0  0  0  0  0  0  0  0
   38.4170   27.0320   36.1610 C   0  0  0  0  0  0  0  0  0  0  0  0
   38.7560   26.8230   34.7130 C   0  0  0  0  0  0  0  0  0  0  0  0
   39.8166   21.8864   35.0510 H   0  0  0  0  0  0  0  0  0  0  0  0
   40.4060   23.6094   35.3540 H   0  0  0  0  0  0  0  0  0  0  0  0
   39.2192   21.6242   37.1720 H   0  0  0  0  0  0  0  0  0  0  0  0
   40.6490   22.8145   37.3100 H   0  0  0  0  0  0  0  0  0  0  0  0
   38.4769   23.0199   38.7314 H   0  0  0  0  0  0  0  0  0  0  0  0
   39.4632   24.4134   38.0908 H   0  0  0  0  0  0  0  0  0  0  0  0
   36.8339   23.3337   37.0526 H   0  0  0  0  0  0  0  0  0  0  0  0
   37.2078   24.9716   37.6861 H   0  0  0  0  0  0  0  0  0  0  0  0
   37.1379   25.0032   35.2097 H   0  0  0  0  0  0  0  0  0  0  0  0
   38.1440   24.5111   32.4220 H   0  0  0  0  0  0  0  0  0  0  0  0
   36.8610   23.3535   30.5693 H   0  0  0  0  0  0  0  0  0  0  0  0
   36.0060   20.1227   33.2049 H   0  0  0  0  0  0  0  0  0  0  0  0
   39.8347   25.0518   36.0124 H   0  0  0  0  0  0  0  0  0  0  0  0
   37.3641   27.1105   36.4695 H   0  0  0  0  0  0  0  0  0  0  0  0
   38.7002   27.7786   36.9175 H   0  0  0  0  0  0  0  0  0  0  0  0
   39.6185   27.3420   34.2694 H   0  0  0  0  0  0  0  0  0  0  0  0
   38.2091   26.9211   33.7637 H   0  0  0  0  0  0  0  0  0  0  0  0
  1  2  1  0
  1  6  1  0
  2  3  1  0
  3  4  1  0
  5  4  1  0
  6 13  1  0
  6  5  1  0
  7 12  1  0
  7  1  1  0
  8  7  2  0
  9 10  2  0
  9  8  1  0
 10 11  1  0
 11 12  2  0
 13 14  1  0
 15 13  1  0
 15 14  1  0
  2 16  1  0
  2 17  1  0
  3 18  1  0
  3 19  1  0
  4 20  1  0
  4 21  1  0
  5 22  1  0
  5 23  1  0
  6 24  1  6
  8 25  1  0
  9 26  1  0
 11 27  1  0
 13 28  1  0
 14 29  1  0
 14 30  1  0
 15 31  1  0
 15 32  1  0
M  ISO  8  16  13  17  13  18  13  19  13  20  13  21  13  22  13  23  13
M  ISO  8  24  13  25  14  26  14  27  14  28  13  29  13  30  13  31  13
M  ISO  1  32  13
M  END
>  <minimizedAffinity>  (1) 
-4.1992507

>  <minimizedRMSD>  (1) 
0.926987708

$$$$
