
     RDKit          3D

 34 35  0  0  1  0  0  0  0  0999 V2000
   38.5730   24.5690   34.3730 N   0  0  0  0  0  0  0  0  0  0  0  0
   38.5030   23.1450   34.6180 C   0  0  0  0  0  0  0  0  0  0  0  0
   37.8770   22.6930   35.8700 C   0  0  0  0  0  0  0  0  0  0  0  0
   37.9500   23.6010   37.0470 C   0  0  0  0  0  0  0  0  0  0  0  0
   38.0580   25.0500   36.6830 C   0  0  0  0  0  0  0  0  0  0  0  0
   39.0950   25.1810   35.5470 C   0  0  2  0  0  0  0  0  0  0  0  0
   38.1830   25.2110   33.1730 C   0  0  0  0  0  0  0  0  0  0  0  0
   38.9590   25.3000   32.0230 C   0  0  0  0  0  0  0  0  0  0  0  0
   38.4730   25.9680   30.9130 C   0  0  0  0  0  0  0  0  0  0  0  0
   37.2360   26.5100   31.0130 N   0  0  0  0  0  0  0  0  0  0  0  0
   36.5000   26.4170   32.1230 C   0  0  0  0  0  0  0  0  0  0  0  0
   36.9760   25.7710   33.1920 N   0  0  0  0  0  0  0  0  0  0  0  0
   39.4610   26.6350   35.4210 C   0  0  0  0  0  0  0  0  0  0  0  0
   40.1660   26.9940   34.1520 C   0  0  0  0  0  0  0  0  0  0  0  0
   38.1710   27.4620   35.4710 C   0  0  0  0  0  0  0  0  0  0  0  0
   37.9368   22.6971   33.7881 H   0  0  0  0  0  0  0  0  0  0  0  0
   39.5527   22.8274   34.7035 H   0  0  0  0  0  0  0  0  0  0  0  0
   36.8124   22.5136   35.6590 H   0  0  0  0  0  0  0  0  0  0  0  0
   38.4567   21.8064   36.1664 H   0  0  0  0  0  0  0  0  0  0  0  0
   37.0410   23.4612   37.6505 H   0  0  0  0  0  0  0  0  0  0  0  0
   38.8645   23.3390   37.5993 H   0  0  0  0  0  0  0  0  0  0  0  0
   37.0811   25.4228   36.3414 H   0  0  0  0  0  0  0  0  0  0  0  0
   38.3715   25.6408   37.5563 H   0  0  0  0  0  0  0  0  0  0  0  0
   40.0350   24.6474   35.7512 H   0  0  0  0  0  0  0  0  0  0  0  0
   39.9579   24.8401   31.9955 H   0  0  0  0  0  0  0  0  0  0  0  0
   39.0652   26.0550   29.9901 H   0  0  0  0  0  0  0  0  0  0  0  0
   35.4996   26.8730   32.1579 H   0  0  0  0  0  0  0  0  0  0  0  0
   40.1541   26.8462   36.2486 H   0  0  0  0  0  0  0  0  0  0  0  0
   41.1231   27.4814   34.3895 H   0  0  0  0  0  0  0  0  0  0  0  0
   40.3543   26.0820   33.5665 H   0  0  0  0  0  0  0  0  0  0  0  0
   39.5392   27.6827   33.5665 H   0  0  0  0  0  0  0  0  0  0  0  0
   37.8910   27.6415   36.5195 H   0  0  0  0  0  0  0  0  0  0  0  0
   38.3330   28.4250   34.9647 H   0  0  0  0  0  0  0  0  0  0  0  0
   37.3635   26.9128   34.9647 H   0  0  0  0  0  0  0  0  0  0  0  0
  1  2  1  0
  1  6  1  0
  2  3  1  0
  3  4  1  0
  5  4  1  0
  6  5  1  0
  7 12  1  0
  7  1  1  0
  8  7  2  0
  9 10  2  0
  9  8  1  0
 10 11  1  0
 11 12  2  0
 13 15  1  0
 13  6  1  0
 14 13  1  0
  2 16  1  0
  2 17  1  0
  3 18  1  0
  3 19  1  0
  4 20  1  0
  4 21  1  0
  5 22  1  0
  5 23  1  0
  6 24  1  1
  8 25  1  0
  9 26  1  0
 11 27  1  0
 13 28  1  0
 14 29  1  0
 14 30  1  0
 14 31  1  0
 15 32  1  0
 15 33  1  0
 15 34  1  0
M  ISO  8  16  13  17  13  18  13  19  13  20  13  21  13  22  13  23  13
M  ISO  8  24  13  25  14  26  14  27  14  28   8  29   8  30   8  31   8
M  ISO  3  32   8  33   8  34   8
M  END
>  <minimizedAffinity>  (1) 
-4.14504194

>  <minimizedRMSD>  (1) 
3.10943151

$$$$
