
     RDKit          3D

 32 34  0  0  1  0  0  0  0  0999 V2000
   39.1000   23.2920   35.9960 N   0  0  0  0  0  0  0  0  0  0  0  0
   39.5320   22.7880   37.2790 C   0  0  0  0  0  0  0  0  0  0  0  0
   38.7800   23.2090   38.4650 C   0  0  0  0  0  0  0  0  0  0  0  0
   38.1180   24.5300   38.4330 C   0  0  0  0  0  0  0  0  0  0  0  0
   37.7110   24.9580   37.0540 C   0  0  0  0  0  0  0  0  0  0  0  0
   38.9020   24.7200   36.0980 C   0  0  2  0  0  0  0  0  0  0  0  0
   38.9020   22.4950   34.8270 C   0  0  0  0  0  0  0  0  0  0  0  0
   39.9490   22.0980   33.9690 C   0  0  0  0  0  0  0  0  0  0  0  0
   39.5970   21.3230   32.8680 C   0  0  0  0  0  0  0  0  0  0  0  0
   38.2870   20.9960   32.6830 N   0  0  0  0  0  0  0  0  0  0  0  0
   37.3310   21.4030   33.5310 C   0  0  0  0  0  0  0  0  0  0  0  0
   37.6190   22.1540   34.6110 N   0  0  0  0  0  0  0  0  0  0  0  0
   38.6420   25.3850   34.8090 C   0  0  0  0  0  0  0  0  0  0  0  0
   37.4870   25.7490   34.2240 C   0  0  0  0  0  0  0  0  0  0  0  0
   37.4850   26.3590   33.0140 C   0  0  0  0  0  0  0  0  0  0  0  0
   38.7240   26.5760   32.4350 C   0  0  0  0  0  0  0  0  0  0  0  0
   39.9710   25.8900   33.6480 S   0  0  0  0  0  0  0  0  0  0  0  0
   39.4854   21.6899   37.2332 H   0  0  0  0  0  0  0  0  0  0  0  0
   40.5363   23.2137   37.4211 H   0  0  0  0  0  0  0  0  0  0  0  0
   37.9983   22.4554   38.6414 H   0  0  0  0  0  0  0  0  0  0  0  0
   39.5404   23.3014   39.2545 H   0  0  0  0  0  0  0  0  0  0  0  0
   37.2182   24.4847   39.0641 H   0  0  0  0  0  0  0  0  0  0  0  0
   38.8463   25.2677   38.8008 H   0  0  0  0  0  0  0  0  0  0  0  0
   36.8445   24.3672   36.7222 H   0  0  0  0  0  0  0  0  0  0  0  0
   37.4340   26.0225   37.0550 H   0  0  0  0  0  0  0  0  0  0  0  0
   39.8363   25.1615   36.4750 H   0  0  0  0  0  0  0  0  0  0  0  0
   40.9929   22.3870   34.1609 H   0  0  0  0  0  0  0  0  0  0  0  0
   40.3641   20.9798   32.1582 H   0  0  0  0  0  0  0  0  0  0  0  0
   36.2864   21.1164   33.3397 H   0  0  0  0  0  0  0  0  0  0  0  0
   36.5329   25.5492   34.7337 H   0  0  0  0  0  0  0  0  0  0  0  0
   36.5513   26.6647   32.5193 H   0  0  0  0  0  0  0  0  0  0  0  0
   38.9312   27.0520   31.4652 H   0  0  0  0  0  0  0  0  0  0  0  0
  1  6  1  0
  1  2  1  0
  2  3  1  0
  4  3  1  0
  5  4  1  0
  6  5  1  0
  7  1  1  0
  8  7  2  0
  9  8  1  0
 10  9  2  0
 10 11  1  0
 11 12  2  0
 12  7  1  0
 13  6  1  0
 14 13  2  0
 15 14  1  0
 16 15  2  0
 16 17  1  0
 17 13  1  0
  2 18  1  0
  2 19  1  0
  3 20  1  0
  3 21  1  0
  4 22  1  0
  4 23  1  0
  5 24  1  0
  5 25  1  0
  6 26  1  1
  8 27  1  0
  9 28  1  0
 11 29  1  0
 14 30  1  0
 15 31  1  0
 16 32  1  0
M  ISO  8  18  13  19  13  20  13  21  13  22  13  23  13  24  13  25  13
M  ISO  7  26  13  27  14  28  14  29  14  30  14  31  14  32  14
M  END
>  <minimizedAffinity>  (1) 
-4.06344748

>  <minimizedRMSD>  (1) 
2.25731421

$$$$
