
     RDKit          3D

 32 34  0  0  1  0  0  0  0  0999 V2000
   39.1050   23.2710   35.8740 N   0  0  0  0  0  0  0  0  0  0  0  0
   39.5490   22.7780   37.1560 C   0  0  0  0  0  0  0  0  0  0  0  0
   38.7950   23.2060   38.3470 C   0  0  0  0  0  0  0  0  0  0  0  0
   38.1270   24.5310   38.2990 C   0  0  0  0  0  0  0  0  0  0  0  0
   37.7280   24.9560   36.9120 C   0  0  0  0  0  0  0  0  0  0  0  0
   38.9170   24.6860   35.9600 C   0  0  2  0  0  0  0  0  0  0  0  0
   38.8950   22.4530   34.7260 C   0  0  0  0  0  0  0  0  0  0  0  0
   39.9350   21.9760   33.9010 C   0  0  0  0  0  0  0  0  0  0  0  0
   39.5870   21.1890   32.8130 C   0  0  0  0  0  0  0  0  0  0  0  0
   38.2750   20.9180   32.5980 N   0  0  0  0  0  0  0  0  0  0  0  0
   37.3140   21.3940   33.4100 C   0  0  0  0  0  0  0  0  0  0  0  0
   37.6240   22.1570   34.4660 N   0  0  0  0  0  0  0  0  0  0  0  0
   38.6100   25.3470   34.6670 C   0  0  0  0  0  0  0  0  0  0  0  0
   39.4770   25.9370   33.7480 C   0  0  0  0  0  0  0  0  0  0  0  0
   38.7380   26.4170   32.7050 N   0  0  0  0  0  0  0  0  0  0  0  0
   37.4700   26.1350   32.9700 C   0  0  0  0  0  0  0  0  0  0  0  0
   37.3770   25.4880   34.1540 N   0  0  0  0  0  0  0  0  0  0  0  0
   39.5097   21.6794   37.1182 H   0  0  0  0  0  0  0  0  0  0  0  0
   40.5525   23.2083   37.2897 H   0  0  0  0  0  0  0  0  0  0  0  0
   38.0162   22.4515   38.5320 H   0  0  0  0  0  0  0  0  0  0  0  0
   39.5539   23.3046   39.1371 H   0  0  0  0  0  0  0  0  0  0  0  0
   37.2220   24.4867   38.9227 H   0  0  0  0  0  0  0  0  0  0  0  0
   38.8532   25.2712   38.6661 H   0  0  0  0  0  0  0  0  0  0  0  0
   36.8507   24.3791   36.5842 H   0  0  0  0  0  0  0  0  0  0  0  0
   37.4706   26.0254   36.9028 H   0  0  0  0  0  0  0  0  0  0  0  0
   39.8702   25.1034   36.3167 H   0  0  0  0  0  0  0  0  0  0  0  0
   40.9864   22.2199   34.1132 H   0  0  0  0  0  0  0  0  0  0  0  0
   40.3595   20.7924   32.1378 H   0  0  0  0  0  0  0  0  0  0  0  0
   36.2605   21.1536   33.2041 H   0  0  0  0  0  0  0  0  0  0  0  0
   40.5705   26.0043   33.8465 H   0  0  0  0  0  0  0  0  0  0  0  0
   36.6185   26.3899   32.3220 H   0  0  0  0  0  0  0  0  0  0  0  0
   36.5043   25.1578   34.5903 H   0  0  0  0  0  0  0  0  0  0  0  0
  1  6  1  0
  1  2  1  0
  2  3  1  0
  4  3  1  0
  5  4  1  0
  6  5  1  0
  7  1  1  0
  8  7  2  0
  9  8  1  0
 10  9  2  0
 10 11  1  0
 11 12  2  0
 12  7  1  0
 13  6  1  0
 14 13  2  0
 15 16  2  0
 15 14  1  0
 16 17  1  0
 17 13  1  0
  2 18  1  0
  2 19  1  0
  3 20  1  0
  3 21  1  0
  4 22  1  0
  4 23  1  0
  5 24  1  0
  5 25  1  0
  6 26  1  1
  8 27  1  0
  9 28  1  0
 11 29  1  0
 14 30  1  0
 16 31  1  0
 17 32  1  0
M  ISO  8  18  13  19  13  20  13  21  13  22  13  23  13  24  13  25  13
M  ISO  7  26  13  27  14  28  14  29  14  30  14  31  14  32   9
M  END
>  <minimizedAffinity>  (1) 
-4.00623369

>  <minimizedRMSD>  (1) 
2.25251698

$$$$
