
     RDKit          3D

 32 34  0  0  1  0  0  0  0  0999 V2000
   40.4250   25.4230   34.9970 N   0  0  0  0  0  0  0  0  0  0  0  0
   41.7480   25.9250   34.7140 C   0  0  0  0  0  0  0  0  0  0  0  0
   42.6530   25.0740   33.9340 C   0  0  0  0  0  0  0  0  0  0  0  0
   42.4510   23.6060   33.9760 C   0  0  0  0  0  0  0  0  0  0  0  0
   41.0440   23.1880   34.3110 C   0  0  0  0  0  0  0  0  0  0  0  0
   40.5400   24.0740   35.4680 C   0  0  2  0  0  0  0  0  0  0  0  0
   39.2140   26.1620   34.8270 C   0  0  0  0  0  0  0  0  0  0  0  0
   38.7460   27.1430   35.6940 C   0  0  0  0  0  0  0  0  0  0  0  0
   37.5460   27.7700   35.3830 C   0  0  0  0  0  0  0  0  0  0  0  0
   36.8840   27.4040   34.2550 N   0  0  0  0  0  0  0  0  0  0  0  0
   37.3660   26.4490   33.4370 C   0  0  0  0  0  0  0  0  0  0  0  0
   38.5240   25.8410   33.7330 N   0  0  0  0  0  0  0  0  0  0  0  0
   39.3010   23.5410   36.0070 N   0  0  0  0  0  0  0  0  0  0  0  0
   38.7540   23.8420   37.1870 N   0  0  0  0  0  0  0  0  0  0  0  0
   37.6040   23.1630   37.3630 C   0  0  0  0  0  0  0  0  0  0  0  0
   37.3810   22.3830   36.2550 C   0  0  0  0  0  0  0  0  0  0  0  0
   38.4540   22.6390   35.4280 C   0  0  0  0  0  0  0  0  0  0  0  0
   41.6290   26.8690   34.1619 H   0  0  0  0  0  0  0  0  0  0  0  0
   42.2284   26.0073   35.7001 H   0  0  0  0  0  0  0  0  0  0  0  0
   43.6744   25.2721   34.2912 H   0  0  0  0  0  0  0  0  0  0  0  0
   42.4459   25.3458   32.8884 H   0  0  0  0  0  0  0  0  0  0  0  0
   42.7081   23.1936   32.9891 H   0  0  0  0  0  0  0  0  0  0  0  0
   43.0960   23.2201   34.7791 H   0  0  0  0  0  0  0  0  0  0  0  0
   40.3969   23.3206   33.4314 H   0  0  0  0  0  0  0  0  0  0  0  0
   41.0229   22.1288   34.6069 H   0  0  0  0  0  0  0  0  0  0  0  0
   41.2557   24.0746   36.3034 H   0  0  0  0  0  0  0  0  0  0  0  0
   39.3091   27.4145   36.5991 H   0  0  0  0  0  0  0  0  0  0  0  0
   37.1379   28.5515   36.0408 H   0  0  0  0  0  0  0  0  0  0  0  0
   36.8117   26.1686   32.5292 H   0  0  0  0  0  0  0  0  0  0  0  0
   36.9521   23.2233   38.2470 H   0  0  0  0  0  0  0  0  0  0  0  0
   36.5349   21.7051   36.0688 H   0  0  0  0  0  0  0  0  0  0  0  0
   38.6068   22.1808   34.4397 H   0  0  0  0  0  0  0  0  0  0  0  0
  1  6  1  0
  2  1  1  0
  3  4  1  0
  3  2  1  0
  4  5  1  0
  5  6  1  0
  6 13  1  0
  7  1  1  0
  7  8  2  0
  9  8  1  0
 10  9  2  0
 11 12  2  0
 11 10  1  0
 12  7  1  0
 13 14  1  0
 14 15  2  0
 16 15  1  0
 17 13  1  0
 17 16  2  0
  2 18  1  0
  2 19  1  0
  3 20  1  0
  3 21  1  0
  4 22  1  0
  4 23  1  0
  5 24  1  0
  5 25  1  0
  6 26  1  1
  8 27  1  0
  9 28  1  0
 11 29  1  0
 15 30  1  0
 16 31  1  0
 17 32  1  0
M  ISO  8  18  13  19  13  20  13  21  13  22  13  23  13  24  13  25  13
M  ISO  7  26  13  27  14  28  14  29  14  30  14  31  14  32  14
M  END
>  <minimizedAffinity>  (1) 
-3.98323822

>  <minimizedRMSD>  (1) 
4.38885355

$$$$
