
     RDKit          3D

 26 27  0  0  1  0  0  0  0  0999 V2000
   38.4730   23.5550   35.7440 N   0  0  0  0  0  0  0  0  0  0  0  0
   39.7930   23.3250   36.2240 C   0  0  0  0  0  0  0  0  0  0  0  0
   39.9460   22.8790   37.6190 C   0  0  0  0  0  0  0  0  0  0  0  0
   38.9080   23.2860   38.6030 C   0  0  0  0  0  0  0  0  0  0  0  0
   37.5470   23.5380   37.9820 C   0  0  0  0  0  0  0  0  0  0  0  0
   37.7420   24.3560   36.7100 C   0  0  1  0  0  0  0  0  0  0  0  0
   37.9240   23.0830   34.5060 C   0  0  0  0  0  0  0  0  0  0  0  0
   37.8960   23.8040   33.3160 C   0  0  0  0  0  0  0  0  0  0  0  0
   37.3260   23.2060   32.1970 C   0  0  0  0  0  0  0  0  0  0  0  0
   36.8230   21.9360   32.3350 N   0  0  0  0  0  0  0  0  0  0  0  0
   36.8710   21.2800   33.4980 C   0  0  0  0  0  0  0  0  0  0  0  0
   37.4180   21.8490   34.5770 N   0  0  0  0  0  0  0  0  0  0  0  0
   38.3360   25.5550   37.0030 O   0  0  0  0  0  0  0  0  0  0  0  0
   40.2469   22.5560   35.5816 H   0  0  0  0  0  0  0  0  0  0  0  0
   40.2760   24.3128   36.1933 H   0  0  0  0  0  0  0  0  0  0  0  0
   39.9732   21.7794   37.6091 H   0  0  0  0  0  0  0  0  0  0  0  0
   40.8627   23.3780   37.9665 H   0  0  0  0  0  0  0  0  0  0  0  0
   38.8059   22.4863   39.3514 H   0  0  0  0  0  0  0  0  0  0  0  0
   39.2402   24.2357   39.0476 H   0  0  0  0  0  0  0  0  0  0  0  0
   37.0672   22.5790   37.7370 H   0  0  0  0  0  0  0  0  0  0  0  0
   36.9049   24.0849   38.6882 H   0  0  0  0  0  0  0  0  0  0  0  0
   36.7747   24.6103   36.2522 H   0  0  0  0  0  0  0  0  0  0  0  0
   38.3137   24.8202   33.2618 H   0  0  0  0  0  0  0  0  0  0  0  0
   37.2797   23.7335   31.2328 H   0  0  0  0  0  0  0  0  0  0  0  0
   36.4570   20.2633   33.5682 H   0  0  0  0  0  0  0  0  0  0  0  0
   38.3905   25.6650   37.9854 H   0  0  0  0  0  0  0  0  0  0  0  0
  1  2  1  0
  1  6  1  0
  2  3  1  0
  3  4  1  0
  5  4  1  0
  6 13  1  0
  6  5  1  0
  7 12  1  0
  7  1  1  0
  8  7  2  0
  9 10  2  0
  9  8  1  0
 10 11  1  0
 11 12  2  0
  2 14  1  0
  2 15  1  0
  3 16  1  0
  3 17  1  0
  4 18  1  0
  4 19  1  0
  5 20  1  0
  5 21  1  0
  6 22  1  6
  8 23  1  0
  9 24  1  0
 11 25  1  0
 13 26  1  0
M  ISO  8  14  13  15  13  16  13  17  13  18  13  19  13  20  13  21  13
M  ISO  5  22  13  23  14  24  14  25  14  26   3
M  END
>  <minimizedAffinity>  (1) 
-3.81639576

>  <minimizedRMSD>  (1) 
0.362978429

$$$$
