
     RDKit          3D

 47 50  0  0  1  0  0  0  0  0999 V2000
   38.9130   23.3960   35.7110 N   0  0  0  0  0  0  0  0  0  0  0  0
   40.0590   22.7430   36.3000 C   0  0  0  0  0  0  0  0  0  0  0  0
   40.0460   22.5520   37.7580 C   0  0  0  0  0  0  0  0  0  0  0  0
   39.2120   23.4560   38.5940 C   0  0  0  0  0  0  0  0  0  0  0  0
   38.0510   24.0580   37.8480 C   0  0  0  0  0  0  0  0  0  0  0  0
   38.5730   24.5470   36.4670 C   0  0  2  0  0  0  0  0  0  0  0  0
   38.2540   22.9100   34.5410 C   0  0  0  0  0  0  0  0  0  0  0  0
   38.4320   23.3750   33.2560 C   0  0  0  0  0  0  0  0  0  0  0  0
   37.7290   22.8170   32.2080 C   0  0  0  0  0  0  0  0  0  0  0  0
   36.8650   21.8020   32.4990 N   0  0  0  0  0  0  0  0  0  0  0  0
   36.6950   21.3520   33.7530 C   0  0  0  0  0  0  0  0  0  0  0  0
   37.3920   21.9140   34.7470 N   0  0  0  0  0  0  0  0  0  0  0  0
   37.5590   25.4450   35.8490 C   0  0  0  0  0  0  0  0  0  0  0  0
   38.2470   26.7620   35.4900 C   0  0  0  0  0  0  0  0  0  0  0  0
   37.6090   27.4290   34.3690 C   0  0  0  0  0  0  0  0  0  0  0  0
   36.4080   28.1100   34.4810 C   0  0  0  0  0  0  0  0  0  0  0  0
   35.8020   28.7430   33.4150 C   0  0  0  0  0  0  0  0  0  0  0  0
   36.3870   28.7200   32.1570 C   0  0  0  0  0  0  0  0  0  0  0  0
   37.5960   28.0350   32.0360 C   0  0  0  0  0  0  0  0  0  0  0  0
   38.1810   28.0140   30.7740 C   0  0  0  0  0  0  0  0  0  0  0  0
   39.3890   27.3510   30.5680 C   0  0  0  0  0  0  0  0  0  0  0  0
   39.9800   26.7200   31.6640 C   0  0  0  0  0  0  0  0  0  0  0  0
   39.3890   26.7490   32.9110 C   0  0  0  0  0  0  0  0  0  0  0  0
   38.1860   27.4120   33.1010 C   0  0  0  0  0  0  0  0  0  0  0  0
   40.1485   21.7494   35.8366 H   0  0  0  0  0  0  0  0  0  0  0  0
   40.9025   23.4230   36.1099 H   0  0  0  0  0  0  0  0  0  0  0  0
   39.6976   21.5257   37.9460 H   0  0  0  0  0  0  0  0  0  0  0  0
   41.0767   22.7836   38.0646 H   0  0  0  0  0  0  0  0  0  0  0  0
   38.8190   22.8802   39.4449 H   0  0  0  0  0  0  0  0  0  0  0  0
   39.8567   24.2868   38.9167 H   0  0  0  0  0  0  0  0  0  0  0  0
   37.2660   23.3010   37.7043 H   0  0  0  0  0  0  0  0  0  0  0  0
   37.6242   24.8978   38.4159 H   0  0  0  0  0  0  0  0  0  0  0  0
   39.4838   25.1597   36.5375 H   0  0  0  0  0  0  0  0  0  0  0  0
   39.1387   24.1959   33.0646 H   0  0  0  0  0  0  0  0  0  0  0  0
   37.8602   23.1769   31.1769 H   0  0  0  0  0  0  0  0  0  0  0  0
   35.9917   20.5319   33.9600 H   0  0  0  0  0  0  0  0  0  0  0  0
   37.1513   24.9776   34.9406 H   0  0  0  0  0  0  0  0  0  0  0  0
   36.7319   25.6261   36.5512 H   0  0  0  0  0  0  0  0  0  0  0  0
   38.2131   27.4287   36.3643 H   0  0  0  0  0  0  0  0  0  0  0  0
   39.2830   26.5325   35.1999 H   0  0  0  0  0  0  0  0  0  0  0  0
   35.9152   28.1479   35.4637 H   0  0  0  0  0  0  0  0  0  0  0  0
   34.8479   29.2698   33.5637 H   0  0  0  0  0  0  0  0  0  0  0  0
   35.9192   29.2187   31.2954 H   0  0  0  0  0  0  0  0  0  0  0  0
   37.6869   28.5238   29.9338 H   0  0  0  0  0  0  0  0  0  0  0  0
   39.8612   27.3256   29.5749 H   0  0  0  0  0  0  0  0  0  0  0  0
   40.9346   26.1897   31.5314 H   0  0  0  0  0  0  0  0  0  0  0  0
   39.8749   26.2435   33.7586 H   0  0  0  0  0  0  0  0  0  0  0  0
  1  2  1  0
  1  6  1  0
  2  3  1  0
  3  4  1  0
  5  4  1  0
  6  5  1  0
  7 12  1  0
  7  1  1  0
  8  7  2  0
  9 10  2  0
  9  8  1  0
 10 11  1  0
 11 12  2  0
 13  6  1  0
 14 13  1  0
 15 16  2  0
 15 14  1  0
 17 16  1  0
 18 17  2  0
 19 18  1  0
 19 24  2  0
 20 19  1  0
 21 20  2  0
 21 22  1  0
 22 23  2  0
 23 24  1  0
 24 15  1  0
  2 25  1  0
  2 26  1  0
  3 27  1  0
  3 28  1  0
  4 29  1  0
  4 30  1  0
  5 31  1  0
  5 32  1  0
  6 33  1  1
  8 34  1  0
  9 35  1  0
 11 36  1  0
 13 37  1  0
 13 38  1  0
 14 39  1  0
 14 40  1  0
 16 41  1  0
 17 42  1  0
 18 43  1  0
 20 44  1  0
 21 45  1  0
 22 46  1  0
 23 47  1  0
M  ISO  8  25  13  26  13  27  13  28  13  29  13  30  13  31  13  32  13
M  ISO  8  33  13  34  14  35  14  36  14  37   8  38   8  39   8  40   8
M  ISO  7  41  14  42  14  43  14  44  14  45  14  46  14  47  14
M  END
>  <minimizedAffinity>  (1) 
-5.99358606

>  <minimizedRMSD>  (1) 
1.64909375

$$$$
