
     RDKit          3D

 32 33  0  0  0  0  0  0  0  0999 V2000
   38.1770   23.6790   37.0510 C   0  0  0  0  0  0  0  0  0  0  0  0
   41.5590   22.0040   37.1950 C   0  0  0  0  0  0  0  0  0  0  0  0
   40.2310   22.2870   37.5020 C   0  0  0  0  0  0  0  0  0  0  0  0
   39.5730   23.3150   36.7910 C   0  0  0  0  0  0  0  0  0  0  0  0
   40.2600   23.9950   35.8300 N   0  0  0  0  0  0  0  0  0  0  0  0
   41.5390   23.6980   35.5590 C   0  0  0  0  0  0  0  0  0  0  0  0
   42.1900   22.7150   36.2300 N   0  0  0  0  0  0  0  0  0  0  0  0
   38.1250   24.2990   38.4530 C   0  0  0  0  0  0  0  0  0  0  0  0
   37.5790   24.5930   36.0320 C   0  0  0  0  0  0  0  0  0  0  0  0
   37.3340   22.4200   37.0780 C   0  0  0  0  0  0  0  0  0  0  0  0
   37.0290   21.8840   35.7630 C   0  0  0  0  0  0  0  0  0  0  0  0
   35.9510   21.1100   35.5180 C   0  0  0  0  0  0  0  0  0  0  0  0
   35.6060   20.5970   34.3070 C   0  0  0  0  0  0  0  0  0  0  0  0
   36.5740   21.0050   33.2870 C   0  0  0  0  0  0  0  0  0  0  0  0
   37.8500   22.0630   34.1920 S   0  0  0  0  0  0  0  0  0  0  0  0
   36.6490   20.7320   31.9010 C   0  0  0  0  0  0  0  0  0  0  0  0
   37.5630   19.9750   31.5200 O   0  0  0  0  0  0  0  0  0  0  0  0
   35.7360   21.2950   31.0440 O   0  0  0  0  0  0  0  0  0  0  0  0
   42.0932   21.2072   37.7332 H   0  0  0  0  0  0  0  0  0  0  0  0
   39.7038   21.7206   38.2838 H   0  0  0  0  0  0  0  0  0  0  0  0
   42.0703   24.2618   34.7781 H   0  0  0  0  0  0  0  0  0  0  0  0
   38.1918   23.5026   39.2088 H   0  0  0  0  0  0  0  0  0  0  0  0
   38.9680   24.9946   38.5778 H   0  0  0  0  0  0  0  0  0  0  0  0
   37.1780   24.8445   38.5778 H   0  0  0  0  0  0  0  0  0  0  0  0
   37.0449   25.4094   36.5402 H   0  0  0  0  0  0  0  0  0  0  0  0
   38.3775   25.0131   35.4027 H   0  0  0  0  0  0  0  0  0  0  0  0
   36.8743   24.0296   35.4027 H   0  0  0  0  0  0  0  0  0  0  0  0
   37.8782   21.6517   37.6468 H   0  0  0  0  0  0  0  0  0  0  0  0
   36.3738   22.6903   37.5416 H   0  0  0  0  0  0  0  0  0  0  0  0
   35.2962   20.8742   36.3699 H   0  0  0  0  0  0  0  0  0  0  0  0
   34.7250   19.9653   34.1202 H   0  0  0  0  0  0  0  0  0  0  0  0
   35.7859   21.1058   30.0735 H   0  0  0  0  0  0  0  0  0  0  0  0
  1 10  1  0
  1  8  1  0
  2  3  2  0
  4  1  1  0
  4  3  1  0
  5  4  2  0
  6  5  1  0
  6  7  2  0
  7  2  1  0
  9  1  1  0
 11 10  1  0
 12 11  2  0
 13 12  1  0
 14 15  1  0
 14 13  2  0
 15 11  1  0
 16 14  1  0
 17 16  2  0
 18 16  1  0
  2 19  1  0
  3 20  1  0
  6 21  1  0
  8 22  1  0
  8 23  1  0
  8 24  1  0
  9 25  1  0
  9 26  1  0
  9 27  1  0
 10 28  1  0
 10 29  1  0
 12 30  1  0
 13 31  1  0
 18 32  1  0
M  ISO  8  19  14  20  14  21  14  22   8  23   8  24   8  25   8  26   8
M  ISO  6  27   8  28   8  29   8  30  14  31  14  32   3
M  END
>  <minimizedAffinity>  (1) 
-4.25035191

>  <minimizedRMSD>  (1) 
0.127098635

$$$$
