
     RDKit          3D

 44 47  0  0  1  0  0  0  0  0999 V2000
   38.9060   23.4450   35.6390 N   0  0  0  0  0  0  0  0  0  0  0  0
   40.0220   22.8070   36.3000 C   0  0  0  0  0  0  0  0  0  0  0  0
   39.9220   22.6120   37.7580 C   0  0  0  0  0  0  0  0  0  0  0  0
   39.0310   23.5160   38.5360 C   0  0  0  0  0  0  0  0  0  0  0  0
   37.9030   24.0960   37.7140 C   0  0  0  0  0  0  0  0  0  0  0  0
   38.5190   24.5940   36.3740 C   0  0  2  0  0  0  0  0  0  0  0  0
   38.3260   22.9480   34.4350 C   0  0  0  0  0  0  0  0  0  0  0  0
   38.6290   23.3790   33.1480 C   0  0  0  0  0  0  0  0  0  0  0  0
   37.9890   22.8090   32.0690 C   0  0  0  0  0  0  0  0  0  0  0  0
   37.0740   21.8360   32.3060 N   0  0  0  0  0  0  0  0  0  0  0  0
   36.7880   21.4250   33.5520 C   0  0  0  0  0  0  0  0  0  0  0  0
   37.4200   21.9910   34.5830 N   0  0  0  0  0  0  0  0  0  0  0  0
   37.5360   25.4920   35.6880 C   0  0  0  0  0  0  0  0  0  0  0  0
   38.2320   26.7630   35.2990 C   0  0  0  0  0  0  0  0  0  0  0  0
   37.9180   27.2500   33.9950 N   0  0  0  0  0  0  0  0  0  0  0  0
   38.6220   27.0390   32.8550 C   0  0  0  0  0  0  0  0  0  0  0  0
   38.0050   27.6670   31.8140 N   0  0  0  0  0  0  0  0  0  0  0  0
   36.9260   28.2670   32.2930 C   0  0  0  0  0  0  0  0  0  0  0  0
   36.0050   29.0180   31.5910 C   0  0  0  0  0  0  0  0  0  0  0  0
   34.9680   29.5400   32.2990 N   0  0  0  0  0  0  0  0  0  0  0  0
   34.8890   29.3020   33.6410 C   0  0  0  0  0  0  0  0  0  0  0  0
   35.8260   28.5500   34.2900 N   0  0  0  0  0  0  0  0  0  0  0  0
   36.8740   28.0120   33.6230 C   0  0  0  0  0  0  0  0  0  0  0  0
   36.0920   29.2640   30.1920 N   0  0  0  0  0  0  0  0  0  0  0  0
   40.1545   21.8156   35.8422 H   0  0  0  0  0  0  0  0  0  0  0  0
   40.8649   23.5008   36.1647 H   0  0  0  0  0  0  0  0  0  0  0  0
   39.5673   21.5842   37.9246 H   0  0  0  0  0  0  0  0  0  0  0  0
   40.9311   22.8425   38.1304 H   0  0  0  0  0  0  0  0  0  0  0  0
   38.5974   22.9454   39.3705 H   0  0  0  0  0  0  0  0  0  0  0  0
   39.6462   24.3583   38.8853 H   0  0  0  0  0  0  0  0  0  0  0  0
   37.1449   23.3238   37.5164 H   0  0  0  0  0  0  0  0  0  0  0  0
   37.4141   24.9227   38.2502 H   0  0  0  0  0  0  0  0  0  0  0  0
   39.4213   25.2087   36.5079 H   0  0  0  0  0  0  0  0  0  0  0  0
   39.3761   24.1712   32.9921 H   0  0  0  0  0  0  0  0  0  0  0  0
   38.2141   23.1344   31.0426 H   0  0  0  0  0  0  0  0  0  0  0  0
   36.0435   20.6331   33.7209 H   0  0  0  0  0  0  0  0  0  0  0  0
   37.1456   24.9940   34.7883 H   0  0  0  0  0  0  0  0  0  0  0  0
   36.6989   25.7165   36.3653 H   0  0  0  0  0  0  0  0  0  0  0  0
   37.9567   27.5392   36.0282 H   0  0  0  0  0  0  0  0  0  0  0  0
   39.3076   26.5329   35.2894 H   0  0  0  0  0  0  0  0  0  0  0  0
   39.5489   26.4512   32.7816 H   0  0  0  0  0  0  0  0  0  0  0  0
   34.0506   29.7261   34.2131 H   0  0  0  0  0  0  0  0  0  0  0  0
   35.3727   29.8333   29.7235 H   0  0  0  0  0  0  0  0  0  0  0  0
   36.8742   28.8728   29.6480 H   0  0  0  0  0  0  0  0  0  0  0  0
  1  2  1  0
  1  6  1  0
  2  3  1  0
  3  4  1  0
  5  4  1  0
  6  5  1  0
  7 12  1  0
  7  1  1  0
  8  7  2  0
  9 10  2  0
  9  8  1  0
 10 11  1  0
 11 12  2  0
 13  6  1  0
 14 13  1  0
 15 14  1  0
 16 15  1  0
 17 18  1  0
 17 16  2  0
 18 23  2  0
 19 18  1  0
 19 20  2  0
 20 21  1  0
 21 22  2  0
 23 15  1  0
 23 22  1  0
 24 19  1  0
  2 25  1  0
  2 26  1  0
  3 27  1  0
  3 28  1  0
  4 29  1  0
  4 30  1  0
  5 31  1  0
  5 32  1  0
  6 33  1  1
  8 34  1  0
  9 35  1  0
 11 36  1  0
 13 37  1  0
 13 38  1  0
 14 39  1  0
 14 40  1  0
 16 41  1  0
 21 42  1  0
 24 43  1  0
 24 44  1  0
M  ISO  8  25  13  26  13  27  13  28  13  29  13  30  13  31  13  32  13
M  ISO  8  33  13  34  14  35  14  36  14  37   8  38   8  39   8  40   8
M  ISO  2  41  14  42  14
M  END
>  <minimizedAffinity>  (1) 
-5.46442223

>  <minimizedRMSD>  (1) 
2.22352195

$$$$
