
     RDKit          3D

 41 43  0  0  1  0  0  0  0  0999 V2000
   38.8850   23.4230   35.7380 N   0  0  0  0  0  0  0  0  0  0  0  0
   40.0580   22.7750   36.2730 C   0  0  0  0  0  0  0  0  0  0  0  0
   40.0960   22.5220   37.7200 C   0  0  0  0  0  0  0  0  0  0  0  0
   39.2280   23.3350   38.6140 C   0  0  0  0  0  0  0  0  0  0  0  0
   38.0450   23.9620   37.9190 C   0  0  0  0  0  0  0  0  0  0  0  0
   38.5370   24.5340   36.5620 C   0  0  2  0  0  0  0  0  0  0  0  0
   38.2120   22.9790   34.5610 C   0  0  0  0  0  0  0  0  0  0  0  0
   38.3040   23.5320   33.3040 C   0  0  0  0  0  0  0  0  0  0  0  0
   37.6030   23.0130   32.2440 C   0  0  0  0  0  0  0  0  0  0  0  0
   36.8140   21.9290   32.4910 N   0  0  0  0  0  0  0  0  0  0  0  0
   36.7200   21.3860   33.7160 C   0  0  0  0  0  0  0  0  0  0  0  0
   37.4160   21.9130   34.7320 N   0  0  0  0  0  0  0  0  0  0  0  0
   37.4970   25.4390   35.9940 C   0  0  0  0  0  0  0  0  0  0  0  0
   38.1380   26.7870   35.7230 C   0  0  0  0  0  0  0  0  0  0  0  0
   37.6910   27.3670   34.4310 C   0  0  0  0  0  0  0  0  0  0  0  0
   36.5470   28.1700   34.4710 C   0  0  0  0  0  0  0  0  0  0  0  0
   36.0180   28.7720   33.3560 C   0  0  0  0  0  0  0  0  0  0  0  0
   36.6240   28.5900   32.1390 C   0  0  0  0  0  0  0  0  0  0  0  0
   37.7690   27.7930   32.0680 C   0  0  0  0  0  0  0  0  0  0  0  0
   38.2860   27.1960   33.1980 C   0  0  0  0  0  0  0  0  0  0  0  0
   40.1570   21.8036   35.7665 H   0  0  0  0  0  0  0  0  0  0  0  0
   40.8768   23.4871   36.0927 H   0  0  0  0  0  0  0  0  0  0  0  0
   39.8185   21.4684   37.8711 H   0  0  0  0  0  0  0  0  0  0  0  0
   41.1178   22.8057   38.0123 H   0  0  0  0  0  0  0  0  0  0  0  0
   38.8519   22.6834   39.4165 H   0  0  0  0  0  0  0  0  0  0  0  0
   39.8478   24.1608   38.9932 H   0  0  0  0  0  0  0  0  0  0  0  0
   37.2682   23.2028   37.7450 H   0  0  0  0  0  0  0  0  0  0  0  0
   37.6162   24.7627   38.5395 H   0  0  0  0  0  0  0  0  0  0  0  0
   39.4339   25.1631   36.6606 H   0  0  0  0  0  0  0  0  0  0  0  0
   38.9518   24.4068   33.1457 H   0  0  0  0  0  0  0  0  0  0  0  0
   37.6748   23.4529   31.2384 H   0  0  0  0  0  0  0  0  0  0  0  0
   36.0739   20.5118   33.8842 H   0  0  0  0  0  0  0  0  0  0  0  0
   37.1079   25.0165   35.0559 H   0  0  0  0  0  0  0  0  0  0  0  0
   36.6628   25.5506   36.7022 H   0  0  0  0  0  0  0  0  0  0  0  0
   37.8676   27.4782   36.5348 H   0  0  0  0  0  0  0  0  0  0  0  0
   39.2269   26.6405   35.6705 H   0  0  0  0  0  0  0  0  0  0  0  0
   36.0485   28.3265   35.4390 H   0  0  0  0  0  0  0  0  0  0  0  0
   35.1154   29.3953   33.4381 H   0  0  0  0  0  0  0  0  0  0  0  0
   36.2152   29.0636   31.2342 H   0  0  0  0  0  0  0  0  0  0  0  0
   38.2645   27.6398   31.0980 H   0  0  0  0  0  0  0  0  0  0  0  0
   39.1885   26.5726   33.1152 H   0  0  0  0  0  0  0  0  0  0  0  0
  1  2  1  0
  1  6  1  0
  2  3  1  0
  3  4  1  0
  5  4  1  0
  6  5  1  0
  7 12  1  0
  7  1  1  0
  8  7  2  0
  9 10  2  0
  9  8  1  0
 10 11  1  0
 11 12  2  0
 13  6  1  0
 14 13  1  0
 15 16  2  0
 15 14  1  0
 17 16  1  0
 18 17  2  0
 19 18  1  0
 19 20  2  0
 20 15  1  0
  2 21  1  0
  2 22  1  0
  3 23  1  0
  3 24  1  0
  4 25  1  0
  4 26  1  0
  5 27  1  0
  5 28  1  0
  6 29  1  1
  8 30  1  0
  9 31  1  0
 11 32  1  0
 13 33  1  0
 13 34  1  0
 14 35  1  0
 14 36  1  0
 16 37  1  0
 17 38  1  0
 18 39  1  0
 19 40  1  0
 20 41  1  0
M  ISO  8  21  13  22  13  23  13  24  13  25  13  26  13  27  13  28  13
M  ISO  8  29  13  30  14  31  14  32  14  33   8  34   8  35   8  36   8
M  ISO  5  37  14  38  14  39  14  40  14  41  14
M  END
>  <minimizedAffinity>  (1) 
-5.30583477

>  <minimizedRMSD>  (1) 
1.17304909

$$$$
