
     RDKit          3D

 40 42  0  0  1  0  0  0  0  0999 V2000
   38.8720   23.4440   35.7300 N   0  0  0  0  0  0  0  0  0  0  0  0
   40.0480   22.7870   36.2610 C   0  0  0  0  0  0  0  0  0  0  0  0
   40.0600   22.5070   37.7120 C   0  0  0  0  0  0  0  0  0  0  0  0
   39.2350   23.3550   38.6060 C   0  0  0  0  0  0  0  0  0  0  0  0
   38.0390   23.9670   37.9150 C   0  0  0  0  0  0  0  0  0  0  0  0
   38.5280   24.5490   36.5560 C   0  0  2  0  0  0  0  0  0  0  0  0
   38.2030   23.0040   34.5510 C   0  0  0  0  0  0  0  0  0  0  0  0
   38.2950   23.5990   33.3030 C   0  0  0  0  0  0  0  0  0  0  0  0
   37.5880   23.0690   32.2380 C   0  0  0  0  0  0  0  0  0  0  0  0
   36.8200   21.9650   32.4670 N   0  0  0  0  0  0  0  0  0  0  0  0
   36.7400   21.3970   33.6830 C   0  0  0  0  0  0  0  0  0  0  0  0
   37.4290   21.9230   34.7040 N   0  0  0  0  0  0  0  0  0  0  0  0
   37.4830   25.4570   36.0030 C   0  0  0  0  0  0  0  0  0  0  0  0
   38.1150   26.7920   35.7070 C   0  0  0  0  0  0  0  0  0  0  0  0
   37.6460   27.3850   34.4420 C   0  0  0  0  0  0  0  0  0  0  0  0
   36.5170   28.1930   34.5160 C   0  0  0  0  0  0  0  0  0  0  0  0
   36.0210   28.7850   33.3540 C   0  0  0  0  0  0  0  0  0  0  0  0
   36.6140   28.5960   32.1180 C   0  0  0  0  0  0  0  0  0  0  0  0
   37.7430   27.7740   32.1130 C   0  0  0  0  0  0  0  0  0  0  0  0
   38.2130   27.2080   33.2350 N   0  0  0  0  0  0  0  0  0  0  0  0
   40.1573   21.8264   35.7363 H   0  0  0  0  0  0  0  0  0  0  0  0
   40.8713   23.4985   36.0996 H   0  0  0  0  0  0  0  0  0  0  0  0
   39.7198   21.4694   37.8447 H   0  0  0  0  0  0  0  0  0  0  0  0
   41.0944   22.7224   38.0179 H   0  0  0  0  0  0  0  0  0  0  0  0
   38.8762   22.7356   39.4412 H   0  0  0  0  0  0  0  0  0  0  0  0
   39.8725   24.1837   38.9477 H   0  0  0  0  0  0  0  0  0  0  0  0
   37.2727   23.1976   37.7396 H   0  0  0  0  0  0  0  0  0  0  0  0
   37.5961   24.7584   38.5375 H   0  0  0  0  0  0  0  0  0  0  0  0
   39.4256   25.1781   36.6479 H   0  0  0  0  0  0  0  0  0  0  0  0
   38.9267   24.4880   33.1596 H   0  0  0  0  0  0  0  0  0  0  0  0
   37.6435   23.5237   31.2379 H   0  0  0  0  0  0  0  0  0  0  0  0
   36.1131   20.5066   33.8382 H   0  0  0  0  0  0  0  0  0  0  0  0
   37.0715   25.0283   35.0773 H   0  0  0  0  0  0  0  0  0  0  0  0
   36.6679   25.5800   36.7314 H   0  0  0  0  0  0  0  0  0  0  0  0
   37.8744   27.4832   36.5282 H   0  0  0  0  0  0  0  0  0  0  0  0
   39.1985   26.6283   35.6111 H   0  0  0  0  0  0  0  0  0  0  0  0
   36.0193   28.3640   35.4819 H   0  0  0  0  0  0  0  0  0  0  0  0
   35.1281   29.4238   33.4227 H   0  0  0  0  0  0  0  0  0  0  0  0
   36.2226   29.0617   31.2015 H   0  0  0  0  0  0  0  0  0  0  0  0
   38.2619   27.5851   31.1617 H   0  0  0  0  0  0  0  0  0  0  0  0
  1  2  1  0
  1  6  1  0
  2  3  1  0
  3  4  1  0
  5  4  1  0
  6  5  1  0
  7 12  1  0
  7  1  1  0
  8  7  2  0
  9 10  2  0
  9  8  1  0
 10 11  1  0
 11 12  2  0
 13  6  1  0
 14 13  1  0
 15 16  2  0
 15 14  1  0
 17 16  1  0
 18 17  2  0
 19 18  1  0
 19 20  2  0
 20 15  1  0
  2 21  1  0
  2 22  1  0
  3 23  1  0
  3 24  1  0
  4 25  1  0
  4 26  1  0
  5 27  1  0
  5 28  1  0
  6 29  1  1
  8 30  1  0
  9 31  1  0
 11 32  1  0
 13 33  1  0
 13 34  1  0
 14 35  1  0
 14 36  1  0
 16 37  1  0
 17 38  1  0
 18 39  1  0
 19 40  1  0
M  ISO  8  21  13  22  13  23  13  24  13  25  13  26  13  27  13  28  13
M  ISO  8  29  13  30  14  31  14  32  14  33   8  34   8  35   8  36   8
M  ISO  4  37  14  38  14  39  14  40  14
M  END
>  <minimizedAffinity>  (1) 
-5.06299734

>  <minimizedRMSD>  (1) 
1.1532774

$$$$
