
     RDKit          3D

 31 32  0  0  0  0  0  0  0  0999 V2000
   38.1760   23.6740   37.0480 C   0  0  0  0  0  0  0  0  0  0  0  0
   41.5580   22.0330   37.1990 C   0  0  0  0  0  0  0  0  0  0  0  0
   40.2320   22.2970   37.5110 C   0  0  0  0  0  0  0  0  0  0  0  0
   39.5650   23.3170   36.7940 C   0  0  0  0  0  0  0  0  0  0  0  0
   40.2560   23.9870   35.8320 N   0  0  0  0  0  0  0  0  0  0  0  0
   41.5390   23.7050   35.5550 C   0  0  0  0  0  0  0  0  0  0  0  0
   42.1870   22.7350   36.2320 N   0  0  0  0  0  0  0  0  0  0  0  0
   38.1150   24.3060   38.4440 C   0  0  0  0  0  0  0  0  0  0  0  0
   37.5750   24.5940   36.0220 C   0  0  0  0  0  0  0  0  0  0  0  0
   37.3340   22.4170   37.0710 C   0  0  0  0  0  0  0  0  0  0  0  0
   37.0300   21.8790   35.7630 C   0  0  0  0  0  0  0  0  0  0  0  0
   35.9520   21.1140   35.5000 C   0  0  0  0  0  0  0  0  0  0  0  0
   35.6110   20.6010   34.2870 C   0  0  0  0  0  0  0  0  0  0  0  0
   36.5950   20.9970   33.2840 C   0  0  0  0  0  0  0  0  0  0  0  0
   37.8660   22.0410   34.1930 S   0  0  0  0  0  0  0  0  0  0  0  0
   36.7150   20.7390   31.8890 C   0  0  0  0  0  0  0  0  0  0  0  0
   35.8920   21.2530   31.1040 O   0  0  0  0  0  0  0  0  0  0  0  0
   42.1008   21.2462   37.7433 H   0  0  0  0  0  0  0  0  0  0  0  0
   39.7130   21.7274   38.2960 H   0  0  0  0  0  0  0  0  0  0  0  0
   42.0653   24.2688   34.7707 H   0  0  0  0  0  0  0  0  0  0  0  0
   38.1911   23.5174   39.2071 H   0  0  0  0  0  0  0  0  0  0  0  0
   38.9491   25.0132   38.5631 H   0  0  0  0  0  0  0  0  0  0  0  0
   37.1611   24.8407   38.5631 H   0  0  0  0  0  0  0  0  0  0  0  0
   37.0413   25.4109   36.5298 H   0  0  0  0  0  0  0  0  0  0  0  0
   38.3739   25.0133   35.3927 H   0  0  0  0  0  0  0  0  0  0  0  0
   36.8700   24.0309   35.3927 H   0  0  0  0  0  0  0  0  0  0  0  0
   37.8772   21.6491   37.6414 H   0  0  0  0  0  0  0  0  0  0  0  0
   36.3725   22.6908   37.5298 H   0  0  0  0  0  0  0  0  0  0  0  0
   35.2861   20.8830   36.3445 H   0  0  0  0  0  0  0  0  0  0  0  0
   34.7247   19.9796   34.0910 H   0  0  0  0  0  0  0  0  0  0  0  0
   37.5219   20.0956   31.5083 H   0  0  0  0  0  0  0  0  0  0  0  0
  1 10  1  0
  1  8  1  0
  2  3  2  0
  4  1  1  0
  4  3  1  0
  5  4  2  0
  6  5  1  0
  6  7  2  0
  7  2  1  0
  9  1  1  0
 11 10  1  0
 12 11  2  0
 13 12  1  0
 14 15  1  0
 14 13  2  0
 15 11  1  0
 16 14  1  0
 17 16  2  0
  2 18  1  0
  3 19  1  0
  6 20  1  0
  8 21  1  0
  8 22  1  0
  8 23  1  0
  9 24  1  0
  9 25  1  0
  9 26  1  0
 10 27  1  0
 10 28  1  0
 12 29  1  0
 13 30  1  0
 16 31  1  0
M  ISO  8  18  14  19  14  20  14  21   8  22   8  23   8  24   8  25   8
M  ISO  6  26   8  27   8  28   8  29  14  30  14  31   6
M  END
>  <minimizedAffinity>  (1) 
-4.09103012

>  <minimizedRMSD>  (1) 
0.159396753

$$$$
