
     RDKit          3D

 43 45  0  0  1  0  0  0  0  0999 V2000
   38.8740   22.5680   35.4970 N   0  0  0  0  0  0  0  0  0  0  0  0
   40.2110   22.0140   35.3860 C   0  0  0  0  0  0  0  0  0  0  0  0
   40.9550   21.7980   36.6330 C   0  0  0  0  0  0  0  0  0  0  0  0
   40.5950   22.5990   37.8300 C   0  0  0  0  0  0  0  0  0  0  0  0
   39.1780   23.1040   37.8160 C   0  0  0  0  0  0  0  0  0  0  0  0
   38.8960   23.6680   36.3980 C   0  0  2  0  0  0  0  0  0  0  0  0
   37.7510   22.0450   34.7890 C   0  0  0  0  0  0  0  0  0  0  0  0
   37.5180   22.1970   33.4390 C   0  0  0  0  0  0  0  0  0  0  0  0
   36.3820   21.6340   32.8820 C   0  0  0  0  0  0  0  0  0  0  0  0
   35.5370   20.9510   33.6970 N   0  0  0  0  0  0  0  0  0  0  0  0
   35.7830   20.8160   35.0010 C   0  0  0  0  0  0  0  0  0  0  0  0
   36.8810   21.3630   35.5270 N   0  0  0  0  0  0  0  0  0  0  0  0
   37.6410   24.4860   36.4440 C   0  0  0  0  0  0  0  0  0  0  0  0
   37.9930   25.9090   36.0630 C   0  0  0  0  0  0  0  0  0  0  0  0
   37.2040   26.4620   35.0300 N   0  0  0  0  0  0  0  0  0  0  0  0
   37.4990   25.9550   33.7080 C   0  0  0  0  0  0  0  0  0  0  0  0
   36.8150   26.9630   32.8060 C   0  0  0  0  0  0  0  0  0  0  0  0
   36.4150   28.1270   33.6840 C   0  0  0  0  0  0  0  0  0  0  0  0
   37.2400   27.9000   34.9290 C   0  0  0  0  0  0  0  0  0  0  0  0
   40.1248   21.0412   34.8797 H   0  0  0  0  0  0  0  0  0  0  0  0
   40.7882   22.7752   34.8405 H   0  0  0  0  0  0  0  0  0  0  0  0
   40.8312   20.7391   36.9037 H   0  0  0  0  0  0  0  0  0  0  0  0
   41.9772   22.1253   36.3922 H   0  0  0  0  0  0  0  0  0  0  0  0
   40.7308   21.9702   38.7223 H   0  0  0  0  0  0  0  0  0  0  0  0
   41.2509   23.4820   37.8350 H   0  0  0  0  0  0  0  0  0  0  0  0
   38.4837   22.2799   38.0370 H   0  0  0  0  0  0  0  0  0  0  0  0
   39.0383   23.8852   38.5778 H   0  0  0  0  0  0  0  0  0  0  0  0
   39.6757   24.3548   36.0369 H   0  0  0  0  0  0  0  0  0  0  0  0
   38.2258   22.7587   32.8117 H   0  0  0  0  0  0  0  0  0  0  0  0
   36.1696   21.7372   31.8077 H   0  0  0  0  0  0  0  0  0  0  0  0
   35.0841   20.2564   35.6400 H   0  0  0  0  0  0  0  0  0  0  0  0
   36.9055   24.0808   35.7335 H   0  0  0  0  0  0  0  0  0  0  0  0
   37.2048   24.4584   37.4534 H   0  0  0  0  0  0  0  0  0  0  0  0
   37.8771   26.5403   36.9564 H   0  0  0  0  0  0  0  0  0  0  0  0
   39.0240   25.8793   35.6806 H   0  0  0  0  0  0  0  0  0  0  0  0
   38.5834   25.9304   33.5252 H   0  0  0  0  0  0  0  0  0  0  0  0
   37.1552   24.9222   33.5491 H   0  0  0  0  0  0  0  0  0  0  0  0
   35.9244   26.5141   32.3419 H   0  0  0  0  0  0  0  0  0  0  0  0
   37.4842   27.2888   31.9960 H   0  0  0  0  0  0  0  0  0  0  0  0
   36.6675   29.0870   33.2100 H   0  0  0  0  0  0  0  0  0  0  0  0
   35.3335   28.1763   33.8790 H   0  0  0  0  0  0  0  0  0  0  0  0
   38.2684   28.2698   34.8042 H   0  0  0  0  0  0  0  0  0  0  0  0
   36.8661   28.4249   35.8205 H   0  0  0  0  0  0  0  0  0  0  0  0
  1  6  1  0
  2  1  1  0
  2  3  1  0
  3  4  1  0
  5  4  1  0
  6 13  1  0
  6  5  1  0
  7  1  1  0
  7 12  1  0
  8  7  2  0
  9  8  1  0
  9 10  2  0
 10 11  1  0
 11 12  2  0
 14 13  1  0
 15 14  1  0
 16 15  1  0
 17 18  1  0
 17 16  1  0
 18 19  1  0
 19 15  1  0
  2 20  1  0
  2 21  1  0
  3 22  1  0
  3 23  1  0
  4 24  1  0
  4 25  1  0
  5 26  1  0
  5 27  1  0
  6 28  1  6
  8 29  1  0
  9 30  1  0
 11 31  1  0
 13 32  1  0
 13 33  1  0
 14 34  1  0
 14 35  1  0
 16 36  1  0
 16 37  1  0
 17 38  1  0
 17 39  1  0
 18 40  1  0
 18 41  1  0
 19 42  1  0
 19 43  1  0
M  ISO  8  20  13  21  13  22  13  23  13  24  13  25  13  26  13  27  13
M  ISO  8  28  13  29  14  30  14  31  14  32   8  33   8  34   8  35   8
M  ISO  8  36  13  37  13  38  13  39  13  40  13  41  13  42  13  43  13
M  END
>  <minimizedAffinity>  (1) 
-4.72012711

>  <minimizedRMSD>  (1) 
1.91000724

$$$$
