
     RDKit          3D

 38 40  0  0  1  0  0  0  0  0999 V2000
   38.8730   23.4670   35.7380 N   0  0  0  0  0  0  0  0  0  0  0  0
   40.0630   22.8350   36.2650 C   0  0  0  0  0  0  0  0  0  0  0  0
   40.0890   22.5620   37.7180 C   0  0  0  0  0  0  0  0  0  0  0  0
   39.2050   23.3500   38.6140 C   0  0  0  0  0  0  0  0  0  0  0  0
   38.0260   23.9670   37.9190 C   0  0  0  0  0  0  0  0  0  0  0  0
   38.5130   24.5590   36.5650 C   0  0  2  0  0  0  0  0  0  0  0  0
   38.2090   23.0130   34.5610 C   0  0  0  0  0  0  0  0  0  0  0  0
   38.3010   23.5910   33.3100 C   0  0  0  0  0  0  0  0  0  0  0  0
   37.6030   23.0520   32.2450 C   0  0  0  0  0  0  0  0  0  0  0  0
   36.8370   21.9480   32.4840 N   0  0  0  0  0  0  0  0  0  0  0  0
   36.7540   21.3930   33.7050 C   0  0  0  0  0  0  0  0  0  0  0  0
   37.4350   21.9290   34.7150 N   0  0  0  0  0  0  0  0  0  0  0  0
   37.4520   25.4560   36.0090 C   0  0  0  0  0  0  0  0  0  0  0  0
   38.1000   26.7780   35.6440 C   0  0  0  0  0  0  0  0  0  0  0  0
   37.3990   27.4820   34.5680 C   0  0  0  0  0  0  0  0  0  0  0  0
   37.7050   27.3130   33.2260 C   0  0  0  0  0  0  0  0  0  0  0  0
   36.8890   28.0930   32.4780 N   0  0  0  0  0  0  0  0  0  0  0  0
   36.0860   28.7390   33.3430 C   0  0  0  0  0  0  0  0  0  0  0  0
   36.3920   28.3720   34.6070 N   0  0  0  0  0  0  0  0  0  0  0  0
   40.1871   21.8740   35.7442 H   0  0  0  0  0  0  0  0  0  0  0  0
   40.8718   23.5611   36.0956 H   0  0  0  0  0  0  0  0  0  0  0  0
   39.8226   21.5032   37.8520 H   0  0  0  0  0  0  0  0  0  0  0  0
   41.1041   22.8556   38.0237 H   0  0  0  0  0  0  0  0  0  0  0  0
   38.8306   22.6831   39.4046 H   0  0  0  0  0  0  0  0  0  0  0  0
   39.8103   24.1784   39.0107 H   0  0  0  0  0  0  0  0  0  0  0  0
   37.2591   23.2001   37.7354 H   0  0  0  0  0  0  0  0  0  0  0  0
   37.5891   24.7595   38.5443 H   0  0  0  0  0  0  0  0  0  0  0  0
   39.4025   25.1986   36.6637 H   0  0  0  0  0  0  0  0  0  0  0  0
   38.9301   24.4809   33.1608 H   0  0  0  0  0  0  0  0  0  0  0  0
   37.6630   23.4972   31.2409 H   0  0  0  0  0  0  0  0  0  0  0  0
   36.1284   20.5031   33.8683 H   0  0  0  0  0  0  0  0  0  0  0  0
   37.0078   24.9980   35.1129 H   0  0  0  0  0  0  0  0  0  0  0  0
   36.6561   25.6127   36.7520 H   0  0  0  0  0  0  0  0  0  0  0  0
   38.1093   27.4217   36.5359 H   0  0  0  0  0  0  0  0  0  0  0  0
   39.1163   26.5579   35.2852 H   0  0  0  0  0  0  0  0  0  0  0  0
   38.4881   26.6492   32.8309 H   0  0  0  0  0  0  0  0  0  0  0  0
   35.3003   29.4564   33.0638 H   0  0  0  0  0  0  0  0  0  0  0  0
   35.9297   28.7174   35.4602 H   0  0  0  0  0  0  0  0  0  0  0  0
  1  2  1  0
  1  6  1  0
  2  3  1  0
  3  4  1  0
  5  4  1  0
  6  5  1  0
  7 12  1  0
  7  1  1  0
  8  7  2  0
  9 10  2  0
  9  8  1  0
 10 11  1  0
 11 12  2  0
 13  6  1  0
 14 13  1  0
 15 19  1  0
 15 14  1  0
 16 15  2  0
 17 16  1  0
 17 18  2  0
 18 19  1  0
  2 20  1  0
  2 21  1  0
  3 22  1  0
  3 23  1  0
  4 24  1  0
  4 25  1  0
  5 26  1  0
  5 27  1  0
  6 28  1  1
  8 29  1  0
  9 30  1  0
 11 31  1  0
 13 32  1  0
 13 33  1  0
 14 34  1  0
 14 35  1  0
 16 36  1  0
 18 37  1  0
 19 38  1  0
M  ISO  8  20  13  21  13  22  13  23  13  24  13  25  13  26  13  27  13
M  ISO  8  28  13  29  14  30  14  31  14  32   8  33   8  34   8  35   8
M  ISO  3  36  14  37  14  38   9
M  END
>  <minimizedAffinity>  (1) 
-4.65339661

>  <minimizedRMSD>  (1) 
0.764864564

$$$$
