
     RDKit          3D

 36 38  0  0  1  0  0  0  0  0999 V2000
   38.8690   23.4710   35.7390 N   0  0  0  0  0  0  0  0  0  0  0  0
   40.0570   22.8300   36.2680 C   0  0  0  0  0  0  0  0  0  0  0  0
   40.0650   22.5390   37.7150 C   0  0  0  0  0  0  0  0  0  0  0  0
   39.2270   23.3630   38.6140 C   0  0  0  0  0  0  0  0  0  0  0  0
   38.0390   23.9780   37.9320 C   0  0  0  0  0  0  0  0  0  0  0  0
   38.5090   24.5630   36.5670 C   0  0  2  0  0  0  0  0  0  0  0  0
   38.2000   23.0270   34.5590 C   0  0  0  0  0  0  0  0  0  0  0  0
   38.2740   23.6320   33.3190 C   0  0  0  0  0  0  0  0  0  0  0  0
   37.5750   23.1050   32.2500 C   0  0  0  0  0  0  0  0  0  0  0  0
   36.8260   21.9850   32.4720 N   0  0  0  0  0  0  0  0  0  0  0  0
   36.7620   21.4060   33.6830 C   0  0  0  0  0  0  0  0  0  0  0  0
   37.4440   21.9300   34.7050 N   0  0  0  0  0  0  0  0  0  0  0  0
   37.4500   25.4590   36.0220 C   0  0  0  0  0  0  0  0  0  0  0  0
   38.0920   26.7940   35.6730 C   0  0  0  0  0  0  0  0  0  0  0  0
   37.4280   27.4720   34.5310 C   0  0  0  0  0  0  0  0  0  0  0  0
   36.4290   28.3730   34.5750 N   0  0  0  0  0  0  0  0  0  0  0  0
   36.1120   28.7420   33.3530 O   0  0  0  0  0  0  0  0  0  0  0  0
   36.8790   28.1060   32.4880 C   0  0  0  0  0  0  0  0  0  0  0  0
   37.6890   27.3230   33.2210 N   0  0  0  0  0  0  0  0  0  0  0  0
   40.1862   21.8762   35.7355 H   0  0  0  0  0  0  0  0  0  0  0  0
   40.8694   23.5556   36.1147 H   0  0  0  0  0  0  0  0  0  0  0  0
   39.7393   21.4954   37.8364 H   0  0  0  0  0  0  0  0  0  0  0  0
   41.0944   22.7700   38.0263 H   0  0  0  0  0  0  0  0  0  0  0  0
   38.8656   22.7252   39.4341 H   0  0  0  0  0  0  0  0  0  0  0  0
   39.8566   24.1902   38.9737 H   0  0  0  0  0  0  0  0  0  0  0  0
   37.2687   23.2112   37.7629 H   0  0  0  0  0  0  0  0  0  0  0  0
   37.6114   24.7742   38.5591 H   0  0  0  0  0  0  0  0  0  0  0  0
   39.3994   25.2031   36.6536 H   0  0  0  0  0  0  0  0  0  0  0  0
   38.8895   24.5334   33.1828 H   0  0  0  0  0  0  0  0  0  0  0  0
   37.6203   23.5714   31.2548 H   0  0  0  0  0  0  0  0  0  0  0  0
   36.1503   20.5040   33.8321 H   0  0  0  0  0  0  0  0  0  0  0  0
   37.0100   25.0098   35.1194 H   0  0  0  0  0  0  0  0  0  0  0  0
   36.6531   25.6030   36.7664 H   0  0  0  0  0  0  0  0  0  0  0  0
   38.0355   27.4516   36.5530 H   0  0  0  0  0  0  0  0  0  0  0  0
   39.1328   26.5935   35.3788 H   0  0  0  0  0  0  0  0  0  0  0  0
   36.8595   28.1978   31.3920 H   0  0  0  0  0  0  0  0  0  0  0  0
  1  2  1  0
  1  6  1  0
  2  3  1  0
  3  4  1  0
  5  4  1  0
  6  5  1  0
  7 12  1  0
  7  1  1  0
  8  7  2  0
  9 10  2  0
  9  8  1  0
 10 11  1  0
 11 12  2  0
 13  6  1  0
 14 13  1  0
 15 16  2  0
 15 14  1  0
 17 16  1  0
 18 19  2  0
 18 17  1  0
 19 15  1  0
  2 20  1  0
  2 21  1  0
  3 22  1  0
  3 23  1  0
  4 24  1  0
  4 25  1  0
  5 26  1  0
  5 27  1  0
  6 28  1  1
  8 29  1  0
  9 30  1  0
 11 31  1  0
 13 32  1  0
 13 33  1  0
 14 34  1  0
 14 35  1  0
 18 36  1  0
M  ISO  8  20  13  21  13  22  13  23  13  24  13  25  13  26  13  27  13
M  ISO  8  28  13  29  14  30  14  31  14  32   8  33   8  34   8  35   8
M  ISO  1  36  14
M  END
>  <minimizedAffinity>  (1) 
-4.63418007

>  <minimizedRMSD>  (1) 
0.827124834

$$$$
