
     RDKit          3D

 44 46  0  0  1  0  0  0  0  0999 V2000
   38.9880   23.3630   35.6400 N   0  0  0  0  0  0  0  0  0  0  0  0
   40.1280   22.7090   36.2680 C   0  0  0  0  0  0  0  0  0  0  0  0
   40.0600   22.4740   37.7240 C   0  0  0  0  0  0  0  0  0  0  0  0
   39.2070   23.3710   38.5390 C   0  0  0  0  0  0  0  0  0  0  0  0
   38.0720   23.9970   37.7680 C   0  0  0  0  0  0  0  0  0  0  0  0
   38.6280   24.5080   36.4300 C   0  0  2  0  0  0  0  0  0  0  0  0
   38.3740   22.9050   34.4520 C   0  0  0  0  0  0  0  0  0  0  0  0
   38.6580   23.3440   33.1770 C   0  0  0  0  0  0  0  0  0  0  0  0
   37.9730   22.8080   32.1000 C   0  0  0  0  0  0  0  0  0  0  0  0
   37.0400   21.8640   32.3420 N   0  0  0  0  0  0  0  0  0  0  0  0
   36.7690   21.4420   33.5870 C   0  0  0  0  0  0  0  0  0  0  0  0
   37.4340   21.9620   34.6310 N   0  0  0  0  0  0  0  0  0  0  0  0
   37.6460   25.4360   35.7680 C   0  0  0  0  0  0  0  0  0  0  0  0
   38.2530   26.8200   35.7430 C   0  0  0  0  0  0  0  0  0  0  0  0
   37.9580   27.5980   34.5920 N   0  0  0  0  0  0  0  0  0  0  0  0
   38.2480   26.9610   33.3450 C   0  0  0  0  0  0  0  0  0  0  0  0
   37.0390   26.7160   32.4720 C   0  0  0  0  0  0  0  0  0  0  0  0
   36.2250   27.8050   32.2990 O   0  0  0  0  0  0  0  0  0  0  0  0
   36.1330   28.6430   33.3790 C   0  0  0  0  0  0  0  0  0  0  0  0
   36.5280   27.8740   34.6260 C   0  0  0  0  0  0  0  0  0  0  0  0
   40.2561   21.7307   35.7816 H   0  0  0  0  0  0  0  0  0  0  0  0
   40.9634   23.4122   36.1356 H   0  0  0  0  0  0  0  0  0  0  0  0
   39.6899   21.4487   37.8720 H   0  0  0  0  0  0  0  0  0  0  0  0
   41.0818   22.6718   38.0801 H   0  0  0  0  0  0  0  0  0  0  0  0
   38.7822   22.7866   39.3684 H   0  0  0  0  0  0  0  0  0  0  0  0
   39.8487   24.1930   38.8889 H   0  0  0  0  0  0  0  0  0  0  0  0
   37.2882   23.2475   37.5841 H   0  0  0  0  0  0  0  0  0  0  0  0
   37.6348   24.8279   38.3411 H   0  0  0  0  0  0  0  0  0  0  0  0
   39.5339   25.1159   36.5710 H   0  0  0  0  0  0  0  0  0  0  0  0
   39.4248   24.1161   33.0159 H   0  0  0  0  0  0  0  0  0  0  0  0
   38.1839   23.1430   31.0737 H   0  0  0  0  0  0  0  0  0  0  0  0
   36.0024   20.6705   33.7519 H   0  0  0  0  0  0  0  0  0  0  0  0
   37.4470   25.0973   34.7405 H   0  0  0  0  0  0  0  0  0  0  0  0
   36.6964   25.4458   36.3232 H   0  0  0  0  0  0  0  0  0  0  0  0
   37.8861   27.3666   36.6243 H   0  0  0  0  0  0  0  0  0  0  0  0
   39.3428   26.6709   35.7346 H   0  0  0  0  0  0  0  0  0  0  0  0
   38.9505   27.5986   32.7884 H   0  0  0  0  0  0  0  0  0  0  0  0
   38.6651   25.9725   33.5875 H   0  0  0  0  0  0  0  0  0  0  0  0
   37.3919   26.3918   31.4819 H   0  0  0  0  0  0  0  0  0  0  0  0
   36.4338   25.9557   32.9874 H   0  0  0  0  0  0  0  0  0  0  0  0
   36.8100   29.4991   33.2420 H   0  0  0  0  0  0  0  0  0  0  0  0
   35.1025   29.0147   33.4784 H   0  0  0  0  0  0  0  0  0  0  0  0
   35.9720   26.9256   34.6637 H   0  0  0  0  0  0  0  0  0  0  0  0
   36.2907   28.4730   35.5175 H   0  0  0  0  0  0  0  0  0  0  0  0
  1  2  1  0
  1  6  1  0
  2  3  1  0
  3  4  1  0
  5  4  1  0
  6  5  1  0
  7 12  1  0
  7  1  1  0
  8  7  2  0
  9 10  2  0
  9  8  1  0
 10 11  1  0
 11 12  2  0
 13  6  1  0
 14 13  1  0
 15 20  1  0
 15 14  1  0
 16 15  1  0
 17 16  1  0
 18 17  1  0
 18 19  1  0
 19 20  1  0
  2 21  1  0
  2 22  1  0
  3 23  1  0
  3 24  1  0
  4 25  1  0
  4 26  1  0
  5 27  1  0
  5 28  1  0
  6 29  1  1
  8 30  1  0
  9 31  1  0
 11 32  1  0
 13 33  1  0
 13 34  1  0
 14 35  1  0
 14 36  1  0
 16 37  1  0
 16 38  1  0
 17 39  1  0
 17 40  1  0
 19 41  1  0
 19 42  1  0
 20 43  1  0
 20 44  1  0
M  ISO  8  21  13  22  13  23  13  24  13  25  13  26  13  27  13  28  13
M  ISO  8  29  13  30  14  31  14  32  14  33   8  34   8  35   8  36   8
M  ISO  8  37  13  38  13  39  13  40  13  41  13  42  13  43  13  44  13
M  END
>  <minimizedAffinity>  (1) 
-4.59594679

>  <minimizedRMSD>  (1) 
0.777616918

$$$$
