
     RDKit          3D

 38 40  0  0  1  0  0  0  0  0999 V2000
   38.9580   23.4020   35.6540 N   0  0  0  0  0  0  0  0  0  0  0  0
   40.1270   22.7760   36.2480 C   0  0  0  0  0  0  0  0  0  0  0  0
   40.0810   22.5030   37.6890 C   0  0  0  0  0  0  0  0  0  0  0  0
   39.2110   23.3540   38.5470 C   0  0  0  0  0  0  0  0  0  0  0  0
   38.0370   23.9410   37.8070 C   0  0  0  0  0  0  0  0  0  0  0  0
   38.5590   24.5040   36.4510 C   0  0  2  0  0  0  0  0  0  0  0  0
   38.3420   22.9420   34.4530 C   0  0  0  0  0  0  0  0  0  0  0  0
   38.5720   23.4270   33.1830 C   0  0  0  0  0  0  0  0  0  0  0  0
   37.9050   22.8920   32.1080 C   0  0  0  0  0  0  0  0  0  0  0  0
   37.0220   21.8790   32.3430 N   0  0  0  0  0  0  0  0  0  0  0  0
   36.8000   21.4080   33.5830 C   0  0  0  0  0  0  0  0  0  0  0  0
   37.4610   21.9440   34.6150 N   0  0  0  0  0  0  0  0  0  0  0  0
   37.5160   25.3860   35.8540 C   0  0  0  0  0  0  0  0  0  0  0  0
   38.1710   26.7220   35.5130 C   0  0  0  0  0  0  0  0  0  0  0  0
   37.6110   27.3280   34.3320 N   0  0  0  0  0  0  0  0  0  0  0  0
   36.5250   28.1010   34.3560 C   0  0  0  0  0  0  0  0  0  0  0  0
   36.2820   28.5000   33.0630 C   0  0  0  0  0  0  0  0  0  0  0  0
   37.2270   27.9560   32.2830 N   0  0  0  0  0  0  0  0  0  0  0  0
   38.0570   27.2260   33.0610 C   0  0  0  0  0  0  0  0  0  0  0  0
   40.2858   21.8165   35.7341 H   0  0  0  0  0  0  0  0  0  0  0  0
   40.9364   23.5105   36.1238 H   0  0  0  0  0  0  0  0  0  0  0  0
   39.7412   21.4640   37.8118 H   0  0  0  0  0  0  0  0  0  0  0  0
   41.1007   22.7242   38.0371 H   0  0  0  0  0  0  0  0  0  0  0  0
   38.8297   22.7396   39.3759 H   0  0  0  0  0  0  0  0  0  0  0  0
   39.8254   24.1941   38.9030 H   0  0  0  0  0  0  0  0  0  0  0  0
   37.2835   23.1611   37.6227 H   0  0  0  0  0  0  0  0  0  0  0  0
   37.5711   24.7414   38.4005 H   0  0  0  0  0  0  0  0  0  0  0  0
   39.4446   25.1474   36.5599 H   0  0  0  0  0  0  0  0  0  0  0  0
   39.2917   24.2447   33.0302 H   0  0  0  0  0  0  0  0  0  0  0  0
   38.0775   23.2688   31.0890 H   0  0  0  0  0  0  0  0  0  0  0  0
   36.0824   20.5906   33.7468 H   0  0  0  0  0  0  0  0  0  0  0  0
   37.1131   24.9234   34.9410 H   0  0  0  0  0  0  0  0  0  0  0  0
   36.6882   25.5348   36.5629 H   0  0  0  0  0  0  0  0  0  0  0  0
   38.0325   27.4089   36.3609 H   0  0  0  0  0  0  0  0  0  0  0  0
   39.2361   26.5303   35.3161 H   0  0  0  0  0  0  0  0  0  0  0  0
   35.9340   28.3693   35.2441 H   0  0  0  0  0  0  0  0  0  0  0  0
   35.4595   29.1493   32.7284 H   0  0  0  0  0  0  0  0  0  0  0  0
   38.9336   26.6545   32.7218 H   0  0  0  0  0  0  0  0  0  0  0  0
  1  2  1  0
  1  6  1  0
  2  3  1  0
  3  4  1  0
  5  4  1  0
  6  5  1  0
  7 12  1  0
  7  1  1  0
  8  7  2  0
  9 10  2  0
  9  8  1  0
 10 11  1  0
 11 12  2  0
 13  6  1  0
 14 13  1  0
 15 16  1  0
 15 14  1  0
 17 16  2  0
 18 19  2  0
 18 17  1  0
 19 15  1  0
  2 20  1  0
  2 21  1  0
  3 22  1  0
  3 23  1  0
  4 24  1  0
  4 25  1  0
  5 26  1  0
  5 27  1  0
  6 28  1  1
  8 29  1  0
  9 30  1  0
 11 31  1  0
 13 32  1  0
 13 33  1  0
 14 34  1  0
 14 35  1  0
 16 36  1  0
 17 37  1  0
 19 38  1  0
M  ISO  8  20  13  21  13  22  13  23  13  24  13  25  13  26  13  27  13
M  ISO  8  28  13  29  14  30  14  31  14  32   8  33   8  34   8  35   8
M  ISO  3  36  14  37  14  38  14
M  END
>  <minimizedAffinity>  (1) 
-4.43998814

>  <minimizedRMSD>  (1) 
0.970739484

$$$$
