
     RDKit          3D

 46 48  0  0  1  0  0  0  0  0999 V2000
   39.0400   23.1170   35.8140 N   0  0  0  0  0  0  0  0  0  0  0  0
   40.0670   22.6460   36.7310 C   0  0  0  0  0  0  0  0  0  0  0  0
   39.7750   22.7390   38.1710 C   0  0  0  0  0  0  0  0  0  0  0  0
   38.7740   23.7360   38.6360 C   0  0  0  0  0  0  0  0  0  0  0  0
   37.7990   24.1510   37.5780 C   0  0  0  0  0  0  0  0  0  0  0  0
   38.5730   24.3810   36.2670 C   0  0  2  0  0  0  0  0  0  0  0  0
   38.6190   22.3890   34.6740 C   0  0  0  0  0  0  0  0  0  0  0  0
   39.3940   22.1230   33.5460 C   0  0  0  0  0  0  0  0  0  0  0  0
   38.8610   21.4030   32.4970 C   0  0  0  0  0  0  0  0  0  0  0  0
   37.5720   20.9730   32.6190 N   0  0  0  0  0  0  0  0  0  0  0  0
   36.8460   21.2360   33.7050 C   0  0  0  0  0  0  0  0  0  0  0  0
   37.3770   21.9360   34.7120 N   0  0  0  0  0  0  0  0  0  0  0  0
   37.7100   25.1290   35.2730 C   0  0  0  0  0  0  0  0  0  0  0  0
   38.5920   26.0150   34.4460 C   0  0  0  0  0  0  0  0  0  0  0  0
   38.5390   25.8730   33.0450 N   0  0  0  0  0  0  0  0  0  0  0  0
   38.7530   27.1600   32.4450 C   0  0  0  0  0  0  0  0  0  0  0  0
   37.4800   27.9400   32.1950 C   0  0  0  0  0  0  0  0  0  0  0  0
   36.6800   27.0920   31.2110 C   0  0  0  0  0  0  0  0  0  0  0  0
   36.3160   25.8360   31.9550 C   0  0  0  0  0  0  0  0  0  0  0  0
   37.5250   25.0800   32.4630 C   0  0  0  0  0  0  0  0  0  0  0  0
   40.2578   21.5877   36.4994 H   0  0  0  0  0  0  0  0  0  0  0  0
   40.9220   23.3191   36.5703 H   0  0  0  0  0  0  0  0  0  0  0  0
   39.4194   21.7492   38.4934 H   0  0  0  0  0  0  0  0  0  0  0  0
   40.7209   23.0859   38.6124 H   0  0  0  0  0  0  0  0  0  0  0  0
   38.2114   23.2981   39.4737 H   0  0  0  0  0  0  0  0  0  0  0  0
   39.3317   24.6375   38.9295 H   0  0  0  0  0  0  0  0  0  0  0  0
   37.0492   23.3594   37.4327 H   0  0  0  0  0  0  0  0  0  0  0  0
   37.2842   25.0750   37.8800 H   0  0  0  0  0  0  0  0  0  0  0  0
   39.4529   25.0247   36.4133 H   0  0  0  0  0  0  0  0  0  0  0  0
   40.4305   22.4873   33.4925 H   0  0  0  0  0  0  0  0  0  0  0  0
   39.4529   21.1838   31.5961 H   0  0  0  0  0  0  0  0  0  0  0  0
   35.8086   20.8766   33.7727 H   0  0  0  0  0  0  0  0  0  0  0  0
   37.1891   24.4121   34.6212 H   0  0  0  0  0  0  0  0  0  0  0  0
   36.9621   25.7347   35.8056 H   0  0  0  0  0  0  0  0  0  0  0  0
   38.3237   27.0557   34.6805 H   0  0  0  0  0  0  0  0  0  0  0  0
   39.6156   25.7159   34.7158 H   0  0  0  0  0  0  0  0  0  0  0  0
   39.3957   27.7513   33.1138 H   0  0  0  0  0  0  0  0  0  0  0  0
   39.2158   26.9814   31.4632 H   0  0  0  0  0  0  0  0  0  0  0  0
   36.9200   28.0755   33.1320 H   0  0  0  0  0  0  0  0  0  0  0  0
   37.6844   28.9462   31.8002 H   0  0  0  0  0  0  0  0  0  0  0  0
   37.2905   26.8511   30.3282 H   0  0  0  0  0  0  0  0  0  0  0  0
   35.7864   27.6233   30.8514 H   0  0  0  0  0  0  0  0  0  0  0  0
   35.6854   26.1076   32.8144 H   0  0  0  0  0  0  0  0  0  0  0  0
   35.7871   25.1771   31.2507 H   0  0  0  0  0  0  0  0  0  0  0  0
   37.1809   24.3606   33.2207 H   0  0  0  0  0  0  0  0  0  0  0  0
   37.9801   24.6099   31.5788 H   0  0  0  0  0  0  0  0  0  0  0  0
  1  6  1  0
  1  2  1  0
  2  3  1  0
  3  4  1  0
  5  4  1  0
  6  5  1  0
  7 12  1  0
  7  1  1  0
  8  7  2  0
  9 10  2  0
  9  8  1  0
 10 11  1  0
 11 12  2  0
 13  6  1  0
 14 13  1  0
 15 14  1  0
 16 15  1  0
 17 16  1  0
 18 19  1  0
 18 17  1  0
 19 20  1  0
 20 15  1  0
  2 21  1  0
  2 22  1  0
  3 23  1  0
  3 24  1  0
  4 25  1  0
  4 26  1  0
  5 27  1  0
  5 28  1  0
  6 29  1  1
  8 30  1  0
  9 31  1  0
 11 32  1  0
 13 33  1  0
 13 34  1  0
 14 35  1  0
 14 36  1  0
 16 37  1  0
 16 38  1  0
 17 39  1  0
 17 40  1  0
 18 41  1  0
 18 42  1  0
 19 43  1  0
 19 44  1  0
 20 45  1  0
 20 46  1  0
M  ISO  8  21  13  22  13  23  13  24  13  25  13  26  13  27  13  28  13
M  ISO  8  29  13  30  14  31  14  32  14  33   8  34   8  35   8  36   8
M  ISO  8  37  13  38  13  39  13  40  13  41  13  42  13  43  13  44  13
M  ISO  2  45  13  46  13
M  END
>  <minimizedAffinity>  (1) 
-4.38490057

>  <minimizedRMSD>  (1) 
2.60569

$$$$
