
     RDKit          3D

 32 33  0  0  1  0  0  0  0  0999 V2000
   38.8430   23.5160   35.7560 N   0  0  0  0  0  0  0  0  0  0  0  0
   39.9170   22.7910   36.3950 C   0  0  0  0  0  0  0  0  0  0  0  0
   39.8440   22.6220   37.8560 C   0  0  0  0  0  0  0  0  0  0  0  0
   39.0260   23.5690   38.6470 C   0  0  0  0  0  0  0  0  0  0  0  0
   37.9580   24.2720   37.8530 C   0  0  0  0  0  0  0  0  0  0  0  0
   38.5650   24.6990   36.4860 C   0  0  2  0  0  0  0  0  0  0  0  0
   38.1940   23.0630   34.5710 C   0  0  0  0  0  0  0  0  0  0  0  0
   38.2830   23.6510   33.3240 C   0  0  0  0  0  0  0  0  0  0  0  0
   37.6000   23.1100   32.2520 C   0  0  0  0  0  0  0  0  0  0  0  0
   36.8500   21.9930   32.4780 N   0  0  0  0  0  0  0  0  0  0  0  0
   36.7690   21.4280   33.6920 C   0  0  0  0  0  0  0  0  0  0  0  0
   37.4370   21.9660   34.7180 N   0  0  0  0  0  0  0  0  0  0  0  0
   37.6360   25.6600   35.8270 C   0  0  0  0  0  0  0  0  0  0  0  0
   38.3000   27.0320   35.8250 C   0  0  0  0  0  0  0  0  0  0  0  0
   39.6070   26.9650   35.3810 O   0  0  0  0  0  0  0  0  0  0  0  0
   39.9492   21.7866   35.9477 H   0  0  0  0  0  0  0  0  0  0  0  0
   40.8122   23.4077   36.2271 H   0  0  0  0  0  0  0  0  0  0  0  0
   39.4441   21.6148   38.0446 H   0  0  0  0  0  0  0  0  0  0  0  0
   40.8725   22.8133   38.1959 H   0  0  0  0  0  0  0  0  0  0  0  0
   38.5400   23.0098   39.4600 H   0  0  0  0  0  0  0  0  0  0  0  0
   39.7104   24.3472   39.0158 H   0  0  0  0  0  0  0  0  0  0  0  0
   37.1099   23.5915   37.6868 H   0  0  0  0  0  0  0  0  0  0  0  0
   37.5996   25.1561   38.4006 H   0  0  0  0  0  0  0  0  0  0  0  0
   39.5183   25.2402   36.5773 H   0  0  0  0  0  0  0  0  0  0  0  0
   38.8989   24.5517   33.1845 H   0  0  0  0  0  0  0  0  0  0  0  0
   37.6588   23.5637   31.2517 H   0  0  0  0  0  0  0  0  0  0  0  0
   36.1563   20.5269   33.8427 H   0  0  0  0  0  0  0  0  0  0  0  0
   37.4389   25.3393   34.7934 H   0  0  0  0  0  0  0  0  0  0  0  0
   36.6797   25.6994   36.3691 H   0  0  0  0  0  0  0  0  0  0  0  0
   37.7322   27.7022   35.1629 H   0  0  0  0  0  0  0  0  0  0  0  0
   38.3068   27.4120   36.8573 H   0  0  0  0  0  0  0  0  0  0  0  0
   40.2186   26.9336   36.1589 H   0  0  0  0  0  0  0  0  0  0  0  0
  1  2  1  0
  1  6  1  0
  2  3  1  0
  3  4  1  0
  5  4  1  0
  6  5  1  0
  7 12  1  0
  7  1  1  0
  8  7  2  0
  9 10  2  0
  9  8  1  0
 10 11  1  0
 11 12  2  0
 13  6  1  0
 14 13  1  0
 15 14  1  0
  2 16  1  0
  2 17  1  0
  3 18  1  0
  3 19  1  0
  4 20  1  0
  4 21  1  0
  5 22  1  0
  5 23  1  0
  6 24  1  1
  8 25  1  0
  9 26  1  0
 11 27  1  0
 13 28  1  0
 13 29  1  0
 14 30  1  0
 14 31  1  0
 15 32  1  0
M  ISO  8  16  13  17  13  18  13  19  13  20  13  21  13  22  13  23  13
M  ISO  8  24  13  25  14  26  14  27  14  28   8  29   8  30   8  31   8
M  ISO  1  32   3
M  END
>  <minimizedAffinity>  (1) 
-4.11178493

>  <minimizedRMSD>  (1) 
0.0643597543

$$$$
