
     RDKit          3D

 32 33  0  0  1  0  0  0  0  0999 V2000
   38.7420   22.6300   35.5860 N   0  0  0  0  0  0  0  0  0  0  0  0
   40.0580   22.0250   35.6990 C   0  0  0  0  0  0  0  0  0  0  0  0
   40.6100   21.8960   37.0580 C   0  0  0  0  0  0  0  0  0  0  0  0
   40.1780   22.8760   38.0970 C   0  0  0  0  0  0  0  0  0  0  0  0
   38.8030   23.4330   37.8410 C   0  0  0  0  0  0  0  0  0  0  0  0
   38.7090   23.8370   36.3630 C   0  0  2  0  0  0  0  0  0  0  0  0
   37.6800   22.0780   34.8120 C   0  0  0  0  0  0  0  0  0  0  0  0
   37.5120   22.2220   33.4530 C   0  0  0  0  0  0  0  0  0  0  0  0
   36.4330   21.6360   32.8250 C   0  0  0  0  0  0  0  0  0  0  0  0
   35.5590   20.9220   33.5920 N   0  0  0  0  0  0  0  0  0  0  0  0
   35.7290   20.7870   34.9170 C   0  0  0  0  0  0  0  0  0  0  0  0
   36.7840   21.3640   35.5080 N   0  0  0  0  0  0  0  0  0  0  0  0
   37.5110   24.6960   36.1440 C   0  0  0  0  0  0  0  0  0  0  0  0
   37.8390   25.6990   35.0520 C   0  0  0  0  0  0  0  0  0  0  0  0
   38.6000   27.1430   35.8350 S   0  0  0  0  0  0  0  0  0  0  0  0
   39.9997   21.0158   35.2653 H   0  0  0  0  0  0  0  0  0  0  0  0
   40.7386   22.7110   35.1735 H   0  0  0  0  0  0  0  0  0  0  0  0
   40.3408   20.8943   37.4243 H   0  0  0  0  0  0  0  0  0  0  0  0
   41.6850   22.0926   36.9322 H   0  0  0  0  0  0  0  0  0  0  0  0
   40.1764   22.3727   39.0751 H   0  0  0  0  0  0  0  0  0  0  0  0
   40.8854   23.7180   38.0712 H   0  0  0  0  0  0  0  0  0  0  0  0
   38.0450   22.6681   38.0656 H   0  0  0  0  0  0  0  0  0  0  0  0
   38.6251   24.3082   38.4832 H   0  0  0  0  0  0  0  0  0  0  0  0
   39.5570   24.4584   36.0393 H   0  0  0  0  0  0  0  0  0  0  0  0
   38.2387   22.8047   32.8679 H   0  0  0  0  0  0  0  0  0  0  0  0
   36.2818   21.7408   31.7405 H   0  0  0  0  0  0  0  0  0  0  0  0
   35.0081   20.2075   35.5124 H   0  0  0  0  0  0  0  0  0  0  0  0
   36.6584   24.0738   35.8342 H   0  0  0  0  0  0  0  0  0  0  0  0
   37.2445   25.2202   37.0736 H   0  0  0  0  0  0  0  0  0  0  0  0
   36.9180   25.9984   34.5304 H   0  0  0  0  0  0  0  0  0  0  0  0
   38.5260   25.2547   34.3167 H   0  0  0  0  0  0  0  0  0  0  0  0
   38.5315   27.0130   37.1971 H   0  0  0  0  0  0  0  0  0  0  0  0
  1  2  1  0
  1  6  1  0
  2  3  1  0
  3  4  1  0
  5  4  1  0
  6  5  1  0
  7 12  1  0
  7  1  1  0
  8  7  2  0
  9  8  1  0
  9 10  2  0
 10 11  1  0
 11 12  2  0
 13  6  1  0
 14 15  1  0
 14 13  1  0
  2 16  1  0
  2 17  1  0
  3 18  1  0
  3 19  1  0
  4 20  1  0
  4 21  1  0
  5 22  1  0
  5 23  1  0
  6 24  1  6
  8 25  1  0
  9 26  1  0
 11 27  1  0
 13 28  1  0
 13 29  1  0
 14 30  1  0
 14 31  1  0
 15 32  1  0
M  ISO  8  16  13  17  13  18  13  19  13  20  13  21  13  22  13  23  13
M  ISO  8  24  13  25  14  26  14  27  14  28   8  29   8  30   8  31   8
M  ISO  1  32  11
M  END
>  <minimizedAffinity>  (1) 
-3.95413709

>  <minimizedRMSD>  (1) 
1.45245695

$$$$
