
     RDKit          3D

 33 34  0  0  1  0  0  0  0  0999 V2000
   38.9880   23.3880   35.6460 N   0  0  0  0  0  0  0  0  0  0  0  0
   40.1140   22.7090   36.2710 C   0  0  0  0  0  0  0  0  0  0  0  0
   40.0500   22.4900   37.7150 C   0  0  0  0  0  0  0  0  0  0  0  0
   39.1910   23.3800   38.5360 C   0  0  0  0  0  0  0  0  0  0  0  0
   38.0630   24.0190   37.7650 C   0  0  0  0  0  0  0  0  0  0  0  0
   38.6420   24.5270   36.4120 C   0  0  2  0  0  0  0  0  0  0  0  0
   38.3660   22.9320   34.4460 C   0  0  0  0  0  0  0  0  0  0  0  0
   38.6210   23.3960   33.1740 C   0  0  0  0  0  0  0  0  0  0  0  0
   37.9400   22.8630   32.1000 C   0  0  0  0  0  0  0  0  0  0  0  0
   37.0370   21.8920   32.3370 N   0  0  0  0  0  0  0  0  0  0  0  0
   36.7830   21.4330   33.5850 C   0  0  0  0  0  0  0  0  0  0  0  0
   37.4540   21.9630   34.6110 N   0  0  0  0  0  0  0  0  0  0  0  0
   37.6570   25.4490   35.7780 C   0  0  0  0  0  0  0  0  0  0  0  0
   38.2230   26.8620   35.8480 C   0  0  0  0  0  0  0  0  0  0  0  0
   37.4390   27.8350   35.1550 N   0  0  0  0  0  0  0  0  0  0  0  0
   40.2125   21.7237   35.7919 H   0  0  0  0  0  0  0  0  0  0  0  0
   40.9673   23.3881   36.1269 H   0  0  0  0  0  0  0  0  0  0  0  0
   39.6918   21.4616   37.8705 H   0  0  0  0  0  0  0  0  0  0  0  0
   41.0701   22.7100   38.0629 H   0  0  0  0  0  0  0  0  0  0  0  0
   38.7585   22.7859   39.3545 H   0  0  0  0  0  0  0  0  0  0  0  0
   39.8320   24.1961   38.9008 H   0  0  0  0  0  0  0  0  0  0  0  0
   37.2703   23.2794   37.5791 H   0  0  0  0  0  0  0  0  0  0  0  0
   37.6303   24.8535   38.3363 H   0  0  0  0  0  0  0  0  0  0  0  0
   39.5593   25.1234   36.5253 H   0  0  0  0  0  0  0  0  0  0  0  0
   39.3660   24.1897   33.0156 H   0  0  0  0  0  0  0  0  0  0  0  0
   38.1291   23.2211   31.0772 H   0  0  0  0  0  0  0  0  0  0  0  0
   36.0392   20.6397   33.7507 H   0  0  0  0  0  0  0  0  0  0  0  0
   36.7003   25.4027   36.3190 H   0  0  0  0  0  0  0  0  0  0  0  0
   37.4804   25.1592   34.7317 H   0  0  0  0  0  0  0  0  0  0  0  0
   38.2862   27.1577   36.9056 H   0  0  0  0  0  0  0  0  0  0  0  0
   39.2070   26.8364   35.3569 H   0  0  0  0  0  0  0  0  0  0  0  0
   36.9551   28.4355   35.8377 H   0  0  0  0  0  0  0  0  0  0  0  0
   38.0532   28.4131   34.5639 H   0  0  0  0  0  0  0  0  0  0  0  0
  1  2  1  0
  1  6  1  0
  2  3  1  0
  3  4  1  0
  5  4  1  0
  6  5  1  0
  7 12  1  0
  7  1  1  0
  8  7  2  0
  9 10  2  0
  9  8  1  0
 10 11  1  0
 11 12  2  0
 13 14  1  0
 13  6  1  0
 15 14  1  0
  2 16  1  0
  2 17  1  0
  3 18  1  0
  3 19  1  0
  4 20  1  0
  4 21  1  0
  5 22  1  0
  5 23  1  0
  6 24  1  1
  8 25  1  0
  9 26  1  0
 11 27  1  0
 13 28  1  0
 13 29  1  0
 14 30  1  0
 14 31  1  0
 15 32  1  0
 15 33  1  0
M  ISO  8  16  13  17  13  18  13  19  13  20  13  21  13  22  13  23  13
M  ISO  8  24  13  25  14  26  14  27  14  28   8  29   8  30   8  31   8
M  ISO  2  32   5  33   5
M  END
>  <minimizedAffinity>  (1) 
-3.90648174

>  <minimizedRMSD>  (1) 
0.261837572

$$$$
