
     RDKit          3D

 30 31  0  0  0  0  0  0  0  0999 V2000
   38.1720   23.6910   37.0680 C   0  0  0  0  0  0  0  0  0  0  0  0
   41.5400   22.0250   37.2150 C   0  0  0  0  0  0  0  0  0  0  0  0
   40.2160   22.3080   37.5250 C   0  0  0  0  0  0  0  0  0  0  0  0
   39.5640   23.3180   36.8170 C   0  0  0  0  0  0  0  0  0  0  0  0
   40.2550   23.9850   35.8490 N   0  0  0  0  0  0  0  0  0  0  0  0
   41.5320   23.6850   35.5770 C   0  0  0  0  0  0  0  0  0  0  0  0
   42.1820   22.7060   36.2550 N   0  0  0  0  0  0  0  0  0  0  0  0
   38.1180   24.3180   38.4640 C   0  0  0  0  0  0  0  0  0  0  0  0
   37.5830   24.6140   36.0370 C   0  0  0  0  0  0  0  0  0  0  0  0
   37.3180   22.4420   37.0860 C   0  0  0  0  0  0  0  0  0  0  0  0
   37.0300   21.8910   35.7770 C   0  0  0  0  0  0  0  0  0  0  0  0
   35.9540   21.1230   35.5180 C   0  0  0  0  0  0  0  0  0  0  0  0
   35.6150   20.5890   34.3400 C   0  0  0  0  0  0  0  0  0  0  0  0
   36.6260   20.9700   33.3120 C   0  0  0  0  0  0  0  0  0  0  0  0
   37.8870   22.0330   34.2270 S   0  0  0  0  0  0  0  0  0  0  0  0
   36.7490   20.6950   31.9780 O   0  0  0  0  0  0  0  0  0  0  0  0
   42.0686   21.2319   37.7642 H   0  0  0  0  0  0  0  0  0  0  0  0
   39.6920   21.7471   38.3129 H   0  0  0  0  0  0  0  0  0  0  0  0
   42.0625   24.2419   34.7906 H   0  0  0  0  0  0  0  0  0  0  0  0
   38.1862   23.5262   39.2245 H   0  0  0  0  0  0  0  0  0  0  0  0
   38.9593   25.0162   38.5852 H   0  0  0  0  0  0  0  0  0  0  0  0
   37.1697   24.8621   38.5852 H   0  0  0  0  0  0  0  0  0  0  0  0
   37.0569   25.4384   36.5407 H   0  0  0  0  0  0  0  0  0  0  0  0
   38.3877   25.0225   35.4081 H   0  0  0  0  0  0  0  0  0  0  0  0
   36.8735   24.0562   35.4081 H   0  0  0  0  0  0  0  0  0  0  0  0
   37.8439   21.6749   37.6734 H   0  0  0  0  0  0  0  0  0  0  0  0
   36.3508   22.7311   37.5230 H   0  0  0  0  0  0  0  0  0  0  0  0
   35.2838   20.9131   36.3646 H   0  0  0  0  0  0  0  0  0  0  0  0
   34.7276   19.9651   34.1574 H   0  0  0  0  0  0  0  0  0  0  0  0
   36.0716   20.1339   31.5237 H   0  0  0  0  0  0  0  0  0  0  0  0
  1 10  1  0
  1  8  1  0
  2  3  2  0
  4  1  1  0
  4  3  1  0
  5  4  2  0
  6  5  1  0
  6  7  2  0
  7  2  1  0
  9  1  1  0
 11 10  1  0
 12 11  2  0
 13 12  1  0
 14 15  1  0
 14 13  2  0
 15 11  1  0
 16 14  1  0
  2 17  1  0
  3 18  1  0
  6 19  1  0
  8 20  1  0
  8 21  1  0
  8 22  1  0
  9 23  1  0
  9 24  1  0
  9 25  1  0
 10 26  1  0
 10 27  1  0
 12 28  1  0
 13 29  1  0
 16 30  1  0
M  ISO  8  17  14  18  14  19  14  20   8  21   8  22   8  23   8  24   8
M  ISO  6  25   8  26   8  27   8  28  14  29  14  30   3
M  END
>  <minimizedAffinity>  (1) 
-4.06336308

>  <minimizedRMSD>  (1) 
0.116237998

$$$$
