
     RDKit          3D

 30 31  0  0  0  0  0  0  0  0999 V2000
   38.1940   23.6690   37.0010 C   0  0  0  0  0  0  0  0  0  0  0  0
   41.5860   22.0190   37.1910 C   0  0  0  0  0  0  0  0  0  0  0  0
   40.2480   22.2810   37.4940 C   0  0  0  0  0  0  0  0  0  0  0  0
   39.5960   23.3050   36.7700 C   0  0  0  0  0  0  0  0  0  0  0  0
   40.2980   23.9820   35.8190 N   0  0  0  0  0  0  0  0  0  0  0  0
   41.5860   23.7050   35.5510 C   0  0  0  0  0  0  0  0  0  0  0  0
   42.2230   22.7310   36.2330 N   0  0  0  0  0  0  0  0  0  0  0  0
   38.1230   24.2750   38.4090 C   0  0  0  0  0  0  0  0  0  0  0  0
   37.6080   24.5760   35.9780 C   0  0  0  0  0  0  0  0  0  0  0  0
   37.3530   22.4020   37.0140 C   0  0  0  0  0  0  0  0  0  0  0  0
   37.0630   21.8680   35.7010 C   0  0  0  0  0  0  0  0  0  0  0  0
   35.9760   21.1230   35.4350 C   0  0  0  0  0  0  0  0  0  0  0  0
   35.6210   20.6020   34.2530 C   0  0  0  0  0  0  0  0  0  0  0  0
   36.6340   20.9700   33.2230 C   0  0  0  0  0  0  0  0  0  0  0  0
   37.9200   22.0080   34.1550 S   0  0  0  0  0  0  0  0  0  0  0  0
   36.7940   20.6350   31.5060 S   0  0  0  0  0  0  0  0  0  0  0  0
   42.1251   21.2291   37.7345 H   0  0  0  0  0  0  0  0  0  0  0  0
   39.7190   21.7092   38.2706 H   0  0  0  0  0  0  0  0  0  0  0  0
   42.1206   24.2729   34.7753 H   0  0  0  0  0  0  0  0  0  0  0  0
   38.2168   23.4747   39.1578 H   0  0  0  0  0  0  0  0  0  0  0  0
   38.9427   24.9969   38.5393 H   0  0  0  0  0  0  0  0  0  0  0  0
   37.1586   24.7878   38.5393 H   0  0  0  0  0  0  0  0  0  0  0  0
   37.0765   25.3987   36.4787 H   0  0  0  0  0  0  0  0  0  0  0  0
   38.4115   24.9874   35.3494 H   0  0  0  0  0  0  0  0  0  0  0  0
   36.9027   24.0126   35.3494 H   0  0  0  0  0  0  0  0  0  0  0  0
   37.8946   21.6345   37.5864 H   0  0  0  0  0  0  0  0  0  0  0  0
   36.3867   22.6692   37.4665 H   0  0  0  0  0  0  0  0  0  0  0  0
   35.3038   20.9187   36.2814 H   0  0  0  0  0  0  0  0  0  0  0  0
   34.7211   19.9963   34.0706 H   0  0  0  0  0  0  0  0  0  0  0  0
   37.3797   19.4087   31.3326 H   0  0  0  0  0  0  0  0  0  0  0  0
  1 10  1  0
  1  8  1  0
  2  3  2  0
  4  1  1  0
  4  3  1  0
  5  4  2  0
  6  5  1  0
  6  7  2  0
  7  2  1  0
  9  1  1  0
 11 10  1  0
 12 11  2  0
 13 12  1  0
 14 15  1  0
 14 13  2  0
 15 11  1  0
 16 14  1  0
  2 17  1  0
  3 18  1  0
  6 19  1  0
  8 20  1  0
  8 21  1  0
  8 22  1  0
  9 23  1  0
  9 24  1  0
  9 25  1  0
 10 26  1  0
 10 27  1  0
 12 28  1  0
 13 29  1  0
 16 30  1  0
M  ISO  8  17  14  18  14  19  14  20   8  21   8  22   8  23   8  24   8
M  ISO  6  25   8  26   8  27   8  28  14  29  14  30  11
M  END
>  <minimizedAffinity>  (1) 
-4.04536533

>  <minimizedRMSD>  (1) 
0.0472581312

$$$$
