
     RDKit          3D

 49 52  0  0  1  0  0  0  0  0999 V2000
   39.0360   23.2700   35.3120 N   0  0  0  0  0  0  0  0  0  0  0  0
   40.2900   22.5610   35.4770 C   0  0  0  0  0  0  0  0  0  0  0  0
   40.6090   22.1000   36.8430 C   0  0  0  0  0  0  0  0  0  0  0  0
   40.0030   22.7920   37.9980 C   0  0  0  0  0  0  0  0  0  0  0  0
   38.6810   23.4650   37.6700 C   0  0  0  0  0  0  0  0  0  0  0  0
   38.8850   24.2410   36.3260 C   0  0  2  0  0  0  0  0  0  0  0  0
   38.1280   22.9790   34.2510 C   0  0  0  0  0  0  0  0  0  0  0  0
   37.9240   23.7460   33.1240 C   0  0  0  0  0  0  0  0  0  0  0  0
   37.0160   23.3550   32.1670 C   0  0  0  0  0  0  0  0  0  0  0  0
   36.3350   22.1960   32.3730 N   0  0  0  0  0  0  0  0  0  0  0  0
   36.5320   21.4410   33.4760 C   0  0  0  0  0  0  0  0  0  0  0  0
   37.4240   21.8410   34.3990 N   0  0  0  0  0  0  0  0  0  0  0  0
   37.7380   25.1720   36.1540 C   0  0  0  0  0  0  0  0  0  0  0  0
   38.2870   26.5670   35.8980 C   0  0  0  0  0  0  0  0  0  0  0  0
   37.7630   27.1760   34.6620 C   0  0  0  0  0  0  0  0  0  0  0  0
   36.5500   27.8380   34.5170 C   0  0  0  0  0  0  0  0  0  0  0  0
   36.5670   28.1980   33.1820 C   0  0  0  0  0  0  0  0  0  0  0  0
   37.7230   27.7710   32.5800 C   0  0  0  0  0  0  0  0  0  0  0  0
   38.3990   27.1680   33.5130 O   0  0  0  0  0  0  0  0  0  0  0  0
   38.1060   27.9550   31.2050 N   0  0  0  0  0  0  0  0  0  0  0  0
   39.3530   27.6380   30.8080 C   0  0  0  0  0  0  0  0  0  0  0  0
   39.6610   27.8360   29.4760 C   0  0  0  0  0  0  0  0  0  0  0  0
   38.6660   28.3430   28.6660 C   0  0  0  0  0  0  0  0  0  0  0  0
   39.0630   28.5210   27.2970 N   0  0  0  0  0  0  0  0  0  0  0  0
   37.4190   28.6530   29.0920 N   0  0  0  0  0  0  0  0  0  0  0  0
   37.1360   28.4490   30.4130 C   0  0  0  0  0  0  0  0  0  0  0  0
   35.9890   28.7260   30.8480 O   0  0  0  0  0  0  0  0  0  0  0  0
   40.2630   21.6768   34.8232 H   0  0  0  0  0  0  0  0  0  0  0  0
   41.0735   23.2907   35.2245 H   0  0  0  0  0  0  0  0  0  0  0  0
   40.3047   21.0448   36.9051 H   0  0  0  0  0  0  0  0  0  0  0  0
   41.6834   22.3123   36.9459 H   0  0  0  0  0  0  0  0  0  0  0  0
   39.8308   22.0545   38.7957 H   0  0  0  0  0  0  0  0  0  0  0  0
   40.7026   23.5823   38.3078 H   0  0  0  0  0  0  0  0  0  0  0  0
   37.8906   22.7089   37.5537 H   0  0  0  0  0  0  0  0  0  0  0  0
   38.3773   24.1487   38.4764 H   0  0  0  0  0  0  0  0  0  0  0  0
   39.7852   24.8725   36.2978 H   0  0  0  0  0  0  0  0  0  0  0  0
   38.4918   24.6784   32.9886 H   0  0  0  0  0  0  0  0  0  0  0  0
   36.8464   23.9604   31.2644 H   0  0  0  0  0  0  0  0  0  0  0  0
   35.9677   20.5075   33.6176 H   0  0  0  0  0  0  0  0  0  0  0  0
   37.1242   24.8516   35.2992 H   0  0  0  0  0  0  0  0  0  0  0  0
   37.1120   25.1720   37.0585 H   0  0  0  0  0  0  0  0  0  0  0  0
   38.0167   27.2111   36.7477 H   0  0  0  0  0  0  0  0  0  0  0  0
   39.3770   26.4747   35.7821 H   0  0  0  0  0  0  0  0  0  0  0  0
   35.7733   28.0276   35.2725 H   0  0  0  0  0  0  0  0  0  0  0  0
   35.7638   28.7508   32.6728 H   0  0  0  0  0  0  0  0  0  0  0  0
   40.0952   27.2382   31.5146 H   0  0  0  0  0  0  0  0  0  0  0  0
   40.6586   27.5991   29.0776 H   0  0  0  0  0  0  0  0  0  0  0  0
   40.0190   28.2762   27.0020 H   0  0  0  0  0  0  0  0  0  0  0  0
   38.3916   28.8934   26.6103 H   0  0  0  0  0  0  0  0  0  0  0  0
  1  2  1  0
  1  6  1  0
  2  3  1  0
  3  4  1  0
  5  4  1  0
  6  5  1  0
  7 12  1  0
  7  1  1  0
  8  7  2  0
  9 10  2  0
  9  8  1  0
 10 11  1  0
 11 12  2  0
 13  6  1  0
 14 13  1  0
 15 14  1  0
 16 15  2  0
 17 16  1  0
 18 17  2  0
 18 19  1  0
 19 15  1  0
 20 18  1  0
 21 20  1  0
 22 21  2  0
 23 25  2  0
 23 22  1  0
 24 23  1  0
 25 26  1  0
 26 27  2  0
 26 20  1  0
  2 28  1  0
  2 29  1  0
  3 30  1  0
  3 31  1  0
  4 32  1  0
  4 33  1  0
  5 34  1  0
  5 35  1  0
  6 36  1  1
  8 37  1  0
  9 38  1  0
 11 39  1  0
 13 40  1  0
 13 41  1  0
 14 42  1  0
 14 43  1  0
 16 44  1  0
 17 45  1  0
 21 46  1  0
 22 47  1  0
 24 48  1  0
 24 49  1  0
M  ISO  8  28  13  29  13  30  13  31  13  32  13  33  13  34  13  35  13
M  ISO  8  36  13  37  14  38  14  39  14  40   8  41   8  42   8  43   8
M  ISO  4  44  14  45  14  46  14  47  14
M  END
>  <minimizedAffinity>  (1) 
-6.00926924

>  <minimizedRMSD>  (1) 
0.830179155

$$$$
