
     RDKit          3D

 45 48  0  0  1  0  0  0  0  0999 V2000
   38.8370   23.4860   35.7330 N   0  0  0  0  0  0  0  0  0  0  0  0
   40.0050   22.7860   36.2370 C   0  0  0  0  0  0  0  0  0  0  0  0
   40.0510   22.5150   37.6840 C   0  0  0  0  0  0  0  0  0  0  0  0
   39.2240   23.3500   38.6000 C   0  0  0  0  0  0  0  0  0  0  0  0
   38.0320   23.9970   37.9260 C   0  0  0  0  0  0  0  0  0  0  0  0
   38.5270   24.5800   36.5680 C   0  0  2  0  0  0  0  0  0  0  0  0
   38.1520   23.0690   34.5560 C   0  0  0  0  0  0  0  0  0  0  0  0
   38.1440   23.7260   33.3370 C   0  0  0  0  0  0  0  0  0  0  0  0
   37.4420   23.2150   32.2800 C   0  0  0  0  0  0  0  0  0  0  0  0
   36.7610   22.0590   32.4580 N   0  0  0  0  0  0  0  0  0  0  0  0
   36.7640   21.4120   33.6470 C   0  0  0  0  0  0  0  0  0  0  0  0
   37.4580   21.9220   34.6800 N   0  0  0  0  0  0  0  0  0  0  0  0
   37.4820   25.5050   36.0390 C   0  0  0  0  0  0  0  0  0  0  0  0
   38.1450   26.8190   35.6620 C   0  0  0  0  0  0  0  0  0  0  0  0
   37.5260   27.4530   34.4820 C   0  0  0  0  0  0  0  0  0  0  0  0
   36.3790   28.2280   34.4520 C   0  0  0  0  0  0  0  0  0  0  0  0
   36.2670   28.5520   33.1050 C   0  0  0  0  0  0  0  0  0  0  0  0
   37.2980   27.9900   32.3990 C   0  0  0  0  0  0  0  0  0  0  0  0
   38.0100   27.3500   33.2710 O   0  0  0  0  0  0  0  0  0  0  0  0
   37.5430   28.0890   30.9650 C   0  0  0  0  0  0  0  0  0  0  0  0
   38.7450   28.1640   30.2920 C   0  0  0  0  0  0  0  0  0  0  0  0
   38.4730   28.2450   28.9410 C   0  0  0  0  0  0  0  0  0  0  0  0
   37.1460   28.2190   28.8150 N   0  0  0  0  0  0  0  0  0  0  0  0
   36.6010   28.1280   30.0050 N   0  0  0  0  0  0  0  0  0  0  0  0
   40.0620   21.8186   35.7165 H   0  0  0  0  0  0  0  0  0  0  0  0
   40.8487   23.4659   36.0474 H   0  0  0  0  0  0  0  0  0  0  0  0
   39.7364   21.4707   37.8269 H   0  0  0  0  0  0  0  0  0  0  0  0
   41.0860   22.7582   37.9661 H   0  0  0  0  0  0  0  0  0  0  0  0
   38.8564   22.7103   39.4159 H   0  0  0  0  0  0  0  0  0  0  0  0
   39.8689   24.1641   38.9623 H   0  0  0  0  0  0  0  0  0  0  0  0
   37.2465   23.2473   37.7498 H   0  0  0  0  0  0  0  0  0  0  0  0
   37.6099   24.7909   38.5597 H   0  0  0  0  0  0  0  0  0  0  0  0
   39.4406   25.1865   36.6539 H   0  0  0  0  0  0  0  0  0  0  0  0
   38.7055   24.6644   33.2180 H   0  0  0  0  0  0  0  0  0  0  0  0
   37.4312   23.7312   31.3087 H   0  0  0  0  0  0  0  0  0  0  0  0
   36.2019   20.4742   33.7677 H   0  0  0  0  0  0  0  0  0  0  0  0
   37.0085   25.0605   35.1512 H   0  0  0  0  0  0  0  0  0  0  0  0
   36.7110   25.6786   36.8042 H   0  0  0  0  0  0  0  0  0  0  0  0
   38.0661   27.5099   36.5143 H   0  0  0  0  0  0  0  0  0  0  0  0
   39.1932   26.6010   35.4096 H   0  0  0  0  0  0  0  0  0  0  0  0
   35.7211   28.5153   35.2855 H   0  0  0  0  0  0  0  0  0  0  0  0
   35.4675   29.1694   32.6695 H   0  0  0  0  0  0  0  0  0  0  0  0
   39.7445   28.1600   30.7512 H   0  0  0  0  0  0  0  0  0  0  0  0
   39.2086   28.3170   28.1263 H   0  0  0  0  0  0  0  0  0  0  0  0
   36.6303   28.2633   27.9245 H   0  0  0  0  0  0  0  0  0  0  0  0
  1  2  1  0
  1  6  1  0
  2  3  1  0
  3  4  1  0
  5  4  1  0
  6  5  1  0
  7 12  1  0
  7  1  1  0
  8  7  2  0
  9 10  2  0
  9  8  1  0
 10 11  1  0
 11 12  2  0
 13  6  1  0
 14 13  1  0
 15 14  1  0
 16 15  2  0
 17 16  1  0
 18 17  2  0
 18 19  1  0
 19 15  1  0
 20 18  1  0
 21 20  1  0
 22 21  2  0
 23 22  1  0
 23 24  1  0
 24 20  2  0
  2 25  1  0
  2 26  1  0
  3 27  1  0
  3 28  1  0
  4 29  1  0
  4 30  1  0
  5 31  1  0
  5 32  1  0
  6 33  1  1
  8 34  1  0
  9 35  1  0
 11 36  1  0
 13 37  1  0
 13 38  1  0
 14 39  1  0
 14 40  1  0
 16 41  1  0
 17 42  1  0
 21 43  1  0
 22 44  1  0
 23 45  1  0
M  ISO  8  25  13  26  13  27  13  28  13  29  13  30  13  31  13  32  13
M  ISO  8  33  13  34  14  35  14  36  14  37   8  38   8  39   8  40   8
M  ISO  5  41  14  42  14  43  14  44  14  45   9
M  END
>  <minimizedAffinity>  (1) 
-5.85404825

>  <minimizedRMSD>  (1) 
0.183555707

$$$$
