
     RDKit          3D

 48 51  0  0  1  0  0  0  0  0999 V2000
   39.1260   23.2050   35.2380 N   0  0  0  0  0  0  0  0  0  0  0  0
   40.3990   22.5090   35.3150 C   0  0  0  0  0  0  0  0  0  0  0  0
   40.8070   22.0090   36.6470 C   0  0  0  0  0  0  0  0  0  0  0  0
   40.2160   22.6210   37.8560 C   0  0  0  0  0  0  0  0  0  0  0  0
   38.8810   23.2980   37.6160 C   0  0  0  0  0  0  0  0  0  0  0  0
   39.0140   24.1250   36.2980 C   0  0  2  0  0  0  0  0  0  0  0  0
   38.1780   22.9390   34.2120 C   0  0  0  0  0  0  0  0  0  0  0  0
   37.9460   23.7220   33.0880 C   0  0  0  0  0  0  0  0  0  0  0  0
   36.9960   23.3480   32.1700 C   0  0  0  0  0  0  0  0  0  0  0  0
   36.3000   22.2020   32.3930 N   0  0  0  0  0  0  0  0  0  0  0  0
   36.5210   21.4400   33.4800 C   0  0  0  0  0  0  0  0  0  0  0  0
   37.4540   21.8130   34.3760 N   0  0  0  0  0  0  0  0  0  0  0  0
   37.8470   25.0520   36.2100 C   0  0  0  0  0  0  0  0  0  0  0  0
   38.3670   26.4610   35.9730 C   0  0  0  0  0  0  0  0  0  0  0  0
   37.8190   27.0680   34.7520 C   0  0  0  0  0  0  0  0  0  0  0  0
   36.5940   27.7150   34.6260 C   0  0  0  0  0  0  0  0  0  0  0  0
   36.5780   28.0850   33.2980 C   0  0  0  0  0  0  0  0  0  0  0  0
   37.7410   27.6720   32.6750 C   0  0  0  0  0  0  0  0  0  0  0  0
   38.4370   27.0780   33.5820 O   0  0  0  0  0  0  0  0  0  0  0  0
   38.0110   27.9210   31.2700 C   0  0  0  0  0  0  0  0  0  0  0  0
   39.1680   27.5180   30.6360 C   0  0  0  0  0  0  0  0  0  0  0  0
   39.4470   27.7420   29.3040 C   0  0  0  0  0  0  0  0  0  0  0  0
   38.5170   28.4110   28.5380 C   0  0  0  0  0  0  0  0  0  0  0  0
   37.3290   28.8410   29.1250 C   0  0  0  0  0  0  0  0  0  0  0  0
   37.0910   28.5950   30.4680 C   0  0  0  0  0  0  0  0  0  0  0  0
   40.3472   21.6446   34.6367 H   0  0  0  0  0  0  0  0  0  0  0  0
   41.1550   23.2614   35.0462 H   0  0  0  0  0  0  0  0  0  0  0  0
   40.5633   20.9368   36.6769 H   0  0  0  0  0  0  0  0  0  0  0  0
   41.8726   22.2739   36.7123 H   0  0  0  0  0  0  0  0  0  0  0  0
   40.0729   21.8314   38.6084 H   0  0  0  0  0  0  0  0  0  0  0  0
   40.9136   23.4034   38.1895 H   0  0  0  0  0  0  0  0  0  0  0  0
   38.0889   22.5423   37.5086 H   0  0  0  0  0  0  0  0  0  0  0  0
   38.6158   23.9499   38.4614 H   0  0  0  0  0  0  0  0  0  0  0  0
   39.9088   24.7638   36.2614 H   0  0  0  0  0  0  0  0  0  0  0  0
   38.5251   24.6443   32.9331 H   0  0  0  0  0  0  0  0  0  0  0  0
   36.8031   23.9603   31.2767 H   0  0  0  0  0  0  0  0  0  0  0  0
   35.9425   20.5174   33.6355 H   0  0  0  0  0  0  0  0  0  0  0  0
   37.1964   24.7513   35.3756 H   0  0  0  0  0  0  0  0  0  0  0  0
   37.2663   25.0166   37.1435 H   0  0  0  0  0  0  0  0  0  0  0  0
   38.0897   27.0881   36.8331 H   0  0  0  0  0  0  0  0  0  0  0  0
   39.4585   26.3973   35.8523 H   0  0  0  0  0  0  0  0  0  0  0  0
   35.8275   27.8885   35.3957 H   0  0  0  0  0  0  0  0  0  0  0  0
   35.7589   28.6297   32.8057 H   0  0  0  0  0  0  0  0  0  0  0  0
   39.9195   26.9813   31.2337 H   0  0  0  0  0  0  0  0  0  0  0  0
   40.3923   27.3939   28.8622 H   0  0  0  0  0  0  0  0  0  0  0  0
   38.7110   28.6038   27.4725 H   0  0  0  0  0  0  0  0  0  0  0  0
   36.5799   29.3757   28.5226 H   0  0  0  0  0  0  0  0  0  0  0  0
   36.1476   28.9421   30.9147 H   0  0  0  0  0  0  0  0  0  0  0  0
  1  2  1  0
  1  6  1  0
  2  3  1  0
  3  4  1  0
  5  4  1  0
  6  5  1  0
  7 12  1  0
  7  1  1  0
  8  7  2  0
  9 10  2  0
  9  8  1  0
 10 11  1  0
 11 12  2  0
 13  6  1  0
 14 13  1  0
 15 14  1  0
 16 15  2  0
 17 16  1  0
 18 17  2  0
 18 19  1  0
 19 15  1  0
 20 18  1  0
 21 20  2  0
 22 21  1  0
 23 24  1  0
 23 22  2  0
 24 25  2  0
 25 20  1  0
  2 26  1  0
  2 27  1  0
  3 28  1  0
  3 29  1  0
  4 30  1  0
  4 31  1  0
  5 32  1  0
  5 33  1  0
  6 34  1  1
  8 35  1  0
  9 36  1  0
 11 37  1  0
 13 38  1  0
 13 39  1  0
 14 40  1  0
 14 41  1  0
 16 42  1  0
 17 43  1  0
 21 44  1  0
 22 45  1  0
 23 46  1  0
 24 47  1  0
 25 48  1  0
M  ISO  8  26  13  27  13  28  13  29  13  30  13  31  13  32  13  33  13
M  ISO  8  34  13  35  14  36  14  37  14  38   8  39   8  40   8  41   8
M  ISO  7  42  14  43  14  44  14  45  14  46  14  47  14  48  14
M  END
>  <minimizedAffinity>  (1) 
-5.73698235

>  <minimizedRMSD>  (1) 
0.803472459

$$$$
