
     RDKit          3D

 46 49  0  0  1  0  0  0  0  0999 V2000
   38.8480   23.4870   35.7130 N   0  0  0  0  0  0  0  0  0  0  0  0
   40.0220   22.8040   36.2060 C   0  0  0  0  0  0  0  0  0  0  0  0
   40.0570   22.5110   37.6580 C   0  0  0  0  0  0  0  0  0  0  0  0
   39.2300   23.3250   38.5800 C   0  0  0  0  0  0  0  0  0  0  0  0
   38.0420   23.9720   37.9170 C   0  0  0  0  0  0  0  0  0  0  0  0
   38.5310   24.5800   36.5580 C   0  0  2  0  0  0  0  0  0  0  0  0
   38.1540   23.0750   34.5410 C   0  0  0  0  0  0  0  0  0  0  0  0
   38.1300   23.7320   33.3250 C   0  0  0  0  0  0  0  0  0  0  0  0
   37.4200   23.2320   32.2630 C   0  0  0  0  0  0  0  0  0  0  0  0
   36.7460   22.0790   32.4410 N   0  0  0  0  0  0  0  0  0  0  0  0
   36.7580   21.4200   33.6280 C   0  0  0  0  0  0  0  0  0  0  0  0
   37.4600   21.9270   34.6570 N   0  0  0  0  0  0  0  0  0  0  0  0
   37.4710   25.4970   36.0410 C   0  0  0  0  0  0  0  0  0  0  0  0
   38.1080   26.8220   35.6880 C   0  0  0  0  0  0  0  0  0  0  0  0
   37.5750   27.4130   34.4580 C   0  0  0  0  0  0  0  0  0  0  0  0
   36.4000   28.1360   34.3230 C   0  0  0  0  0  0  0  0  0  0  0  0
   36.3930   28.4460   32.9670 C   0  0  0  0  0  0  0  0  0  0  0  0
   37.5020   27.9300   32.3520 C   0  0  0  0  0  0  0  0  0  0  0  0
   38.1580   27.3320   33.2940 O   0  0  0  0  0  0  0  0  0  0  0  0
   37.9310   27.9900   30.9660 C   0  0  0  0  0  0  0  0  0  0  0  0
   37.2050   28.8010   30.1020 C   0  0  0  0  0  0  0  0  0  0  0  0
   37.5990   28.8750   28.7610 C   0  0  0  0  0  0  0  0  0  0  0  0
   38.6790   28.1510   28.3480 N   0  0  0  0  0  0  0  0  0  0  0  0
   39.3470   27.3840   29.2210 C   0  0  0  0  0  0  0  0  0  0  0  0
   39.0030   27.2790   30.5310 N   0  0  0  0  0  0  0  0  0  0  0  0
   40.1011   21.8466   35.6701 H   0  0  0  0  0  0  0  0  0  0  0  0
   40.8573   23.4976   36.0294 H   0  0  0  0  0  0  0  0  0  0  0  0
   39.7416   21.4645   37.7824 H   0  0  0  0  0  0  0  0  0  0  0  0
   41.0896   22.7540   37.9491 H   0  0  0  0  0  0  0  0  0  0  0  0
   38.8647   22.6724   39.3867 H   0  0  0  0  0  0  0  0  0  0  0  0
   39.8707   24.1369   38.9545 H   0  0  0  0  0  0  0  0  0  0  0  0
   37.2603   23.2205   37.7321 H   0  0  0  0  0  0  0  0  0  0  0  0
   37.6196   24.7568   38.5617 H   0  0  0  0  0  0  0  0  0  0  0  0
   39.4365   25.1987   36.6431 H   0  0  0  0  0  0  0  0  0  0  0  0
   38.6897   24.6716   33.2069 H   0  0  0  0  0  0  0  0  0  0  0  0
   37.4015   23.7562   31.2961 H   0  0  0  0  0  0  0  0  0  0  0  0
   36.1988   20.4802   33.7469 H   0  0  0  0  0  0  0  0  0  0  0  0
   37.0069   25.0588   35.1451 H   0  0  0  0  0  0  0  0  0  0  0  0
   36.6964   25.6454   36.8078 H   0  0  0  0  0  0  0  0  0  0  0  0
   37.9342   27.5245   36.5165 H   0  0  0  0  0  0  0  0  0  0  0  0
   39.1789   26.6339   35.5211 H   0  0  0  0  0  0  0  0  0  0  0  0
   35.6601   28.3983   35.0935 H   0  0  0  0  0  0  0  0  0  0  0  0
   35.6068   29.0246   32.4600 H   0  0  0  0  0  0  0  0  0  0  0  0
   36.3383   29.3731   30.4647 H   0  0  0  0  0  0  0  0  0  0  0  0
   37.0462   29.5074   28.0508 H   0  0  0  0  0  0  0  0  0  0  0  0
   40.2147   26.8126   28.8596 H   0  0  0  0  0  0  0  0  0  0  0  0
  1  2  1  0
  1  6  1  0
  2  3  1  0
  3  4  1  0
  5  4  1  0
  6  5  1  0
  7 12  1  0
  7  1  1  0
  8  7  2  0
  9 10  2  0
  9  8  1  0
 10 11  1  0
 11 12  2  0
 13  6  1  0
 14 13  1  0
 15 14  1  0
 16 15  2  0
 17 16  1  0
 18 17  2  0
 18 19  1  0
 19 15  1  0
 20 18  1  0
 21 20  2  0
 22 21  1  0
 23 22  2  0
 23 24  1  0
 24 25  2  0
 25 20  1  0
  2 26  1  0
  2 27  1  0
  3 28  1  0
  3 29  1  0
  4 30  1  0
  4 31  1  0
  5 32  1  0
  5 33  1  0
  6 34  1  1
  8 35  1  0
  9 36  1  0
 11 37  1  0
 13 38  1  0
 13 39  1  0
 14 40  1  0
 14 41  1  0
 16 42  1  0
 17 43  1  0
 21 44  1  0
 22 45  1  0
 24 46  1  0
M  ISO  8  26  13  27  13  28  13  29  13  30  13  31  13  32  13  33  13
M  ISO  8  34  13  35  14  36  14  37  14  38   8  39   8  40   8  41   8
M  ISO  5  42  14  43  14  44  14  45  14  46  14
M  END
>  <minimizedAffinity>  (1) 
-5.65397644

>  <minimizedRMSD>  (1) 
0.220255166

$$$$
