
     RDKit          3D

 51 54  0  0  1  0  0  0  0  0999 V2000
   38.8610   23.4830   35.7260 N   0  0  0  0  0  0  0  0  0  0  0  0
   40.0410   22.8230   36.2300 C   0  0  0  0  0  0  0  0  0  0  0  0
   40.0610   22.5290   37.6820 C   0  0  0  0  0  0  0  0  0  0  0  0
   39.2390   23.3540   38.5970 C   0  0  0  0  0  0  0  0  0  0  0  0
   38.0330   23.9750   37.9180 C   0  0  0  0  0  0  0  0  0  0  0  0
   38.5220   24.5650   36.5620 C   0  0  2  0  0  0  0  0  0  0  0  0
   38.1870   23.0530   34.5510 C   0  0  0  0  0  0  0  0  0  0  0  0
   38.2330   23.6700   33.3100 C   0  0  0  0  0  0  0  0  0  0  0  0
   37.5300   23.1490   32.2440 C   0  0  0  0  0  0  0  0  0  0  0  0
   36.8060   22.0300   32.4460 N   0  0  0  0  0  0  0  0  0  0  0  0
   36.7550   21.4190   33.6530 C   0  0  0  0  0  0  0  0  0  0  0  0
   37.4470   21.9410   34.6880 N   0  0  0  0  0  0  0  0  0  0  0  0
   37.4490   25.4680   36.0300 C   0  0  0  0  0  0  0  0  0  0  0  0
   38.0590   26.8130   35.7010 C   0  0  0  0  0  0  0  0  0  0  0  0
   37.7170   27.2960   34.3540 C   0  0  0  0  0  0  0  0  0  0  0  0
   36.5650   27.9710   33.9850 C   0  0  0  0  0  0  0  0  0  0  0  0
   36.7720   28.1770   32.6250 C   0  0  0  0  0  0  0  0  0  0  0  0
   37.9760   27.6520   32.2330 C   0  0  0  0  0  0  0  0  0  0  0  0
   38.4940   27.1420   33.2970 O   0  0  0  0  0  0  0  0  0  0  0  0
   39.5280   27.7630   28.3130 C   0  0  0  0  0  0  0  0  0  0  0  0
   38.3980   28.5360   28.6030 C   0  0  0  0  0  0  0  0  0  0  0  0
   37.9080   28.4770   29.9130 C   0  0  0  0  0  0  0  0  0  0  0  0
   38.5190   27.6840   30.8810 C   0  0  0  0  0  0  0  0  0  0  0  0
   39.6320   26.9380   30.5530 C   0  0  0  0  0  0  0  0  0  0  0  0
   40.1400   26.9740   29.2640 C   0  0  0  0  0  0  0  0  0  0  0  0
   40.1340   27.8430   26.6730 S   0  0  0  0  0  0  0  0  0  0  0  0
   41.4410   28.5710   26.5870 O   0  0  0  0  0  0  0  0  0  0  0  0
   40.3580   26.4590   26.0980 O   0  0  0  0  0  0  0  0  0  0  0  0
   40.1456   21.8683   35.6936 H   0  0  0  0  0  0  0  0  0  0  0  0
   40.8660   23.5313   36.0635 H   0  0  0  0  0  0  0  0  0  0  0  0
   39.7300   21.4871   37.8037 H   0  0  0  0  0  0  0  0  0  0  0  0
   41.0947   22.7570   37.9812 H   0  0  0  0  0  0  0  0  0  0  0  0
   38.8868   22.7168   39.4216 H   0  0  0  0  0  0  0  0  0  0  0  0
   39.8739   24.1779   38.9549 H   0  0  0  0  0  0  0  0  0  0  0  0
   37.2642   23.2086   37.7403 H   0  0  0  0  0  0  0  0  0  0  0  0
   37.5904   24.7600   38.5488 H   0  0  0  0  0  0  0  0  0  0  0  0
   39.4241   25.1882   36.6507 H   0  0  0  0  0  0  0  0  0  0  0  0
   38.8343   24.5812   33.1749 H   0  0  0  0  0  0  0  0  0  0  0  0
   37.5593   23.6330   31.2566 H   0  0  0  0  0  0  0  0  0  0  0  0
   36.1559   20.5066   33.7890 H   0  0  0  0  0  0  0  0  0  0  0  0
   37.0132   25.0279   35.1210 H   0  0  0  0  0  0  0  0  0  0  0  0
   36.6582   25.5919   36.7845 H   0  0  0  0  0  0  0  0  0  0  0  0
   37.7000   27.5480   36.4365 H   0  0  0  0  0  0  0  0  0  0  0  0
   39.1517   26.6909   35.7344 H   0  0  0  0  0  0  0  0  0  0  0  0
   35.7076   28.2676   34.6070 H   0  0  0  0  0  0  0  0  0  0  0  0
   36.0662   28.6908   31.9558 H   0  0  0  0  0  0  0  0  0  0  0  0
   37.9168   29.1614   27.8366 H   0  0  0  0  0  0  0  0  0  0  0  0
   37.0216   29.0696   30.1834 H   0  0  0  0  0  0  0  0  0  0  0  0
   40.1177   26.3128   31.3167 H   0  0  0  0  0  0  0  0  0  0  0  0
   41.0257   26.3770   29.0013 H   0  0  0  0  0  0  0  0  0  0  0  0
   39.1759   28.5160   25.9617 H   0  0  0  0  0  0  0  0  0  0  0  0
  1  2  1  0
  1  6  1  0
  2  3  1  0
  3  4  1  0
  5  4  1  0
  6  5  1  0
  7 12  1  0
  7  1  1  0
  8  7  2  0
  9 10  2  0
  9  8  1  0
 10 11  1  0
 11 12  2  0
 13  6  1  0
 14 13  1  0
 15 14  1  0
 16 15  2  0
 17 16  1  0
 18 17  2  0
 18 19  1  0
 19 15  1  0
 20 21  2  0
 20 25  1  0
 21 22  1  0
 22 23  2  0
 23 18  1  0
 24 23  1  0
 25 24  2  0
 26 20  1  0
 27 26  2  0
 28 26  2  0
  2 29  1  0
  2 30  1  0
  3 31  1  0
  3 32  1  0
  4 33  1  0
  4 34  1  0
  5 35  1  0
  5 36  1  0
  6 37  1  1
  8 38  1  0
  9 39  1  0
 11 40  1  0
 13 41  1  0
 13 42  1  0
 14 43  1  0
 14 44  1  0
 16 45  1  0
 17 46  1  0
 21 47  1  0
 22 48  1  0
 24 49  1  0
 25 50  1  0
 26 51  1  0
M  ISO  8  29  13  30  13  31  13  32  13  33  13  34  13  35  13  36  13
M  ISO  8  37  13  38  14  39  14  40  14  41   8  42   8  43   8  44   8
M  ISO  7  45  14  46  14  47  14  48  14  49  14  50  14  51  11
M  END
>  <minimizedAffinity>  (1) 
-5.56165934

>  <minimizedRMSD>  (1) 
0.944768369

$$$$
