
     RDKit          3D

 45 48  0  0  1  0  0  0  0  0999 V2000
   38.8540   23.4770   35.7010 N   0  0  0  0  0  0  0  0  0  0  0  0
   40.0310   22.7990   36.2050 C   0  0  0  0  0  0  0  0  0  0  0  0
   40.0490   22.5090   37.6600 C   0  0  0  0  0  0  0  0  0  0  0  0
   39.2280   23.3380   38.5700 C   0  0  0  0  0  0  0  0  0  0  0  0
   38.0400   23.9790   37.8950 C   0  0  0  0  0  0  0  0  0  0  0  0
   38.5360   24.5680   36.5390 C   0  0  2  0  0  0  0  0  0  0  0  0
   38.1720   23.0500   34.5290 C   0  0  0  0  0  0  0  0  0  0  0  0
   38.1880   23.6810   33.3030 C   0  0  0  0  0  0  0  0  0  0  0  0
   37.4820   23.1650   32.2360 C   0  0  0  0  0  0  0  0  0  0  0  0
   36.7730   22.0240   32.4350 N   0  0  0  0  0  0  0  0  0  0  0  0
   36.7530   21.4020   33.6340 C   0  0  0  0  0  0  0  0  0  0  0  0
   37.4490   21.9190   34.6620 N   0  0  0  0  0  0  0  0  0  0  0  0
   37.4710   25.4800   36.0060 C   0  0  0  0  0  0  0  0  0  0  0  0
   38.1040   26.8260   35.6900 C   0  0  0  0  0  0  0  0  0  0  0  0
   37.5420   27.4510   34.4810 C   0  0  0  0  0  0  0  0  0  0  0  0
   36.3720   28.1760   34.4000 C   0  0  0  0  0  0  0  0  0  0  0  0
   36.3140   28.5270   33.0630 C   0  0  0  0  0  0  0  0  0  0  0  0
   37.4110   28.0230   32.4000 C   0  0  0  0  0  0  0  0  0  0  0  0
   38.0940   27.3960   33.3020 O   0  0  0  0  0  0  0  0  0  0  0  0
   37.5990   28.2380   31.0050 N   0  0  0  0  0  0  0  0  0  0  0  0
   36.8310   28.6830   30.0140 N   0  0  0  0  0  0  0  0  0  0  0  0
   37.5460   28.6800   28.8630 C   0  0  0  0  0  0  0  0  0  0  0  0
   38.8280   28.2090   29.1450 C   0  0  0  0  0  0  0  0  0  0  0  0
   38.8240   27.9400   30.5050 C   0  0  0  0  0  0  0  0  0  0  0  0
   40.1208   21.8415   35.6711 H   0  0  0  0  0  0  0  0  0  0  0  0
   40.8662   23.4940   36.0337 H   0  0  0  0  0  0  0  0  0  0  0  0
   39.7159   21.4681   37.7847 H   0  0  0  0  0  0  0  0  0  0  0  0
   41.0828   22.7355   37.9598 H   0  0  0  0  0  0  0  0  0  0  0  0
   38.8612   22.6991   39.3869 H   0  0  0  0  0  0  0  0  0  0  0  0
   39.8714   24.1527   38.9335 H   0  0  0  0  0  0  0  0  0  0  0  0
   37.2586   23.2261   37.7145 H   0  0  0  0  0  0  0  0  0  0  0  0
   37.6130   24.7700   38.5291 H   0  0  0  0  0  0  0  0  0  0  0  0
   39.4444   25.1817   36.6287 H   0  0  0  0  0  0  0  0  0  0  0  0
   38.7699   24.6056   33.1744 H   0  0  0  0  0  0  0  0  0  0  0  0
   37.4930   23.6622   31.2548 H   0  0  0  0  0  0  0  0  0  0  0  0
   36.1710   20.4783   33.7686 H   0  0  0  0  0  0  0  0  0  0  0  0
   37.0374   25.0497   35.0912 H   0  0  0  0  0  0  0  0  0  0  0  0
   36.6724   25.6044   36.7522 H   0  0  0  0  0  0  0  0  0  0  0  0
   37.9397   27.5006   36.5432 H   0  0  0  0  0  0  0  0  0  0  0  0
   39.1748   26.6535   35.5065 H   0  0  0  0  0  0  0  0  0  0  0  0
   35.6590   28.4165   35.2023 H   0  0  0  0  0  0  0  0  0  0  0  0
   35.5119   29.1198   32.5990 H   0  0  0  0  0  0  0  0  0  0  0  0
   37.1782   28.9951   27.8753 H   0  0  0  0  0  0  0  0  0  0  0  0
   39.6625   28.0790   28.4402 H   0  0  0  0  0  0  0  0  0  0  0  0
   39.6743   27.5493   31.0833 H   0  0  0  0  0  0  0  0  0  0  0  0
  1  2  1  0
  1  6  1  0
  2  3  1  0
  3  4  1  0
  5  4  1  0
  6  5  1  0
  7 12  1  0
  7  1  1  0
  8  7  2  0
  9 10  2  0
  9  8  1  0
 10 11  1  0
 11 12  2  0
 13  6  1  0
 14 13  1  0
 15 14  1  0
 16 15  2  0
 17 16  1  0
 18 17  2  0
 18 19  1  0
 19 15  1  0
 20 18  1  0
 21 20  1  0
 22 23  1  0
 22 21  2  0
 23 24  2  0
 24 20  1  0
  2 25  1  0
  2 26  1  0
  3 27  1  0
  3 28  1  0
  4 29  1  0
  4 30  1  0
  5 31  1  0
  5 32  1  0
  6 33  1  1
  8 34  1  0
  9 35  1  0
 11 36  1  0
 13 37  1  0
 13 38  1  0
 14 39  1  0
 14 40  1  0
 16 41  1  0
 17 42  1  0
 22 43  1  0
 23 44  1  0
 24 45  1  0
M  ISO  8  25  13  26  13  27  13  28  13  29  13  30  13  31  13  32  13
M  ISO  8  33  13  34  14  35  14  36  14  37   8  38   8  39   8  40   8
M  ISO  5  41  14  42  14  43  14  44  14  45  14
M  END
>  <minimizedAffinity>  (1) 
-5.46467781

>  <minimizedRMSD>  (1) 
0.252036542

$$$$
