
     RDKit          3D

 44 47  0  0  1  0  0  0  0  0999 V2000
   38.8460   23.4810   35.7210 N   0  0  0  0  0  0  0  0  0  0  0  0
   40.0240   22.7940   36.2150 C   0  0  0  0  0  0  0  0  0  0  0  0
   40.0630   22.5030   37.6640 C   0  0  0  0  0  0  0  0  0  0  0  0
   39.2380   23.3230   38.5890 C   0  0  0  0  0  0  0  0  0  0  0  0
   38.0480   23.9740   37.9250 C   0  0  0  0  0  0  0  0  0  0  0  0
   38.5360   24.5700   36.5660 C   0  0  2  0  0  0  0  0  0  0  0  0
   38.1540   23.0660   34.5500 C   0  0  0  0  0  0  0  0  0  0  0  0
   38.1400   23.7310   33.3310 C   0  0  0  0  0  0  0  0  0  0  0  0
   37.4280   23.2230   32.2680 C   0  0  0  0  0  0  0  0  0  0  0  0
   36.7530   22.0720   32.4520 N   0  0  0  0  0  0  0  0  0  0  0  0
   36.7560   21.4130   33.6310 C   0  0  0  0  0  0  0  0  0  0  0  0
   37.4590   21.9200   34.6670 N   0  0  0  0  0  0  0  0  0  0  0  0
   37.4660   25.4810   36.0520 C   0  0  0  0  0  0  0  0  0  0  0  0
   38.0930   26.8150   35.7220 C   0  0  0  0  0  0  0  0  0  0  0  0
   37.5750   27.4130   34.4820 C   0  0  0  0  0  0  0  0  0  0  0  0
   36.4080   28.1180   34.3220 C   0  0  0  0  0  0  0  0  0  0  0  0
   36.4060   28.4460   32.9770 C   0  0  0  0  0  0  0  0  0  0  0  0
   37.5360   27.9450   32.3840 C   0  0  0  0  0  0  0  0  0  0  0  0
   38.1840   27.3480   33.3170 O   0  0  0  0  0  0  0  0  0  0  0  0
   37.8710   28.0980   30.9710 C   0  0  0  0  0  0  0  0  0  0  0  0
   39.1680   27.5650   30.5440 C   0  0  0  0  0  0  0  0  0  0  0  0
   39.2160   27.9420   28.7510 S   0  0  0  0  0  0  0  0  0  0  0  0
   37.5010   28.7480   28.8600 C   0  0  0  0  0  0  0  0  0  0  0  0
   37.2130   28.6410   29.9640 N   0  0  0  0  0  0  0  0  0  0  0  0
   40.1000   21.8358   35.6802 H   0  0  0  0  0  0  0  0  0  0  0  0
   40.8595   23.4868   36.0362 H   0  0  0  0  0  0  0  0  0  0  0  0
   39.7455   21.4575   37.7908 H   0  0  0  0  0  0  0  0  0  0  0  0
   41.0971   22.7430   37.9521 H   0  0  0  0  0  0  0  0  0  0  0  0
   38.8721   22.6727   39.3973 H   0  0  0  0  0  0  0  0  0  0  0  0
   39.8817   24.1334   38.9616 H   0  0  0  0  0  0  0  0  0  0  0  0
   37.2619   23.2257   37.7462 H   0  0  0  0  0  0  0  0  0  0  0  0
   37.6306   24.7639   38.5667 H   0  0  0  0  0  0  0  0  0  0  0  0
   39.4463   25.1823   36.6467 H   0  0  0  0  0  0  0  0  0  0  0  0
   38.7014   24.6697   33.2141 H   0  0  0  0  0  0  0  0  0  0  0  0
   37.4108   23.7412   31.2979 H   0  0  0  0  0  0  0  0  0  0  0  0
   36.1929   20.4751   33.7461 H   0  0  0  0  0  0  0  0  0  0  0  0
   37.0136   25.0492   35.1471 H   0  0  0  0  0  0  0  0  0  0  0  0
   36.6820   25.6099   36.8128 H   0  0  0  0  0  0  0  0  0  0  0  0
   37.8951   27.5084   36.5527 H   0  0  0  0  0  0  0  0  0  0  0  0
   39.1689   26.6404   35.5736 H   0  0  0  0  0  0  0  0  0  0  0  0
   35.6527   28.3642   35.0829 H   0  0  0  0  0  0  0  0  0  0  0  0
   35.6200   29.0194   32.4639 H   0  0  0  0  0  0  0  0  0  0  0  0
   39.9308   27.0593   31.1543 H   0  0  0  0  0  0  0  0  0  0  0  0
   36.9180   29.2110   28.0502 H   0  0  0  0  0  0  0  0  0  0  0  0
  1  2  1  0
  1  6  1  0
  2  3  1  0
  3  4  1  0
  5  4  1  0
  6  5  1  0
  7 12  1  0
  7  1  1  0
  8  7  2  0
  9 10  2  0
  9  8  1  0
 10 11  1  0
 11 12  2  0
 13  6  1  0
 14 13  1  0
 15 14  1  0
 16 15  2  0
 17 16  1  0
 18 17  2  0
 18 19  1  0
 19 15  1  0
 20 18  1  0
 21 20  2  0
 22 23  1  0
 22 21  1  0
 23 24  2  0
 24 20  1  0
  2 25  1  0
  2 26  1  0
  3 27  1  0
  3 28  1  0
  4 29  1  0
  4 30  1  0
  5 31  1  0
  5 32  1  0
  6 33  1  1
  8 34  1  0
  9 35  1  0
 11 36  1  0
 13 37  1  0
 13 38  1  0
 14 39  1  0
 14 40  1  0
 16 41  1  0
 17 42  1  0
 21 43  1  0
 23 44  1  0
M  ISO  8  25  13  26  13  27  13  28  13  29  13  30  13  31  13  32  13
M  ISO  8  33  13  34  14  35  14  36  14  37   8  38   8  39   8  40   8
M  ISO  4  41  14  42  14  43  14  44  14
M  END
>  <minimizedAffinity>  (1) 
-5.41213799

>  <minimizedRMSD>  (1) 
0.62153244

$$$$
