
     RDKit          3D

 47 49  0  0  1  0  0  0  0  0999 V2000
   38.8970   22.5990   35.4800 N   0  0  0  0  0  0  0  0  0  0  0  0
   40.2230   22.0320   35.3470 C   0  0  0  0  0  0  0  0  0  0  0  0
   40.9670   21.8040   36.6020 C   0  0  0  0  0  0  0  0  0  0  0  0
   40.6120   22.5870   37.8090 C   0  0  0  0  0  0  0  0  0  0  0  0
   39.1920   23.0910   37.8010 C   0  0  0  0  0  0  0  0  0  0  0  0
   38.9210   23.6850   36.3840 C   0  0  2  0  0  0  0  0  0  0  0  0
   37.7710   22.0860   34.7680 C   0  0  0  0  0  0  0  0  0  0  0  0
   37.5100   22.2590   33.4310 C   0  0  0  0  0  0  0  0  0  0  0  0
   36.3790   21.7080   32.8670 C   0  0  0  0  0  0  0  0  0  0  0  0
   35.5490   21.0020   33.6560 N   0  0  0  0  0  0  0  0  0  0  0  0
   35.8000   20.8270   34.9790 C   0  0  0  0  0  0  0  0  0  0  0  0
   36.9020   21.3700   35.5070 N   0  0  0  0  0  0  0  0  0  0  0  0
   37.6640   24.4880   36.4360 C   0  0  0  0  0  0  0  0  0  0  0  0
   38.0030   25.9460   36.2220 C   0  0  0  0  0  0  0  0  0  0  0  0
   37.4960   26.4760   34.9460 C   0  0  0  0  0  0  0  0  0  0  0  0
   37.0160   27.7480   34.7060 C   0  0  0  0  0  0  0  0  0  0  0  0
   36.6810   27.7150   33.3750 C   0  0  0  0  0  0  0  0  0  0  0  0
   36.9530   26.4760   32.8520 C   0  0  0  0  0  0  0  0  0  0  0  0
   37.4360   25.7780   33.8290 O   0  0  0  0  0  0  0  0  0  0  0  0
   36.7150   26.0830   31.4380 C   0  0  0  0  0  0  0  0  0  0  0  0
   36.3200   27.3000   30.6280 C   0  0  0  0  0  0  0  0  0  0  0  0
   35.5330   25.1070   31.3440 C   0  0  0  0  0  0  0  0  0  0  0  0
   40.1232   21.0630   34.8360 H   0  0  0  0  0  0  0  0  0  0  0  0
   40.8073   22.7807   34.7920 H   0  0  0  0  0  0  0  0  0  0  0  0
   40.8422   20.7421   36.8604 H   0  0  0  0  0  0  0  0  0  0  0  0
   41.9870   22.1404   36.3645 H   0  0  0  0  0  0  0  0  0  0  0  0
   40.7494   21.9465   38.6927 H   0  0  0  0  0  0  0  0  0  0  0  0
   41.2688   23.4692   37.8277 H   0  0  0  0  0  0  0  0  0  0  0  0
   38.4969   22.2624   38.0015 H   0  0  0  0  0  0  0  0  0  0  0  0
   39.0443   23.8544   38.5791 H   0  0  0  0  0  0  0  0  0  0  0  0
   39.7006   24.3801   36.0389 H   0  0  0  0  0  0  0  0  0  0  0  0
   38.2060   22.8394   32.8075 H   0  0  0  0  0  0  0  0  0  0  0  0
   36.1605   21.8425   31.7973 H   0  0  0  0  0  0  0  0  0  0  0  0
   35.1073   20.2473   35.6068 H   0  0  0  0  0  0  0  0  0  0  0  0
   36.9769   24.1493   35.6466 H   0  0  0  0  0  0  0  0  0  0  0  0
   37.1801   24.3585   37.4153 H   0  0  0  0  0  0  0  0  0  0  0  0
   37.5641   26.5315   37.0433 H   0  0  0  0  0  0  0  0  0  0  0  0
   39.0997   26.0274   36.1980 H   0  0  0  0  0  0  0  0  0  0  0  0
   36.9240   28.5867   35.4118 H   0  0  0  0  0  0  0  0  0  0  0  0
   36.2567   28.5584   32.8105 H   0  0  0  0  0  0  0  0  0  0  0  0
   37.6403   25.6233   31.0606 H   0  0  0  0  0  0  0  0  0  0  0  0
   36.0531   28.1223   31.3081 H   0  0  0  0  0  0  0  0  0  0  0  0
   37.1643   27.6081   29.9937 H   0  0  0  0  0  0  0  0  0  0  0  0
   35.4557   27.0536   29.9937 H   0  0  0  0  0  0  0  0  0  0  0  0
   35.2018   24.8336   32.3567 H   0  0  0  0  0  0  0  0  0  0  0  0
   34.7034   25.5867   30.8040 H   0  0  0  0  0  0  0  0  0  0  0  0
   35.8471   24.2016   30.8040 H   0  0  0  0  0  0  0  0  0  0  0  0
  1  6  1  0
  2  1  1  0
  2  3  1  0
  3  4  1  0
  5  4  1  0
  6 13  1  0
  6  5  1  0
  7  1  1  0
  7 12  1  0
  8  7  2  0
  9  8  1  0
  9 10  2  0
 10 11  1  0
 11 12  2  0
 14 13  1  0
 15 14  1  0
 16 15  2  0
 17 16  1  0
 18 17  2  0
 18 19  1  0
 19 15  1  0
 20 18  1  0
 21 20  1  0
 22 20  1  0
  2 23  1  0
  2 24  1  0
  3 25  1  0
  3 26  1  0
  4 27  1  0
  4 28  1  0
  5 29  1  0
  5 30  1  0
  6 31  1  6
  8 32  1  0
  9 33  1  0
 11 34  1  0
 13 35  1  0
 13 36  1  0
 14 37  1  0
 14 38  1  0
 16 39  1  0
 17 40  1  0
 20 41  1  0
 21 42  1  0
 21 43  1  0
 21 44  1  0
 22 45  1  0
 22 46  1  0
 22 47  1  0
M  ISO  8  23  13  24  13  25  13  26  13  27  13  28  13  29  13  30  13
M  ISO  8  31  13  32  14  33  14  34  14  35   8  36   8  37   8  38   8
M  ISO  8  39  14  40  14  41   8  42   8  43   8  44   8  45   8  46   8
M  ISO  1  47   8
M  END
>  <minimizedAffinity>  (1) 
-5.36109686

>  <minimizedRMSD>  (1) 
1.62549031

$$$$
