
     RDKit          3D

 41 43  0  0  1  0  0  0  0  0999 V2000
   38.8560   23.4830   35.7300 N   0  0  0  0  0  0  0  0  0  0  0  0
   40.0420   22.8100   36.2380 C   0  0  0  0  0  0  0  0  0  0  0  0
   40.0850   22.5430   37.6850 C   0  0  0  0  0  0  0  0  0  0  0  0
   39.2330   23.3490   38.6030 C   0  0  0  0  0  0  0  0  0  0  0  0
   38.0320   23.9620   37.9240 C   0  0  0  0  0  0  0  0  0  0  0  0
   38.5210   24.5730   36.5680 C   0  0  2  0  0  0  0  0  0  0  0  0
   38.1760   23.0500   34.5490 C   0  0  0  0  0  0  0  0  0  0  0  0
   38.2120   23.6780   33.3140 C   0  0  0  0  0  0  0  0  0  0  0  0
   37.5100   23.1570   32.2530 C   0  0  0  0  0  0  0  0  0  0  0  0
   36.7930   22.0290   32.4510 N   0  0  0  0  0  0  0  0  0  0  0  0
   36.7560   21.4150   33.6540 C   0  0  0  0  0  0  0  0  0  0  0  0
   37.4490   21.9310   34.6970 N   0  0  0  0  0  0  0  0  0  0  0  0
   37.4430   25.4650   36.0460 C   0  0  0  0  0  0  0  0  0  0  0  0
   38.0670   26.7950   35.6690 C   0  0  0  0  0  0  0  0  0  0  0  0
   37.4890   27.3860   34.4610 C   0  0  0  0  0  0  0  0  0  0  0  0
   36.4230   28.2600   34.3960 C   0  0  0  0  0  0  0  0  0  0  0  0
   36.3010   28.4970   33.0310 C   0  0  0  0  0  0  0  0  0  0  0  0
   37.2580   27.7890   32.3300 C   0  0  0  0  0  0  0  0  0  0  0  0
   37.9220   27.1570   33.2450 O   0  0  0  0  0  0  0  0  0  0  0  0
   37.5010   27.7370   30.8840 C   0  0  0  0  0  0  0  0  0  0  0  0
   36.3190   27.8740   30.1660 F   0  0  0  0  0  0  0  0  0  0  0  0
   38.3970   28.7220   30.5240 F   0  0  0  0  0  0  0  0  0  0  0  0
   38.0020   26.4630   30.5830 F   0  0  0  0  0  0  0  0  0  0  0  0
   40.1245   21.8438   35.7187 H   0  0  0  0  0  0  0  0  0  0  0  0
   40.8717   23.5071   36.0491 H   0  0  0  0  0  0  0  0  0  0  0  0
   39.7998   21.4899   37.8251 H   0  0  0  0  0  0  0  0  0  0  0  0
   41.1100   22.8227   37.9700 H   0  0  0  0  0  0  0  0  0  0  0  0
   38.8791   22.6954   39.4139 H   0  0  0  0  0  0  0  0  0  0  0  0
   39.8524   24.1776   38.9767 H   0  0  0  0  0  0  0  0  0  0  0  0
   37.2717   23.1896   37.7358 H   0  0  0  0  0  0  0  0  0  0  0  0
   37.5813   24.7386   38.5594 H   0  0  0  0  0  0  0  0  0  0  0  0
   39.4168   25.2057   36.6529 H   0  0  0  0  0  0  0  0  0  0  0  0
   38.8039   24.5958   33.1824 H   0  0  0  0  0  0  0  0  0  0  0  0
   37.5315   23.6460   31.2679 H   0  0  0  0  0  0  0  0  0  0  0  0
   36.1639   20.4974   33.7861 H   0  0  0  0  0  0  0  0  0  0  0  0
   36.9782   25.0077   35.1601 H   0  0  0  0  0  0  0  0  0  0  0  0
   36.6689   25.6133   36.8133 H   0  0  0  0  0  0  0  0  0  0  0  0
   37.9233   27.4968   36.5038 H   0  0  0  0  0  0  0  0  0  0  0  0
   39.1310   26.6078   35.4621 H   0  0  0  0  0  0  0  0  0  0  0  0
   35.8192   28.6682   35.2199 H   0  0  0  0  0  0  0  0  0  0  0  0
   35.5481   29.1558   32.5737 H   0  0  0  0  0  0  0  0  0  0  0  0
  1  2  1  0
  1  6  1  0
  2  3  1  0
  3  4  1  0
  5  4  1  0
  6  5  1  0
  7 12  1  0
  7  1  1  0
  8  7  2  0
  9 10  2  0
  9  8  1  0
 10 11  1  0
 11 12  2  0
 13  6  1  0
 14 13  1  0
 15 14  1  0
 16 15  2  0
 17 16  1  0
 18 17  2  0
 18 19  1  0
 19 15  1  0
 20 18  1  0
 21 20  1  0
 22 20  1  0
 23 20  1  0
  2 24  1  0
  2 25  1  0
  3 26  1  0
  3 27  1  0
  4 28  1  0
  4 29  1  0
  5 30  1  0
  5 31  1  0
  6 32  1  1
  8 33  1  0
  9 34  1  0
 11 35  1  0
 13 36  1  0
 13 37  1  0
 14 38  1  0
 14 39  1  0
 16 40  1  0
 17 41  1  0
M  ISO  8  24  13  25  13  26  13  27  13  28  13  29  13  30  13  31  13
M  ISO  8  32  13  33  14  34  14  35  14  36   8  37   8  38   8  39   8
M  ISO  2  40  14  41  14
M  END
>  <minimizedAffinity>  (1) 
-5.30979729

>  <minimizedRMSD>  (1) 
0.293558747

$$$$
