
     RDKit          3D

 40 42  0  0  1  0  0  0  0  0999 V2000
   38.9210   23.4570   35.5800 N   0  0  0  0  0  0  0  0  0  0  0  0
   39.9140   22.7560   36.3230 C   0  0  0  0  0  0  0  0  0  0  0  0
   39.7820   22.7000   37.8020 C   0  0  0  0  0  0  0  0  0  0  0  0
   38.7330   23.4950   38.4910 C   0  0  0  0  0  0  0  0  0  0  0  0
   37.8630   24.2890   37.5570 C   0  0  0  0  0  0  0  0  0  0  0  0
   38.6570   24.6630   36.2900 C   0  0  2  0  0  0  0  0  0  0  0  0
   38.3760   22.9550   34.3880 C   0  0  0  0  0  0  0  0  0  0  0  0
   38.7370   23.3020   33.1060 C   0  0  0  0  0  0  0  0  0  0  0  0
   38.1310   22.7230   32.0280 C   0  0  0  0  0  0  0  0  0  0  0  0
   37.1510   21.7780   32.2760 N   0  0  0  0  0  0  0  0  0  0  0  0
   36.8210   21.4580   33.5370 C   0  0  0  0  0  0  0  0  0  0  0  0
   37.4360   22.0500   34.5600 N   0  0  0  0  0  0  0  0  0  0  0  0
   38.4030   25.6820   35.4020 C   0  0  0  0  0  0  0  0  0  0  0  0
   37.3480   26.5450   35.2760 C   0  0  0  0  0  0  0  0  0  0  0  0
   36.9420   26.8280   33.9080 C   0  0  0  0  0  0  0  0  0  0  0  0
   36.6990   28.0110   33.5040 C   0  0  0  0  0  0  0  0  0  0  0  0
   36.2970   27.7640   32.1710 C   0  0  0  0  0  0  0  0  0  0  0  0
   36.3220   26.4230   31.8150 C   0  0  0  0  0  0  0  0  0  0  0  0
   36.7220   25.9970   32.9240 O   0  0  0  0  0  0  0  0  0  0  0  0
   35.9820   25.8400   30.5720 N   0  0  0  0  0  0  0  0  0  0  0  0
   39.9214   21.7185   35.9577 H   0  0  0  0  0  0  0  0  0  0  0  0
   40.8349   23.3338   36.1555 H   0  0  0  0  0  0  0  0  0  0  0  0
   39.6036   21.6466   38.0639 H   0  0  0  0  0  0  0  0  0  0  0  0
   40.7165   23.1613   38.1539 H   0  0  0  0  0  0  0  0  0  0  0  0
   38.0923   22.8050   39.0597 H   0  0  0  0  0  0  0  0  0  0  0  0
   39.2516   24.2175   39.1383 H   0  0  0  0  0  0  0  0  0  0  0  0
   36.9872   23.6867   37.2739 H   0  0  0  0  0  0  0  0  0  0  0  0
   37.5343   25.2089   38.0628 H   0  0  0  0  0  0  0  0  0  0  0  0
   39.4655   25.2107   36.7963 H   0  0  0  0  0  0  0  0  0  0  0  0
   39.5232   24.0549   32.9479 H   0  0  0  0  0  0  0  0  0  0  0  0
   38.4115   22.9976   31.0004 H   0  0  0  0  0  0  0  0  0  0  0  0
   36.0413   20.7055   33.7263 H   0  0  0  0  0  0  0  0  0  0  0  0
   39.2698   26.3490   35.5192 H   0  0  0  0  0  0  0  0  0  0  0  0
   38.1416   25.0403   34.5477 H   0  0  0  0  0  0  0  0  0  0  0  0
   36.4867   26.1096   35.8039 H   0  0  0  0  0  0  0  0  0  0  0  0
   37.6835   27.5028   35.7003 H   0  0  0  0  0  0  0  0  0  0  0  0
   36.7798   28.9654   34.0449 H   0  0  0  0  0  0  0  0  0  0  0  0
   35.9920   28.5627   31.4788 H   0  0  0  0  0  0  0  0  0  0  0  0
   36.0479   24.8198   30.4465 H   0  0  0  0  0  0  0  0  0  0  0  0
   35.6685   26.4356   29.7924 H   0  0  0  0  0  0  0  0  0  0  0  0
  1  6  1  0
  1  2  1  0
  2  3  1  0
  3  4  1  0
  5  4  1  0
  6  5  1  0
  7 12  1  0
  7  1  1  0
  8  7  2  0
  9 10  2  0
  9  8  1  0
 10 11  1  0
 11 12  2  0
 13  6  1  0
 14 13  1  0
 15 14  1  0
 16 15  2  0
 17 16  1  0
 18 17  2  0
 18 19  1  0
 19 15  1  0
 20 18  1  0
  2 21  1  0
  2 22  1  0
  3 23  1  0
  3 24  1  0
  4 25  1  0
  4 26  1  0
  5 27  1  0
  5 28  1  0
  6 29  1  1
  8 30  1  0
  9 31  1  0
 11 32  1  0
 13 33  1  0
 13 34  1  0
 14 35  1  0
 14 36  1  0
 16 37  1  0
 17 38  1  0
 20 39  1  0
 20 40  1  0
M  ISO  8  21  13  22  13  23  13  24  13  25  13  26  13  27  13  28  13
M  ISO  8  29  13  30  14  31  14  32  14  33   8  34   8  35   8  36   8
M  ISO  2  37  14  38  14
M  END
>  <minimizedAffinity>  (1) 
-5.14770985

>  <minimizedRMSD>  (1) 
1.03623676

$$$$
