
     RDKit          3D

 41 43  0  0  1  0  0  0  0  0999 V2000
   38.8420   23.4980   35.7340 N   0  0  0  0  0  0  0  0  0  0  0  0
   40.0240   22.8170   36.2310 C   0  0  0  0  0  0  0  0  0  0  0  0
   40.0630   22.5250   37.6850 C   0  0  0  0  0  0  0  0  0  0  0  0
   39.2370   23.3370   38.5990 C   0  0  0  0  0  0  0  0  0  0  0  0
   38.0380   23.9860   37.9370 C   0  0  0  0  0  0  0  0  0  0  0  0
   38.5220   24.5820   36.5750 C   0  0  2  0  0  0  0  0  0  0  0  0
   38.1560   23.0790   34.5650 C   0  0  0  0  0  0  0  0  0  0  0  0
   38.1360   23.7280   33.3450 C   0  0  0  0  0  0  0  0  0  0  0  0
   37.4290   23.2190   32.2780 C   0  0  0  0  0  0  0  0  0  0  0  0
   36.7540   22.0600   32.4650 N   0  0  0  0  0  0  0  0  0  0  0  0
   36.7660   21.4170   33.6510 C   0  0  0  0  0  0  0  0  0  0  0  0
   37.4640   21.9290   34.6880 N   0  0  0  0  0  0  0  0  0  0  0  0
   37.4590   25.4980   36.0660 C   0  0  0  0  0  0  0  0  0  0  0  0
   38.1000   26.8280   35.7000 C   0  0  0  0  0  0  0  0  0  0  0  0
   37.5320   27.4260   34.4810 C   0  0  0  0  0  0  0  0  0  0  0  0
   36.4080   28.2280   34.3900 C   0  0  0  0  0  0  0  0  0  0  0  0
   36.3360   28.5020   33.0290 C   0  0  0  0  0  0  0  0  0  0  0  0
   37.3680   27.8880   32.3700 C   0  0  0  0  0  0  0  0  0  0  0  0
   38.0340   27.2720   33.2840 O   0  0  0  0  0  0  0  0  0  0  0  0
   37.6410   27.9400   30.8940 C   0  0  0  0  0  0  0  0  0  0  0  0
   40.1063   21.8592   35.6964 H   0  0  0  0  0  0  0  0  0  0  0  0
   40.8555   23.5150   36.0540 H   0  0  0  0  0  0  0  0  0  0  0  0
   39.7507   21.4780   37.8122 H   0  0  0  0  0  0  0  0  0  0  0  0
   41.0957   22.7679   37.9758 H   0  0  0  0  0  0  0  0  0  0  0  0
   38.8746   22.6856   39.4079 H   0  0  0  0  0  0  0  0  0  0  0  0
   39.8775   24.1528   38.9655 H   0  0  0  0  0  0  0  0  0  0  0  0
   37.2533   23.2354   37.7614 H   0  0  0  0  0  0  0  0  0  0  0  0
   37.6192   24.7747   38.5793 H   0  0  0  0  0  0  0  0  0  0  0  0
   39.4312   25.1964   36.6515 H   0  0  0  0  0  0  0  0  0  0  0  0
   38.6946   24.6678   33.2239 H   0  0  0  0  0  0  0  0  0  0  0  0
   37.4132   23.7362   31.3073 H   0  0  0  0  0  0  0  0  0  0  0  0
   36.2081   20.4769   33.7734 H   0  0  0  0  0  0  0  0  0  0  0  0
   36.9850   25.0577   35.1764 H   0  0  0  0  0  0  0  0  0  0  0  0
   36.6918   25.6504   36.8394 H   0  0  0  0  0  0  0  0  0  0  0  0
   37.9534   27.5289   36.5350 H   0  0  0  0  0  0  0  0  0  0  0  0
   39.1656   26.6364   35.5058 H   0  0  0  0  0  0  0  0  0  0  0  0
   35.7380   28.5650   35.1947 H   0  0  0  0  0  0  0  0  0  0  0  0
   35.5630   29.1216   32.5510 H   0  0  0  0  0  0  0  0  0  0  0  0
   38.7088   28.1434   30.7256 H   0  0  0  0  0  0  0  0  0  0  0  0
   37.3751   26.9751   30.4377 H   0  0  0  0  0  0  0  0  0  0  0  0
   37.0390   28.7396   30.4377 H   0  0  0  0  0  0  0  0  0  0  0  0
  1  2  1  0
  1  6  1  0
  2  3  1  0
  3  4  1  0
  5  4  1  0
  6  5  1  0
  7 12  1  0
  7  1  1  0
  8  7  2  0
  9 10  2  0
  9  8  1  0
 10 11  1  0
 11 12  2  0
 13  6  1  0
 14 13  1  0
 15 14  1  0
 16 15  2  0
 17 16  1  0
 18 17  2  0
 18 19  1  0
 19 15  1  0
 20 18  1  0
  2 21  1  0
  2 22  1  0
  3 23  1  0
  3 24  1  0
  4 25  1  0
  4 26  1  0
  5 27  1  0
  5 28  1  0
  6 29  1  1
  8 30  1  0
  9 31  1  0
 11 32  1  0
 13 33  1  0
 13 34  1  0
 14 35  1  0
 14 36  1  0
 16 37  1  0
 17 38  1  0
 20 39  1  0
 20 40  1  0
 20 41  1  0
M  ISO  8  21  13  22  13  23  13  24  13  25  13  26  13  27  13  28  13
M  ISO  8  29  13  30  14  31  14  32  14  33   8  34   8  35   8  36   8
M  ISO  5  37  14  38  14  39   8  40   8  41   8
M  END
>  <minimizedAffinity>  (1) 
-5.04963779

>  <minimizedRMSD>  (1) 
0.0223209616

$$$$
