
     RDKit          3D

 39 41  0  0  1  0  0  0  0  0999 V2000
   38.8490   23.4900   35.7330 N   0  0  0  0  0  0  0  0  0  0  0  0
   40.0260   22.8100   36.2400 C   0  0  0  0  0  0  0  0  0  0  0  0
   40.0640   22.5270   37.6860 C   0  0  0  0  0  0  0  0  0  0  0  0
   39.2280   23.3470   38.6010 C   0  0  0  0  0  0  0  0  0  0  0  0
   38.0330   23.9880   37.9320 C   0  0  0  0  0  0  0  0  0  0  0  0
   38.5370   24.5820   36.5700 C   0  0  2  0  0  0  0  0  0  0  0  0
   38.1610   23.0690   34.5610 C   0  0  0  0  0  0  0  0  0  0  0  0
   38.1450   23.7110   33.3400 C   0  0  0  0  0  0  0  0  0  0  0  0
   37.4430   23.2120   32.2740 C   0  0  0  0  0  0  0  0  0  0  0  0
   36.7580   22.0520   32.4660 N   0  0  0  0  0  0  0  0  0  0  0  0
   36.7620   21.4140   33.6490 C   0  0  0  0  0  0  0  0  0  0  0  0
   37.4600   21.9250   34.6810 N   0  0  0  0  0  0  0  0  0  0  0  0
   37.4590   25.4900   36.0500 C   0  0  0  0  0  0  0  0  0  0  0  0
   38.1000   26.8170   35.6810 C   0  0  0  0  0  0  0  0  0  0  0  0
   37.5200   27.4220   34.4790 C   0  0  0  0  0  0  0  0  0  0  0  0
   36.4070   28.2390   34.4000 C   0  0  0  0  0  0  0  0  0  0  0  0
   36.3110   28.5160   33.0580 C   0  0  0  0  0  0  0  0  0  0  0  0
   37.3160   27.8980   32.3600 C   0  0  0  0  0  0  0  0  0  0  0  0
   37.9980   27.2640   33.2740 O   0  0  0  0  0  0  0  0  0  0  0  0
   37.7450   27.8570   30.6330 S   0  0  0  0  0  0  0  0  0  0  0  0
   40.1075   21.8488   35.7114 H   0  0  0  0  0  0  0  0  0  0  0  0
   40.8576   23.5080   36.0634 H   0  0  0  0  0  0  0  0  0  0  0  0
   39.7549   21.4796   37.8181 H   0  0  0  0  0  0  0  0  0  0  0  0
   41.0956   22.7743   37.9771 H   0  0  0  0  0  0  0  0  0  0  0  0
   38.8643   22.6987   39.4118 H   0  0  0  0  0  0  0  0  0  0  0  0
   39.8652   24.1654   38.9673 H   0  0  0  0  0  0  0  0  0  0  0  0
   37.2521   23.2348   37.7503 H   0  0  0  0  0  0  0  0  0  0  0  0
   37.6005   24.7742   38.5683 H   0  0  0  0  0  0  0  0  0  0  0  0
   39.4483   25.1930   36.6495 H   0  0  0  0  0  0  0  0  0  0  0  0
   38.7100   24.6470   33.2190 H   0  0  0  0  0  0  0  0  0  0  0  0
   37.4337   23.7282   31.3027 H   0  0  0  0  0  0  0  0  0  0  0  0
   36.1974   20.4782   33.7737 H   0  0  0  0  0  0  0  0  0  0  0  0
   36.9902   25.0421   35.1614 H   0  0  0  0  0  0  0  0  0  0  0  0
   36.6837   25.6401   36.8158 H   0  0  0  0  0  0  0  0  0  0  0  0
   37.9694   27.5144   36.5216 H   0  0  0  0  0  0  0  0  0  0  0  0
   39.1614   26.6205   35.4693 H   0  0  0  0  0  0  0  0  0  0  0  0
   35.7551   28.5842   35.2160 H   0  0  0  0  0  0  0  0  0  0  0  0
   35.5331   29.1481   32.6049 H   0  0  0  0  0  0  0  0  0  0  0  0
   39.1026   27.7273   30.5027 H   0  0  0  0  0  0  0  0  0  0  0  0
  1  2  1  0
  1  6  1  0
  2  3  1  0
  3  4  1  0
  5  4  1  0
  6  5  1  0
  7 12  1  0
  7  1  1  0
  8  7  2  0
  9 10  2  0
  9  8  1  0
 10 11  1  0
 11 12  2  0
 13  6  1  0
 14 13  1  0
 15 14  1  0
 16 15  2  0
 17 16  1  0
 18 17  2  0
 18 19  1  0
 19 15  1  0
 20 18  1  0
  2 21  1  0
  2 22  1  0
  3 23  1  0
  3 24  1  0
  4 25  1  0
  4 26  1  0
  5 27  1  0
  5 28  1  0
  6 29  1  1
  8 30  1  0
  9 31  1  0
 11 32  1  0
 13 33  1  0
 13 34  1  0
 14 35  1  0
 14 36  1  0
 16 37  1  0
 17 38  1  0
 20 39  1  0
M  ISO  8  21  13  22  13  23  13  24  13  25  13  26  13  27  13  28  13
M  ISO  8  29  13  30  14  31  14  32  14  33   8  34   8  35   8  36   8
M  ISO  3  37  14  38  14  39  11
M  END
>  <minimizedAffinity>  (1) 
-4.9894433

>  <minimizedRMSD>  (1) 
0.0196744632

$$$$
