
     RDKit          3D

 39 41  0  0  1  0  0  0  0  0999 V2000
   38.8480   23.4890   35.7430 N   0  0  0  0  0  0  0  0  0  0  0  0
   40.0170   22.8020   36.2420 C   0  0  0  0  0  0  0  0  0  0  0  0
   40.0720   22.5360   37.6890 C   0  0  0  0  0  0  0  0  0  0  0  0
   39.2230   23.3470   38.6050 C   0  0  0  0  0  0  0  0  0  0  0  0
   38.0330   23.9900   37.9370 C   0  0  0  0  0  0  0  0  0  0  0  0
   38.5260   24.5800   36.5690 C   0  0  2  0  0  0  0  0  0  0  0  0
   38.1630   23.0630   34.5650 C   0  0  0  0  0  0  0  0  0  0  0  0
   38.1680   23.7090   33.3410 C   0  0  0  0  0  0  0  0  0  0  0  0
   37.4650   23.1970   32.2780 C   0  0  0  0  0  0  0  0  0  0  0  0
   36.7750   22.0500   32.4700 N   0  0  0  0  0  0  0  0  0  0  0  0
   36.7620   21.4090   33.6670 C   0  0  0  0  0  0  0  0  0  0  0  0
   37.4630   21.9330   34.6980 N   0  0  0  0  0  0  0  0  0  0  0  0
   37.4630   25.4940   36.0590 C   0  0  0  0  0  0  0  0  0  0  0  0
   38.1090   26.8250   35.6920 C   0  0  0  0  0  0  0  0  0  0  0  0
   37.5270   27.4280   34.4800 C   0  0  0  0  0  0  0  0  0  0  0  0
   36.4140   28.2310   34.3950 C   0  0  0  0  0  0  0  0  0  0  0  0
   36.3150   28.5110   33.0440 C   0  0  0  0  0  0  0  0  0  0  0  0
   37.3360   27.8890   32.3750 C   0  0  0  0  0  0  0  0  0  0  0  0
   38.0210   27.2620   33.2740 O   0  0  0  0  0  0  0  0  0  0  0  0
   37.7080   27.8330   31.0330 O   0  0  0  0  0  0  0  0  0  0  0  0
   40.0782   21.8333   35.7245 H   0  0  0  0  0  0  0  0  0  0  0  0
   40.8549   23.4874   36.0466 H   0  0  0  0  0  0  0  0  0  0  0  0
   39.7883   21.4832   37.8342 H   0  0  0  0  0  0  0  0  0  0  0  0
   41.0996   22.8113   37.9689 H   0  0  0  0  0  0  0  0  0  0  0  0
   38.8553   22.6900   39.4069 H   0  0  0  0  0  0  0  0  0  0  0  0
   39.8551   24.1650   38.9809 H   0  0  0  0  0  0  0  0  0  0  0  0
   37.2486   23.2389   37.7619 H   0  0  0  0  0  0  0  0  0  0  0  0
   37.6115   24.7825   38.5728 H   0  0  0  0  0  0  0  0  0  0  0  0
   39.4356   25.1951   36.6348 H   0  0  0  0  0  0  0  0  0  0  0  0
   38.7400   24.6406   33.2185 H   0  0  0  0  0  0  0  0  0  0  0  0
   37.4633   23.7038   31.3017 H   0  0  0  0  0  0  0  0  0  0  0  0
   36.1903   20.4782   33.7960 H   0  0  0  0  0  0  0  0  0  0  0  0
   36.9892   25.0531   35.1695 H   0  0  0  0  0  0  0  0  0  0  0  0
   36.6938   25.6469   36.8303 H   0  0  0  0  0  0  0  0  0  0  0  0
   37.9751   27.5237   36.5310 H   0  0  0  0  0  0  0  0  0  0  0  0
   39.1723   26.6314   35.4874 H   0  0  0  0  0  0  0  0  0  0  0  0
   35.7572   28.5706   35.2094 H   0  0  0  0  0  0  0  0  0  0  0  0
   35.5378   29.1356   32.5793 H   0  0  0  0  0  0  0  0  0  0  0  0
   38.5033   27.3098   30.7612 H   0  0  0  0  0  0  0  0  0  0  0  0
  1  2  1  0
  1  6  1  0
  2  3  1  0
  3  4  1  0
  5  4  1  0
  6  5  1  0
  7 12  1  0
  7  1  1  0
  8  7  2  0
  9 10  2  0
  9  8  1  0
 10 11  1  0
 11 12  2  0
 13  6  1  0
 14 13  1  0
 15 14  1  0
 16 15  2  0
 17 16  1  0
 18 17  2  0
 18 19  1  0
 19 15  1  0
 20 18  1  0
  2 21  1  0
  2 22  1  0
  3 23  1  0
  3 24  1  0
  4 25  1  0
  4 26  1  0
  5 27  1  0
  5 28  1  0
  6 29  1  1
  8 30  1  0
  9 31  1  0
 11 32  1  0
 13 33  1  0
 13 34  1  0
 14 35  1  0
 14 36  1  0
 16 37  1  0
 17 38  1  0
 20 39  1  0
M  ISO  8  21  13  22  13  23  13  24  13  25  13  26  13  27  13  28  13
M  ISO  8  29  13  30  14  31  14  32  14  33   8  34   8  35   8  36   8
M  ISO  3  37  14  38  14  39   3
M  END
>  <minimizedAffinity>  (1) 
-4.98675299

>  <minimizedRMSD>  (1) 
0.0107884929

$$$$
