
     RDKit          3D

 35 36  0  0  0  0  0  0  0  0999 V2000
   36.3220   20.9630   33.1200 C   0  0  0  0  0  0  0  0  0  0  0  0
   35.8380   20.6020   34.3720 C   0  0  0  0  0  0  0  0  0  0  0  0
   36.4400   21.1830   35.4660 C   0  0  0  0  0  0  0  0  0  0  0  0
   37.4860   22.0940   35.3560 C   0  0  0  0  0  0  0  0  0  0  0  0
   37.9160   22.4070   34.0910 C   0  0  0  0  0  0  0  0  0  0  0  0
   37.3620   21.8660   32.9450 C   0  0  0  0  0  0  0  0  0  0  0  0
   39.8890   22.9160   38.0000 C   0  0  0  0  0  0  0  0  0  0  0  0
   39.1270   23.7690   38.8440 C   0  0  0  0  0  0  0  0  0  0  0  0
   37.8140   24.0390   38.4860 C   0  0  0  0  0  0  0  0  0  0  0  0
   37.3280   23.4760   37.3500 N   0  0  0  0  0  0  0  0  0  0  0  0
   38.0770   22.6720   36.5740 C   0  0  0  0  0  0  0  0  0  0  0  0
   39.3500   22.3810   36.8770 N   0  0  0  0  0  0  0  0  0  0  0  0
   35.5860   20.2440   31.7280 S   0  0  0  0  0  0  0  0  0  0  0  0
   34.1670   19.8110   31.9940 O   0  0  0  0  0  0  0  0  0  0  0  0
   35.6150   21.2620   30.6250 O   0  0  0  0  0  0  0  0  0  0  0  0
   36.4650   18.8130   31.1890 C   0  0  0  0  0  0  0  0  0  0  0  0
   35.8240   17.5840   31.7780 C   0  0  0  0  0  0  0  0  0  0  0  0
   36.4940   18.7350   29.6960 C   0  0  0  0  0  0  0  0  0  0  0  0
   37.8940   18.8670   31.6800 C   0  0  0  0  0  0  0  0  0  0  0  0
   35.0116   19.8847   34.4840 H   0  0  0  0  0  0  0  0  0  0  0  0
   36.0784   20.9154   36.4698 H   0  0  0  0  0  0  0  0  0  0  0  0
   38.7429   23.1243   33.9830 H   0  0  0  0  0  0  0  0  0  0  0  0
   37.7275   22.1379   31.9438 H   0  0  0  0  0  0  0  0  0  0  0  0
   40.9323   22.6864   38.2622 H   0  0  0  0  0  0  0  0  0  0  0  0
   39.5657   24.2026   39.7548 H   0  0  0  0  0  0  0  0  0  0  0  0
   37.1830   24.6923   39.1065 H   0  0  0  0  0  0  0  0  0  0  0  0
   35.8555   17.6444   32.8759 H   0  0  0  0  0  0  0  0  0  0  0  0
   34.7778   17.5203   31.4442 H   0  0  0  0  0  0  0  0  0  0  0  0
   36.3705   16.6896   31.4442 H   0  0  0  0  0  0  0  0  0  0  0  0
   36.8620   17.7453   29.3876 H   0  0  0  0  0  0  0  0  0  0  0  0
   35.4788   18.8882   29.3010 H   0  0  0  0  0  0  0  0  0  0  0  0
   37.1625   19.5142   29.3010 H   0  0  0  0  0  0  0  0  0  0  0  0
   37.9040   18.8674   32.7800 H   0  0  0  0  0  0  0  0  0  0  0  0
   38.4427   17.9890   31.3086 H   0  0  0  0  0  0  0  0  0  0  0  0
   38.3749   19.7840   31.3086 H   0  0  0  0  0  0  0  0  0  0  0  0
  1  2  2  0
  2  3  1  0
  4  3  2  0
  4 11  1  0
  5  4  1  0
  6  1  1  0
  6  5  2  0
  7  8  2  0
  9  8  1  0
 10  9  2  0
 11 12  2  0
 11 10  1  0
 12  7  1  0
 13 14  2  0
 13  1  1  0
 15 13  2  0
 16 19  1  0
 16 13  1  0
 16 17  1  0
 18 16  1  0
  2 20  1  0
  3 21  1  0
  5 22  1  0
  6 23  1  0
  7 24  1  0
  8 25  1  0
  9 26  1  0
 17 27  1  0
 17 28  1  0
 17 29  1  0
 18 30  1  0
 18 31  1  0
 18 32  1  0
 19 33  1  0
 19 34  1  0
 19 35  1  0
M  ISO  8  20  14  21  14  22  14  23  14  24  14  25  14  26  14  27   8
M  ISO  8  28   8  29   8  30   8  31   8  32   8  33   8  34   8  35   8
M  END
>  <minimizedAffinity>  (1) 
-4.79206276

>  <minimizedRMSD>  (1) 
2.29576397

$$$$
