
     RDKit          3D

 26 27  0  0  0  0  0  0  0  0999 V2000
   36.4140   21.0610   32.9510 C   0  0  0  0  0  0  0  0  0  0  0  0
   35.8420   20.7340   34.1750 C   0  0  0  0  0  0  0  0  0  0  0  0
   36.4570   21.2640   35.2920 C   0  0  0  0  0  0  0  0  0  0  0  0
   37.5820   22.0790   35.2390 C   0  0  0  0  0  0  0  0  0  0  0  0
   38.0910   22.3590   33.9960 C   0  0  0  0  0  0  0  0  0  0  0  0
   37.5370   21.8680   32.8200 C   0  0  0  0  0  0  0  0  0  0  0  0
   39.9560   22.8350   37.9160 C   0  0  0  0  0  0  0  0  0  0  0  0
   39.1970   23.6030   38.8130 C   0  0  0  0  0  0  0  0  0  0  0  0
   37.8750   23.8470   38.4750 C   0  0  0  0  0  0  0  0  0  0  0  0
   37.3870   23.3380   37.3110 N   0  0  0  0  0  0  0  0  0  0  0  0
   38.1640   22.5970   36.4720 C   0  0  0  0  0  0  0  0  0  0  0  0
   39.4370   22.3420   36.7610 N   0  0  0  0  0  0  0  0  0  0  0  0
   35.6710   20.4120   31.5250 S   0  0  0  0  0  0  0  0  0  0  0  0
   34.5270   19.4860   31.8550 O   0  0  0  0  0  0  0  0  0  0  0  0
   35.1830   21.5640   30.6980 O   0  0  0  0  0  0  0  0  0  0  0  0
   36.8330   19.4780   30.5520 C   0  0  0  0  0  0  0  0  0  0  0  0
   36.1940   18.7390   29.5740 F   0  0  0  0  0  0  0  0  0  0  0  0
   37.5500   18.6620   31.4010 F   0  0  0  0  0  0  0  0  0  0  0  0
   37.6750   20.3610   29.8680 F   0  0  0  0  0  0  0  0  0  0  0  0
   34.9524   20.0913   34.2494 H   0  0  0  0  0  0  0  0  0  0  0  0
   36.0329   21.0281   36.2792 H   0  0  0  0  0  0  0  0  0  0  0  0
   38.9801   23.0030   33.9271 H   0  0  0  0  0  0  0  0  0  0  0  0
   37.9659   22.1062   31.8355 H   0  0  0  0  0  0  0  0  0  0  0  0
   41.0086   22.6248   38.1567 H   0  0  0  0  0  0  0  0  0  0  0  0
   39.6326   23.9944   39.7442 H   0  0  0  0  0  0  0  0  0  0  0  0
   37.2302   24.4430   39.1375 H   0  0  0  0  0  0  0  0  0  0  0  0
  1  2  2  0
  2  3  1  0
  4  3  2  0
  4 11  1  0
  5  4  1  0
  6  1  1  0
  6  5  2  0
  7  8  2  0
  9  8  1  0
 10  9  2  0
 11 12  2  0
 11 10  1  0
 12  7  1  0
 13 14  2  0
 13  1  1  0
 15 13  2  0
 16 18  1  0
 16 13  1  0
 17 16  1  0
 19 16  1  0
  2 20  1  0
  3 21  1  0
  5 22  1  0
  6 23  1  0
  7 24  1  0
  8 25  1  0
  9 26  1  0
M  ISO  7  20  14  21  14  22  14  23  14  24  14  25  14  26  14
M  END
>  <minimizedAffinity>  (1) 
-4.75688124

>  <minimizedRMSD>  (1) 
2.22989607

$$$$
