
     RDKit          3D

 39 41  0  0  0  0  0  0  0  0999 V2000
   36.8030   21.3430   32.8140 C   0  0  0  0  0  0  0  0  0  0  0  0
   37.2820   21.3670   34.1190 C   0  0  0  0  0  0  0  0  0  0  0  0
   37.7450   22.5840   34.5820 C   0  0  0  0  0  0  0  0  0  0  0  0
   37.7510   23.7300   33.8300 C   0  0  0  0  0  0  0  0  0  0  0  0
   37.2600   23.6480   32.5300 C   0  0  0  0  0  0  0  0  0  0  0  0
   36.7760   22.4600   31.9910 C   0  0  0  0  0  0  0  0  0  0  0  0
   37.8870   27.0330   35.4250 C   0  0  0  0  0  0  0  0  0  0  0  0
   39.2610   27.3130   35.4350 C   0  0  0  0  0  0  0  0  0  0  0  0
   40.1100   26.3620   34.8940 C   0  0  0  0  0  0  0  0  0  0  0  0
   39.6070   25.1990   34.3740 N   0  0  0  0  0  0  0  0  0  0  0  0
   38.2600   24.9870   34.3930 C   0  0  0  0  0  0  0  0  0  0  0  0
   37.4010   25.8790   34.9070 N   0  0  0  0  0  0  0  0  0  0  0  0
   36.2200   19.8400   32.1920 S   0  0  0  0  0  0  0  0  0  0  0  0
   35.5190   19.0090   33.2350 O   0  0  0  0  0  0  0  0  0  0  0  0
   35.2960   20.1460   31.0510 O   0  0  0  0  0  0  0  0  0  0  0  0
   37.6160   18.9300   31.5230 C   0  0  0  0  0  0  0  0  0  0  0  0
   37.8450   19.2860   30.0820 C   0  0  0  0  0  0  0  0  0  0  0  0
   36.8980   18.6000   29.1310 C   0  0  0  0  0  0  0  0  0  0  0  0
   36.8640   17.1230   29.3900 C   0  0  0  0  0  0  0  0  0  0  0  0
   36.5420   16.8260   30.8260 C   0  0  0  0  0  0  0  0  0  0  0  0
   37.5040   17.4580   31.7760 C   0  0  0  0  0  0  0  0  0  0  0  0
   37.2919   20.4655   34.7492 H   0  0  0  0  0  0  0  0  0  0  0  0
   38.1301   22.6359   35.6111 H   0  0  0  0  0  0  0  0  0  0  0  0
   37.2544   24.5544   31.9068 H   0  0  0  0  0  0  0  0  0  0  0  0
   36.3905   22.4087   30.9620 H   0  0  0  0  0  0  0  0  0  0  0  0
   37.1865   27.7681   35.8480 H   0  0  0  0  0  0  0  0  0  0  0  0
   39.6495   28.2519   35.8563 H   0  0  0  0  0  0  0  0  0  0  0  0
   41.1951   26.5418   34.8818 H   0  0  0  0  0  0  0  0  0  0  0  0
   38.5222   19.2395   32.0643 H   0  0  0  0  0  0  0  0  0  0  0  0
   37.7233   20.3734   29.9693 H   0  0  0  0  0  0  0  0  0  0  0  0
   38.8598   18.9485   29.8247 H   0  0  0  0  0  0  0  0  0  0  0  0
   37.2317   18.7779   28.0981 H   0  0  0  0  0  0  0  0  0  0  0  0
   35.8879   19.0088   29.2815 H   0  0  0  0  0  0  0  0  0  0  0  0
   36.0965   16.6648   28.7489 H   0  0  0  0  0  0  0  0  0  0  0  0
   37.8581   16.7091   29.1653 H   0  0  0  0  0  0  0  0  0  0  0  0
   35.5322   17.2031   31.0452 H   0  0  0  0  0  0  0  0  0  0  0  0
   36.6086   15.7365   30.9623 H   0  0  0  0  0  0  0  0  0  0  0  0
   38.4933   16.9943   31.6484 H   0  0  0  0  0  0  0  0  0  0  0  0
   37.1372   17.3046   32.8016 H   0  0  0  0  0  0  0  0  0  0  0  0
  1  2  2  0
  2  3  1  0
  4 11  1  0
  4  3  2  0
  5  4  1  0
  6  5  2  0
  6  1  1  0
  7  8  2  0
  9  8  1  0
 10 11  1  0
 10  9  2  0
 11 12  2  0
 12  7  1  0
 13  1  1  0
 13 14  2  0
 15 13  2  0
 16 21  1  0
 16 13  1  0
 17 16  1  0
 18 19  1  0
 18 17  1  0
 19 20  1  0
 20 21  1  0
  2 22  1  0
  3 23  1  0
  5 24  1  0
  6 25  1  0
  7 26  1  0
  8 27  1  0
  9 28  1  0
 16 29  1  0
 17 30  1  0
 17 31  1  0
 18 32  1  0
 18 33  1  0
 19 34  1  0
 19 35  1  0
 20 36  1  0
 20 37  1  0
 21 38  1  0
 21 39  1  0
M  ISO  8  22  14  23  14  24  14  25  14  26  14  27  14  28  14  29  13
M  ISO  8  30  13  31  13  32  13  33  13  34  13  35  13  36  13  37  13
M  ISO  2  38  13  39  13
M  END
>  <minimizedAffinity>  (1) 
-4.18969774

>  <minimizedRMSD>  (1) 
4.25195742

$$$$
