
     RDKit          3D

 49 53  0  0  1  0  0  0  0  0999 V2000
   38.5670   20.2000   28.9660 N   0  0  0  0  0  0  0  0  0  0  0  0
   37.9330   18.9450   28.8410 C   0  0  0  0  0  0  0  0  0  0  0  0
   36.6430   19.0590   29.6210 C   0  0  0  0  0  0  0  0  0  0  0  0
   36.6660   20.4610   30.2140 C   0  0  0  0  0  0  0  0  0  0  0  0
   38.0830   20.8590   30.1840 C   0  0  2  0  0  0  0  0  0  0  0  0
   38.4950   22.2470   30.1940 C   0  0  0  0  0  0  0  0  0  0  0  0
   39.6950   22.7710   29.8990 N   0  0  0  0  0  0  0  0  0  0  0  0
   40.0530   24.0400   29.9910 C   0  0  0  0  0  0  0  0  0  0  0  0
   39.2130   25.0000   30.4120 N   0  0  0  0  0  0  0  0  0  0  0  0
   37.9540   24.5870   30.7440 C   0  0  0  0  0  0  0  0  0  0  0  0
   37.1060   25.5810   31.1730 C   0  0  0  0  0  0  0  0  0  0  0  0
   35.8180   25.2410   31.5260 C   0  0  0  0  0  0  0  0  0  0  0  0
   35.4330   23.9250   31.4350 C   0  0  0  0  0  0  0  0  0  0  0  0
   36.3280   22.9980   31.0020 C   0  0  0  0  0  0  0  0  0  0  0  0
   37.6460   23.2490   30.6250 C   0  0  0  0  0  0  0  0  0  0  0  0
   38.9380   20.0390   31.5150 S   0  0  0  0  0  0  0  0  0  0  0  0
   40.2720   19.6400   31.0320 O   0  0  0  0  0  0  0  0  0  0  0  0
   38.1190   18.7900   31.9180 O   0  0  0  0  0  0  0  0  0  0  0  0
   38.9020   21.0500   32.9050 C   0  0  0  0  0  0  0  0  0  0  0  0
   37.6400   21.1100   33.5420 C   0  0  0  0  0  0  0  0  0  0  0  0
   37.5490   21.8710   34.6760 C   0  0  0  0  0  0  0  0  0  0  0  0
   38.6310   22.5730   35.2100 C   0  0  0  0  0  0  0  0  0  0  0  0
   39.8280   22.4680   34.5350 C   0  0  0  0  0  0  0  0  0  0  0  0
   39.9700   21.7130   33.3900 C   0  0  0  0  0  0  0  0  0  0  0  0
   38.5510   23.5170   38.7430 C   0  0  0  0  0  0  0  0  0  0  0  0
   38.0990   24.8480   38.7010 C   0  0  0  0  0  0  0  0  0  0  0  0
   37.8280   25.3980   37.4500 C   0  0  0  0  0  0  0  0  0  0  0  0
   38.0100   24.6400   36.3280 N   0  0  0  0  0  0  0  0  0  0  0  0
   38.4480   23.3630   36.4230 C   0  0  0  0  0  0  0  0  0  0  0  0
   38.7200   22.7960   37.6170 N   0  0  0  0  0  0  0  0  0  0  0  0
   38.3447   20.7826   28.1462 H   0  0  0  0  0  0  0  0  0  0  0  0
   37.7238   18.7246   27.7838 H   0  0  0  0  0  0  0  0  0  0  0  0
   38.5668   18.1303   29.2212 H   0  0  0  0  0  0  0  0  0  0  0  0
   35.7761   18.9345   28.9554 H   0  0  0  0  0  0  0  0  0  0  0  0
   36.5579   18.2831   30.3960 H   0  0  0  0  0  0  0  0  0  0  0  0
   36.0576   21.1482   29.6077 H   0  0  0  0  0  0  0  0  0  0  0  0
   36.2486   20.4883   31.2313 H   0  0  0  0  0  0  0  0  0  0  0  0
   41.0792   24.3210   29.7118 H   0  0  0  0  0  0  0  0  0  0  0  0
   37.4483   26.6247   31.2331 H   0  0  0  0  0  0  0  0  0  0  0  0
   35.1113   26.0087   31.8741 H   0  0  0  0  0  0  0  0  0  0  0  0
   34.4110   23.6248   31.7097 H   0  0  0  0  0  0  0  0  0  0  0  0
   35.9807   21.9559   30.9439 H   0  0  0  0  0  0  0  0  0  0  0  0
   36.7696   20.5684   33.1431 H   0  0  0  0  0  0  0  0  0  0  0  0
   36.5786   21.9323   35.1903 H   0  0  0  0  0  0  0  0  0  0  0  0
   40.7039   23.0073   34.9248 H   0  0  0  0  0  0  0  0  0  0  0  0
   40.9424   21.6528   32.8792 H   0  0  0  0  0  0  0  0  0  0  0  0
   38.7715   23.0542   39.7163 H   0  0  0  0  0  0  0  0  0  0  0  0
   37.9643   25.4336   39.6224 H   0  0  0  0  0  0  0  0  0  0  0  0
   37.4702   26.4348   37.3662 H   0  0  0  0  0  0  0  0  0  0  0  0
  1  5  1  0
  2  1  1  0
  2  3  1  0
  3  4  1  0
  5  6  1  6
  5  4  1  0
  5 16  1  0
  6 15  2  0
  7  8  2  0
  7  6  1  0
  8  9  1  0
  9 10  2  0
 10 11  1  0
 11 12  2  0
 13 12  1  0
 14 13  2  0
 15 10  1  0
 15 14  1  0
 16 18  2  0
 16 19  1  0
 17 16  2  0
 19 24  1  0
 19 20  2  0
 20 21  1  0
 21 22  2  0
 22 29  1  0
 23 22  1  0
 24 23  2  0
 26 25  2  0
 27 26  1  0
 28 29  1  0
 28 27  2  0
 29 30  2  0
 30 25  1  0
  1 31  1  0
  2 32  1  0
  2 33  1  0
  3 34  1  0
  3 35  1  0
  4 36  1  0
  4 37  1  0
  8 38  1  0
 11 39  1  0
 12 40  1  0
 13 41  1  0
 14 42  1  0
 20 43  1  0
 21 44  1  0
 23 45  1  0
 24 46  1  0
 25 47  1  0
 26 48  1  0
 27 49  1  0
M  ISO  8  31   5  32  13  33  13  34  13  35  13  36  13  37  13  38  14
M  ISO  8  39  14  40  14  41  14  42  14  43  14  44  14  45  14  46  14
M  ISO  3  47  14  48  14  49  14
M  END
>  <minimizedAffinity>  (1) 
-5.0894022

>  <minimizedRMSD>  (1) 
2.20912457

$$$$
