
     RDKit          3D

 43 46  0  0  1  0  0  0  0  0999 V2000
   35.8430   20.4340   31.4950 S   0  0  0  0  0  0  0  0  0  0  0  0
   34.7120   19.5060   31.7470 O   0  0  0  0  0  0  0  0  0  0  0  0
   35.3370   21.6080   30.6380 O   0  0  0  0  0  0  0  0  0  0  0  0
   37.9600   18.9420   31.6320 N   0  0  0  0  0  0  0  0  0  0  0  0
   37.2940   17.8290   32.2010 C   0  0  0  0  0  0  0  0  0  0  0  0
   36.3290   17.3550   31.1380 C   0  0  0  0  0  0  0  0  0  0  0  0
   36.5150   18.3350   29.9760 C   0  0  0  0  0  0  0  0  0  0  0  0
   37.0840   19.5570   30.6020 C   0  0  1  0  0  0  0  0  0  0  0  0
   38.0300   20.3590   29.8210 C   0  0  0  0  0  0  0  0  0  0  0  0
   38.2760   19.6090   28.6530 C   0  0  0  0  0  0  0  0  0  0  0  0
   39.1490   19.9790   27.6170 C   0  0  0  0  0  0  0  0  0  0  0  0
   39.8420   21.1530   27.6990 N   0  0  0  0  0  0  0  0  0  0  0  0
   39.6010   21.8700   28.8230 C   0  0  0  0  0  0  0  0  0  0  0  0
   38.7610   21.4520   29.7560 N   0  0  0  0  0  0  0  0  0  0  0  0
   36.5370   21.1540   32.8910 C   0  0  0  0  0  0  0  0  0  0  0  0
   36.0170   20.7110   34.1230 C   0  0  0  0  0  0  0  0  0  0  0  0
   36.5770   21.2420   35.2570 C   0  0  0  0  0  0  0  0  0  0  0  0
   37.5980   22.1640   35.2480 C   0  0  0  0  0  0  0  0  0  0  0  0
   38.0570   22.5510   34.0110 C   0  0  0  0  0  0  0  0  0  0  0  0
   37.5380   22.0590   32.8260 C   0  0  0  0  0  0  0  0  0  0  0  0
   39.9230   22.8700   37.9870 C   0  0  0  0  0  0  0  0  0  0  0  0
   39.1460   23.6610   38.8520 C   0  0  0  0  0  0  0  0  0  0  0  0
   37.8420   23.9320   38.4770 C   0  0  0  0  0  0  0  0  0  0  0  0
   37.3600   23.4340   37.3020 N   0  0  0  0  0  0  0  0  0  0  0  0
   38.1400   22.6790   36.5000 C   0  0  0  0  0  0  0  0  0  0  0  0
   39.4220   22.3880   36.8270 N   0  0  0  0  0  0  0  0  0  0  0  0
   38.1663   19.6334   32.3670 H   0  0  0  0  0  0  0  0  0  0  0  0
   38.0137   17.0351   32.4496 H   0  0  0  0  0  0  0  0  0  0  0  0
   36.7772   18.0941   33.1351 H   0  0  0  0  0  0  0  0  0  0  0  0
   36.5726   16.3296   30.8229 H   0  0  0  0  0  0  0  0  0  0  0  0
   35.2905   17.3325   31.5001 H   0  0  0  0  0  0  0  0  0  0  0  0
   35.5498   18.5575   29.4976 H   0  0  0  0  0  0  0  0  0  0  0  0
   37.1663   17.9285   29.1883 H   0  0  0  0  0  0  0  0  0  0  0  0
   37.7397   18.6548   28.5440 H   0  0  0  0  0  0  0  0  0  0  0  0
   39.2743   19.3248   26.7416 H   0  0  0  0  0  0  0  0  0  0  0  0
   40.1198   22.8296   28.9644 H   0  0  0  0  0  0  0  0  0  0  0  0
   35.2012   19.9748   34.1732 H   0  0  0  0  0  0  0  0  0  0  0  0
   36.1868   20.9112   36.2308 H   0  0  0  0  0  0  0  0  0  0  0  0
   38.8743   23.2855   33.9609 H   0  0  0  0  0  0  0  0  0  0  0  0
   37.9307   22.3964   31.8555 H   0  0  0  0  0  0  0  0  0  0  0  0
   40.9629   22.6378   38.2604 H   0  0  0  0  0  0  0  0  0  0  0  0
   39.5603   24.0506   39.7936 H   0  0  0  0  0  0  0  0  0  0  0  0
   37.1972   24.5459   39.1231 H   0  0  0  0  0  0  0  0  0  0  0  0
  1  2  2  0
  1 15  1  0
  3  1  2  0
  4  5  1  0
  6  5  1  0
  7  8  1  0
  7  6  1  0
  8  1  1  0
  8  4  1  0
  8  9  1  6
 10  9  2  0
 11 12  2  0
 11 10  1  0
 12 13  1  0
 13 14  2  0
 14  9  1  0
 15 16  2  0
 16 17  1  0
 18 17  2  0
 18 25  1  0
 19 18  1  0
 20 15  1  0
 20 19  2  0
 21 22  2  0
 23 22  1  0
 24 23  2  0
 25 26  2  0
 25 24  1  0
 26 21  1  0
  4 27  1  0
  5 28  1  0
  5 29  1  0
  6 30  1  0
  6 31  1  0
  7 32  1  0
  7 33  1  0
 10 34  1  0
 11 35  1  0
 13 36  1  0
 16 37  1  0
 17 38  1  0
 19 39  1  0
 20 40  1  0
 21 41  1  0
 22 42  1  0
 23 43  1  0
M  ISO  8  27   5  28  13  29  13  30  13  31  13  32  13  33  13  34  14
M  ISO  8  35  14  36  14  37  14  38  14  39  14  40  14  41  14  42  14
M  ISO  1  43  14
M  END
>  <minimizedAffinity>  (1) 
-4.85723162

>  <minimizedRMSD>  (1) 
0.626711071

$$$$
