
     RDKit          3D

 40 43  0  0  1  0  0  0  0  0999 V2000
   35.9140   20.4620   31.4450 S   0  0  0  0  0  0  0  0  0  0  0  0
   34.7810   19.5290   31.6980 O   0  0  0  0  0  0  0  0  0  0  0  0
   35.3990   21.6370   30.5970 O   0  0  0  0  0  0  0  0  0  0  0  0
   38.0260   18.9680   31.5850 N   0  0  0  0  0  0  0  0  0  0  0  0
   37.3580   17.8500   32.1430 C   0  0  0  0  0  0  0  0  0  0  0  0
   36.3960   17.3830   31.0710 C   0  0  0  0  0  0  0  0  0  0  0  0
   36.5850   18.3690   29.9240 C   0  0  0  0  0  0  0  0  0  0  0  0
   37.1410   19.5900   30.5580 C   0  0  1  0  0  0  0  0  0  0  0  0
   38.1180   20.4060   29.7700 C   0  0  0  0  0  0  0  0  0  0  0  0
   38.8330   21.5030   29.6810 N   0  0  0  0  0  0  0  0  0  0  0  0
   39.5140   21.5440   28.6090 O   0  0  0  0  0  0  0  0  0  0  0  0
   39.2840   20.4690   27.9280 C   0  0  0  0  0  0  0  0  0  0  0  0
   38.4260   19.7600   28.6320 N   0  0  0  0  0  0  0  0  0  0  0  0
   36.5960   21.1760   32.8520 C   0  0  0  0  0  0  0  0  0  0  0  0
   36.0570   20.7330   34.0800 C   0  0  0  0  0  0  0  0  0  0  0  0
   36.6050   21.2590   35.2190 C   0  0  0  0  0  0  0  0  0  0  0  0
   37.6450   22.1880   35.2120 C   0  0  0  0  0  0  0  0  0  0  0  0
   38.1120   22.5680   33.9840 C   0  0  0  0  0  0  0  0  0  0  0  0
   37.5980   22.0720   32.8040 C   0  0  0  0  0  0  0  0  0  0  0  0
   39.9200   22.8700   37.9970 C   0  0  0  0  0  0  0  0  0  0  0  0
   39.1360   23.6400   38.8620 C   0  0  0  0  0  0  0  0  0  0  0  0
   37.8240   23.9160   38.4710 C   0  0  0  0  0  0  0  0  0  0  0  0
   37.3710   23.4330   37.2820 N   0  0  0  0  0  0  0  0  0  0  0  0
   38.1660   22.6930   36.4790 C   0  0  0  0  0  0  0  0  0  0  0  0
   39.4410   22.4040   36.8230 N   0  0  0  0  0  0  0  0  0  0  0  0
   38.2326   19.6534   32.3255 H   0  0  0  0  0  0  0  0  0  0  0  0
   38.0771   17.0546   32.3884 H   0  0  0  0  0  0  0  0  0  0  0  0
   36.8373   18.1077   33.0771 H   0  0  0  0  0  0  0  0  0  0  0  0
   36.6419   16.3607   30.7480 H   0  0  0  0  0  0  0  0  0  0  0  0
   35.3562   17.3556   31.4287 H   0  0  0  0  0  0  0  0  0  0  0  0
   35.6221   18.5886   29.4397 H   0  0  0  0  0  0  0  0  0  0  0  0
   37.2468   17.9711   29.1406 H   0  0  0  0  0  0  0  0  0  0  0  0
   39.7187   20.2001   26.9540 H   0  0  0  0  0  0  0  0  0  0  0  0
   35.2369   20.0010   34.1193 H   0  0  0  0  0  0  0  0  0  0  0  0
   36.2043   20.9319   36.1898 H   0  0  0  0  0  0  0  0  0  0  0  0
   38.9318   23.2998   33.9353 H   0  0  0  0  0  0  0  0  0  0  0  0
   38.0022   22.4048   31.8366 H   0  0  0  0  0  0  0  0  0  0  0  0
   40.9569   22.6370   38.2809 H   0  0  0  0  0  0  0  0  0  0  0  0
   39.5379   24.0144   39.8151 H   0  0  0  0  0  0  0  0  0  0  0  0
   37.1652   24.5161   39.1158 H   0  0  0  0  0  0  0  0  0  0  0  0
  1  2  2  0
  1 14  1  0
  3  1  2  0
  4  5  1  0
  6  5  1  0
  7  8  1  0
  7  6  1  0
  8  1  1  0
  8  4  1  0
  8  9  1  6
 10  9  2  0
 11 10  1  0
 12 11  1  0
 12 13  2  0
 13  9  1  0
 14 15  2  0
 15 16  1  0
 17 16  2  0
 17 24  1  0
 18 17  1  0
 19 14  1  0
 19 18  2  0
 20 21  2  0
 22 21  1  0
 23 22  2  0
 24 25  2  0
 24 23  1  0
 25 20  1  0
  4 26  1  0
  5 27  1  0
  5 28  1  0
  6 29  1  0
  6 30  1  0
  7 31  1  0
  7 32  1  0
 12 33  1  0
 15 34  1  0
 16 35  1  0
 18 36  1  0
 19 37  1  0
 20 38  1  0
 21 39  1  0
 22 40  1  0
M  ISO  8  26   5  27  13  28  13  29  13  30  13  31  13  32  13  33  14
M  ISO  7  34  14  35  14  36  14  37  14  38  14  39  14  40  14
M  END
>  <minimizedAffinity>  (1) 
-4.74770451

>  <minimizedRMSD>  (1) 
0.48640731

$$$$
