
     RDKit          3D

 41 44  0  0  1  0  0  0  0  0999 V2000
   35.9070   20.4110   31.4600 S   0  0  0  0  0  0  0  0  0  0  0  0
   34.7660   19.4980   31.7040 O   0  0  0  0  0  0  0  0  0  0  0  0
   35.4220   21.5900   30.5950 O   0  0  0  0  0  0  0  0  0  0  0  0
   38.0000   18.8890   31.6260 N   0  0  0  0  0  0  0  0  0  0  0  0
   37.3130   17.7870   32.1820 C   0  0  0  0  0  0  0  0  0  0  0  0
   36.3520   17.3290   31.1090 C   0  0  0  0  0  0  0  0  0  0  0  0
   36.5680   18.3110   29.9500 C   0  0  0  0  0  0  0  0  0  0  0  0
   37.1400   19.5170   30.5820 C   0  0  1  0  0  0  0  0  0  0  0  0
   38.0950   20.3140   29.7810 C   0  0  0  0  0  0  0  0  0  0  0  0
   38.2570   19.4850   28.6220 C   0  0  0  0  0  0  0  0  0  0  0  0
   39.4680   20.4290   27.5880 S   0  0  0  0  0  0  0  0  0  0  0  0
   39.5580   21.7990   28.9020 C   0  0  0  0  0  0  0  0  0  0  0  0
   38.8380   21.3840   29.6730 N   0  0  0  0  0  0  0  0  0  0  0  0
   36.5980   21.1340   32.8580 C   0  0  0  0  0  0  0  0  0  0  0  0
   36.0330   20.7270   34.0880 C   0  0  0  0  0  0  0  0  0  0  0  0
   36.5780   21.2510   35.2250 C   0  0  0  0  0  0  0  0  0  0  0  0
   37.6410   22.1500   35.2190 C   0  0  0  0  0  0  0  0  0  0  0  0
   38.1320   22.4970   33.9970 C   0  0  0  0  0  0  0  0  0  0  0  0
   37.6270   22.0030   32.8060 C   0  0  0  0  0  0  0  0  0  0  0  0
   39.9350   22.8660   37.9820 C   0  0  0  0  0  0  0  0  0  0  0  0
   39.1410   23.6410   38.8490 C   0  0  0  0  0  0  0  0  0  0  0  0
   37.8300   23.9020   38.4650 C   0  0  0  0  0  0  0  0  0  0  0  0
   37.3650   23.4060   37.2830 N   0  0  0  0  0  0  0  0  0  0  0  0
   38.1660   22.6660   36.4810 C   0  0  0  0  0  0  0  0  0  0  0  0
   39.4430   22.3910   36.8180 N   0  0  0  0  0  0  0  0  0  0  0  0
   38.2054   19.5769   32.3646 H   0  0  0  0  0  0  0  0  0  0  0  0
   38.0185   16.9820   32.4356 H   0  0  0  0  0  0  0  0  0  0  0  0
   36.7896   18.0580   33.1108 H   0  0  0  0  0  0  0  0  0  0  0  0
   36.5828   16.3005   30.7945 H   0  0  0  0  0  0  0  0  0  0  0  0
   35.3093   17.3205   31.4593 H   0  0  0  0  0  0  0  0  0  0  0  0
   35.6127   18.5468   29.4582 H   0  0  0  0  0  0  0  0  0  0  0  0
   37.2258   17.8975   29.1713 H   0  0  0  0  0  0  0  0  0  0  0  0
   37.7771   18.5203   28.4007 H   0  0  0  0  0  0  0  0  0  0  0  0
   40.1429   22.7306   28.9117 H   0  0  0  0  0  0  0  0  0  0  0  0
   35.1916   20.0195   34.1275 H   0  0  0  0  0  0  0  0  0  0  0  0
   36.1560   20.9476   36.1944 H   0  0  0  0  0  0  0  0  0  0  0  0
   38.9723   23.2056   33.9539 H   0  0  0  0  0  0  0  0  0  0  0  0
   38.0552   22.3122   31.8411 H   0  0  0  0  0  0  0  0  0  0  0  0
   40.9762   22.6433   38.2584 H   0  0  0  0  0  0  0  0  0  0  0  0
   39.5437   24.0267   39.7972 H   0  0  0  0  0  0  0  0  0  0  0  0
   37.1731   24.5041   39.1100 H   0  0  0  0  0  0  0  0  0  0  0  0
  1  2  2  0
  1 14  1  0
  3  1  2  0
  4  5  1  0
  6  5  1  0
  7  8  1  0
  7  6  1  0
  8  1  1  0
  8  4  1  0
  8  9  1  6
 10  9  2  0
 11 10  1  0
 11 12  1  0
 12 13  2  0
 13  9  1  0
 14 15  2  0
 15 16  1  0
 17 16  2  0
 17 24  1  0
 18 17  1  0
 19 14  1  0
 19 18  2  0
 20 21  2  0
 22 21  1  0
 23 22  2  0
 24 25  2  0
 24 23  1  0
 25 20  1  0
  4 26  1  0
  5 27  1  0
  5 28  1  0
  6 29  1  0
  6 30  1  0
  7 31  1  0
  7 32  1  0
 10 33  1  0
 12 34  1  0
 15 35  1  0
 16 36  1  0
 18 37  1  0
 19 38  1  0
 20 39  1  0
 21 40  1  0
 22 41  1  0
M  ISO  8  26   5  27  13  28  13  29  13  30  13  31  13  32  13  33  14
M  ISO  8  34  14  35  14  36  14  37  14  38  14  39  14  40  14  41  14
M  END
>  <minimizedAffinity>  (1) 
-4.74351931

>  <minimizedRMSD>  (1) 
0.65074867

$$$$
