
     RDKit          3D

 48 51  0  0  1  0  0  0  0  0999 V2000
   35.8060   20.4210   31.4560 S   0  0  0  0  0  0  0  0  0  0  0  0
   34.6240   19.5740   31.7030 O   0  0  0  0  0  0  0  0  0  0  0  0
   35.4070   21.5970   30.5570 O   0  0  0  0  0  0  0  0  0  0  0  0
   37.9290   18.9290   31.6840 N   0  0  0  0  0  0  0  0  0  0  0  0
   37.2810   17.8970   32.3950 C   0  0  0  0  0  0  0  0  0  0  0  0
   36.2740   17.3180   31.4280 C   0  0  0  0  0  0  0  0  0  0  0  0
   36.4350   18.1550   30.1540 C   0  0  0  0  0  0  0  0  0  0  0  0
   37.0150   19.4360   30.6190 C   0  0  1  0  0  0  0  0  0  0  0  0
   39.8040   21.5550   28.0930 C   0  0  0  0  0  0  0  0  0  0  0  0
   39.2200   20.3950   27.6610 C   0  0  0  0  0  0  0  0  0  0  0  0
   38.3390   19.7530   28.5020 C   0  0  0  0  0  0  0  0  0  0  0  0
   37.9630   20.1690   29.7850 C   0  0  0  0  0  0  0  0  0  0  0  0
   38.6220   21.3620   30.1160 C   0  0  0  0  0  0  0  0  0  0  0  0
   39.5120   22.0640   29.3390 C   0  0  0  0  0  0  0  0  0  0  0  0
   40.9260   22.4330   27.1040 S   0  0  0  0  0  0  0  0  0  0  0  0
   42.3110   22.0500   27.5360 O   0  0  0  0  0  0  0  0  0  0  0  0
   40.7240   23.9070   27.3750 O   0  0  0  0  0  0  0  0  0  0  0  0
   36.5320   21.1310   32.8450 C   0  0  0  0  0  0  0  0  0  0  0  0
   35.9890   20.7090   34.0800 C   0  0  0  0  0  0  0  0  0  0  0  0
   36.5510   21.2320   35.2110 C   0  0  0  0  0  0  0  0  0  0  0  0
   37.6080   22.1400   35.1940 C   0  0  0  0  0  0  0  0  0  0  0  0
   38.0770   22.5020   33.9670 C   0  0  0  0  0  0  0  0  0  0  0  0
   37.5680   22.0200   32.7600 C   0  0  0  0  0  0  0  0  0  0  0  0
   39.9300   22.8420   37.9340 C   0  0  0  0  0  0  0  0  0  0  0  0
   39.1460   23.6060   38.8190 C   0  0  0  0  0  0  0  0  0  0  0  0
   37.8370   23.8600   38.4520 C   0  0  0  0  0  0  0  0  0  0  0  0
   37.3570   23.3760   37.2720 N   0  0  0  0  0  0  0  0  0  0  0  0
   38.1450   22.6480   36.4540 C   0  0  0  0  0  0  0  0  0  0  0  0
   39.4270   22.3760   36.7720 N   0  0  0  0  0  0  0  0  0  0  0  0
   38.1661   19.6962   32.3291 H   0  0  0  0  0  0  0  0  0  0  0  0
   38.0049   17.1284   32.7037 H   0  0  0  0  0  0  0  0  0  0  0  0
   36.8016   18.2693   33.3123 H   0  0  0  0  0  0  0  0  0  0  0  0
   36.4932   16.2590   31.2270 H   0  0  0  0  0  0  0  0  0  0  0  0
   35.2481   17.3535   31.8234 H   0  0  0  0  0  0  0  0  0  0  0  0
   35.4598   18.3221   29.6734 H   0  0  0  0  0  0  0  0  0  0  0  0
   37.0692   17.6574   29.4055 H   0  0  0  0  0  0  0  0  0  0  0  0
   39.4490   19.9856   26.6660 H   0  0  0  0  0  0  0  0  0  0  0  0
   37.8862   18.8222   28.1296 H   0  0  0  0  0  0  0  0  0  0  0  0
   38.4019   21.7827   31.1083 H   0  0  0  0  0  0  0  0  0  0  0  0
   39.9731   22.9959   29.6982 H   0  0  0  0  0  0  0  0  0  0  0  0
   40.7433   22.1597   25.7740 H   0  0  0  0  0  0  0  0  0  0  0  0
   35.1544   19.9941   34.1286 H   0  0  0  0  0  0  0  0  0  0  0  0
   36.1478   20.9198   36.1856 H   0  0  0  0  0  0  0  0  0  0  0  0
   38.9096   23.2196   33.9250 H   0  0  0  0  0  0  0  0  0  0  0  0
   37.9788   22.3386   31.7906 H   0  0  0  0  0  0  0  0  0  0  0  0
   40.9752   22.6201   38.1954 H   0  0  0  0  0  0  0  0  0  0  0  0
   39.5583   23.9861   39.7653 H   0  0  0  0  0  0  0  0  0  0  0  0
   37.1847   24.4515   39.1112 H   0  0  0  0  0  0  0  0  0  0  0  0
  1  2  2  0
  1 18  1  0
  3  1  2  0
  4  5  1  0
  6  5  1  0
  7  8  1  0
  7  6  1  0
  8  1  1  0
  8  4  1  0
  9 14  2  0
 10  9  1  0
 10 11  2  0
 11 12  1  0
 12 13  2  0
  8 12  1  6
 14 13  1  0
 15 17  2  0
 15 16  2  0
 15  9  1  0
 18 19  2  0
 19 20  1  0
 21 20  2  0
 21 28  1  0
 22 21  1  0
 23 18  1  0
 23 22  2  0
 24 25  2  0
 26 25  1  0
 27 26  2  0
 28 29  2  0
 28 27  1  0
 29 24  1  0
  4 30  1  0
  5 31  1  0
  5 32  1  0
  6 33  1  0
  6 34  1  0
  7 35  1  0
  7 36  1  0
 10 37  1  0
 11 38  1  0
 13 39  1  0
 14 40  1  0
 15 41  1  0
 19 42  1  0
 20 43  1  0
 22 44  1  0
 23 45  1  0
 24 46  1  0
 25 47  1  0
 26 48  1  0
M  ISO  8  30   5  31  13  32  13  33  13  34  13  35  13  36  13  37  14
M  ISO  8  38  14  39  14  40  14  41  11  42  14  43  14  44  14  45  14
M  ISO  3  46  14  47  14  48  14
M  END
>  <minimizedAffinity>  (1) 
-4.69561386

>  <minimizedRMSD>  (1) 
0.952185988

$$$$
