
     RDKit          3D

 48 51  0  0  1  0  0  0  0  0999 V2000
   35.8180   20.3510   31.4850 S   0  0  0  0  0  0  0  0  0  0  0  0
   34.6560   19.4620   31.7530 O   0  0  0  0  0  0  0  0  0  0  0  0
   35.3470   21.5160   30.6010 O   0  0  0  0  0  0  0  0  0  0  0  0
   37.9060   18.8290   31.6780 N   0  0  0  0  0  0  0  0  0  0  0  0
   37.2230   17.7540   32.2930 C   0  0  0  0  0  0  0  0  0  0  0  0
   36.2450   17.2510   31.2570 C   0  0  0  0  0  0  0  0  0  0  0  0
   36.4550   18.1770   30.0580 C   0  0  0  0  0  0  0  0  0  0  0  0
   37.0300   19.4200   30.6220 C   0  0  1  0  0  0  0  0  0  0  0  0
   37.9790   20.2320   29.8520 C   0  0  0  0  0  0  0  0  0  0  0  0
   39.3610   20.3420   30.4370 C   0  0  0  0  0  0  0  0  0  0  0  0
   40.0530   21.1400   29.3410 C   0  0  0  0  0  0  0  0  0  0  0  0
   39.4960   20.5430   28.0650 C   0  0  0  0  0  0  0  0  0  0  0  0
   38.2610   19.7370   28.4480 C   0  0  0  0  0  0  0  0  0  0  0  0
   36.5140   21.0840   32.8740 C   0  0  0  0  0  0  0  0  0  0  0  0
   35.9900   20.6650   34.1140 C   0  0  0  0  0  0  0  0  0  0  0  0
   36.5510   21.2070   35.2350 C   0  0  0  0  0  0  0  0  0  0  0  0
   37.5920   22.1320   35.2050 C   0  0  0  0  0  0  0  0  0  0  0  0
   38.0450   22.4900   33.9710 C   0  0  0  0  0  0  0  0  0  0  0  0
   37.5230   21.9810   32.7970 C   0  0  0  0  0  0  0  0  0  0  0  0
   39.9250   22.8550   37.9350 C   0  0  0  0  0  0  0  0  0  0  0  0
   39.1420   23.6330   38.8120 C   0  0  0  0  0  0  0  0  0  0  0  0
   37.8240   23.8930   38.4430 C   0  0  0  0  0  0  0  0  0  0  0  0
   37.3510   23.3930   37.2680 N   0  0  0  0  0  0  0  0  0  0  0  0
   38.1320   22.6530   36.4590 C   0  0  0  0  0  0  0  0  0  0  0  0
   39.4200   22.3760   36.7790 N   0  0  0  0  0  0  0  0  0  0  0  0
   38.1284   19.5458   32.3834 H   0  0  0  0  0  0  0  0  0  0  0  0
   37.9300   16.9589   32.5722 H   0  0  0  0  0  0  0  0  0  0  0  0
   36.7137   18.0688   33.2158 H   0  0  0  0  0  0  0  0  0  0  0  0
   36.4656   16.2077   30.9870 H   0  0  0  0  0  0  0  0  0  0  0  0
   35.2065   17.2616   31.6194 H   0  0  0  0  0  0  0  0  0  0  0  0
   35.4967   18.3867   29.5603 H   0  0  0  0  0  0  0  0  0  0  0  0
   37.1139   17.7261   29.3013 H   0  0  0  0  0  0  0  0  0  0  0  0
   37.4363   21.1887   29.8675 H   0  0  0  0  0  0  0  0  0  0  0  0
   39.3565   20.8834   31.3945 H   0  0  0  0  0  0  0  0  0  0  0  0
   39.8377   19.3809   30.6798 H   0  0  0  0  0  0  0  0  0  0  0  0
   39.8047   22.2090   29.4162 H   0  0  0  0  0  0  0  0  0  0  0  0
   41.1501   21.0841   29.3974 H   0  0  0  0  0  0  0  0  0  0  0  0
   40.2447   19.8866   27.5976 H   0  0  0  0  0  0  0  0  0  0  0  0
   39.2394   21.3325   27.3434 H   0  0  0  0  0  0  0  0  0  0  0  0
   37.4195   19.9515   27.7729 H   0  0  0  0  0  0  0  0  0  0  0  0
   38.4066   18.6485   28.3843 H   0  0  0  0  0  0  0  0  0  0  0  0
   35.1684   19.9362   34.1756 H   0  0  0  0  0  0  0  0  0  0  0  0
   36.1595   20.8962   36.2149 H   0  0  0  0  0  0  0  0  0  0  0  0
   38.8658   23.2194   33.9060 H   0  0  0  0  0  0  0  0  0  0  0  0
   37.9196   22.2985   31.8213 H   0  0  0  0  0  0  0  0  0  0  0  0
   40.9698   22.6337   38.1987 H   0  0  0  0  0  0  0  0  0  0  0  0
   39.5569   24.0209   39.7540 H   0  0  0  0  0  0  0  0  0  0  0  0
   37.1728   24.4954   39.0934 H   0  0  0  0  0  0  0  0  0  0  0  0
  1  2  2  0
  1 14  1  0
  3  1  2  0
  4  5  1  0
  6  5  1  0
  7  8  1  0
  7  6  1  0
  8  1  1  0
  8  4  1  0
  9 10  1  0
  8  9  1  6
 11 10  1  0
 12 13  1  0
 12 11  1  0
 13  9  1  0
 14 15  2  0
 15 16  1  0
 17 16  2  0
 17 24  1  0
 18 17  1  0
 19 14  1  0
 19 18  2  0
 20 21  2  0
 22 21  1  0
 23 22  2  0
 24 25  2  0
 24 23  1  0
 25 20  1  0
  4 26  1  0
  5 27  1  0
  5 28  1  0
  6 29  1  0
  6 30  1  0
  7 31  1  0
  7 32  1  0
  9 33  1  0
 10 34  1  0
 10 35  1  0
 11 36  1  0
 11 37  1  0
 12 38  1  0
 12 39  1  0
 13 40  1  0
 13 41  1  0
 15 42  1  0
 16 43  1  0
 18 44  1  0
 19 45  1  0
 20 46  1  0
 21 47  1  0
 22 48  1  0
M  ISO  8  26   5  27  13  28  13  29  13  30  13  31  13  32  13  33  13
M  ISO  8  34  13  35  13  36  13  37  13  38  13  39  13  40  13  41  13
M  ISO  7  42  14  43  14  44  14  45  14  46  14  47  14  48  14
M  END
>  <minimizedAffinity>  (1) 
-4.6925354

>  <minimizedRMSD>  (1) 
0.989286244

$$$$
