
     RDKit          3D

 42 45  0  0  1  0  0  0  0  0999 V2000
   35.8980   20.5260   31.4470 S   0  0  0  0  0  0  0  0  0  0  0  0
   34.7790   19.5980   31.6740 O   0  0  0  0  0  0  0  0  0  0  0  0
   35.4190   21.7080   30.5940 O   0  0  0  0  0  0  0  0  0  0  0  0
   38.0270   19.0250   31.5950 N   0  0  0  0  0  0  0  0  0  0  0  0
   37.3480   17.9140   32.1560 C   0  0  0  0  0  0  0  0  0  0  0  0
   36.3990   17.4490   31.0760 C   0  0  0  0  0  0  0  0  0  0  0  0
   36.6110   18.4290   29.9190 C   0  0  0  0  0  0  0  0  0  0  0  0
   37.1510   19.6480   30.5630 C   0  0  1  0  0  0  0  0  0  0  0  0
   38.1230   20.4760   29.8530 C   0  0  0  0  0  0  0  0  0  0  0  0
   38.8440   19.8080   28.8570 C   0  0  0  0  0  0  0  0  0  0  0  0
   39.7010   20.7110   28.2910 N   0  0  0  0  0  0  0  0  0  0  0  0
   39.5490   21.9060   28.8850 C   0  0  0  0  0  0  0  0  0  0  0  0
   38.6120   21.7280   29.7980 N   0  0  0  0  0  0  0  0  0  0  0  0
   36.6010   21.2320   32.8510 C   0  0  0  0  0  0  0  0  0  0  0  0
   36.0740   20.7540   34.0710 C   0  0  0  0  0  0  0  0  0  0  0  0
   36.6200   21.2710   35.2190 C   0  0  0  0  0  0  0  0  0  0  0  0
   37.6360   22.2160   35.2280 C   0  0  0  0  0  0  0  0  0  0  0  0
   38.0960   22.6310   34.0030 C   0  0  0  0  0  0  0  0  0  0  0  0
   37.6010   22.1600   32.7920 C   0  0  0  0  0  0  0  0  0  0  0  0
   39.9130   22.8750   38.0130 C   0  0  0  0  0  0  0  0  0  0  0  0
   39.1320   23.6410   38.8850 C   0  0  0  0  0  0  0  0  0  0  0  0
   37.8350   23.9150   38.4940 C   0  0  0  0  0  0  0  0  0  0  0  0
   37.3740   23.4430   37.3080 N   0  0  0  0  0  0  0  0  0  0  0  0
   38.1580   22.7090   36.4980 C   0  0  0  0  0  0  0  0  0  0  0  0
   39.4360   22.4140   36.8350 N   0  0  0  0  0  0  0  0  0  0  0  0
   38.2361   19.7123   32.3331 H   0  0  0  0  0  0  0  0  0  0  0  0
   38.0599   17.1163   32.4147 H   0  0  0  0  0  0  0  0  0  0  0  0
   36.8199   18.1783   33.0840 H   0  0  0  0  0  0  0  0  0  0  0  0
   36.6411   16.4225   30.7634 H   0  0  0  0  0  0  0  0  0  0  0  0
   35.3544   17.4335   31.4203 H   0  0  0  0  0  0  0  0  0  0  0  0
   35.6587   18.6455   29.4128 H   0  0  0  0  0  0  0  0  0  0  0  0
   37.2857   18.0281   29.1483 H   0  0  0  0  0  0  0  0  0  0  0  0
   38.7403   18.7486   28.5796 H   0  0  0  0  0  0  0  0  0  0  0  0
   40.0906   22.8363   28.6587 H   0  0  0  0  0  0  0  0  0  0  0  0
   38.2833   22.4837   30.4158 H   0  0  0  0  0  0  0  0  0  0  0  0
   35.2678   20.0062   34.0996 H   0  0  0  0  0  0  0  0  0  0  0  0
   36.2309   20.9168   36.1850 H   0  0  0  0  0  0  0  0  0  0  0  0
   38.9023   23.3789   33.9780 H   0  0  0  0  0  0  0  0  0  0  0  0
   37.9969   22.5186   31.8304 H   0  0  0  0  0  0  0  0  0  0  0  0
   40.9499   22.6399   38.2953 H   0  0  0  0  0  0  0  0  0  0  0  0
   39.5330   24.0094   39.8408 H   0  0  0  0  0  0  0  0  0  0  0  0
   37.1783   24.5139   39.1422 H   0  0  0  0  0  0  0  0  0  0  0  0
  1  2  2  0
  1 14  1  0
  3  1  2  0
  4  5  1  0
  6  5  1  0
  7  8  1  0
  7  6  1  0
  8  1  1  0
  8  4  1  0
  8  9  1  6
 10  9  2  0
 11 10  1  0
 11 12  2  0
 12 13  1  0
 13  9  1  0
 14 15  2  0
 15 16  1  0
 16 17  2  0
 17 24  1  0
 18 17  1  0
 19 14  1  0
 19 18  2  0
 20 21  2  0
 22 21  1  0
 23 22  2  0
 24 25  2  0
 24 23  1  0
 25 20  1  0
  4 26  1  0
  5 27  1  0
  5 28  1  0
  6 29  1  0
  6 30  1  0
  7 31  1  0
  7 32  1  0
 10 33  1  0
 12 34  1  0
 13 35  1  0
 15 36  1  0
 16 37  1  0
 18 38  1  0
 19 39  1  0
 20 40  1  0
 21 41  1  0
 22 42  1  0
M  ISO  8  26   5  27  13  28  13  29  13  30  13  31  13  32  13  33  14
M  ISO  8  34  14  35   9  36  14  37  14  38  14  39  14  40  14  41  14
M  ISO  1  42  14
M  END
>  <minimizedAffinity>  (1) 
-4.68764257

>  <minimizedRMSD>  (1) 
0.890208662

$$$$
