
     RDKit          3D

 51 54  0  0  1  0  0  0  0  0999 V2000
   35.8820   20.3120   31.4730 S   0  0  0  0  0  0  0  0  0  0  0  0
   34.7040   19.4500   31.7280 O   0  0  0  0  0  0  0  0  0  0  0  0
   35.4520   21.4750   30.5570 O   0  0  0  0  0  0  0  0  0  0  0  0
   37.9130   18.7150   31.7210 N   0  0  0  0  0  0  0  0  0  0  0  0
   37.1770   17.6650   32.2930 C   0  0  0  0  0  0  0  0  0  0  0  0
   36.2150   17.2040   31.2220 C   0  0  0  0  0  0  0  0  0  0  0  0
   36.4960   18.1390   30.0340 C   0  0  0  0  0  0  0  0  0  0  0  0
   37.0930   19.3470   30.6410 C   0  0  1  0  0  0  0  0  0  0  0  0
   38.0970   20.1060   29.8250 C   0  0  0  0  0  0  0  0  0  0  0  0
   39.4810   20.1010   30.4420 C   0  0  0  0  0  0  0  0  0  0  0  0
   40.4720   19.2250   29.7730 C   0  0  0  0  0  0  0  0  0  0  0  0
   40.5740   19.4250   28.2880 C   0  0  0  0  0  0  0  0  0  0  0  0
   39.4110   20.1390   27.6940 C   0  0  0  0  0  0  0  0  0  0  0  0
   38.1000   19.7970   28.3700 C   0  0  0  0  0  0  0  0  0  0  0  0
   36.5760   21.0580   32.8540 C   0  0  0  0  0  0  0  0  0  0  0  0
   36.0050   20.6780   34.0910 C   0  0  0  0  0  0  0  0  0  0  0  0
   36.5580   21.2230   35.2210 C   0  0  0  0  0  0  0  0  0  0  0  0
   37.6340   22.1140   35.1930 C   0  0  0  0  0  0  0  0  0  0  0  0
   38.1240   22.4300   33.9630 C   0  0  0  0  0  0  0  0  0  0  0  0
   37.6150   21.9170   32.7830 C   0  0  0  0  0  0  0  0  0  0  0  0
   39.9130   22.8670   37.9560 C   0  0  0  0  0  0  0  0  0  0  0  0
   39.1250   23.6290   38.8140 C   0  0  0  0  0  0  0  0  0  0  0  0
   37.8070   23.8820   38.4310 C   0  0  0  0  0  0  0  0  0  0  0  0
   37.3500   23.3780   37.2500 N   0  0  0  0  0  0  0  0  0  0  0  0
   38.1550   22.6430   36.4510 C   0  0  0  0  0  0  0  0  0  0  0  0
   39.4320   22.3810   36.7900 N   0  0  0  0  0  0  0  0  0  0  0  0
   38.1341   19.4159   32.4426 H   0  0  0  0  0  0  0  0  0  0  0  0
   37.8468   16.8430   32.5857 H   0  0  0  0  0  0  0  0  0  0  0  0
   36.6468   17.9900   33.2003 H   0  0  0  0  0  0  0  0  0  0  0  0
   36.4089   16.1564   30.9482 H   0  0  0  0  0  0  0  0  0  0  0  0
   35.1664   17.2454   31.5517 H   0  0  0  0  0  0  0  0  0  0  0  0
   35.5628   18.3896   29.5083 H   0  0  0  0  0  0  0  0  0  0  0  0
   37.1592   17.6767   29.2880 H   0  0  0  0  0  0  0  0  0  0  0  0
   37.7402   21.1458   29.8642 H   0  0  0  0  0  0  0  0  0  0  0  0
   39.8672   21.1307   30.4177 H   0  0  0  0  0  0  0  0  0  0  0  0
   39.3583   19.6989   31.4585 H   0  0  0  0  0  0  0  0  0  0  0  0
   41.4596   19.4222   30.2154 H   0  0  0  0  0  0  0  0  0  0  0  0
   40.1317   18.1905   29.9279 H   0  0  0  0  0  0  0  0  0  0  0  0
   41.4825   20.0089   28.0788 H   0  0  0  0  0  0  0  0  0  0  0  0
   40.6007   18.4242   27.8323 H   0  0  0  0  0  0  0  0  0  0  0  0
   39.5805   21.2220   27.7851 H   0  0  0  0  0  0  0  0  0  0  0  0
   39.3321   19.8232   26.6432 H   0  0  0  0  0  0  0  0  0  0  0  0
   37.2965   20.3732   27.8879 H   0  0  0  0  0  0  0  0  0  0  0  0
   37.9489   18.7126   28.2642 H   0  0  0  0  0  0  0  0  0  0  0  0
   35.1577   19.9786   34.1439 H   0  0  0  0  0  0  0  0  0  0  0  0
   36.1339   20.9453   36.1972 H   0  0  0  0  0  0  0  0  0  0  0  0
   38.9699   23.1307   33.9039 H   0  0  0  0  0  0  0  0  0  0  0  0
   38.0460   22.2019   31.8119 H   0  0  0  0  0  0  0  0  0  0  0  0
   40.9557   22.6545   38.2345 H   0  0  0  0  0  0  0  0  0  0  0  0
   39.5272   24.0182   39.7610 H   0  0  0  0  0  0  0  0  0  0  0  0
   37.1453   24.4807   39.0742 H   0  0  0  0  0  0  0  0  0  0  0  0
  1  2  2  0
  1 15  1  0
  3  1  2  0
  4  5  1  0
  6  5  1  0
  7  8  1  0
  7  6  1  0
  8  1  1  0
  8  4  1  0
  9 10  1  0
  8  9  1  6
 11 10  1  0
 12 11  1  0
 13 12  1  0
 13 14  1  0
 14  9  1  0
 15 16  2  0
 16 17  1  0
 18 17  2  0
 18 25  1  0
 19 18  1  0
 20 15  1  0
 20 19  2  0
 21 22  2  0
 23 22  1  0
 24 23  2  0
 25 26  2  0
 25 24  1  0
 26 21  1  0
  4 27  1  0
  5 28  1  0
  5 29  1  0
  6 30  1  0
  6 31  1  0
  7 32  1  0
  7 33  1  0
  9 34  1  0
 10 35  1  0
 10 36  1  0
 11 37  1  0
 11 38  1  0
 12 39  1  0
 12 40  1  0
 13 41  1  0
 13 42  1  0
 14 43  1  0
 14 44  1  0
 16 45  1  0
 17 46  1  0
 19 47  1  0
 20 48  1  0
 21 49  1  0
 22 50  1  0
 23 51  1  0
M  ISO  8  27   5  28  13  29  13  30  13  31  13  32  13  33  13  34  13
M  ISO  8  35  13  36  13  37  13  38  13  39  13  40  13  41  13  42  13
M  ISO  8  43  13  44  13  45  14  46  14  47  14  48  14  49  14  50  14
M  ISO  1  51  14
M  END
>  <minimizedAffinity>  (1) 
-4.57933664

>  <minimizedRMSD>  (1) 
1.56685257

$$$$
