
     RDKit          3D

 41 43  0  0  1  0  0  0  0  0999 V2000
   36.5670   21.1840   32.8680 C   0  0  0  0  0  0  0  0  0  0  0  0
   36.0480   20.7310   34.0980 C   0  0  0  0  0  0  0  0  0  0  0  0
   36.5980   21.2520   35.2360 C   0  0  0  0  0  0  0  0  0  0  0  0
   37.6290   22.1920   35.2270 C   0  0  0  0  0  0  0  0  0  0  0  0
   38.0810   22.5840   33.9970 C   0  0  0  0  0  0  0  0  0  0  0  0
   37.5660   22.0950   32.8090 C   0  0  0  0  0  0  0  0  0  0  0  0
   39.9240   22.8730   37.9950 C   0  0  0  0  0  0  0  0  0  0  0  0
   39.1470   23.6510   38.8610 C   0  0  0  0  0  0  0  0  0  0  0  0
   37.8350   23.9320   38.4770 C   0  0  0  0  0  0  0  0  0  0  0  0
   37.3680   23.4460   37.2920 N   0  0  0  0  0  0  0  0  0  0  0  0
   38.1590   22.6970   36.4890 C   0  0  0  0  0  0  0  0  0  0  0  0
   39.4330   22.4030   36.8250 N   0  0  0  0  0  0  0  0  0  0  0  0
   35.8830   20.4730   31.4630 S   0  0  0  0  0  0  0  0  0  0  0  0
   34.7950   19.4890   31.7150 O   0  0  0  0  0  0  0  0  0  0  0  0
   35.3060   21.6420   30.6500 O   0  0  0  0  0  0  0  0  0  0  0  0
   38.0340   19.0280   31.5250 N   0  0  0  0  0  0  0  0  0  0  0  0
   37.4040   17.8750   32.0470 C   0  0  0  0  0  0  0  0  0  0  0  0
   36.4420   17.4250   30.9660 C   0  0  0  0  0  0  0  0  0  0  0  0
   36.5940   18.4590   29.8540 C   0  0  0  0  0  0  0  0  0  0  0  0
   37.1210   19.6660   30.5290 C   0  0  1  0  0  0  0  0  0  0  0  0
   38.1100   20.5250   29.7930 C   0  0  0  0  0  0  0  0  0  0  0  0
   38.7930   19.7030   28.6760 C   0  0  0  0  0  0  0  0  0  0  0  0
   35.2357   19.9904   34.1402 H   0  0  0  0  0  0  0  0  0  0  0  0
   36.2082   20.9132   36.2072 H   0  0  0  0  0  0  0  0  0  0  0  0
   38.8935   23.3240   33.9497 H   0  0  0  0  0  0  0  0  0  0  0  0
   37.9591   22.4384   31.8407 H   0  0  0  0  0  0  0  0  0  0  0  0
   40.9618   22.6373   38.2730 H   0  0  0  0  0  0  0  0  0  0  0  0
   39.5558   24.0275   39.8103 H   0  0  0  0  0  0  0  0  0  0  0  0
   37.1846   24.5392   39.1237 H   0  0  0  0  0  0  0  0  0  0  0  0
   38.2308   19.6907   32.2885 H   0  0  0  0  0  0  0  0  0  0  0  0
   38.1463   17.0901   32.2541 H   0  0  0  0  0  0  0  0  0  0  0  0
   36.8885   18.0820   32.9964 H   0  0  0  0  0  0  0  0  0  0  0  0
   36.7098   16.4221   30.6019 H   0  0  0  0  0  0  0  0  0  0  0  0
   35.4070   17.3585   31.3326 H   0  0  0  0  0  0  0  0  0  0  0  0
   35.6213   18.6704   29.3860 H   0  0  0  0  0  0  0  0  0  0  0  0
   37.2586   18.1094   29.0502 H   0  0  0  0  0  0  0  0  0  0  0  0
   37.5863   21.3829   29.3461 H   0  0  0  0  0  0  0  0  0  0  0  0
   38.8746   20.8822   30.4985 H   0  0  0  0  0  0  0  0  0  0  0  0
   39.4339   18.9317   29.1280 H   0  0  0  0  0  0  0  0  0  0  0  0
   38.0248   19.2222   28.0526 H   0  0  0  0  0  0  0  0  0  0  0  0
   39.4064   20.3702   28.0526 H   0  0  0  0  0  0  0  0  0  0  0  0
  1  2  2  0
  2  3  1  0
  4  3  2  0
  4 11  1  0
  5  4  1  0
  6  1  1  0
  6  5  2  0
  7  8  2  0
  9  8  1  0
 10  9  2  0
 11 12  2  0
 11 10  1  0
 12  7  1  0
 13 14  2  0
 13  1  1  0
 15 13  2  0
 16 17  1  0
 18 17  1  0
 19 20  1  0
 19 18  1  0
 20 21  1  6
 20 13  1  0
 20 16  1  0
 22 21  1  0
  2 23  1  0
  3 24  1  0
  5 25  1  0
  6 26  1  0
  7 27  1  0
  8 28  1  0
  9 29  1  0
 16 30  1  0
 17 31  1  0
 17 32  1  0
 18 33  1  0
 18 34  1  0
 19 35  1  0
 19 36  1  0
 21 37  1  0
 21 38  1  0
 22 39  1  0
 22 40  1  0
 22 41  1  0
M  ISO  8  23  14  24  14  25  14  26  14  27  14  28  14  29  14  30   5
M  ISO  8  31  13  32  13  33  13  34  13  35  13  36  13  37   8  38   8
M  ISO  3  39   8  40   8  41   8
M  END
>  <minimizedAffinity>  (1) 
-4.57675028

>  <minimizedRMSD>  (1) 
0.671090305

$$$$
