
     RDKit          3D

 36 38  0  0  1  0  0  0  0  0999 V2000
   36.5980   21.1280   32.8670 C   0  0  0  0  0  0  0  0  0  0  0  0
   36.0360   20.7160   34.0980 C   0  0  0  0  0  0  0  0  0  0  0  0
   36.5840   21.2490   35.2330 C   0  0  0  0  0  0  0  0  0  0  0  0
   37.6330   22.1480   35.2310 C   0  0  0  0  0  0  0  0  0  0  0  0
   38.1310   22.5060   33.9940 C   0  0  0  0  0  0  0  0  0  0  0  0
   37.6350   22.0120   32.7910 C   0  0  0  0  0  0  0  0  0  0  0  0
   39.9100   22.8830   37.9960 C   0  0  0  0  0  0  0  0  0  0  0  0
   39.1280   23.6600   38.8520 C   0  0  0  0  0  0  0  0  0  0  0  0
   37.8250   23.9180   38.4630 C   0  0  0  0  0  0  0  0  0  0  0  0
   37.3600   23.4190   37.2840 N   0  0  0  0  0  0  0  0  0  0  0  0
   38.1550   22.6710   36.4890 C   0  0  0  0  0  0  0  0  0  0  0  0
   39.4210   22.3990   36.8320 N   0  0  0  0  0  0  0  0  0  0  0  0
   35.8780   20.3920   31.4870 S   0  0  0  0  0  0  0  0  0  0  0  0
   34.7810   19.4500   31.7360 O   0  0  0  0  0  0  0  0  0  0  0  0
   35.3930   21.5640   30.6140 O   0  0  0  0  0  0  0  0  0  0  0  0
   37.9920   18.8580   31.6190 N   0  0  0  0  0  0  0  0  0  0  0  0
   37.2890   17.7420   32.1310 C   0  0  0  0  0  0  0  0  0  0  0  0
   36.3490   17.3260   31.0200 C   0  0  0  0  0  0  0  0  0  0  0  0
   36.5970   18.3400   29.8980 C   0  0  0  0  0  0  0  0  0  0  0  0
   37.1460   19.5220   30.5930 C   0  0  1  0  0  0  0  0  0  0  0  0
   38.3110   20.5950   29.7580 S   0  0  0  0  0  0  0  0  0  0  0  0
   35.1999   20.0025   34.1408 H   0  0  0  0  0  0  0  0  0  0  0  0
   36.1650   20.9439   36.2032 H   0  0  0  0  0  0  0  0  0  0  0  0
   38.9659   23.2212   33.9572 H   0  0  0  0  0  0  0  0  0  0  0  0
   38.0591   22.3198   31.8239 H   0  0  0  0  0  0  0  0  0  0  0  0
   40.9501   22.6588   38.2753 H   0  0  0  0  0  0  0  0  0  0  0  0
   39.5310   24.0515   39.7977 H   0  0  0  0  0  0  0  0  0  0  0  0
   37.1674   24.5238   39.1037 H   0  0  0  0  0  0  0  0  0  0  0  0
   38.1956   19.5195   32.3818 H   0  0  0  0  0  0  0  0  0  0  0  0
   37.9848   16.9255   32.3744 H   0  0  0  0  0  0  0  0  0  0  0  0
   36.7498   17.9842   33.0587 H   0  0  0  0  0  0  0  0  0  0  0  0
   36.5797   16.3061   30.6787 H   0  0  0  0  0  0  0  0  0  0  0  0
   35.2986   17.3162   31.3464 H   0  0  0  0  0  0  0  0  0  0  0  0
   35.6573   18.5910   29.3842 H   0  0  0  0  0  0  0  0  0  0  0  0
   37.2757   17.9537   29.1233 H   0  0  0  0  0  0  0  0  0  0  0  0
   39.0512   21.2768   30.6876 H   0  0  0  0  0  0  0  0  0  0  0  0
  1  2  2  0
  2  3  1  0
  4  3  2  0
  4 11  1  0
  5  4  1  0
  6  1  1  0
  6  5  2  0
  7  8  2  0
  9  8  1  0
 10  9  2  0
 11 12  2  0
 11 10  1  0
 12  7  1  0
 13 14  2  0
 13  1  1  0
 15 13  2  0
 16 17  1  0
 18 17  1  0
 19 20  1  0
 19 18  1  0
 20 21  1  6
 20 13  1  0
 20 16  1  0
  2 22  1  0
  3 23  1  0
  5 24  1  0
  6 25  1  0
  7 26  1  0
  8 27  1  0
  9 28  1  0
 16 29  1  0
 17 30  1  0
 17 31  1  0
 18 32  1  0
 18 33  1  0
 19 34  1  0
 19 35  1  0
 21 36  1  0
M  ISO  8  22  14  23  14  24  14  25  14  26  14  27  14  28  14  29   5
M  ISO  7  30  13  31  13  32  13  33  13  34  13  35  13  36  11
M  END
>  <minimizedAffinity>  (1) 
-4.56305552

>  <minimizedRMSD>  (1) 
0.418352723

$$$$
