
     RDKit          3D

 49 52  0  0  1  0  0  0  0  0999 V2000
   35.9660   20.7410   31.4920 S   0  0  0  0  0  0  0  0  0  0  0  0
   34.8590   19.8060   31.6940 O   0  0  0  0  0  0  0  0  0  0  0  0
   35.5120   21.9400   30.6320 O   0  0  0  0  0  0  0  0  0  0  0  0
   38.0590   19.1820   31.6330 N   0  0  0  0  0  0  0  0  0  0  0  0
   37.3320   18.0620   32.0910 C   0  0  0  0  0  0  0  0  0  0  0  0
   36.4110   17.6880   30.9610 C   0  0  0  0  0  0  0  0  0  0  0  0
   36.6850   18.7380   29.8730 C   0  0  0  0  0  0  0  0  0  0  0  0
   37.2490   19.8870   30.5950 C   0  0  1  0  0  0  0  0  0  0  0  0
   38.1240   20.7810   29.9650 N   0  0  0  0  0  0  0  0  0  0  0  0
   39.4830   20.4120   29.8190 C   0  0  0  0  0  0  0  0  0  0  0  0
   40.4240   21.3350   30.5760 C   0  0  0  0  0  0  0  0  0  0  0  0
   40.4130   22.6060   29.8340 N   0  0  0  0  0  0  0  0  0  0  0  0
   39.0750   22.9940   29.5000 C   0  0  0  0  0  0  0  0  0  0  0  0
   38.0110   22.1700   30.2010 C   0  0  0  0  0  0  0  0  0  0  0  0
   36.6580   21.4430   32.9020 C   0  0  0  0  0  0  0  0  0  0  0  0
   36.1860   20.8830   34.1120 C   0  0  0  0  0  0  0  0  0  0  0  0
   36.7140   21.3800   35.2770 C   0  0  0  0  0  0  0  0  0  0  0  0
   37.6750   22.3940   35.3040 C   0  0  0  0  0  0  0  0  0  0  0  0
   38.0770   22.8810   34.0960 C   0  0  0  0  0  0  0  0  0  0  0  0
   37.5910   22.4310   32.8740 C   0  0  0  0  0  0  0  0  0  0  0  0
   39.9060   22.9420   38.1500 C   0  0  0  0  0  0  0  0  0  0  0  0
   39.1450   23.7530   38.9960 C   0  0  0  0  0  0  0  0  0  0  0  0
   37.8760   24.0980   38.5710 C   0  0  0  0  0  0  0  0  0  0  0  0
   37.4200   23.6470   37.3710 N   0  0  0  0  0  0  0  0  0  0  0  0
   38.1850   22.8680   36.5860 C   0  0  0  0  0  0  0  0  0  0  0  0
   39.4290   22.5070   36.9610 N   0  0  0  0  0  0  0  0  0  0  0  0
   38.2448   19.8200   32.4200 H   0  0  0  0  0  0  0  0  0  0  0  0
   38.0136   17.2301   32.3223 H   0  0  0  0  0  0  0  0  0  0  0  0
   36.7752   18.2871   33.0126 H   0  0  0  0  0  0  0  0  0  0  0  0
   36.6400   16.6775   30.5917 H   0  0  0  0  0  0  0  0  0  0  0  0
   35.3556   17.6741   31.2706 H   0  0  0  0  0  0  0  0  0  0  0  0
   35.7521   19.0205   29.3632 H   0  0  0  0  0  0  0  0  0  0  0  0
   37.3650   18.3620   29.0944 H   0  0  0  0  0  0  0  0  0  0  0  0
   39.6128   19.3879   30.1990 H   0  0  0  0  0  0  0  0  0  0  0  0
   39.7346   20.4832   28.7505 H   0  0  0  0  0  0  0  0  0  0  0  0
   40.0665   21.4879   31.6050 H   0  0  0  0  0  0  0  0  0  0  0  0
   41.4377   20.9138   30.6471 H   0  0  0  0  0  0  0  0  0  0  0  0
   40.8410   23.3398   30.4165 H   0  0  0  0  0  0  0  0  0  0  0  0
   38.9386   24.0490   29.7801 H   0  0  0  0  0  0  0  0  0  0  0  0
   38.9513   22.8288   28.4195 H   0  0  0  0  0  0  0  0  0  0  0  0
   37.0241   22.5036   29.8478 H   0  0  0  0  0  0  0  0  0  0  0  0
   38.1430   22.3252   31.2820 H   0  0  0  0  0  0  0  0  0  0  0  0
   35.4293   20.0846   34.1189 H   0  0  0  0  0  0  0  0  0  0  0  0
   36.3651   20.9614   36.2325 H   0  0  0  0  0  0  0  0  0  0  0  0
   38.8331   23.6799   34.0877 H   0  0  0  0  0  0  0  0  0  0  0  0
   37.9466   22.8566   31.9240 H   0  0  0  0  0  0  0  0  0  0  0  0
   40.9203   22.6493   38.4591 H   0  0  0  0  0  0  0  0  0  0  0  0
   39.5400   24.1027   39.9612 H   0  0  0  0  0  0  0  0  0  0  0  0
   37.2370   24.7348   39.2005 H   0  0  0  0  0  0  0  0  0  0  0  0
  1  2  2  0
  1 15  1  0
  3  1  2  0
  4  5  1  0
  6  5  1  0
  7  8  1  0
  7  6  1  0
  8  1  1  0
  8  4  1  0
  9 14  1  0
  8  9  1  6
 10  9  1  0
 10 11  1  0
 12 11  1  0
 13 12  1  0
 13 14  1  0
 15 16  2  0
 16 17  1  0
 17 18  2  0
 18 25  1  0
 19 18  1  0
 20 15  1  0
 20 19  2  0
 21 22  2  0
 23 22  1  0
 24 23  2  0
 25 26  2  0
 25 24  1  0
 26 21  1  0
  4 27  1  0
  5 28  1  0
  5 29  1  0
  6 30  1  0
  6 31  1  0
  7 32  1  0
  7 33  1  0
 10 34  1  0
 10 35  1  0
 11 36  1  0
 11 37  1  0
 12 38  1  0
 13 39  1  0
 13 40  1  0
 14 41  1  0
 14 42  1  0
 16 43  1  0
 17 44  1  0
 19 45  1  0
 20 46  1  0
 21 47  1  0
 22 48  1  0
 23 49  1  0
M  ISO  8  27   5  28  13  29  13  30  13  31  13  32  13  33  13  34  13
M  ISO  8  35  13  36  13  37  13  38   5  39  13  40  13  41  13  42  13
M  ISO  7  43  14  44  14  45  14  46  14  47  14  48  14  49  14
M  END
>  <minimizedAffinity>  (1) 
-4.53061485

>  <minimizedRMSD>  (1) 
0.487261236

$$$$
