
     RDKit          3D

 38 40  0  0  1  0  0  0  0  0999 V2000
   36.5050   21.1040   32.8460 C   0  0  0  0  0  0  0  0  0  0  0  0
   35.9580   20.7000   34.0840 C   0  0  0  0  0  0  0  0  0  0  0  0
   36.5270   21.2230   35.2140 C   0  0  0  0  0  0  0  0  0  0  0  0
   37.5980   22.1180   35.1860 C   0  0  0  0  0  0  0  0  0  0  0  0
   38.0700   22.4610   33.9560 C   0  0  0  0  0  0  0  0  0  0  0  0
   37.5530   21.9760   32.7540 C   0  0  0  0  0  0  0  0  0  0  0  0
   39.9410   22.8280   37.9040 C   0  0  0  0  0  0  0  0  0  0  0  0
   39.1710   23.5800   38.7950 C   0  0  0  0  0  0  0  0  0  0  0  0
   37.8540   23.8320   38.4450 C   0  0  0  0  0  0  0  0  0  0  0  0
   37.3690   23.3480   37.2690 N   0  0  0  0  0  0  0  0  0  0  0  0
   38.1440   22.6270   36.4390 C   0  0  0  0  0  0  0  0  0  0  0  0
   39.4300   22.3610   36.7450 N   0  0  0  0  0  0  0  0  0  0  0  0
   35.7600   20.3860   31.4710 S   0  0  0  0  0  0  0  0  0  0  0  0
   34.6040   19.5130   31.7290 O   0  0  0  0  0  0  0  0  0  0  0  0
   35.3560   21.5630   30.5680 O   0  0  0  0  0  0  0  0  0  0  0  0
   37.9400   18.9500   31.6470 N   0  0  0  0  0  0  0  0  0  0  0  0
   37.3330   17.9080   32.3870 C   0  0  0  0  0  0  0  0  0  0  0  0
   36.3160   17.2960   31.4500 C   0  0  0  0  0  0  0  0  0  0  0  0
   36.4200   18.1240   30.1670 C   0  0  0  0  0  0  0  0  0  0  0  0
   36.9770   19.4180   30.6120 C   0  0  1  0  0  0  0  0  0  0  0  0
   37.8610   20.1930   29.7390 C   0  0  0  0  0  0  0  0  0  0  0  0
   38.5440   21.2490   29.9710 O   0  0  0  0  0  0  0  0  0  0  0  0
   37.9780   19.7000   28.4510 O   0  0  0  0  0  0  0  0  0  0  0  0
   35.1134   19.9973   34.1377 H   0  0  0  0  0  0  0  0  0  0  0  0
   36.1206   20.9235   36.1913 H   0  0  0  0  0  0  0  0  0  0  0  0
   38.9131   23.1658   33.9065 H   0  0  0  0  0  0  0  0  0  0  0  0
   37.9680   22.2802   31.7818 H   0  0  0  0  0  0  0  0  0  0  0  0
   40.9902   22.6110   38.1532 H   0  0  0  0  0  0  0  0  0  0  0  0
   39.5938   23.9574   39.7378 H   0  0  0  0  0  0  0  0  0  0  0  0
   37.2056   24.4186   39.1124 H   0  0  0  0  0  0  0  0  0  0  0  0
   38.1793   19.7293   32.2765 H   0  0  0  0  0  0  0  0  0  0  0  0
   38.0821   17.1597   32.6851 H   0  0  0  0  0  0  0  0  0  0  0  0
   36.8683   18.2782   33.3128 H   0  0  0  0  0  0  0  0  0  0  0  0
   36.5572   16.2413   31.2514 H   0  0  0  0  0  0  0  0  0  0  0  0
   35.3004   17.3099   31.8724 H   0  0  0  0  0  0  0  0  0  0  0  0
   35.4285   18.2626   29.7112 H   0  0  0  0  0  0  0  0  0  0  0  0
   37.0443   17.6382   29.4027 H   0  0  0  0  0  0  0  0  0  0  0  0
   38.5561   20.1632   27.7943 H   0  0  0  0  0  0  0  0  0  0  0  0
  1  2  2  0
  2  3  1  0
  4  3  2  0
  4 11  1  0
  5  4  1  0
  6  1  1  0
  6  5  2  0
  7  8  2  0
  9  8  1  0
 10  9  2  0
 11 12  2  0
 11 10  1  0
 12  7  1  0
 13 14  2  0
 13  1  1  0
 15 13  2  0
 16 17  1  0
 18 17  1  0
 19 20  1  0
 19 18  1  0
 20 21  1  6
 20 13  1  0
 20 16  1  0
 21 22  2  0
 23 21  1  0
  2 24  1  0
  3 25  1  0
  5 26  1  0
  6 27  1  0
  7 28  1  0
  8 29  1  0
  9 30  1  0
 16 31  1  0
 17 32  1  0
 17 33  1  0
 18 34  1  0
 18 35  1  0
 19 36  1  0
 19 37  1  0
 23 38  1  0
M  ISO  8  24  14  25  14  26  14  27  14  28  14  29  14  30  14  31   5
M  ISO  7  32  13  33  13  34  13  35  13  36  13  37  13  38   3
M  END
>  <minimizedAffinity>  (1) 
-4.39894819

>  <minimizedRMSD>  (1) 
0.645987868

$$$$
