
     RDKit          3D

 30 31  0  0  1  0  0  0  0  0999 V2000
   41.9200   22.3380   37.2640 C   0  0  2  0  0  0  0  0  0  0  0  0
   42.6160   23.4990   36.5640 C   0  0  0  0  0  0  0  0  0  0  0  0
   43.3100   22.8410   35.4230 C   0  0  0  0  0  0  0  0  0  0  0  0
   43.7340   21.5310   36.0280 C   0  0  0  0  0  0  0  0  0  0  0  0
   42.4540   21.0910   36.6850 C   0  0  1  0  0  0  0  0  0  0  0  0
   40.4590   22.4880   37.0480 C   0  0  0  0  0  0  0  0  0  0  0  0
   39.6110   23.0830   38.0090 C   0  0  0  0  0  0  0  0  0  0  0  0
   38.2490   23.1800   37.7170 C   0  0  0  0  0  0  0  0  0  0  0  0
   37.8170   22.7000   36.5280 N   0  0  0  0  0  0  0  0  0  0  0  0
   38.6460   22.1300   35.6140 C   0  0  0  0  0  0  0  0  0  0  0  0
   39.9530   22.0320   35.8860 N   0  0  0  0  0  0  0  0  0  0  0  0
   42.6710   20.0110   37.6220 N   0  0  0  0  0  0  0  0  0  0  0  0
   42.8650   18.6970   37.1230 C   0  0  0  0  0  0  0  0  0  0  0  0
   43.4220   18.5480   35.9770 N   0  0  0  0  0  0  0  0  0  0  0  0
   42.4570   17.5530   37.8590 N   0  0  0  0  0  0  0  0  0  0  0  0
   43.5820   17.6220   35.5780 H   0  0  0  0  0  0  0  0  0  0  0  0
   42.0999   22.3190   38.3490 H   0  0  0  0  0  0  0  0  0  0  0  0
   41.8853   24.2397   36.2071 H   0  0  0  0  0  0  0  0  0  0  0  0
   43.3000   24.0531   37.2236 H   0  0  0  0  0  0  0  0  0  0  0  0
   44.1792   23.4281   35.0917 H   0  0  0  0  0  0  0  0  0  0  0  0
   42.6831   22.7327   34.5256 H   0  0  0  0  0  0  0  0  0  0  0  0
   44.0590   20.8165   35.2574 H   0  0  0  0  0  0  0  0  0  0  0  0
   44.5929   21.6038   36.7114 H   0  0  0  0  0  0  0  0  0  0  0  0
   41.7237   20.6438   35.9946 H   0  0  0  0  0  0  0  0  0  0  0  0
   40.0129   23.4595   38.9612 H   0  0  0  0  0  0  0  0  0  0  0  0
   37.5476   23.6335   38.4328 H   0  0  0  0  0  0  0  0  0  0  0  0
   38.2470   21.7532   34.6607 H   0  0  0  0  0  0  0  0  0  0  0  0
   42.6845   20.1928   38.6357 H   0  0  0  0  0  0  0  0  0  0  0  0
   42.6101   16.6105   37.4727 H   0  0  0  0  0  0  0  0  0  0  0  0
   42.0080   17.6658   38.7791 H   0  0  0  0  0  0  0  0  0  0  0  0
  2  1  1  0
  3  4  1  0
  3  2  1  0
  4  5  1  0
  5  1  1  0
  5 12  1  0
  6  1  1  0
  6  7  2  0
  8  7  1  0
  9  8  2  0
 10 11  2  0
 10  9  1  0
 11  6  1  0
 13 12  1  0
 13 15  1  0
 14 13  2  0
 16 14  1  0
  1 17  1  1
  2 18  1  0
  2 19  1  0
  3 20  1  0
  3 21  1  0
  4 22  1  0
  4 23  1  0
  5 24  1  6
  7 25  1  0
  8 26  1  0
 10 27  1  0
 12 28  1  0
 15 29  1  0
 15 30  1  0
M  ISO  8  17  13  18  13  19  13  20  13  21  13  22  13  23  13  24  13
M  ISO  3  25  14  26  14  27  14
M  END
>  <minimizedAffinity>  (1) 
-4.24739504

>  <minimizedRMSD>  (1) 
1.10052729

$$$$
