
     RDKit          3D

 32 33  0  0  1  0  0  0  0  0999 V2000
   40.1240   25.1140   34.6420 C   0  0  2  0  0  0  0  0  0  0  0  0
   40.2120   24.8980   33.1570 C   0  0  0  0  0  0  0  0  0  0  0  0
   40.3480   26.2820   32.6130 C   0  0  0  0  0  0  0  0  0  0  0  0
   39.4720   27.0870   33.5350 C   0  0  0  0  0  0  0  0  0  0  0  0
   39.8910   26.5610   34.8810 C   0  0  1  0  0  0  0  0  0  0  0  0
   41.3870   24.6320   35.2740 C   0  0  0  0  0  0  0  0  0  0  0  0
   41.4420   23.3800   35.9360 C   0  0  0  0  0  0  0  0  0  0  0  0
   42.6810   23.0180   36.4990 C   0  0  0  0  0  0  0  0  0  0  0  0
   43.7280   23.8660   36.3810 N   0  0  0  0  0  0  0  0  0  0  0  0
   43.6260   25.0590   35.7360 C   0  0  0  0  0  0  0  0  0  0  0  0
   42.4630   25.4260   35.1930 N   0  0  0  0  0  0  0  0  0  0  0  0
   38.7940   26.8020   35.8760 C   0  0  0  0  0  0  0  0  0  0  0  0
   37.7710   27.7940   35.4130 C   0  0  0  0  0  0  0  0  0  0  0  0
   38.1880   25.4930   36.3110 C   0  0  0  0  0  0  0  0  0  0  0  0
   39.2929   24.5498   35.0903 H   0  0  0  0  0  0  0  0  0  0  0  0
   41.0891   24.2860   32.8996 H   0  0  0  0  0  0  0  0  0  0  0  0
   39.3435   24.3599   32.7493 H   0  0  0  0  0  0  0  0  0  0  0  0
   41.3922   26.6251   32.6579 H   0  0  0  0  0  0  0  0  0  0  0  0
   40.0607   26.3653   31.5544 H   0  0  0  0  0  0  0  0  0  0  0  0
   39.6750   28.1642   33.4435 H   0  0  0  0  0  0  0  0  0  0  0  0
   38.3957   26.9893   33.3302 H   0  0  0  0  0  0  0  0  0  0  0  0
   40.7867   27.0487   35.2932 H   0  0  0  0  0  0  0  0  0  0  0  0
   40.5616   22.7243   36.0064 H   0  0  0  0  0  0  0  0  0  0  0  0
   42.7956   22.0598   37.0269 H   0  0  0  0  0  0  0  0  0  0  0  0
   44.5013   25.7211   35.6618 H   0  0  0  0  0  0  0  0  0  0  0  0
   39.2505   27.2759   36.7575 H   0  0  0  0  0  0  0  0  0  0  0  0
   37.2906   28.2599   36.2860 H   0  0  0  0  0  0  0  0  0  0  0  0
   38.2609   28.5700   34.8065 H   0  0  0  0  0  0  0  0  0  0  0  0
   37.0104   27.2804   34.8065 H   0  0  0  0  0  0  0  0  0  0  0  0
   38.1663   25.4462   37.4098 H   0  0  0  0  0  0  0  0  0  0  0  0
   37.1626   25.4159   35.9204 H   0  0  0  0  0  0  0  0  0  0  0  0
   38.7927   24.6612   35.9204 H   0  0  0  0  0  0  0  0  0  0  0  0
  1  5  1  0
  1  6  1  0
  2  1  1  0
  3  2  1  0
  3  4  1  0
  4  5  1  0
  5 12  1  0
  6  7  2  0
  7  8  1  0
  9  8  2  0
 10  9  1  0
 11  6  1  0
 11 10  2  0
 12 14  1  0
 13 12  1  0
  1 15  1  1
  2 16  1  0
  2 17  1  0
  3 18  1  0
  3 19  1  0
  4 20  1  0
  4 21  1  0
  5 22  1  1
  7 23  1  0
  8 24  1  0
 10 25  1  0
 12 26  1  0
 13 27  1  0
 13 28  1  0
 13 29  1  0
 14 30  1  0
 14 31  1  0
 14 32  1  0
M  ISO  8  15  13  16  13  17  13  18  13  19  13  20  13  21  13  22  13
M  ISO  8  23  14  24  14  25  14  26   8  27   8  28   8  29   8  30   8
M  ISO  2  31   8  32   8
M  END
>  <minimizedAffinity>  (1) 
-3.75365853

>  <minimizedRMSD>  (1) 
6.13128424

$$$$
