
     RDKit          3D

 24 25  0  0  1  0  0  0  0  0999 V2000
   41.5310   22.7120   36.7510 C   0  0  2  0  0  0  0  0  0  0  0  0
   41.9630   23.8780   35.8750 C   0  0  0  0  0  0  0  0  0  0  0  0
   42.4030   23.2110   34.6180 C   0  0  0  0  0  0  0  0  0  0  0  0
   43.0350   21.9370   35.1230 C   0  0  0  0  0  0  0  0  0  0  0  0
   41.9800   21.4560   36.1180 C   0  0  1  0  0  0  0  0  0  0  0  0
   40.0510   22.7650   36.8810 C   0  0  0  0  0  0  0  0  0  0  0  0
   39.4010   23.2620   38.0370 C   0  0  0  0  0  0  0  0  0  0  0  0
   38.0100   23.2710   38.0710 C   0  0  0  0  0  0  0  0  0  0  0  0
   37.3310   22.8030   36.9910 N   0  0  0  0  0  0  0  0  0  0  0  0
   37.9710   22.3330   35.8960 C   0  0  0  0  0  0  0  0  0  0  0  0
   39.3110   22.3140   35.8410 N   0  0  0  0  0  0  0  0  0  0  0  0
   42.6160   20.2090   37.2490 S   0  0  0  0  0  0  0  0  0  0  0  0
   41.9770   22.7651   37.7551 H   0  0  0  0  0  0  0  0  0  0  0  0
   41.1228   24.5623   35.6858 H   0  0  0  0  0  0  0  0  0  0  0  0
   42.7484   24.4962   36.3343 H   0  0  0  0  0  0  0  0  0  0  0  0
   43.1341   23.8288   34.0759 H   0  0  0  0  0  0  0  0  0  0  0  0
   41.5834   23.0391   33.9047 H   0  0  0  0  0  0  0  0  0  0  0  0
   43.1831   21.2108   34.3101 H   0  0  0  0  0  0  0  0  0  0  0  0
   44.0367   22.0714   35.5571 H   0  0  0  0  0  0  0  0  0  0  0  0
   41.1386   20.9185   35.6563 H   0  0  0  0  0  0  0  0  0  0  0  0
   39.9848   23.6339   38.8919 H   0  0  0  0  0  0  0  0  0  0  0  0
   37.4718   23.6487   38.9529 H   0  0  0  0  0  0  0  0  0  0  0  0
   37.3861   21.9623   35.0413 H   0  0  0  0  0  0  0  0  0  0  0  0
   42.4086   20.6157   38.5407 H   0  0  0  0  0  0  0  0  0  0  0  0
  1  6  1  0
  2  1  1  0
  3  4  1  0
  3  2  1  0
  4  5  1  0
  5  1  1  0
  5 12  1  0
  6  7  2  0
  7  8  1  0
  9  8  2  0
 10  9  1  0
 11 10  2  0
 11  6  1  0
  1 13  1  1
  2 14  1  0
  2 15  1  0
  3 16  1  0
  3 17  1  0
  4 18  1  0
  4 19  1  0
  5 20  1  6
  7 21  1  0
  8 22  1  0
 10 23  1  0
 12 24  1  0
M  ISO  8  13  13  14  13  15  13  16  13  17  13  18  13  19  13  20  13
M  ISO  4  21  14  22  14  23  14  24  11
M  END
>  <minimizedAffinity>  (1) 
-3.23526859

>  <minimizedRMSD>  (1) 
0.905548871

$$$$
