
     RDKit          3D

 31 33  0  0  1  0  0  0  0  0999 V2000
   42.5690   23.2810   36.4060 C   0  0  2  0  0  0  0  0  0  0  0  0
   43.3270   21.9770   36.3160 C   0  0  0  0  0  0  0  0  0  0  0  0
   42.8310   21.4050   35.0220 C   0  0  0  0  0  0  0  0  0  0  0  0
   41.3890   21.8490   34.9830 C   0  0  0  0  0  0  0  0  0  0  0  0
   41.5210   23.2930   35.3650 C   0  0  1  0  0  0  0  0  0  0  0  0
   43.5390   24.3930   36.2130 C   0  0  0  0  0  0  0  0  0  0  0  0
   44.4790   24.7750   37.1880 C   0  0  0  0  0  0  0  0  0  0  0  0
   45.3530   25.8190   36.9490 C   0  0  0  0  0  0  0  0  0  0  0  0
   45.2540   26.4370   35.7470 N   0  0  0  0  0  0  0  0  0  0  0  0
   44.3490   26.0720   34.7970 C   0  0  0  0  0  0  0  0  0  0  0  0
   43.5070   25.0650   35.0300 N   0  0  0  0  0  0  0  0  0  0  0  0
   40.3130   23.8580   35.7690 O   0  0  0  0  0  0  0  0  0  0  0  0
   38.7270   22.8240   38.7860 N   0  0  0  0  0  0  0  0  0  0  0  0
   39.7860   22.7510   37.9960 N   0  0  0  0  0  0  0  0  0  0  0  0
   39.6010   23.5250   36.9130 C   0  0  0  0  0  0  0  0  0  0  0  0
   38.3480   24.1220   37.0300 C   0  0  0  0  0  0  0  0  0  0  0  0
   37.8060   23.6630   38.2290 C   0  0  0  0  0  0  0  0  0  0  0  0
   42.0825   23.3990   37.3855 H   0  0  0  0  0  0  0  0  0  0  0  0
   44.4130   22.1493   36.2846 H   0  0  0  0  0  0  0  0  0  0  0  0
   43.1664   21.3148   37.1795 H   0  0  0  0  0  0  0  0  0  0  0  0
   43.3930   21.8125   34.1687 H   0  0  0  0  0  0  0  0  0  0  0  0
   42.9496   20.3133   34.9577 H   0  0  0  0  0  0  0  0  0  0  0  0
   40.9589   21.7354   33.9770 H   0  0  0  0  0  0  0  0  0  0  0  0
   40.7190   21.2682   35.6340 H   0  0  0  0  0  0  0  0  0  0  0  0
   41.8014   23.9390   34.5200 H   0  0  0  0  0  0  0  0  0  0  0  0
   44.5186   24.2388   38.1476 H   0  0  0  0  0  0  0  0  0  0  0  0
   46.0938   26.1333   37.6990 H   0  0  0  0  0  0  0  0  0  0  0  0
   44.3128   26.6082   33.8372 H   0  0  0  0  0  0  0  0  0  0  0  0
   38.6153   22.3259   39.6806 H   0  0  0  0  0  0  0  0  0  0  0  0
   37.8796   24.8173   36.3178 H   0  0  0  0  0  0  0  0  0  0  0  0
   36.8232   23.9267   38.6468 H   0  0  0  0  0  0  0  0  0  0  0  0
  2  1  1  0
  3  2  1  0
  4  3  1  0
  4  5  1  0
  5 12  1  0
  5  1  1  0
  6  1  1  0
  6  7  2  0
  8  7  1  0
  9  8  2  0
 10 11  2  0
 10  9  1  0
 11  6  1  0
 12 15  1  0
 14 13  1  0
 15 16  1  0
 15 14  2  0
 16 17  2  0
 17 13  1  0
  1 18  1  1
  2 19  1  0
  2 20  1  0
  3 21  1  0
  3 22  1  0
  4 23  1  0
  4 24  1  0
  5 25  1  6
  7 26  1  0
  8 27  1  0
 10 28  1  0
 13 29  1  0
 16 30  1  0
 17 31  1  0
M  ISO  8  18  13  19  13  20  13  21  13  22  13  23  13  24  13  25  13
M  ISO  6  26  14  27  14  28  14  29   9  30  14  31  14
M  END
>  <minimizedAffinity>  (1) 
-4.54683018

>  <minimizedRMSD>  (1) 
5.29455328

$$$$
