
     RDKit          3D

 34 36  0  0  1  0  0  0  0  0999 V2000
   42.3090   24.5590   35.3450 C   0  0  2  0  0  0  0  0  0  0  0  0
   41.5550   24.3900   34.0210 C   0  0  0  0  0  0  0  0  0  0  0  0
   42.6790   24.4380   33.0240 C   0  0  0  0  0  0  0  0  0  0  0  0
   43.6140   25.4370   33.6280 C   0  0  0  0  0  0  0  0  0  0  0  0
   43.7070   24.9320   35.0590 C   0  0  1  0  0  0  0  0  0  0  0  0
   42.2270   23.2600   36.0730 C   0  0  0  0  0  0  0  0  0  0  0  0
   41.1150   22.8900   36.8610 C   0  0  0  0  0  0  0  0  0  0  0  0
   41.1460   21.6550   37.5040 C   0  0  0  0  0  0  0  0  0  0  0  0
   42.2360   20.8650   37.3480 N   0  0  0  0  0  0  0  0  0  0  0  0
   43.2930   21.2380   36.5880 C   0  0  0  0  0  0  0  0  0  0  0  0
   43.2880   22.4110   35.9640 N   0  0  0  0  0  0  0  0  0  0  0  0
   44.2240   25.8790   35.9060 O   0  0  0  0  0  0  0  0  0  0  0  0
   45.0120   25.5840   37.0010 C   0  0  0  0  0  0  0  0  0  0  0  0
   46.1000   24.8090   36.5860 C   0  0  0  0  0  0  0  0  0  0  0  0
   47.0640   24.3620   37.4830 C   0  0  0  0  0  0  0  0  0  0  0  0
   46.9580   24.6870   38.8220 C   0  0  0  0  0  0  0  0  0  0  0  0
   45.8730   25.4560   39.2150 C   0  0  0  0  0  0  0  0  0  0  0  0
   44.9160   25.8990   38.3280 C   0  0  0  0  0  0  0  0  0  0  0  0
   41.8713   25.3540   35.9665 H   0  0  0  0  0  0  0  0  0  0  0  0
   41.0244   23.4273   33.9815 H   0  0  0  0  0  0  0  0  0  0  0  0
   40.7741   25.1460   33.8514 H   0  0  0  0  0  0  0  0  0  0  0  0
   42.3215   24.7743   32.0396 H   0  0  0  0  0  0  0  0  0  0  0  0
   43.1449   23.4578   32.8448 H   0  0  0  0  0  0  0  0  0  0  0  0
   44.5953   25.4217   33.1311 H   0  0  0  0  0  0  0  0  0  0  0  0
   43.2765   26.4802   33.5398 H   0  0  0  0  0  0  0  0  0  0  0  0
   44.3993   24.0891   35.2012 H   0  0  0  0  0  0  0  0  0  0  0  0
   40.2480   23.5590   36.9641 H   0  0  0  0  0  0  0  0  0  0  0  0
   40.3011   21.3268   38.1272 H   0  0  0  0  0  0  0  0  0  0  0  0
   44.1590   20.5673   36.4869 H   0  0  0  0  0  0  0  0  0  0  0  0
   46.1956   24.5462   35.5221 H   0  0  0  0  0  0  0  0  0  0  0  0
   47.9078   23.7520   37.1281 H   0  0  0  0  0  0  0  0  0  0  0  0
   47.7085   24.3474   39.5510 H   0  0  0  0  0  0  0  0  0  0  0  0
   45.7722   25.7231   40.2773 H   0  0  0  0  0  0  0  0  0  0  0  0
   44.0732   26.5072   38.6882 H   0  0  0  0  0  0  0  0  0  0  0  0
  1  6  1  0
  2  1  1  0
  3  4  1  0
  3  2  1  0
  4  5  1  0
  5  1  1  0
  5 12  1  0
  6  7  2  0
  7  8  1  0
  9  8  2  0
 10  9  1  0
 11  6  1  0
 11 10  2  0
 12 13  1  0
 13 18  1  0
 14 13  2  0
 14 15  1  0
 15 16  2  0
 16 17  1  0
 18 17  2  0
  1 19  1  1
  2 20  1  0
  2 21  1  0
  3 22  1  0
  3 23  1  0
  4 24  1  0
  4 25  1  0
  5 26  1  6
  7 27  1  0
  8 28  1  0
 10 29  1  0
 14 30  1  0
 15 31  1  0
 16 32  1  0
 17 33  1  0
 18 34  1  0
M  ISO  8  19  13  20  13  21  13  22  13  23  13  24  13  25  13  26  13
M  ISO  8  27  14  28  14  29  14  30  14  31  14  32  14  33  14  34  14
M  END
>  <minimizedAffinity>  (1) 
-4.4246316

>  <minimizedRMSD>  (1) 
6.27838039

$$$$
