
     RDKit          3D

 32 34  0  0  1  0  0  0  0  0999 V2000
   43.2720   23.6870   36.5210 C   0  0  2  0  0  0  0  0  0  0  0  0
   44.5990   23.0270   36.1370 C   0  0  0  0  0  0  0  0  0  0  0  0
   44.1590   21.7010   35.6250 C   0  0  0  0  0  0  0  0  0  0  0  0
   42.9920   21.3650   36.5150 C   0  0  0  0  0  0  0  0  0  0  0  0
   42.2200   22.6660   36.4800 C   0  0  1  0  0  0  0  0  0  0  0  0
   43.0310   24.7970   35.5800 C   0  0  0  0  0  0  0  0  0  0  0  0
   44.0620   25.6330   35.1090 C   0  0  0  0  0  0  0  0  0  0  0  0
   43.7180   26.6590   34.2160 C   0  0  0  0  0  0  0  0  0  0  0  0
   42.4190   26.8030   33.8480 N   0  0  0  0  0  0  0  0  0  0  0  0
   41.4470   25.9810   34.3200 C   0  0  0  0  0  0  0  0  0  0  0  0
   41.7490   25.0010   35.1670 N   0  0  0  0  0  0  0  0  0  0  0  0
   41.2950   22.7530   37.4970 O   0  0  0  0  0  0  0  0  0  0  0  0
   39.9190   22.8300   37.3850 C   0  0  0  0  0  0  0  0  0  0  0  0
   39.4090   22.3970   36.1580 C   0  0  0  0  0  0  0  0  0  0  0  0
   38.0260   22.4640   36.0220 C   0  0  0  0  0  0  0  0  0  0  0  0
   37.2130   22.9190   37.0100 N   0  0  0  0  0  0  0  0  0  0  0  0
   37.7500   23.3280   38.1790 C   0  0  0  0  0  0  0  0  0  0  0  0
   39.0840   23.2770   38.3500 N   0  0  0  0  0  0  0  0  0  0  0  0
   43.2875   24.1032   37.5391 H   0  0  0  0  0  0  0  0  0  0  0  0
   45.1188   23.6025   35.3568 H   0  0  0  0  0  0  0  0  0  0  0  0
   45.3148   22.9615   36.9696 H   0  0  0  0  0  0  0  0  0  0  0  0
   43.8472   21.7673   34.5722 H   0  0  0  0  0  0  0  0  0  0  0  0
   44.9545   20.9416   35.6478 H   0  0  0  0  0  0  0  0  0  0  0  0
   42.3996   20.5324   36.1077 H   0  0  0  0  0  0  0  0  0  0  0  0
   43.2726   21.0306   37.5247 H   0  0  0  0  0  0  0  0  0  0  0  0
   41.5900   22.7798   35.5855 H   0  0  0  0  0  0  0  0  0  0  0  0
   45.1035   25.4862   35.4310 H   0  0  0  0  0  0  0  0  0  0  0  0
   44.4889   27.3364   33.8200 H   0  0  0  0  0  0  0  0  0  0  0  0
   40.4045   26.1262   34.0003 H   0  0  0  0  0  0  0  0  0  0  0  0
   40.0592   22.0270   35.3516 H   0  0  0  0  0  0  0  0  0  0  0  0
   37.5725   22.1349   35.0754 H   0  0  0  0  0  0  0  0  0  0  0  0
   37.1019   23.7003   38.9861 H   0  0  0  0  0  0  0  0  0  0  0  0
  2  1  1  0
  3  2  1  0
  3  4  1  0
  5  4  1  0
  5  1  1  0
  5 12  1  0
  6  1  1  0
  7  6  2  0
  8  7  1  0
  9  8  2  0
  9 10  1  0
 10 11  2  0
 11  6  1  0
 13 12  1  0
 13 18  1  0
 14 13  2  0
 15 14  1  0
 15 16  2  0
 16 17  1  0
 17 18  2  0
  1 19  1  1
  2 20  1  0
  2 21  1  0
  3 22  1  0
  3 23  1  0
  4 24  1  0
  4 25  1  0
  5 26  1  6
  7 27  1  0
  8 28  1  0
 10 29  1  0
 14 30  1  0
 15 31  1  0
 17 32  1  0
M  ISO  8  19  13  20  13  21  13  22  13  23  13  24  13  25  13  26  13
M  ISO  6  27  14  28  14  29  14  30  14  31  14  32  14
M  END
>  <minimizedAffinity>  (1) 
-4.38359165

>  <minimizedRMSD>  (1) 
4.96936178

$$$$
