
     RDKit          3D

 33 35  0  0  1  0  0  0  0  0999 V2000
   42.1760   23.6060   35.8920 C   0  0  2  0  0  0  0  0  0  0  0  0
   41.0670   23.3700   34.8620 C   0  0  0  0  0  0  0  0  0  0  0  0
   41.6380   23.9910   33.6350 C   0  0  0  0  0  0  0  0  0  0  0  0
   42.4100   25.1600   34.1650 C   0  0  0  0  0  0  0  0  0  0  0  0
   43.1600   24.5240   35.3150 C   0  0  1  0  0  0  0  0  0  0  0  0
   42.7690   22.2830   36.2050 C   0  0  0  0  0  0  0  0  0  0  0  0
   42.1280   21.3590   37.0820 C   0  0  0  0  0  0  0  0  0  0  0  0
   42.7520   20.1370   37.3260 C   0  0  0  0  0  0  0  0  0  0  0  0
   43.9390   19.8870   36.7170 N   0  0  0  0  0  0  0  0  0  0  0  0
   44.5360   20.7830   35.8820 C   0  0  0  0  0  0  0  0  0  0  0  0
   43.9610   21.9610   35.6310 N   0  0  0  0  0  0  0  0  0  0  0  0
   43.6960   25.4510   36.1770 O   0  0  0  0  0  0  0  0  0  0  0  0
   44.7140   25.2910   37.0890 C   0  0  0  0  0  0  0  0  0  0  0  0
   44.8020   25.7210   38.3960 C   0  0  0  0  0  0  0  0  0  0  0  0
   45.9240   25.4560   39.1540 C   0  0  0  0  0  0  0  0  0  0  0  0
   46.9360   24.7480   38.5380 C   0  0  0  0  0  0  0  0  0  0  0  0
   46.8740   24.3070   37.2320 C   0  0  0  0  0  0  0  0  0  0  0  0
   45.7350   24.6050   36.5440 N   0  0  0  0  0  0  0  0  0  0  0  0
   41.7987   24.0606   36.8199 H   0  0  0  0  0  0  0  0  0  0  0  0
   40.8811   22.2958   34.7155 H   0  0  0  0  0  0  0  0  0  0  0  0
   40.0943   23.7903   35.1572 H   0  0  0  0  0  0  0  0  0  0  0  0
   40.8404   24.3222   32.9537 H   0  0  0  0  0  0  0  0  0  0  0  0
   42.2586   23.2957   33.0506 H   0  0  0  0  0  0  0  0  0  0  0  0
   43.0995   25.5634   33.4087 H   0  0  0  0  0  0  0  0  0  0  0  0
   41.7855   26.0181   34.4544 H   0  0  0  0  0  0  0  0  0  0  0  0
   44.0659   23.9792   35.0109 H   0  0  0  0  0  0  0  0  0  0  0  0
   41.1653   21.6046   37.5540 H   0  0  0  0  0  0  0  0  0  0  0  0
   42.2941   19.3938   37.9953 H   0  0  0  0  0  0  0  0  0  0  0  0
   45.4985   20.5338   35.4115 H   0  0  0  0  0  0  0  0  0  0  0  0
   43.9669   26.2826   38.8402 H   0  0  0  0  0  0  0  0  0  0  0  0
   46.0078   25.7925   40.1979 H   0  0  0  0  0  0  0  0  0  0  0  0
   47.8418   24.5229   39.1202 H   0  0  0  0  0  0  0  0  0  0  0  0
   47.6993   23.7450   36.7705 H   0  0  0  0  0  0  0  0  0  0  0  0
  1  6  1  0
  2  1  1  0
  3  4  1  0
  3  2  1  0
  4  5  1  0
  5  1  1  0
  5 12  1  0
  6  7  2  0
  7  8  1  0
  9  8  2  0
 10  9  1  0
 11 10  2  0
 11  6  1  0
 12 13  1  0
 13 14  2  0
 14 15  1  0
 16 15  2  0
 17 16  1  0
 18 13  1  0
 18 17  2  0
  1 19  1  1
  2 20  1  0
  2 21  1  0
  3 22  1  0
  3 23  1  0
  4 24  1  0
  4 25  1  0
  5 26  1  6
  7 27  1  0
  8 28  1  0
 10 29  1  0
 14 30  1  0
 15 31  1  0
 16 32  1  0
 17 33  1  0
M  ISO  8  19  13  20  13  21  13  22  13  23  13  24  13  25  13  26  13
M  ISO  7  27  14  28  14  29  14  30  14  31  14  32  14  33  14
M  END
>  <minimizedAffinity>  (1) 
-4.19531345

>  <minimizedRMSD>  (1) 
6.36989546

$$$$
