
     RDKit          3D

 31 33  0  0  1  0  0  0  0  0999 V2000
   38.4550   22.7290   36.2740 C   0  0  2  0  0  0  0  0  0  0  0  0
   37.2470   22.9030   37.2020 C   0  0  0  0  0  0  0  0  0  0  0  0
   37.8140   23.7260   38.3040 C   0  0  0  0  0  0  0  0  0  0  0  0
   39.2250   23.2160   38.4190 C   0  0  0  0  0  0  0  0  0  0  0  0
   39.6460   23.2160   36.9800 C   0  0  1  0  0  0  0  0  0  0  0  0
   38.1810   23.5140   35.0410 C   0  0  0  0  0  0  0  0  0  0  0  0
   37.8700   22.8990   33.8060 C   0  0  0  0  0  0  0  0  0  0  0  0
   37.6260   23.6910   32.6920 C   0  0  0  0  0  0  0  0  0  0  0  0
   37.7000   25.0390   32.8520 N   0  0  0  0  0  0  0  0  0  0  0  0
   37.9990   25.6150   34.0410 C   0  0  0  0  0  0  0  0  0  0  0  0
   38.2350   24.8700   35.1180 N   0  0  0  0  0  0  0  0  0  0  0  0
   40.7900   22.4670   36.7650 O   0  0  0  0  0  0  0  0  0  0  0  0
   41.9890   23.0210   36.3360 C   0  0  0  0  0  0  0  0  0  0  0  0
   41.9770   24.0980   35.4680 C   0  0  0  0  0  0  0  0  0  0  0  0
   43.3080   24.3990   35.2450 C   0  0  0  0  0  0  0  0  0  0  0  0
   44.0230   23.5230   35.9620 N   0  0  0  0  0  0  0  0  0  0  0  0
   43.2520   22.6780   36.6310 N   0  0  0  0  0  0  0  0  0  0  0  0
   38.6284   21.6788   35.9965 H   0  0  0  0  0  0  0  0  0  0  0  0
   36.4256   23.4289   36.6933 H   0  0  0  0  0  0  0  0  0  0  0  0
   36.8095   21.9523   37.5407 H   0  0  0  0  0  0  0  0  0  0  0  0
   37.8003   24.7952   38.0458 H   0  0  0  0  0  0  0  0  0  0  0  0
   37.2461   23.6427   39.2424 H   0  0  0  0  0  0  0  0  0  0  0  0
   39.8503   23.8898   39.0231 H   0  0  0  0  0  0  0  0  0  0  0  0
   39.3157   22.2402   38.9185 H   0  0  0  0  0  0  0  0  0  0  0  0
   39.9480   24.2078   36.6125 H   0  0  0  0  0  0  0  0  0  0  0  0
   37.8218   21.8028   33.7287 H   0  0  0  0  0  0  0  0  0  0  0  0
   37.3820   23.2446   31.7167 H   0  0  0  0  0  0  0  0  0  0  0  0
   38.0473   26.7113   34.1171 H   0  0  0  0  0  0  0  0  0  0  0  0
   41.0974   24.6060   35.0458 H   0  0  0  0  0  0  0  0  0  0  0  0
   43.7023   25.2012   34.6039 H   0  0  0  0  0  0  0  0  0  0  0  0
   45.0525   23.5077   35.9903 H   0  0  0  0  0  0  0  0  0  0  0  0
  1  5  1  0
  1  2  1  0
  2  3  1  0
  3  4  1  0
  5  4  1  0
  6 11  1  0
  6  1  1  0
  7  6  2  0
  8  9  2  0
  8  7  1  0
  9 10  1  0
 10 11  2  0
 12  5  1  0
 13 17  2  0
 13 12  1  0
 14 13  1  0
 15 14  2  0
 15 16  1  0
 16 17  1  0
  1 18  1  6
  2 19  1  0
  2 20  1  0
  3 21  1  0
  3 22  1  0
  4 23  1  0
  4 24  1  0
  5 25  1  6
  7 26  1  0
  8 27  1  0
 10 28  1  0
 14 29  1  0
 15 30  1  0
 16 31  1  0
M  ISO  8  18  13  19  13  20  13  21  13  22  13  23  13  24  13  25  13
M  ISO  6  26  14  27  14  28  14  29  14  30  14  31   9
M  END
>  <minimizedAffinity>  (1) 
-3.95462751

>  <minimizedRMSD>  (1) 
5.08827639

$$$$
