
     RDKit          3D

 38 41  0  0  1  0  0  0  0  0999 V2000
   41.4470   22.6350   36.8710 C   0  0  2  0  0  0  0  0  0  0  0  0
   40.0520   22.1970   37.3280 C   0  0  0  0  0  0  0  0  0  0  0  0
   39.1890   22.7330   36.2350 C   0  0  0  0  0  0  0  0  0  0  0  0
   39.8680   24.0270   35.8730 C   0  0  0  0  0  0  0  0  0  0  0  0
   41.3020   23.5820   35.7610 C   0  0  1  0  0  0  0  0  0  0  0  0
   42.1960   21.4190   36.4830 C   0  0  0  0  0  0  0  0  0  0  0  0
   42.6150   20.4460   37.4200 C   0  0  0  0  0  0  0  0  0  0  0  0
   43.3150   19.3360   36.9600 C   0  0  0  0  0  0  0  0  0  0  0  0
   43.5630   19.2380   35.6280 N   0  0  0  0  0  0  0  0  0  0  0  0
   43.1560   20.1780   34.7500 C   0  0  0  0  0  0  0  0  0  0  0  0
   42.4840   21.2480   35.1750 N   0  0  0  0  0  0  0  0  0  0  0  0
   42.1800   24.6430   35.7690 O   0  0  0  0  0  0  0  0  0  0  0  0
   43.2150   24.9090   34.8870 C   0  0  0  0  0  0  0  0  0  0  0  0
   44.3880   24.2480   34.8830 N   0  0  0  0  0  0  0  0  0  0  0  0
   45.3650   24.5640   33.9840 C   0  0  0  0  0  0  0  0  0  0  0  0
   45.1820   25.5540   33.0680 N   0  0  0  0  0  0  0  0  0  0  0  0
   44.0010   26.2030   33.0890 C   0  0  0  0  0  0  0  0  0  0  0  0
   43.8310   27.2040   32.1530 C   0  0  0  0  0  0  0  0  0  0  0  0
   42.6340   27.9010   32.1350 C   0  0  0  0  0  0  0  0  0  0  0  0
   41.5780   27.6560   33.0080 C   0  0  0  0  0  0  0  0  0  0  0  0
   41.7990   26.6460   33.9230 C   0  0  0  0  0  0  0  0  0  0  0  0
   42.9590   25.9390   33.9730 C   0  0  0  0  0  0  0  0  0  0  0  0
   42.0046   23.1464   37.6695 H   0  0  0  0  0  0  0  0  0  0  0  0
   39.9784   21.1015   37.3954 H   0  0  0  0  0  0  0  0  0  0  0  0
   39.7778   22.5594   38.3297 H   0  0  0  0  0  0  0  0  0  0  0  0
   39.1648   22.0453   35.3768 H   0  0  0  0  0  0  0  0  0  0  0  0
   38.1388   22.8631   36.5354 H   0  0  0  0  0  0  0  0  0  0  0  0
   39.4937   24.4256   34.9185 H   0  0  0  0  0  0  0  0  0  0  0  0
   39.7025   24.8413   36.5938 H   0  0  0  0  0  0  0  0  0  0  0  0
   41.5492   23.1013   34.8030 H   0  0  0  0  0  0  0  0  0  0  0  0
   42.3918   20.5648   38.4905 H   0  0  0  0  0  0  0  0  0  0  0  0
   43.6590   18.5574   37.6567 H   0  0  0  0  0  0  0  0  0  0  0  0
   43.3795   20.0611   33.6793 H   0  0  0  0  0  0  0  0  0  0  0  0
   46.3152   24.0100   33.9999 H   0  0  0  0  0  0  0  0  0  0  0  0
   44.6302   27.4431   31.4360 H   0  0  0  0  0  0  0  0  0  0  0  0
   42.5106   28.6964   31.3853 H   0  0  0  0  0  0  0  0  0  0  0  0
   40.6372   28.2248   32.9716 H   0  0  0  0  0  0  0  0  0  0  0  0
   41.0027   26.4031   34.6420 H   0  0  0  0  0  0  0  0  0  0  0  0
  1  2  1  0
  3  2  1  0
  4  3  1  0
  5 12  1  0
  5  4  1  0
  5  1  1  0
  6  1  1  0
  6  7  2  0
  8  7  1  0
  9  8  2  0
 10 11  2  0
 10  9  1  0
 11  6  1  0
 13 12  1  0
 14 13  2  0
 15 14  1  0
 16 17  1  0
 16 15  2  0
 17 22  2  0
 18 17  1  0
 19 18  2  0
 19 20  1  0
 20 21  2  0
 21 22  1  0
 22 13  1  0
  1 23  1  1
  2 24  1  0
  2 25  1  0
  3 26  1  0
  3 27  1  0
  4 28  1  0
  4 29  1  0
  5 30  1  6
  7 31  1  0
  8 32  1  0
 10 33  1  0
 15 34  1  0
 18 35  1  0
 19 36  1  0
 20 37  1  0
 21 38  1  0
M  ISO  8  23  13  24  13  25  13  26  13  27  13  28  13  29  13  30  13
M  ISO  8  31  14  32  14  33  14  34  14  35  14  36  14  37  14  38  14
M  END
>  <minimizedAffinity>  (1) 
-3.86041331

>  <minimizedRMSD>  (1) 
7.93033361

$$$$
