
     RDKit          3D

 50 54  0  0  1  0  0  0  0  0999 V2000
   40.7570   22.7760   36.6360 O   0  0  0  0  0  0  0  0  0  0  0  0
   43.1230   22.8070   36.4920 C   0  0  2  0  0  0  0  0  0  0  0  0
   44.0390   21.6840   36.0160 C   0  0  0  0  0  0  0  0  0  0  0  0
   43.2910   21.1820   34.8590 C   0  0  0  0  0  0  0  0  0  0  0  0
   41.8490   21.2750   35.3250 C   0  0  0  0  0  0  0  0  0  0  0  0
   41.8230   22.7310   35.8460 C   0  0  1  0  0  0  0  0  0  0  0  0
   43.7980   24.0900   36.2640 C   0  0  0  0  0  0  0  0  0  0  0  0
   44.6470   24.7120   37.2380 C   0  0  0  0  0  0  0  0  0  0  0  0
   45.2250   25.9380   36.8950 C   0  0  0  0  0  0  0  0  0  0  0  0
   44.9500   26.4600   35.6680 N   0  0  0  0  0  0  0  0  0  0  0  0
   44.1330   25.8330   34.7670 C   0  0  0  0  0  0  0  0  0  0  0  0
   43.5700   24.6660   35.0670 N   0  0  0  0  0  0  0  0  0  0  0  0
   38.8690   23.9630   37.1940 N   0  0  0  0  0  0  0  0  0  0  0  0
   38.0940   24.9930   36.5430 C   0  0  0  0  0  0  0  0  0  0  0  0
   38.9110   25.4760   35.3790 C   0  0  0  0  0  0  0  0  0  0  0  0
   40.1270   24.5900   35.2740 C   0  0  0  0  0  0  0  0  0  0  0  0
   39.7000   23.4230   36.1400 C   0  0  1  0  0  0  0  0  0  0  0  0
   38.6190   22.6730   35.3880 C   0  0  0  0  0  0  0  0  0  0  0  0
   37.4330   22.0250   35.8070 C   0  0  0  0  0  0  0  0  0  0  0  0
   36.8590   21.4680   34.7270 N   0  0  0  0  0  0  0  0  0  0  0  0
   37.5480   21.6780   33.5940 C   0  0  0  0  0  0  0  0  0  0  0  0
   37.3950   21.3370   32.2850 C   0  0  0  0  0  0  0  0  0  0  0  0
   38.3200   21.7220   31.3240 C   0  0  0  0  0  0  0  0  0  0  0  0
   39.4110   22.4680   31.7240 C   0  0  0  0  0  0  0  0  0  0  0  0
   39.5690   22.8150   33.0550 C   0  0  0  0  0  0  0  0  0  0  0  0
   38.6290   22.4200   34.0140 C   0  0  0  0  0  0  0  0  0  0  0  0
   42.9266   22.7057   37.5696 H   0  0  0  0  0  0  0  0  0  0  0  0
   45.0277   22.0665   35.7225 H   0  0  0  0  0  0  0  0  0  0  0  0
   44.2564   20.9227   36.7796 H   0  0  0  0  0  0  0  0  0  0  0  0
   43.5670   20.1422   34.6295 H   0  0  0  0  0  0  0  0  0  0  0  0
   43.4875   21.7459   33.9352 H   0  0  0  0  0  0  0  0  0  0  0  0
   41.1423   21.1266   34.4952 H   0  0  0  0  0  0  0  0  0  0  0  0
   41.5529   20.5154   36.0634 H   0  0  0  0  0  0  0  0  0  0  0  0
   41.7160   23.5769   35.1510 H   0  0  0  0  0  0  0  0  0  0  0  0
   44.8358   24.2436   38.2152 H   0  0  0  0  0  0  0  0  0  0  0  0
   45.8849   26.4671   37.5983 H   0  0  0  0  0  0  0  0  0  0  0  0
   43.9407   26.2971   33.7884 H   0  0  0  0  0  0  0  0  0  0  0  0
   39.4476   24.3623   37.9468 H   0  0  0  0  0  0  0  0  0  0  0  0
   37.1370   24.5814   36.1898 H   0  0  0  0  0  0  0  0  0  0  0  0
   37.8676   25.8162   37.2366 H   0  0  0  0  0  0  0  0  0  0  0  0
   38.3196   25.4119   34.4537 H   0  0  0  0  0  0  0  0  0  0  0  0
   39.2095   26.5245   35.5261 H   0  0  0  0  0  0  0  0  0  0  0  0
   40.3124   24.2777   34.2357 H   0  0  0  0  0  0  0  0  0  0  0  0
   41.0681   25.0679   35.5836 H   0  0  0  0  0  0  0  0  0  0  0  0
   37.0481   21.9843   36.8367 H   0  0  0  0  0  0  0  0  0  0  0  0
   35.9791   20.9338   34.7647 H   0  0  0  0  0  0  0  0  0  0  0  0
   36.5196   20.7437   31.9822 H   0  0  0  0  0  0  0  0  0  0  0  0
   38.1870   21.4396   30.2692 H   0  0  0  0  0  0  0  0  0  0  0  0
   40.1576   22.7879   30.9822 H   0  0  0  0  0  0  0  0  0  0  0  0
   40.4431   23.4078   33.3623 H   0  0  0  0  0  0  0  0  0  0  0  0
  3  2  1  0
  4  5  1  0
  4  3  1  0
  5  6  1  0
  6  2  1  0
  6  1  1  0
  7  2  1  0
  7  8  2  0
  9  8  1  0
 10  9  2  0
 11 12  2  0
 11 10  1  0
 12  7  1  0
 14 13  1  0
 15 14  1  0
 16 15  1  0
 16 17  1  0
 17  1  1  1
 17 13  1  0
 18 19  2  0
 18 17  1  0
 20 19  1  0
 21 26  2  0
 21 20  1  0
 22 21  1  0
 23 24  1  0
 23 22  2  0
 24 25  2  0
 25 26  1  0
 26 18  1  0
  2 27  1  1
  3 28  1  0
  3 29  1  0
  4 30  1  0
  4 31  1  0
  5 32  1  0
  5 33  1  0
  6 34  1  6
  8 35  1  0
  9 36  1  0
 11 37  1  0
 13 38  1  0
 14 39  1  0
 14 40  1  0
 15 41  1  0
 15 42  1  0
 16 43  1  0
 16 44  1  0
 19 45  1  0
 20 46  1  0
 22 47  1  0
 23 48  1  0
 24 49  1  0
 25 50  1  0
M  ISO  8  27  13  28  13  29  13  30  13  31  13  32  13  33  13  34  13
M  ISO  8  35  14  36  14  37  14  38   5  39  13  40  13  41  13  42  13
M  ISO  8  43  13  44  13  45  14  46   9  47  14  48  14  49  14  50  14
M  END
>  <minimizedAffinity>  (1) 
-4.8288064

>  <minimizedRMSD>  (1) 
1.9873476

$$$$
