
     RDKit          3D

 43 46  0  0  1  0  0  0  0  0999 V2000
   38.7850   26.0580   34.8550 C   0  0  2  0  0  0  0  0  0  0  0  0
   38.0370   27.2060   35.5300 C   0  0  0  0  0  0  0  0  0  0  0  0
   36.7980   27.2510   34.7340 C   0  0  0  0  0  0  0  0  0  0  0  0
   37.2850   26.9440   33.3390 C   0  0  0  0  0  0  0  0  0  0  0  0
   38.1620   25.6950   33.5970 C   0  0  1  0  0  0  0  0  0  0  0  0
   38.8600   24.9330   35.7970 C   0  0  0  0  0  0  0  0  0  0  0  0
   39.6970   23.7890   35.5760 C   0  0  0  0  0  0  0  0  0  0  0  0
   39.6750   22.7860   36.5500 C   0  0  0  0  0  0  0  0  0  0  0  0
   38.8700   22.9520   37.6370 N   0  0  0  0  0  0  0  0  0  0  0  0
   38.0860   24.0610   37.8060 C   0  0  0  0  0  0  0  0  0  0  0  0
   38.0900   25.0310   36.8930 N   0  0  0  0  0  0  0  0  0  0  0  0
   38.9360   25.5990   32.5300 O   0  0  0  0  0  0  0  0  0  0  0  0
   38.5830   24.6910   30.4370 N   0  0  0  0  0  0  0  0  0  0  0  0
   39.0190   23.4780   29.7830 C   0  0  0  0  0  0  0  0  0  0  0  0
   39.9000   22.7240   30.7420 C   0  0  0  0  0  0  0  0  0  0  0  0
   40.1000   23.6450   31.9400 C   0  0  0  0  0  0  0  0  0  0  0  0
   38.8340   24.4490   31.8490 C   0  0  1  0  0  0  0  0  0  0  0  0
   37.6600   23.5210   32.0950 C   0  0  0  0  0  0  0  0  0  0  0  0
   36.3510   23.5050   31.5740 C   0  0  0  0  0  0  0  0  0  0  0  0
   35.6330   22.4550   32.0980 C   0  0  0  0  0  0  0  0  0  0  0  0
   36.5560   21.8650   32.9320 C   0  0  0  0  0  0  0  0  0  0  0  0
   37.7140   22.4700   32.9330 O   0  0  0  0  0  0  0  0  0  0  0  0
   39.8088   26.3698   34.6009 H   0  0  0  0  0  0  0  0  0  0  0  0
   37.8286   26.9844   36.5871 H   0  0  0  0  0  0  0  0  0  0  0  0
   38.5931   28.1548   35.5518 H   0  0  0  0  0  0  0  0  0  0  0  0
   36.0784   26.4935   35.0780 H   0  0  0  0  0  0  0  0  0  0  0  0
   36.2675   28.2117   34.8083 H   0  0  0  0  0  0  0  0  0  0  0  0
   37.8769   27.7743   32.9265 H   0  0  0  0  0  0  0  0  0  0  0  0
   36.4819   26.7886   32.6036 H   0  0  0  0  0  0  0  0  0  0  0  0
   37.7081   24.6988   33.7047 H   0  0  0  0  0  0  0  0  0  0  0  0
   40.3286   23.7046   34.6794 H   0  0  0  0  0  0  0  0  0  0  0  0
   40.2937   21.8830   36.4412 H   0  0  0  0  0  0  0  0  0  0  0  0
   37.4502   24.1517   38.6991 H   0  0  0  0  0  0  0  0  0  0  0  0
   37.5806   24.8565   30.2679 H   0  0  0  0  0  0  0  0  0  0  0  0
   38.1466   22.8637   29.5156 H   0  0  0  0  0  0  0  0  0  0  0  0
   39.5724   23.7174   28.8630 H   0  0  0  0  0  0  0  0  0  0  0  0
   39.4120   21.7894   31.0555 H   0  0  0  0  0  0  0  0  0  0  0  0
   40.8595   22.4509   30.2786 H   0  0  0  0  0  0  0  0  0  0  0  0
   40.1623   23.0831   32.8836 H   0  0  0  0  0  0  0  0  0  0  0  0
   41.0297   24.2328   31.9285 H   0  0  0  0  0  0  0  0  0  0  0  0
   35.9574   24.2319   30.8483 H   0  0  0  0  0  0  0  0  0  0  0  0
   34.5910   22.1625   31.9015 H   0  0  0  0  0  0  0  0  0  0  0  0
   36.3399   20.9725   33.5376 H   0  0  0  0  0  0  0  0  0  0  0  0
  1  2  1  0
  1  6  1  0
  3  2  1  0
  4  5  1  0
  4  3  1  0
  5  1  1  0
  6 11  1  0
  7  6  2  0
  7  8  1  0
  8  9  2  0
  9 10  1  0
 11 10  2  0
 12  5  1  0
 13 17  1  0
 14 13  1  0
 14 15  1  0
 15 16  1  0
 17 16  1  0
 17 18  1  0
 17 12  1  1
 18 22  1  0
 19 18  2  0
 19 20  1  0
 20 21  2  0
 21 22  1  0
  1 23  1  6
  2 24  1  0
  2 25  1  0
  3 26  1  0
  3 27  1  0
  4 28  1  0
  4 29  1  0
  5 30  1  1
  7 31  1  0
  8 32  1  0
 10 33  1  0
 13 34  1  0
 14 35  1  0
 14 36  1  0
 15 37  1  0
 15 38  1  0
 16 39  1  0
 16 40  1  0
 19 41  1  0
 20 42  1  0
 21 43  1  0
M  ISO  8  23  13  24  13  25  13  26  13  27  13  28  13  29  13  30  13
M  ISO  8  31  14  32  14  33  14  34   5  35  13  36  13  37  13  38  13
M  ISO  5  39  13  40  13  41  14  42  14  43  14
M  END
>  <minimizedAffinity>  (1) 
-4.68972874

>  <minimizedRMSD>  (1) 
6.38666773

$$$$
