
     RDKit          3D

 38 40  0  0  1  0  0  0  0  0999 V2000
   42.6870   23.4160   36.3960 C   0  0  2  0  0  0  0  0  0  0  0  0
   43.9900   22.6490   36.2000 C   0  0  0  0  0  0  0  0  0  0  0  0
   43.5090   21.2730   36.1050 C   0  0  0  0  0  0  0  0  0  0  0  0
   42.3540   21.2200   37.0630 C   0  0  0  0  0  0  0  0  0  0  0  0
   41.5900   22.5220   36.6970 C   0  0  1  0  0  0  0  0  0  0  0  0
   42.4470   24.2400   35.2030 C   0  0  0  0  0  0  0  0  0  0  0  0
   43.0740   25.5180   34.9990 C   0  0  0  0  0  0  0  0  0  0  0  0
   42.7490   26.2030   33.8230 C   0  0  0  0  0  0  0  0  0  0  0  0
   41.8710   25.6270   32.9570 N   0  0  0  0  0  0  0  0  0  0  0  0
   41.2980   24.4080   33.1930 C   0  0  0  0  0  0  0  0  0  0  0  0
   41.5870   23.7310   34.3030 N   0  0  0  0  0  0  0  0  0  0  0  0
   40.8230   22.8320   37.7460 O   0  0  0  0  0  0  0  0  0  0  0  0
   38.6630   22.6640   38.5680 N   0  0  0  0  0  0  0  0  0  0  0  0
   37.4280   23.3420   38.2980 C   0  0  0  0  0  0  0  0  0  0  0  0
   37.6380   24.2270   37.0920 C   0  0  0  0  0  0  0  0  0  0  0  0
   39.1400   24.2260   36.8340 C   0  0  0  0  0  0  0  0  0  0  0  0
   39.5000   22.9010   37.4200 C   0  0  1  0  0  0  0  0  0  0  0  0
   39.0420   21.8110   36.5590 N   0  0  0  0  0  0  0  0  0  0  0  0
   42.7666   24.0827   37.2673 H   0  0  0  0  0  0  0  0  0  0  0  0
   44.5037   22.9593   35.2781 H   0  0  0  0  0  0  0  0  0  0  0  0
   44.7291   22.8107   36.9985 H   0  0  0  0  0  0  0  0  0  0  0  0
   43.1775   21.0454   35.0811 H   0  0  0  0  0  0  0  0  0  0  0  0
   44.2897   20.5361   36.3448 H   0  0  0  0  0  0  0  0  0  0  0  0
   41.7324   20.3282   36.8945 H   0  0  0  0  0  0  0  0  0  0  0  0
   42.6502   21.1553   38.1204 H   0  0  0  0  0  0  0  0  0  0  0  0
   40.8867   22.5098   35.8513 H   0  0  0  0  0  0  0  0  0  0  0  0
   43.7768   25.9378   35.7337 H   0  0  0  0  0  0  0  0  0  0  0  0
   43.1931   27.1851   33.6033 H   0  0  0  0  0  0  0  0  0  0  0  0
   40.5941   23.9840   32.4617 H   0  0  0  0  0  0  0  0  0  0  0  0
   39.1031   23.0452   39.4176 H   0  0  0  0  0  0  0  0  0  0  0  0
   36.6363   22.6074   38.0892 H   0  0  0  0  0  0  0  0  0  0  0  0
   37.1237   23.9442   39.1668 H   0  0  0  0  0  0  0  0  0  0  0  0
   37.0995   23.8233   36.2220 H   0  0  0  0  0  0  0  0  0  0  0  0
   37.2571   25.2444   37.2647 H   0  0  0  0  0  0  0  0  0  0  0  0
   39.3701   24.2737   35.7594 H   0  0  0  0  0  0  0  0  0  0  0  0
   39.6842   25.0837   37.2561 H   0  0  0  0  0  0  0  0  0  0  0  0
   38.7130   21.0281   37.1419 H   0  0  0  0  0  0  0  0  0  0  0  0
   38.2699   22.1444   35.9644 H   0  0  0  0  0  0  0  0  0  0  0  0
  1  5  1  0
  2  1  1  0
  3  2  1  0
  3  4  1  0
  5  4  1  0
  5 12  1  0
  6  1  1  0
  7  6  2  0
  8  7  1  0
  9 10  1  0
  9  8  2  0
 10 11  2  0
 11  6  1  0
 14 13  1  0
 15 14  1  0
 16 15  1  0
 16 17  1  0
 17 12  1  1
 17 13  1  0
 18 17  1  0
  1 19  1  1
  2 20  1  0
  2 21  1  0
  3 22  1  0
  3 23  1  0
  4 24  1  0
  4 25  1  0
  5 26  1  6
  7 27  1  0
  8 28  1  0
 10 29  1  0
 13 30  1  0
 14 31  1  0
 14 32  1  0
 15 33  1  0
 15 34  1  0
 16 35  1  0
 16 36  1  0
 18 37  1  0
 18 38  1  0
M  ISO  8  19  13  20  13  21  13  22  13  23  13  24  13  25  13  26  13
M  ISO  8  27  14  28  14  29  14  30   5  31  13  32  13  33  13  34  13
M  ISO  4  35  13  36  13  37   5  38   5
M  END
>  <minimizedAffinity>  (1) 
-4.63096905

>  <minimizedRMSD>  (1) 
1.75059211

$$$$
