
     RDKit          3D

 43 46  0  0  1  0  0  0  0  0999 V2000
   42.9260   23.0610   36.5410 C   0  0  2  0  0  0  0  0  0  0  0  0
   43.7470   21.8340   36.1620 C   0  0  0  0  0  0  0  0  0  0  0  0
   43.0250   21.3560   34.9630 C   0  0  0  0  0  0  0  0  0  0  0  0
   41.5870   21.6380   35.3050 C   0  0  0  0  0  0  0  0  0  0  0  0
   41.6680   23.0930   35.8170 C   0  0  1  0  0  0  0  0  0  0  0  0
   43.7400   24.2620   36.3210 C   0  0  0  0  0  0  0  0  0  0  0  0
   44.6420   24.7780   37.3060 C   0  0  0  0  0  0  0  0  0  0  0  0
   45.3630   25.9300   36.9750 C   0  0  0  0  0  0  0  0  0  0  0  0
   45.1620   26.4830   35.7470 N   0  0  0  0  0  0  0  0  0  0  0  0
   44.2890   25.9570   34.8380 C   0  0  0  0  0  0  0  0  0  0  0  0
   43.5910   24.8600   35.1300 N   0  0  0  0  0  0  0  0  0  0  0  0
   40.5570   23.2740   36.5120 O   0  0  0  0  0  0  0  0  0  0  0  0
   38.5430   24.3610   36.7720 N   0  0  0  0  0  0  0  0  0  0  0  0
   37.8270   25.3510   35.9980 C   0  0  0  0  0  0  0  0  0  0  0  0
   38.7620   25.8600   34.9360 C   0  0  0  0  0  0  0  0  0  0  0  0
   40.0650   25.0890   35.1060 C   0  0  0  0  0  0  0  0  0  0  0  0
   39.5620   23.8850   35.8510 C   0  0  1  0  0  0  0  0  0  0  0  0
   38.6500   23.0960   34.9320 C   0  0  0  0  0  0  0  0  0  0  0  0
   38.5380   23.0240   33.5300 C   0  0  0  0  0  0  0  0  0  0  0  0
   37.5590   22.1230   33.1790 C   0  0  0  0  0  0  0  0  0  0  0  0
   37.1080   21.6790   34.3620 N   0  0  0  0  0  0  0  0  0  0  0  0
   37.7050   22.2100   35.4060 N   0  0  0  0  0  0  0  0  0  0  0  0
   42.6566   23.0189   37.6067 H   0  0  0  0  0  0  0  0  0  0  0  0
   44.7866   22.1037   35.9243 H   0  0  0  0  0  0  0  0  0  0  0  0
   43.8312   21.0852   36.9634 H   0  0  0  0  0  0  0  0  0  0  0  0
   43.1907   20.2803   34.8034 H   0  0  0  0  0  0  0  0  0  0  0  0
   43.3549   21.8426   34.0333 H   0  0  0  0  0  0  0  0  0  0  0  0
   40.9409   21.5601   34.4181 H   0  0  0  0  0  0  0  0  0  0  0  0
   41.1530   20.9327   36.0291 H   0  0  0  0  0  0  0  0  0  0  0  0
   41.6942   23.9362   35.1111 H   0  0  0  0  0  0  0  0  0  0  0  0
   44.7631   24.2883   38.2835 H   0  0  0  0  0  0  0  0  0  0  0  0
   46.0726   26.3768   37.6869 H   0  0  0  0  0  0  0  0  0  0  0  0
   44.1612   26.4418   33.8589 H   0  0  0  0  0  0  0  0  0  0  0  0
   38.9706   24.7852   37.6075 H   0  0  0  0  0  0  0  0  0  0  0  0
   36.9420   24.8941   35.5311 H   0  0  0  0  0  0  0  0  0  0  0  0
   37.4888   26.1755   36.6429 H   0  0  0  0  0  0  0  0  0  0  0  0
   38.9375   26.9378   35.0682 H   0  0  0  0  0  0  0  0  0  0  0  0
   38.3406   25.7149   33.9303 H   0  0  0  0  0  0  0  0  0  0  0  0
   40.5059   24.8141   34.1364 H   0  0  0  0  0  0  0  0  0  0  0  0
   40.8685   25.6441   35.6122 H   0  0  0  0  0  0  0  0  0  0  0  0
   39.1449   23.6037   32.8189 H   0  0  0  0  0  0  0  0  0  0  0  0
   37.2261   21.8358   32.1707 H   0  0  0  0  0  0  0  0  0  0  0  0
   36.3562   20.9799   34.4454 H   0  0  0  0  0  0  0  0  0  0  0  0
  2  1  1  0
  3  4  1  0
  3  2  1  0
  4  5  1  0
  5 12  1  0
  5  1  1  0
  6  1  1  0
  6  7  2  0
  8  7  1  0
  9  8  2  0
 10 11  2  0
 10  9  1  0
 11  6  1  0
 14 13  1  0
 15 16  1  0
 15 14  1  0
 16 17  1  0
 17 12  1  1
 17 13  1  0
 18 22  2  0
 18 17  1  0
 19 18  1  0
 20 19  2  0
 20 21  1  0
 21 22  1  0
  1 23  1  1
  2 24  1  0
  2 25  1  0
  3 26  1  0
  3 27  1  0
  4 28  1  0
  4 29  1  0
  5 30  1  6
  7 31  1  0
  8 32  1  0
 10 33  1  0
 13 34  1  0
 14 35  1  0
 14 36  1  0
 15 37  1  0
 15 38  1  0
 16 39  1  0
 16 40  1  0
 19 41  1  0
 20 42  1  0
 21 43  1  0
M  ISO  8  23  13  24  13  25  13  26  13  27  13  28  13  29  13  30  13
M  ISO  8  31  14  32  14  33  14  34   5  35  13  36  13  37  13  38  13
M  ISO  5  39  13  40  13  41  14  42  14  43   9
M  END
>  <minimizedAffinity>  (1) 
-4.52062893

>  <minimizedRMSD>  (1) 
2.00612497

$$$$
