
     RDKit          3D

 43 46  0  0  1  0  0  0  0  0999 V2000
   42.9760   22.9930   36.4980 C   0  0  2  0  0  0  0  0  0  0  0  0
   43.8250   21.7920   36.0930 C   0  0  0  0  0  0  0  0  0  0  0  0
   43.1030   21.3170   34.9090 C   0  0  0  0  0  0  0  0  0  0  0  0
   41.6550   21.5460   35.2830 C   0  0  0  0  0  0  0  0  0  0  0  0
   41.7120   23.0070   35.7850 C   0  0  1  0  0  0  0  0  0  0  0  0
   43.7670   24.2130   36.2880 C   0  0  0  0  0  0  0  0  0  0  0  0
   44.6180   24.7750   37.2980 C   0  0  0  0  0  0  0  0  0  0  0  0
   45.3120   25.9440   36.9700 C   0  0  0  0  0  0  0  0  0  0  0  0
   45.1380   26.4720   35.7270 N   0  0  0  0  0  0  0  0  0  0  0  0
   44.3150   25.9030   34.7940 C   0  0  0  0  0  0  0  0  0  0  0  0
   43.6430   24.7890   35.0800 N   0  0  0  0  0  0  0  0  0  0  0  0
   40.6080   23.1810   36.5120 O   0  0  0  0  0  0  0  0  0  0  0  0
   38.5810   24.2460   36.7760 N   0  0  0  0  0  0  0  0  0  0  0  0
   37.8950   25.2930   36.0550 C   0  0  0  0  0  0  0  0  0  0  0  0
   38.8470   25.8210   35.0110 C   0  0  0  0  0  0  0  0  0  0  0  0
   40.1100   24.9980   35.1080 C   0  0  0  0  0  0  0  0  0  0  0  0
   39.6040   23.7900   35.8450 C   0  0  1  0  0  0  0  0  0  0  0  0
   38.7190   22.9940   34.9680 C   0  0  0  0  0  0  0  0  0  0  0  0
   37.6720   22.1260   35.0950 C   0  0  0  0  0  0  0  0  0  0  0  0
   37.0550   21.5860   34.0110 C   0  0  0  0  0  0  0  0  0  0  0  0
   37.5680   21.9840   32.7260 C   0  0  0  0  0  0  0  0  0  0  0  0
   38.9270   23.1230   33.0620 S   0  0  0  0  0  0  0  0  0  0  0  0
   42.7107   22.9304   37.5637 H   0  0  0  0  0  0  0  0  0  0  0  0
   44.8538   22.0915   35.8442 H   0  0  0  0  0  0  0  0  0  0  0  0
   43.9420   21.0357   36.8831 H   0  0  0  0  0  0  0  0  0  0  0  0
   43.3008   20.2505   34.7261 H   0  0  0  0  0  0  0  0  0  0  0  0
   43.3996   21.8318   33.9833 H   0  0  0  0  0  0  0  0  0  0  0  0
   40.9910   21.4430   34.4121 H   0  0  0  0  0  0  0  0  0  0  0  0
   41.2551   20.8287   36.0148 H   0  0  0  0  0  0  0  0  0  0  0  0
   41.7059   23.8395   35.0660 H   0  0  0  0  0  0  0  0  0  0  0  0
   44.7200   24.3062   38.2879 H   0  0  0  0  0  0  0  0  0  0  0  0
   45.9818   26.4250   37.6980 H   0  0  0  0  0  0  0  0  0  0  0  0
   44.2077   26.3677   33.8028 H   0  0  0  0  0  0  0  0  0  0  0  0
   39.0081   24.6141   37.6379 H   0  0  0  0  0  0  0  0  0  0  0  0
   36.9938   24.8881   35.5714 H   0  0  0  0  0  0  0  0  0  0  0  0
   37.5848   26.0965   36.7393 H   0  0  0  0  0  0  0  0  0  0  0  0
   39.0707   26.8804   35.2050 H   0  0  0  0  0  0  0  0  0  0  0  0
   38.4069   25.7475   34.0055 H   0  0  0  0  0  0  0  0  0  0  0  0
   40.4973   24.7324   34.1133 H   0  0  0  0  0  0  0  0  0  0  0  0
   40.9509   25.5108   35.5978 H   0  0  0  0  0  0  0  0  0  0  0  0
   37.3188   21.8569   36.1014 H   0  0  0  0  0  0  0  0  0  0  0  0
   36.2126   20.8856   34.1098 H   0  0  0  0  0  0  0  0  0  0  0  0
   37.2052   21.6596   31.7395 H   0  0  0  0  0  0  0  0  0  0  0  0
  2  1  1  0
  3  4  1  0
  3  2  1  0
  4  5  1  0
  5  1  1  0
  5 12  1  0
  6  1  1  0
  6  7  2  0
  8  7  1  0
  9  8  2  0
 10 11  2  0
 10  9  1  0
 11  6  1  0
 14 13  1  0
 15 16  1  0
 15 14  1  0
 16 17  1  0
 17 12  1  1
 17 13  1  0
 18 19  2  0
 18 17  1  0
 20 19  1  0
 21 22  1  0
 21 20  2  0
 22 18  1  0
  1 23  1  1
  2 24  1  0
  2 25  1  0
  3 26  1  0
  3 27  1  0
  4 28  1  0
  4 29  1  0
  5 30  1  6
  7 31  1  0
  8 32  1  0
 10 33  1  0
 13 34  1  0
 14 35  1  0
 14 36  1  0
 15 37  1  0
 15 38  1  0
 16 39  1  0
 16 40  1  0
 19 41  1  0
 20 42  1  0
 21 43  1  0
M  ISO  8  23  13  24  13  25  13  26  13  27  13  28  13  29  13  30  13
M  ISO  8  31  14  32  14  33  14  34   5  35  13  36  13  37  13  38  13
M  ISO  5  39  13  40  13  41  14  42  14  43  14
M  END
>  <minimizedAffinity>  (1) 
-4.43587255

>  <minimizedRMSD>  (1) 
2.02673984

$$$$
