
     RDKit          3D

 39 41  0  0  1  0  0  0  0  0999 V2000
   42.8070   23.4750   36.4170 C   0  0  2  0  0  0  0  0  0  0  0  0
   44.1010   22.6690   36.2520 C   0  0  0  0  0  0  0  0  0  0  0  0
   43.5450   21.3300   36.0100 C   0  0  0  0  0  0  0  0  0  0  0  0
   42.3760   21.2990   36.9910 C   0  0  0  0  0  0  0  0  0  0  0  0
   41.6540   22.5930   36.5390 C   0  0  1  0  0  0  0  0  0  0  0  0
   42.6970   24.3960   35.2790 C   0  0  0  0  0  0  0  0  0  0  0  0
   43.5260   25.5580   35.1390 C   0  0  0  0  0  0  0  0  0  0  0  0
   43.3210   26.3580   34.0110 C   0  0  0  0  0  0  0  0  0  0  0  0
   42.3550   25.9890   33.1250 N   0  0  0  0  0  0  0  0  0  0  0  0
   41.5870   24.8700   33.3000 C   0  0  0  0  0  0  0  0  0  0  0  0
   41.7630   24.0910   34.3650 N   0  0  0  0  0  0  0  0  0  0  0  0
   40.8300   22.8180   37.5550 O   0  0  0  0  0  0  0  0  0  0  0  0
   38.7370   22.6540   38.4300 N   0  0  0  0  0  0  0  0  0  0  0  0
   37.4650   23.2660   38.1390 C   0  0  0  0  0  0  0  0  0  0  0  0
   37.6830   24.2660   37.0190 C   0  0  0  0  0  0  0  0  0  0  0  0
   39.1930   24.3280   36.8230 C   0  0  0  0  0  0  0  0  0  0  0  0
   39.5410   22.9310   37.2550 C   0  0  1  0  0  0  0  0  0  0  0  0
   38.8860   22.0560   36.2270 C   0  0  0  0  0  0  0  0  0  0  0  0
   42.8332   24.0615   37.3472 H   0  0  0  0  0  0  0  0  0  0  0  0
   44.6956   23.0237   35.3972 H   0  0  0  0  0  0  0  0  0  0  0  0
   44.7959   22.7331   37.1023 H   0  0  0  0  0  0  0  0  0  0  0  0
   43.1999   21.2208   34.9713 H   0  0  0  0  0  0  0  0  0  0  0  0
   44.2686   20.5136   36.1513 H   0  0  0  0  0  0  0  0  0  0  0  0
   41.7473   20.4064   36.8569 H   0  0  0  0  0  0  0  0  0  0  0  0
   42.6498   21.2545   38.0554 H   0  0  0  0  0  0  0  0  0  0  0  0
   41.0527   22.6500   35.6197 H   0  0  0  0  0  0  0  0  0  0  0  0
   44.2913   25.8093   35.8881 H   0  0  0  0  0  0  0  0  0  0  0  0
   43.9245   27.2623   33.8435 H   0  0  0  0  0  0  0  0  0  0  0  0
   40.8191   24.6125   32.5557 H   0  0  0  0  0  0  0  0  0  0  0  0
   39.1607   23.0734   39.2699 H   0  0  0  0  0  0  0  0  0  0  0  0
   36.7434   22.4988   37.8217 H   0  0  0  0  0  0  0  0  0  0  0  0
   37.0640   23.7674   39.0322 H   0  0  0  0  0  0  0  0  0  0  0  0
   37.1885   23.9258   36.0972 H   0  0  0  0  0  0  0  0  0  0  0  0
   37.2603   25.2521   37.2618 H   0  0  0  0  0  0  0  0  0  0  0  0
   39.4658   24.5159   35.7741 H   0  0  0  0  0  0  0  0  0  0  0  0
   39.7087   25.1342   37.3652 H   0  0  0  0  0  0  0  0  0  0  0  0
   38.3001   21.2734   36.7312 H   0  0  0  0  0  0  0  0  0  0  0  0
   38.2198   22.6648   35.5981 H   0  0  0  0  0  0  0  0  0  0  0  0
   39.6578   21.5884   35.5981 H   0  0  0  0  0  0  0  0  0  0  0  0
  1  5  1  0
  2  1  1  0
  3  2  1  0
  3  4  1  0
  5  4  1  0
  5 12  1  0
  6  1  1  0
  7  6  2  0
  8  7  1  0
  9 10  1  0
  9  8  2  0
 10 11  2  0
 11  6  1  0
 14 13  1  0
 15 14  1  0
 16 15  1  0
 16 17  1  0
 17 18  1  0
 17 12  1  1
 17 13  1  0
  1 19  1  1
  2 20  1  0
  2 21  1  0
  3 22  1  0
  3 23  1  0
  4 24  1  0
  4 25  1  0
  5 26  1  6
  7 27  1  0
  8 28  1  0
 10 29  1  0
 13 30  1  0
 14 31  1  0
 14 32  1  0
 15 33  1  0
 15 34  1  0
 16 35  1  0
 16 36  1  0
 18 37  1  0
 18 38  1  0
 18 39  1  0
M  ISO  8  19  13  20  13  21  13  22  13  23  13  24  13  25  13  26  13
M  ISO  8  27  14  28  14  29  14  30   5  31  13  32  13  33  13  34  13
M  ISO  5  35  13  36  13  37   8  38   8  39   8
M  END
>  <minimizedAffinity>  (1) 
-4.24274874

>  <minimizedRMSD>  (1) 
1.52636683

$$$$
