
     RDKit          3D

 50 53  0  0  0  0  0  0  0  0999 V2000
   37.2560   22.5790   37.1830 C   0  0  0  0  0  0  0  0  0  0  0  0
   36.9650   21.9260   35.9160 C   0  0  0  0  0  0  0  0  0  0  0  0
   35.8750   21.1670   35.6850 C   0  0  0  0  0  0  0  0  0  0  0  0
   35.6050   20.5530   34.5000 C   0  0  0  0  0  0  0  0  0  0  0  0
   36.6160   20.8070   33.5200 C   0  0  0  0  0  0  0  0  0  0  0  0
   37.8630   21.9020   34.3850 S   0  0  0  0  0  0  0  0  0  0  0  0
   36.8030   20.4120   32.1550 C   0  0  0  0  0  0  0  0  0  0  0  0
   36.0760   19.4750   31.5330 C   0  0  0  0  0  0  0  0  0  0  0  0
   36.7740   19.4260   29.7980 S   0  0  0  0  0  0  0  0  0  0  0  0
   38.0010   20.7860   30.3200 C   0  0  0  0  0  0  0  0  0  0  0  0
   37.6960   20.9330   31.3840 N   0  0  0  0  0  0  0  0  0  0  0  0
   38.9450   21.2590   29.3160 N   0  0  0  0  0  0  0  0  0  0  0  0
   39.7050   22.4930   29.3570 C   0  0  0  0  0  0  0  0  0  0  0  0
   39.7660   23.1240   27.9870 C   0  0  0  0  0  0  0  0  0  0  0  0
   40.0920   22.1490   26.8930 C   0  0  0  0  0  0  0  0  0  0  0  0
   40.2670   20.7470   27.4000 C   0  0  0  0  0  0  0  0  0  0  0  0
   39.0710   20.3270   28.2020 C   0  0  0  0  0  0  0  0  0  0  0  0
   38.1480   23.7780   37.0850 C   0  0  0  0  0  0  0  0  0  0  0  0
   41.4480   22.0090   37.2490 C   0  0  0  0  0  0  0  0  0  0  0  0
   40.1420   22.3440   37.5660 C   0  0  0  0  0  0  0  0  0  0  0  0
   39.5090   23.3560   36.8280 C   0  0  0  0  0  0  0  0  0  0  0  0
   40.2280   23.9520   35.8320 N   0  0  0  0  0  0  0  0  0  0  0  0
   41.4880   23.6080   35.5470 C   0  0  0  0  0  0  0  0  0  0  0  0
   42.0980   22.6350   36.2560 N   0  0  0  0  0  0  0  0  0  0  0  0
   38.1230   24.4810   38.4460 C   0  0  0  0  0  0  0  0  0  0  0  0
   37.5630   24.6710   36.0230 C   0  0  0  0  0  0  0  0  0  0  0  0
   36.3028   22.8981   37.6297 H   0  0  0  0  0  0  0  0  0  0  0  0
   37.7977   21.8409   37.7928 H   0  0  0  0  0  0  0  0  0  0  0  0
   35.1568   21.0351   36.5076 H   0  0  0  0  0  0  0  0  0  0  0  0
   34.7140   19.9342   34.3176 H   0  0  0  0  0  0  0  0  0  0  0  0
   35.2552   18.8715   31.9478 H   0  0  0  0  0  0  0  0  0  0  0  0
   39.2224   23.1920   30.0560 H   0  0  0  0  0  0  0  0  0  0  0  0
   40.7289   22.2685   29.6904 H   0  0  0  0  0  0  0  0  0  0  0  0
   38.7881   23.5780   27.7688 H   0  0  0  0  0  0  0  0  0  0  0  0
   40.5757   23.8683   28.0092 H   0  0  0  0  0  0  0  0  0  0  0  0
   41.0258   22.4661   26.4056 H   0  0  0  0  0  0  0  0  0  0  0  0
   39.2469   22.1447   26.1889 H   0  0  0  0  0  0  0  0  0  0  0  0
   40.3877   20.0651   26.5453 H   0  0  0  0  0  0  0  0  0  0  0  0
   41.1586   20.7092   28.0431 H   0  0  0  0  0  0  0  0  0  0  0  0
   38.1669   20.3640   27.5766 H   0  0  0  0  0  0  0  0  0  0  0  0
   39.1910   19.2969   28.5686 H   0  0  0  0  0  0  0  0  0  0  0  0
   41.9592   21.2192   37.8189 H   0  0  0  0  0  0  0  0  0  0  0  0
   39.6118   21.8274   38.3796 H   0  0  0  0  0  0  0  0  0  0  0  0
   42.0273   24.1177   34.7350 H   0  0  0  0  0  0  0  0  0  0  0  0
   38.1498   23.7285   39.2479 H   0  0  0  0  0  0  0  0  0  0  0  0
   38.9982   25.1415   38.5336 H   0  0  0  0  0  0  0  0  0  0  0  0
   37.2031   25.0777   38.5336 H   0  0  0  0  0  0  0  0  0  0  0  0
   37.0198   25.5003   36.4997 H   0  0  0  0  0  0  0  0  0  0  0  0
   38.3722   25.0747   35.3968 H   0  0  0  0  0  0  0  0  0  0  0  0
   36.8697   24.0904   35.3968 H   0  0  0  0  0  0  0  0  0  0  0  0
  2  1  1  0
  3  2  2  0
  4  3  1  0
  5  6  1  0
  5  4  2  0
  6  2  1  0
  7  5  1  0
  8  7  2  0
  9 10  1  0
  9  8  1  0
 10 11  2  0
 11  7  1  0
 12 13  1  0
 12 10  1  0
 14 13  1  0
 15 16  1  0
 15 14  1  0
 16 17  1  0
 17 12  1  0
 18  1  1  0
 18 25  1  0
 19 20  2  0
 21 18  1  0
 21 20  1  0
 22 21  2  0
 23 22  1  0
 23 24  2  0
 24 19  1  0
 26 18  1  0
  1 27  1  0
  1 28  1  0
  3 29  1  0
  4 30  1  0
  8 31  1  0
 13 32  1  0
 13 33  1  0
 14 34  1  0
 14 35  1  0
 15 36  1  0
 15 37  1  0
 16 38  1  0
 16 39  1  0
 17 40  1  0
 17 41  1  0
 19 42  1  0
 20 43  1  0
 23 44  1  0
 25 45  1  0
 25 46  1  0
 25 47  1  0
 26 48  1  0
 26 49  1  0
 26 50  1  0
M  ISO  8  27   8  28   8  29  14  30  14  31  14  32  13  33  13  34  13
M  ISO  8  35  13  36  13  37  13  38  13  39  13  40  13  41  13  42  14
M  ISO  8  43  14  44  14  45   8  46   8  47   8  48   8  49   8  50   8
M  END
>  <minimizedAffinity>  (1) 
-5.04411411

>  <minimizedRMSD>  (1) 
0.106790997

$$$$
