
     RDKit          3D

 35 39  0  0  0  0  0  0  0  0999 V2000
   39.7790   22.7950   38.0520 C   0  0  0  0  0  0  0  0  0  0  0  0
   38.9210   23.6370   38.7880 C   0  0  0  0  0  0  0  0  0  0  0  0
   37.8790   24.2410   38.0940 C   0  0  0  0  0  0  0  0  0  0  0  0
   37.7240   24.0050   36.7600 N   0  0  0  0  0  0  0  0  0  0  0  0
   38.5810   23.1840   36.1040 C   0  0  0  0  0  0  0  0  0  0  0  0
   39.5910   22.5900   36.7440 N   0  0  0  0  0  0  0  0  0  0  0  0
   38.4410   22.9210   34.7100 N   0  0  0  0  0  0  0  0  0  0  0  0
   38.6900   21.7900   33.9950 C   0  0  0  0  0  0  0  0  0  0  0  0
   38.4030   22.0290   32.7120 N   0  0  0  0  0  0  0  0  0  0  0  0
   37.9670   23.2980   32.5590 C   0  0  0  0  0  0  0  0  0  0  0  0
   37.5540   24.0110   31.4430 C   0  0  0  0  0  0  0  0  0  0  0  0
   37.1800   25.2770   31.6610 N   0  0  0  0  0  0  0  0  0  0  0  0
   37.2080   25.8060   32.8810 C   0  0  0  0  0  0  0  0  0  0  0  0
   37.6060   25.1380   33.9930 N   0  0  0  0  0  0  0  0  0  0  0  0
   37.9990   23.8420   33.8290 C   0  0  0  0  0  0  0  0  0  0  0  0
   36.7810   27.1630   32.9570 N   0  0  0  0  0  0  0  0  0  0  0  0
   36.3190   27.8620   34.0080 C   0  0  0  0  0  0  0  0  0  0  0  0
   36.0210   29.1290   33.6610 N   0  0  0  0  0  0  0  0  0  0  0  0
   36.2890   29.2850   32.3510 C   0  0  0  0  0  0  0  0  0  0  0  0
   36.2190   30.2820   31.3960 C   0  0  0  0  0  0  0  0  0  0  0  0
   35.7950   31.4000   31.7600 O   0  0  0  0  0  0  0  0  0  0  0  0
   36.5920   30.0600   30.1210 N   0  0  0  0  0  0  0  0  0  0  0  0
   37.0450   28.8620   29.7340 C   0  0  0  0  0  0  0  0  0  0  0  0
   37.4710   28.4880   28.4280 N   0  0  0  0  0  0  0  0  0  0  0  0
   37.1240   27.8660   30.6540 N   0  0  0  0  0  0  0  0  0  0  0  0
   36.7580   28.0600   31.9330 C   0  0  0  0  0  0  0  0  0  0  0  0
   40.6174   22.2982   38.5622 H   0  0  0  0  0  0  0  0  0  0  0  0
   39.0695   23.8086   39.8643 H   0  0  0  0  0  0  0  0  0  0  0  0
   37.1805   24.9083   38.6202 H   0  0  0  0  0  0  0  0  0  0  0  0
   39.0642   20.8399   34.4041 H   0  0  0  0  0  0  0  0  0  0  0  0
   37.5351   23.5623   30.4388 H   0  0  0  0  0  0  0  0  0  0  0  0
   36.1996   27.4519   35.0217 H   0  0  0  0  0  0  0  0  0  0  0  0
   36.5275   30.8241   29.4334 H   0  0  0  0  0  0  0  0  0  0  0  0
   37.8021   27.5292   28.2492 H   0  0  0  0  0  0  0  0  0  0  0  0
   37.4481   29.1762   27.6620 H   0  0  0  0  0  0  0  0  0  0  0  0
  1  2  2  0
  3  2  1  0
  4  3  2  0
  5  6  2  0
  5  4  1  0
  6  1  1  0
  7  5  1  0
  8  7  1  0
  9  8  2  0
 10  9  1  0
 10 15  2  0
 11 12  2  0
 11 10  1  0
 12 13  1  0
 13 16  1  0
 13 14  2  0
 15 14  1  0
 15  7  1  0
 16 17  1  0
 18 17  2  0
 19 18  1  0
 20 21  2  0
 20 19  1  0
 22 20  1  0
 23 22  1  0
 23 25  2  0
 24 23  1  0
 25 26  1  0
 26 19  2  0
 26 16  1  0
  1 27  1  0
  2 28  1  0
  3 29  1  0
  8 30  1  0
 11 31  1  0
 17 32  1  0
 22 33  1  0
 24 34  1  0
 24 35  1  0
M  ISO  7  27  14  28  14  29  14  30  14  31  14  32  14  33   9
M  END
>  <minimizedAffinity>  (1) 
-6.92198896

>  <minimizedRMSD>  (1) 
2.99043417

$$$$
