
     RDKit          3D

 37 41  0  0  0  0  0  0  0  0999 V2000
   39.7300   22.7670   37.7840 C   0  0  0  0  0  0  0  0  0  0  0  0
   38.8310   23.5830   38.4860 C   0  0  0  0  0  0  0  0  0  0  0  0
   37.7940   24.1420   37.7590 C   0  0  0  0  0  0  0  0  0  0  0  0
   37.6930   23.8810   36.4260 N   0  0  0  0  0  0  0  0  0  0  0  0
   38.5670   23.0990   35.7880 C   0  0  0  0  0  0  0  0  0  0  0  0
   39.5930   22.5380   36.4720 N   0  0  0  0  0  0  0  0  0  0  0  0
   38.5080   22.7970   34.3900 N   0  0  0  0  0  0  0  0  0  0  0  0
   38.8210   21.6860   33.6950 C   0  0  0  0  0  0  0  0  0  0  0  0
   38.5910   21.9300   32.4020 N   0  0  0  0  0  0  0  0  0  0  0  0
   38.1290   23.1920   32.2300 C   0  0  0  0  0  0  0  0  0  0  0  0
   37.7610   23.8860   31.0940 C   0  0  0  0  0  0  0  0  0  0  0  0
   37.3480   25.1340   31.2960 N   0  0  0  0  0  0  0  0  0  0  0  0
   37.2890   25.6840   32.5130 C   0  0  0  0  0  0  0  0  0  0  0  0
   37.6550   24.9900   33.6260 N   0  0  0  0  0  0  0  0  0  0  0  0
   38.0850   23.7170   33.4930 C   0  0  0  0  0  0  0  0  0  0  0  0
   36.8580   27.0320   32.9120 C   0  0  0  0  0  0  0  0  0  0  0  0
   36.5090   27.3990   34.2020 C   0  0  0  0  0  0  0  0  0  0  0  0
   36.1060   28.6470   34.5890 C   0  0  0  0  0  0  0  0  0  0  0  0
   36.0210   29.6520   33.6700 C   0  0  0  0  0  0  0  0  0  0  0  0
   36.3520   29.3610   32.3680 C   0  0  0  0  0  0  0  0  0  0  0  0
   36.2560   30.3950   31.4650 C   0  0  0  0  0  0  0  0  0  0  0  0
   36.5690   30.1890   30.1380 C   0  0  0  0  0  0  0  0  0  0  0  0
   36.9770   28.9200   29.7510 C   0  0  0  0  0  0  0  0  0  0  0  0
   37.0470   27.9400   30.7150 C   0  0  0  0  0  0  0  0  0  0  0  0
   36.7500   28.0860   32.0470 C   0  0  0  0  0  0  0  0  0  0  0  0
   40.5684   22.3037   38.3247 H   0  0  0  0  0  0  0  0  0  0  0  0
   38.9446   23.7701   39.5640 H   0  0  0  0  0  0  0  0  0  0  0  0
   37.0573   24.7919   38.2540 H   0  0  0  0  0  0  0  0  0  0  0  0
   39.1994   20.7437   34.1180 H   0  0  0  0  0  0  0  0  0  0  0  0
   37.8064   23.4372   30.0907 H   0  0  0  0  0  0  0  0  0  0  0  0
   36.5604   26.6220   34.9789 H   0  0  0  0  0  0  0  0  0  0  0  0
   35.8503   28.8408   35.6412 H   0  0  0  0  0  0  0  0  0  0  0  0
   35.6981   30.6623   33.9616 H   0  0  0  0  0  0  0  0  0  0  0  0
   35.9285   31.3892   31.8030 H   0  0  0  0  0  0  0  0  0  0  0  0
   36.4974   31.0074   29.4066 H   0  0  0  0  0  0  0  0  0  0  0  0
   37.2369   28.7038   28.7042 H   0  0  0  0  0  0  0  0  0  0  0  0
   37.3728   26.9423   30.3857 H   0  0  0  0  0  0  0  0  0  0  0  0
  1  2  2  0
  3  2  1  0
  4  3  2  0
  5  4  1  0
  5  6  2  0
  6  1  1  0
  7  5  1  0
  8  7  1  0
  9  8  2  0
 10  9  1  0
 10 15  2  0
 11 12  2  0
 11 10  1  0
 12 13  1  0
 13 16  1  0
 13 14  2  0
 15 14  1  0
 15  7  1  0
 16 17  2  0
 17 18  1  0
 19 18  2  0
 20 19  1  0
 21 20  2  0
 22 21  1  0
 23 22  2  0
 23 24  1  0
 24 25  2  0
 25 20  1  0
 25 16  1  0
  1 26  1  0
  2 27  1  0
  3 28  1  0
  8 29  1  0
 11 30  1  0
 17 31  1  0
 18 32  1  0
 19 33  1  0
 21 34  1  0
 22 35  1  0
 23 36  1  0
 24 37  1  0
M  ISO  8  26  14  27  14  28  14  29  14  30  14  31  14  32  14  33  14
M  ISO  4  34  14  35  14  36  14  37  14
M  END
>  <minimizedAffinity>  (1) 
-6.49725294

>  <minimizedRMSD>  (1) 
3.54438138

$$$$
