
     RDKit          3D

 35 39  0  0  0  0  0  0  0  0999 V2000
   39.7880   22.8120   37.9550 C   0  0  0  0  0  0  0  0  0  0  0  0
   38.9390   23.5930   38.7440 C   0  0  0  0  0  0  0  0  0  0  0  0
   37.8650   24.2250   38.1080 C   0  0  0  0  0  0  0  0  0  0  0  0
   37.6930   24.0560   36.7640 N   0  0  0  0  0  0  0  0  0  0  0  0
   38.5460   23.2860   36.0440 C   0  0  0  0  0  0  0  0  0  0  0  0
   39.5850   22.6700   36.6370 N   0  0  0  0  0  0  0  0  0  0  0  0
   38.3940   23.0890   34.6420 N   0  0  0  0  0  0  0  0  0  0  0  0
   38.6510   21.9990   33.8720 C   0  0  0  0  0  0  0  0  0  0  0  0
   38.3480   22.3030   32.6090 N   0  0  0  0  0  0  0  0  0  0  0  0
   37.8960   23.5730   32.5260 C   0  0  0  0  0  0  0  0  0  0  0  0
   37.4630   24.3360   31.4430 C   0  0  0  0  0  0  0  0  0  0  0  0
   37.0760   25.5860   31.7250 N   0  0  0  0  0  0  0  0  0  0  0  0
   37.1120   26.0530   32.9890 C   0  0  0  0  0  0  0  0  0  0  0  0
   37.5290   25.3300   34.0480 N   0  0  0  0  0  0  0  0  0  0  0  0
   37.9330   24.0490   33.8130 C   0  0  0  0  0  0  0  0  0  0  0  0
   36.6750   27.4280   33.2270 C   0  0  0  0  0  0  0  0  0  0  0  0
   36.2960   27.9970   34.4450 C   0  0  0  0  0  0  0  0  0  0  0  0
   35.9560   29.2950   34.2610 N   0  0  0  0  0  0  0  0  0  0  0  0
   36.1070   29.5740   32.9550 C   0  0  0  0  0  0  0  0  0  0  0  0
   35.8760   30.7720   32.3150 C   0  0  0  0  0  0  0  0  0  0  0  0
   36.0950   30.8480   30.9480 C   0  0  0  0  0  0  0  0  0  0  0  0
   36.5370   29.7220   30.2770 C   0  0  0  0  0  0  0  0  0  0  0  0
   36.7630   28.5220   30.9470 C   0  0  0  0  0  0  0  0  0  0  0  0
   36.5460   28.4450   32.3020 C   0  0  0  0  0  0  0  0  0  0  0  0
   40.6418   22.3024   38.4256 H   0  0  0  0  0  0  0  0  0  0  0  0
   39.1089   23.7066   39.8249 H   0  0  0  0  0  0  0  0  0  0  0  0
   37.1673   24.8507   38.6839 H   0  0  0  0  0  0  0  0  0  0  0  0
   39.0410   21.0341   34.2282 H   0  0  0  0  0  0  0  0  0  0  0  0
   37.4406   23.9353   30.4188 H   0  0  0  0  0  0  0  0  0  0  0  0
   36.2766   27.4694   35.4100 H   0  0  0  0  0  0  0  0  0  0  0  0
   35.6390   29.9499   34.9901 H   0  0  0  0  0  0  0  0  0  0  0  0
   35.5251   31.6501   32.8769 H   0  0  0  0  0  0  0  0  0  0  0  0
   35.9200   31.7889   30.4056 H   0  0  0  0  0  0  0  0  0  0  0  0
   36.7135   29.7754   29.1926 H   0  0  0  0  0  0  0  0  0  0  0  0
   37.1141   27.6387   30.3934 H   0  0  0  0  0  0  0  0  0  0  0  0
  1  2  2  0
  3  2  1  0
  4  3  2  0
  5  6  2  0
  5  4  1  0
  6  1  1  0
  7  5  1  0
  8  7  1  0
  9  8  2  0
 10  9  1  0
 10 15  2  0
 11 12  2  0
 11 10  1  0
 12 13  1  0
 13 16  1  0
 13 14  2  0
 15 14  1  0
 15  7  1  0
 16 17  2  0
 18 17  1  0
 19 18  1  0
 20 19  2  0
 21 20  1  0
 22 23  1  0
 22 21  2  0
 23 24  2  0
 24 19  1  0
 24 16  1  0
  1 25  1  0
  2 26  1  0
  3 27  1  0
  8 28  1  0
 11 29  1  0
 17 30  1  0
 18 31  1  0
 20 32  1  0
 21 33  1  0
 22 34  1  0
 23 35  1  0
M  ISO  8  25  14  26  14  27  14  28  14  29  14  30  14  31   9  32  14
M  ISO  3  33  14  34  14  35  14
M  END
>  <minimizedAffinity>  (1) 
-6.24199963

>  <minimizedRMSD>  (1) 
2.48012638

$$$$
