
     RDKit          3D

 47 50  0  0  0  0  0  0  0  0999 V2000
   37.2610   22.5940   37.2380 C   0  0  0  0  0  0  0  0  0  0  0  0
   36.9540   21.9330   35.9740 C   0  0  0  0  0  0  0  0  0  0  0  0
   35.8750   21.1590   35.7670 C   0  0  0  0  0  0  0  0  0  0  0  0
   35.5910   20.5500   34.5810 C   0  0  0  0  0  0  0  0  0  0  0  0
   36.5690   20.8310   33.5840 C   0  0  0  0  0  0  0  0  0  0  0  0
   37.8270   21.9440   34.4220 S   0  0  0  0  0  0  0  0  0  0  0  0
   36.7260   20.4470   32.2140 C   0  0  0  0  0  0  0  0  0  0  0  0
   36.0270   19.4620   31.5930 C   0  0  0  0  0  0  0  0  0  0  0  0
   36.7400   19.4680   29.8550 S   0  0  0  0  0  0  0  0  0  0  0  0
   37.8840   20.8590   30.3380 C   0  0  0  0  0  0  0  0  0  0  0  0
   37.5710   20.9870   31.4130 N   0  0  0  0  0  0  0  0  0  0  0  0
   38.8420   21.5210   29.4800 N   0  0  0  0  0  0  0  0  0  0  0  0
   39.5510   20.9830   28.3270 C   0  0  0  0  0  0  0  0  0  0  0  0
   40.4990   22.0480   27.8970 C   0  0  0  0  0  0  0  0  0  0  0  0
   40.0400   23.3200   28.5380 C   0  0  0  0  0  0  0  0  0  0  0  0
   39.2100   22.8990   29.7360 C   0  0  0  0  0  0  0  0  0  0  0  0
   38.1590   23.7820   37.1310 C   0  0  0  0  0  0  0  0  0  0  0  0
   41.4490   21.9890   37.2240 C   0  0  0  0  0  0  0  0  0  0  0  0
   40.1540   22.3410   37.5600 C   0  0  0  0  0  0  0  0  0  0  0  0
   39.5200   23.3630   36.8370 C   0  0  0  0  0  0  0  0  0  0  0  0
   40.2120   23.9660   35.8360 N   0  0  0  0  0  0  0  0  0  0  0  0
   41.4740   23.6010   35.5330 C   0  0  0  0  0  0  0  0  0  0  0  0
   42.0890   22.6250   36.2160 N   0  0  0  0  0  0  0  0  0  0  0  0
   38.1580   24.4900   38.4870 C   0  0  0  0  0  0  0  0  0  0  0  0
   37.5570   24.6920   36.0850 C   0  0  0  0  0  0  0  0  0  0  0  0
   36.3133   22.9230   37.6892 H   0  0  0  0  0  0  0  0  0  0  0  0
   37.8030   21.8547   37.8460 H   0  0  0  0  0  0  0  0  0  0  0  0
   35.1790   21.0078   36.6053 H   0  0  0  0  0  0  0  0  0  0  0  0
   34.7086   19.9150   34.4132 H   0  0  0  0  0  0  0  0  0  0  0  0
   35.2367   18.8182   32.0065 H   0  0  0  0  0  0  0  0  0  0  0  0
   40.1004   20.0719   28.6066 H   0  0  0  0  0  0  0  0  0  0  0  0
   38.8575   20.7092   27.5183 H   0  0  0  0  0  0  0  0  0  0  0  0
   41.5190   21.8035   28.2285 H   0  0  0  0  0  0  0  0  0  0  0  0
   40.5163   22.1421   26.8012 H   0  0  0  0  0  0  0  0  0  0  0  0
   40.9034   23.9200   28.8612 H   0  0  0  0  0  0  0  0  0  0  0  0
   39.4595   23.9405   27.8394 H   0  0  0  0  0  0  0  0  0  0  0  0
   38.3118   23.5281   29.8228 H   0  0  0  0  0  0  0  0  0  0  0  0
   39.7661   23.0069   30.6789 H   0  0  0  0  0  0  0  0  0  0  0  0
   41.9605   21.1886   37.7788 H   0  0  0  0  0  0  0  0  0  0  0  0
   39.6301   21.8284   38.3802 H   0  0  0  0  0  0  0  0  0  0  0  0
   42.0055   24.1102   34.7155 H   0  0  0  0  0  0  0  0  0  0  0  0
   38.1591   23.7404   39.2920 H   0  0  0  0  0  0  0  0  0  0  0  0
   39.0553   25.1206   38.5720 H   0  0  0  0  0  0  0  0  0  0  0  0
   37.2590   25.1181   38.5720 H   0  0  0  0  0  0  0  0  0  0  0  0
   37.0150   25.5113   36.5799 H   0  0  0  0  0  0  0  0  0  0  0  0
   38.3580   25.1090   35.4569 H   0  0  0  0  0  0  0  0  0  0  0  0
   36.8599   24.1179   35.4569 H   0  0  0  0  0  0  0  0  0  0  0  0
  2  1  1  0
  3  2  2  0
  4  3  1  0
  5  6  1  0
  5  4  2  0
  6  2  1  0
  7  5  1  0
  8  7  2  0
  9 10  1  0
  9  8  1  0
 10 11  2  0
 11  7  1  0
 12 16  1  0
 12 10  1  0
 13 12  1  0
 14 13  1  0
 14 15  1  0
 15 16  1  0
 17  1  1  0
 17 24  1  0
 18 19  2  0
 20 17  1  0
 20 19  1  0
 21 20  2  0
 22 21  1  0
 22 23  2  0
 23 18  1  0
 25 17  1  0
  1 26  1  0
  1 27  1  0
  3 28  1  0
  4 29  1  0
  8 30  1  0
 13 31  1  0
 13 32  1  0
 14 33  1  0
 14 34  1  0
 15 35  1  0
 15 36  1  0
 16 37  1  0
 16 38  1  0
 18 39  1  0
 19 40  1  0
 22 41  1  0
 24 42  1  0
 24 43  1  0
 24 44  1  0
 25 45  1  0
 25 46  1  0
 25 47  1  0
M  ISO  8  26   8  27   8  28  14  29  14  30  14  31  13  32  13  33  13
M  ISO  8  34  13  35  13  36  13  37  13  38  13  39  14  40  14  41  14
M  ISO  6  42   8  43   8  44   8  45   8  46   8  47   8
M  END
>  <minimizedAffinity>  (1) 
-4.95949459

>  <minimizedRMSD>  (1) 
0.234972104

$$$$
