
     RDKit          3D

 33 36  0  0  0  0  0  0  0  0999 V2000
   39.7440   22.7530   37.9590 C   0  0  0  0  0  0  0  0  0  0  0  0
   38.9670   23.6230   38.7590 C   0  0  0  0  0  0  0  0  0  0  0  0
   37.9340   24.3090   38.1070 C   0  0  0  0  0  0  0  0  0  0  0  0
   37.7320   24.1170   36.7830 N   0  0  0  0  0  0  0  0  0  0  0  0
   38.4940   23.2810   36.0630 C   0  0  0  0  0  0  0  0  0  0  0  0
   39.4880   22.6120   36.6580 N   0  0  0  0  0  0  0  0  0  0  0  0
   38.3210   23.0460   34.6750 N   0  0  0  0  0  0  0  0  0  0  0  0
   38.4990   21.9350   33.9120 C   0  0  0  0  0  0  0  0  0  0  0  0
   38.1950   22.2490   32.6440 N   0  0  0  0  0  0  0  0  0  0  0  0
   37.8190   23.5410   32.5450 C   0  0  0  0  0  0  0  0  0  0  0  0
   37.4210   24.2990   31.4590 C   0  0  0  0  0  0  0  0  0  0  0  0
   37.1120   25.5730   31.7220 N   0  0  0  0  0  0  0  0  0  0  0  0
   37.1880   26.0710   32.9750 C   0  0  0  0  0  0  0  0  0  0  0  0
   37.5780   25.3260   34.0380 N   0  0  0  0  0  0  0  0  0  0  0  0
   37.9020   24.0310   33.8290 C   0  0  0  0  0  0  0  0  0  0  0  0
   36.8480   27.4400   33.2100 N   0  0  0  0  0  0  0  0  0  0  0  0
   36.5720   28.0730   34.5050 C   0  0  0  0  0  0  0  0  0  0  0  0
   35.6940   29.2480   34.2290 C   0  0  0  0  0  0  0  0  0  0  0  0
   35.8040   29.5260   32.7320 C   0  0  0  0  0  0  0  0  0  0  0  0
   36.7100   28.4670   32.1980 C   0  0  0  0  0  0  0  0  0  0  0  0
   40.5689   22.1862   38.4153 H   0  0  0  0  0  0  0  0  0  0  0  0
   39.1629   23.7537   39.8335 H   0  0  0  0  0  0  0  0  0  0  0  0
   37.2897   25.0010   38.6692 H   0  0  0  0  0  0  0  0  0  0  0  0
   38.8337   20.9508   34.2716 H   0  0  0  0  0  0  0  0  0  0  0  0
   37.3624   23.8805   30.4434 H   0  0  0  0  0  0  0  0  0  0  0  0
   36.0588   27.3644   35.1717 H   0  0  0  0  0  0  0  0  0  0  0  0
   37.5038   28.3828   35.0008 H   0  0  0  0  0  0  0  0  0  0  0  0
   34.6527   29.0162   34.4974 H   0  0  0  0  0  0  0  0  0  0  0  0
   36.0010   30.1230   34.8207 H   0  0  0  0  0  0  0  0  0  0  0  0
   34.8148   29.4627   32.2551 H   0  0  0  0  0  0  0  0  0  0  0  0
   36.1915   30.5356   32.5307 H   0  0  0  0  0  0  0  0  0  0  0  0
   36.2786   28.0337   31.2836 H   0  0  0  0  0  0  0  0  0  0  0  0
   37.6933   28.8949   31.9530 H   0  0  0  0  0  0  0  0  0  0  0  0
  1  2  2  0
  3  2  1  0
  4  3  2  0
  5  6  2  0
  5  4  1  0
  6  1  1  0
  7  5  1  0
  8  7  1  0
  9  8  2  0
 10  9  1  0
 10 15  2  0
 11 12  2  0
 11 10  1  0
 12 13  1  0
 13 16  1  0
 13 14  2  0
 15 14  1  0
 15  7  1  0
 16 17  1  0
 18 17  1  0
 19 18  1  0
 20 19  1  0
 20 16  1  0
  1 21  1  0
  2 22  1  0
  3 23  1  0
  8 24  1  0
 11 25  1  0
 17 26  1  0
 17 27  1  0
 18 28  1  0
 18 29  1  0
 19 30  1  0
 19 31  1  0
 20 32  1  0
 20 33  1  0
M  ISO  8  21  14  22  14  23  14  24  14  25  14  26  13  27  13  28  13
M  ISO  5  29  13  30  13  31  13  32  13  33  13
M  END
>  <minimizedAffinity>  (1) 
-5.70245409

>  <minimizedRMSD>  (1) 
2.09114957

$$$$
