
     RDKit          3D

 37 40  0  0  0  0  0  0  0  0999 V2000
   39.6470   22.6760   37.7420 C   0  0  0  0  0  0  0  0  0  0  0  0
   38.9320   23.5820   38.5310 C   0  0  0  0  0  0  0  0  0  0  0  0
   37.9340   24.3130   37.8900 C   0  0  0  0  0  0  0  0  0  0  0  0
   37.7120   24.1120   36.5600 N   0  0  0  0  0  0  0  0  0  0  0  0
   38.4240   23.2280   35.8350 C   0  0  0  0  0  0  0  0  0  0  0  0
   39.3840   22.5230   36.4440 N   0  0  0  0  0  0  0  0  0  0  0  0
   38.2080   23.0050   34.4530 N   0  0  0  0  0  0  0  0  0  0  0  0
   38.3110   21.8760   33.7130 C   0  0  0  0  0  0  0  0  0  0  0  0
   37.9990   22.1940   32.4430 N   0  0  0  0  0  0  0  0  0  0  0  0
   37.6980   23.4940   32.3370 C   0  0  0  0  0  0  0  0  0  0  0  0
   37.3220   24.2740   31.2500 C   0  0  0  0  0  0  0  0  0  0  0  0
   37.0880   25.5770   31.5030 N   0  0  0  0  0  0  0  0  0  0  0  0
   37.2210   26.0580   32.7400 C   0  0  0  0  0  0  0  0  0  0  0  0
   37.5850   25.3280   33.8230 N   0  0  0  0  0  0  0  0  0  0  0  0
   37.8300   24.0120   33.6150 C   0  0  0  0  0  0  0  0  0  0  0  0
   36.9380   27.5170   32.9140 C   0  0  0  0  0  0  0  0  0  0  0  0
   35.7230   27.8660   32.1120 C   0  0  0  0  0  0  0  0  0  0  0  0
   35.3800   29.3330   32.3760 C   0  0  0  0  0  0  0  0  0  0  0  0
   35.1140   29.5590   33.8490 C   0  0  0  0  0  0  0  0  0  0  0  0
   36.2850   29.1140   34.7000 C   0  0  0  0  0  0  0  0  0  0  0  0
   36.5590   27.6770   34.3830 C   0  0  0  0  0  0  0  0  0  0  0  0
   40.4451   22.0755   38.2029 H   0  0  0  0  0  0  0  0  0  0  0  0
   39.1462   23.7110   39.6022 H   0  0  0  0  0  0  0  0  0  0  0  0
   37.3323   25.0437   38.4504 H   0  0  0  0  0  0  0  0  0  0  0  0
   38.5975   20.8803   34.0824 H   0  0  0  0  0  0  0  0  0  0  0  0
   37.2210   23.8515   30.2394 H   0  0  0  0  0  0  0  0  0  0  0  0
   37.7911   28.1410   32.6094 H   0  0  0  0  0  0  0  0  0  0  0  0
   34.8808   27.2265   32.4149 H   0  0  0  0  0  0  0  0  0  0  0  0
   35.9172   27.7085   31.0408 H   0  0  0  0  0  0  0  0  0  0  0  0
   36.2233   29.9645   32.0595 H   0  0  0  0  0  0  0  0  0  0  0  0
   34.4756   29.5946   31.8071 H   0  0  0  0  0  0  0  0  0  0  0  0
   34.9354   30.6309   34.0195 H   0  0  0  0  0  0  0  0  0  0  0  0
   34.2340   28.9645   34.1356 H   0  0  0  0  0  0  0  0  0  0  0  0
   37.1702   29.7242   34.4674 H   0  0  0  0  0  0  0  0  0  0  0  0
   36.0523   29.2349   35.7683 H   0  0  0  0  0  0  0  0  0  0  0  0
   35.6575   27.0821   34.5912 H   0  0  0  0  0  0  0  0  0  0  0  0
   37.3956   27.3284   35.0063 H   0  0  0  0  0  0  0  0  0  0  0  0
  1  2  2  0
  3  2  1  0
  4  3  2  0
  5  6  2  0
  5  4  1  0
  6  1  1  0
  7  5  1  0
  8  7  1  0
  9  8  2  0
 10  9  1  0
 10 15  2  0
 11 12  2  0
 11 10  1  0
 12 13  1  0
 13 16  1  0
 13 14  2  0
 15 14  1  0
 15  7  1  0
 16 21  1  0
 17 18  1  0
 17 16  1  0
 18 19  1  0
 19 20  1  0
 21 20  1  0
  1 22  1  0
  2 23  1  0
  3 24  1  0
  8 25  1  0
 11 26  1  0
 16 27  1  0
 17 28  1  0
 17 29  1  0
 18 30  1  0
 18 31  1  0
 19 32  1  0
 19 33  1  0
 20 34  1  0
 20 35  1  0
 21 36  1  0
 21 37  1  0
M  ISO  8  22  14  23  14  24  14  25  14  26  14  27  13  28  13  29  13
M  ISO  8  30  13  31  13  32  13  33  13  34  13  35  13  36  13  37  13
M  END
>  <minimizedAffinity>  (1) 
-5.64615631

>  <minimizedRMSD>  (1) 
2.16514754

$$$$
