
     RDKit          3D

 34 37  0  0  0  0  0  0  0  0999 V2000
   39.6450   22.6920   37.7790 C   0  0  0  0  0  0  0  0  0  0  0  0
   38.9050   23.5910   38.5810 C   0  0  0  0  0  0  0  0  0  0  0  0
   37.9050   24.3450   37.9570 C   0  0  0  0  0  0  0  0  0  0  0  0
   37.7020   24.1740   36.6260 N   0  0  0  0  0  0  0  0  0  0  0  0
   38.4200   23.3150   35.8970 C   0  0  0  0  0  0  0  0  0  0  0  0
   39.3910   22.5740   36.4740 N   0  0  0  0  0  0  0  0  0  0  0  0
   38.2340   23.1080   34.4900 N   0  0  0  0  0  0  0  0  0  0  0  0
   38.3470   22.0150   33.7210 C   0  0  0  0  0  0  0  0  0  0  0  0
   38.0630   22.3640   32.4590 N   0  0  0  0  0  0  0  0  0  0  0  0
   37.7630   23.6790   32.3820 C   0  0  0  0  0  0  0  0  0  0  0  0
   37.4090   24.4900   31.3040 C   0  0  0  0  0  0  0  0  0  0  0  0
   37.1750   25.7770   31.5960 N   0  0  0  0  0  0  0  0  0  0  0  0
   37.2830   26.2280   32.8550 C   0  0  0  0  0  0  0  0  0  0  0  0
   37.6250   25.4600   33.9150 N   0  0  0  0  0  0  0  0  0  0  0  0
   37.8740   24.1420   33.6790 C   0  0  0  0  0  0  0  0  0  0  0  0
   37.0120   27.6700   33.1290 C   0  0  0  0  0  0  0  0  0  0  0  0
   35.8250   28.1950   32.3420 C   0  0  0  0  0  0  0  0  0  0  0  0
   35.2900   29.3520   33.1770 C   0  0  0  0  0  0  0  0  0  0  0  0
   36.0340   29.3160   34.4960 C   0  0  0  0  0  0  0  0  0  0  0  0
   36.5160   27.8870   34.5450 C   0  0  0  0  0  0  0  0  0  0  0  0
   40.4390   22.0829   38.2357 H   0  0  0  0  0  0  0  0  0  0  0  0
   39.1082   23.6940   39.6572 H   0  0  0  0  0  0  0  0  0  0  0  0
   37.2976   25.0596   38.5318 H   0  0  0  0  0  0  0  0  0  0  0  0
   38.6244   21.0080   34.0661 H   0  0  0  0  0  0  0  0  0  0  0  0
   37.3271   24.0983   30.2794 H   0  0  0  0  0  0  0  0  0  0  0  0
   37.9669   28.1611   32.8902 H   0  0  0  0  0  0  0  0  0  0  0  0
   36.1425   28.5470   31.3494 H   0  0  0  0  0  0  0  0  0  0  0  0
   35.0643   27.4196   32.1685 H   0  0  0  0  0  0  0  0  0  0  0  0
   35.4742   30.3072   32.6636 H   0  0  0  0  0  0  0  0  0  0  0  0
   34.2048   29.2602   33.3317 H   0  0  0  0  0  0  0  0  0  0  0  0
   36.8771   30.0225   34.4988 H   0  0  0  0  0  0  0  0  0  0  0  0
   35.4189   29.6066   35.3604 H   0  0  0  0  0  0  0  0  0  0  0  0
   35.6952   27.1971   34.7906 H   0  0  0  0  0  0  0  0  0  0  0  0
   37.2805   27.7041   35.3145 H   0  0  0  0  0  0  0  0  0  0  0  0
  1  2  2  0
  3  2  1  0
  4  3  2  0
  5  6  2  0
  5  4  1  0
  6  1  1  0
  7  5  1  0
  8  7  1  0
  9  8  2  0
 10  9  1  0
 10 15  2  0
 11 12  2  0
 11 10  1  0
 12 13  1  0
 13 16  1  0
 13 14  2  0
 15 14  1  0
 15  7  1  0
 16 20  1  0
 17 16  1  0
 17 18  1  0
 18 19  1  0
 19 20  1  0
  1 21  1  0
  2 22  1  0
  3 23  1  0
  8 24  1  0
 11 25  1  0
 16 26  1  0
 17 27  1  0
 17 28  1  0
 18 29  1  0
 18 30  1  0
 19 31  1  0
 19 32  1  0
 20 33  1  0
 20 34  1  0
M  ISO  8  21  14  22  14  23  14  24  14  25  14  26  13  27  13  28  13
M  ISO  6  29  13  30  13  31  13  32  13  33  13  34  13
M  END
>  <minimizedAffinity>  (1) 
-5.50172472

>  <minimizedRMSD>  (1) 
2.2389102

$$$$
