
     RDKit          3D

 27 30  0  0  0  0  0  0  0  0999 V2000
   39.8560   22.6890   37.7510 C   0  0  0  0  0  0  0  0  0  0  0  0
   38.9600   23.4280   38.5330 C   0  0  0  0  0  0  0  0  0  0  0  0
   37.8860   23.9900   37.8590 C   0  0  0  0  0  0  0  0  0  0  0  0
   37.7380   23.8140   36.5130 N   0  0  0  0  0  0  0  0  0  0  0  0
   38.6340   23.0900   35.8080 C   0  0  0  0  0  0  0  0  0  0  0  0
   39.6870   22.5310   36.4330 N   0  0  0  0  0  0  0  0  0  0  0  0
   38.5310   22.8720   34.4060 N   0  0  0  0  0  0  0  0  0  0  0  0
   38.8610   21.8200   33.6410 C   0  0  0  0  0  0  0  0  0  0  0  0
   38.5590   22.1280   32.3660 N   0  0  0  0  0  0  0  0  0  0  0  0
   38.0360   23.3680   32.2800 C   0  0  0  0  0  0  0  0  0  0  0  0
   37.5850   24.1000   31.1930 C   0  0  0  0  0  0  0  0  0  0  0  0
   37.1200   25.3240   31.4750 N   0  0  0  0  0  0  0  0  0  0  0  0
   37.1010   25.7870   32.7370 C   0  0  0  0  0  0  0  0  0  0  0  0
   37.5380   25.0810   33.8030 N   0  0  0  0  0  0  0  0  0  0  0  0
   38.0270   23.8200   33.5750 C   0  0  0  0  0  0  0  0  0  0  0  0
   36.6230   27.0730   33.1190 N   0  0  0  0  0  0  0  0  0  0  0  0
   36.8510   27.5050   34.3910 C   0  0  0  0  0  0  0  0  0  0  0  0
   36.3210   28.7380   34.5460 N   0  0  0  0  0  0  0  0  0  0  0  0
   35.7630   29.0690   33.3630 C   0  0  0  0  0  0  0  0  0  0  0  0
   35.9500   28.0550   32.5040 N   0  0  0  0  0  0  0  0  0  0  0  0
   40.7268   22.2234   38.2356 H   0  0  0  0  0  0  0  0  0  0  0  0
   39.0995   23.5552   39.6167 H   0  0  0  0  0  0  0  0  0  0  0  0
   37.1454   24.5839   38.4147 H   0  0  0  0  0  0  0  0  0  0  0  0
   39.2999   20.8748   33.9930 H   0  0  0  0  0  0  0  0  0  0  0  0
   37.6074   23.7025   30.1676 H   0  0  0  0  0  0  0  0  0  0  0  0
   37.3831   26.9387   35.1695 H   0  0  0  0  0  0  0  0  0  0  0  0
   35.2421   30.0119   33.1400 H   0  0  0  0  0  0  0  0  0  0  0  0
  1  2  2  0
  3  2  1  0
  4  3  2  0
  5  6  2  0
  5  4  1  0
  6  1  1  0
  7  5  1  0
  8  7  1  0
  9  8  2  0
 10  9  1  0
 10 15  2  0
 11 12  2  0
 11 10  1  0
 12 13  1  0
 13 16  1  0
 13 14  2  0
 15 14  1  0
 15  7  1  0
 16 17  1  0
 17 18  2  0
 19 18  1  0
 20 16  1  0
 20 19  2  0
  1 21  1  0
  2 22  1  0
  3 23  1  0
  8 24  1  0
 11 25  1  0
 17 26  1  0
 19 27  1  0
M  ISO  7  21  14  22  14  23  14  24  14  25  14  26  14  27  14
M  END
>  <minimizedAffinity>  (1) 
-5.44635963

>  <minimizedRMSD>  (1) 
2.30058289

$$$$
