
     RDKit          3D

 35 38  0  0  0  0  0  0  0  0999 V2000
   39.8480   22.7980   37.8030 C   0  0  0  0  0  0  0  0  0  0  0  0
   38.7370   23.3880   38.4350 C   0  0  0  0  0  0  0  0  0  0  0  0
   37.6620   23.7680   37.6130 C   0  0  0  0  0  0  0  0  0  0  0  0
   37.7460   23.5510   36.2710 N   0  0  0  0  0  0  0  0  0  0  0  0
   38.8320   22.9830   35.7070 C   0  0  0  0  0  0  0  0  0  0  0  0
   39.8520   22.6220   36.4850 N   0  0  0  0  0  0  0  0  0  0  0  0
   38.9460   22.7430   34.3150 N   0  0  0  0  0  0  0  0  0  0  0  0
   39.5410   21.7230   33.6410 C   0  0  0  0  0  0  0  0  0  0  0  0
   39.3670   21.9610   32.3290 N   0  0  0  0  0  0  0  0  0  0  0  0
   38.6770   23.1040   32.1320 C   0  0  0  0  0  0  0  0  0  0  0  0
   38.2680   23.7430   30.9700 C   0  0  0  0  0  0  0  0  0  0  0  0
   37.5920   24.8860   31.1530 N   0  0  0  0  0  0  0  0  0  0  0  0
   37.3430   25.3500   32.3730 C   0  0  0  0  0  0  0  0  0  0  0  0
   37.7290   24.7480   33.5200 N   0  0  0  0  0  0  0  0  0  0  0  0
   38.4170   23.5880   33.4010 C   0  0  0  0  0  0  0  0  0  0  0  0
   36.6210   26.5700   32.4980 N   0  0  0  0  0  0  0  0  0  0  0  0
   35.6240   27.0450   31.5580 C   0  0  0  0  0  0  0  0  0  0  0  0
   36.1660   28.3250   31.0000 C   0  0  0  0  0  0  0  0  0  0  0  0
   36.3180   29.3030   32.0190 N   0  0  0  0  0  0  0  0  0  0  0  0
   36.3310   28.8480   33.3640 C   0  0  0  0  0  0  0  0  0  0  0  0
   36.8230   27.4670   33.6060 C   0  0  0  0  0  0  0  0  0  0  0  0
   40.7153   22.4817   38.4012 H   0  0  0  0  0  0  0  0  0  0  0  0
   38.7113   23.5446   39.5235 H   0  0  0  0  0  0  0  0  0  0  0  0
   36.7654   24.2341   38.0475 H   0  0  0  0  0  0  0  0  0  0  0  0
   40.0660   20.8646   34.0854 H   0  0  0  0  0  0  0  0  0  0  0  0
   38.4833   23.3400   29.9694 H   0  0  0  0  0  0  0  0  0  0  0  0
   35.4747   26.3095   30.7538 H   0  0  0  0  0  0  0  0  0  0  0  0
   34.6489   27.1962   32.0441 H   0  0  0  0  0  0  0  0  0  0  0  0
   37.1460   28.1300   30.5401 H   0  0  0  0  0  0  0  0  0  0  0  0
   35.4570   28.7078   30.2512 H   0  0  0  0  0  0  0  0  0  0  0  0
   37.2093   29.7905   31.8490 H   0  0  0  0  0  0  0  0  0  0  0  0
   36.9705   29.5334   33.9396 H   0  0  0  0  0  0  0  0  0  0  0  0
   35.2744   28.8316   33.6694 H   0  0  0  0  0  0  0  0  0  0  0  0
   36.2948   27.0602   34.4809 H   0  0  0  0  0  0  0  0  0  0  0  0
   37.9094   27.5394   33.7624 H   0  0  0  0  0  0  0  0  0  0  0  0
  1  2  2  0
  3  2  1  0
  4  3  2  0
  5  4  1  0
  5  6  2  0
  6  1  1  0
  7  5  1  0
  8  7  1  0
  9  8  2  0
 10  9  1  0
 10 15  2  0
 11 12  2  0
 11 10  1  0
 12 13  1  0
 13 16  1  0
 13 14  2  0
 15 14  1  0
 15  7  1  0
 16 21  1  0
 17 16  1  0
 18 17  1  0
 18 19  1  0
 19 20  1  0
 20 21  1  0
  1 22  1  0
  2 23  1  0
  3 24  1  0
  8 25  1  0
 11 26  1  0
 17 27  1  0
 17 28  1  0
 18 29  1  0
 18 30  1  0
 19 31  1  0
 20 32  1  0
 20 33  1  0
 21 34  1  0
 21 35  1  0
M  ISO  8  22  14  23  14  24  14  25  14  26  14  27  13  28  13  29  13
M  ISO  6  30  13  31   5  32  13  33  13  34  13  35  13
M  END
>  <minimizedAffinity>  (1) 
-5.33829117

>  <minimizedRMSD>  (1) 
2.98671865

$$$$
