
     RDKit          3D

 30 32  0  0  0  0  0  0  0  0999 V2000
   39.6390   22.6940   37.7880 C   0  0  0  0  0  0  0  0  0  0  0  0
   38.9150   23.5730   38.6020 C   0  0  0  0  0  0  0  0  0  0  0  0
   37.9220   24.3190   37.9840 C   0  0  0  0  0  0  0  0  0  0  0  0
   37.6930   24.1750   36.6460 N   0  0  0  0  0  0  0  0  0  0  0  0
   38.4190   23.3150   35.9040 C   0  0  0  0  0  0  0  0  0  0  0  0
   39.3890   22.5780   36.4820 N   0  0  0  0  0  0  0  0  0  0  0  0
   38.2260   23.1200   34.5010 N   0  0  0  0  0  0  0  0  0  0  0  0
   38.3450   22.0390   33.7170 C   0  0  0  0  0  0  0  0  0  0  0  0
   38.0490   22.4040   32.4680 N   0  0  0  0  0  0  0  0  0  0  0  0
   37.7340   23.7090   32.4030 C   0  0  0  0  0  0  0  0  0  0  0  0
   37.3630   24.5300   31.3350 C   0  0  0  0  0  0  0  0  0  0  0  0
   37.1180   25.8120   31.6460 N   0  0  0  0  0  0  0  0  0  0  0  0
   37.2310   26.2450   32.9080 C   0  0  0  0  0  0  0  0  0  0  0  0
   37.5880   25.4710   33.9530 N   0  0  0  0  0  0  0  0  0  0  0  0
   37.8510   24.1520   33.6960 C   0  0  0  0  0  0  0  0  0  0  0  0
   36.9370   27.6860   33.1450 C   0  0  0  0  0  0  0  0  0  0  0  0
   36.6440   28.0170   34.5710 C   0  0  0  0  0  0  0  0  0  0  0  0
   35.8180   28.0870   32.1940 C   0  0  0  0  0  0  0  0  0  0  0  0
   40.4355   22.0823   38.2368 H   0  0  0  0  0  0  0  0  0  0  0  0
   39.1231   23.6675   39.6780 H   0  0  0  0  0  0  0  0  0  0  0  0
   37.3192   25.0266   38.5722 H   0  0  0  0  0  0  0  0  0  0  0  0
   38.6352   21.0300   34.0451 H   0  0  0  0  0  0  0  0  0  0  0  0
   37.2774   24.1501   30.3063 H   0  0  0  0  0  0  0  0  0  0  0  0
   37.8393   28.2788   32.9344 H   0  0  0  0  0  0  0  0  0  0  0  0
   37.2286   27.3566   35.2283 H   0  0  0  0  0  0  0  0  0  0  0  0
   36.9163   29.0645   34.7677 H   0  0  0  0  0  0  0  0  0  0  0  0
   35.5712   27.8739   34.7677 H   0  0  0  0  0  0  0  0  0  0  0  0
   34.9386   28.4022   32.7748 H   0  0  0  0  0  0  0  0  0  0  0  0
   36.1564   28.9198   31.5600 H   0  0  0  0  0  0  0  0  0  0  0  0
   35.5504   27.2288   31.5600 H   0  0  0  0  0  0  0  0  0  0  0  0
  1  2  2  0
  3  2  1  0
  4  3  2  0
  5  6  2  0
  5  4  1  0
  6  1  1  0
  7  5  1  0
  8  7  1  0
  9  8  2  0
 10  9  1  0
 10 15  2  0
 11 12  2  0
 11 10  1  0
 12 13  1  0
 13 16  1  0
 13 14  2  0
 15 14  1  0
 15  7  1  0
 16 17  1  0
 18 16  1  0
  1 19  1  0
  2 20  1  0
  3 21  1  0
  8 22  1  0
 11 23  1  0
 16 24  1  0
 17 25  1  0
 17 26  1  0
 17 27  1  0
 18 28  1  0
 18 29  1  0
 18 30  1  0
M  ISO  8  19  14  20  14  21  14  22  14  23  14  24   8  25   8  26   8
M  ISO  4  27   8  28   8  29   8  30   8
M  END
>  <minimizedAffinity>  (1) 
-4.97089386

>  <minimizedRMSD>  (1) 
1.88965499

$$$$
