
     RDKit          3D

 23 25  0  0  0  0  0  0  0  0999 V2000
   39.7210   22.8350   37.7030 C   0  0  0  0  0  0  0  0  0  0  0  0
   38.9390   23.3560   38.7390 C   0  0  0  0  0  0  0  0  0  0  0  0
   37.8570   24.1330   38.3550 C   0  0  0  0  0  0  0  0  0  0  0  0
   37.6030   24.3530   37.0330 N   0  0  0  0  0  0  0  0  0  0  0  0
   38.3970   23.8220   36.0710 C   0  0  0  0  0  0  0  0  0  0  0  0
   39.4450   23.0710   36.4120 N   0  0  0  0  0  0  0  0  0  0  0  0
   38.1690   24.0270   34.6790 N   0  0  0  0  0  0  0  0  0  0  0  0
   38.3580   23.2130   33.6220 C   0  0  0  0  0  0  0  0  0  0  0  0
   37.9870   23.8860   32.5200 N   0  0  0  0  0  0  0  0  0  0  0  0
   37.5560   25.1310   32.8370 C   0  0  0  0  0  0  0  0  0  0  0  0
   37.0840   26.1680   32.0450 C   0  0  0  0  0  0  0  0  0  0  0  0
   36.7400   27.2850   32.7080 N   0  0  0  0  0  0  0  0  0  0  0  0
   36.8560   27.3610   34.0330 C   0  0  0  0  0  0  0  0  0  0  0  0
   37.3140   26.3630   34.8200 N   0  0  0  0  0  0  0  0  0  0  0  0
   37.6760   25.2110   34.2120 C   0  0  0  0  0  0  0  0  0  0  0  0
   36.4650   28.6070   34.6890 C   0  0  0  0  0  0  0  0  0  0  0  0
   35.4080   29.2400   34.4300 O   0  0  0  0  0  0  0  0  0  0  0  0
   40.5911   22.2111   37.9554 H   0  0  0  0  0  0  0  0  0  0  0  0
   39.1691   23.1606   39.7968 H   0  0  0  0  0  0  0  0  0  0  0  0
   37.2006   24.5740   39.1196 H   0  0  0  0  0  0  0  0  0  0  0  0
   38.7457   22.1841   33.6553 H   0  0  0  0  0  0  0  0  0  0  0  0
   36.9976   26.0818   30.9518 H   0  0  0  0  0  0  0  0  0  0  0  0
   37.1365   29.0176   35.4574 H   0  0  0  0  0  0  0  0  0  0  0  0
  1  2  2  0
  3  2  1  0
  4  3  2  0
  5  6  2  0
  5  4  1  0
  6  1  1  0
  7  5  1  0
  8  7  1  0
  9 10  1  0
  9  8  2  0
 10 15  2  0
 11 12  2  0
 11 10  1  0
 12 13  1  0
 13 16  1  0
 13 14  2  0
 15  7  1  0
 15 14  1  0
 17 16  2  0
  1 18  1  0
  2 19  1  0
  3 20  1  0
  8 21  1  0
 11 22  1  0
 16 23  1  0
M  ISO  6  18  14  19  14  20  14  21  14  22  14  23   6
M  END
>  <minimizedAffinity>  (1) 
-4.66009092

>  <minimizedRMSD>  (1) 
0.529953361

$$$$
