
     RDKit          3D

 47 51  0  0  0  0  0  0  0  0999 V2000
   39.6310   22.9200   37.8350 C   0  0  0  0  0  0  0  0  0  0  0  0
   38.8400   23.8410   38.5460 C   0  0  0  0  0  0  0  0  0  0  0  0
   37.8530   24.4440   37.8380 C   0  0  0  0  0  0  0  0  0  0  0  0
   37.6810   24.1430   36.5230 N   0  0  0  0  0  0  0  0  0  0  0  0
   38.4780   23.2380   35.8720 C   0  0  0  0  0  0  0  0  0  0  0  0
   39.4380   22.6400   36.5300 N   0  0  0  0  0  0  0  0  0  0  0  0
   38.2560   22.8760   34.5110 N   0  0  0  0  0  0  0  0  0  0  0  0
   38.2740   21.6650   33.9180 C   0  0  0  0  0  0  0  0  0  0  0  0
   37.8270   21.8250   32.6450 N   0  0  0  0  0  0  0  0  0  0  0  0
   37.5240   23.1320   32.4180 C   0  0  0  0  0  0  0  0  0  0  0  0
   37.0210   23.7870   31.3250 C   0  0  0  0  0  0  0  0  0  0  0  0
   36.8420   25.0760   31.4860 N   0  0  0  0  0  0  0  0  0  0  0  0
   37.1000   25.7410   32.5540 C   0  0  0  0  0  0  0  0  0  0  0  0
   37.5940   25.1030   33.6550 N   0  0  0  0  0  0  0  0  0  0  0  0
   37.8100   23.7640   33.6040 C   0  0  0  0  0  0  0  0  0  0  0  0
   36.9130   27.1510   32.9710 C   0  0  0  0  0  0  0  0  0  0  0  0
   36.1470   27.5230   34.0250 N   0  0  0  0  0  0  0  0  0  0  0  0
   35.5960   28.7340   34.2180 C   0  0  0  0  0  0  0  0  0  0  0  0
   35.7770   29.7200   33.3110 N   0  0  0  0  0  0  0  0  0  0  0  0
   36.5400   29.4340   32.2230 C   0  0  0  0  0  0  0  0  0  0  0  0
   36.6520   30.4000   31.2760 C   0  0  0  0  0  0  0  0  0  0  0  0
   37.3830   30.1080   30.1250 C   0  0  0  0  0  0  0  0  0  0  0  0
   37.9700   28.8750   30.0040 C   0  0  0  0  0  0  0  0  0  0  0  0
   37.8120   27.9510   31.0050 C   0  0  0  0  0  0  0  0  0  0  0  0
   37.0950   28.1710   32.0950 C   0  0  0  0  0  0  0  0  0  0  0  0
   38.9560   26.9420   30.9110 C   0  0  0  0  0  0  0  0  0  0  0  0
   39.1270   26.1620   29.6850 C   0  0  0  0  0  0  0  0  0  0  0  0
   40.0670   26.7830   31.9200 C   0  0  0  0  0  0  0  0  0  0  0  0
   39.9410   28.1310   30.2420 C   0  0  0  0  0  0  0  0  0  0  0  0
   40.4439   22.4049   38.3678 H   0  0  0  0  0  0  0  0  0  0  0  0
   39.0116   24.0585   39.6105 H   0  0  0  0  0  0  0  0  0  0  0  0
   37.1925   25.1755   38.3266 H   0  0  0  0  0  0  0  0  0  0  0  0
   38.5927   20.7194   34.3809 H   0  0  0  0  0  0  0  0  0  0  0  0
   36.7850   23.2704   30.3830 H   0  0  0  0  0  0  0  0  0  0  0  0
   34.9944   28.9237   35.1192 H   0  0  0  0  0  0  0  0  0  0  0  0
   36.1800   31.3842   31.4125 H   0  0  0  0  0  0  0  0  0  0  0  0
   37.4872   30.8563   29.3255 H   0  0  0  0  0  0  0  0  0  0  0  0
   38.5631   28.6287   29.1109 H   0  0  0  0  0  0  0  0  0  0  0  0
   39.3559   25.1177   29.9438 H   0  0  0  0  0  0  0  0  0  0  0  0
   38.1995   26.1986   29.0947 H   0  0  0  0  0  0  0  0  0  0  0  0
   39.9541   26.5833   29.0947 H   0  0  0  0  0  0  0  0  0  0  0  0
   39.6505   26.8426   32.9364 H   0  0  0  0  0  0  0  0  0  0  0  0
   40.5529   25.8062   31.7795 H   0  0  0  0  0  0  0  0  0  0  0  0
   40.8074   27.5843   31.7795 H   0  0  0  0  0  0  0  0  0  0  0  0
   40.4187   28.7076   31.0478 H   0  0  0  0  0  0  0  0  0  0  0  0
   40.7158   27.6584   29.6204 H   0  0  0  0  0  0  0  0  0  0  0  0
   39.3325   28.8043   29.6204 H   0  0  0  0  0  0  0  0  0  0  0  0
  1  2  2  0
  3  2  1  0
  4  3  2  0
  5  4  1  0
  5  6  2  0
  6  1  1  0
  7  5  1  0
  8  7  1  0
  9  8  2  0
 10  9  1  0
 10 15  2  0
 11 12  2  0
 11 10  1  0
 12 13  1  0
 13 16  1  0
 13 14  2  0
 15 14  1  0
 15  7  1  0
 16 17  2  0
 17 18  1  0
 19 18  2  0
 20 19  1  0
 21 20  2  0
 22 21  1  0
 23 22  2  0
 23 24  1  0
 24 25  2  0
 25 20  1  0
 25 16  1  0
 26 24  1  0
 26 28  1  0
 27 26  1  0
 29 26  1  0
  1 30  1  0
  2 31  1  0
  3 32  1  0
  8 33  1  0
 11 34  1  0
 18 35  1  0
 21 36  1  0
 22 37  1  0
 23 38  1  0
 27 39  1  0
 27 40  1  0
 27 41  1  0
 28 42  1  0
 28 43  1  0
 28 44  1  0
 29 45  1  0
 29 46  1  0
 29 47  1  0
M  ISO  8  30  14  31  14  32  14  33  14  34  14  35  14  36  14  37  14
M  ISO  8  38  14  39   8  40   8  41   8  42   8  43   8  44   8  45   8
M  ISO  2  46   8  47   8
M  END
>  <minimizedAffinity>  (1) 
-6.22893

>  <minimizedRMSD>  (1) 
0.611564219

$$$$
