
     RDKit          3D

 38 42  0  0  0  0  0  0  0  0999 V2000
   39.7060   22.7790   37.5980 C   0  0  0  0  0  0  0  0  0  0  0  0
   38.9080   23.6560   38.3510 C   0  0  0  0  0  0  0  0  0  0  0  0
   37.9000   24.2790   37.6810 C   0  0  0  0  0  0  0  0  0  0  0  0
   37.7240   24.0290   36.3600 N   0  0  0  0  0  0  0  0  0  0  0  0
   38.5240   23.1660   35.6620 C   0  0  0  0  0  0  0  0  0  0  0  0
   39.4940   22.5610   36.2870 N   0  0  0  0  0  0  0  0  0  0  0  0
   38.3110   22.8610   34.2840 N   0  0  0  0  0  0  0  0  0  0  0  0
   38.3800   21.6940   33.6240 C   0  0  0  0  0  0  0  0  0  0  0  0
   37.9490   21.9090   32.3530 N   0  0  0  0  0  0  0  0  0  0  0  0
   37.6040   23.2110   32.1900 C   0  0  0  0  0  0  0  0  0  0  0  0
   37.0960   23.9100   31.1080 C   0  0  0  0  0  0  0  0  0  0  0  0
   36.8690   25.1780   31.3380 N   0  0  0  0  0  0  0  0  0  0  0  0
   37.0890   25.7840   32.4670 C   0  0  0  0  0  0  0  0  0  0  0  0
   37.5830   25.1070   33.5370 N   0  0  0  0  0  0  0  0  0  0  0  0
   37.8470   23.7880   33.4210 C   0  0  0  0  0  0  0  0  0  0  0  0
   36.8320   27.1660   32.9350 C   0  0  0  0  0  0  0  0  0  0  0  0
   36.2500   27.4900   34.1030 N   0  0  0  0  0  0  0  0  0  0  0  0
   35.7670   28.6830   34.4440 C   0  0  0  0  0  0  0  0  0  0  0  0
   35.8320   29.7190   33.5740 N   0  0  0  0  0  0  0  0  0  0  0  0
   36.4100   29.4920   32.3660 C   0  0  0  0  0  0  0  0  0  0  0  0
   36.4700   30.5330   31.4990 C   0  0  0  0  0  0  0  0  0  0  0  0
   37.0640   30.3540   30.2590 C   0  0  0  0  0  0  0  0  0  0  0  0
   37.5820   29.1200   29.9640 C   0  0  0  0  0  0  0  0  0  0  0  0
   37.4830   28.1150   30.8910 C   0  0  0  0  0  0  0  0  0  0  0  0
   36.8930   28.2340   32.1000 C   0  0  0  0  0  0  0  0  0  0  0  0
   38.3860   27.0030   30.4380 C   0  0  0  0  0  0  0  0  0  0  0  0
   40.5327   22.2522   38.0971 H   0  0  0  0  0  0  0  0  0  0  0  0
   39.0876   23.8297   39.4223 H   0  0  0  0  0  0  0  0  0  0  0  0
   37.2341   24.9791   38.2067 H   0  0  0  0  0  0  0  0  0  0  0  0
   38.7240   20.7347   34.0380 H   0  0  0  0  0  0  0  0  0  0  0  0
   36.8993   23.4377   30.1342 H   0  0  0  0  0  0  0  0  0  0  0  0
   35.3136   28.8277   35.4357 H   0  0  0  0  0  0  0  0  0  0  0  0
   36.0509   31.5113   31.7772 H   0  0  0  0  0  0  0  0  0  0  0  0
   37.1179   31.1786   29.5330 H   0  0  0  0  0  0  0  0  0  0  0  0
   38.0710   28.9383   28.9956 H   0  0  0  0  0  0  0  0  0  0  0  0
   38.8035   26.4889   31.3163 H   0  0  0  0  0  0  0  0  0  0  0  0
   37.8106   26.2868   29.8330 H   0  0  0  0  0  0  0  0  0  0  0  0
   39.2050   27.4192   29.8330 H   0  0  0  0  0  0  0  0  0  0  0  0
  1  2  2  0
  3  2  1  0
  4  3  2  0
  5  6  2  0
  5  4  1  0
  6  1  1  0
  7  5  1  0
  8  7  1  0
  9  8  2  0
 10  9  1  0
 10 15  2  0
 11 12  2  0
 11 10  1  0
 12 13  1  0
 13 16  1  0
 13 14  2  0
 15 14  1  0
 15  7  1  0
 16 17  2  0
 17 18  1  0
 19 18  2  0
 20 19  1  0
 21 20  2  0
 22 21  1  0
 23 22  2  0
 23 24  1  0
 24 25  2  0
 25 20  1  0
 25 16  1  0
 26 24  1  0
  1 27  1  0
  2 28  1  0
  3 29  1  0
  8 30  1  0
 11 31  1  0
 18 32  1  0
 21 33  1  0
 22 34  1  0
 23 35  1  0
 26 36  1  0
 26 37  1  0
 26 38  1  0
M  ISO  8  27  14  28  14  29  14  30  14  31  14  32  14  33  14  34  14
M  ISO  4  35  14  36   8  37   8  38   8
M  END
>  <minimizedAffinity>  (1) 
-6.20289516

>  <minimizedRMSD>  (1) 
0.403790593

$$$$
