
     RDKit          3D

 38 42  0  0  0  0  0  0  0  0999 V2000
   39.5930   22.9200   37.6690 C   0  0  0  0  0  0  0  0  0  0  0  0
   38.7460   23.7750   38.3950 C   0  0  0  0  0  0  0  0  0  0  0  0
   37.7480   24.3760   37.6910 C   0  0  0  0  0  0  0  0  0  0  0  0
   37.6290   24.1220   36.3650 N   0  0  0  0  0  0  0  0  0  0  0  0
   38.4710   23.2830   35.6900 C   0  0  0  0  0  0  0  0  0  0  0  0
   39.4310   22.7030   36.3500 N   0  0  0  0  0  0  0  0  0  0  0  0
   38.3120   22.9780   34.3060 N   0  0  0  0  0  0  0  0  0  0  0  0
   38.4300   21.8140   33.6480 C   0  0  0  0  0  0  0  0  0  0  0  0
   38.0340   22.0210   32.3640 N   0  0  0  0  0  0  0  0  0  0  0  0
   37.6620   23.3160   32.1940 C   0  0  0  0  0  0  0  0  0  0  0  0
   37.1710   24.0050   31.0990 C   0  0  0  0  0  0  0  0  0  0  0  0
   36.9080   25.2660   31.3240 N   0  0  0  0  0  0  0  0  0  0  0  0
   37.0800   25.8770   32.4580 C   0  0  0  0  0  0  0  0  0  0  0  0
   37.5550   25.2100   33.5420 N   0  0  0  0  0  0  0  0  0  0  0  0
   37.8550   23.8930   33.4320 C   0  0  0  0  0  0  0  0  0  0  0  0
   36.7990   27.2600   32.9290 C   0  0  0  0  0  0  0  0  0  0  0  0
   36.0670   27.5600   34.0140 N   0  0  0  0  0  0  0  0  0  0  0  0
   35.5260   28.7490   34.2950 C   0  0  0  0  0  0  0  0  0  0  0  0
   35.6860   29.7940   33.4500 N   0  0  0  0  0  0  0  0  0  0  0  0
   36.4150   29.5850   32.3320 C   0  0  0  0  0  0  0  0  0  0  0  0
   36.5400   30.6190   31.4550 C   0  0  0  0  0  0  0  0  0  0  0  0
   37.2540   30.4370   30.2840 C   0  0  0  0  0  0  0  0  0  0  0  0
   37.8280   29.2190   30.0500 C   0  0  0  0  0  0  0  0  0  0  0  0
   37.6640   28.2190   30.9750 C   0  0  0  0  0  0  0  0  0  0  0  0
   36.9570   28.3360   32.1120 C   0  0  0  0  0  0  0  0  0  0  0  0
   38.7220   27.1600   30.7140 C   0  0  0  0  0  0  0  0  0  0  0  0
   38.7550   26.6690   29.4480 F   0  0  0  0  0  0  0  0  0  0  0  0
   39.7470   28.2040   30.2220 F   0  0  0  0  0  0  0  0  0  0  0  0
   39.7220   26.8960   31.5870 F   0  0  0  0  0  0  0  0  0  0  0  0
   40.4145   22.4119   38.1952 H   0  0  0  0  0  0  0  0  0  0  0  0
   38.8821   23.9489   39.4726 H   0  0  0  0  0  0  0  0  0  0  0  0
   37.0467   25.0594   38.1921 H   0  0  0  0  0  0  0  0  0  0  0  0
   38.7839   20.8626   34.0719 H   0  0  0  0  0  0  0  0  0  0  0  0
   37.0146   23.5305   30.1190 H   0  0  0  0  0  0  0  0  0  0  0  0
   34.9460   28.8795   35.2205 H   0  0  0  0  0  0  0  0  0  0  0  0
   36.0767   31.5919   31.6759 H   0  0  0  0  0  0  0  0  0  0  0  0
   37.3575   31.2556   29.5565 H   0  0  0  0  0  0  0  0  0  0  0  0
   38.4122   29.0432   29.1347 H   0  0  0  0  0  0  0  0  0  0  0  0
  1  2  2  0
  3  2  1  0
  4  3  2  0
  5  6  2  0
  5  4  1  0
  6  1  1  0
  7  5  1  0
  8  7  1  0
  9  8  2  0
 10  9  1  0
 10 15  2  0
 11 12  2  0
 11 10  1  0
 12 13  1  0
 13 16  1  0
 13 14  2  0
 15 14  1  0
 15  7  1  0
 16 17  2  0
 17 18  1  0
 19 18  2  0
 20 19  1  0
 21 20  2  0
 22 21  1  0
 23 22  2  0
 23 24  1  0
 24 25  2  0
 25 20  1  0
 25 16  1  0
 26 24  1  0
 26 29  1  0
 27 26  1  0
 28 26  1  0
  1 30  1  0
  2 31  1  0
  3 32  1  0
  8 33  1  0
 11 34  1  0
 18 35  1  0
 21 36  1  0
 22 37  1  0
 23 38  1  0
M  ISO  8  30  14  31  14  32  14  33  14  34  14  35  14  36  14  37  14
M  ISO  1  38  14
M  END
>  <minimizedAffinity>  (1) 
-6.12454557

>  <minimizedRMSD>  (1) 
0.715044856

$$$$
