
     RDKit          3D

 41 45  0  0  0  0  0  0  0  0999 V2000
   39.7180   22.7650   37.5730 C   0  0  0  0  0  0  0  0  0  0  0  0
   38.9610   23.6680   38.3340 C   0  0  0  0  0  0  0  0  0  0  0  0
   37.9600   24.3030   37.6800 C   0  0  0  0  0  0  0  0  0  0  0  0
   37.7430   24.0420   36.3610 N   0  0  0  0  0  0  0  0  0  0  0  0
   38.5000   23.1570   35.6510 C   0  0  0  0  0  0  0  0  0  0  0  0
   39.4690   22.5390   36.2720 N   0  0  0  0  0  0  0  0  0  0  0  0
   38.2600   22.8550   34.2820 N   0  0  0  0  0  0  0  0  0  0  0  0
   38.2970   21.6860   33.6270 C   0  0  0  0  0  0  0  0  0  0  0  0
   37.8670   21.9070   32.3560 N   0  0  0  0  0  0  0  0  0  0  0  0
   37.5540   23.2190   32.1930 C   0  0  0  0  0  0  0  0  0  0  0  0
   37.0520   23.9280   31.1070 C   0  0  0  0  0  0  0  0  0  0  0  0
   36.8520   25.1990   31.3410 N   0  0  0  0  0  0  0  0  0  0  0  0
   37.0880   25.8020   32.4680 C   0  0  0  0  0  0  0  0  0  0  0  0
   37.5760   25.1170   33.5390 N   0  0  0  0  0  0  0  0  0  0  0  0
   37.8160   23.7900   33.4180 C   0  0  0  0  0  0  0  0  0  0  0  0
   36.8390   27.1850   32.9430 C   0  0  0  0  0  0  0  0  0  0  0  0
   36.2580   27.5050   34.1170 N   0  0  0  0  0  0  0  0  0  0  0  0
   35.7660   28.6970   34.4550 C   0  0  0  0  0  0  0  0  0  0  0  0
   35.8170   29.7300   33.5850 N   0  0  0  0  0  0  0  0  0  0  0  0
   36.3910   29.5020   32.3770 C   0  0  0  0  0  0  0  0  0  0  0  0
   36.4500   30.5480   31.5030 C   0  0  0  0  0  0  0  0  0  0  0  0
   37.0610   30.3670   30.2680 C   0  0  0  0  0  0  0  0  0  0  0  0
   37.5920   29.1430   29.9780 C   0  0  0  0  0  0  0  0  0  0  0  0
   37.4940   28.1320   30.9030 C   0  0  0  0  0  0  0  0  0  0  0  0
   36.8910   28.2430   32.1020 C   0  0  0  0  0  0  0  0  0  0  0  0
   38.4000   27.0450   30.4240 C   0  0  0  0  0  0  0  0  0  0  0  0
   39.8590   27.3990   30.4130 C   0  0  0  0  0  0  0  0  0  0  0  0
   40.5436   22.2234   38.0578 H   0  0  0  0  0  0  0  0  0  0  0  0
   39.1684   23.8494   39.3989 H   0  0  0  0  0  0  0  0  0  0  0  0
   37.3247   25.0267   38.2117 H   0  0  0  0  0  0  0  0  0  0  0  0
   38.6181   20.7199   34.0435 H   0  0  0  0  0  0  0  0  0  0  0  0
   36.8412   23.4597   30.1343 H   0  0  0  0  0  0  0  0  0  0  0  0
   35.3157   28.8407   35.4483 H   0  0  0  0  0  0  0  0  0  0  0  0
   36.0189   31.5234   31.7728 H   0  0  0  0  0  0  0  0  0  0  0  0
   37.1156   31.1907   29.5410 H   0  0  0  0  0  0  0  0  0  0  0  0
   38.0928   28.9683   29.0143 H   0  0  0  0  0  0  0  0  0  0  0  0
   38.2647   26.1729   31.0806 H   0  0  0  0  0  0  0  0  0  0  0  0
   38.1216   26.8490   29.3780 H   0  0  0  0  0  0  0  0  0  0  0  0
   40.2227   27.4872   31.4474 H   0  0  0  0  0  0  0  0  0  0  0  0
   40.4234   26.6117   29.8918 H   0  0  0  0  0  0  0  0  0  0  0  0
   39.9999   28.3574   29.8918 H   0  0  0  0  0  0  0  0  0  0  0  0
  1  2  2  0
  3  2  1  0
  4  3  2  0
  5  6  2  0
  5  4  1  0
  6  1  1  0
  7  5  1  0
  8  7  1  0
  9  8  2  0
 10  9  1  0
 10 15  2  0
 11 12  2  0
 11 10  1  0
 12 13  1  0
 13 16  1  0
 13 14  2  0
 15 14  1  0
 15  7  1  0
 16 17  2  0
 17 18  1  0
 19 18  2  0
 20 19  1  0
 21 20  2  0
 22 21  1  0
 23 22  2  0
 23 24  1  0
 24 25  2  0
 25 20  1  0
 25 16  1  0
 26 24  1  0
 27 26  1  0
  1 28  1  0
  2 29  1  0
  3 30  1  0
  8 31  1  0
 11 32  1  0
 18 33  1  0
 21 34  1  0
 22 35  1  0
 23 36  1  0
 26 37  1  0
 26 38  1  0
 27 39  1  0
 27 40  1  0
 27 41  1  0
M  ISO  8  28  14  29  14  30  14  31  14  32  14  33  14  34  14  35  14
M  ISO  6  36  14  37   8  38   8  39   8  40   8  41   8
M  END
>  <minimizedAffinity>  (1) 
-6.09629965

>  <minimizedRMSD>  (1) 
0.429656625

$$$$
