
     RDKit          3D

 44 48  0  0  0  0  0  0  0  0999 V2000
   39.6000   22.8480   37.5780 C   0  0  0  0  0  0  0  0  0  0  0  0
   38.8040   23.7660   38.2810 C   0  0  0  0  0  0  0  0  0  0  0  0
   37.8120   24.3660   37.5720 C   0  0  0  0  0  0  0  0  0  0  0  0
   37.6430   24.0600   36.2580 N   0  0  0  0  0  0  0  0  0  0  0  0
   38.4440   23.1560   35.6130 C   0  0  0  0  0  0  0  0  0  0  0  0
   39.4030   22.5690   36.2760 N   0  0  0  0  0  0  0  0  0  0  0  0
   38.2490   22.7940   34.2430 N   0  0  0  0  0  0  0  0  0  0  0  0
   38.3090   21.6000   33.6370 C   0  0  0  0  0  0  0  0  0  0  0  0
   37.9080   21.7700   32.3500 N   0  0  0  0  0  0  0  0  0  0  0  0
   37.5920   23.0720   32.1230 C   0  0  0  0  0  0  0  0  0  0  0  0
   37.1160   23.7350   30.9980 C   0  0  0  0  0  0  0  0  0  0  0  0
   36.9090   25.0130   31.1750 N   0  0  0  0  0  0  0  0  0  0  0  0
   37.1180   25.6620   32.2830 C   0  0  0  0  0  0  0  0  0  0  0  0
   37.5790   25.0230   33.3930 N   0  0  0  0  0  0  0  0  0  0  0  0
   37.8230   23.6930   33.3340 C   0  0  0  0  0  0  0  0  0  0  0  0
   36.8760   27.0720   32.6970 C   0  0  0  0  0  0  0  0  0  0  0  0
   36.1450   27.4400   33.7640 N   0  0  0  0  0  0  0  0  0  0  0  0
   35.6500   28.6610   33.9950 C   0  0  0  0  0  0  0  0  0  0  0  0
   35.8650   29.6640   33.1130 N   0  0  0  0  0  0  0  0  0  0  0  0
   36.5990   29.3840   32.0110 C   0  0  0  0  0  0  0  0  0  0  0  0
   36.7970   30.3920   31.1190 C   0  0  0  0  0  0  0  0  0  0  0  0
   37.5470   30.1450   29.9740 C   0  0  0  0  0  0  0  0  0  0  0  0
   38.0700   28.9000   29.7900 C   0  0  0  0  0  0  0  0  0  0  0  0
   37.8240   27.9360   30.7370 C   0  0  0  0  0  0  0  0  0  0  0  0
   37.0880   28.1040   31.8460 C   0  0  0  0  0  0  0  0  0  0  0  0
   38.8120   26.8180   30.4900 C   0  0  0  0  0  0  0  0  0  0  0  0
   40.1150   27.4770   31.1960 C   0  0  0  0  0  0  0  0  0  0  0  0
   39.3600   26.7770   29.1160 C   0  0  0  0  0  0  0  0  0  0  0  0
   40.4155   22.3374   38.1112 H   0  0  0  0  0  0  0  0  0  0  0  0
   38.9736   23.9871   39.3451 H   0  0  0  0  0  0  0  0  0  0  0  0
   37.1487   25.0960   38.0590 H   0  0  0  0  0  0  0  0  0  0  0  0
   38.6258   20.6531   34.0985 H   0  0  0  0  0  0  0  0  0  0  0  0
   36.9294   23.2272   30.0402 H   0  0  0  0  0  0  0  0  0  0  0  0
   35.0650   28.8506   34.9070 H   0  0  0  0  0  0  0  0  0  0  0  0
   36.3696   31.3891   31.3009 H   0  0  0  0  0  0  0  0  0  0  0  0
   37.7148   30.9390   29.2315 H   0  0  0  0  0  0  0  0  0  0  0  0
   38.6767   28.6718   28.9013 H   0  0  0  0  0  0  0  0  0  0  0  0
   38.3635   25.8546   30.7743 H   0  0  0  0  0  0  0  0  0  0  0  0
   40.0067   27.4222   32.2893 H   0  0  0  0  0  0  0  0  0  0  0  0
   41.0163   26.9264   30.8888 H   0  0  0  0  0  0  0  0  0  0  0  0
   40.2057   28.5293   30.8888 H   0  0  0  0  0  0  0  0  0  0  0  0
   40.4560   26.6950   29.1607 H   0  0  0  0  0  0  0  0  0  0  0  0
   38.9486   25.9071   28.5830 H   0  0  0  0  0  0  0  0  0  0  0  0
   39.0827   27.6984   28.5830 H   0  0  0  0  0  0  0  0  0  0  0  0
  1  2  2  0
  3  2  1  0
  4  3  2  0
  5  4  1  0
  5  6  2  0
  6  1  1  0
  7  5  1  0
  8  7  1  0
  9  8  2  0
 10  9  1  0
 10 15  2  0
 11 12  2  0
 11 10  1  0
 12 13  1  0
 13 16  1  0
 13 14  2  0
 15 14  1  0
 15  7  1  0
 16 17  2  0
 17 18  1  0
 19 18  2  0
 20 19  1  0
 21 20  2  0
 22 21  1  0
 23 22  2  0
 23 24  1  0
 24 25  2  0
 25 20  1  0
 25 16  1  0
 26 24  1  0
 26 27  1  0
 28 26  1  0
  1 29  1  0
  2 30  1  0
  3 31  1  0
  8 32  1  0
 11 33  1  0
 18 34  1  0
 21 35  1  0
 22 36  1  0
 23 37  1  0
 26 38  1  0
 27 39  1  0
 27 40  1  0
 27 41  1  0
 28 42  1  0
 28 43  1  0
 28 44  1  0
M  ISO  8  29  14  30  14  31  14  32  14  33  14  34  14  35  14  36  14
M  ISO  8  37  14  38   8  39   8  40   8  41   8  42   8  43   8  44   8
M  END
>  <minimizedAffinity>  (1) 
-5.92317486

>  <minimizedRMSD>  (1) 
0.530096054

$$$$
