
     RDKit          3D

 41 44  0  0  0  0  0  0  0  0999 V2000
   37.2560   22.6090   37.2090 C   0  0  0  0  0  0  0  0  0  0  0  0
   36.9690   21.9370   35.9500 C   0  0  0  0  0  0  0  0  0  0  0  0
   35.8950   21.1700   35.7270 C   0  0  0  0  0  0  0  0  0  0  0  0
   35.5960   20.5490   34.5570 C   0  0  0  0  0  0  0  0  0  0  0  0
   36.6060   20.8220   33.5580 C   0  0  0  0  0  0  0  0  0  0  0  0
   37.8510   21.9270   34.4050 S   0  0  0  0  0  0  0  0  0  0  0  0
   36.7820   20.4300   32.1860 C   0  0  0  0  0  0  0  0  0  0  0  0
   36.0430   19.5090   31.5600 C   0  0  0  0  0  0  0  0  0  0  0  0
   36.7190   19.4830   29.8130 S   0  0  0  0  0  0  0  0  0  0  0  0
   37.9600   20.8250   30.3410 C   0  0  0  0  0  0  0  0  0  0  0  0
   37.6620   20.9510   31.4090 N   0  0  0  0  0  0  0  0  0  0  0  0
   38.9580   21.3950   29.4000 N   0  0  0  0  0  0  0  0  0  0  0  0
   39.3870   22.6670   29.3120 C   0  0  0  0  0  0  0  0  0  0  0  0
   40.2850   22.7220   28.3260 N   0  0  0  0  0  0  0  0  0  0  0  0
   40.4180   21.4840   27.7960 C   0  0  0  0  0  0  0  0  0  0  0  0
   39.5870   20.6620   28.4710 N   0  0  0  0  0  0  0  0  0  0  0  0
   38.1590   23.8040   37.0930 C   0  0  0  0  0  0  0  0  0  0  0  0
   41.4380   22.0050   37.2470 C   0  0  0  0  0  0  0  0  0  0  0  0
   40.1390   22.3490   37.5750 C   0  0  0  0  0  0  0  0  0  0  0  0
   39.5140   23.3720   36.8290 C   0  0  0  0  0  0  0  0  0  0  0  0
   40.2230   23.9600   35.8330 N   0  0  0  0  0  0  0  0  0  0  0  0
   41.4900   23.5990   35.5410 C   0  0  0  0  0  0  0  0  0  0  0  0
   42.0910   22.6190   36.2540 N   0  0  0  0  0  0  0  0  0  0  0  0
   38.1510   24.5430   38.4300 C   0  0  0  0  0  0  0  0  0  0  0  0
   37.5660   24.7040   36.0340 C   0  0  0  0  0  0  0  0  0  0  0  0
   36.3023   22.9416   37.6447 H   0  0  0  0  0  0  0  0  0  0  0  0
   37.7878   21.8783   37.8361 H   0  0  0  0  0  0  0  0  0  0  0  0
   35.1943   21.0307   36.5634 H   0  0  0  0  0  0  0  0  0  0  0  0
   34.7066   19.9233   34.3914 H   0  0  0  0  0  0  0  0  0  0  0  0
   35.2240   18.9038   31.9760 H   0  0  0  0  0  0  0  0  0  0  0  0
   39.0576   23.5088   29.9388 H   0  0  0  0  0  0  0  0  0  0  0  0
   41.0821   21.1995   26.9665 H   0  0  0  0  0  0  0  0  0  0  0  0
   41.9444   21.2102   37.8143 H   0  0  0  0  0  0  0  0  0  0  0  0
   39.6083   21.8403   38.3933 H   0  0  0  0  0  0  0  0  0  0  0  0
   42.0324   24.1001   34.7257 H   0  0  0  0  0  0  0  0  0  0  0  0
   38.1589   23.8128   39.2526 H   0  0  0  0  0  0  0  0  0  0  0  0
   39.0423   25.1839   38.5000 H   0  0  0  0  0  0  0  0  0  0  0  0
   37.2461   25.1645   38.5000 H   0  0  0  0  0  0  0  0  0  0  0  0
   37.0222   25.5293   36.5168 H   0  0  0  0  0  0  0  0  0  0  0  0
   38.3720   25.1131   35.4071 H   0  0  0  0  0  0  0  0  0  0  0  0
   36.8721   24.1248   35.4071 H   0  0  0  0  0  0  0  0  0  0  0  0
  2  1  1  0
  3  2  2  0
  4  3  1  0
  5  6  1  0
  5  4  2  0
  6  2  1  0
  7  5  1  0
  8  7  2  0
  9 10  1  0
  9  8  1  0
 10 11  2  0
 11  7  1  0
 12 10  1  0
 13 12  1  0
 14 13  2  0
 15 14  1  0
 15 16  2  0
 16 12  1  0
 17  1  1  0
 17 24  1  0
 18 19  2  0
 20 17  1  0
 20 19  1  0
 21 20  2  0
 22 21  1  0
 22 23  2  0
 23 18  1  0
 25 17  1  0
  1 26  1  0
  1 27  1  0
  3 28  1  0
  4 29  1  0
  8 30  1  0
 13 31  1  0
 15 32  1  0
 18 33  1  0
 19 34  1  0
 22 35  1  0
 24 36  1  0
 24 37  1  0
 24 38  1  0
 25 39  1  0
 25 40  1  0
 25 41  1  0
M  ISO  8  26   8  27   8  28  14  29  14  30  14  31  14  32  14  33  14
M  ISO  8  34  14  35  14  36   8  37   8  38   8  39   8  40   8  41   8
M  END
>  <minimizedAffinity>  (1) 
-4.83604813

>  <minimizedRMSD>  (1) 
0.139440328

$$$$
