
     RDKit          3D

 25 27  0  0  0  0  0  0  0  0999 V2000
   38.5930   25.2380   35.2490 N   0  0  0  0  0  0  0  0  0  0  0  0
   38.6990   26.4890   35.7060 C   0  0  0  0  0  0  0  0  0  0  0  0
   38.0360   27.5330   35.0510 C   0  0  0  0  0  0  0  0  0  0  0  0
   37.2930   27.1850   33.9390 C   0  0  0  0  0  0  0  0  0  0  0  0
   36.6800   28.0580   33.3100 O   0  0  0  0  0  0  0  0  0  0  0  0
   37.1960   25.9270   33.4920 N   0  0  0  0  0  0  0  0  0  0  0  0
   37.8500   24.9400   34.1490 C   0  0  0  0  0  0  0  0  0  0  0  0
   37.7910   23.7570   33.7750 O   0  0  0  0  0  0  0  0  0  0  0  0
   36.4280   25.5760   32.3450 C   0  0  0  0  0  0  0  0  0  0  0  0
   35.4980   26.1870   31.5710 N   0  0  0  0  0  0  0  0  0  0  0  0
   35.1260   25.3670   30.6290 O   0  0  0  0  0  0  0  0  0  0  0  0
   35.7840   24.2200   30.7540 C   0  0  0  0  0  0  0  0  0  0  0  0
   36.6130   24.3250   31.8280 N   0  0  0  0  0  0  0  0  0  0  0  0
   38.6520   23.8730   37.1700 C   0  0  0  0  0  0  0  0  0  0  0  0
   39.3050   24.2950   35.9990 C   0  0  0  0  0  0  0  0  0  0  0  0
   40.5590   23.7420   35.7160 C   0  0  0  0  0  0  0  0  0  0  0  0
   41.0910   22.8380   36.5640 N   0  0  0  0  0  0  0  0  0  0  0  0
   40.4330   22.4520   37.6880 C   0  0  0  0  0  0  0  0  0  0  0  0
   39.2240   22.9660   37.9880 N   0  0  0  0  0  0  0  0  0  0  0  0
   39.3079   26.6985   36.5978 H   0  0  0  0  0  0  0  0  0  0  0  0
   38.1026   28.5734   35.4020 H   0  0  0  0  0  0  0  0  0  0  0  0
   35.6775   23.3395   30.1033 H   0  0  0  0  0  0  0  0  0  0  0  0
   37.6644   24.2867   37.4218 H   0  0  0  0  0  0  0  0  0  0  0  0
   41.1060   24.0419   34.8100 H   0  0  0  0  0  0  0  0  0  0  0  0
   40.8919   21.7121   38.3603 H   0  0  0  0  0  0  0  0  0  0  0  0
  1  2  1  0
  1 15  1  0
  3  2  2  0
  4  3  1  0
  5  4  2  0
  6  4  1  0
  6  7  1  0
  7  1  1  0
  8  7  2  0
  9  6  1  0
 10  9  2  0
 11 12  1  0
 11 10  1  0
 12 13  2  0
 13  9  1  0
 14 19  2  0
 15 14  1  0
 16 15  2  0
 16 17  1  0
 17 18  2  0
 18 19  1  0
  2 20  1  0
  3 21  1  0
 12 22  1  0
 14 23  1  0
 16 24  1  0
 18 25  1  0
M  ISO  6  20  14  21  14  22  14  23  14  24  14  25  14
M  END
>  <minimizedAffinity>  (1) 
-5.0689373

>  <minimizedRMSD>  (1) 
3.02720475

$$$$
