
     RDKit          3D

 44 47  0  0  0  0  0  0  0  0999 V2000
   37.2620   22.5950   37.2270 C   0  0  0  0  0  0  0  0  0  0  0  0
   36.9640   21.9350   35.9650 C   0  0  0  0  0  0  0  0  0  0  0  0
   35.8980   21.1580   35.7490 C   0  0  0  0  0  0  0  0  0  0  0  0
   35.5840   20.5530   34.5810 C   0  0  0  0  0  0  0  0  0  0  0  0
   36.5670   20.8490   33.5630 C   0  0  0  0  0  0  0  0  0  0  0  0
   37.8180   21.9590   34.4020 S   0  0  0  0  0  0  0  0  0  0  0  0
   36.7290   20.4570   32.1910 C   0  0  0  0  0  0  0  0  0  0  0  0
   35.9620   19.5130   31.5730 C   0  0  0  0  0  0  0  0  0  0  0  0
   36.7260   19.4560   29.8540 S   0  0  0  0  0  0  0  0  0  0  0  0
   37.9530   20.7650   30.3650 C   0  0  0  0  0  0  0  0  0  0  0  0
   37.6340   20.9330   31.4240 N   0  0  0  0  0  0  0  0  0  0  0  0
   38.9500   21.2130   29.3400 C   0  0  0  0  0  0  0  0  0  0  0  0
   39.2480   20.4520   28.2480 C   0  0  0  0  0  0  0  0  0  0  0  0
   40.1810   20.9490   27.3550 C   0  0  0  0  0  0  0  0  0  0  0  0
   40.7270   22.1960   27.6690 C   0  0  0  0  0  0  0  0  0  0  0  0
   40.3810   22.9170   28.7920 C   0  0  0  0  0  0  0  0  0  0  0  0
   39.4570   22.3910   29.6480 N   0  0  0  0  0  0  0  0  0  0  0  0
   38.1600   23.7950   37.1140 C   0  0  0  0  0  0  0  0  0  0  0  0
   41.4390   21.9890   37.2430 C   0  0  0  0  0  0  0  0  0  0  0  0
   40.1410   22.3470   37.5660 C   0  0  0  0  0  0  0  0  0  0  0  0
   39.5170   23.3690   36.8350 C   0  0  0  0  0  0  0  0  0  0  0  0
   40.2240   23.9690   35.8300 N   0  0  0  0  0  0  0  0  0  0  0  0
   41.4950   23.5910   35.5460 C   0  0  0  0  0  0  0  0  0  0  0  0
   42.0930   22.6060   36.2520 N   0  0  0  0  0  0  0  0  0  0  0  0
   38.1580   24.5130   38.4660 C   0  0  0  0  0  0  0  0  0  0  0  0
   37.5710   24.6930   36.0480 C   0  0  0  0  0  0  0  0  0  0  0  0
   36.3118   22.9197   37.6761 H   0  0  0  0  0  0  0  0  0  0  0  0
   37.8032   21.8599   37.8407 H   0  0  0  0  0  0  0  0  0  0  0  0
   35.2156   20.9964   36.5965 H   0  0  0  0  0  0  0  0  0  0  0  0
   34.6981   19.9196   34.4260 H   0  0  0  0  0  0  0  0  0  0  0  0
   35.1166   18.9353   31.9750 H   0  0  0  0  0  0  0  0  0  0  0  0
   38.7640   19.4781   28.0831 H   0  0  0  0  0  0  0  0  0  0  0  0
   40.4753   20.3950   26.4514 H   0  0  0  0  0  0  0  0  0  0  0  0
   41.4727   22.6254   26.9837 H   0  0  0  0  0  0  0  0  0  0  0  0
   40.8401   23.8960   28.9940 H   0  0  0  0  0  0  0  0  0  0  0  0
   41.9384   21.1879   37.8077 H   0  0  0  0  0  0  0  0  0  0  0  0
   39.6077   21.8383   38.3826 H   0  0  0  0  0  0  0  0  0  0  0  0
   42.0439   24.0904   34.7340 H   0  0  0  0  0  0  0  0  0  0  0  0
   38.1601   23.7690   39.2763 H   0  0  0  0  0  0  0  0  0  0  0  0
   39.0544   25.1454   38.5466 H   0  0  0  0  0  0  0  0  0  0  0  0
   37.2581   25.1404   38.5466 H   0  0  0  0  0  0  0  0  0  0  0  0
   37.0276   25.5215   36.5257 H   0  0  0  0  0  0  0  0  0  0  0  0
   38.3796   25.0977   35.4217 H   0  0  0  0  0  0  0  0  0  0  0  0
   36.8776   24.1125   35.4217 H   0  0  0  0  0  0  0  0  0  0  0  0
  2  1  1  0
  3  2  2  0
  4  3  1  0
  5  6  1  0
  5  4  2  0
  6  2  1  0
  7  5  1  0
  8  7  2  0
  9 10  1  0
  9  8  1  0
 10 11  2  0
 11  7  1  0
 12 17  1  0
 12 10  1  0
 13 12  2  0
 14 15  2  0
 14 13  1  0
 15 16  1  0
 16 17  2  0
 18  1  1  0
 18 25  1  0
 19 20  2  0
 21 18  1  0
 21 20  1  0
 22 21  2  0
 23 22  1  0
 23 24  2  0
 24 19  1  0
 26 18  1  0
  1 27  1  0
  1 28  1  0
  3 29  1  0
  4 30  1  0
  8 31  1  0
 13 32  1  0
 14 33  1  0
 15 34  1  0
 16 35  1  0
 19 36  1  0
 20 37  1  0
 23 38  1  0
 25 39  1  0
 25 40  1  0
 25 41  1  0
 26 42  1  0
 26 43  1  0
 26 44  1  0
M  ISO  8  27   8  28   8  29  14  30  14  31  14  32  14  33  14  34  14
M  ISO  8  35  14  36  14  37  14  38  14  39   8  40   8  41   8  42   8
M  ISO  2  43   8  44   8
M  END
>  <minimizedAffinity>  (1) 
-4.7832613

>  <minimizedRMSD>  (1) 
0.555418193

$$$$
