
     RDKit          3D

 27 29  0  0  0  0  0  0  0  0999 V2000
   38.9620   24.6340   35.7560 N   0  0  0  0  0  0  0  0  0  0  0  0
   38.2670   24.0340   36.7350 C   0  0  0  0  0  0  0  0  0  0  0  0
   38.8700   23.0480   37.5170 C   0  0  0  0  0  0  0  0  0  0  0  0
   40.1920   22.7450   37.2150 C   0  0  0  0  0  0  0  0  0  0  0  0
   40.7920   21.8800   37.8650 O   0  0  0  0  0  0  0  0  0  0  0  0
   40.8830   23.3600   36.2190 N   0  0  0  0  0  0  0  0  0  0  0  0
   40.2470   24.3050   35.5010 C   0  0  0  0  0  0  0  0  0  0  0  0
   40.8380   24.8960   34.5790 O   0  0  0  0  0  0  0  0  0  0  0  0
   38.1390   26.8450   35.7480 C   0  0  0  0  0  0  0  0  0  0  0  0
   38.2250   25.6090   35.0530 C   0  0  0  0  0  0  0  0  0  0  0  0
   37.6070   25.4890   33.8200 C   0  0  0  0  0  0  0  0  0  0  0  0
   36.9450   26.5630   33.3250 N   0  0  0  0  0  0  0  0  0  0  0  0
   36.8720   27.7220   33.9900 C   0  0  0  0  0  0  0  0  0  0  0  0
   37.4630   27.8760   35.1990 N   0  0  0  0  0  0  0  0  0  0  0  0
   42.2390   23.0050   35.9590 C   0  0  0  0  0  0  0  0  0  0  0  0
   43.2810   23.7780   36.4400 C   0  0  0  0  0  0  0  0  0  0  0  0
   44.4730   23.2390   36.0630 N   0  0  0  0  0  0  0  0  0  0  0  0
   44.1540   22.1360   35.3520 C   0  0  0  0  0  0  0  0  0  0  0  0
   42.8190   21.9810   35.2790 N   0  0  0  0  0  0  0  0  0  0  0  0
   37.2212   24.3197   36.9211 H   0  0  0  0  0  0  0  0  0  0  0  0
   38.3286   22.5387   38.3278 H   0  0  0  0  0  0  0  0  0  0  0  0
   38.6215   26.9612   36.7297 H   0  0  0  0  0  0  0  0  0  0  0  0
   37.6521   24.5456   33.2562 H   0  0  0  0  0  0  0  0  0  0  0  0
   36.3219   28.5651   33.5466 H   0  0  0  0  0  0  0  0  0  0  0  0
   43.1635   24.6932   37.0388 H   0  0  0  0  0  0  0  0  0  0  0  0
   44.8869   21.4555   34.8940 H   0  0  0  0  0  0  0  0  0  0  0  0
   42.3237   21.2198   34.7930 H   0  0  0  0  0  0  0  0  0  0  0  0
  1  2  1  0
  2  3  2  0
  4  3  1  0
  4  5  2  0
  6  4  1  0
  7  1  1  0
  7  6  1  0
  8  7  2  0
 10  9  2  0
 10  1  1  0
 11 10  1  0
 12 11  2  0
 12 13  1  0
 13 14  2  0
 14  9  1  0
 15  6  1  0
 15 16  2  0
 17 16  1  0
 18 17  2  0
 19 18  1  0
 19 15  1  0
  2 20  1  0
  3 21  1  0
  9 22  1  0
 11 23  1  0
 13 24  1  0
 16 25  1  0
 18 26  1  0
 19 27  1  0
M  ISO  8  20  14  21  14  22  14  23  14  24  14  25  14  26  14  27   9
M  END
>  <minimizedAffinity>  (1) 
-4.44362831

>  <minimizedRMSD>  (1) 
6.46631479

$$$$
