
     RDKit          3D

 31 34  0  0  0  0  0  0  0  0999 V2000
   40.7760   26.2190   33.5490 N   0  0  0  0  0  0  0  0  0  0  0  0
   40.6060   26.9040   34.6960 C   0  0  0  0  0  0  0  0  0  0  0  0
   39.3850   26.8130   35.3760 C   0  0  0  0  0  0  0  0  0  0  0  0
   38.4090   26.0110   34.8170 C   0  0  0  0  0  0  0  0  0  0  0  0
   37.3020   25.8750   35.3510 O   0  0  0  0  0  0  0  0  0  0  0  0
   38.5950   25.3370   33.6770 N   0  0  0  0  0  0  0  0  0  0  0  0
   39.7900   25.4400   33.0320 C   0  0  0  0  0  0  0  0  0  0  0  0
   40.0200   24.8310   31.9590 O   0  0  0  0  0  0  0  0  0  0  0  0
   34.9670   24.8050   30.8290 N   0  0  0  0  0  0  0  0  0  0  0  0
   35.3090   26.1220   30.9090 C   0  0  0  0  0  0  0  0  0  0  0  0
   36.3640   26.1620   31.7540 N   0  0  0  0  0  0  0  0  0  0  0  0
   36.6570   24.9180   32.1760 C   0  0  0  0  0  0  0  0  0  0  0  0
   37.6470   24.4940   33.0380 C   0  0  0  0  0  0  0  0  0  0  0  0
   37.7120   23.1600   33.2890 N   0  0  0  0  0  0  0  0  0  0  0  0
   36.8280   22.3030   32.7040 C   0  0  0  0  0  0  0  0  0  0  0  0
   35.8630   22.7340   31.8620 N   0  0  0  0  0  0  0  0  0  0  0  0
   35.7630   24.0490   31.5840 C   0  0  0  0  0  0  0  0  0  0  0  0
   43.0290   25.5290   33.4870 C   0  0  0  0  0  0  0  0  0  0  0  0
   42.0390   26.3940   32.9660 C   0  0  0  0  0  0  0  0  0  0  0  0
   42.4020   27.2910   31.9740 C   0  0  0  0  0  0  0  0  0  0  0  0
   43.6810   27.3150   31.5360 N   0  0  0  0  0  0  0  0  0  0  0  0
   44.6140   26.4730   32.0520 C   0  0  0  0  0  0  0  0  0  0  0  0
   44.2960   25.5900   33.0160 N   0  0  0  0  0  0  0  0  0  0  0  0
   41.4185   27.5291   35.0950 H   0  0  0  0  0  0  0  0  0  0  0  0
   39.2105   27.3573   36.3158 H   0  0  0  0  0  0  0  0  0  0  0  0
   34.1916   24.4405   30.2574 H   0  0  0  0  0  0  0  0  0  0  0  0
   34.8301   26.9695   30.3967 H   0  0  0  0  0  0  0  0  0  0  0  0
   36.9025   21.2278   32.9241 H   0  0  0  0  0  0  0  0  0  0  0  0
   42.7691   24.8068   34.2749 H   0  0  0  0  0  0  0  0  0  0  0  0
   41.6562   27.9774   31.5467 H   0  0  0  0  0  0  0  0  0  0  0  0
   45.6467   26.5139   31.6753 H   0  0  0  0  0  0  0  0  0  0  0  0
  1  2  1  0
  2  3  2  0
  4  5  2  0
  4  3  1  0
  6  4  1  0
  7  1  1  0
  7  6  1  0
  8  7  2  0
  9 10  1  0
  9 17  1  0
 10 11  2  0
 11 12  1  0
 12 13  2  0
 13 14  1  0
 13  6  1  0
 15 14  2  0
 16 15  1  0
 17 16  2  0
 17 12  1  0
 19 18  2  0
 19  1  1  0
 20 19  1  0
 21 20  2  0
 21 22  1  0
 22 23  2  0
 23 18  1  0
  2 24  1  0
  3 25  1  0
  9 26  1  0
 10 27  1  0
 15 28  1  0
 18 29  1  0
 20 30  1  0
 22 31  1  0
M  ISO  8  24  14  25  14  26   9  27  14  28  14  29  14  30  14  31  14
M  END
>  <minimizedAffinity>  (1) 
-4.42000628

>  <minimizedRMSD>  (1) 
4.75700283

$$$$
