
     RDKit          3D

 23 24  0  0  0  0  0  0  0  0999 V2000
   38.9590   24.6440   35.7770 N   0  0  0  0  0  0  0  0  0  0  0  0
   38.2610   24.0460   36.7640 C   0  0  0  0  0  0  0  0  0  0  0  0
   38.8590   23.0550   37.5490 C   0  0  0  0  0  0  0  0  0  0  0  0
   40.1830   22.7460   37.2440 C   0  0  0  0  0  0  0  0  0  0  0  0
   40.7870   21.8830   37.8870 O   0  0  0  0  0  0  0  0  0  0  0  0
   40.8580   23.3520   36.2560 N   0  0  0  0  0  0  0  0  0  0  0  0
   40.2440   24.3110   35.5150 C   0  0  0  0  0  0  0  0  0  0  0  0
   40.8330   24.8980   34.5900 O   0  0  0  0  0  0  0  0  0  0  0  0
   38.1300   26.8520   35.7480 C   0  0  0  0  0  0  0  0  0  0  0  0
   38.2300   25.6090   35.0830 C   0  0  0  0  0  0  0  0  0  0  0  0
   37.6100   25.4940   33.8510 C   0  0  0  0  0  0  0  0  0  0  0  0
   36.9410   26.5600   33.3390 N   0  0  0  0  0  0  0  0  0  0  0  0
   36.8680   27.7270   34.0030 C   0  0  0  0  0  0  0  0  0  0  0  0
   37.4520   27.8800   35.1940 N   0  0  0  0  0  0  0  0  0  0  0  0
   42.2310   23.0570   35.9110 C   0  0  0  0  0  0  0  0  0  0  0  0
   42.6900   21.9510   36.6120 F   0  0  0  0  0  0  0  0  0  0  0  0
   42.9720   24.1630   36.2920 F   0  0  0  0  0  0  0  0  0  0  0  0
   42.3460   22.7980   34.5420 F   0  0  0  0  0  0  0  0  0  0  0  0
   37.2175   24.3388   36.9523 H   0  0  0  0  0  0  0  0  0  0  0  0
   38.3155   22.5487   38.3604 H   0  0  0  0  0  0  0  0  0  0  0  0
   38.6103   26.9837   36.7288 H   0  0  0  0  0  0  0  0  0  0  0  0
   37.6584   24.5482   33.2914 H   0  0  0  0  0  0  0  0  0  0  0  0
   36.3182   28.5693   33.5578 H   0  0  0  0  0  0  0  0  0  0  0  0
  1  2  1  0
  2  3  2  0
  4  3  1  0
  4  5  2  0
  6  4  1  0
  7  1  1  0
  7  6  1  0
  8  7  2  0
 10  9  2  0
 10  1  1  0
 11 10  1  0
 12 11  2  0
 12 13  1  0
 13 14  2  0
 14  9  1  0
 15  6  1  0
 15 17  1  0
 15 16  1  0
 18 15  1  0
  2 19  1  0
  3 20  1  0
  9 21  1  0
 11 22  1  0
 13 23  1  0
M  ISO  5  19  14  20  14  21  14  22  14  23  14
M  END
>  <minimizedAffinity>  (1) 
-4.41042662

>  <minimizedRMSD>  (1) 
5.78437138

$$$$
