
     RDKit          3D

 30 32  0  0  0  0  0  0  0  0999 V2000
   37.4150   22.8340   32.7450 N   0  0  0  0  0  0  0  0  0  0  0  0
   38.5560   22.5940   33.3980 C   0  0  0  0  0  0  0  0  0  0  0  0
   39.4200   23.6490   33.7080 C   0  0  0  0  0  0  0  0  0  0  0  0
   39.0210   24.9180   33.3020 C   0  0  0  0  0  0  0  0  0  0  0  0
   39.7250   25.8940   33.5380 O   0  0  0  0  0  0  0  0  0  0  0  0
   37.8730   25.1360   32.6490 N   0  0  0  0  0  0  0  0  0  0  0  0
   37.0530   24.0850   32.3620 C   0  0  0  0  0  0  0  0  0  0  0  0
   35.9800   24.2430   31.7580 O   0  0  0  0  0  0  0  0  0  0  0  0
   36.8410   21.1130   31.2280 C   0  0  0  0  0  0  0  0  0  0  0  0
   36.6460   21.6850   32.5010 C   0  0  0  0  0  0  0  0  0  0  0  0
   35.7420   21.0690   33.3500 C   0  0  0  0  0  0  0  0  0  0  0  0
   35.0920   19.9620   32.9330 N   0  0  0  0  0  0  0  0  0  0  0  0
   35.3040   19.4350   31.6990 C   0  0  0  0  0  0  0  0  0  0  0  0
   36.1790   20.0070   30.8380 N   0  0  0  0  0  0  0  0  0  0  0  0
   37.4730   26.4360   32.2380 C   0  0  0  0  0  0  0  0  0  0  0  0
   37.8110   26.9280   30.9740 C   0  0  0  0  0  0  0  0  0  0  0  0
   37.4310   28.1850   30.5590 C   0  0  0  0  0  0  0  0  0  0  0  0
   36.6920   29.0010   31.4020 C   0  0  0  0  0  0  0  0  0  0  0  0
   36.3910   28.4750   32.6200 C   0  0  0  0  0  0  0  0  0  0  0  0
   36.7290   27.2330   33.1150 C   0  0  0  0  0  0  0  0  0  0  0  0
   38.8157   21.5662   33.6918 H   0  0  0  0  0  0  0  0  0  0  0  0
   40.3658   23.4838   34.2449 H   0  0  0  0  0  0  0  0  0  0  0  0
   37.5534   21.5827   30.5339 H   0  0  0  0  0  0  0  0  0  0  0  0
   35.5555   21.4777   34.3541 H   0  0  0  0  0  0  0  0  0  0  0  0
   34.7570   18.5305   31.3947 H   0  0  0  0  0  0  0  0  0  0  0  0
   38.3965   26.2938   30.2921 H   0  0  0  0  0  0  0  0  0  0  0  0
   37.7140   28.5420   29.5578 H   0  0  0  0  0  0  0  0  0  0  0  0
   36.3695   30.0098   31.1048 H   0  0  0  0  0  0  0  0  0  0  0  0
   35.8061   29.1196   33.2927 H   0  0  0  0  0  0  0  0  0  0  0  0
   36.4367   26.8954   34.1203 H   0  0  0  0  0  0  0  0  0  0  0  0
  1  2  1  0
  2  3  2  0
  4  5  2  0
  4  3  1  0
  6  4  1  0
  7  6  1  0
  7  1  1  0
  8  7  2  0
  9 10  2  0
 10  1  1  0
 10 11  1  0
 12 11  2  0
 13 12  1  0
 14  9  1  0
 14 13  2  0
 15  6  1  0
 15 20  1  0
 16 15  2  0
 17 16  1  0
 17 18  2  0
 18 19  1  0
 19 20  2  0
  2 21  1  0
  3 22  1  0
  9 23  1  0
 11 24  1  0
 13 25  1  0
 16 26  1  0
 17 27  1  0
 18 28  1  0
 19 29  1  0
 20 30  1  0
M  ISO  8  21  14  22  14  23  14  24  14  25  14  26  14  27  14  28  14
M  ISO  2  29  14  30  14
M  END
>  <minimizedAffinity>  (1) 
-4.35418797

>  <minimizedRMSD>  (1) 
5.52544212

$$$$
