
     RDKit          3D

 29 31  0  0  0  0  0  0  0  0999 V2000
   40.4300   24.2750   35.3330 N   0  0  0  0  0  0  0  0  0  0  0  0
   40.2240   25.2730   34.4400 C   0  0  0  0  0  0  0  0  0  0  0  0
   41.2970   26.1060   34.0730 C   0  0  0  0  0  0  0  0  0  0  0  0
   42.5210   25.8340   34.6730 C   0  0  0  0  0  0  0  0  0  0  0  0
   43.4970   26.5320   34.3900 O   0  0  0  0  0  0  0  0  0  0  0  0
   42.6960   24.8260   35.5680 N   0  0  0  0  0  0  0  0  0  0  0  0
   41.6350   24.0590   35.8830 C   0  0  0  0  0  0  0  0  0  0  0  0
   41.7470   23.1280   36.6930 O   0  0  0  0  0  0  0  0  0  0  0  0
   38.9490   22.6080   34.5710 C   0  0  0  0  0  0  0  0  0  0  0  0
   39.2790   23.5390   35.5940 C   0  0  0  0  0  0  0  0  0  0  0  0
   38.4370   23.5970   36.6920 C   0  0  0  0  0  0  0  0  0  0  0  0
   37.3540   22.7870   36.7570 N   0  0  0  0  0  0  0  0  0  0  0  0
   37.0730   21.9100   35.7590 C   0  0  0  0  0  0  0  0  0  0  0  0
   37.8650   21.8140   34.6620 N   0  0  0  0  0  0  0  0  0  0  0  0
   43.9720   24.6180   36.1300 C   0  0  0  0  0  0  0  0  0  0  0  0
   44.5140   25.2190   37.2390 C   0  0  0  0  0  0  0  0  0  0  0  0
   45.7680   24.9520   37.7120 C   0  0  0  0  0  0  0  0  0  0  0  0
   46.5770   24.0280   37.0670 C   0  0  0  0  0  0  0  0  0  0  0  0
   46.0170   23.4340   35.9530 C   0  0  0  0  0  0  0  0  0  0  0  0
   44.7760   23.7110   35.5010 N   0  0  0  0  0  0  0  0  0  0  0  0
   39.2259   25.4308   34.0054 H   0  0  0  0  0  0  0  0  0  0  0  0
   41.1740   26.9270   33.3513 H   0  0  0  0  0  0  0  0  0  0  0  0
   39.5949   22.5346   33.6836 H   0  0  0  0  0  0  0  0  0  0  0  0
   38.6479   24.3007   37.5108 H   0  0  0  0  0  0  0  0  0  0  0  0
   36.1859   21.2649   35.8418 H   0  0  0  0  0  0  0  0  0  0  0  0
   43.9035   25.9583   37.7781 H   0  0  0  0  0  0  0  0  0  0  0  0
   46.1375   25.4721   38.6081 H   0  0  0  0  0  0  0  0  0  0  0  0
   47.5912   23.7859   37.4175 H   0  0  0  0  0  0  0  0  0  0  0  0
   46.6163   22.6934   35.4032 H   0  0  0  0  0  0  0  0  0  0  0  0
  1 10  1  0
  1  7  1  0
  2  1  1  0
  3  2  2  0
  3  4  1  0
  4  6  1  0
  5  4  2  0
  6  7  1  0
  6 15  1  0
  7  8  2  0
  9 14  2  0
  9 10  1  0
 10 11  2  0
 11 12  1  0
 13 12  2  0
 14 13  1  0
 15 16  2  0
 16 17  1  0
 18 17  2  0
 19 18  1  0
 20 19  2  0
 20 15  1  0
  2 21  1  0
  3 22  1  0
  9 23  1  0
 11 24  1  0
 13 25  1  0
 16 26  1  0
 17 27  1  0
 18 28  1  0
 19 29  1  0
M  ISO  8  21  14  22  14  23  14  24  14  25  14  26  14  27  14  28  14
M  ISO  1  29  14
M  END
>  <minimizedAffinity>  (1) 
-4.31587267

>  <minimizedRMSD>  (1) 
6.74757099

$$$$
