
     RDKit          3D

 30 32  0  0  0  0  0  0  0  0999 V2000
   39.0290   25.4270   34.9970 N   0  0  0  0  0  0  0  0  0  0  0  0
   40.3660   25.5850   35.1210 C   0  0  0  0  0  0  0  0  0  0  0  0
   41.0550   26.4260   34.2440 C   0  0  0  0  0  0  0  0  0  0  0  0
   40.2900   27.0620   33.2760 C   0  0  0  0  0  0  0  0  0  0  0  0
   40.8230   27.8230   32.4610 O   0  0  0  0  0  0  0  0  0  0  0  0
   38.9450   26.8930   33.1640 N   0  0  0  0  0  0  0  0  0  0  0  0
   38.3400   26.0680   34.0400 C   0  0  0  0  0  0  0  0  0  0  0  0
   37.1040   25.8790   33.9800 O   0  0  0  0  0  0  0  0  0  0  0  0
   38.3050   25.1610   37.2230 C   0  0  0  0  0  0  0  0  0  0  0  0
   38.4790   24.5510   35.9520 C   0  0  0  0  0  0  0  0  0  0  0  0
   38.1080   23.2280   35.7890 C   0  0  0  0  0  0  0  0  0  0  0  0
   37.5930   22.5650   36.8580 N   0  0  0  0  0  0  0  0  0  0  0  0
   37.4320   23.1530   38.0580 C   0  0  0  0  0  0  0  0  0  0  0  0
   37.7860   24.4470   38.2460 N   0  0  0  0  0  0  0  0  0  0  0  0
   38.1860   27.5600   32.1580 C   0  0  0  0  0  0  0  0  0  0  0  0
   38.5660   27.2330   30.8690 C   0  0  0  0  0  0  0  0  0  0  0  0
   37.8940   27.8240   29.7990 C   0  0  0  0  0  0  0  0  0  0  0  0
   36.8700   28.7170   30.0520 C   0  0  0  0  0  0  0  0  0  0  0  0
   36.4850   29.0480   31.3390 C   0  0  0  0  0  0  0  0  0  0  0  0
   37.1560   28.4580   32.4060 C   0  0  0  0  0  0  0  0  0  0  0  0
   40.9115   25.0510   35.9130 H   0  0  0  0  0  0  0  0  0  0  0  0
   42.1423   26.5758   34.3164 H   0  0  0  0  0  0  0  0  0  0  0  0
   38.5921   26.2121   37.3740 H   0  0  0  0  0  0  0  0  0  0  0  0
   38.2269   22.7250   34.8180 H   0  0  0  0  0  0  0  0  0  0  0  0
   37.0088   22.5771   38.8942 H   0  0  0  0  0  0  0  0  0  0  0  0
   39.3839   26.5193   30.6907 H   0  0  0  0  0  0  0  0  0  0  0  0
   38.1764   27.5816   28.7639 H   0  0  0  0  0  0  0  0  0  0  0  0
   36.3445   29.1792   29.2033 H   0  0  0  0  0  0  0  0  0  0  0  0
   35.6667   29.7617   31.5150 H   0  0  0  0  0  0  0  0  0  0  0  0
   36.8720   28.7017   33.4404 H   0  0  0  0  0  0  0  0  0  0  0  0
  1  2  1  0
  1 10  1  0
  3  2  2  0
  4  3  1  0
  5  4  2  0
  6  4  1  0
  6  7  1  0
  7  1  1  0
  8  7  2  0
  9 14  2  0
 10  9  1  0
 11 10  2  0
 11 12  1  0
 12 13  2  0
 13 14  1  0
 15 20  1  0
 15  6  1  0
 16 15  2  0
 17 18  2  0
 17 16  1  0
 18 19  1  0
 19 20  2  0
  2 21  1  0
  3 22  1  0
  9 23  1  0
 11 24  1  0
 13 25  1  0
 16 26  1  0
 17 27  1  0
 18 28  1  0
 19 29  1  0
 20 30  1  0
M  ISO  8  21  14  22  14  23  14  24  14  25  14  26  14  27  14  28  14
M  ISO  2  29  14  30  14
M  END
>  <minimizedAffinity>  (1) 
-4.16582346

>  <minimizedRMSD>  (1) 
4.50678825

$$$$
