
     RDKit          3D

 28 30  0  0  0  0  0  0  0  0999 V2000
   40.5730   24.3350   35.2930 N   0  0  0  0  0  0  0  0  0  0  0  0
   40.3710   25.3310   34.4090 C   0  0  0  0  0  0  0  0  0  0  0  0
   41.4320   26.1610   34.0490 C   0  0  0  0  0  0  0  0  0  0  0  0
   42.6580   25.9040   34.6360 C   0  0  0  0  0  0  0  0  0  0  0  0
   43.6460   26.5960   34.3680 O   0  0  0  0  0  0  0  0  0  0  0  0
   42.8400   24.9090   35.5130 N   0  0  0  0  0  0  0  0  0  0  0  0
   41.7870   24.1170   35.8440 C   0  0  0  0  0  0  0  0  0  0  0  0
   41.9030   23.1780   36.6540 O   0  0  0  0  0  0  0  0  0  0  0  0
   39.1200   22.6210   34.5820 C   0  0  0  0  0  0  0  0  0  0  0  0
   39.4260   23.5790   35.5650 C   0  0  0  0  0  0  0  0  0  0  0  0
   38.5800   23.6700   36.6690 C   0  0  0  0  0  0  0  0  0  0  0  0
   37.5190   22.8430   36.7420 N   0  0  0  0  0  0  0  0  0  0  0  0
   37.2450   21.9330   35.7910 C   0  0  0  0  0  0  0  0  0  0  0  0
   38.0400   21.8230   34.7190 N   0  0  0  0  0  0  0  0  0  0  0  0
   44.1060   24.6460   36.1190 C   0  0  0  0  0  0  0  0  0  0  0  0
   44.9310   23.7320   35.4870 C   0  0  0  0  0  0  0  0  0  0  0  0
   46.1640   23.4490   36.0390 C   0  0  0  0  0  0  0  0  0  0  0  0
   46.5720   24.0570   37.1890 N   0  0  0  0  0  0  0  0  0  0  0  0
   45.7420   24.9570   37.7950 C   0  0  0  0  0  0  0  0  0  0  0  0
   44.5230   25.2510   37.2700 N   0  0  0  0  0  0  0  0  0  0  0  0
   39.3735   25.4889   33.9730 H   0  0  0  0  0  0  0  0  0  0  0  0
   41.3001   26.9833   33.3304 H   0  0  0  0  0  0  0  0  0  0  0  0
   39.7646   22.5214   33.6962 H   0  0  0  0  0  0  0  0  0  0  0  0
   38.7750   24.4032   37.4655 H   0  0  0  0  0  0  0  0  0  0  0  0
   36.3670   21.2783   35.8936 H   0  0  0  0  0  0  0  0  0  0  0  0
   44.6088   23.2383   34.5583 H   0  0  0  0  0  0  0  0  0  0  0  0
   46.8263   22.7232   35.5444 H   0  0  0  0  0  0  0  0  0  0  0  0
   46.0652   25.4518   38.7227 H   0  0  0  0  0  0  0  0  0  0  0  0
  1 10  1  0
  1  7  1  0
  2  1  1  0
  3  2  2  0
  3  4  1  0
  4  6  1  0
  5  4  2  0
  6  7  1  0
  6 15  1  0
  7  8  2  0
  9 14  2  0
  9 10  1  0
 10 11  2  0
 11 12  1  0
 13 12  2  0
 14 13  1  0
 15 20  2  0
 16 17  2  0
 16 15  1  0
 17 18  1  0
 18 19  2  0
 20 19  1  0
  2 21  1  0
  3 22  1  0
  9 23  1  0
 11 24  1  0
 13 25  1  0
 16 26  1  0
 17 27  1  0
 19 28  1  0
M  ISO  8  21  14  22  14  23  14  24  14  25  14  26  14  27  14  28  14
M  END
>  <minimizedAffinity>  (1) 
-4.07316399

>  <minimizedRMSD>  (1) 
6.76575565

$$$$
