
     RDKit          3D

 32 34  0  0  1  0  0  0  0  0999 V2000
   42.6850   24.4410   35.7080 N   0  0  0  0  0  0  0  0  0  0  0  0
   42.5210   25.5300   34.9530 C   0  0  0  0  0  0  0  0  0  0  0  0
   41.2500   25.9160   34.5300 C   0  0  0  0  0  0  0  0  0  0  0  0
   40.1900   25.1020   34.9430 C   0  0  0  0  0  0  0  0  0  0  0  0
   39.0310   25.3610   34.6200 O   0  0  0  0  0  0  0  0  0  0  0  0
   40.3720   24.0140   35.6990 N   0  0  0  0  0  0  0  0  0  0  0  0
   41.6330   23.6870   36.0810 C   0  0  0  0  0  0  0  0  0  0  0  0
   41.8450   22.6710   36.7910 O   0  0  0  0  0  0  0  0  0  0  0  0
   44.4950   24.9270   37.1420 C   0  0  0  0  0  0  0  0  0  0  0  0
   44.0170   24.1760   36.0570 C   0  0  0  0  0  0  0  0  0  0  0  0
   44.8920   23.2670   35.4550 C   0  0  0  0  0  0  0  0  0  0  0  0
   46.1500   23.1510   35.9380 N   0  0  0  0  0  0  0  0  0  0  0  0
   46.5800   23.8870   36.9800 C   0  0  0  0  0  0  0  0  0  0  0  0
   45.7610   24.7750   37.5860 N   0  0  0  0  0  0  0  0  0  0  0  0
   38.1980   23.8450   36.7600 N   0  0  0  0  0  0  0  0  0  0  0  0
   37.2450   22.7340   36.9080 C   0  0  0  0  0  0  0  0  0  0  0  0
   37.4090   21.8720   35.6690 C   0  0  0  0  0  0  0  0  0  0  0  0
   38.5800   22.5150   34.9400 C   0  0  0  0  0  0  0  0  0  0  0  0
   39.2880   23.1810   36.1200 C   0  0  1  0  0  0  0  0  0  0  0  0
   43.3971   26.1282   34.6620 H   0  0  0  0  0  0  0  0  0  0  0  0
   41.0899   26.8088   33.9076 H   0  0  0  0  0  0  0  0  0  0  0  0
   43.8293   25.6491   37.6373 H   0  0  0  0  0  0  0  0  0  0  0  0
   44.5626   22.6557   34.6019 H   0  0  0  0  0  0  0  0  0  0  0  0
   47.6111   23.7641   37.3428 H   0  0  0  0  0  0  0  0  0  0  0  0
   37.8141   24.5974   36.1706 H   0  0  0  0  0  0  0  0  0  0  0  0
   37.4753   22.1511   37.8120 H   0  0  0  0  0  0  0  0  0  0  0  0
   36.2128   23.1003   37.0094 H   0  0  0  0  0  0  0  0  0  0  0  0
   37.6394   20.8316   35.9418 H   0  0  0  0  0  0  0  0  0  0  0  0
   36.4967   21.8255   35.0561 H   0  0  0  0  0  0  0  0  0  0  0  0
   39.2185   21.7650   34.4504 H   0  0  0  0  0  0  0  0  0  0  0  0
   38.3014   23.1946   34.1211 H   0  0  0  0  0  0  0  0  0  0  0  0
   39.8100   22.4998   36.8081 H   0  0  0  0  0  0  0  0  0  0  0  0
  1 10  1  0
  1  7  1  0
  2  1  1  0
  3  4  1  0
  3  2  2  0
  4  6  1  0
  5  4  2  0
  6  7  1  0
  6 19  1  0
  7  8  2  0
  9 14  2  0
 10  9  1  0
 11 12  1  0
 11 10  2  0
 12 13  2  0
 13 14  1  0
 15 16  1  0
 17 16  1  0
 18 17  1  0
 19 18  1  0
 19 15  1  0
  2 20  1  0
  3 21  1  0
  9 22  1  0
 11 23  1  0
 13 24  1  0
 15 25  1  0
 16 26  1  0
 16 27  1  0
 17 28  1  0
 17 29  1  0
 18 30  1  0
 18 31  1  0
 19 32  1  1
M  ISO  8  20  14  21  14  22  14  23  14  24  14  25   5  26  13  27  13
M  ISO  5  28  13  29  13  30  13  31  13  32  13
M  END
>  <minimizedAffinity>  (1) 
-3.97784352

>  <minimizedRMSD>  (1) 
4.02837229

$$$$
