
     RDKit          3D

 27 29  0  0  0  0  0  0  0  0999 V2000
   39.0090   25.4030   34.6070 N   0  0  0  0  0  0  0  0  0  0  0  0
   40.3320   25.5670   34.7240 C   0  0  0  0  0  0  0  0  0  0  0  0
   40.9960   26.4580   33.8750 C   0  0  0  0  0  0  0  0  0  0  0  0
   40.2230   27.1280   32.9450 C   0  0  0  0  0  0  0  0  0  0  0  0
   40.7300   27.9310   32.1590 O   0  0  0  0  0  0  0  0  0  0  0  0
   38.8950   26.9520   32.8400 N   0  0  0  0  0  0  0  0  0  0  0  0
   38.2840   26.0810   33.6810 C   0  0  0  0  0  0  0  0  0  0  0  0
   37.0560   25.8780   33.6290 O   0  0  0  0  0  0  0  0  0  0  0  0
   38.2040   25.0130   36.7950 C   0  0  0  0  0  0  0  0  0  0  0  0
   38.4620   24.4780   35.5210 C   0  0  0  0  0  0  0  0  0  0  0  0
   38.1660   23.1380   35.2880 C   0  0  0  0  0  0  0  0  0  0  0  0
   37.6410   22.3950   36.2910 N   0  0  0  0  0  0  0  0  0  0  0  0
   37.4030   22.9350   37.5070 C   0  0  0  0  0  0  0  0  0  0  0  0
   37.6780   24.2300   37.7630 N   0  0  0  0  0  0  0  0  0  0  0  0
   38.0740   27.6300   31.8920 C   0  0  0  0  0  0  0  0  0  0  0  0
   38.0830   27.5190   30.4960 C   0  0  0  0  0  0  0  0  0  0  0  0
   37.1910   28.2800   29.8180 C   0  0  0  0  0  0  0  0  0  0  0  0
   36.3470   29.0990   30.5080 C   0  0  0  0  0  0  0  0  0  0  0  0
   36.7690   28.8400   32.2120 S   0  0  0  0  0  0  0  0  0  0  0  0
   40.8940   25.0041   35.4838 H   0  0  0  0  0  0  0  0  0  0  0  0
   42.0821   26.6182   33.9439 H   0  0  0  0  0  0  0  0  0  0  0  0
   38.4302   26.0690   37.0042 H   0  0  0  0  0  0  0  0  0  0  0  0
   38.3560   22.6886   34.3022 H   0  0  0  0  0  0  0  0  0  0  0  0
   36.9770   22.3062   38.3027 H   0  0  0  0  0  0  0  0  0  0  0  0
   38.7806   26.8464   29.9754 H   0  0  0  0  0  0  0  0  0  0  0  0
   37.1478   28.2377   28.7197 H   0  0  0  0  0  0  0  0  0  0  0  0
   35.5769   29.7700   30.0997 H   0  0  0  0  0  0  0  0  0  0  0  0
  1  2  1  0
  1 10  1  0
  3  2  2  0
  4  3  1  0
  5  4  2  0
  6  4  1  0
  6  7  1  0
  7  1  1  0
  8  7  2  0
  9 14  2  0
 10  9  1  0
 11 10  2  0
 11 12  1  0
 12 13  2  0
 13 14  1  0
 15 19  1  0
 15  6  1  0
 16 15  2  0
 17 16  1  0
 17 18  2  0
 18 19  1  0
  2 20  1  0
  3 21  1  0
  9 22  1  0
 11 23  1  0
 13 24  1  0
 16 25  1  0
 17 26  1  0
 18 27  1  0
M  ISO  8  20  14  21  14  22  14  23  14  24  14  25  14  26  14  27  14
M  END
>  <minimizedAffinity>  (1) 
-3.94422483

>  <minimizedRMSD>  (1) 
4.42226934

$$$$
