
     RDKit          3D

 29 30  0  0  0  0  0  0  0  0999 V2000
   42.4600   25.1790   34.9470 N   0  0  0  0  0  0  0  0  0  0  0  0
   42.6200   26.3370   34.3020 C   0  0  0  0  0  0  0  0  0  0  0  0
   41.5120   27.0780   33.8850 C   0  0  0  0  0  0  0  0  0  0  0  0
   40.2590   26.5280   34.1850 C   0  0  0  0  0  0  0  0  0  0  0  0
   39.2310   27.1160   33.8530 O   0  0  0  0  0  0  0  0  0  0  0  0
   40.1100   25.3480   34.8420 N   0  0  0  0  0  0  0  0  0  0  0  0
   41.2200   24.6850   35.2170 C   0  0  0  0  0  0  0  0  0  0  0  0
   41.1380   23.5880   35.8270 O   0  0  0  0  0  0  0  0  0  0  0  0
   44.1910   24.9640   36.5300 C   0  0  0  0  0  0  0  0  0  0  0  0
   43.6550   24.5460   35.3030 C   0  0  0  0  0  0  0  0  0  0  0  0
   44.3410   23.5620   34.5760 C   0  0  0  0  0  0  0  0  0  0  0  0
   45.4920   23.0610   35.0940 N   0  0  0  0  0  0  0  0  0  0  0  0
   45.9770   23.4950   36.2870 C   0  0  0  0  0  0  0  0  0  0  0  0
   45.3390   24.4310   36.9960 N   0  0  0  0  0  0  0  0  0  0  0  0
   38.7860   24.8390   35.1210 C   0  0  0  0  0  0  0  0  0  0  0  0
   37.9500   25.7230   35.9790 C   0  0  0  0  0  0  0  0  0  0  0  0
   38.0120   24.5520   33.8460 C   0  0  0  0  0  0  0  0  0  0  0  0
   43.6340   26.7110   34.0971 H   0  0  0  0  0  0  0  0  0  0  0  0
   41.6168   28.0353   33.3533 H   0  0  0  0  0  0  0  0  0  0  0  0
   43.6700   25.7340   37.1179 H   0  0  0  0  0  0  0  0  0  0  0  0
   43.9559   23.2047   33.6095 H   0  0  0  0  0  0  0  0  0  0  0  0
   46.9127   23.0676   36.6765 H   0  0  0  0  0  0  0  0  0  0  0  0
   38.9763   23.9111   35.6802 H   0  0  0  0  0  0  0  0  0  0  0  0
   38.1548   25.5065   37.0379 H   0  0  0  0  0  0  0  0  0  0  0  0
   38.1913   26.7750   35.7665 H   0  0  0  0  0  0  0  0  0  0  0  0
   36.8862   25.5407   35.7665 H   0  0  0  0  0  0  0  0  0  0  0  0
   37.0089   24.1801   34.1019 H   0  0  0  0  0  0  0  0  0  0  0  0
   37.9210   25.4762   33.2564 H   0  0  0  0  0  0  0  0  0  0  0  0
   38.5455   23.7919   33.2564 H   0  0  0  0  0  0  0  0  0  0  0  0
  1  7  1  0
  1 10  1  0
  2  1  1  0
  3  4  1  0
  3  2  2  0
  4  6  1  0
  5  4  2  0
  6 15  1  0
  6  7  1  0
  7  8  2  0
  9 14  2  0
 10  9  1  0
 11 12  1  0
 11 10  2  0
 12 13  2  0
 13 14  1  0
 15 16  1  0
 17 15  1  0
  2 18  1  0
  3 19  1  0
  9 20  1  0
 11 21  1  0
 13 22  1  0
 15 23  1  0
 16 24  1  0
 16 25  1  0
 16 26  1  0
 17 27  1  0
 17 28  1  0
 17 29  1  0
M  ISO  8  18  14  19  14  20  14  21  14  22  14  23   8  24   8  25   8
M  ISO  4  26   8  27   8  28   8  29   8
M  END
>  <minimizedAffinity>  (1) 
-3.37134504

>  <minimizedRMSD>  (1) 
3.45319796

$$$$
