
     RDKit          3D

 48 51  0  0  0  0  0  0  0  0999 V2000
   37.2670   22.5610   37.1460 C   0  0  0  0  0  0  0  0  0  0  0  0
   36.9660   21.9050   35.8800 C   0  0  0  0  0  0  0  0  0  0  0  0
   35.8830   21.1540   35.6530 C   0  0  0  0  0  0  0  0  0  0  0  0
   35.5750   20.5510   34.4800 C   0  0  0  0  0  0  0  0  0  0  0  0
   36.5720   20.8170   33.4830 C   0  0  0  0  0  0  0  0  0  0  0  0
   37.8380   21.9020   34.3330 S   0  0  0  0  0  0  0  0  0  0  0  0
   36.7500   20.4190   32.1130 C   0  0  0  0  0  0  0  0  0  0  0  0
   35.8610   19.6460   31.4260 C   0  0  0  0  0  0  0  0  0  0  0  0
   36.7020   19.4670   29.7470 S   0  0  0  0  0  0  0  0  0  0  0  0
   38.1230   20.5160   30.3650 C   0  0  0  0  0  0  0  0  0  0  0  0
   37.7710   20.7210   31.4040 N   0  0  0  0  0  0  0  0  0  0  0  0
   39.2530   20.7870   29.4140 C   0  0  0  0  0  0  0  0  0  0  0  0
   39.4080   22.2440   29.0880 C   0  0  0  0  0  0  0  0  0  0  0  0
   40.4140   22.1460   27.9330 C   0  0  0  0  0  0  0  0  0  0  0  0
   39.8140   21.0290   27.1070 C   0  0  0  0  0  0  0  0  0  0  0  0
   38.9840   20.1850   28.0820 C   0  0  0  0  0  0  0  0  0  0  0  0
   38.1520   23.7690   37.0350 C   0  0  0  0  0  0  0  0  0  0  0  0
   41.4450   21.9930   37.2380 C   0  0  0  0  0  0  0  0  0  0  0  0
   40.1360   22.3300   37.5340 C   0  0  0  0  0  0  0  0  0  0  0  0
   39.5180   23.3530   36.7940 C   0  0  0  0  0  0  0  0  0  0  0  0
   40.2490   23.9620   35.8160 N   0  0  0  0  0  0  0  0  0  0  0  0
   41.5240   23.6080   35.5530 C   0  0  0  0  0  0  0  0  0  0  0  0
   42.1190   22.6210   36.2690 N   0  0  0  0  0  0  0  0  0  0  0  0
   38.1170   24.5060   38.3720 C   0  0  0  0  0  0  0  0  0  0  0  0
   37.5790   24.6450   35.9410 C   0  0  0  0  0  0  0  0  0  0  0  0
   36.3169   22.8739   37.6036 H   0  0  0  0  0  0  0  0  0  0  0  0
   37.8195   21.8271   37.7511 H   0  0  0  0  0  0  0  0  0  0  0  0
   35.1830   21.0142   36.4899 H   0  0  0  0  0  0  0  0  0  0  0  0
   34.6774   19.9373   34.3134 H   0  0  0  0  0  0  0  0  0  0  0  0
   34.8994   19.2326   31.7644 H   0  0  0  0  0  0  0  0  0  0  0  0
   40.1367   20.3771   29.9249 H   0  0  0  0  0  0  0  0  0  0  0  0
   38.4577   22.6948   28.7660 H   0  0  0  0  0  0  0  0  0  0  0  0
   39.7246   22.8784   29.9290 H   0  0  0  0  0  0  0  0  0  0  0  0
   40.4645   23.0853   27.3628 H   0  0  0  0  0  0  0  0  0  0  0  0
   41.4498   21.9610   28.2538 H   0  0  0  0  0  0  0  0  0  0  0  0
   39.1715   21.4413   26.3150 H   0  0  0  0  0  0  0  0  0  0  0  0
   40.5924   20.4281   26.6140 H   0  0  0  0  0  0  0  0  0  0  0  0
   37.9136   20.2464   27.8361 H   0  0  0  0  0  0  0  0  0  0  0  0
   39.2487   19.1180   28.0430 H   0  0  0  0  0  0  0  0  0  0  0  0
   41.9398   21.1943   37.8100 H   0  0  0  0  0  0  0  0  0  0  0  0
   39.5895   21.8075   38.3330 H   0  0  0  0  0  0  0  0  0  0  0  0
   42.0826   24.1208   34.7561 H   0  0  0  0  0  0  0  0  0  0  0  0
   38.1517   23.7760   39.1941 H   0  0  0  0  0  0  0  0  0  0  0  0
   38.9842   25.1791   38.4425 H   0  0  0  0  0  0  0  0  0  0  0  0
   37.1899   25.0938   38.4425 H   0  0  0  0  0  0  0  0  0  0  0  0
   37.0301   25.4842   36.3931 H   0  0  0  0  0  0  0  0  0  0  0  0
   38.3970   25.0352   35.3176 H   0  0  0  0  0  0  0  0  0  0  0  0
   36.8937   24.0519   35.3176 H   0  0  0  0  0  0  0  0  0  0  0  0
  2  1  1  0
  3  2  2  0
  4  3  1  0
  5  6  1  0
  5  4  2  0
  6  2  1  0
  7  5  1  0
  8  7  2  0
  9 10  1  0
  9  8  1  0
 10 11  2  0
 11  7  1  0
 12 10  1  0
 13 12  1  0
 14 13  1  0
 15 14  1  0
 15 16  1  0
 16 12  1  0
 17  1  1  0
 17 24  1  0
 18 19  2  0
 20 17  1  0
 20 19  1  0
 21 20  2  0
 22 21  1  0
 22 23  2  0
 23 18  1  0
 25 17  1  0
  1 26  1  0
  1 27  1  0
  3 28  1  0
  4 29  1  0
  8 30  1  0
 12 31  1  0
 13 32  1  0
 13 33  1  0
 14 34  1  0
 14 35  1  0
 15 36  1  0
 15 37  1  0
 16 38  1  0
 16 39  1  0
 18 40  1  0
 19 41  1  0
 22 42  1  0
 24 43  1  0
 24 44  1  0
 24 45  1  0
 25 46  1  0
 25 47  1  0
 25 48  1  0
M  ISO  8  26   8  27   8  28  14  29  14  30  14  31  13  32  13  33  13
M  ISO  8  34  13  35  13  36  13  37  13  38  13  39  13  40  14  41  14
M  ISO  7  42  14  43   8  44   8  45   8  46   8  47   8  48   8
M  END
>  <minimizedAffinity>  (1) 
-4.77386761

>  <minimizedRMSD>  (1) 
0.320834458

$$$$
