
     RDKit          3D

 38 41  0  0  0  0  0  0  0  0999 V2000
   39.0140   24.4840   35.1270 N   0  0  0  0  0  0  0  0  0  0  0  0
   38.2350   23.5100   35.6160 C   0  0  0  0  0  0  0  0  0  0  0  0
   38.8060   22.4390   36.3070 C   0  0  0  0  0  0  0  0  0  0  0  0
   40.1890   22.4490   36.4510 C   0  0  0  0  0  0  0  0  0  0  0  0
   40.7800   21.5410   37.0490 O   0  0  0  0  0  0  0  0  0  0  0  0
   40.9540   23.4290   35.9570 N   0  0  0  0  0  0  0  0  0  0  0  0
   40.3590   24.4540   35.2900 C   0  0  0  0  0  0  0  0  0  0  0  0
   41.0430   25.4010   34.8070 O   0  0  0  0  0  0  0  0  0  0  0  0
   42.3670   23.5090   36.0620 C   0  0  0  0  0  0  0  0  0  0  0  0
   43.3690   22.6010   36.3550 C   0  0  0  0  0  0  0  0  0  0  0  0
   44.5490   23.3080   36.2990 C   0  0  0  0  0  0  0  0  0  0  0  0
   44.2610   24.6010   35.9810 N   0  0  0  0  0  0  0  0  0  0  0  0
   42.9440   24.6830   35.8460 N   0  0  0  0  0  0  0  0  0  0  0  0
   37.6470   26.4000   35.3030 C   0  0  0  0  0  0  0  0  0  0  0  0
   38.3190   25.4950   34.4570 C   0  0  0  0  0  0  0  0  0  0  0  0
   38.2300   25.6870   33.0720 C   0  0  0  0  0  0  0  0  0  0  0  0
   37.5070   26.7280   32.6120 N   0  0  0  0  0  0  0  0  0  0  0  0
   36.8790   27.5710   33.4330 C   0  0  0  0  0  0  0  0  0  0  0  0
   36.9400   27.4200   34.7810 N   0  0  0  0  0  0  0  0  0  0  0  0
   36.1620   28.6120   32.7650 N   0  0  0  0  0  0  0  0  0  0  0  0
   36.5690   28.8090   31.4780 C   0  0  0  0  0  0  0  0  0  0  0  0
   35.9550   29.7890   30.7230 C   0  0  0  0  0  0  0  0  0  0  0  0
   34.9490   30.5340   31.2990 C   0  0  0  0  0  0  0  0  0  0  0  0
   34.3600   31.5140   30.4860 N   0  0  0  0  0  0  0  0  0  0  0  0
   34.5760   30.3140   32.5580 N   0  0  0  0  0  0  0  0  0  0  0  0
   35.1790   29.3490   33.3070 C   0  0  0  0  0  0  0  0  0  0  0  0
   34.8700   29.0970   34.4950 O   0  0  0  0  0  0  0  0  0  0  0  0
   37.1452   23.5538   35.4732 H   0  0  0  0  0  0  0  0  0  0  0  0
   38.1903   21.6254   36.7182 H   0  0  0  0  0  0  0  0  0  0  0  0
   43.2476   21.5323   36.5856 H   0  0  0  0  0  0  0  0  0  0  0  0
   45.5537   22.8984   36.4802 H   0  0  0  0  0  0  0  0  0  0  0  0
   44.9376   25.3692   35.8670 H   0  0  0  0  0  0  0  0  0  0  0  0
   37.7004   26.2725   36.3943 H   0  0  0  0  0  0  0  0  0  0  0  0
   38.7385   25.0039   32.3757 H   0  0  0  0  0  0  0  0  0  0  0  0
   37.3747   28.1961   31.0477 H   0  0  0  0  0  0  0  0  0  0  0  0
   36.2628   29.9712   29.6828 H   0  0  0  0  0  0  0  0  0  0  0  0
   33.6023   32.1044   30.8579 H   0  0  0  0  0  0  0  0  0  0  0  0
   34.6852   31.6431   29.5173 H   0  0  0  0  0  0  0  0  0  0  0  0
  1  7  1  0
  1  2  1  0
  2  3  2  0
  3  4  1  0
  4  5  2  0
  6  9  1  0
  6  4  1  0
  7  6  1  0
  8  7  2  0
  9 10  1  0
 11 10  2  0
 12 11  1  0
 13 12  1  0
 13  9  2  0
 15  1  1  0
 15 14  2  0
 16 15  1  0
 17 16  2  0
 17 18  1  0
 18 19  2  0
 19 14  1  0
 20 26  1  0
 20 18  1  0
 21 20  1  0
 22 23  1  0
 22 21  2  0
 23 25  2  0
 24 23  1  0
 25 26  1  0
 26 27  2  0
  2 28  1  0
  3 29  1  0
 10 30  1  0
 11 31  1  0
 12 32  1  0
 14 33  1  0
 16 34  1  0
 21 35  1  0
 22 36  1  0
 24 37  1  0
 24 38  1  0
M  ISO  8  28  14  29  14  30  14  31  14  32   9  33  14  34  14  35  14
M  ISO  1  36  14
M  END
>  <minimizedAffinity>  (1) 
-6.48371363

>  <minimizedRMSD>  (1) 
8.17371655

$$$$
