
     RDKit          3D

 38 42  0  0  0  0  0  0  0  0999 V2000
   37.1610   27.8390   32.7170 N   0  0  0  0  0  0  0  0  0  0  0  0
   37.2020   27.9140   31.3810 C   0  0  0  0  0  0  0  0  0  0  0  0
   36.4010   28.8490   30.7150 C   0  0  0  0  0  0  0  0  0  0  0  0
   35.5970   29.6590   31.4880 C   0  0  0  0  0  0  0  0  0  0  0  0
   34.8600   30.5090   30.9800 O   0  0  0  0  0  0  0  0  0  0  0  0
   35.5700   29.5690   32.8150 N   0  0  0  0  0  0  0  0  0  0  0  0
   36.3540   28.6550   33.4490 C   0  0  0  0  0  0  0  0  0  0  0  0
   36.3650   28.5330   34.6970 O   0  0  0  0  0  0  0  0  0  0  0  0
   34.7660   30.3710   33.6800 C   0  0  0  0  0  0  0  0  0  0  0  0
   33.6630   31.1720   33.5180 C   0  0  0  0  0  0  0  0  0  0  0  0
   33.3590   31.6780   34.7600 C   0  0  0  0  0  0  0  0  0  0  0  0
   34.2520   31.1950   35.6430 N   0  0  0  0  0  0  0  0  0  0  0  0
   35.0930   30.4080   34.9720 N   0  0  0  0  0  0  0  0  0  0  0  0
   39.3750   27.1380   33.1210 C   0  0  0  0  0  0  0  0  0  0  0  0
   38.0040   26.8680   33.2620 C   0  0  0  0  0  0  0  0  0  0  0  0
   37.6370   25.6940   33.9110 C   0  0  0  0  0  0  0  0  0  0  0  0
   38.5870   24.8580   34.3800 N   0  0  0  0  0  0  0  0  0  0  0  0
   39.8970   25.1520   34.2260 C   0  0  0  0  0  0  0  0  0  0  0  0
   40.2980   26.2850   33.6000 N   0  0  0  0  0  0  0  0  0  0  0  0
   40.9290   24.2990   34.7050 N   0  0  0  0  0  0  0  0  0  0  0  0
   42.1460   24.3020   34.0890 C   0  0  0  0  0  0  0  0  0  0  0  0
   42.9700   23.4280   34.6970 N   0  0  0  0  0  0  0  0  0  0  0  0
   42.2980   22.8510   35.7120 C   0  0  0  0  0  0  0  0  0  0  0  0
   42.5270   21.9030   36.7070 C   0  0  0  0  0  0  0  0  0  0  0  0
   41.5560   21.5670   37.5910 N   0  0  0  0  0  0  0  0  0  0  0  0
   40.3380   22.1400   37.5330 C   0  0  0  0  0  0  0  0  0  0  0  0
   40.0710   23.0740   36.5740 N   0  0  0  0  0  0  0  0  0  0  0  0
   41.0350   23.4020   35.7030 C   0  0  0  0  0  0  0  0  0  0  0  0
   37.8617   27.2444   30.8096 H   0  0  0  0  0  0  0  0  0  0  0  0
   36.4127   28.9340   29.6184 H   0  0  0  0  0  0  0  0  0  0  0  0
   33.1270   31.3704   32.5782 H   0  0  0  0  0  0  0  0  0  0  0  0
   32.5282   32.3606   34.9919 H   0  0  0  0  0  0  0  0  0  0  0  0
   34.2805   31.3965   36.6527 H   0  0  0  0  0  0  0  0  0  0  0  0
   39.6979   28.0584   32.6126 H   0  0  0  0  0  0  0  0  0  0  0  0
   36.5731   25.4470   34.0420 H   0  0  0  0  0  0  0  0  0  0  0  0
   42.4144   24.9260   33.2238 H   0  0  0  0  0  0  0  0  0  0  0  0
   43.5124   21.4191   36.7763 H   0  0  0  0  0  0  0  0  0  0  0  0
   39.5602   21.8557   38.2571 H   0  0  0  0  0  0  0  0  0  0  0  0
  1 15  1  0
  1  7  1  0
  2  1  1  0
  3  2  2  0
  3  4  1  0
  4  6  1  0
  5  4  2  0
  6  7  1  0
  6  9  1  0
  7  8  2  0
  9 13  2  0
 10  9  1  0
 10 11  2  0
 11 12  1  0
 13 12  1  0
 14 15  2  0
 14 19  1  0
 15 16  1  0
 16 17  2  0
 18 17  1  0
 18 20  1  0
 19 18  2  0
 20 28  1  0
 21 22  2  0
 21 20  1  0
 22 23  1  0
 23 24  1  0
 24 25  2  0
 26 25  1  0
 27 26  2  0
 28 23  2  0
 28 27  1  0
  2 29  1  0
  3 30  1  0
 10 31  1  0
 11 32  1  0
 12 33  1  0
 14 34  1  0
 16 35  1  0
 21 36  1  0
 24 37  1  0
 26 38  1  0
M  ISO  8  29  14  30  14  31  14  32  14  33   9  34  14  35  14  36  14
M  ISO  2  37  14  38  14
M  END
>  <minimizedAffinity>  (1) 
-5.8652606

>  <minimizedRMSD>  (1) 
5.74961567

$$$$
