
     RDKit          3D

 43 46  0  0  0  0  0  0  0  0999 V2000
   37.2500   22.5920   37.2140 C   0  0  0  0  0  0  0  0  0  0  0  0
   36.9570   21.9350   35.9460 C   0  0  0  0  0  0  0  0  0  0  0  0
   35.8740   21.1650   35.7280 C   0  0  0  0  0  0  0  0  0  0  0  0
   35.6080   20.5550   34.5430 C   0  0  0  0  0  0  0  0  0  0  0  0
   36.6020   20.8220   33.5520 C   0  0  0  0  0  0  0  0  0  0  0  0
   37.8550   21.9340   34.4040 S   0  0  0  0  0  0  0  0  0  0  0  0
   36.7630   20.4430   32.1850 C   0  0  0  0  0  0  0  0  0  0  0  0
   36.0070   19.5240   31.5430 C   0  0  0  0  0  0  0  0  0  0  0  0
   36.7670   19.5020   29.8040 S   0  0  0  0  0  0  0  0  0  0  0  0
   37.9920   20.7970   30.3530 C   0  0  0  0  0  0  0  0  0  0  0  0
   37.6730   20.9360   31.4120 N   0  0  0  0  0  0  0  0  0  0  0  0
   39.0040   21.3040   29.3850 C   0  0  0  0  0  0  0  0  0  0  0  0
   39.6280   20.4540   28.5290 C   0  0  0  0  0  0  0  0  0  0  0  0
   40.5640   20.9480   27.6360 C   0  0  0  0  0  0  0  0  0  0  0  0
   40.8570   22.2600   27.6170 N   0  0  0  0  0  0  0  0  0  0  0  0
   40.2340   23.1030   28.4720 C   0  0  0  0  0  0  0  0  0  0  0  0
   39.3190   22.6090   29.3390 N   0  0  0  0  0  0  0  0  0  0  0  0
   38.1530   23.7850   37.1190 C   0  0  0  0  0  0  0  0  0  0  0  0
   41.4430   21.9940   37.2470 C   0  0  0  0  0  0  0  0  0  0  0  0
   40.1410   22.3420   37.5740 C   0  0  0  0  0  0  0  0  0  0  0  0
   39.5090   23.3590   36.8430 C   0  0  0  0  0  0  0  0  0  0  0  0
   40.2190   23.9520   35.8400 N   0  0  0  0  0  0  0  0  0  0  0  0
   41.4800   23.5920   35.5460 C   0  0  0  0  0  0  0  0  0  0  0  0
   42.0860   22.6130   36.2520 N   0  0  0  0  0  0  0  0  0  0  0  0
   38.1480   24.4820   38.4810 C   0  0  0  0  0  0  0  0  0  0  0  0
   37.5580   24.6860   36.0630 C   0  0  0  0  0  0  0  0  0  0  0  0
   36.2975   22.9200   37.6558 H   0  0  0  0  0  0  0  0  0  0  0  0
   37.7851   21.8511   37.8262 H   0  0  0  0  0  0  0  0  0  0  0  0
   35.1643   21.0216   36.5561 H   0  0  0  0  0  0  0  0  0  0  0  0
   34.7241   19.9246   34.3662 H   0  0  0  0  0  0  0  0  0  0  0  0
   35.1624   18.9360   31.9315 H   0  0  0  0  0  0  0  0  0  0  0  0
   39.3913   19.3799   28.5450 H   0  0  0  0  0  0  0  0  0  0  0  0
   41.0701   20.2638   26.9390 H   0  0  0  0  0  0  0  0  0  0  0  0
   40.4682   24.1777   28.4629 H   0  0  0  0  0  0  0  0  0  0  0  0
   41.9522   21.1998   37.8127 H   0  0  0  0  0  0  0  0  0  0  0  0
   39.6132   21.8297   38.3920 H   0  0  0  0  0  0  0  0  0  0  0  0
   42.0190   24.0951   34.7297 H   0  0  0  0  0  0  0  0  0  0  0  0
   38.1534   23.7258   39.2799 H   0  0  0  0  0  0  0  0  0  0  0  0
   39.0416   25.1171   38.5712 H   0  0  0  0  0  0  0  0  0  0  0  0
   37.2454   25.1042   38.5712 H   0  0  0  0  0  0  0  0  0  0  0  0
   37.0140   25.5098   36.5481 H   0  0  0  0  0  0  0  0  0  0  0  0
   38.3628   25.0971   35.4359 H   0  0  0  0  0  0  0  0  0  0  0  0
   36.8639   24.1073   35.4359 H   0  0  0  0  0  0  0  0  0  0  0  0
  2  1  1  0
  3  2  2  0
  4  3  1  0
  5  6  1  0
  5  4  2  0
  6  2  1  0
  7  5  1  0
  8  7  2  0
  9 10  1  0
  9  8  1  0
 10 11  2  0
 11  7  1  0
 12 10  1  0
 13 12  2  0
 14 13  1  0
 15 14  2  0
 15 16  1  0
 16 17  2  0
 17 12  1  0
 18  1  1  0
 18 25  1  0
 19 20  2  0
 21 18  1  0
 21 20  1  0
 22 21  2  0
 23 22  1  0
 23 24  2  0
 24 19  1  0
 26 18  1  0
  1 27  1  0
  1 28  1  0
  3 29  1  0
  4 30  1  0
  8 31  1  0
 13 32  1  0
 14 33  1  0
 16 34  1  0
 19 35  1  0
 20 36  1  0
 23 37  1  0
 25 38  1  0
 25 39  1  0
 25 40  1  0
 26 41  1  0
 26 42  1  0
 26 43  1  0
M  ISO  8  27   8  28   8  29  14  30  14  31  14  32  14  33  14  34  14
M  ISO  8  35  14  36  14  37  14  38   8  39   8  40   8  41   8  42   8
M  ISO  1  43   8
M  END
>  <minimizedAffinity>  (1) 
-4.70086861

>  <minimizedRMSD>  (1) 
0.589276552

$$$$
