
     RDKit          3D

 40 44  0  0  0  0  0  0  0  0999 V2000
   40.3820   26.1980   34.8560 C   0  0  0  0  0  0  0  0  0  0  0  0
   41.2160   25.5890   33.9200 C   0  0  0  0  0  0  0  0  0  0  0  0
   41.0420   24.2270   33.6670 C   0  0  0  0  0  0  0  0  0  0  0  0
   40.0760   23.5610   34.3400 N   0  0  0  0  0  0  0  0  0  0  0  0
   39.2850   24.1820   35.2430 C   0  0  0  0  0  0  0  0  0  0  0  0
   39.4290   25.4940   35.5080 N   0  0  0  0  0  0  0  0  0  0  0  0
   38.2920   23.4130   35.9100 N   0  0  0  0  0  0  0  0  0  0  0  0
   38.1050   23.6100   37.2470 C   0  0  0  0  0  0  0  0  0  0  0  0
   37.1260   22.7850   37.6650 N   0  0  0  0  0  0  0  0  0  0  0  0
   36.7080   22.0850   36.6050 C   0  0  0  0  0  0  0  0  0  0  0  0
   35.7680   21.1070   36.3450 C   0  0  0  0  0  0  0  0  0  0  0  0
   35.5810   20.5780   35.1080 N   0  0  0  0  0  0  0  0  0  0  0  0
   36.3370   21.0130   34.0680 C   0  0  0  0  0  0  0  0  0  0  0  0
   37.2730   21.9730   34.2730 N   0  0  0  0  0  0  0  0  0  0  0  0
   37.4380   22.4740   35.4900 C   0  0  0  0  0  0  0  0  0  0  0  0
   42.1540   26.4380   33.3280 N   0  0  0  0  0  0  0  0  0  0  0  0
   43.3280   26.4980   33.9670 C   0  0  0  0  0  0  0  0  0  0  0  0
   44.3470   27.3100   33.4760 C   0  0  0  0  0  0  0  0  0  0  0  0
   44.0890   28.0360   32.3230 C   0  0  0  0  0  0  0  0  0  0  0  0
   44.9320   28.7790   31.8200 O   0  0  0  0  0  0  0  0  0  0  0  0
   42.9100   27.9660   31.6950 N   0  0  0  0  0  0  0  0  0  0  0  0
   41.9230   27.1600   32.1970 C   0  0  0  0  0  0  0  0  0  0  0  0
   40.8090   27.0640   31.6460 O   0  0  0  0  0  0  0  0  0  0  0  0
   42.5600   28.6720   30.5110 C   0  0  0  0  0  0  0  0  0  0  0  0
   43.2700   29.3320   29.5250 C   0  0  0  0  0  0  0  0  0  0  0  0
   42.3390   29.8130   28.6380 C   0  0  0  0  0  0  0  0  0  0  0  0
   41.1010   29.4620   29.0690 N   0  0  0  0  0  0  0  0  0  0  0  0
   41.2730   28.7760   30.1990 N   0  0  0  0  0  0  0  0  0  0  0  0
   34.9830   20.6670   37.4680 N   0  0  0  0  0  0  0  0  0  0  0  0
   40.5011   27.2707   35.0683 H   0  0  0  0  0  0  0  0  0  0  0  0
   41.6774   23.7063   32.9355 H   0  0  0  0  0  0  0  0  0  0  0  0
   38.6595   24.3216   37.8765 H   0  0  0  0  0  0  0  0  0  0  0  0
   36.1913   20.5889   33.0635 H   0  0  0  0  0  0  0  0  0  0  0  0
   43.4882   25.9059   34.8801 H   0  0  0  0  0  0  0  0  0  0  0  0
   45.3207   27.3733   33.9839 H   0  0  0  0  0  0  0  0  0  0  0  0
   44.3621   29.4484   29.4636 H   0  0  0  0  0  0  0  0  0  0  0  0
   42.5603   30.3886   27.7271 H   0  0  0  0  0  0  0  0  0  0  0  0
   40.2043   29.6824   28.6126 H   0  0  0  0  0  0  0  0  0  0  0  0
   34.2647   19.9398   37.3409 H   0  0  0  0  0  0  0  0  0  0  0  0
   35.1394   21.0793   38.3988 H   0  0  0  0  0  0  0  0  0  0  0  0
  1  6  2  0
  2  1  1  0
  3  2  2  0
  3  4  1  0
  4  5  2  0
  5  6  1  0
  5  7  1  0
  7  8  1  0
  8  9  2  0
 10  9  1  0
 11 10  2  0
 11 29  1  0
 12 11  1  0
 13 14  1  0
 13 12  2  0
 14 15  2  0
 15  7  1  0
 15 10  1  0
 16  2  1  0
 16 17  1  0
 18 17  2  0
 19 18  1  0
 20 19  2  0
 21 22  1  0
 21 19  1  0
 22 16  1  0
 23 22  2  0
 24 21  1  0
 25 24  1  0
 26 27  1  0
 26 25  2  0
 27 28  1  0
 28 24  2  0
  1 30  1  0
  3 31  1  0
  8 32  1  0
 13 33  1  0
 17 34  1  0
 18 35  1  0
 25 36  1  0
 26 37  1  0
 27 38  1  0
 29 39  1  0
 29 40  1  0
M  ISO  8  30  14  31  14  32  14  33  14  34  14  35  14  36  14  37  14
M  ISO  1  38   9
M  END
>  <minimizedAffinity>  (1) 
-5.71760893

>  <minimizedRMSD>  (1) 
3.9218955

$$$$
