
     RDKit          3D

 34 37  0  0  0  0  0  0  0  0999 V2000
   38.7690   25.5450   33.7490 N   0  0  0  0  0  0  0  0  0  0  0  0
   37.7840   26.2140   34.3430 C   0  0  0  0  0  0  0  0  0  0  0  0
   37.4820   25.9680   35.6850 C   0  0  0  0  0  0  0  0  0  0  0  0
   38.2460   25.0160   36.3380 C   0  0  0  0  0  0  0  0  0  0  0  0
   38.0430   24.7410   37.5180 O   0  0  0  0  0  0  0  0  0  0  0  0
   39.2330   24.3490   35.7340 N   0  0  0  0  0  0  0  0  0  0  0  0
   39.5070   24.6120   34.4190 C   0  0  0  0  0  0  0  0  0  0  0  0
   40.4280   24.0100   33.8040 O   0  0  0  0  0  0  0  0  0  0  0  0
   40.0600   23.3580   36.3390 C   0  0  0  0  0  0  0  0  0  0  0  0
   39.9800   22.5940   37.4720 C   0  0  0  0  0  0  0  0  0  0  0  0
   41.1100   21.8190   37.4970 C   0  0  0  0  0  0  0  0  0  0  0  0
   41.8530   22.1040   36.4120 N   0  0  0  0  0  0  0  0  0  0  0  0
   41.1860   23.0430   35.7320 N   0  0  0  0  0  0  0  0  0  0  0  0
   39.6170   27.1120   32.2040 C   0  0  0  0  0  0  0  0  0  0  0  0
   38.9790   25.8770   32.4060 C   0  0  0  0  0  0  0  0  0  0  0  0
   38.6310   25.1300   31.2850 C   0  0  0  0  0  0  0  0  0  0  0  0
   38.9160   25.6120   30.0550 N   0  0  0  0  0  0  0  0  0  0  0  0
   39.5220   26.7880   29.8880 C   0  0  0  0  0  0  0  0  0  0  0  0
   39.8820   27.5560   30.9570 N   0  0  0  0  0  0  0  0  0  0  0  0
   39.8550   27.3630   28.6330 N   0  0  0  0  0  0  0  0  0  0  0  0
   40.4530   28.5820   28.7060 C   0  0  0  0  0  0  0  0  0  0  0  0
   40.7080   28.9940   27.3950 C   0  0  0  0  0  0  0  0  0  0  0  0
   40.2510   28.0060   26.5740 N   0  0  0  0  0  0  0  0  0  0  0  0
   39.7330   27.0170   27.3400 C   0  0  0  0  0  0  0  0  0  0  0  0
   37.2074   26.9608   33.7775 H   0  0  0  0  0  0  0  0  0  0  0  0
   36.6730   26.5070   36.1998 H   0  0  0  0  0  0  0  0  0  0  0  0
   39.1692   22.6008   38.2153 H   0  0  0  0  0  0  0  0  0  0  0  0
   41.3670   21.0854   38.2753 H   0  0  0  0  0  0  0  0  0  0  0  0
   42.7571   21.6823   36.1557 H   0  0  0  0  0  0  0  0  0  0  0  0
   39.9039   27.7242   33.0717 H   0  0  0  0  0  0  0  0  0  0  0  0
   38.1293   24.1577   31.3986 H   0  0  0  0  0  0  0  0  0  0  0  0
   40.6913   29.1391   29.6241 H   0  0  0  0  0  0  0  0  0  0  0  0
   41.1858   29.9350   27.0850 H   0  0  0  0  0  0  0  0  0  0  0  0
   39.2860   26.0842   26.9658 H   0  0  0  0  0  0  0  0  0  0  0  0
  1  2  1  0
  1  7  1  0
  2  3  2  0
  3  4  1  0
  4  5  2  0
  6  4  1  0
  6  9  1  0
  7  6  1  0
  8  7  2  0
  9 10  1  0
 10 11  2  0
 12 11  1  0
 13  9  2  0
 13 12  1  0
 14 15  2  0
 15  1  1  0
 16 15  1  0
 17 16  2  0
 18 17  1  0
 18 19  2  0
 19 14  1  0
 20 21  1  0
 20 18  1  0
 22 21  2  0
 23 24  2  0
 23 22  1  0
 24 20  1  0
  2 25  1  0
  3 26  1  0
 10 27  1  0
 11 28  1  0
 12 29  1  0
 14 30  1  0
 16 31  1  0
 21 32  1  0
 22 33  1  0
 24 34  1  0
M  ISO  8  25  14  26  14  27  14  28  14  29   9  30  14  31  14  32  14
M  ISO  2  33  14  34  14
M  END
>  <minimizedAffinity>  (1) 
-5.03547764

>  <minimizedRMSD>  (1) 
8.45792484

$$$$
