
     RDKit          3D

 39 42  0  0  0  0  0  0  0  0999 V2000
   39.5720   26.6130   31.7040 N   0  0  0  0  0  0  0  0  0  0  0  0
   40.7630   26.2890   31.1690 C   0  0  0  0  0  0  0  0  0  0  0  0
   41.2220   26.9620   30.0410 C   0  0  0  0  0  0  0  0  0  0  0  0
   40.4080   27.9540   29.5160 C   0  0  0  0  0  0  0  0  0  0  0  0
   40.7350   28.5990   28.5200 O   0  0  0  0  0  0  0  0  0  0  0  0
   39.2220   28.2700   30.0570 N   0  0  0  0  0  0  0  0  0  0  0  0
   38.8010   27.5940   31.1610 C   0  0  0  0  0  0  0  0  0  0  0  0
   37.6920   27.8560   31.7070 O   0  0  0  0  0  0  0  0  0  0  0  0
   38.3350   29.2720   29.5760 C   0  0  0  0  0  0  0  0  0  0  0  0
   38.2050   29.9560   28.3890 C   0  0  0  0  0  0  0  0  0  0  0  0
   37.1240   30.8060   28.5760 C   0  0  0  0  0  0  0  0  0  0  0  0
   36.6310   30.6360   29.8260 N   0  0  0  0  0  0  0  0  0  0  0  0
   37.3850   29.7040   30.3990 N   0  0  0  0  0  0  0  0  0  0  0  0
   40.2790   25.1910   33.4420 C   0  0  0  0  0  0  0  0  0  0  0  0
   39.2240   25.8730   32.8280 C   0  0  0  0  0  0  0  0  0  0  0  0
   37.9630   25.7380   33.4000 C   0  0  0  0  0  0  0  0  0  0  0  0
   37.8070   24.9700   34.5020 N   0  0  0  0  0  0  0  0  0  0  0  0
   38.8420   24.3360   35.0560 C   0  0  0  0  0  0  0  0  0  0  0  0
   40.0800   24.4340   34.5420 N   0  0  0  0  0  0  0  0  0  0  0  0
   38.7120   23.5210   36.2150 N   0  0  0  0  0  0  0  0  0  0  0  0
   37.5370   22.9600   36.8550 C   0  0  0  0  0  0  0  0  0  0  0  0
   37.6790   23.4800   38.2750 C   0  0  0  0  0  0  0  0  0  0  0  0
   39.1630   23.2780   38.5220 C   0  0  0  0  0  0  0  0  0  0  0  0
   39.7130   22.9870   37.1320 C   0  0  0  0  0  0  0  0  0  0  0  0
   41.3728   25.4936   31.6224 H   0  0  0  0  0  0  0  0  0  0  0  0
   42.1920   26.7168   29.5840 H   0  0  0  0  0  0  0  0  0  0  0  0
   38.8246   29.8515   27.4861 H   0  0  0  0  0  0  0  0  0  0  0  0
   36.7294   31.5078   27.8265 H   0  0  0  0  0  0  0  0  0  0  0  0
   35.8318   31.1302   30.2479 H   0  0  0  0  0  0  0  0  0  0  0  0
   41.2916   25.2729   33.0202 H   0  0  0  0  0  0  0  0  0  0  0  0
   37.0974   26.2533   32.9581 H   0  0  0  0  0  0  0  0  0  0  0  0
   36.6120   23.3255   36.3852 H   0  0  0  0  0  0  0  0  0  0  0  0
   37.4725   21.8641   36.7861 H   0  0  0  0  0  0  0  0  0  0  0  0
   37.4007   24.5420   38.3441 H   0  0  0  0  0  0  0  0  0  0  0  0
   37.0292   22.9756   39.0053 H   0  0  0  0  0  0  0  0  0  0  0  0
   39.6193   24.1854   38.9443 H   0  0  0  0  0  0  0  0  0  0  0  0
   39.3739   22.4762   39.2449 H   0  0  0  0  0  0  0  0  0  0  0  0
   39.8363   21.9041   36.9831 H   0  0  0  0  0  0  0  0  0  0  0  0
   40.7032   23.4394   36.9745 H   0  0  0  0  0  0  0  0  0  0  0  0
  1 15  1  0
  2  1  1  0
  3  2  2  0
  4  3  1  0
  4  6  1  0
  5  4  2  0
  6  7  1  0
  7  1  1  0
  7  8  2  0
  9  6  1  0
  9 13  2  0
 10 11  2  0
 10  9  1  0
 11 12  1  0
 12 13  1  0
 14 19  2  0
 15 16  2  0
 15 14  1  0
 16 17  1  0
 17 18  2  0
 18 20  1  0
 19 18  1  0
 20 21  1  0
 20 24  1  0
 21 22  1  0
 22 23  1  0
 24 23  1  0
  2 25  1  0
  3 26  1  0
 10 27  1  0
 11 28  1  0
 12 29  1  0
 14 30  1  0
 16 31  1  0
 21 32  1  0
 21 33  1  0
 22 34  1  0
 22 35  1  0
 23 36  1  0
 23 37  1  0
 24 38  1  0
 24 39  1  0
M  ISO  8  25  14  26  14  27  14  28  14  29   9  30  14  31  14  32  13
M  ISO  7  33  13  34  13  35  13  36  13  37  13  38  13  39  13
M  END
>  <minimizedAffinity>  (1) 
-4.9979434

>  <minimizedRMSD>  (1) 
3.24018955

$$$$
