
     RDKit          3D

 34 37  0  0  0  0  0  0  0  0999 V2000
   36.7820   25.4030   31.8110 N   0  0  0  0  0  0  0  0  0  0  0  0
   36.0380   24.5920   31.0380 C   0  0  0  0  0  0  0  0  0  0  0  0
   35.9670   23.2340   31.3440 C   0  0  0  0  0  0  0  0  0  0  0  0
   36.6720   22.7780   32.4390 C   0  0  0  0  0  0  0  0  0  0  0  0
   36.6600   21.5940   32.7720 O   0  0  0  0  0  0  0  0  0  0  0  0
   37.4140   23.6020   33.2050 N   0  0  0  0  0  0  0  0  0  0  0  0
   37.4670   24.9220   32.8860 C   0  0  0  0  0  0  0  0  0  0  0  0
   38.1470   25.7310   33.5720 O   0  0  0  0  0  0  0  0  0  0  0  0
   38.1620   23.2010   34.3420 C   0  0  0  0  0  0  0  0  0  0  0  0
   38.6280   22.0110   34.8380 C   0  0  0  0  0  0  0  0  0  0  0  0
   39.2960   22.3060   35.9990 C   0  0  0  0  0  0  0  0  0  0  0  0
   39.2380   23.6510   36.2080 N   0  0  0  0  0  0  0  0  0  0  0  0
   38.5470   24.1570   35.1860 N   0  0  0  0  0  0  0  0  0  0  0  0
   35.6970   27.5000   31.9040 C   0  0  0  0  0  0  0  0  0  0  0  0
   36.7820   26.7450   31.4150 C   0  0  0  0  0  0  0  0  0  0  0  0
   37.7280   27.3790   30.6080 C   0  0  0  0  0  0  0  0  0  0  0  0
   37.5570   28.6990   30.3300 N   0  0  0  0  0  0  0  0  0  0  0  0
   36.5200   29.3890   30.8070 C   0  0  0  0  0  0  0  0  0  0  0  0
   35.5870   28.8040   31.5920 N   0  0  0  0  0  0  0  0  0  0  0  0
   36.3200   30.8080   30.5200 C   0  0  0  0  0  0  0  0  0  0  0  0
   37.1960   31.7430   29.9990 C   0  0  0  0  0  0  0  0  0  0  0  0
   36.4430   32.9210   29.9530 C   0  0  0  0  0  0  0  0  0  0  0  0
   35.1660   32.6260   30.4460 C   0  0  0  0  0  0  0  0  0  0  0  0
   35.1620   31.3640   30.7630 O   0  0  0  0  0  0  0  0  0  0  0  0
   35.4912   24.9962   30.1733 H   0  0  0  0  0  0  0  0  0  0  0  0
   35.3666   22.5460   30.7306 H   0  0  0  0  0  0  0  0  0  0  0  0
   38.4927   21.0146   34.3921 H   0  0  0  0  0  0  0  0  0  0  0  0
   39.7961   21.5769   36.6534 H   0  0  0  0  0  0  0  0  0  0  0  0
   39.6460   24.1723   36.9971 H   0  0  0  0  0  0  0  0  0  0  0  0
   34.9388   27.0222   32.5419 H   0  0  0  0  0  0  0  0  0  0  0  0
   38.5897   26.8251   30.2072 H   0  0  0  0  0  0  0  0  0  0  0  0
   38.2419   31.5947   29.6921 H   0  0  0  0  0  0  0  0  0  0  0  0
   36.7909   33.9011   29.5946 H   0  0  0  0  0  0  0  0  0  0  0  0
   34.3253   33.3282   30.5463 H   0  0  0  0  0  0  0  0  0  0  0  0
  1  7  1  0
  2  3  2  0
  2  1  1  0
  3  4  1  0
  4  5  2  0
  4  6  1  0
  6  9  1  0
  7  6  1  0
  7  8  2  0
  9 10  1  0
  9 13  2  0
 10 11  2  0
 11 12  1  0
 13 12  1  0
 15  1  1  0
 15 14  2  0
 16 15  1  0
 17 16  2  0
 17 18  1  0
 18 19  2  0
 19 14  1  0
 20 24  1  0
 20 18  1  0
 21 20  2  0
 22 21  1  0
 22 23  2  0
 23 24  1  0
  2 25  1  0
  3 26  1  0
 10 27  1  0
 11 28  1  0
 12 29  1  0
 14 30  1  0
 16 31  1  0
 21 32  1  0
 22 33  1  0
 23 34  1  0
M  ISO  8  25  14  26  14  27  14  28  14  29   9  30  14  31  14  32  14
M  ISO  2  33  14  34  14
M  END
>  <minimizedAffinity>  (1) 
-4.9634099

>  <minimizedRMSD>  (1) 
8.35946369

$$$$
