
     RDKit          3D

 36 38  0  0  0  0  0  0  0  0999 V2000
   39.9420   26.5180   33.2730 N   0  0  0  0  0  0  0  0  0  0  0  0
   41.2470   26.8020   33.4080 C   0  0  0  0  0  0  0  0  0  0  0  0
   41.9030   27.5370   32.4290 C   0  0  0  0  0  0  0  0  0  0  0  0
   41.1520   27.9450   31.3400 C   0  0  0  0  0  0  0  0  0  0  0  0
   41.6560   28.6000   30.4260 O   0  0  0  0  0  0  0  0  0  0  0  0
   39.8510   27.6520   31.2200 N   0  0  0  0  0  0  0  0  0  0  0  0
   39.2440   26.9360   32.1910 C   0  0  0  0  0  0  0  0  0  0  0  0
   38.0180   26.6330   32.1270 O   0  0  0  0  0  0  0  0  0  0  0  0
   39.0150   28.0390   30.1270 C   0  0  0  0  0  0  0  0  0  0  0  0
   39.2520   28.4860   28.8410 C   0  0  0  0  0  0  0  0  0  0  0  0
   37.9970   28.6870   28.2850 C   0  0  0  0  0  0  0  0  0  0  0  0
   37.0510   28.3690   29.2120 N   0  0  0  0  0  0  0  0  0  0  0  0
   37.7010   27.9830   30.3080 N   0  0  0  0  0  0  0  0  0  0  0  0
   38.8820   26.5290   35.3830 C   0  0  0  0  0  0  0  0  0  0  0  0
   39.3950   25.7680   34.3340 C   0  0  0  0  0  0  0  0  0  0  0  0
   39.3290   24.3790   34.4190 C   0  0  0  0  0  0  0  0  0  0  0  0
   38.7720   23.8160   35.5090 N   0  0  0  0  0  0  0  0  0  0  0  0
   38.2820   24.5790   36.5110 C   0  0  0  0  0  0  0  0  0  0  0  0
   38.3310   25.9310   36.4590 N   0  0  0  0  0  0  0  0  0  0  0  0
   37.6690   23.9220   37.7120 C   0  0  0  0  0  0  0  0  0  0  0  0
   36.9700   22.6520   37.2750 C   0  0  0  0  0  0  0  0  0  0  0  0
   38.8220   23.5050   38.6340 C   0  0  0  0  0  0  0  0  0  0  0  0
   41.7970   26.4525   34.2942 H   0  0  0  0  0  0  0  0  0  0  0  0
   42.9715   27.7839   32.5151 H   0  0  0  0  0  0  0  0  0  0  0  0
   40.2281   28.6480   28.3604 H   0  0  0  0  0  0  0  0  0  0  0  0
   37.7985   29.0443   27.2638 H   0  0  0  0  0  0  0  0  0  0  0  0
   36.0296   28.4178   29.0888 H   0  0  0  0  0  0  0  0  0  0  0  0
   38.9269   27.6269   35.3329 H   0  0  0  0  0  0  0  0  0  0  0  0
   39.7259   23.7509   33.6078 H   0  0  0  0  0  0  0  0  0  0  0  0
   36.9612   24.6034   38.2067 H   0  0  0  0  0  0  0  0  0  0  0  0
   36.6564   22.0822   38.1621 H   0  0  0  0  0  0  0  0  0  0  0  0
   36.0860   22.9086   36.6727 H   0  0  0  0  0  0  0  0  0  0  0  0
   37.6597   22.0425   36.6727 H   0  0  0  0  0  0  0  0  0  0  0  0
   38.5114   23.6173   39.6833 H   0  0  0  0  0  0  0  0  0  0  0  0
   39.0852   22.4547   38.4399 H   0  0  0  0  0  0  0  0  0  0  0  0
   39.6961   24.1439   38.4399 H   0  0  0  0  0  0  0  0  0  0  0  0
  1  2  1  0
  1 15  1  0
  3  2  2  0
  4  3  1  0
  5  4  2  0
  6  4  1  0
  6  7  1  0
  7  1  1  0
  8  7  2  0
  9 13  2  0
  9  6  1  0
 10  9  1  0
 11 10  2  0
 11 12  1  0
 12 13  1  0
 14 19  2  0
 15 16  2  0
 15 14  1  0
 16 17  1  0
 17 18  2  0
 18 20  1  0
 19 18  1  0
 20 22  1  0
 21 20  1  0
  2 23  1  0
  3 24  1  0
 10 25  1  0
 11 26  1  0
 12 27  1  0
 14 28  1  0
 16 29  1  0
 20 30  1  0
 21 31  1  0
 21 32  1  0
 21 33  1  0
 22 34  1  0
 22 35  1  0
 22 36  1  0
M  ISO  8  23  14  24  14  25  14  26  14  27   9  28  14  29  14  30   8
M  ISO  6  31   8  32   8  33   8  34   8  35   8  36   8
M  END
>  <minimizedAffinity>  (1) 
-4.78546667

>  <minimizedRMSD>  (1) 
1.86848688

$$$$
