
     RDKit          3D

 32 35  0  0  0  0  0  0  0  0999 V2000
   38.8820   25.6320   33.6110 N   0  0  0  0  0  0  0  0  0  0  0  0
   37.8560   26.3040   34.1440 C   0  0  0  0  0  0  0  0  0  0  0  0
   37.4820   26.0410   35.4620 C   0  0  0  0  0  0  0  0  0  0  0  0
   38.1960   25.0910   36.1600 C   0  0  0  0  0  0  0  0  0  0  0  0
   37.9200   24.8120   37.3240 O   0  0  0  0  0  0  0  0  0  0  0  0
   39.2150   24.4320   35.6170 N   0  0  0  0  0  0  0  0  0  0  0  0
   39.5710   24.6980   34.3270 C   0  0  0  0  0  0  0  0  0  0  0  0
   40.5280   24.0950   33.7770 O   0  0  0  0  0  0  0  0  0  0  0  0
   40.0020   23.4360   36.2710 C   0  0  0  0  0  0  0  0  0  0  0  0
   39.8500   22.6630   37.3980 C   0  0  0  0  0  0  0  0  0  0  0  0
   40.9850   21.8860   37.4880 C   0  0  0  0  0  0  0  0  0  0  0  0
   41.7910   22.1780   36.4540 N   0  0  0  0  0  0  0  0  0  0  0  0
   41.1780   23.1160   35.7320 N   0  0  0  0  0  0  0  0  0  0  0  0
   39.9920   27.1150   32.1400 C   0  0  0  0  0  0  0  0  0  0  0  0
   39.1790   25.9700   32.2800 C   0  0  0  0  0  0  0  0  0  0  0  0
   38.7560   25.2970   31.1320 C   0  0  0  0  0  0  0  0  0  0  0  0
   39.1460   25.7750   29.9270 N   0  0  0  0  0  0  0  0  0  0  0  0
   39.9160   26.8610   29.8190 C   0  0  0  0  0  0  0  0  0  0  0  0
   40.3410   27.5330   30.9040 N   0  0  0  0  0  0  0  0  0  0  0  0
   40.3500   27.3950   28.5330 C   0  0  0  0  0  0  0  0  0  0  0  0
   41.2540   28.2880   28.0870 N   0  0  0  0  0  0  0  0  0  0  0  0
   41.1740   28.3410   26.7750 O   0  0  0  0  0  0  0  0  0  0  0  0
   40.2480   27.5130   26.3620 C   0  0  0  0  0  0  0  0  0  0  0  0
   39.6970   26.8900   27.4450 N   0  0  0  0  0  0  0  0  0  0  0  0
   37.3137   27.0548   33.5505 H   0  0  0  0  0  0  0  0  0  0  0  0
   36.6424   26.5758   35.9301 H   0  0  0  0  0  0  0  0  0  0  0  0
   38.9943   22.6644   38.0892 H   0  0  0  0  0  0  0  0  0  0  0  0
   41.1958   21.1485   38.2765 H   0  0  0  0  0  0  0  0  0  0  0  0
   42.7098   21.7565   36.2562 H   0  0  0  0  0  0  0  0  0  0  0  0
   40.3383   27.6620   33.0293 H   0  0  0  0  0  0  0  0  0  0  0  0
   38.1219   24.4011   31.2049 H   0  0  0  0  0  0  0  0  0  0  0  0
   39.9606   27.3463   25.3134 H   0  0  0  0  0  0  0  0  0  0  0  0
  1  2  1  0
  1  7  1  0
  2  3  2  0
  3  4  1  0
  4  5  2  0
  6  4  1  0
  6  9  1  0
  7  6  1  0
  8  7  2  0
  9 10  1  0
 10 11  2  0
 12 11  1  0
 13  9  2  0
 13 12  1  0
 14 15  2  0
 15  1  1  0
 16 15  1  0
 17 16  2  0
 18 17  1  0
 18 19  2  0
 19 14  1  0
 20 18  1  0
 21 20  2  0
 22 21  1  0
 23 22  1  0
 23 24  2  0
 24 20  1  0
  2 25  1  0
  3 26  1  0
 10 27  1  0
 11 28  1  0
 12 29  1  0
 14 30  1  0
 16 31  1  0
 23 32  1  0
M  ISO  8  25  14  26  14  27  14  28  14  29   9  30  14  31  14  32  14
M  END
>  <minimizedAffinity>  (1) 
-4.72157001

>  <minimizedRMSD>  (1) 
8.5459137

$$$$
