
     RDKit          3D

 42 45  0  0  0  0  0  0  0  0999 V2000
   37.2530   22.5930   37.2150 C   0  0  0  0  0  0  0  0  0  0  0  0
   36.9560   21.9350   35.9480 C   0  0  0  0  0  0  0  0  0  0  0  0
   35.8760   21.1590   35.7360 C   0  0  0  0  0  0  0  0  0  0  0  0
   35.5980   20.5480   34.5540 C   0  0  0  0  0  0  0  0  0  0  0  0
   36.5870   20.8260   33.5580 C   0  0  0  0  0  0  0  0  0  0  0  0
   37.8420   21.9390   34.3930 S   0  0  0  0  0  0  0  0  0  0  0  0
   36.7420   20.4440   32.1830 C   0  0  0  0  0  0  0  0  0  0  0  0
   35.9640   19.5160   31.5580 C   0  0  0  0  0  0  0  0  0  0  0  0
   36.7320   19.4710   29.8290 S   0  0  0  0  0  0  0  0  0  0  0  0
   37.9670   20.7620   30.3580 C   0  0  0  0  0  0  0  0  0  0  0  0
   37.6460   20.9150   31.4090 N   0  0  0  0  0  0  0  0  0  0  0  0
   38.9600   21.2080   29.3350 C   0  0  0  0  0  0  0  0  0  0  0  0
   39.6010   22.4040   29.2280 C   0  0  0  0  0  0  0  0  0  0  0  0
   40.3950   22.2390   28.0930 C   0  0  0  0  0  0  0  0  0  0  0  0
   40.2050   20.9900   27.5780 N   0  0  0  0  0  0  0  0  0  0  0  0
   39.3110   20.3800   28.3710 N   0  0  0  0  0  0  0  0  0  0  0  0
   38.1610   23.7790   37.1120 C   0  0  0  0  0  0  0  0  0  0  0  0
   41.4460   21.9910   37.2440 C   0  0  0  0  0  0  0  0  0  0  0  0
   40.1480   22.3430   37.5670 C   0  0  0  0  0  0  0  0  0  0  0  0
   39.5180   23.3590   36.8340 C   0  0  0  0  0  0  0  0  0  0  0  0
   40.2250   23.9480   35.8350 N   0  0  0  0  0  0  0  0  0  0  0  0
   41.4890   23.5860   35.5410 C   0  0  0  0  0  0  0  0  0  0  0  0
   42.0950   22.6050   36.2490 N   0  0  0  0  0  0  0  0  0  0  0  0
   38.1520   24.4870   38.4660 C   0  0  0  0  0  0  0  0  0  0  0  0
   37.5670   24.6790   36.0480 C   0  0  0  0  0  0  0  0  0  0  0  0
   36.3030   22.9274   37.6572 H   0  0  0  0  0  0  0  0  0  0  0  0
   37.7829   21.8514   37.8309 H   0  0  0  0  0  0  0  0  0  0  0  0
   35.1755   21.0104   36.5710 H   0  0  0  0  0  0  0  0  0  0  0  0
   34.7156   19.9138   34.3831 H   0  0  0  0  0  0  0  0  0  0  0  0
   35.1127   18.9432   31.9546 H   0  0  0  0  0  0  0  0  0  0  0  0
   39.5140   23.2866   29.8787 H   0  0  0  0  0  0  0  0  0  0  0  0
   41.0713   23.0000   27.6766 H   0  0  0  0  0  0  0  0  0  0  0  0
   40.6593   20.5928   26.7433 H   0  0  0  0  0  0  0  0  0  0  0  0
   41.9507   21.1961   37.8127 H   0  0  0  0  0  0  0  0  0  0  0  0
   39.6183   21.8341   38.3858 H   0  0  0  0  0  0  0  0  0  0  0  0
   42.0288   24.0883   34.7247 H   0  0  0  0  0  0  0  0  0  0  0  0
   38.1615   23.7380   39.2715 H   0  0  0  0  0  0  0  0  0  0  0  0
   39.0421   25.1278   38.5506 H   0  0  0  0  0  0  0  0  0  0  0  0
   37.2459   25.1050   38.5506 H   0  0  0  0  0  0  0  0  0  0  0  0
   37.0220   25.5048   36.5287 H   0  0  0  0  0  0  0  0  0  0  0  0
   38.3734   25.0876   35.4214 H   0  0  0  0  0  0  0  0  0  0  0  0
   36.8742   24.0981   35.4214 H   0  0  0  0  0  0  0  0  0  0  0  0
  2  1  1  0
  3  2  2  0
  4  3  1  0
  5  6  1  0
  5  4  2  0
  6  2  1  0
  7  5  1  0
  8  7  2  0
  9 10  1  0
  9  8  1  0
 10 11  2  0
 11  7  1  0
 12 10  1  0
 13 12  1  0
 14 13  2  0
 15 14  1  0
 15 16  1  0
 16 12  2  0
 17  1  1  0
 17 24  1  0
 18 19  2  0
 20 17  1  0
 20 19  1  0
 21 20  2  0
 22 21  1  0
 22 23  2  0
 23 18  1  0
 25 17  1  0
  1 26  1  0
  1 27  1  0
  3 28  1  0
  4 29  1  0
  8 30  1  0
 13 31  1  0
 14 32  1  0
 15 33  1  0
 18 34  1  0
 19 35  1  0
 22 36  1  0
 24 37  1  0
 24 38  1  0
 24 39  1  0
 25 40  1  0
 25 41  1  0
 25 42  1  0
M  ISO  8  26   8  27   8  28  14  29  14  30  14  31  14  32  14  33   9
M  ISO  8  34  14  35  14  36  14  37   8  38   8  39   8  40   8  41   8
M  ISO  1  42   8
M  END
>  <minimizedAffinity>  (1) 
-4.6830101

>  <minimizedRMSD>  (1) 
0.23940371

$$$$
