
     RDKit          3D

 40 43  0  0  0  0  0  0  0  0999 V2000
   38.8970   26.2990   32.0270 N   0  0  0  0  0  0  0  0  0  0  0  0
   39.6910   25.9850   33.0470 C   0  0  0  0  0  0  0  0  0  0  0  0
   39.3960   26.4490   34.3250 C   0  0  0  0  0  0  0  0  0  0  0  0
   38.2630   27.2310   34.4680 C   0  0  0  0  0  0  0  0  0  0  0  0
   37.9320   27.6820   35.5640 O   0  0  0  0  0  0  0  0  0  0  0  0
   37.4720   27.5410   33.4390 N   0  0  0  0  0  0  0  0  0  0  0  0
   37.7820   27.0750   32.1990 C   0  0  0  0  0  0  0  0  0  0  0  0
   37.0710   27.3350   31.1920 O   0  0  0  0  0  0  0  0  0  0  0  0
   36.2920   28.3370   33.5030 C   0  0  0  0  0  0  0  0  0  0  0  0
   35.7750   29.2220   34.4240 C   0  0  0  0  0  0  0  0  0  0  0  0
   34.5900   29.6630   33.8890 C   0  0  0  0  0  0  0  0  0  0  0  0
   34.3910   29.0720   32.6910 N   0  0  0  0  0  0  0  0  0  0  0  0
   35.4410   28.2720   32.4810 N   0  0  0  0  0  0  0  0  0  0  0  0
   38.8800   24.4610   30.5370 C   0  0  0  0  0  0  0  0  0  0  0  0
   39.2980   25.7730   30.7880 C   0  0  0  0  0  0  0  0  0  0  0  0
   40.0610   26.4350   29.8070 C   0  0  0  0  0  0  0  0  0  0  0  0
   40.3560   25.7680   28.6590 N   0  0  0  0  0  0  0  0  0  0  0  0
   39.9380   24.5180   28.4600 C   0  0  0  0  0  0  0  0  0  0  0  0
   39.2080   23.8540   29.3750 N   0  0  0  0  0  0  0  0  0  0  0  0
   40.2850   23.8830   27.2370 N   0  0  0  0  0  0  0  0  0  0  0  0
   40.7780   24.6660   26.1210 C   0  0  0  0  0  0  0  0  0  0  0  0
   40.0650   24.2440   24.8400 C   0  0  0  0  0  0  0  0  0  0  0  0
   39.8820   22.8830   24.7430 O   0  0  0  0  0  0  0  0  0  0  0  0
   39.2280   22.3070   25.8180 C   0  0  0  0  0  0  0  0  0  0  0  0
   40.1750   22.4550   27.0150 C   0  0  0  0  0  0  0  0  0  0  0  0
   40.5800   25.3591   32.8802 H   0  0  0  0  0  0  0  0  0  0  0  0
   40.0362   26.2047   35.1855 H   0  0  0  0  0  0  0  0  0  0  0  0
   36.2191   29.5142   35.3870 H   0  0  0  0  0  0  0  0  0  0  0  0
   33.9087   30.3853   34.3624 H   0  0  0  0  0  0  0  0  0  0  0  0
   33.5872   29.2107   32.0621 H   0  0  0  0  0  0  0  0  0  0  0  0
   38.2829   23.9225   31.2876 H   0  0  0  0  0  0  0  0  0  0  0  0
   40.4098   27.4662   29.9652 H   0  0  0  0  0  0  0  0  0  0  0  0
   40.5876   25.7327   26.3107 H   0  0  0  0  0  0  0  0  0  0  0  0
   41.8591   24.4973   26.0079 H   0  0  0  0  0  0  0  0  0  0  0  0
   39.0795   24.7319   24.8117 H   0  0  0  0  0  0  0  0  0  0  0  0
   40.7020   24.5486   23.9965 H   0  0  0  0  0  0  0  0  0  0  0  0
   38.2798   22.8293   26.0135 H   0  0  0  0  0  0  0  0  0  0  0  0
   38.9842   21.2520   25.6241 H   0  0  0  0  0  0  0  0  0  0  0  0
   39.7561   21.9577   27.9023 H   0  0  0  0  0  0  0  0  0  0  0  0
   41.1543   21.9915   26.8248 H   0  0  0  0  0  0  0  0  0  0  0  0
  1  7  1  0
  1  2  1  0
  2  3  2  0
  3  4  1  0
  4  5  2  0
  6  9  1  0
  6  4  1  0
  7  6  1  0
  8  7  2  0
  9 10  1  0
 11 10  2  0
 12 11  1  0
 13 12  1  0
 13  9  2  0
 14 15  2  0
 15  1  1  0
 16 15  1  0
 17 16  2  0
 18 17  1  0
 18 19  2  0
 19 14  1  0
 20 18  1  0
 21 20  1  0
 22 21  1  0
 23 22  1  0
 23 24  1  0
 24 25  1  0
 25 20  1  0
  2 26  1  0
  3 27  1  0
 10 28  1  0
 11 29  1  0
 12 30  1  0
 14 31  1  0
 16 32  1  0
 21 33  1  0
 21 34  1  0
 22 35  1  0
 22 36  1  0
 24 37  1  0
 24 38  1  0
 25 39  1  0
 25 40  1  0
M  ISO  8  26  14  27  14  28  14  29  14  30   9  31  14  32  14  33  13
M  ISO  7  34  13  35  13  36  13  37  13  38  13  39  13  40  13
M  END
>  <minimizedAffinity>  (1) 
-4.53933716

>  <minimizedRMSD>  (1) 
8.12866306

$$$$
