
     RDKit          3D

 30 32  0  0  0  0  0  0  0  0999 V2000
   39.6820   26.0410   33.6860 N   0  0  0  0  0  0  0  0  0  0  0  0
   40.9980   26.1970   33.6570 C   0  0  0  0  0  0  0  0  0  0  0  0
   41.5870   26.9230   32.6260 C   0  0  0  0  0  0  0  0  0  0  0  0
   40.7470   27.4530   31.6680 C   0  0  0  0  0  0  0  0  0  0  0  0
   41.1930   28.1110   30.7210 O   0  0  0  0  0  0  0  0  0  0  0  0
   39.4240   27.2940   31.7030 N   0  0  0  0  0  0  0  0  0  0  0  0
   38.8740   26.5830   32.7170 C   0  0  0  0  0  0  0  0  0  0  0  0
   37.6370   26.3990   32.8030 O   0  0  0  0  0  0  0  0  0  0  0  0
   38.5040   27.8120   30.7540 C   0  0  0  0  0  0  0  0  0  0  0  0
   38.6050   28.3110   29.4770 C   0  0  0  0  0  0  0  0  0  0  0  0
   37.3200   28.6500   29.1020 C   0  0  0  0  0  0  0  0  0  0  0  0
   36.4770   28.3670   30.1100 N   0  0  0  0  0  0  0  0  0  0  0  0
   37.2280   27.8600   31.0960 N   0  0  0  0  0  0  0  0  0  0  0  0
   38.6660   26.0550   35.8210 C   0  0  0  0  0  0  0  0  0  0  0  0
   39.1970   25.2900   34.7730 C   0  0  0  0  0  0  0  0  0  0  0  0
   39.1960   23.9000   34.8970 C   0  0  0  0  0  0  0  0  0  0  0  0
   38.6910   23.3370   36.0130 N   0  0  0  0  0  0  0  0  0  0  0  0
   38.1890   24.0940   37.0030 C   0  0  0  0  0  0  0  0  0  0  0  0
   38.1760   25.4380   36.9100 N   0  0  0  0  0  0  0  0  0  0  0  0
   37.6610   23.3540   38.1810 C   0  0  0  0  0  0  0  0  0  0  0  0
   41.6232   25.7536   34.4460 H   0  0  0  0  0  0  0  0  0  0  0  0
   42.6763   27.0682   32.5768 H   0  0  0  0  0  0  0  0  0  0  0  0
   39.5209   28.4182   28.8774 H   0  0  0  0  0  0  0  0  0  0  0  0
   37.0320   29.0828   28.1326 H   0  0  0  0  0  0  0  0  0  0  0  0
   35.4572   28.5113   30.1217 H   0  0  0  0  0  0  0  0  0  0  0  0
   38.6505   27.1528   35.7525 H   0  0  0  0  0  0  0  0  0  0  0  0
   39.6031   23.2701   34.0923 H   0  0  0  0  0  0  0  0  0  0  0  0
   38.0078   23.8400   39.1049 H   0  0  0  0  0  0  0  0  0  0  0  0
   36.5613   23.3591   38.1545 H   0  0  0  0  0  0  0  0  0  0  0  0
   38.0236   22.3158   38.1545 H   0  0  0  0  0  0  0  0  0  0  0  0
  1 15  1  0
  2  1  1  0
  3  2  2  0
  4  6  1  0
  4  3  1  0
  5  4  2  0
  6  7  1  0
  7  8  2  0
  7  1  1  0
  9 13  2  0
  9  6  1  0
 10  9  1  0
 11 10  2  0
 11 12  1  0
 12 13  1  0
 14 19  2  0
 15 16  2  0
 15 14  1  0
 16 17  1  0
 17 18  2  0
 18 20  1  0
 19 18  1  0
  2 21  1  0
  3 22  1  0
 10 23  1  0
 11 24  1  0
 12 25  1  0
 14 26  1  0
 16 27  1  0
 20 28  1  0
 20 29  1  0
 20 30  1  0
M  ISO  8  21  14  22  14  23  14  24  14  25   9  26  14  27  14  28   8
M  ISO  2  29   8  30   8
M  END
>  <minimizedAffinity>  (1) 
-4.46936464

>  <minimizedRMSD>  (1) 
1.16155207

$$$$
