
     RDKit          3D

 28 30  0  0  0  0  0  0  0  0999 V2000
   39.7340   26.1540   33.4610 N   0  0  0  0  0  0  0  0  0  0  0  0
   41.0630   26.2940   33.4270 C   0  0  0  0  0  0  0  0  0  0  0  0
   41.6570   27.0140   32.4010 C   0  0  0  0  0  0  0  0  0  0  0  0
   40.8180   27.5630   31.4430 C   0  0  0  0  0  0  0  0  0  0  0  0
   41.2710   28.2170   30.4990 O   0  0  0  0  0  0  0  0  0  0  0  0
   39.4870   27.4160   31.4870 N   0  0  0  0  0  0  0  0  0  0  0  0
   38.9370   26.7020   32.5090 C   0  0  0  0  0  0  0  0  0  0  0  0
   37.6970   26.5400   32.5870 O   0  0  0  0  0  0  0  0  0  0  0  0
   38.5800   27.9520   30.5380 C   0  0  0  0  0  0  0  0  0  0  0  0
   38.6760   28.4670   29.2690 C   0  0  0  0  0  0  0  0  0  0  0  0
   37.4040   28.8160   28.9020 C   0  0  0  0  0  0  0  0  0  0  0  0
   36.5600   28.5270   29.9110 N   0  0  0  0  0  0  0  0  0  0  0  0
   37.2930   28.0060   30.8870 N   0  0  0  0  0  0  0  0  0  0  0  0
   38.7930   26.1740   35.6250 C   0  0  0  0  0  0  0  0  0  0  0  0
   39.2560   25.4100   34.5390 C   0  0  0  0  0  0  0  0  0  0  0  0
   39.1930   24.0090   34.6410 C   0  0  0  0  0  0  0  0  0  0  0  0
   38.6940   23.4570   35.7740 N   0  0  0  0  0  0  0  0  0  0  0  0
   38.2650   24.2140   36.7840 C   0  0  0  0  0  0  0  0  0  0  0  0
   38.3060   25.5640   36.7270 N   0  0  0  0  0  0  0  0  0  0  0  0
   37.6330   23.3400   38.2120 S   0  0  0  0  0  0  0  0  0  0  0  0
   41.6849   25.8387   34.2119 H   0  0  0  0  0  0  0  0  0  0  0  0
   42.7481   27.1441   32.3494 H   0  0  0  0  0  0  0  0  0  0  0  0
   39.5907   28.5771   28.6681 H   0  0  0  0  0  0  0  0  0  0  0  0
   37.1173   29.2610   27.9378 H   0  0  0  0  0  0  0  0  0  0  0  0
   35.5416   28.6808   29.9229 H   0  0  0  0  0  0  0  0  0  0  0  0
   38.8276   27.2724   35.5767 H   0  0  0  0  0  0  0  0  0  0  0  0
   39.5427   23.3718   33.8154 H   0  0  0  0  0  0  0  0  0  0  0  0
   38.0757   23.9522   39.3549 H   0  0  0  0  0  0  0  0  0  0  0  0
  1 15  1  0
  2  1  1  0
  3  2  2  0
  4  6  1  0
  4  3  1  0
  5  4  2  0
  6  7  1  0
  7  8  2  0
  7  1  1  0
  9 13  2  0
  9  6  1  0
 10  9  1  0
 11 10  2  0
 11 12  1  0
 12 13  1  0
 14 19  2  0
 15 16  2  0
 15 14  1  0
 16 17  1  0
 17 18  2  0
 18 20  1  0
 19 18  1  0
  2 21  1  0
  3 22  1  0
 10 23  1  0
 11 24  1  0
 12 25  1  0
 14 26  1  0
 16 27  1  0
 20 28  1  0
M  ISO  8  21  14  22  14  23  14  24  14  25   9  26  14  27  14  28  11
M  END
>  <minimizedAffinity>  (1) 
-4.23656082

>  <minimizedRMSD>  (1) 
1.3853116

$$$$
