
     RDKit          3D

 34 37  0  0  0  0  0  0  0  0999 V2000
   40.5190   26.6410   32.9790 N   0  0  0  0  0  0  0  0  0  0  0  0
   41.7540   27.0540   33.2360 C   0  0  0  0  0  0  0  0  0  0  0  0
   42.4120   27.8750   32.3300 C   0  0  0  0  0  0  0  0  0  0  0  0
   41.7200   28.2280   31.1720 C   0  0  0  0  0  0  0  0  0  0  0  0
   42.2360   28.9530   30.3210 O   0  0  0  0  0  0  0  0  0  0  0  0
   40.4680   27.8020   30.9240 N   0  0  0  0  0  0  0  0  0  0  0  0
   39.8530   26.9980   31.8340 C   0  0  0  0  0  0  0  0  0  0  0  0
   38.6920   26.5780   31.6450 O   0  0  0  0  0  0  0  0  0  0  0  0
   39.7230   28.1290   29.7710 C   0  0  0  0  0  0  0  0  0  0  0  0
   40.0160   28.6280   28.5200 C   0  0  0  0  0  0  0  0  0  0  0  0
   38.8040   28.7170   27.8540 C   0  0  0  0  0  0  0  0  0  0  0  0
   37.8160   28.2830   28.6850 N   0  0  0  0  0  0  0  0  0  0  0  0
   38.4030   27.9360   29.8350 N   0  0  0  0  0  0  0  0  0  0  0  0
   39.2960   26.4900   34.9850 C   0  0  0  0  0  0  0  0  0  0  0  0
   39.9570   25.8180   33.9610 C   0  0  0  0  0  0  0  0  0  0  0  0
   39.9940   24.4100   34.0090 C   0  0  0  0  0  0  0  0  0  0  0  0
   39.3890   23.7800   35.0460 N   0  0  0  0  0  0  0  0  0  0  0  0
   38.7660   24.4590   36.0080 C   0  0  0  0  0  0  0  0  0  0  0  0
   38.7130   25.8060   35.9890 N   0  0  0  0  0  0  0  0  0  0  0  0
   38.1250   23.7430   37.1070 C   0  0  0  0  0  0  0  0  0  0  0  0
   38.2640   23.9960   38.4560 C   0  0  0  0  0  0  0  0  0  0  0  0
   37.5110   23.1150   39.1500 N   0  0  0  0  0  0  0  0  0  0  0  0
   36.9160   22.3290   38.2490 C   0  0  0  0  0  0  0  0  0  0  0  0
   37.2810   22.6990   37.0070 N   0  0  0  0  0  0  0  0  0  0  0  0
   42.2555   26.7463   34.1654 H   0  0  0  0  0  0  0  0  0  0  0  0
   43.4355   28.2317   32.5177 H   0  0  0  0  0  0  0  0  0  0  0  0
   41.0081   28.8998   28.1303 H   0  0  0  0  0  0  0  0  0  0  0  0
   38.6632   29.0783   26.8246 H   0  0  0  0  0  0  0  0  0  0  0  0
   36.8102   28.2319   28.4690 H   0  0  0  0  0  0  0  0  0  0  0  0
   39.2491   27.5890   34.9746 H   0  0  0  0  0  0  0  0  0  0  0  0
   40.5029   23.8344   33.2218 H   0  0  0  0  0  0  0  0  0  0  0  0
   38.8879   24.7880   38.8959 H   0  0  0  0  0  0  0  0  0  0  0  0
   36.2300   21.5025   38.4863 H   0  0  0  0  0  0  0  0  0  0  0  0
   36.9680   22.2585   36.1301 H   0  0  0  0  0  0  0  0  0  0  0  0
  1  2  1  0
  1 15  1  0
  3  2  2  0
  4  3  1  0
  5  4  2  0
  6  4  1  0
  6  7  1  0
  7  1  1  0
  8  7  2  0
  9 13  2  0
  9  6  1  0
 10  9  1  0
 11 10  2  0
 11 12  1  0
 12 13  1  0
 14 19  2  0
 15 16  2  0
 15 14  1  0
 16 17  1  0
 17 18  2  0
 18 20  1  0
 19 18  1  0
 20 21  2  0
 21 22  1  0
 23 22  2  0
 24 20  1  0
 24 23  1  0
  2 25  1  0
  3 26  1  0
 10 27  1  0
 11 28  1  0
 12 29  1  0
 14 30  1  0
 16 31  1  0
 21 32  1  0
 23 33  1  0
 24 34  1  0
M  ISO  8  25  14  26  14  27  14  28  14  29   9  30  14  31  14  32  14
M  ISO  2  33  14  34   9
M  END
>  <minimizedAffinity>  (1) 
-4.17686653

>  <minimizedRMSD>  (1) 
2.44372439

$$$$
