
     RDKit          3D

 42 45  0  0  0  0  0  0  0  0999 V2000
   37.2550   22.5870   37.1990 C   0  0  0  0  0  0  0  0  0  0  0  0
   36.9520   21.9240   35.9390 C   0  0  0  0  0  0  0  0  0  0  0  0
   35.8730   21.1610   35.7140 C   0  0  0  0  0  0  0  0  0  0  0  0
   35.5970   20.5490   34.5310 C   0  0  0  0  0  0  0  0  0  0  0  0
   36.5940   20.8130   33.5420 C   0  0  0  0  0  0  0  0  0  0  0  0
   37.8520   21.9180   34.3900 S   0  0  0  0  0  0  0  0  0  0  0  0
   36.7630   20.4270   32.1720 C   0  0  0  0  0  0  0  0  0  0  0  0
   35.9850   19.5150   31.5370 C   0  0  0  0  0  0  0  0  0  0  0  0
   36.7400   19.4790   29.8000 S   0  0  0  0  0  0  0  0  0  0  0  0
   37.9920   20.7570   30.3450 C   0  0  0  0  0  0  0  0  0  0  0  0
   37.6870   20.9120   31.4050 N   0  0  0  0  0  0  0  0  0  0  0  0
   39.0080   21.2380   29.3640 C   0  0  0  0  0  0  0  0  0  0  0  0
   39.6940   20.4670   28.4840 C   0  0  0  0  0  0  0  0  0  0  0  0
   40.5470   21.2580   27.7370 C   0  0  0  0  0  0  0  0  0  0  0  0
   40.3130   22.5240   28.2330 C   0  0  0  0  0  0  0  0  0  0  0  0
   39.4080   22.4620   29.1790 O   0  0  0  0  0  0  0  0  0  0  0  0
   38.1490   23.7830   37.0980 C   0  0  0  0  0  0  0  0  0  0  0  0
   41.4420   21.9990   37.2460 C   0  0  0  0  0  0  0  0  0  0  0  0
   40.1420   22.3460   37.5650 C   0  0  0  0  0  0  0  0  0  0  0  0
   39.5080   23.3570   36.8290 C   0  0  0  0  0  0  0  0  0  0  0  0
   40.2230   23.9360   35.8390 N   0  0  0  0  0  0  0  0  0  0  0  0
   41.4800   23.5920   35.5410 C   0  0  0  0  0  0  0  0  0  0  0  0
   42.0850   22.6230   36.2470 N   0  0  0  0  0  0  0  0  0  0  0  0
   38.1430   24.4940   38.4520 C   0  0  0  0  0  0  0  0  0  0  0  0
   37.5640   24.6800   36.0300 C   0  0  0  0  0  0  0  0  0  0  0  0
   36.3049   22.9109   37.6488 H   0  0  0  0  0  0  0  0  0  0  0  0
   37.8031   21.8500   37.8044 H   0  0  0  0  0  0  0  0  0  0  0  0
   35.1627   21.0203   36.5421 H   0  0  0  0  0  0  0  0  0  0  0  0
   34.7093   19.9234   34.3560 H   0  0  0  0  0  0  0  0  0  0  0  0
   35.1325   18.9421   31.9306 H   0  0  0  0  0  0  0  0  0  0  0  0
   39.5877   19.3771   28.3803 H   0  0  0  0  0  0  0  0  0  0  0  0
   41.2425   20.9526   26.9414 H   0  0  0  0  0  0  0  0  0  0  0  0
   40.8092   23.4431   27.8879 H   0  0  0  0  0  0  0  0  0  0  0  0
   41.9519   21.2071   37.8143 H   0  0  0  0  0  0  0  0  0  0  0  0
   39.6132   21.8364   38.3840 H   0  0  0  0  0  0  0  0  0  0  0  0
   42.0145   24.0987   34.7239 H   0  0  0  0  0  0  0  0  0  0  0  0
   38.1493   23.7463   39.2588 H   0  0  0  0  0  0  0  0  0  0  0  0
   39.0358   25.1311   38.5355 H   0  0  0  0  0  0  0  0  0  0  0  0
   37.2396   25.1160   38.5355 H   0  0  0  0  0  0  0  0  0  0  0  0
   37.0221   25.5109   36.5054 H   0  0  0  0  0  0  0  0  0  0  0  0
   38.3745   25.0814   35.4039 H   0  0  0  0  0  0  0  0  0  0  0  0
   36.8699   24.1001   35.4039 H   0  0  0  0  0  0  0  0  0  0  0  0
  2  1  1  0
  3  2  2  0
  4  3  1  0
  5  6  1  0
  5  4  2  0
  6  2  1  0
  7  5  1  0
  8  7  2  0
  9 10  1  0
  9  8  1  0
 10 11  2  0
 11  7  1  0
 12 10  1  0
 13 12  2  0
 14 15  2  0
 14 13  1  0
 15 16  1  0
 16 12  1  0
 17  1  1  0
 17 24  1  0
 18 19  2  0
 20 17  1  0
 20 19  1  0
 21 20  2  0
 22 21  1  0
 22 23  2  0
 23 18  1  0
 25 17  1  0
  1 26  1  0
  1 27  1  0
  3 28  1  0
  4 29  1  0
  8 30  1  0
 13 31  1  0
 14 32  1  0
 15 33  1  0
 18 34  1  0
 19 35  1  0
 22 36  1  0
 24 37  1  0
 24 38  1  0
 24 39  1  0
 25 40  1  0
 25 41  1  0
 25 42  1  0
M  ISO  8  26   8  27   8  28  14  29  14  30  14  31  14  32  14  33  14
M  ISO  8  34  14  35  14  36  14  37   8  38   8  39   8  40   8  41   8
M  ISO  1  42   8
M  END
>  <minimizedAffinity>  (1) 
-4.6751914

>  <minimizedRMSD>  (1) 
0.0803233683

$$$$
