
     RDKit          3D

 39 41  0  0  0  0  0  0  0  0999 V2000
   38.0070   26.8990   32.9110 N   0  0  0  0  0  0  0  0  0  0  0  0
   38.9620   26.7070   31.9850 C   0  0  0  0  0  0  0  0  0  0  0  0
   39.0270   27.5430   30.8590 C   0  0  0  0  0  0  0  0  0  0  0  0
   38.0700   28.5460   30.7700 C   0  0  0  0  0  0  0  0  0  0  0  0
   38.0520   29.3240   29.8190 O   0  0  0  0  0  0  0  0  0  0  0  0
   37.1200   28.7240   31.7110 N   0  0  0  0  0  0  0  0  0  0  0  0
   37.0920   27.8900   32.7890 C   0  0  0  0  0  0  0  0  0  0  0  0
   36.2230   28.0240   33.6820 O   0  0  0  0  0  0  0  0  0  0  0  0
   36.1190   29.7280   31.6750 C   0  0  0  0  0  0  0  0  0  0  0  0
   35.5970   30.5450   30.6910 C   0  0  0  0  0  0  0  0  0  0  0  0
   34.6300   31.3140   31.3230 C   0  0  0  0  0  0  0  0  0  0  0  0
   34.5830   30.9650   32.6240 N   0  0  0  0  0  0  0  0  0  0  0  0
   35.4910   30.0060   32.8140 N   0  0  0  0  0  0  0  0  0  0  0  0
   38.2480   26.5970   35.2370 C   0  0  0  0  0  0  0  0  0  0  0  0
   38.0560   26.0040   33.9760 C   0  0  0  0  0  0  0  0  0  0  0  0
   37.9360   24.6170   33.9190 C   0  0  0  0  0  0  0  0  0  0  0  0
   38.0090   23.9000   35.0600 N   0  0  0  0  0  0  0  0  0  0  0  0
   38.1900   24.4830   36.2470 C   0  0  0  0  0  0  0  0  0  0  0  0
   38.3120   25.8370   36.3470 N   0  0  0  0  0  0  0  0  0  0  0  0
   38.2580   23.6250   37.4570 C   0  0  0  0  0  0  0  0  0  0  0  0
   38.0350   24.4860   38.6930 C   0  0  0  0  0  0  0  0  0  0  0  0
   37.1260   22.6280   37.3920 C   0  0  0  0  0  0  0  0  0  0  0  0
   39.6090   22.9730   37.5820 C   0  0  0  0  0  0  0  0  0  0  0  0
   39.6930   25.8945   32.1094 H   0  0  0  0  0  0  0  0  0  0  0  0
   39.7977   27.4104   30.0854 H   0  0  0  0  0  0  0  0  0  0  0  0
   35.8867   30.5789   29.6304 H   0  0  0  0  0  0  0  0  0  0  0  0
   34.0054   32.0811   30.8419 H   0  0  0  0  0  0  0  0  0  0  0  0
   33.9603   31.3652   33.3402 H   0  0  0  0  0  0  0  0  0  0  0  0
   38.3466   27.6896   35.3171 H   0  0  0  0  0  0  0  0  0  0  0  0
   37.7833   24.1116   32.9540 H   0  0  0  0  0  0  0  0  0  0  0  0
   38.1924   23.8784   39.5964 H   0  0  0  0  0  0  0  0  0  0  0  0
   38.7452   25.3260   38.6877 H   0  0  0  0  0  0  0  0  0  0  0  0
   37.0063   24.8756   38.6877 H   0  0  0  0  0  0  0  0  0  0  0  0
   36.8176   22.3564   38.4123 H   0  0  0  0  0  0  0  0  0  0  0  0
   36.2742   23.0746   36.8581 H   0  0  0  0  0  0  0  0  0  0  0  0
   37.4615   21.7266   36.8581 H   0  0  0  0  0  0  0  0  0  0  0  0
   39.8605   22.8516   38.6460 H   0  0  0  0  0  0  0  0  0  0  0  0
   39.5865   21.9866   37.0957 H   0  0  0  0  0  0  0  0  0  0  0  0
   40.3672   23.6043   37.0957 H   0  0  0  0  0  0  0  0  0  0  0  0
  1 15  1  0
  2  1  1  0
  3  2  2  0
  4  3  1  0
  4  6  1  0
  5  4  2  0
  6  7  1  0
  7  1  1  0
  7  8  2  0
  9  6  1  0
  9 13  2  0
 10 11  2  0
 10  9  1  0
 11 12  1  0
 12 13  1  0
 14 19  2  0
 15 14  1  0
 16 15  2  0
 16 17  1  0
 17 18  2  0
 18 19  1  0
 18 20  1  0
 20 23  1  0
 20 21  1  0
 22 20  1  0
  2 24  1  0
  3 25  1  0
 10 26  1  0
 11 27  1  0
 12 28  1  0
 14 29  1  0
 16 30  1  0
 21 31  1  0
 21 32  1  0
 21 33  1  0
 22 34  1  0
 22 35  1  0
 22 36  1  0
 23 37  1  0
 23 38  1  0
 23 39  1  0
M  ISO  8  24  14  25  14  26  14  27  14  28   9  29  14  30  14  31   8
M  ISO  8  32   8  33   8  34   8  35   8  36   8  37   8  38   8  39   8
M  END
>  <minimizedAffinity>  (1) 
-5.27141666

>  <minimizedRMSD>  (1) 
2.84417009

$$$$
