
     RDKit          3D

 49 52  0  0  0  0  0  0  0  0999 V2000
   37.6590   26.6270   35.0650 C   0  0  0  0  0  0  0  0  0  0  0  0
   37.4370   26.4090   33.6950 C   0  0  0  0  0  0  0  0  0  0  0  0
   37.5410   25.1060   33.2200 C   0  0  0  0  0  0  0  0  0  0  0  0
   37.8440   24.1060   34.0760 N   0  0  0  0  0  0  0  0  0  0  0  0
   38.0500   24.3270   35.3660 C   0  0  0  0  0  0  0  0  0  0  0  0
   37.9590   25.5970   35.8790 N   0  0  0  0  0  0  0  0  0  0  0  0
   37.1360   27.5460   32.9620 N   0  0  0  0  0  0  0  0  0  0  0  0
   37.7390   27.6030   31.7560 C   0  0  0  0  0  0  0  0  0  0  0  0
   37.5150   28.7070   30.9150 C   0  0  0  0  0  0  0  0  0  0  0  0
   36.6650   29.7020   31.3820 C   0  0  0  0  0  0  0  0  0  0  0  0
   36.4130   30.6970   30.7180 O   0  0  0  0  0  0  0  0  0  0  0  0
   36.0720   29.6240   32.5930 N   0  0  0  0  0  0  0  0  0  0  0  0
   36.3140   28.5380   33.3800 C   0  0  0  0  0  0  0  0  0  0  0  0
   35.7800   28.4350   34.5080 O   0  0  0  0  0  0  0  0  0  0  0  0
   35.1950   30.5980   33.1370 C   0  0  0  0  0  0  0  0  0  0  0  0
   34.4610   31.6410   32.6070 C   0  0  0  0  0  0  0  0  0  0  0  0
   33.8080   32.2080   33.6900 C   0  0  0  0  0  0  0  0  0  0  0  0
   34.1330   31.5400   34.8110 N   0  0  0  0  0  0  0  0  0  0  0  0
   34.9730   30.5680   34.4520 N   0  0  0  0  0  0  0  0  0  0  0  0
   38.3830   23.2010   36.2760 C   0  0  0  0  0  0  0  0  0  0  0  0
   37.1800   22.8320   37.1150 C   0  0  0  0  0  0  0  0  0  0  0  0
   38.7340   22.0110   35.4060 C   0  0  0  0  0  0  0  0  0  0  0  0
   39.5030   23.5930   37.2110 C   0  0  0  0  0  0  0  0  0  0  0  0
   40.7770   22.9370   36.8410 C   0  0  0  0  0  0  0  0  0  0  0  0
   41.6610   23.4130   35.9120 C   0  0  0  0  0  0  0  0  0  0  0  0
   42.8450   22.7730   35.5920 C   0  0  0  0  0  0  0  0  0  0  0  0
   43.0580   21.5910   36.3030 C   0  0  0  0  0  0  0  0  0  0  0  0
   42.2140   21.0480   37.2530 C   0  0  0  0  0  0  0  0  0  0  0  0
   41.0570   21.7570   37.5070 C   0  0  0  0  0  0  0  0  0  0  0  0
   37.5873   27.6451   35.4752 H   0  0  0  0  0  0  0  0  0  0  0  0
   37.3775   24.8911   32.1537 H   0  0  0  0  0  0  0  0  0  0  0  0
   38.4035   26.7884   31.4322 H   0  0  0  0  0  0  0  0  0  0  0  0
   37.9933   28.7802   29.9271 H   0  0  0  0  0  0  0  0  0  0  0  0
   34.4065   31.9538   31.5538 H   0  0  0  0  0  0  0  0  0  0  0  0
   33.1284   33.0716   33.6403 H   0  0  0  0  0  0  0  0  0  0  0  0
   33.7976   31.7405   35.7640 H   0  0  0  0  0  0  0  0  0  0  0  0
   37.4384   22.9113   38.1813 H   0  0  0  0  0  0  0  0  0  0  0  0
   36.3499   23.5168   36.8870 H   0  0  0  0  0  0  0  0  0  0  0  0
   36.8767   21.7995   36.8870 H   0  0  0  0  0  0  0  0  0  0  0  0
   38.9874   21.1519   36.0446 H   0  0  0  0  0  0  0  0  0  0  0  0
   37.8733   21.7545   34.7709 H   0  0  0  0  0  0  0  0  0  0  0  0
   39.5962   22.2627   34.7709 H   0  0  0  0  0  0  0  0  0  0  0  0
   39.6379   24.6839   37.1687 H   0  0  0  0  0  0  0  0  0  0  0  0
   39.2320   23.2695   38.2268 H   0  0  0  0  0  0  0  0  0  0  0  0
   41.4182   24.3521   35.3932 H   0  0  0  0  0  0  0  0  0  0  0  0
   43.5539   23.1603   34.8453 H   0  0  0  0  0  0  0  0  0  0  0  0
   43.9850   21.0397   36.0868 H   0  0  0  0  0  0  0  0  0  0  0  0
   42.4496   20.1087   37.7747 H   0  0  0  0  0  0  0  0  0  0  0  0
   40.3440   21.3765   38.2532 H   0  0  0  0  0  0  0  0  0  0  0  0
  1  6  2  0
  2  1  1  0
  3  2  2  0
  3  4  1  0
  4  5  2  0
  5  6  1  0
  5 20  1  0
  7 13  1  0
  7  2  1  0
  8  7  1  0
  9 10  1  0
  9  8  2  0
 10 12  1  0
 11 10  2  0
 12 15  1  0
 12 13  1  0
 13 14  2  0
 15 19  2  0
 16 15  1  0
 16 17  2  0
 17 18  1  0
 19 18  1  0
 20 21  1  0
 20 23  1  0
 22 20  1  0
 24 23  1  0
 24 29  1  0
 25 24  2  0
 26 25  1  0
 26 27  2  0
 27 28  1  0
 28 29  2  0
  1 30  1  0
  3 31  1  0
  8 32  1  0
  9 33  1  0
 16 34  1  0
 17 35  1  0
 18 36  1  0
 21 37  1  0
 21 38  1  0
 21 39  1  0
 22 40  1  0
 22 41  1  0
 22 42  1  0
 23 43  1  0
 23 44  1  0
 25 45  1  0
 26 46  1  0
 27 47  1  0
 28 48  1  0
 29 49  1  0
M  ISO  8  30  14  31  14  32  14  33  14  34  14  35  14  36   9  37   8
M  ISO  8  38   8  39   8  40   8  41   8  42   8  43   8  44   8  45  14
M  ISO  4  46  14  47  14  48  14  49  14
M  END
>  <minimizedAffinity>  (1) 
-5.99457598

>  <minimizedRMSD>  (1) 
1.98614776

$$$$
