
     RDKit          3D

 51 54  0  0  0  0  0  0  0  0999 V2000
   38.6690   26.1840   34.5980 C   0  0  0  0  0  0  0  0  0  0  0  0
   38.1060   25.8400   33.3510 C   0  0  0  0  0  0  0  0  0  0  0  0
   37.6920   24.5140   33.1560 C   0  0  0  0  0  0  0  0  0  0  0  0
   37.8370   23.6150   34.1470 N   0  0  0  0  0  0  0  0  0  0  0  0
   38.3750   23.9650   35.3220 C   0  0  0  0  0  0  0  0  0  0  0  0
   38.7930   25.2470   35.5600 N   0  0  0  0  0  0  0  0  0  0  0  0
   38.0340   26.8870   32.4400 N   0  0  0  0  0  0  0  0  0  0  0  0
   38.9970   26.8540   31.4880 C   0  0  0  0  0  0  0  0  0  0  0  0
   39.0290   27.8590   30.5050 C   0  0  0  0  0  0  0  0  0  0  0  0
   38.0590   28.8380   30.5710 C   0  0  0  0  0  0  0  0  0  0  0  0
   38.0050   29.7570   29.7580 O   0  0  0  0  0  0  0  0  0  0  0  0
   37.1000   28.8530   31.5360 N   0  0  0  0  0  0  0  0  0  0  0  0
   37.1070   27.8640   32.4630 C   0  0  0  0  0  0  0  0  0  0  0  0
   36.2430   27.8370   33.3720 O   0  0  0  0  0  0  0  0  0  0  0  0
   36.0830   29.8200   31.6570 C   0  0  0  0  0  0  0  0  0  0  0  0
   35.5320   30.7660   30.8100 C   0  0  0  0  0  0  0  0  0  0  0  0
   34.5550   31.4080   31.5420 C   0  0  0  0  0  0  0  0  0  0  0  0
   34.5200   30.8640   32.7880 N   0  0  0  0  0  0  0  0  0  0  0  0
   35.4520   29.9090   32.8300 N   0  0  0  0  0  0  0  0  0  0  0  0
   38.5180   22.9400   36.3750 C   0  0  0  0  0  0  0  0  0  0  0  0
   38.5560   23.6030   37.7470 C   0  0  0  0  0  0  0  0  0  0  0  0
   37.2660   22.0750   36.3520 C   0  0  0  0  0  0  0  0  0  0  0  0
   39.7560   22.1290   36.2190 C   0  0  0  0  0  0  0  0  0  0  0  0
   40.9140   22.5370   36.9030 N   0  0  0  0  0  0  0  0  0  0  0  0
   41.9100   23.2580   36.2080 C   0  0  0  0  0  0  0  0  0  0  0  0
   43.2340   22.5150   36.4280 C   0  0  0  0  0  0  0  0  0  0  0  0
   42.7560   21.1300   36.7710 C   0  0  0  0  0  0  0  0  0  0  0  0
   41.5150   21.4430   37.6040 C   0  0  0  0  0  0  0  0  0  0  0  0
   39.0061   27.2142   34.7852 H   0  0  0  0  0  0  0  0  0  0  0  0
   37.2500   24.2098   32.1957 H   0  0  0  0  0  0  0  0  0  0  0  0
   39.7466   26.0490   31.4839 H   0  0  0  0  0  0  0  0  0  0  0  0
   39.7956   27.8644   29.7161 H   0  0  0  0  0  0  0  0  0  0  0  0
   35.8155   30.9652   29.7660 H   0  0  0  0  0  0  0  0  0  0  0  0
   33.9120   32.2233   31.1789 H   0  0  0  0  0  0  0  0  0  0  0  0
   33.8913   31.1379   33.5565 H   0  0  0  0  0  0  0  0  0  0  0  0
   38.5117   22.8305   38.5289 H   0  0  0  0  0  0  0  0  0  0  0  0
   39.4885   24.1771   37.8511 H   0  0  0  0  0  0  0  0  0  0  0  0
   37.6952   24.2799   37.8511 H   0  0  0  0  0  0  0  0  0  0  0  0
   36.9515   21.8577   37.3834 H   0  0  0  0  0  0  0  0  0  0  0  0
   36.4603   22.6100   35.8280 H   0  0  0  0  0  0  0  0  0  0  0  0
   37.4813   21.1321   35.8280 H   0  0  0  0  0  0  0  0  0  0  0  0
   39.5211   21.1090   36.5573 H   0  0  0  0  0  0  0  0  0  0  0  0
   40.0178   22.2378   35.1562 H   0  0  0  0  0  0  0  0  0  0  0  0
   41.9808   24.2821   36.6033 H   0  0  0  0  0  0  0  0  0  0  0  0
   41.6706   23.3267   35.1366 H   0  0  0  0  0  0  0  0  0  0  0  0
   43.8482   22.5122   35.5155 H   0  0  0  0  0  0  0  0  0  0  0  0
   43.8766   22.9679   37.1974 H   0  0  0  0  0  0  0  0  0  0  0  0
   42.5012   20.5562   35.8678 H   0  0  0  0  0  0  0  0  0  0  0  0
   43.5027   20.5097   37.2884 H   0  0  0  0  0  0  0  0  0  0  0  0
   41.7913   21.7354   38.6278 H   0  0  0  0  0  0  0  0  0  0  0  0
   40.8415   20.5802   37.7132 H   0  0  0  0  0  0  0  0  0  0  0  0
  1  6  2  0
  2  1  1  0
  3  2  2  0
  3  4  1  0
  4  5  2  0
  5  6  1  0
  5 20  1  0
  7 13  1  0
  7  2  1  0
  8  7  1  0
  9 10  1  0
  9  8  2  0
 10 12  1  0
 11 10  2  0
 12 15  1  0
 12 13  1  0
 13 14  2  0
 15 19  2  0
 16 17  2  0
 16 15  1  0
 17 18  1  0
 18 19  1  0
 20 21  1  0
 22 20  1  0
 23 20  1  0
 23 24  1  0
 24 28  1  0
 25 26  1  0
 25 24  1  0
 26 27  1  0
 27 28  1  0
  1 29  1  0
  3 30  1  0
  8 31  1  0
  9 32  1  0
 16 33  1  0
 17 34  1  0
 18 35  1  0
 21 36  1  0
 21 37  1  0
 21 38  1  0
 22 39  1  0
 22 40  1  0
 22 41  1  0
 23 42  1  0
 23 43  1  0
 25 44  1  0
 25 45  1  0
 26 46  1  0
 26 47  1  0
 27 48  1  0
 27 49  1  0
 28 50  1  0
 28 51  1  0
M  ISO  8  29  14  30  14  31  14  32  14  33  14  34  14  35   9  36   8
M  ISO  8  37   8  38   8  39   8  40   8  41   8  42   8  43   8  44  13
M  ISO  7  45  13  46  13  47  13  48  13  49  13  50  13  51  13
M  END
>  <minimizedAffinity>  (1) 
-5.40721607

>  <minimizedRMSD>  (1) 
1.10842454

$$$$
