
     RDKit          3D

 44 47  0  0  0  0  0  0  0  0999 V2000
   37.7280   26.5800   35.0660 C   0  0  0  0  0  0  0  0  0  0  0  0
   37.5070   26.3200   33.7030 C   0  0  0  0  0  0  0  0  0  0  0  0
   37.5860   24.9950   33.2780 C   0  0  0  0  0  0  0  0  0  0  0  0
   37.8660   24.0230   34.1700 N   0  0  0  0  0  0  0  0  0  0  0  0
   38.0710   24.2930   35.4530 C   0  0  0  0  0  0  0  0  0  0  0  0
   38.0060   25.5780   35.9220 N   0  0  0  0  0  0  0  0  0  0  0  0
   37.2320   27.4340   32.9350 N   0  0  0  0  0  0  0  0  0  0  0  0
   37.8880   27.4850   31.7720 C   0  0  0  0  0  0  0  0  0  0  0  0
   37.6990   28.5660   30.8960 C   0  0  0  0  0  0  0  0  0  0  0  0
   36.8120   29.5550   31.2990 C   0  0  0  0  0  0  0  0  0  0  0  0
   36.5880   30.5330   30.5960 O   0  0  0  0  0  0  0  0  0  0  0  0
   36.1530   29.4940   32.4770 N   0  0  0  0  0  0  0  0  0  0  0  0
   36.3700   28.4250   33.2940 C   0  0  0  0  0  0  0  0  0  0  0  0
   35.7770   28.3300   34.3990 O   0  0  0  0  0  0  0  0  0  0  0  0
   35.2410   30.4610   32.9470 C   0  0  0  0  0  0  0  0  0  0  0  0
   34.5340   31.4900   32.3510 C   0  0  0  0  0  0  0  0  0  0  0  0
   33.8070   32.0700   33.3860 C   0  0  0  0  0  0  0  0  0  0  0  0
   34.0730   31.4130   34.5340 N   0  0  0  0  0  0  0  0  0  0  0  0
   34.9410   30.4480   34.2400 N   0  0  0  0  0  0  0  0  0  0  0  0
   38.3770   23.1760   36.3910 C   0  0  0  0  0  0  0  0  0  0  0  0
   37.1210   22.7640   37.1230 C   0  0  0  0  0  0  0  0  0  0  0  0
   38.8630   22.0140   35.5800 C   0  0  0  0  0  0  0  0  0  0  0  0
   39.3930   23.6130   37.4280 C   0  0  0  0  0  0  0  0  0  0  0  0
   40.6360   22.8170   37.1620 C   0  0  0  0  0  0  0  0  0  0  0  0
   41.6460   23.2070   36.3520 N   0  0  0  0  0  0  0  0  0  0  0  0
   42.5720   22.3060   36.3300 O   0  0  0  0  0  0  0  0  0  0  0  0
   42.2270   21.2890   37.1110 C   0  0  0  0  0  0  0  0  0  0  0  0
   41.0100   21.6120   37.6330 N   0  0  0  0  0  0  0  0  0  0  0  0
   37.6733   27.6137   35.4382 H   0  0  0  0  0  0  0  0  0  0  0  0
   37.4208   24.7432   32.2200 H   0  0  0  0  0  0  0  0  0  0  0  0
   38.5805   26.6750   31.4991 H   0  0  0  0  0  0  0  0  0  0  0  0
   38.2296   28.6264   29.9343 H   0  0  0  0  0  0  0  0  0  0  0  0
   34.5443   31.7850   31.2913 H   0  0  0  0  0  0  0  0  0  0  0  0
   33.1247   32.9269   33.2845 H   0  0  0  0  0  0  0  0  0  0  0  0
   33.6786   31.6194   35.4629 H   0  0  0  0  0  0  0  0  0  0  0  0
   37.2936   22.8206   38.2079 H   0  0  0  0  0  0  0  0  0  0  0  0
   36.2976   23.4391   36.8470 H   0  0  0  0  0  0  0  0  0  0  0  0
   36.8575   21.7323   36.8470 H   0  0  0  0  0  0  0  0  0  0  0  0
   39.1986   21.2116   36.2535 H   0  0  0  0  0  0  0  0  0  0  0  0
   38.0450   21.6420   34.9455 H   0  0  0  0  0  0  0  0  0  0  0  0
   39.7022   22.3351   34.9455 H   0  0  0  0  0  0  0  0  0  0  0  0
   39.6009   24.6885   37.3278 H   0  0  0  0  0  0  0  0  0  0  0  0
   39.0204   23.4428   38.4489 H   0  0  0  0  0  0  0  0  0  0  0  0
   42.8056   20.3724   37.2985 H   0  0  0  0  0  0  0  0  0  0  0  0
  1  6  2  0
  2  1  1  0
  3  2  2  0
  3  4  1  0
  4  5  2  0
  5  6  1  0
  5 20  1  0
  7 13  1  0
  7  2  1  0
  8  7  1  0
  9 10  1  0
  9  8  2  0
 10 12  1  0
 11 10  2  0
 12 15  1  0
 12 13  1  0
 13 14  2  0
 15 19  2  0
 16 15  1  0
 16 17  2  0
 17 18  1  0
 19 18  1  0
 20 21  1  0
 20 23  1  0
 22 20  1  0
 24 23  1  0
 24 28  1  0
 25 24  2  0
 26 25  1  0
 26 27  1  0
 27 28  2  0
  1 29  1  0
  3 30  1  0
  8 31  1  0
  9 32  1  0
 16 33  1  0
 17 34  1  0
 18 35  1  0
 21 36  1  0
 21 37  1  0
 21 38  1  0
 22 39  1  0
 22 40  1  0
 22 41  1  0
 23 42  1  0
 23 43  1  0
 27 44  1  0
M  ISO  8  29  14  30  14  31  14  32  14  33  14  34  14  35   9  36   8
M  ISO  8  37   8  38   8  39   8  40   8  41   8  42   8  43   8  44  14
M  END
>  <minimizedAffinity>  (1) 
-5.39133072

>  <minimizedRMSD>  (1) 
1.79740942

$$$$
