
     RDKit          3D

 46 49  0  0  0  0  0  0  0  0999 V2000
   38.7210   26.4200   35.0930 C   0  0  0  0  0  0  0  0  0  0  0  0
   38.2310   25.8500   33.9000 C   0  0  0  0  0  0  0  0  0  0  0  0
   37.7900   24.5390   33.9460 C   0  0  0  0  0  0  0  0  0  0  0  0
   37.8430   23.8650   35.1080 N   0  0  0  0  0  0  0  0  0  0  0  0
   38.3040   24.4030   36.2260 C   0  0  0  0  0  0  0  0  0  0  0  0
   38.7520   25.7000   36.2310 N   0  0  0  0  0  0  0  0  0  0  0  0
   38.2580   26.7040   32.8050 N   0  0  0  0  0  0  0  0  0  0  0  0
   39.2210   26.4030   31.9040 C   0  0  0  0  0  0  0  0  0  0  0  0
   39.3720   27.1780   30.7420 C   0  0  0  0  0  0  0  0  0  0  0  0
   38.4900   28.2430   30.5920 C   0  0  0  0  0  0  0  0  0  0  0  0
   38.5410   28.9810   29.6090 O   0  0  0  0  0  0  0  0  0  0  0  0
   37.5400   28.5250   31.4990 N   0  0  0  0  0  0  0  0  0  0  0  0
   37.4260   27.7480   32.6150 C   0  0  0  0  0  0  0  0  0  0  0  0
   36.5540   27.9760   33.4850 O   0  0  0  0  0  0  0  0  0  0  0  0
   36.6070   29.5970   31.4080 C   0  0  0  0  0  0  0  0  0  0  0  0
   36.1660   30.4110   30.3810 C   0  0  0  0  0  0  0  0  0  0  0  0
   35.2430   31.2600   30.9640 C   0  0  0  0  0  0  0  0  0  0  0  0
   35.1350   30.9720   32.2680 N   0  0  0  0  0  0  0  0  0  0  0  0
   35.9690   29.9620   32.5190 N   0  0  0  0  0  0  0  0  0  0  0  0
   38.3300   23.5990   37.4610 C   0  0  0  0  0  0  0  0  0  0  0  0
   37.9010   24.4670   38.6400 C   0  0  0  0  0  0  0  0  0  0  0  0
   37.2890   22.5090   37.3320 C   0  0  0  0  0  0  0  0  0  0  0  0
   39.6930   23.0700   37.7540 C   0  0  0  0  0  0  0  0  0  0  0  0
   40.4230   22.6150   36.5590 C   0  0  0  0  0  0  0  0  0  0  0  0
   41.6700   23.2030   36.4000 C   0  0  0  0  0  0  0  0  0  0  0  0
   42.2490   22.7000   35.2530 C   0  0  0  0  0  0  0  0  0  0  0  0
   41.3620   21.8310   34.7420 N   0  0  0  0  0  0  0  0  0  0  0  0
   40.3010   21.7920   35.5160 N   0  0  0  0  0  0  0  0  0  0  0  0
   39.0804   27.4596   35.0944 H   0  0  0  0  0  0  0  0  0  0  0  0
   37.3996   24.0528   33.0398 H   0  0  0  0  0  0  0  0  0  0  0  0
   39.8890   25.5474   32.0820 H   0  0  0  0  0  0  0  0  0  0  0  0
   40.1452   26.9549   29.9921 H   0  0  0  0  0  0  0  0  0  0  0  0
   36.4813   30.3882   29.3274 H   0  0  0  0  0  0  0  0  0  0  0  0
   34.6845   32.0489   30.4389 H   0  0  0  0  0  0  0  0  0  0  0  0
   34.5224   31.4426   32.9493 H   0  0  0  0  0  0  0  0  0  0  0  0
   38.1530   23.9571   39.5815 H   0  0  0  0  0  0  0  0  0  0  0  0
   38.4255   25.4328   38.5943 H   0  0  0  0  0  0  0  0  0  0  0  0
   36.8152   24.6369   38.5943 H   0  0  0  0  0  0  0  0  0  0  0  0
   36.9756   22.1808   38.3340 H   0  0  0  0  0  0  0  0  0  0  0  0
   36.4177   22.8971   36.7841 H   0  0  0  0  0  0  0  0  0  0  0  0
   37.7167   21.6565   36.7841 H   0  0  0  0  0  0  0  0  0  0  0  0
   40.2784   23.8672   38.2355 H   0  0  0  0  0  0  0  0  0  0  0  0
   39.5632   22.1921   38.4039 H   0  0  0  0  0  0  0  0  0  0  0  0
   42.1210   23.9453   37.0750 H   0  0  0  0  0  0  0  0  0  0  0  0
   43.2358   22.9582   34.8412 H   0  0  0  0  0  0  0  0  0  0  0  0
   41.4926   21.2822   33.8802 H   0  0  0  0  0  0  0  0  0  0  0  0
  1  6  2  0
  2  3  2  0
  2  1  1  0
  3  4  1  0
  4  5  2  0
  5  6  1  0
  5 20  1  0
  7  2  1  0
  8  7  1  0
  9  8  2  0
 10  9  1  0
 10 12  1  0
 11 10  2  0
 12 13  1  0
 13  7  1  0
 13 14  2  0
 15 12  1  0
 15 19  2  0
 16 17  2  0
 16 15  1  0
 17 18  1  0
 18 19  1  0
 20 23  1  0
 20 21  1  0
 22 20  1  0
 24 23  1  0
 25 24  1  0
 26 25  2  0
 27 26  1  0
 27 28  1  0
 28 24  2  0
  1 29  1  0
  3 30  1  0
  8 31  1  0
  9 32  1  0
 16 33  1  0
 17 34  1  0
 18 35  1  0
 21 36  1  0
 21 37  1  0
 21 38  1  0
 22 39  1  0
 22 40  1  0
 22 41  1  0
 23 42  1  0
 23 43  1  0
 25 44  1  0
 26 45  1  0
 27 46  1  0
M  ISO  8  29  14  30  14  31  14  32  14  33  14  34  14  35   9  36   8
M  ISO  8  37   8  38   8  39   8  40   8  41   8  42   8  43   8  44  14
M  ISO  2  45  14  46   9
M  END
>  <minimizedAffinity>  (1) 
-5.24102163

>  <minimizedRMSD>  (1) 
0.805297434

$$$$
