
     RDKit          3D

 46 49  0  0  0  0  0  0  0  0999 V2000
   38.1550   26.4370   34.9200 C   0  0  0  0  0  0  0  0  0  0  0  0
   37.8720   26.0290   33.6130 C   0  0  0  0  0  0  0  0  0  0  0  0
   37.7480   24.6580   33.3750 C   0  0  0  0  0  0  0  0  0  0  0  0
   37.9020   23.7860   34.3910 N   0  0  0  0  0  0  0  0  0  0  0  0
   38.1710   24.1940   35.6240 C   0  0  0  0  0  0  0  0  0  0  0  0
   38.3010   25.5260   35.9080 N   0  0  0  0  0  0  0  0  0  0  0  0
   37.7440   27.0500   32.6830 N   0  0  0  0  0  0  0  0  0  0  0  0
   38.6240   27.0010   31.6770 C   0  0  0  0  0  0  0  0  0  0  0  0
   38.5960   27.9840   30.6680 C   0  0  0  0  0  0  0  0  0  0  0  0
   37.6220   28.9730   30.7880 C   0  0  0  0  0  0  0  0  0  0  0  0
   37.5280   29.8710   29.9500 O   0  0  0  0  0  0  0  0  0  0  0  0
   36.7370   29.0060   31.8170 N   0  0  0  0  0  0  0  0  0  0  0  0
   36.8130   28.0300   32.7620 C   0  0  0  0  0  0  0  0  0  0  0  0
   36.0080   28.0310   33.7290 O   0  0  0  0  0  0  0  0  0  0  0  0
   35.7340   29.9820   31.9870 C   0  0  0  0  0  0  0  0  0  0  0  0
   35.1300   30.9150   31.1680 C   0  0  0  0  0  0  0  0  0  0  0  0
   34.2090   31.5760   31.9540 C   0  0  0  0  0  0  0  0  0  0  0  0
   34.2610   31.0550   33.1970 N   0  0  0  0  0  0  0  0  0  0  0  0
   35.1890   30.0930   33.1930 N   0  0  0  0  0  0  0  0  0  0  0  0
   38.3290   23.1920   36.7000 C   0  0  0  0  0  0  0  0  0  0  0  0
   38.5980   23.8880   38.0210 C   0  0  0  0  0  0  0  0  0  0  0  0
   37.0410   22.4370   36.8380 C   0  0  0  0  0  0  0  0  0  0  0  0
   39.4900   22.2690   36.4050 C   0  0  0  0  0  0  0  0  0  0  0  0
   40.7440   22.9870   36.1710 C   0  0  0  0  0  0  0  0  0  0  0  0
   41.8980   22.7130   36.9150 C   0  0  0  0  0  0  0  0  0  0  0  0
   42.9150   23.5190   36.4950 N   0  0  0  0  0  0  0  0  0  0  0  0
   42.4130   24.2980   35.4940 C   0  0  0  0  0  0  0  0  0  0  0  0
   41.1210   23.9600   35.3230 N   0  0  0  0  0  0  0  0  0  0  0  0
   38.2597   27.5084   35.1462 H   0  0  0  0  0  0  0  0  0  0  0  0
   37.5255   24.2915   32.3620 H   0  0  0  0  0  0  0  0  0  0  0  0
   39.3696   26.1932   31.6374 H   0  0  0  0  0  0  0  0  0  0  0  0
   39.3067   27.9713   29.8285 H   0  0  0  0  0  0  0  0  0  0  0  0
   35.3407   31.0950   30.1035 H   0  0  0  0  0  0  0  0  0  0  0  0
   33.5457   32.3889   31.6236 H   0  0  0  0  0  0  0  0  0  0  0  0
   33.6894   31.3457   34.0030 H   0  0  0  0  0  0  0  0  0  0  0  0
   38.3375   23.2139   38.8503 H   0  0  0  0  0  0  0  0  0  0  0  0
   39.6635   24.1536   38.0852 H   0  0  0  0  0  0  0  0  0  0  0  0
   37.9880   24.8011   38.0852 H   0  0  0  0  0  0  0  0  0  0  0  0
   36.8084   22.3006   37.9044 H   0  0  0  0  0  0  0  0  0  0  0  0
   36.2306   23.0031   36.3554 H   0  0  0  0  0  0  0  0  0  0  0  0
   37.1390   21.4534   36.3554 H   0  0  0  0  0  0  0  0  0  0  0  0
   39.6273   21.5930   37.2618 H   0  0  0  0  0  0  0  0  0  0  0  0
   39.2481   21.7187   35.4838 H   0  0  0  0  0  0  0  0  0  0  0  0
   41.9730   21.9625   37.7157 H   0  0  0  0  0  0  0  0  0  0  0  0
   42.9642   25.0639   34.9287 H   0  0  0  0  0  0  0  0  0  0  0  0
   40.4974   24.3939   34.6274 H   0  0  0  0  0  0  0  0  0  0  0  0
  1  6  2  0
  2  1  1  0
  3  2  2  0
  3  4  1  0
  4  5  2  0
  5  6  1  0
  5 20  1  0
  7 13  1  0
  7  2  1  0
  8  7  1  0
  9 10  1  0
  9  8  2  0
 10 12  1  0
 11 10  2  0
 12 15  1  0
 12 13  1  0
 13 14  2  0
 15 19  2  0
 16 17  2  0
 16 15  1  0
 17 18  1  0
 19 18  1  0
 20 22  1  0
 20 21  1  0
 23 20  1  0
 24 23  1  0
 24 25  2  0
 26 25  1  0
 27 26  2  0
 28 27  1  0
 28 24  1  0
  1 29  1  0
  3 30  1  0
  8 31  1  0
  9 32  1  0
 16 33  1  0
 17 34  1  0
 18 35  1  0
 21 36  1  0
 21 37  1  0
 21 38  1  0
 22 39  1  0
 22 40  1  0
 22 41  1  0
 23 42  1  0
 23 43  1  0
 25 44  1  0
 27 45  1  0
 28 46  1  0
M  ISO  8  29  14  30  14  31  14  32  14  33  14  34  14  35   9  36   8
M  ISO  8  37   8  38   8  39   8  40   8  41   8  42   8  43   8  44  14
M  ISO  2  45  14  46   9
M  END
>  <minimizedAffinity>  (1) 
-5.21725225

>  <minimizedRMSD>  (1) 
1.06942666

$$$$
