
     RDKit          3D

 41 43  0  0  0  0  0  0  0  0999 V2000
   38.4630   26.4970   35.0640 C   0  0  0  0  0  0  0  0  0  0  0  0
   38.1240   25.9460   33.8110 C   0  0  0  0  0  0  0  0  0  0  0  0
   37.8450   24.5870   33.7690 C   0  0  0  0  0  0  0  0  0  0  0  0
   37.9080   23.8570   34.9060 N   0  0  0  0  0  0  0  0  0  0  0  0
   38.2350   24.4080   36.0830 C   0  0  0  0  0  0  0  0  0  0  0  0
   38.5140   25.7320   36.1700 N   0  0  0  0  0  0  0  0  0  0  0  0
   38.1100   26.8490   32.7640 N   0  0  0  0  0  0  0  0  0  0  0  0
   39.0760   26.6480   31.8550 C   0  0  0  0  0  0  0  0  0  0  0  0
   39.1820   27.4920   30.7390 C   0  0  0  0  0  0  0  0  0  0  0  0
   38.2530   28.5180   30.6350 C   0  0  0  0  0  0  0  0  0  0  0  0
   38.2660   29.3010   29.6980 O   0  0  0  0  0  0  0  0  0  0  0  0
   37.2880   28.7030   31.5610 N   0  0  0  0  0  0  0  0  0  0  0  0
   37.2220   27.8590   32.6330 C   0  0  0  0  0  0  0  0  0  0  0  0
   36.3400   28.0070   33.5040 O   0  0  0  0  0  0  0  0  0  0  0  0
   36.3100   29.7280   31.5180 C   0  0  0  0  0  0  0  0  0  0  0  0
   35.8250   30.5670   30.5390 C   0  0  0  0  0  0  0  0  0  0  0  0
   34.8650   31.3480   31.1400 C   0  0  0  0  0  0  0  0  0  0  0  0
   34.7800   30.9860   32.4390 N   0  0  0  0  0  0  0  0  0  0  0  0
   35.6620   30.0050   32.6420 N   0  0  0  0  0  0  0  0  0  0  0  0
   38.2750   23.5250   37.2650 C   0  0  0  0  0  0  0  0  0  0  0  0
   38.0420   24.3810   38.5160 C   0  0  0  0  0  0  0  0  0  0  0  0
   37.1380   22.5460   37.1890 C   0  0  0  0  0  0  0  0  0  0  0  0
   39.6270   22.8870   37.4250 C   0  0  0  0  0  0  0  0  0  0  0  0
   40.4260   23.3580   36.2880 N   0  0  0  0  0  0  0  0  0  0  0  0
   38.6897   27.5708   35.1387 H   0  0  0  0  0  0  0  0  0  0  0  0
   37.5744   24.1067   32.8171 H   0  0  0  0  0  0  0  0  0  0  0  0
   39.7872   25.8190   31.9849 H   0  0  0  0  0  0  0  0  0  0  0  0
   39.9658   27.3471   29.9809 H   0  0  0  0  0  0  0  0  0  0  0  0
   36.1421   30.6050   29.4864 H   0  0  0  0  0  0  0  0  0  0  0  0
   34.2697   32.1314   30.6482 H   0  0  0  0  0  0  0  0  0  0  0  0
   34.1493   31.3930   33.1443 H   0  0  0  0  0  0  0  0  0  0  0  0
   38.2085   23.7694   39.4150 H   0  0  0  0  0  0  0  0  0  0  0  0
   38.7418   25.2297   38.5151 H   0  0  0  0  0  0  0  0  0  0  0  0
   37.0086   24.7579   38.5151 H   0  0  0  0  0  0  0  0  0  0  0  0
   36.8207   22.2728   38.2062 H   0  0  0  0  0  0  0  0  0  0  0  0
   36.2943   23.0048   36.6526 H   0  0  0  0  0  0  0  0  0  0  0  0
   37.4664   21.6436   36.6526 H   0  0  0  0  0  0  0  0  0  0  0  0
   40.0885   23.1992   38.3735 H   0  0  0  0  0  0  0  0  0  0  0  0
   39.5579   21.7894   37.4453 H   0  0  0  0  0  0  0  0  0  0  0  0
   41.2612   23.8503   36.6358 H   0  0  0  0  0  0  0  0  0  0  0  0
   40.7159   22.5527   35.7150 H   0  0  0  0  0  0  0  0  0  0  0  0
  1  6  2  0
  2  1  1  0
  3  2  2  0
  3  4  1  0
  4  5  2  0
  5  6  1  0
  5 20  1  0
  7  2  1  0
  8  7  1  0
  9  8  2  0
 10  9  1  0
 10 12  1  0
 11 10  2  0
 12 13  1  0
 13  7  1  0
 13 14  2  0
 15 12  1  0
 15 19  2  0
 16 17  2  0
 16 15  1  0
 17 18  1  0
 18 19  1  0
 20 23  1  0
 20 21  1  0
 22 20  1  0
 24 23  1  0
  1 25  1  0
  3 26  1  0
  8 27  1  0
  9 28  1  0
 16 29  1  0
 17 30  1  0
 18 31  1  0
 21 32  1  0
 21 33  1  0
 21 34  1  0
 22 35  1  0
 22 36  1  0
 22 37  1  0
 23 38  1  0
 23 39  1  0
 24 40  1  0
 24 41  1  0
M  ISO  8  25  14  26  14  27  14  28  14  29  14  30  14  31   9  32   8
M  ISO  8  33   8  34   8  35   8  36   8  37   8  38   8  39   8  40   5
M  ISO  1  41   5
M  END
>  <minimizedAffinity>  (1) 
-5.02894258

>  <minimizedRMSD>  (1) 
0.404533416

$$$$
