
     RDKit          3D

 43 47  0  0  1  0  0  0  0  0999 V2000
   38.0190   24.2970   34.8730 N   0  0  0  0  0  0  0  0  0  0  0  0
   37.7830   25.6190   34.7850 C   0  0  0  0  0  0  0  0  0  0  0  0
   37.3040   26.1680   33.5910 C   0  0  0  0  0  0  0  0  0  0  0  0
   37.0940   25.2710   32.5350 C   0  0  0  0  0  0  0  0  0  0  0  0
   36.6720   25.6760   31.4470 O   0  0  0  0  0  0  0  0  0  0  0  0
   37.3420   23.9460   32.6560 N   0  0  0  0  0  0  0  0  0  0  0  0
   37.7990   23.4720   33.8160 C   0  0  0  0  0  0  0  0  0  0  0  0
   38.0390   22.2680   33.9690 O   0  0  0  0  0  0  0  0  0  0  0  0
   37.6020   24.1600   37.1840 C   0  0  0  0  0  0  0  0  0  0  0  0
   38.4910   23.8910   36.1150 C   0  0  0  0  0  0  0  0  0  0  0  0
   39.6750   23.2750   36.4480 C   0  0  0  0  0  0  0  0  0  0  0  0
   39.9510   22.9560   37.7300 N   0  0  0  0  0  0  0  0  0  0  0  0
   39.0790   23.2270   38.7250 C   0  0  0  0  0  0  0  0  0  0  0  0
   37.9180   23.8230   38.4510 N   0  0  0  0  0  0  0  0  0  0  0  0
   37.1430   22.9810   31.6030 C   0  0  2  0  0  0  0  0  0  0  0  0
   35.6810   22.4770   31.5390 C   0  0  0  0  0  0  0  0  0  0  0  0
   36.8150   21.5760   31.8010 C   0  0  1  0  0  0  0  0  0  0  0  0
   37.2150   20.6740   30.6760 C   0  0  0  0  0  0  0  0  0  0  0  0
   36.3380   19.7260   30.1480 C   0  0  0  0  0  0  0  0  0  0  0  0
   36.6240   18.8910   29.0880 C   0  0  0  0  0  0  0  0  0  0  0  0
   37.8490   18.9660   28.4860 C   0  0  0  0  0  0  0  0  0  0  0  0
   38.7490   19.8700   28.9550 C   0  0  0  0  0  0  0  0  0  0  0  0
   39.9870   19.9410   28.3570 C   0  0  0  0  0  0  0  0  0  0  0  0
   40.9630   20.8400   28.8010 C   0  0  0  0  0  0  0  0  0  0  0  0
   40.6430   21.6740   29.8790 C   0  0  0  0  0  0  0  0  0  0  0  0
   39.3850   21.5450   30.4250 C   0  0  0  0  0  0  0  0  0  0  0  0
   38.4230   20.6850   30.0150 C   0  0  0  0  0  0  0  0  0  0  0  0
   37.9671   26.2687   35.6533 H   0  0  0  0  0  0  0  0  0  0  0  0
   37.1032   27.2445   33.4867 H   0  0  0  0  0  0  0  0  0  0  0  0
   36.6395   24.6511   36.9779 H   0  0  0  0  0  0  0  0  0  0  0  0
   40.4055   23.0396   35.6600 H   0  0  0  0  0  0  0  0  0  0  0  0
   39.3266   22.9560   39.7619 H   0  0  0  0  0  0  0  0  0  0  0  0
   37.9205   23.4491   30.9815 H   0  0  0  0  0  0  0  0  0  0  0  0
   34.9709   22.7258   32.3414 H   0  0  0  0  0  0  0  0  0  0  0  0
   34.8589   22.5234   30.8096 H   0  0  0  0  0  0  0  0  0  0  0  0
   37.0229   20.8472   32.5983 H   0  0  0  0  0  0  0  0  0  0  0  0
   35.3444   19.6379   30.6116 H   0  0  0  0  0  0  0  0  0  0  0  0
   35.8730   18.1712   28.7303 H   0  0  0  0  0  0  0  0  0  0  0  0
   38.1008   18.3090   27.6404 H   0  0  0  0  0  0  0  0  0  0  0  0
   40.2141   19.2758   27.5108 H   0  0  0  0  0  0  0  0  0  0  0  0
   41.9502   20.8899   28.3184 H   0  0  0  0  0  0  0  0  0  0  0  0
   41.3665   22.4024   30.2738 H   0  0  0  0  0  0  0  0  0  0  0  0
   39.1392   22.2015   31.2727 H   0  0  0  0  0  0  0  0  0  0  0  0
  1 10  1  0
  2  1  1  0
  3  2  2  0
  4  6  1  0
  4  3  1  0
  5  4  2  0
  6  7  1  0
  7  8  2  0
  7  1  1  0
  9 14  2  0
 10 11  2  0
 10  9  1  0
 11 12  1  0
 12 13  2  0
 14 13  1  0
 15 17  1  0
 15  6  1  0
 16 15  1  0
 16 17  1  0
 18 17  1  0
 19 18  2  0
 20 19  1  0
 21 22  1  0
 21 20  2  0
 22 27  2  0
 23 24  2  0
 23 22  1  0
 24 25  1  0
 25 26  2  0
 27 26  1  0
 27 18  1  0
  2 28  1  0
  3 29  1  0
  9 30  1  0
 11 31  1  0
 13 32  1  0
 15 33  1  6
 16 34  1  0
 16 35  1  0
 17 36  1  1
 19 37  1  0
 20 38  1  0
 21 39  1  0
 23 40  1  0
 24 41  1  0
 25 42  1  0
 26 43  1  0
M  ISO  8  28  14  29  14  30  14  31  14  32  14  33  13  34  13  35  13
M  ISO  8  36  13  37  14  38  14  39  14  40  14  41  14  42  14  43  14
M  END
>  <minimizedAffinity>  (1) 
-5.67100859

>  <minimizedRMSD>  (1) 
2.13331246

$$$$
