
     RDKit          3D

 40 43  0  0  1  0  0  0  0  0999 V2000
   38.4480   24.3750   34.7130 N   0  0  0  0  0  0  0  0  0  0  0  0
   38.9000   25.6070   34.4420 C   0  0  0  0  0  0  0  0  0  0  0  0
   38.7170   26.1500   33.1610 C   0  0  0  0  0  0  0  0  0  0  0  0
   38.0570   25.3420   32.2310 C   0  0  0  0  0  0  0  0  0  0  0  0
   37.8640   25.7650   31.0800 O   0  0  0  0  0  0  0  0  0  0  0  0
   37.6150   24.1060   32.5380 N   0  0  0  0  0  0  0  0  0  0  0  0
   37.8150   23.6340   33.7780 C   0  0  0  0  0  0  0  0  0  0  0  0
   37.4190   22.4940   34.0940 O   0  0  0  0  0  0  0  0  0  0  0  0
   37.7780   24.4820   36.9670 C   0  0  0  0  0  0  0  0  0  0  0  0
   38.6980   23.9630   36.0210 C   0  0  0  0  0  0  0  0  0  0  0  0
   39.6940   23.1410   36.5000 C   0  0  0  0  0  0  0  0  0  0  0  0
   39.7770   22.8530   37.8090 N   0  0  0  0  0  0  0  0  0  0  0  0
   38.8810   23.3630   38.7010 C   0  0  0  0  0  0  0  0  0  0  0  0
   37.8920   24.1710   38.2710 N   0  0  0  0  0  0  0  0  0  0  0  0
   36.9300   23.2430   31.6090 C   0  0  2  0  0  0  0  0  0  0  0  0
   35.5730   23.8110   31.1530 C   0  0  0  0  0  0  0  0  0  0  0  0
   35.6950   22.5340   31.9100 C   0  0  1  0  0  0  0  0  0  0  0  0
   35.4180   21.2670   31.2680 N   0  0  0  0  0  0  0  0  0  0  0  0
   36.6600   20.7040   30.7800 C   0  0  0  0  0  0  0  0  0  0  0  0
   36.5440   19.2780   30.3460 C   0  0  0  0  0  0  0  0  0  0  0  0
   35.7740   18.4970   31.2020 O   0  0  0  0  0  0  0  0  0  0  0  0
   35.5070   19.1490   32.4030 C   0  0  0  0  0  0  0  0  0  0  0  0
   34.6690   20.3440   32.0560 C   0  0  0  0  0  0  0  0  0  0  0  0
   39.4126   26.1906   35.2208 H   0  0  0  0  0  0  0  0  0  0  0  0
   39.0740   27.1579   32.9026 H   0  0  0  0  0  0  0  0  0  0  0  0
   36.9654   25.1436   36.6324 H   0  0  0  0  0  0  0  0  0  0  0  0
   40.4301   22.7154   35.8021 H   0  0  0  0  0  0  0  0  0  0  0  0
   38.9652   23.1155   39.7695 H   0  0  0  0  0  0  0  0  0  0  0  0
   37.8793   22.8794   31.1887 H   0  0  0  0  0  0  0  0  0  0  0  0
   35.1536   24.7064   31.6350 H   0  0  0  0  0  0  0  0  0  0  0  0
   35.1263   24.1275   30.1989 H   0  0  0  0  0  0  0  0  0  0  0  0
   35.2352   22.1591   32.8363 H   0  0  0  0  0  0  0  0  0  0  0  0
   36.9985   21.3020   29.9210 H   0  0  0  0  0  0  0  0  0  0  0  0
   37.3744   20.7284   31.6161 H   0  0  0  0  0  0  0  0  0  0  0  0
   36.0851   19.2547   29.3465 H   0  0  0  0  0  0  0  0  0  0  0  0
   37.5597   18.8557   30.3495 H   0  0  0  0  0  0  0  0  0  0  0  0
   34.9570   18.4828   33.0840 H   0  0  0  0  0  0  0  0  0  0  0  0
   36.4359   19.4462   32.9118 H   0  0  0  0  0  0  0  0  0  0  0  0
   34.3438   20.8396   32.9826 H   0  0  0  0  0  0  0  0  0  0  0  0
   33.7948   20.0099   31.4779 H   0  0  0  0  0  0  0  0  0  0  0  0
  1 10  1  0
  2  1  1  0
  3  2  2  0
  4  6  1  0
  4  3  1  0
  5  4  2  0
  6  7  1  0
  7  8  2  0
  7  1  1  0
  9 14  2  0
 10 11  2  0
 10  9  1  0
 11 12  1  0
 12 13  2  0
 14 13  1  0
 15 17  1  0
 15  6  1  0
 16 15  1  0
 16 17  1  0
 18 17  1  0
 18 23  1  0
 19 18  1  0
 20 19  1  0
 20 21  1  0
 21 22  1  0
 23 22  1  0
  2 24  1  0
  3 25  1  0
  9 26  1  0
 11 27  1  0
 13 28  1  0
 15 29  1  6
 16 30  1  0
 16 31  1  0
 17 32  1  1
 19 33  1  0
 19 34  1  0
 20 35  1  0
 20 36  1  0
 22 37  1  0
 22 38  1  0
 23 39  1  0
 23 40  1  0
M  ISO  8  24  14  25  14  26  14  27  14  28  14  29  13  30  13  31  13
M  ISO  8  32  13  33  13  34  13  35  13  36  13  37  13  38  13  39  13
M  ISO  1  40  13
M  END
>  <minimizedAffinity>  (1) 
-5.54792833

>  <minimizedRMSD>  (1) 
1.68494475

$$$$
