
     RDKit          3D

 40 44  0  0  1  0  0  0  0  0999 V2000
   38.1930   24.1620   34.8920 N   0  0  0  0  0  0  0  0  0  0  0  0
   38.2230   25.4950   34.6550 C   0  0  0  0  0  0  0  0  0  0  0  0
   37.8830   25.9830   33.3930 C   0  0  0  0  0  0  0  0  0  0  0  0
   37.5260   25.0330   32.4320 C   0  0  0  0  0  0  0  0  0  0  0  0
   37.2130   25.4000   31.2910 O   0  0  0  0  0  0  0  0  0  0  0  0
   37.5020   23.6990   32.6920 N   0  0  0  0  0  0  0  0  0  0  0  0
   37.8380   23.2920   33.9210 C   0  0  0  0  0  0  0  0  0  0  0  0
   37.8320   22.0770   34.2070 O   0  0  0  0  0  0  0  0  0  0  0  0
   37.6230   24.1970   37.1710 C   0  0  0  0  0  0  0  0  0  0  0  0
   38.5550   23.8220   36.1920 C   0  0  0  0  0  0  0  0  0  0  0  0
   39.6980   23.1740   36.6300 C   0  0  0  0  0  0  0  0  0  0  0  0
   39.8710   22.9310   37.9440 N   0  0  0  0  0  0  0  0  0  0  0  0
   38.9480   23.3080   38.8630 C   0  0  0  0  0  0  0  0  0  0  0  0
   37.8220   23.9430   38.4710 N   0  0  0  0  0  0  0  0  0  0  0  0
   37.1410   22.6980   31.7320 C   0  0  2  0  0  0  0  0  0  0  0  0
   35.6280   22.6740   31.4490 C   0  0  0  0  0  0  0  0  0  0  0  0
   36.3400   21.5190   32.0560 C   0  0  1  0  0  0  0  0  0  0  0  0
   36.4800   20.3160   31.2550 N   0  0  0  0  0  0  0  0  0  0  0  0
   36.9900   20.2060   30.0160 C   0  0  0  0  0  0  0  0  0  0  0  0
   36.9610   18.9250   29.5810 N   0  0  0  0  0  0  0  0  0  0  0  0
   36.4260   18.1780   30.5360 C   0  0  0  0  0  0  0  0  0  0  0  0
   36.1220   16.8380   30.7180 C   0  0  0  0  0  0  0  0  0  0  0  0
   35.5590   16.3670   31.8490 N   0  0  0  0  0  0  0  0  0  0  0  0
   35.2830   17.2410   32.8390 C   0  0  0  0  0  0  0  0  0  0  0  0
   35.5710   18.5560   32.6860 N   0  0  0  0  0  0  0  0  0  0  0  0
   36.1320   19.0430   31.5650 C   0  0  0  0  0  0  0  0  0  0  0  0
   36.4110   15.9230   29.6810 N   0  0  0  0  0  0  0  0  0  0  0  0
   38.5146   26.1910   35.4553 H   0  0  0  0  0  0  0  0  0  0  0  0
   37.8953   27.0593   33.1661 H   0  0  0  0  0  0  0  0  0  0  0  0
   36.7026   24.7143   36.8624 H   0  0  0  0  0  0  0  0  0  0  0  0
   40.4636   22.8581   35.9061 H   0  0  0  0  0  0  0  0  0  0  0  0
   39.1164   23.0964   39.9293 H   0  0  0  0  0  0  0  0  0  0  0  0
   38.1000   22.7908   31.2013 H   0  0  0  0  0  0  0  0  0  0  0  0
   34.9394   23.2829   32.0533 H   0  0  0  0  0  0  0  0  0  0  0  0
   34.9850   22.8339   30.5709 H   0  0  0  0  0  0  0  0  0  0  0  0
   36.2112   20.9307   32.9765 H   0  0  0  0  0  0  0  0  0  0  0  0
   37.3814   21.0506   29.4299 H   0  0  0  0  0  0  0  0  0  0  0  0
   34.8230   16.8851   33.7727 H   0  0  0  0  0  0  0  0  0  0  0  0
   36.1915   14.9237   29.7999 H   0  0  0  0  0  0  0  0  0  0  0  0
   36.8412   16.2552   28.8061 H   0  0  0  0  0  0  0  0  0  0  0  0
  1 10  1  0
  2  1  1  0
  3  2  2  0
  4  6  1  0
  4  3  1  0
  5  4  2  0
  6  7  1  0
  7  8  2  0
  7  1  1  0
  9 14  2  0
 10 11  2  0
 10  9  1  0
 11 12  1  0
 12 13  2  0
 14 13  1  0
 15 17  1  0
 15  6  1  0
 16 15  1  0
 16 17  1  0
 18 26  1  0
 18 17  1  0
 19 18  1  0
 20 19  2  0
 20 21  1  0
 21 22  2  0
 21 26  1  0
 22 23  1  0
 23 24  2  0
 25 24  1  0
 26 25  2  0
 27 22  1  0
  2 28  1  0
  3 29  1  0
  9 30  1  0
 11 31  1  0
 13 32  1  0
 15 33  1  6
 16 34  1  0
 16 35  1  0
 17 36  1  1
 19 37  1  0
 24 38  1  0
 27 39  1  0
 27 40  1  0
M  ISO  8  28  14  29  14  30  14  31  14  32  14  33  13  34  13  35  13
M  ISO  3  36  13  37  14  38  14
M  END
>  <minimizedAffinity>  (1) 
-5.53873777

>  <minimizedRMSD>  (1) 
2.32956886

$$$$
