
     RDKit          3D

 36 39  0  0  1  0  0  0  0  0999 V2000
   38.1190   23.9190   34.8010 N   0  0  0  0  0  0  0  0  0  0  0  0
   38.1510   25.2250   34.4630 C   0  0  0  0  0  0  0  0  0  0  0  0
   37.8060   25.6310   33.1830 C   0  0  0  0  0  0  0  0  0  0  0  0
   37.4370   24.6300   32.2960 C   0  0  0  0  0  0  0  0  0  0  0  0
   37.1110   24.9050   31.1250 O   0  0  0  0  0  0  0  0  0  0  0  0
   37.4080   23.3150   32.6460 N   0  0  0  0  0  0  0  0  0  0  0  0
   37.7530   22.9830   33.9010 C   0  0  0  0  0  0  0  0  0  0  0  0
   37.7410   21.7860   34.2620 O   0  0  0  0  0  0  0  0  0  0  0  0
   37.5580   24.1450   37.0700 C   0  0  0  0  0  0  0  0  0  0  0  0
   38.4920   23.6650   36.1180 C   0  0  0  0  0  0  0  0  0  0  0  0
   39.6170   23.0260   36.5970 C   0  0  0  0  0  0  0  0  0  0  0  0
   39.8000   22.8760   37.9180 N   0  0  0  0  0  0  0  0  0  0  0  0
   38.8880   23.3470   38.8180 C   0  0  0  0  0  0  0  0  0  0  0  0
   37.7810   23.9740   38.3920 N   0  0  0  0  0  0  0  0  0  0  0  0
   37.0330   22.2420   31.7640 C   0  0  2  0  0  0  0  0  0  0  0  0
   35.5540   22.2990   31.3440 C   0  0  0  0  0  0  0  0  0  0  0  0
   36.1160   21.1720   32.1280 C   0  0  1  0  0  0  0  0  0  0  0  0
   36.3430   19.8440   31.4810 C   0  0  0  0  0  0  0  0  0  0  0  0
   36.5690   19.6950   30.1290 C   0  0  0  0  0  0  0  0  0  0  0  0
   36.7800   18.4810   29.5130 C   0  0  0  0  0  0  0  0  0  0  0  0
   36.7630   17.3370   30.3180 C   0  0  0  0  0  0  0  0  0  0  0  0
   36.5360   17.4820   31.6810 C   0  0  0  0  0  0  0  0  0  0  0  0
   36.3360   18.6980   32.2240 N   0  0  0  0  0  0  0  0  0  0  0  0
   38.4535   25.9741   35.2096 H   0  0  0  0  0  0  0  0  0  0  0  0
   37.8239   26.6901   32.8866 H   0  0  0  0  0  0  0  0  0  0  0  0
   36.6467   24.6595   36.7310 H   0  0  0  0  0  0  0  0  0  0  0  0
   40.3675   22.6376   35.8928 H   0  0  0  0  0  0  0  0  0  0  0  0
   39.0613   23.2120   39.8958 H   0  0  0  0  0  0  0  0  0  0  0  0
   38.0380   22.2060   31.3183 H   0  0  0  0  0  0  0  0  0  0  0  0
   34.8686   23.0183   31.8160 H   0  0  0  0  0  0  0  0  0  0  0  0
   35.0030   22.4088   30.3983 H   0  0  0  0  0  0  0  0  0  0  0  0
   35.8023   20.7001   33.0708 H   0  0  0  0  0  0  0  0  0  0  0  0
   36.5816   20.6004   29.5044 H   0  0  0  0  0  0  0  0  0  0  0  0
   36.9552   18.4137   28.4291 H   0  0  0  0  0  0  0  0  0  0  0  0
   36.9263   16.3413   29.8800 H   0  0  0  0  0  0  0  0  0  0  0  0
   36.5194   16.5909   32.3257 H   0  0  0  0  0  0  0  0  0  0  0  0
  1 10  1  0
  2  1  1  0
  3  2  2  0
  4  6  1  0
  4  3  1  0
  5  4  2  0
  6  7  1  0
  7  8  2  0
  7  1  1  0
  9 14  2  0
 10 11  2  0
 10  9  1  0
 11 12  1  0
 12 13  2  0
 14 13  1  0
 15 17  1  0
 15  6  1  0
 16 15  1  0
 16 17  1  0
 18 17  1  0
 18 23  1  0
 19 18  2  0
 20 19  1  0
 20 21  2  0
 21 22  1  0
 22 23  2  0
  2 24  1  0
  3 25  1  0
  9 26  1  0
 11 27  1  0
 13 28  1  0
 15 29  1  6
 16 30  1  0
 16 31  1  0
 17 32  1  1
 19 33  1  0
 20 34  1  0
 21 35  1  0
 22 36  1  0
M  ISO  8  24  14  25  14  26  14  27  14  28  14  29  13  30  13  31  13
M  ISO  5  32  13  33  14  34  14  35  14  36  14
M  END
>  <minimizedAffinity>  (1) 
-5.52353811

>  <minimizedRMSD>  (1) 
2.50856209

$$$$
