
     RDKit          3D

 41 45  0  0  1  0  0  0  0  0999 V2000
   38.0130   24.4230   34.8650 N   0  0  0  0  0  0  0  0  0  0  0  0
   37.7680   25.7380   34.8500 C   0  0  0  0  0  0  0  0  0  0  0  0
   37.2610   26.3580   33.6930 C   0  0  0  0  0  0  0  0  0  0  0  0
   37.0410   25.5160   32.5980 C   0  0  0  0  0  0  0  0  0  0  0  0
   36.5970   25.9850   31.5450 O   0  0  0  0  0  0  0  0  0  0  0  0
   37.2950   24.1920   32.6350 N   0  0  0  0  0  0  0  0  0  0  0  0
   37.7830   23.6510   33.7760 C   0  0  0  0  0  0  0  0  0  0  0  0
   38.0320   22.4320   33.8520 O   0  0  0  0  0  0  0  0  0  0  0  0
   37.6060   24.1090   37.1610 C   0  0  0  0  0  0  0  0  0  0  0  0
   38.5090   23.9640   36.0750 C   0  0  0  0  0  0  0  0  0  0  0  0
   39.7280   23.4000   36.3670 C   0  0  0  0  0  0  0  0  0  0  0  0
   40.0280   23.0130   37.6210 N   0  0  0  0  0  0  0  0  0  0  0  0
   39.1290   23.1690   38.6400 C   0  0  0  0  0  0  0  0  0  0  0  0
   37.9160   23.7190   38.4060 N   0  0  0  0  0  0  0  0  0  0  0  0
   37.0820   23.3050   31.5350 C   0  0  2  0  0  0  0  0  0  0  0  0
   35.6570   22.7800   31.4280 C   0  0  0  0  0  0  0  0  0  0  0  0
   36.7990   21.8650   31.6970 C   0  0  1  0  0  0  0  0  0  0  0  0
   37.2880   20.9480   30.6400 C   0  0  0  0  0  0  0  0  0  0  0  0
   36.3260   20.0320   30.3180 N   0  0  0  0  0  0  0  0  0  0  0  0
   36.5660   19.0610   29.4080 C   0  0  0  0  0  0  0  0  0  0  0  0
   37.7790   18.9910   28.8040 N   0  0  0  0  0  0  0  0  0  0  0  0
   38.7590   19.8690   29.0850 C   0  0  0  0  0  0  0  0  0  0  0  0
   40.0140   19.8820   28.5150 C   0  0  0  0  0  0  0  0  0  0  0  0
   40.9440   20.8610   28.8840 C   0  0  0  0  0  0  0  0  0  0  0  0
   40.6480   21.8500   29.8300 C   0  0  0  0  0  0  0  0  0  0  0  0
   39.3900   21.8280   30.3960 C   0  0  0  0  0  0  0  0  0  0  0  0
   38.5030   20.8530   30.0130 C   0  0  0  0  0  0  0  0  0  0  0  0
   37.9645   26.3397   35.7496 H   0  0  0  0  0  0  0  0  0  0  0  0
   37.0509   27.4370   33.6523 H   0  0  0  0  0  0  0  0  0  0  0  0
   36.6185   24.5565   36.9748 H   0  0  0  0  0  0  0  0  0  0  0  0
   40.4685   23.2630   35.5651 H   0  0  0  0  0  0  0  0  0  0  0  0
   39.3946   22.8448   39.6570 H   0  0  0  0  0  0  0  0  0  0  0  0
   37.8245   23.8357   30.9210 H   0  0  0  0  0  0  0  0  0  0  0  0
   34.9254   22.9996   32.2195 H   0  0  0  0  0  0  0  0  0  0  0  0
   34.8544   22.8345   30.6778 H   0  0  0  0  0  0  0  0  0  0  0  0
   36.9898   21.1115   32.4753 H   0  0  0  0  0  0  0  0  0  0  0  0
   35.7816   18.3313   29.1586 H   0  0  0  0  0  0  0  0  0  0  0  0
   40.2854   19.1212   27.7683 H   0  0  0  0  0  0  0  0  0  0  0  0
   41.9393   20.8531   28.4158 H   0  0  0  0  0  0  0  0  0  0  0  0
   41.3885   22.6135   30.1105 H   0  0  0  0  0  0  0  0  0  0  0  0
   39.1018   22.5814   31.1439 H   0  0  0  0  0  0  0  0  0  0  0  0
  1 10  1  0
  2  1  1  0
  3  2  2  0
  4  6  1  0
  4  3  1  0
  5  4  2  0
  6  7  1  0
  7  8  2  0
  7  1  1  0
  9 14  2  0
 10 11  2  0
 10  9  1  0
 11 12  1  0
 12 13  2  0
 14 13  1  0
 15 17  1  0
 15  6  1  0
 16 15  1  0
 16 17  1  0
 18 17  1  0
 19 18  2  0
 20 19  1  0
 21 22  1  0
 21 20  2  0
 22 27  2  0
 23 24  2  0
 23 22  1  0
 24 25  1  0
 25 26  2  0
 27 26  1  0
 27 18  1  0
  2 28  1  0
  3 29  1  0
  9 30  1  0
 11 31  1  0
 13 32  1  0
 15 33  1  6
 16 34  1  0
 16 35  1  0
 17 36  1  1
 20 37  1  0
 23 38  1  0
 24 39  1  0
 25 40  1  0
 26 41  1  0
M  ISO  8  28  14  29  14  30  14  31  14  32  14  33  13  34  13  35  13
M  ISO  6  36  13  37  14  38  14  39  14  40  14  41  14
M  END
>  <minimizedAffinity>  (1) 
-5.42928076

>  <minimizedRMSD>  (1) 
2.08106565

$$$$
