
     RDKit          3D

 40 43  0  0  1  0  0  0  0  0999 V2000
   38.0560   24.4680   34.9380 N   0  0  0  0  0  0  0  0  0  0  0  0
   37.8450   25.7880   34.8950 C   0  0  0  0  0  0  0  0  0  0  0  0
   37.4120   26.4040   33.7160 C   0  0  0  0  0  0  0  0  0  0  0  0
   37.2200   25.5660   32.6200 C   0  0  0  0  0  0  0  0  0  0  0  0
   36.8380   26.0330   31.5440 O   0  0  0  0  0  0  0  0  0  0  0  0
   37.4390   24.2260   32.6830 N   0  0  0  0  0  0  0  0  0  0  0  0
   37.8540   23.6990   33.8460 C   0  0  0  0  0  0  0  0  0  0  0  0
   38.0660   22.4660   33.9400 O   0  0  0  0  0  0  0  0  0  0  0  0
   37.5800   24.2440   37.2260 C   0  0  0  0  0  0  0  0  0  0  0  0
   38.4830   24.0020   36.1770 C   0  0  0  0  0  0  0  0  0  0  0  0
   39.6650   23.3420   36.4870 C   0  0  0  0  0  0  0  0  0  0  0  0
   39.9120   22.9610   37.7560 N   0  0  0  0  0  0  0  0  0  0  0  0
   39.0150   23.2120   38.7480 C   0  0  0  0  0  0  0  0  0  0  0  0
   37.8560   23.8500   38.4830 N   0  0  0  0  0  0  0  0  0  0  0  0
   37.2540   23.3260   31.5790 C   0  0  2  0  0  0  0  0  0  0  0  0
   35.7780   23.0590   31.2660 C   0  0  0  0  0  0  0  0  0  0  0  0
   36.7030   21.9790   31.7090 C   0  0  1  0  0  0  0  0  0  0  0  0
   37.8540   18.9640   28.8770 C   0  0  0  0  0  0  0  0  0  0  0  0
   36.6360   18.9200   29.5230 C   0  0  0  0  0  0  0  0  0  0  0  0
   36.2660   19.8830   30.4290 C   0  0  0  0  0  0  0  0  0  0  0  0
   37.1000   20.9330   30.7290 C   0  0  0  0  0  0  0  0  0  0  0  0
   38.3390   20.9940   30.0830 C   0  0  0  0  0  0  0  0  0  0  0  0
   38.7260   20.0200   29.1610 C   0  0  0  0  0  0  0  0  0  0  0  0
   38.4070   17.7720   27.7040 S   0  0  0  0  0  0  0  0  0  0  0  0
   39.9090   17.5780   27.7910 O   0  0  0  0  0  0  0  0  0  0  0  0
   37.9720   18.1800   26.3330 O   0  0  0  0  0  0  0  0  0  0  0  0
   38.0137   26.3957   35.7962 H   0  0  0  0  0  0  0  0  0  0  0  0
   37.2334   27.4878   33.6578 H   0  0  0  0  0  0  0  0  0  0  0  0
   36.6332   24.7633   37.0167 H   0  0  0  0  0  0  0  0  0  0  0  0
   40.3999   23.1301   35.6965 H   0  0  0  0  0  0  0  0  0  0  0  0
   39.2371   22.8915   39.7766 H   0  0  0  0  0  0  0  0  0  0  0  0
   38.1704   23.6811   31.0849 H   0  0  0  0  0  0  0  0  0  0  0  0
   34.9911   23.4283   31.9401 H   0  0  0  0  0  0  0  0  0  0  0  0
   35.1094   23.2246   30.4084 H   0  0  0  0  0  0  0  0  0  0  0  0
   36.6851   21.2420   32.5254 H   0  0  0  0  0  0  0  0  0  0  0  0
   35.9439   18.0928   29.3069 H   0  0  0  0  0  0  0  0  0  0  0  0
   35.2856   19.8128   30.9229 H   0  0  0  0  0  0  0  0  0  0  0  0
   39.0225   21.8265   30.3061 H   0  0  0  0  0  0  0  0  0  0  0  0
   39.7052   20.0823   28.6637 H   0  0  0  0  0  0  0  0  0  0  0  0
   37.8383   16.5589   27.9900 H   0  0  0  0  0  0  0  0  0  0  0  0
  1 10  1  0
  2  1  1  0
  3  2  2  0
  4  6  1  0
  4  3  1  0
  5  4  2  0
  6  7  1  0
  7  8  2  0
  7  1  1  0
  9 14  2  0
 10 11  2  0
 10  9  1  0
 11 12  1  0
 12 13  2  0
 14 13  1  0
 15 17  1  0
 15  6  1  0
 16 15  1  0
 16 17  1  0
 18 23  2  0
 18 19  1  0
 19 20  2  0
 20 21  1  0
 21 17  1  0
 22 21  2  0
 23 22  1  0
 24 25  2  0
 24 18  1  0
 26 24  2  0
  2 27  1  0
  3 28  1  0
  9 29  1  0
 11 30  1  0
 13 31  1  0
 15 32  1  6
 16 33  1  0
 16 34  1  0
 17 35  1  1
 19 36  1  0
 20 37  1  0
 22 38  1  0
 23 39  1  0
 24 40  1  0
M  ISO  8  27  14  28  14  29  14  30  14  31  14  32  13  33  13  34  13
M  ISO  6  35  13  36  14  37  14  38  14  39  14  40  11
M  END
>  <minimizedAffinity>  (1) 
-5.29993773

>  <minimizedRMSD>  (1) 
2.30220079

$$$$
