
     RDKit          3D

 47 49  0  0  0  0  0  0  0  0999 V2000
   37.2470   22.5820   37.1170 C   0  0  0  0  0  0  0  0  0  0  0  0
   36.9620   21.9070   35.8610 C   0  0  0  0  0  0  0  0  0  0  0  0
   35.8730   21.1640   35.6220 C   0  0  0  0  0  0  0  0  0  0  0  0
   35.5890   20.5380   34.4530 C   0  0  0  0  0  0  0  0  0  0  0  0
   36.6310   20.7700   33.4670 C   0  0  0  0  0  0  0  0  0  0  0  0
   37.8730   21.8520   34.3390 S   0  0  0  0  0  0  0  0  0  0  0  0
   36.8100   20.3630   32.1090 C   0  0  0  0  0  0  0  0  0  0  0  0
   35.9290   19.6360   31.4080 C   0  0  0  0  0  0  0  0  0  0  0  0
   36.6930   19.5040   29.7070 S   0  0  0  0  0  0  0  0  0  0  0  0
   38.1560   20.5320   30.3480 C   0  0  0  0  0  0  0  0  0  0  0  0
   37.8330   20.7000   31.4020 N   0  0  0  0  0  0  0  0  0  0  0  0
   39.3130   20.8640   29.3990 C   0  0  0  0  0  0  0  0  0  0  0  0
   39.3890   22.3520   29.2580 C   0  0  0  0  0  0  0  0  0  0  0  0
   40.5900   20.2630   29.9390 C   0  0  0  0  0  0  0  0  0  0  0  0
   38.9750   20.1230   28.1500 C   0  0  0  0  0  0  0  0  0  0  0  0
   38.1450   23.7710   37.0050 C   0  0  0  0  0  0  0  0  0  0  0  0
   41.4330   21.9920   37.2430 C   0  0  0  0  0  0  0  0  0  0  0  0
   40.1220   22.3310   37.5310 C   0  0  0  0  0  0  0  0  0  0  0  0
   39.5120   23.3500   36.7790 C   0  0  0  0  0  0  0  0  0  0  0  0
   40.2570   23.9430   35.8090 N   0  0  0  0  0  0  0  0  0  0  0  0
   41.5260   23.5960   35.5510 C   0  0  0  0  0  0  0  0  0  0  0  0
   42.1080   22.6240   36.2670 N   0  0  0  0  0  0  0  0  0  0  0  0
   38.1070   24.5320   38.3310 C   0  0  0  0  0  0  0  0  0  0  0  0
   37.5850   24.6480   35.9050 C   0  0  0  0  0  0  0  0  0  0  0  0
   36.2921   22.9150   37.5498 H   0  0  0  0  0  0  0  0  0  0  0  0
   37.7798   21.8522   37.7444 H   0  0  0  0  0  0  0  0  0  0  0  0
   35.1488   21.0524   36.4425 H   0  0  0  0  0  0  0  0  0  0  0  0
   34.6875   19.9335   34.2744 H   0  0  0  0  0  0  0  0  0  0  0  0
   34.9743   19.2134   31.7545 H   0  0  0  0  0  0  0  0  0  0  0  0
   39.4126   22.8141   30.2559 H   0  0  0  0  0  0  0  0  0  0  0  0
   40.3021   22.6220   28.7072 H   0  0  0  0  0  0  0  0  0  0  0  0
   38.5082   22.7136   28.7072 H   0  0  0  0  0  0  0  0  0  0  0  0
   40.5645   20.2750   31.0386 H   0  0  0  0  0  0  0  0  0  0  0  0
   40.6851   19.2256   29.5857 H   0  0  0  0  0  0  0  0  0  0  0  0
   41.4500   20.8509   29.5857 H   0  0  0  0  0  0  0  0  0  0  0  0
   38.5314   19.1504   28.4093 H   0  0  0  0  0  0  0  0  0  0  0  0
   38.2550   20.7087   27.5596 H   0  0  0  0  0  0  0  0  0  0  0  0
   39.8893   19.9632   27.5596 H   0  0  0  0  0  0  0  0  0  0  0  0
   41.9281   21.1965   37.8193 H   0  0  0  0  0  0  0  0  0  0  0  0
   39.5701   21.8146   38.3302 H   0  0  0  0  0  0  0  0  0  0  0  0
   42.0873   24.1070   34.7549 H   0  0  0  0  0  0  0  0  0  0  0  0
   38.1427   23.8164   39.1656 H   0  0  0  0  0  0  0  0  0  0  0  0
   38.9725   25.2083   38.3906 H   0  0  0  0  0  0  0  0  0  0  0  0
   37.1784   25.1187   38.3906 H   0  0  0  0  0  0  0  0  0  0  0  0
   37.0439   25.4954   36.3513 H   0  0  0  0  0  0  0  0  0  0  0  0
   38.4091   25.0262   35.2823 H   0  0  0  0  0  0  0  0  0  0  0  0
   36.8951   24.0595   35.2823 H   0  0  0  0  0  0  0  0  0  0  0  0
  2  1  1  0
  3  2  2  0
  4  3  1  0
  5  6  1  0
  5  4  2  0
  6  2  1  0
  7  5  1  0
  8  7  2  0
  9 10  1  0
  9  8  1  0
 10 11  2  0
 11  7  1  0
 12 14  1  0
 12 10  1  0
 13 12  1  0
 15 12  1  0
 16  1  1  0
 16 23  1  0
 17 18  2  0
 19 16  1  0
 19 18  1  0
 20 19  2  0
 21 20  1  0
 21 22  2  0
 22 17  1  0
 24 16  1  0
  1 25  1  0
  1 26  1  0
  3 27  1  0
  4 28  1  0
  8 29  1  0
 13 30  1  0
 13 31  1  0
 13 32  1  0
 14 33  1  0
 14 34  1  0
 14 35  1  0
 15 36  1  0
 15 37  1  0
 15 38  1  0
 17 39  1  0
 18 40  1  0
 21 41  1  0
 23 42  1  0
 23 43  1  0
 23 44  1  0
 24 45  1  0
 24 46  1  0
 24 47  1  0
M  ISO  8  25   8  26   8  27  14  28  14  29  14  30   8  31   8  32   8
M  ISO  8  33   8  34   8  35   8  36   8  37   8  38   8  39  14  40  14
M  ISO  7  41  14  42   8  43   8  44   8  45   8  46   8  47   8
M  END
>  <minimizedAffinity>  (1) 
-4.56284904

>  <minimizedRMSD>  (1) 
0.387684673

$$$$
