
     RDKit          3D

 39 42  0  0  1  0  0  0  0  0999 V2000
   38.3790   24.6440   34.9500 N   0  0  0  0  0  0  0  0  0  0  0  0
   38.6400   25.9500   34.8050 C   0  0  0  0  0  0  0  0  0  0  0  0
   38.4020   26.5780   33.5740 C   0  0  0  0  0  0  0  0  0  0  0  0
   37.8940   25.7780   32.5550 C   0  0  0  0  0  0  0  0  0  0  0  0
   37.6630   26.2750   31.4460 O   0  0  0  0  0  0  0  0  0  0  0  0
   37.6360   24.4550   32.7240 N   0  0  0  0  0  0  0  0  0  0  0  0
   37.8860   23.9180   33.9250 C   0  0  0  0  0  0  0  0  0  0  0  0
   37.6620   22.6980   34.1240 O   0  0  0  0  0  0  0  0  0  0  0  0
   37.7990   24.6520   37.2300 C   0  0  0  0  0  0  0  0  0  0  0  0
   38.6610   24.1510   36.2190 C   0  0  0  0  0  0  0  0  0  0  0  0
   39.6340   23.2680   36.6190 C   0  0  0  0  0  0  0  0  0  0  0  0
   39.7460   22.9080   37.9160 N   0  0  0  0  0  0  0  0  0  0  0  0
   38.8970   23.4120   38.8590 C   0  0  0  0  0  0  0  0  0  0  0  0
   37.9230   24.2850   38.5160 N   0  0  0  0  0  0  0  0  0  0  0  0
   37.1130   23.6090   31.6940 C   0  0  2  0  0  0  0  0  0  0  0  0
   35.6480   23.8780   31.3700 C   0  0  0  0  0  0  0  0  0  0  0  0
   36.1070   22.5770   31.9320 C   0  0  1  0  0  0  0  0  0  0  0  0
   36.0280   21.4330   31.0400 N   0  0  0  0  0  0  0  0  0  0  0  0
   37.3350   21.0260   30.5530 C   0  0  0  0  0  0  0  0  0  0  0  0
   37.2570   19.5670   30.2150 C   0  0  0  0  0  0  0  0  0  0  0  0
   35.9810   19.0910   30.8760 C   0  0  0  0  0  0  0  0  0  0  0  0
   35.6330   20.2260   31.7810 C   0  0  0  0  0  0  0  0  0  0  0  0
   39.0404   26.5289   35.6503 H   0  0  0  0  0  0  0  0  0  0  0  0
   38.6064   27.6481   33.4217 H   0  0  0  0  0  0  0  0  0  0  0  0
   37.0061   25.3618   36.9517 H   0  0  0  0  0  0  0  0  0  0  0  0
   40.3289   22.8499   35.8758 H   0  0  0  0  0  0  0  0  0  0  0  0
   39.0065   23.1045   39.9094 H   0  0  0  0  0  0  0  0  0  0  0  0
   38.0875   23.5629   31.1859 H   0  0  0  0  0  0  0  0  0  0  0  0
   35.0611   24.5738   31.9876 H   0  0  0  0  0  0  0  0  0  0  0  0
   35.0815   24.1993   30.4835 H   0  0  0  0  0  0  0  0  0  0  0  0
   35.8574   21.9706   32.8152 H   0  0  0  0  0  0  0  0  0  0  0  0
   37.5985   21.6056   29.6560 H   0  0  0  0  0  0  0  0  0  0  0  0
   38.1058   21.2056   31.3170 H   0  0  0  0  0  0  0  0  0  0  0  0
   37.2075   19.4226   29.1256 H   0  0  0  0  0  0  0  0  0  0  0  0
   38.1400   19.0101   30.5618 H   0  0  0  0  0  0  0  0  0  0  0  0
   35.1891   18.9207   30.1318 H   0  0  0  0  0  0  0  0  0  0  0  0
   36.0957   18.1329   31.4040 H   0  0  0  0  0  0  0  0  0  0  0  0
   36.1902   20.1523   32.7266 H   0  0  0  0  0  0  0  0  0  0  0  0
   34.5655   20.2328   32.0463 H   0  0  0  0  0  0  0  0  0  0  0  0
  1 10  1  0
  2  1  1  0
  3  2  2  0
  4  6  1  0
  4  3  1  0
  5  4  2  0
  6  7  1  0
  7  8  2  0
  7  1  1  0
  9 14  2  0
 10 11  2  0
 10  9  1  0
 11 12  1  0
 12 13  2  0
 14 13  1  0
 15 17  1  0
 15  6  1  0
 16 15  1  0
 16 17  1  0
 18 19  1  0
 18 22  1  0
 18 17  1  0
 20 19  1  0
 20 21  1  0
 21 22  1  0
  2 23  1  0
  3 24  1  0
  9 25  1  0
 11 26  1  0
 13 27  1  0
 15 28  1  6
 16 29  1  0
 16 30  1  0
 17 31  1  1
 19 32  1  0
 19 33  1  0
 20 34  1  0
 20 35  1  0
 21 36  1  0
 21 37  1  0
 22 38  1  0
 22 39  1  0
M  ISO  8  23  14  24  14  25  14  26  14  27  14  28  13  29  13  30  13
M  ISO  8  31  13  32  13  33  13  34  13  35  13  36  13  37  13  38  13
M  ISO  1  39  13
M  END
>  <minimizedAffinity>  (1) 
-5.17725754

>  <minimizedRMSD>  (1) 
1.53489518

$$$$
