
     RDKit          3D

 30 32  0  0  1  0  0  0  0  0999 V2000
   38.4110   24.5150   34.7500 N   0  0  0  0  0  0  0  0  0  0  0  0
   38.7810   25.7850   34.5510 C   0  0  0  0  0  0  0  0  0  0  0  0
   38.5730   26.3890   33.3150 C   0  0  0  0  0  0  0  0  0  0  0  0
   37.9690   25.6000   32.3300 C   0  0  0  0  0  0  0  0  0  0  0  0
   37.7580   26.0840   31.2070 O   0  0  0  0  0  0  0  0  0  0  0  0
   37.6030   24.3260   32.5470 N   0  0  0  0  0  0  0  0  0  0  0  0
   37.8280   23.7900   33.7610 C   0  0  0  0  0  0  0  0  0  0  0  0
   37.5040   22.6100   34.0070 O   0  0  0  0  0  0  0  0  0  0  0  0
   37.7700   24.5010   37.0180 C   0  0  0  0  0  0  0  0  0  0  0  0
   38.6780   24.0380   36.0310 C   0  0  0  0  0  0  0  0  0  0  0  0
   39.6900   23.1950   36.4570 C   0  0  0  0  0  0  0  0  0  0  0  0
   39.7800   22.8460   37.7520 N   0  0  0  0  0  0  0  0  0  0  0  0
   38.8910   23.3090   38.6700 C   0  0  0  0  0  0  0  0  0  0  0  0
   37.8950   24.1300   38.2990 N   0  0  0  0  0  0  0  0  0  0  0  0
   36.9830   23.4870   31.5620 C   0  0  2  0  0  0  0  0  0  0  0  0
   35.5620   23.9210   31.1980 C   0  0  0  0  0  0  0  0  0  0  0  0
   35.8430   22.6180   31.8360 C   0  0  1  0  0  0  0  0  0  0  0  0
   35.8030   21.3150   31.0830 C   0  0  0  0  0  0  0  0  0  0  0  0
   39.2511   26.3535   35.3670 H   0  0  0  0  0  0  0  0  0  0  0  0
   38.8677   27.4312   33.1225 H   0  0  0  0  0  0  0  0  0  0  0  0
   36.9508   25.1749   36.7268 H   0  0  0  0  0  0  0  0  0  0  0  0
   40.4231   22.8094   35.7332 H   0  0  0  0  0  0  0  0  0  0  0  0
   38.9880   23.0092   39.7239 H   0  0  0  0  0  0  0  0  0  0  0  0
   37.9502   23.2804   31.0804 H   0  0  0  0  0  0  0  0  0  0  0  0
   35.0632   24.7209   31.7649 H   0  0  0  0  0  0  0  0  0  0  0  0
   35.0493   24.2586   30.2852 H   0  0  0  0  0  0  0  0  0  0  0  0
   35.3980   22.1357   32.7188 H   0  0  0  0  0  0  0  0  0  0  0  0
   35.7773   20.4792   31.7976 H   0  0  0  0  0  0  0  0  0  0  0  0
   34.9035   21.2844   30.4506 H   0  0  0  0  0  0  0  0  0  0  0  0
   36.6989   21.2293   30.4506 H   0  0  0  0  0  0  0  0  0  0  0  0
  1 10  1  0
  2  1  1  0
  3  2  2  0
  4  6  1  0
  4  3  1  0
  5  4  2  0
  6  7  1  0
  7  8  2  0
  7  1  1  0
  9 14  2  0
 10 11  2  0
 10  9  1  0
 11 12  1  0
 12 13  2  0
 14 13  1  0
 15 17  1  0
 15  6  1  0
 16 15  1  0
 16 17  1  0
 18 17  1  0
  2 19  1  0
  3 20  1  0
  9 21  1  0
 11 22  1  0
 13 23  1  0
 15 24  1  6
 16 25  1  0
 16 26  1  0
 17 27  1  1
 18 28  1  0
 18 29  1  0
 18 30  1  0
M  ISO  8  19  14  20  14  21  14  22  14  23  14  24  13  25  13  26  13
M  ISO  4  27  13  28   8  29   8  30   8
M  END
>  <minimizedAffinity>  (1) 
-4.8183403

>  <minimizedRMSD>  (1) 
1.00030613

$$$$
