
     RDKit          3D

 28 30  0  0  1  0  0  0  0  0999 V2000
   38.4210   24.5820   34.8780 N   0  0  0  0  0  0  0  0  0  0  0  0
   38.7330   25.8730   34.7140 C   0  0  0  0  0  0  0  0  0  0  0  0
   38.4990   26.5040   33.4960 C   0  0  0  0  0  0  0  0  0  0  0  0
   37.9340   25.7210   32.4890 C   0  0  0  0  0  0  0  0  0  0  0  0
   37.6970   26.2090   31.3810 O   0  0  0  0  0  0  0  0  0  0  0  0
   37.6270   24.4220   32.6720 N   0  0  0  0  0  0  0  0  0  0  0  0
   37.8730   23.8590   33.8680 C   0  0  0  0  0  0  0  0  0  0  0  0
   37.6040   22.6590   34.0810 O   0  0  0  0  0  0  0  0  0  0  0  0
   37.7840   24.4850   37.1410 C   0  0  0  0  0  0  0  0  0  0  0  0
   38.7090   24.0830   36.1440 C   0  0  0  0  0  0  0  0  0  0  0  0
   39.7460   23.2730   36.5490 C   0  0  0  0  0  0  0  0  0  0  0  0
   39.8580   22.8900   37.8370 N   0  0  0  0  0  0  0  0  0  0  0  0
   38.9500   23.2960   38.7730 C   0  0  0  0  0  0  0  0  0  0  0  0
   37.9310   24.0820   38.4190 N   0  0  0  0  0  0  0  0  0  0  0  0
   37.0410   23.5650   31.6670 C   0  0  2  0  0  0  0  0  0  0  0  0
   35.5870   23.9300   31.3540 C   0  0  0  0  0  0  0  0  0  0  0  0
   35.9470   22.6270   31.9380 C   0  0  1  0  0  0  0  0  0  0  0  0
   35.8830   21.1090   30.9790 S   0  0  0  0  0  0  0  0  0  0  0  0
   39.1769   26.4385   35.5466 H   0  0  0  0  0  0  0  0  0  0  0  0
   38.7463   27.5638   33.3357 H   0  0  0  0  0  0  0  0  0  0  0  0
   36.9376   25.1326   36.8686 H   0  0  0  0  0  0  0  0  0  0  0  0
   40.4912   22.9346   35.8140 H   0  0  0  0  0  0  0  0  0  0  0  0
   39.0586   22.9749   39.8195 H   0  0  0  0  0  0  0  0  0  0  0  0
   38.0070   23.4214   31.1608 H   0  0  0  0  0  0  0  0  0  0  0  0
   35.0617   24.6830   31.9599 H   0  0  0  0  0  0  0  0  0  0  0  0
   35.0343   24.2685   30.4652 H   0  0  0  0  0  0  0  0  0  0  0  0
   35.5773   22.0878   32.8227 H   0  0  0  0  0  0  0  0  0  0  0  0
   35.8377   20.0344   31.8275 H   0  0  0  0  0  0  0  0  0  0  0  0
  1 10  1  0
  2  1  1  0
  3  2  2  0
  4  6  1  0
  4  3  1  0
  5  4  2  0
  6  7  1  0
  7  8  2  0
  7  1  1  0
  9 14  2  0
 10 11  2  0
 10  9  1  0
 11 12  1  0
 12 13  2  0
 14 13  1  0
 15 17  1  0
 15  6  1  0
 16 15  1  0
 16 17  1  0
 18 17  1  0
  2 19  1  0
  3 20  1  0
  9 21  1  0
 11 22  1  0
 13 23  1  0
 15 24  1  6
 16 25  1  0
 16 26  1  0
 17 27  1  1
 18 28  1  0
M  ISO  8  19  14  20  14  21  14  22  14  23  14  24  13  25  13  26  13
M  ISO  2  27  13  28  11
M  END
>  <minimizedAffinity>  (1) 
-4.6075983

>  <minimizedRMSD>  (1) 
0.970282197

$$$$
