
     RDKit          3D

 34 37  0  0  1  0  0  0  0  0999 V2000
   39.4800   22.8060   37.7790 C   0  0  0  0  0  0  0  0  0  0  0  0
   38.8820   23.8190   37.0150 C   0  0  0  0  0  0  0  0  0  0  0  0
   39.6020   24.4100   35.9920 C   0  0  0  0  0  0  0  0  0  0  0  0
   40.8740   23.9670   35.7810 N   0  0  0  0  0  0  0  0  0  0  0  0
   41.4300   22.9950   36.5250 C   0  0  0  0  0  0  0  0  0  0  0  0
   40.7470   22.4160   37.5150 N   0  0  0  0  0  0  0  0  0  0  0  0
   39.1740   25.4340   35.1230 N   0  0  0  0  0  0  0  0  0  0  0  0
   39.3060   26.8560   35.3750 C   0  0  0  0  0  0  0  0  0  0  0  0
   37.9260   27.4920   35.4460 C   0  0  0  0  0  0  0  0  0  0  0  0
   36.9800   26.6200   34.9160 O   0  0  0  0  0  0  0  0  0  0  0  0
   37.3550   26.1530   33.6560 C   0  0  0  0  0  0  0  0  0  0  0  0
   38.5360   25.2110   33.8440 C   0  0  2  0  0  0  0  0  0  0  0  0
   38.0890   23.8670   33.6450 N   0  0  0  0  0  0  0  0  0  0  0  0
   38.4700   22.7490   34.2870 C   0  0  0  0  0  0  0  0  0  0  0  0
   37.8010   21.6650   33.7970 N   0  0  0  0  0  0  0  0  0  0  0  0
   36.9560   22.0750   32.8080 C   0  0  0  0  0  0  0  0  0  0  0  0
   36.0420   21.5040   31.9480 C   0  0  0  0  0  0  0  0  0  0  0  0
   35.3610   22.2800   31.0580 N   0  0  0  0  0  0  0  0  0  0  0  0
   35.5710   23.6200   31.0020 C   0  0  0  0  0  0  0  0  0  0  0  0
   36.4700   24.1590   31.8530 N   0  0  0  0  0  0  0  0  0  0  0  0
   37.1630   23.4280   32.7470 C   0  0  0  0  0  0  0  0  0  0  0  0
   38.9170   22.3282   38.5943 H   0  0  0  0  0  0  0  0  0  0  0  0
   37.8515   24.1401   37.2270 H   0  0  0  0  0  0  0  0  0  0  0  0
   42.4606   22.6728   36.3153 H   0  0  0  0  0  0  0  0  0  0  0  0
   39.8303   27.0115   36.3294 H   0  0  0  0  0  0  0  0  0  0  0  0
   39.8804   27.3197   34.5595 H   0  0  0  0  0  0  0  0  0  0  0  0
   37.6766   27.7083   36.4953 H   0  0  0  0  0  0  0  0  0  0  0  0
   37.9253   28.4266   34.8660 H   0  0  0  0  0  0  0  0  0  0  0  0
   37.6479   26.9978   33.0153 H   0  0  0  0  0  0  0  0  0  0  0  0
   36.5166   25.6283   33.1744 H   0  0  0  0  0  0  0  0  0  0  0  0
   39.3161   25.4119   33.0949 H   0  0  0  0  0  0  0  0  0  0  0  0
   39.2164   22.7129   35.0942 H   0  0  0  0  0  0  0  0  0  0  0  0
   35.8619   20.4193   31.9802 H   0  0  0  0  0  0  0  0  0  0  0  0
   35.0243   24.2487   30.2838 H   0  0  0  0  0  0  0  0  0  0  0  0
  2  1  2  0
  3  2  1  0
  4  3  2  0
  4  5  1  0
  5  6  2  0
  6  1  1  0
  7  8  1  0
  7  3  1  0
  8  9  1  0
 10  9  1  0
 11 12  1  0
 11 10  1  0
 12  7  1  0
 13 12  1  0
 13 14  1  0
 15 14  2  0
 16 15  1  0
 17 16  2  0
 18 17  1  0
 19 18  2  0
 19 20  1  0
 20 21  2  0
 21 16  1  0
 21 13  1  0
  1 22  1  0
  2 23  1  0
  5 24  1  0
  8 25  1  0
  8 26  1  0
  9 27  1  0
  9 28  1  0
 11 29  1  0
 11 30  1  0
 12 31  1  6
 14 32  1  0
 17 33  1  0
 19 34  1  0
M  ISO  8  22  14  23  14  24  14  25  13  26  13  27  13  28  13  29  13
M  ISO  5  30  13  31  13  32  14  33  14  34  14
M  END
>  <minimizedAffinity>  (1) 
-5.25521326

>  <minimizedRMSD>  (1) 
0.509763241

$$$$
