
     RDKit          3D

 37 39  0  0  1  0  0  0  0  0999 V2000
   39.0620   22.9480   37.8370 C   0  0  0  0  0  0  0  0  0  0  0  0
   38.5340   24.0090   37.0890 C   0  0  0  0  0  0  0  0  0  0  0  0
   39.2460   24.4770   35.9990 C   0  0  0  0  0  0  0  0  0  0  0  0
   40.4190   23.8720   35.7240 N   0  0  0  0  0  0  0  0  0  0  0  0
   40.9190   22.8600   36.4390 C   0  0  0  0  0  0  0  0  0  0  0  0
   40.2460   22.3960   37.4920 N   0  0  0  0  0  0  0  0  0  0  0  0
   38.8780   25.5270   35.1290 N   0  0  0  0  0  0  0  0  0  0  0  0
   39.2400   26.9160   35.2920 C   0  0  0  0  0  0  0  0  0  0  0  0
   37.9800   27.7520   35.4460 C   0  0  0  0  0  0  0  0  0  0  0  0
   36.8630   27.0110   35.0760 O   0  0  0  0  0  0  0  0  0  0  0  0
   37.0400   26.4490   33.8130 C   0  0  0  0  0  0  0  0  0  0  0  0
   38.0680   25.3260   33.9370 C   0  0  1  0  0  0  0  0  0  0  0  0
   38.8420   25.3000   32.7210 N   0  0  0  0  0  0  0  0  0  0  0  0
   38.0210   25.9860   31.7190 C   0  0  0  0  0  0  0  0  0  0  0  0
   37.0320   25.0140   31.0840 C   0  0  0  0  0  0  0  0  0  0  0  0
   37.7200   24.0780   30.2200 N   0  0  0  0  0  0  0  0  0  0  0  0
   39.0690   23.9390   30.6830 C   0  0  0  0  0  0  0  0  0  0  0  0
   39.0260   23.9640   32.2170 C   0  0  0  0  0  0  0  0  0  0  0  0
   38.5108   22.5634   38.7078 H   0  0  0  0  0  0  0  0  0  0  0  0
   37.5700   24.4619   37.3638 H   0  0  0  0  0  0  0  0  0  0  0  0
   41.8835   22.4109   36.1594 H   0  0  0  0  0  0  0  0  0  0  0  0
   39.8671   27.0289   36.1887 H   0  0  0  0  0  0  0  0  0  0  0  0
   39.8002   27.2556   34.4083 H   0  0  0  0  0  0  0  0  0  0  0  0
   37.8773   28.0642   36.4957 H   0  0  0  0  0  0  0  0  0  0  0  0
   38.0549   28.6365   34.7963 H   0  0  0  0  0  0  0  0  0  0  0  0
   37.4051   27.2138   33.1117 H   0  0  0  0  0  0  0  0  0  0  0  0
   36.0862   26.0543   33.4329 H   0  0  0  0  0  0  0  0  0  0  0  0
   37.5856   24.3449   34.0580 H   0  0  0  0  0  0  0  0  0  0  0  0
   37.4658   26.8028   32.2033 H   0  0  0  0  0  0  0  0  0  0  0  0
   38.6787   26.3883   30.9344 H   0  0  0  0  0  0  0  0  0  0  0  0
   36.5116   24.4579   31.8777 H   0  0  0  0  0  0  0  0  0  0  0  0
   36.3095   25.5857   30.4831 H   0  0  0  0  0  0  0  0  0  0  0  0
   37.7194   24.4327   29.2530 H   0  0  0  0  0  0  0  0  0  0  0  0
   39.4914   22.9855   30.3331 H   0  0  0  0  0  0  0  0  0  0  0  0
   39.7008   24.7522   30.2963 H   0  0  0  0  0  0  0  0  0  0  0  0
   38.1918   23.3348   32.5609 H   0  0  0  0  0  0  0  0  0  0  0  0
   39.9868   23.5837   32.5941 H   0  0  0  0  0  0  0  0  0  0  0  0
  2  1  2  0
  3  2  1  0
  4  3  2  0
  4  5  1  0
  5  6  2  0
  6  1  1  0
  7  8  1  0
  7  3  1  0
  8  9  1  0
 10  9  1  0
 11 12  1  0
 11 10  1  0
 12  7  1  0
 13 12  1  0
 14 13  1  0
 15 14  1  0
 16 17  1  0
 16 15  1  0
 17 18  1  0
 18 13  1  0
  1 19  1  0
  2 20  1  0
  5 21  1  0
  8 22  1  0
  8 23  1  0
  9 24  1  0
  9 25  1  0
 11 26  1  0
 11 27  1  0
 12 28  1  1
 14 29  1  0
 14 30  1  0
 15 31  1  0
 15 32  1  0
 16 33  1  0
 17 34  1  0
 17 35  1  0
 18 36  1  0
 18 37  1  0
M  ISO  8  19  14  20  14  21  14  22  13  23  13  24  13  25  13  26  13
M  ISO  8  27  13  28  13  29  13  30  13  31  13  32  13  33   5  34  13
M  ISO  3  35  13  36  13  37  13
M  END
>  <minimizedAffinity>  (1) 
-4.58861303

>  <minimizedRMSD>  (1) 
1.02507508

$$$$
