
     RDKit          3D

 34 36  0  0  1  0  0  0  0  0999 V2000
   37.5760   24.1960   37.2100 C   0  0  0  0  0  0  0  0  0  0  0  0
   38.1450   24.8040   36.0830 C   0  0  0  0  0  0  0  0  0  0  0  0
   39.4130   24.4220   35.7000 C   0  0  0  0  0  0  0  0  0  0  0  0
   40.0400   23.4720   36.4440 N   0  0  0  0  0  0  0  0  0  0  0  0
   39.4900   22.8980   37.5170 C   0  0  0  0  0  0  0  0  0  0  0  0
   38.2590   23.2540   37.9060 N   0  0  0  0  0  0  0  0  0  0  0  0
   40.1550   24.9080   34.6060 N   0  0  0  0  0  0  0  0  0  0  0  0
   41.0570   26.0590   34.6520 C   0  0  0  0  0  0  0  0  0  0  0  0
   40.5500   27.1340   33.7230 C   0  0  0  0  0  0  0  0  0  0  0  0
   39.6000   26.6010   32.8490 O   0  0  0  0  0  0  0  0  0  0  0  0
   40.1070   25.4500   32.2280 C   0  0  0  0  0  0  0  0  0  0  0  0
   40.1370   24.3450   33.2740 C   0  0  2  0  0  0  0  0  0  0  0  0
   38.9640   23.5200   33.0550 N   0  0  0  0  0  0  0  0  0  0  0  0
   37.8330   24.1160   32.5920 C   0  0  0  0  0  0  0  0  0  0  0  0
   36.6770   23.4220   32.3550 C   0  0  0  0  0  0  0  0  0  0  0  0
   36.6190   22.0660   32.5840 C   0  0  0  0  0  0  0  0  0  0  0  0
   35.4020   21.3800   32.3270 N   0  0  0  0  0  0  0  0  0  0  0  0
   37.7580   21.4970   33.0450 N   0  0  0  0  0  0  0  0  0  0  0  0
   38.8770   22.2000   33.2690 C   0  0  0  0  0  0  0  0  0  0  0  0
   39.9070   21.6290   33.6970 O   0  0  0  0  0  0  0  0  0  0  0  0
   36.5653   24.4858   37.5332 H   0  0  0  0  0  0  0  0  0  0  0  0
   37.5926   25.5685   35.5169 H   0  0  0  0  0  0  0  0  0  0  0  0
   40.0468   22.1345   38.0800 H   0  0  0  0  0  0  0  0  0  0  0  0
   41.0982   26.4515   35.6788 H   0  0  0  0  0  0  0  0  0  0  0  0
   42.0640   25.7479   34.3371 H   0  0  0  0  0  0  0  0  0  0  0  0
   40.0896   27.9392   34.3144 H   0  0  0  0  0  0  0  0  0  0  0  0
   41.3926   27.5343   33.1400 H   0  0  0  0  0  0  0  0  0  0  0  0
   39.4570   25.1573   31.3903 H   0  0  0  0  0  0  0  0  0  0  0  0
   41.1154   25.6355   31.8296 H   0  0  0  0  0  0  0  0  0  0  0  0
   41.0476   23.7348   33.1816 H   0  0  0  0  0  0  0  0  0  0  0  0
   37.8474   25.1991   32.4002 H   0  0  0  0  0  0  0  0  0  0  0  0
   35.7890   23.9513   31.9792 H   0  0  0  0  0  0  0  0  0  0  0  0
   35.3380   20.3653   32.4919 H   0  0  0  0  0  0  0  0  0  0  0  0
   34.5835   21.8973   31.9757 H   0  0  0  0  0  0  0  0  0  0  0  0
  1  6  2  0
  2  1  1  0
  3  2  2  0
  3  4  1  0
  4  5  2  0
  5  6  1  0
  7  8  1  0
  7  3  1  0
  9  8  1  0
 10  9  1  0
 11 10  1  0
 11 12  1  0
 12  7  1  0
 13 19  1  0
 13 12  1  0
 14 13  1  0
 15 16  1  0
 15 14  2  0
 16 18  2  0
 17 16  1  0
 18 19  1  0
 19 20  2  0
  1 21  1  0
  2 22  1  0
  5 23  1  0
  8 24  1  0
  8 25  1  0
  9 26  1  0
  9 27  1  0
 11 28  1  0
 11 29  1  0
 12 30  1  6
 14 31  1  0
 15 32  1  0
 17 33  1  0
 17 34  1  0
M  ISO  8  21  14  22  14  23  14  24  13  25  13  26  13  27  13  28  13
M  ISO  4  29  13  30  13  31  14  32  14
M  END
>  <minimizedAffinity>  (1) 
-4.46925497

>  <minimizedRMSD>  (1) 
2.1004982

$$$$
