
     RDKit          3D

 28 30  0  0  1  0  0  0  0  0999 V2000
   39.2670   22.8450   37.8540 C   0  0  0  0  0  0  0  0  0  0  0  0
   38.7080   23.8500   37.0640 C   0  0  0  0  0  0  0  0  0  0  0  0
   39.4450   24.3550   36.0100 C   0  0  0  0  0  0  0  0  0  0  0  0
   40.6940   23.8460   35.7900 N   0  0  0  0  0  0  0  0  0  0  0  0
   41.2140   22.8810   36.5600 C   0  0  0  0  0  0  0  0  0  0  0  0
   40.5060   22.3790   37.5910 N   0  0  0  0  0  0  0  0  0  0  0  0
   39.0530   25.3650   35.1070 N   0  0  0  0  0  0  0  0  0  0  0  0
   39.2860   26.7980   35.3120 C   0  0  0  0  0  0  0  0  0  0  0  0
   37.9610   27.5200   35.3680 C   0  0  0  0  0  0  0  0  0  0  0  0
   36.9370   26.6800   34.8970 O   0  0  0  0  0  0  0  0  0  0  0  0
   37.2720   26.1620   33.6430 C   0  0  0  0  0  0  0  0  0  0  0  0
   38.3680   25.1390   33.8550 C   0  0  2  0  0  0  0  0  0  0  0  0
   37.8370   23.7530   33.7330 C   0  0  0  0  0  0  0  0  0  0  0  0
   37.7900   22.7210   34.5970 N   0  0  0  0  0  0  0  0  0  0  0  0
   37.2250   21.7180   34.0160 O   0  0  0  0  0  0  0  0  0  0  0  0
   36.8730   22.0170   32.7690 C   0  0  0  0  0  0  0  0  0  0  0  0
   37.2640   23.2940   32.6090 N   0  0  0  0  0  0  0  0  0  0  0  0
   38.6943   22.4299   38.6964 H   0  0  0  0  0  0  0  0  0  0  0  0
   37.6990   24.2333   37.2764 H   0  0  0  0  0  0  0  0  0  0  0  0
   42.2231   22.4967   36.3499 H   0  0  0  0  0  0  0  0  0  0  0  0
   39.8268   26.9500   36.2578 H   0  0  0  0  0  0  0  0  0  0  0  0
   39.8852   27.1950   34.4793 H   0  0  0  0  0  0  0  0  0  0  0  0
   37.7467   27.8084   36.4077 H   0  0  0  0  0  0  0  0  0  0  0  0
   38.0116   28.4184   34.7353 H   0  0  0  0  0  0  0  0  0  0  0  0
   37.6318   26.9682   32.9868 H   0  0  0  0  0  0  0  0  0  0  0  0
   36.3951   25.6994   33.1665 H   0  0  0  0  0  0  0  0  0  0  0  0
   39.1171   25.2609   33.0587 H   0  0  0  0  0  0  0  0  0  0  0  0
   36.3748   21.3671   32.0345 H   0  0  0  0  0  0  0  0  0  0  0  0
  2  1  2  0
  3  2  1  0
  4  3  2  0
  4  5  1  0
  5  6  2  0
  6  1  1  0
  7  8  1  0
  7  3  1  0
  8  9  1  0
 10  9  1  0
 11 12  1  0
 11 10  1  0
 12  7  1  0
 13 12  1  0
 13 14  2  0
 15 14  1  0
 16 15  1  0
 17 16  2  0
 17 13  1  0
  1 18  1  0
  2 19  1  0
  5 20  1  0
  8 21  1  0
  8 22  1  0
  9 23  1  0
  9 24  1  0
 11 25  1  0
 11 26  1  0
 12 27  1  6
 16 28  1  0
M  ISO  8  18  14  19  14  20  14  21  13  22  13  23  13  24  13  25  13
M  ISO  3  26  13  27  13  28  14
M  END
>  <minimizedAffinity>  (1) 
-4.44932938

>  <minimizedRMSD>  (1) 
0.272749424

$$$$
