
     RDKit          3D

 36 38  0  0  1  0  0  0  0  0999 V2000
   39.0430   23.0550   38.0860 C   0  0  0  0  0  0  0  0  0  0  0  0
   38.5300   24.0760   37.2660 C   0  0  0  0  0  0  0  0  0  0  0  0
   39.2210   24.4190   36.1180 C   0  0  0  0  0  0  0  0  0  0  0  0
   40.3580   23.7420   35.8580 N   0  0  0  0  0  0  0  0  0  0  0  0
   40.8470   22.7730   36.6330 C   0  0  0  0  0  0  0  0  0  0  0  0
   40.1980   22.4260   37.7440 N   0  0  0  0  0  0  0  0  0  0  0  0
   38.8580   25.4100   35.1730 N   0  0  0  0  0  0  0  0  0  0  0  0
   39.2810   26.7940   35.2090 C   0  0  0  0  0  0  0  0  0  0  0  0
   38.0570   27.6810   35.3680 C   0  0  0  0  0  0  0  0  0  0  0  0
   36.9100   26.9600   35.0780 O   0  0  0  0  0  0  0  0  0  0  0  0
   37.0140   26.2970   33.8470 C   0  0  0  0  0  0  0  0  0  0  0  0
   38.0080   25.1560   34.0370 C   0  0  1  0  0  0  0  0  0  0  0  0
   38.6570   24.9800   32.7990 N   0  0  0  0  0  0  0  0  0  0  0  0
   37.8010   25.4610   31.7310 C   0  0  0  0  0  0  0  0  0  0  0  0
   37.4790   24.3860   30.7060 C   0  0  0  0  0  0  0  0  0  0  0  0
   38.5930   23.7810   30.1800 O   0  0  0  0  0  0  0  0  0  0  0  0
   39.7090   23.8790   31.0110 C   0  0  0  0  0  0  0  0  0  0  0  0
   39.1930   23.7240   32.4510 C   0  0  0  0  0  0  0  0  0  0  0  0
   38.5097   22.7658   39.0036 H   0  0  0  0  0  0  0  0  0  0  0  0
   37.5961   24.5924   37.5328 H   0  0  0  0  0  0  0  0  0  0  0  0
   41.7814   22.2627   36.3565 H   0  0  0  0  0  0  0  0  0  0  0  0
   39.9622   26.9496   36.0586 H   0  0  0  0  0  0  0  0  0  0  0  0
   39.8049   27.0471   34.2755 H   0  0  0  0  0  0  0  0  0  0  0  0
   38.0048   28.0480   36.4037 H   0  0  0  0  0  0  0  0  0  0  0  0
   38.1343   28.5317   34.6750 H   0  0  0  0  0  0  0  0  0  0  0  0
   37.3779   26.9902   33.0743 H   0  0  0  0  0  0  0  0  0  0  0  0
   36.0347   25.9144   33.5235 H   0  0  0  0  0  0  0  0  0  0  0  0
   37.5308   24.1990   34.2946 H   0  0  0  0  0  0  0  0  0  0  0  0
   36.8591   25.8212   32.1705 H   0  0  0  0  0  0  0  0  0  0  0  0
   38.3413   26.2650   31.2097 H   0  0  0  0  0  0  0  0  0  0  0  0
   36.8608   23.6162   31.1910 H   0  0  0  0  0  0  0  0  0  0  0  0
   36.9545   24.8785   29.8739 H   0  0  0  0  0  0  0  0  0  0  0  0
   40.4289   23.0809   30.7769 H   0  0  0  0  0  0  0  0  0  0  0  0
   40.2252   24.8406   30.8737 H   0  0  0  0  0  0  0  0  0  0  0  0
   38.4148   22.9480   32.4986 H   0  0  0  0  0  0  0  0  0  0  0  0
   39.9944   23.4186   33.1398 H   0  0  0  0  0  0  0  0  0  0  0  0
  2  1  2  0
  3  2  1  0
  4  3  2  0
  4  5  1  0
  5  6  2  0
  6  1  1  0
  7  8  1  0
  7  3  1  0
  8  9  1  0
 10  9  1  0
 11 12  1  0
 11 10  1  0
 12  7  1  0
 13 12  1  0
 14 13  1  0
 15 14  1  0
 16 15  1  0
 16 17  1  0
 17 18  1  0
 18 13  1  0
  1 19  1  0
  2 20  1  0
  5 21  1  0
  8 22  1  0
  8 23  1  0
  9 24  1  0
  9 25  1  0
 11 26  1  0
 11 27  1  0
 12 28  1  1
 14 29  1  0
 14 30  1  0
 15 31  1  0
 15 32  1  0
 17 33  1  0
 17 34  1  0
 18 35  1  0
 18 36  1  0
M  ISO  8  19  14  20  14  21  14  22  13  23  13  24  13  25  13  26  13
M  ISO  8  27  13  28  13  29  13  30  13  31  13  32  13  33  13  34  13
M  ISO  2  35  13  36  13
M  END
>  <minimizedAffinity>  (1) 
-4.36021805

>  <minimizedRMSD>  (1) 
0.815877974

$$$$
