
     RDKit          3D

 32 34  0  0  1  0  0  0  0  0999 V2000
   38.7050   23.2270   38.0680 C   0  0  0  0  0  0  0  0  0  0  0  0
   38.2350   24.2630   37.2530 C   0  0  0  0  0  0  0  0  0  0  0  0
   38.9820   24.5730   36.1260 C   0  0  0  0  0  0  0  0  0  0  0  0
   40.1300   23.8800   35.8440 N   0  0  0  0  0  0  0  0  0  0  0  0
   40.5340   22.8890   36.6690 C   0  0  0  0  0  0  0  0  0  0  0  0
   39.8360   22.5610   37.7690 N   0  0  0  0  0  0  0  0  0  0  0  0
   38.6700   25.5850   35.1730 N   0  0  0  0  0  0  0  0  0  0  0  0
   39.1170   26.9590   35.2320 C   0  0  0  0  0  0  0  0  0  0  0  0
   37.9220   27.8770   35.3020 C   0  0  0  0  0  0  0  0  0  0  0  0
   36.7520   27.1700   34.9780 O   0  0  0  0  0  0  0  0  0  0  0  0
   36.9170   26.5100   33.7480 C   0  0  0  0  0  0  0  0  0  0  0  0
   37.8390   25.3430   33.9930 C   0  0  1  0  0  0  0  0  0  0  0  0
   38.5940   24.9050   32.8190 C   0  0  0  0  0  0  0  0  0  0  0  0
   37.9960   24.0790   31.8610 C   0  0  0  0  0  0  0  0  0  0  0  0
   38.6520   23.6350   30.7370 C   0  0  0  0  0  0  0  0  0  0  0  0
   39.9750   24.0280   30.5520 C   0  0  0  0  0  0  0  0  0  0  0  0
   40.5360   24.8500   31.5280 C   0  0  0  0  0  0  0  0  0  0  0  0
   39.8700   25.2660   32.6120 N   0  0  0  0  0  0  0  0  0  0  0  0
   38.1393   22.9516   38.9703 H   0  0  0  0  0  0  0  0  0  0  0  0
   37.3115   24.8089   37.4960 H   0  0  0  0  0  0  0  0  0  0  0  0
   41.4565   22.3377   36.4343 H   0  0  0  0  0  0  0  0  0  0  0  0
   39.7419   27.1027   36.1258 H   0  0  0  0  0  0  0  0  0  0  0  0
   39.7040   27.1913   34.3312 H   0  0  0  0  0  0  0  0  0  0  0  0
   37.8327   28.2812   36.3211 H   0  0  0  0  0  0  0  0  0  0  0  0
   38.0567   28.6996   34.5842 H   0  0  0  0  0  0  0  0  0  0  0  0
   37.3611   27.1935   33.0094 H   0  0  0  0  0  0  0  0  0  0  0  0
   35.9487   26.1686   33.3532 H   0  0  0  0  0  0  0  0  0  0  0  0
   37.1986   24.4749   34.2082 H   0  0  0  0  0  0  0  0  0  0  0  0
   36.9514   23.7701   32.0143 H   0  0  0  0  0  0  0  0  0  0  0  0
   38.1463   22.9880   30.0051 H   0  0  0  0  0  0  0  0  0  0  0  0
   40.5524   23.7038   29.6737 H   0  0  0  0  0  0  0  0  0  0  0  0
   41.5797   25.1734   31.4008 H   0  0  0  0  0  0  0  0  0  0  0  0
  2  1  2  0
  3  2  1  0
  4  3  2  0
  4  5  1  0
  5  6  2  0
  6  1  1  0
  7  8  1  0
  7  3  1  0
  8  9  1  0
 10  9  1  0
 11 12  1  0
 11 10  1  0
 12  7  1  0
 13 12  1  0
 14 13  2  0
 15 14  1  0
 16 15  2  0
 16 17  1  0
 17 18  2  0
 18 13  1  0
  1 19  1  0
  2 20  1  0
  5 21  1  0
  8 22  1  0
  8 23  1  0
  9 24  1  0
  9 25  1  0
 11 26  1  0
 11 27  1  0
 12 28  1  1
 14 29  1  0
 15 30  1  0
 16 31  1  0
 17 32  1  0
M  ISO  8  19  14  20  14  21  14  22  13  23  13  24  13  25  13  26  13
M  ISO  6  27  13  28  13  29  14  30  14  31  14  32  14
M  END
>  <minimizedAffinity>  (1) 
-4.18972731

>  <minimizedRMSD>  (1) 
0.582072198

$$$$
