
     RDKit          3D

 29 31  0  0  1  0  0  0  0  0999 V2000
   39.1090   22.9650   37.9410 C   0  0  0  0  0  0  0  0  0  0  0  0
   38.5590   23.9950   37.1640 C   0  0  0  0  0  0  0  0  0  0  0  0
   39.2820   24.4340   36.0490 C   0  0  0  0  0  0  0  0  0  0  0  0
   40.4670   23.8440   35.7820 N   0  0  0  0  0  0  0  0  0  0  0  0
   40.9730   22.8540   36.5470 C   0  0  0  0  0  0  0  0  0  0  0  0
   40.2950   22.4150   37.6250 N   0  0  0  0  0  0  0  0  0  0  0  0
   38.8950   25.4580   35.1440 N   0  0  0  0  0  0  0  0  0  0  0  0
   39.2370   26.8550   35.2760 C   0  0  0  0  0  0  0  0  0  0  0  0
   37.9650   27.6740   35.4180 C   0  0  0  0  0  0  0  0  0  0  0  0
   36.8530   26.8960   35.0360 O   0  0  0  0  0  0  0  0  0  0  0  0
   37.0950   26.3430   33.7780 C   0  0  0  0  0  0  0  0  0  0  0  0
   38.0970   25.2050   33.9660 C   0  0  1  0  0  0  0  0  0  0  0  0
   38.8960   24.9700   32.7440 C   0  0  0  0  0  0  0  0  0  0  0  0
   40.2890   24.4000   32.6880 C   0  0  0  0  0  0  0  0  0  0  0  0
   40.5800   24.4220   30.8360 S   0  0  0  0  0  0  0  0  0  0  0  0
   38.8760   25.1480   30.5200 C   0  0  0  0  0  0  0  0  0  0  0  0
   38.3810   25.2720   31.5570 N   0  0  0  0  0  0  0  0  0  0  0  0
   38.5616   22.6012   38.8230 H   0  0  0  0  0  0  0  0  0  0  0  0
   37.5889   24.4441   37.4231 H   0  0  0  0  0  0  0  0  0  0  0  0
   41.9430   22.4038   36.2892 H   0  0  0  0  0  0  0  0  0  0  0  0
   39.8661   26.9963   36.1672 H   0  0  0  0  0  0  0  0  0  0  0  0
   39.7888   27.1845   34.3832 H   0  0  0  0  0  0  0  0  0  0  0  0
   37.8482   27.9891   36.4654 H   0  0  0  0  0  0  0  0  0  0  0  0
   38.0287   28.5606   34.7701 H   0  0  0  0  0  0  0  0  0  0  0  0
   37.5142   27.1062   33.1058 H   0  0  0  0  0  0  0  0  0  0  0  0
   36.1618   25.9698   33.3310 H   0  0  0  0  0  0  0  0  0  0  0  0
   37.5558   24.2619   34.1324 H   0  0  0  0  0  0  0  0  0  0  0  0
   40.9484   24.0657   33.5025 H   0  0  0  0  0  0  0  0  0  0  0  0
   38.4376   25.4037   29.5441 H   0  0  0  0  0  0  0  0  0  0  0  0
  2  1  2  0
  3  2  1  0
  4  3  2  0
  4  5  1  0
  5  6  2  0
  6  1  1  0
  7  8  1  0
  7  3  1  0
  8  9  1  0
 10  9  1  0
 11 12  1  0
 11 10  1  0
 12  7  1  0
 13 12  1  0
 14 13  2  0
 15 14  1  0
 16 15  1  0
 16 17  2  0
 17 13  1  0
  1 18  1  0
  2 19  1  0
  5 20  1  0
  8 21  1  0
  8 22  1  0
  9 23  1  0
  9 24  1  0
 11 25  1  0
 11 26  1  0
 12 27  1  1
 14 28  1  0
 16 29  1  0
M  ISO  8  18  14  19  14  20  14  21  13  22  13  23  13  24  13  25  13
M  ISO  4  26  13  27  13  28  14  29  14
M  END
>  <minimizedAffinity>  (1) 
-4.12522984

>  <minimizedRMSD>  (1) 
0.0753917173

$$$$
