
     RDKit          3D

 30 32  0  0  1  0  0  0  0  0999 V2000
   39.0970   22.9590   37.9370 C   0  0  0  0  0  0  0  0  0  0  0  0
   38.5620   23.9820   37.1560 C   0  0  0  0  0  0  0  0  0  0  0  0
   39.2920   24.4330   36.0530 C   0  0  0  0  0  0  0  0  0  0  0  0
   40.4950   23.8520   35.7870 N   0  0  0  0  0  0  0  0  0  0  0  0
   40.9890   22.8650   36.5570 C   0  0  0  0  0  0  0  0  0  0  0  0
   40.3050   22.4140   37.6260 N   0  0  0  0  0  0  0  0  0  0  0  0
   38.9080   25.4590   35.1500 N   0  0  0  0  0  0  0  0  0  0  0  0
   39.2280   26.8610   35.2980 C   0  0  0  0  0  0  0  0  0  0  0  0
   37.9440   27.6590   35.4070 C   0  0  0  0  0  0  0  0  0  0  0  0
   36.8660   26.8690   34.9960 O   0  0  0  0  0  0  0  0  0  0  0  0
   37.1200   26.3040   33.7370 C   0  0  0  0  0  0  0  0  0  0  0  0
   38.1250   25.1970   33.9400 C   0  0  1  0  0  0  0  0  0  0  0  0
   38.9650   24.9550   32.7950 N   0  0  0  0  0  0  0  0  0  0  0  0
   39.6230   23.8580   32.4890 N   0  0  0  0  0  0  0  0  0  0  0  0
   40.2940   24.0480   31.3250 C   0  0  0  0  0  0  0  0  0  0  0  0
   40.0270   25.3470   30.8970 C   0  0  0  0  0  0  0  0  0  0  0  0
   39.1870   25.8920   31.8430 C   0  0  0  0  0  0  0  0  0  0  0  0
   38.5394   22.5897   38.8103 H   0  0  0  0  0  0  0  0  0  0  0  0
   37.5858   24.4250   37.4026 H   0  0  0  0  0  0  0  0  0  0  0  0
   41.9645   22.4206   36.3100 H   0  0  0  0  0  0  0  0  0  0  0  0
   39.8295   27.0066   36.2074 H   0  0  0  0  0  0  0  0  0  0  0  0
   39.8010   27.2025   34.4234 H   0  0  0  0  0  0  0  0  0  0  0  0
   37.7933   27.9697   36.4514 H   0  0  0  0  0  0  0  0  0  0  0  0
   38.0109   28.5495   34.7647 H   0  0  0  0  0  0  0  0  0  0  0  0
   37.5303   27.0658   33.0578 H   0  0  0  0  0  0  0  0  0  0  0  0
   36.1939   25.9138   33.2898 H   0  0  0  0  0  0  0  0  0  0  0  0
   37.5585   24.2630   34.0697 H   0  0  0  0  0  0  0  0  0  0  0  0
   40.9315   23.3120   30.8133 H   0  0  0  0  0  0  0  0  0  0  0  0
   40.4089   25.8370   29.9893 H   0  0  0  0  0  0  0  0  0  0  0  0
   38.7698   26.9097   31.8277 H   0  0  0  0  0  0  0  0  0  0  0  0
  2  1  2  0
  3  2  1  0
  4  3  2  0
  4  5  1  0
  5  6  2  0
  6  1  1  0
  7  8  1  0
  7  3  1  0
  8  9  1  0
 10  9  1  0
 11 12  1  0
 11 10  1  0
 12  7  1  0
 13 12  1  0
 14 13  1  0
 15 14  2  0
 16 15  1  0
 16 17  2  0
 17 13  1  0
  1 18  1  0
  2 19  1  0
  5 20  1  0
  8 21  1  0
  8 22  1  0
  9 23  1  0
  9 24  1  0
 11 25  1  0
 11 26  1  0
 12 27  1  1
 15 28  1  0
 16 29  1  0
 17 30  1  0
M  ISO  8  18  14  19  14  20  14  21  13  22  13  23  13  24  13  25  13
M  ISO  5  26  13  27  13  28  14  29  14  30  14
M  END
>  <minimizedAffinity>  (1) 
-4.08341932

>  <minimizedRMSD>  (1) 
0.238176063

$$$$
