
     RDKit          3D

 30 32  0  0  1  0  0  0  0  0999 V2000
   39.2220   22.8450   37.8350 C   0  0  0  0  0  0  0  0  0  0  0  0
   38.6620   23.8600   37.0600 C   0  0  0  0  0  0  0  0  0  0  0  0
   39.4070   24.3750   36.0150 C   0  0  0  0  0  0  0  0  0  0  0  0
   40.6460   23.8570   35.8060 N   0  0  0  0  0  0  0  0  0  0  0  0
   41.1650   22.8830   36.5600 C   0  0  0  0  0  0  0  0  0  0  0  0
   40.4660   22.3710   37.5720 N   0  0  0  0  0  0  0  0  0  0  0  0
   39.0320   25.4020   35.1130 N   0  0  0  0  0  0  0  0  0  0  0  0
   39.2620   26.8220   35.3200 C   0  0  0  0  0  0  0  0  0  0  0  0
   37.9350   27.5460   35.3480 C   0  0  0  0  0  0  0  0  0  0  0  0
   36.9110   26.7040   34.8840 O   0  0  0  0  0  0  0  0  0  0  0  0
   37.2640   26.1870   33.6440 C   0  0  0  0  0  0  0  0  0  0  0  0
   38.3580   25.1600   33.8450 C   0  0  2  0  0  0  0  0  0  0  0  0
   37.9000   23.7500   33.7060 C   0  0  0  0  0  0  0  0  0  0  0  0
   38.6800   22.9540   32.6460 C   0  0  0  0  0  0  0  0  0  0  0  0
   37.2020   23.2100   32.5350 C   0  0  0  0  0  0  0  0  0  0  0  0
   38.6468   22.4223   38.6719 H   0  0  0  0  0  0  0  0  0  0  0  0
   37.6528   24.2415   37.2745 H   0  0  0  0  0  0  0  0  0  0  0  0
   42.1742   22.5023   36.3439 H   0  0  0  0  0  0  0  0  0  0  0  0
   39.7833   26.9739   36.2766 H   0  0  0  0  0  0  0  0  0  0  0  0
   39.8797   27.2178   34.5004 H   0  0  0  0  0  0  0  0  0  0  0  0
   37.7116   27.8546   36.3799 H   0  0  0  0  0  0  0  0  0  0  0  0
   37.9953   28.4295   34.6955 H   0  0  0  0  0  0  0  0  0  0  0  0
   37.6297   26.9964   32.9951 H   0  0  0  0  0  0  0  0  0  0  0  0
   36.3898   25.7181   33.1687 H   0  0  0  0  0  0  0  0  0  0  0  0
   39.0797   25.2902   33.0251 H   0  0  0  0  0  0  0  0  0  0  0  0
   37.6406   23.7032   34.7740 H   0  0  0  0  0  0  0  0  0  0  0  0
   39.3853   23.4648   31.9739 H   0  0  0  0  0  0  0  0  0  0  0  0
   39.3324   22.0683   32.6426 H   0  0  0  0  0  0  0  0  0  0  0  0
   36.8260   23.8965   31.7621 H   0  0  0  0  0  0  0  0  0  0  0  0
   36.3227   22.5627   32.4013 H   0  0  0  0  0  0  0  0  0  0  0  0
  2  1  2  0
  3  2  1  0
  4  3  2  0
  4  5  1  0
  5  6  2  0
  6  1  1  0
  7  8  1  0
  7  3  1  0
  8  9  1  0
 10  9  1  0
 11 12  1  0
 11 10  1  0
 12  7  1  0
 13 12  1  0
 14 13  1  0
 15 14  1  0
 15 13  1  0
  1 16  1  0
  2 17  1  0
  5 18  1  0
  8 19  1  0
  8 20  1  0
  9 21  1  0
  9 22  1  0
 11 23  1  0
 11 24  1  0
 12 25  1  6
 13 26  1  0
 14 27  1  0
 14 28  1  0
 15 29  1  0
 15 30  1  0
M  ISO  8  16  14  17  14  18  14  19  13  20  13  21  13  22  13  23  13
M  ISO  7  24  13  25  13  26  13  27  13  28  13  29  13  30  13
M  END
>  <minimizedAffinity>  (1) 
-3.90964389

>  <minimizedRMSD>  (1) 
0.358434826

$$$$
