
     RDKit          3D

 32 33  0  0  1  0  0  0  0  0999 V2000
   37.8000   23.6800   38.0140 C   0  0  0  0  0  0  0  0  0  0  0  0
   37.6240   24.2180   36.7350 C   0  0  0  0  0  0  0  0  0  0  0  0
   38.6730   24.1110   35.8310 C   0  0  0  0  0  0  0  0  0  0  0  0
   39.8190   23.4890   36.2330 N   0  0  0  0  0  0  0  0  0  0  0  0
   39.9530   22.9850   37.4660 C   0  0  0  0  0  0  0  0  0  0  0  0
   38.9490   23.0770   38.3620 N   0  0  0  0  0  0  0  0  0  0  0  0
   38.6920   24.5880   34.4970 N   0  0  0  0  0  0  0  0  0  0  0  0
   39.1070   25.9330   34.1100 C   0  0  0  0  0  0  0  0  0  0  0  0
   37.9650   26.6560   33.4480 C   0  0  0  0  0  0  0  0  0  0  0  0
   36.9470   25.7430   33.1330 O   0  0  0  0  0  0  0  0  0  0  0  0
   37.4500   24.6800   32.4100 C   0  0  0  0  0  0  0  0  0  0  0  0
   38.3090   23.8280   33.3350 C   0  0  2  0  0  0  0  0  0  0  0  0
   37.7270   22.4840   33.5830 C   0  0  0  0  0  0  0  0  0  0  0  0
   36.4980   22.1360   32.8260 C   0  0  0  0  0  0  0  0  0  0  0  0
   38.8470   21.4850   33.3440 C   0  0  0  0  0  0  0  0  0  0  0  0
   36.9835   23.7518   38.7476 H   0  0  0  0  0  0  0  0  0  0  0  0
   36.6822   24.7115   36.4533 H   0  0  0  0  0  0  0  0  0  0  0  0
   40.8929   22.4901   37.7517 H   0  0  0  0  0  0  0  0  0  0  0  0
   39.4193   26.4894   35.0060 H   0  0  0  0  0  0  0  0  0  0  0  0
   39.9463   25.8613   33.4026 H   0  0  0  0  0  0  0  0  0  0  0  0
   37.5708   27.4215   34.1325 H   0  0  0  0  0  0  0  0  0  0  0  0
   38.3231   27.1354   32.5250 H   0  0  0  0  0  0  0  0  0  0  0  0
   36.6207   24.0759   32.0132 H   0  0  0  0  0  0  0  0  0  0  0  0
   38.0550   25.0496   31.5690 H   0  0  0  0  0  0  0  0  0  0  0  0
   39.2551   23.5780   32.8326 H   0  0  0  0  0  0  0  0  0  0  0  0
   37.3536   22.4678   34.6176 H   0  0  0  0  0  0  0  0  0  0  0  0
   35.6858   21.9060   33.5312 H   0  0  0  0  0  0  0  0  0  0  0  0
   36.2042   22.9863   32.1930 H   0  0  0  0  0  0  0  0  0  0  0  0
   36.6936   21.2579   32.1930 H   0  0  0  0  0  0  0  0  0  0  0  0
   39.2389   21.1354   34.3105 H   0  0  0  0  0  0  0  0  0  0  0  0
   38.4585   20.6280   32.7742 H   0  0  0  0  0  0  0  0  0  0  0  0
   39.6542   21.9685   32.7742 H   0  0  0  0  0  0  0  0  0  0  0  0
  1  6  2  0
  2  1  1  0
  3  4  1  0
  3  2  2  0
  4  5  2  0
  5  6  1  0
  7  3  1  0
  8  7  1  0
  9  8  1  0
 10  9  1  0
 11 10  1  0
 11 12  1  0
 12 13  1  0
 12  7  1  0
 14 13  1  0
 15 13  1  0
  1 16  1  0
  2 17  1  0
  5 18  1  0
  8 19  1  0
  8 20  1  0
  9 21  1  0
  9 22  1  0
 11 23  1  0
 11 24  1  0
 12 25  1  6
 13 26  1  0
 14 27  1  0
 14 28  1  0
 14 29  1  0
 15 30  1  0
 15 31  1  0
 15 32  1  0
M  ISO  8  16  14  17  14  18  14  19  13  20  13  21  13  22  13  23  13
M  ISO  8  24  13  25  13  26   8  27   8  28   8  29   8  30   8  31   8
M  ISO  1  32   8
M  END
>  <minimizedAffinity>  (1) 
-3.81047392

>  <minimizedRMSD>  (1) 
1.81817663

$$$$
