
     RDKit          3D

 25 26  0  0  1  0  0  0  0  0999 V2000
   39.0760   22.9830   37.9910 C   0  0  0  0  0  0  0  0  0  0  0  0
   38.5360   24.0050   37.1980 C   0  0  0  0  0  0  0  0  0  0  0  0
   39.2720   24.4240   36.0850 C   0  0  0  0  0  0  0  0  0  0  0  0
   40.4600   23.8200   35.8380 N   0  0  0  0  0  0  0  0  0  0  0  0
   40.9570   22.8450   36.6080 C   0  0  0  0  0  0  0  0  0  0  0  0
   40.2660   22.4230   37.6880 N   0  0  0  0  0  0  0  0  0  0  0  0
   38.9010   25.4340   35.1650 N   0  0  0  0  0  0  0  0  0  0  0  0
   39.2490   26.8330   35.2780 C   0  0  0  0  0  0  0  0  0  0  0  0
   37.9840   27.6590   35.3660 C   0  0  0  0  0  0  0  0  0  0  0  0
   36.8650   26.8790   35.0100 O   0  0  0  0  0  0  0  0  0  0  0  0
   37.1020   26.2870   33.7660 C   0  0  0  0  0  0  0  0  0  0  0  0
   38.1030   25.1690   33.9650 C   0  0  1  0  0  0  0  0  0  0  0  0
   39.0260   25.1780   32.8450 N   0  0  0  0  0  0  0  0  0  0  0  0
   38.5214   22.6321   38.8737 H   0  0  0  0  0  0  0  0  0  0  0  0
   37.5659   24.4621   37.4429 H   0  0  0  0  0  0  0  0  0  0  0  0
   41.9268   22.3883   36.3613 H   0  0  0  0  0  0  0  0  0  0  0  0
   39.8532   26.9891   36.1839 H   0  0  0  0  0  0  0  0  0  0  0  0
   39.8284   27.1404   34.3950 H   0  0  0  0  0  0  0  0  0  0  0  0
   37.8594   28.0234   36.3964 H   0  0  0  0  0  0  0  0  0  0  0  0
   38.0628   28.5094   34.6727 H   0  0  0  0  0  0  0  0  0  0  0  0
   37.5096   27.0336   33.0685 H   0  0  0  0  0  0  0  0  0  0  0  0
   36.1655   25.8920   33.3454 H   0  0  0  0  0  0  0  0  0  0  0  0
   37.5665   24.2127   34.0520 H   0  0  0  0  0  0  0  0  0  0  0  0
   39.9937   25.1874   33.1977 H   0  0  0  0  0  0  0  0  0  0  0  0
   38.8779   24.3355   32.2712 H   0  0  0  0  0  0  0  0  0  0  0  0
  2  1  2  0
  3  2  1  0
  4  3  2  0
  4  5  1  0
  5  6  2  0
  6  1  1  0
  7  8  1  0
  7  3  1  0
  8  9  1  0
 10  9  1  0
 11 12  1  0
 11 10  1  0
 12  7  1  0
 13 12  1  0
  1 14  1  0
  2 15  1  0
  5 16  1  0
  8 17  1  0
  8 18  1  0
  9 19  1  0
  9 20  1  0
 11 21  1  0
 11 22  1  0
 12 23  1  1
 13 24  1  0
 13 25  1  0
M  ISO  8  14  14  15  14  16  14  17  13  18  13  19  13  20  13  21  13
M  ISO  4  22  13  23  13  24   5  25   5
M  END
>  <minimizedAffinity>  (1) 
-3.79784274

>  <minimizedRMSD>  (1) 
0.0591588877

$$$$
