
     RDKit          3D

 25 26  0  0  1  0  0  0  0  0999 V2000
   39.2520   22.8310   37.8300 C   0  0  0  0  0  0  0  0  0  0  0  0
   38.7070   23.8440   37.0420 C   0  0  0  0  0  0  0  0  0  0  0  0
   39.4410   24.3760   35.9980 C   0  0  0  0  0  0  0  0  0  0  0  0
   40.6890   23.8670   35.7900 N   0  0  0  0  0  0  0  0  0  0  0  0
   41.2010   22.8940   36.5540 C   0  0  0  0  0  0  0  0  0  0  0  0
   40.4940   22.3750   37.5690 N   0  0  0  0  0  0  0  0  0  0  0  0
   39.0540   25.3940   35.1050 N   0  0  0  0  0  0  0  0  0  0  0  0
   39.2600   26.8150   35.3330 C   0  0  0  0  0  0  0  0  0  0  0  0
   37.9310   27.5320   35.3560 C   0  0  0  0  0  0  0  0  0  0  0  0
   36.9270   26.6890   34.8790 O   0  0  0  0  0  0  0  0  0  0  0  0
   37.2940   26.1900   33.6260 C   0  0  0  0  0  0  0  0  0  0  0  0
   38.3980   25.1680   33.8360 C   0  0  2  0  0  0  0  0  0  0  0  0
   37.7970   23.8090   33.8140 C   0  0  0  0  0  0  0  0  0  0  0  0
   37.2980   23.1130   32.9230 O   0  0  0  0  0  0  0  0  0  0  0  0
   38.6710   22.4054   38.6615 H   0  0  0  0  0  0  0  0  0  0  0  0
   37.6943   24.2195   37.2507 H   0  0  0  0  0  0  0  0  0  0  0  0
   42.2130   22.5159   36.3470 H   0  0  0  0  0  0  0  0  0  0  0  0
   39.7686   26.9593   36.2976 H   0  0  0  0  0  0  0  0  0  0  0  0
   39.8779   27.2254   34.5207 H   0  0  0  0  0  0  0  0  0  0  0  0
   37.6960   27.8310   36.3882 H   0  0  0  0  0  0  0  0  0  0  0  0
   37.9899   28.4234   34.7142 H   0  0  0  0  0  0  0  0  0  0  0  0
   37.6593   27.0095   32.9896 H   0  0  0  0  0  0  0  0  0  0  0  0
   36.4294   25.7240   33.1307 H   0  0  0  0  0  0  0  0  0  0  0  0
   39.1467   25.2623   33.0357 H   0  0  0  0  0  0  0  0  0  0  0  0
   37.7961   23.3191   34.7989 H   0  0  0  0  0  0  0  0  0  0  0  0
  2  1  2  0
  3  2  1  0
  4  3  2  0
  4  5  1  0
  5  6  2  0
  6  1  1  0
  7  8  1  0
  7  3  1  0
  8  9  1  0
 10  9  1  0
 11 12  1  0
 11 10  1  0
 12  7  1  0
 13 12  1  0
 14 13  2  0
  1 15  1  0
  2 16  1  0
  5 17  1  0
  8 18  1  0
  8 19  1  0
  9 20  1  0
  9 21  1  0
 11 22  1  0
 11 23  1  0
 12 24  1  6
 13 25  1  0
M  ISO  8  15  14  16  14  17  14  18  13  19  13  20  13  21  13  22  13
M  ISO  3  23  13  24  13  25   6
M  END
>  <minimizedAffinity>  (1) 
-3.72674298

>  <minimizedRMSD>  (1) 
0.568179011

$$$$
