
     RDKit          3D

 46 50  0  0  1  0  0  0  0  0999 V2000
   38.5220   22.5740   36.0620 C   0  0  0  0  0  0  0  0  0  0  0  0
   38.0980   23.8550   35.6960 C   0  0  0  0  0  0  0  0  0  0  0  0
   38.9810   24.7190   35.1300 C   0  0  0  0  0  0  0  0  0  0  0  0
   40.2690   24.2690   34.9470 N   0  0  0  0  0  0  0  0  0  0  0  0
   40.6610   23.0440   35.3010 C   0  0  0  0  0  0  0  0  0  0  0  0
   39.7940   22.1930   35.8580 N   0  0  0  0  0  0  0  0  0  0  0  0
   38.7560   26.0270   34.7030 N   0  0  0  0  0  0  0  0  0  0  0  0
   38.8950   27.2130   35.5640 C   0  0  0  0  0  0  0  0  0  0  0  0
   37.5960   27.9420   35.6440 C   0  0  0  0  0  0  0  0  0  0  0  0
   36.7240   27.4610   34.6560 O   0  0  0  0  0  0  0  0  0  0  0  0
   37.3460   27.5110   33.4100 C   0  0  0  0  0  0  0  0  0  0  0  0
   38.3840   26.4330   33.3290 C   0  0  2  0  0  0  0  0  0  0  0  0
   38.0500   25.3490   32.4260 C   0  0  0  0  0  0  0  0  0  0  0  0
   36.7380   24.8130   32.4160 C   0  0  0  0  0  0  0  0  0  0  0  0
   36.2970   23.8120   31.5790 C   0  0  0  0  0  0  0  0  0  0  0  0
   37.2190   23.2920   30.6790 C   0  0  0  0  0  0  0  0  0  0  0  0
   38.5190   23.7720   30.6360 C   0  0  0  0  0  0  0  0  0  0  0  0
   38.8740   24.7710   31.5020 C   0  0  0  0  0  0  0  0  0  0  0  0
   40.2200   25.1670   31.2880 N   0  0  0  0  0  0  0  0  0  0  0  0
   41.3850   24.5600   31.5800 C   0  0  0  0  0  0  0  0  0  0  0  0
   42.4590   25.2640   31.2390 N   0  0  0  0  0  0  0  0  0  0  0  0
   42.0300   26.4060   30.6900 C   0  0  0  0  0  0  0  0  0  0  0  0
   42.7090   27.4900   30.1750 C   0  0  0  0  0  0  0  0  0  0  0  0
   41.9930   28.5240   29.6870 N   0  0  0  0  0  0  0  0  0  0  0  0
   40.6310   28.4880   29.7080 C   0  0  0  0  0  0  0  0  0  0  0  0
   40.0170   27.4070   30.2200 N   0  0  0  0  0  0  0  0  0  0  0  0
   40.6540   26.3360   30.7260 C   0  0  0  0  0  0  0  0  0  0  0  0
   44.1430   27.4860   30.1740 N   0  0  0  0  0  0  0  0  0  0  0  0
   37.8089   21.8730   36.5203 H   0  0  0  0  0  0  0  0  0  0  0  0
   37.0553   24.1618   35.8653 H   0  0  0  0  0  0  0  0  0  0  0  0
   41.7027   22.7329   35.1337 H   0  0  0  0  0  0  0  0  0  0  0  0
   39.1977   26.8968   36.5731 H   0  0  0  0  0  0  0  0  0  0  0  0
   39.6576   27.8810   35.1372 H   0  0  0  0  0  0  0  0  0  0  0  0
   37.1480   27.7837   36.6361 H   0  0  0  0  0  0  0  0  0  0  0  0
   37.7701   29.0165   35.4854 H   0  0  0  0  0  0  0  0  0  0  0  0
   36.5966   27.3592   32.6192 H   0  0  0  0  0  0  0  0  0  0  0  0
   37.8241   28.4927   33.2768 H   0  0  0  0  0  0  0  0  0  0  0  0
   39.2853   26.8391   32.8466 H   0  0  0  0  0  0  0  0  0  0  0  0
   36.0151   25.2292   33.1331 H   0  0  0  0  0  0  0  0  0  0  0  0
   35.2622   23.4412   31.6211 H   0  0  0  0  0  0  0  0  0  0  0  0
   36.9136   22.4892   29.9918 H   0  0  0  0  0  0  0  0  0  0  0  0
   39.2480   23.3598   29.9228 H   0  0  0  0  0  0  0  0  0  0  0  0
   41.4429   23.5708   32.0576 H   0  0  0  0  0  0  0  0  0  0  0  0
   40.0434   29.3296   29.3125 H   0  0  0  0  0  0  0  0  0  0  0  0
   44.6600   28.2907   29.7917 H   0  0  0  0  0  0  0  0  0  0  0  0
   44.6560   26.6785   30.5556 H   0  0  0  0  0  0  0  0  0  0  0  0
  2  1  2  0
  3  2  1  0
  4  3  2  0
  4  5  1  0
  5  6  2  0
  6  1  1  0
  7  3  1  0
  7  8  1  0
  8  9  1  0
 10  9  1  0
 11 10  1  0
 12 11  1  0
 12  7  1  0
 13 12  1  0
 14 13  2  0
 15 14  1  0
 16 15  2  0
 17 16  1  0
 17 18  2  0
 18 13  1  0
 19 18  1  0
 19 20  1  0
 21 20  2  0
 22 27  2  0
 22 21  1  0
 23 22  1  0
 24 25  1  0
 24 23  2  0
 25 26  2  0
 26 27  1  0
 27 19  1  0
 28 23  1  0
  1 29  1  0
  2 30  1  0
  5 31  1  0
  8 32  1  0
  8 33  1  0
  9 34  1  0
  9 35  1  0
 11 36  1  0
 11 37  1  0
 12 38  1  6
 14 39  1  0
 15 40  1  0
 16 41  1  0
 17 42  1  0
 20 43  1  0
 25 44  1  0
 28 45  1  0
 28 46  1  0
M  ISO  8  29  14  30  14  31  14  32  13  33  13  34  13  35  13  36  13
M  ISO  8  37  13  38  13  39  14  40  14  41  14  42  14  43  14  44  14
M  END
>  <minimizedAffinity>  (1) 
-4.79210806

>  <minimizedRMSD>  (1) 
2.14436936

$$$$
