
     RDKit          3D

 40 42  0  0  1  0  0  0  0  0999 V2000
   38.3290   22.4180   35.8630 C   0  0  0  0  0  0  0  0  0  0  0  0
   38.0490   23.6960   35.3740 C   0  0  0  0  0  0  0  0  0  0  0  0
   39.0590   24.5940   35.2250 C   0  0  0  0  0  0  0  0  0  0  0  0
   40.3280   24.1850   35.5700 N   0  0  0  0  0  0  0  0  0  0  0  0
   40.5800   22.9550   36.0380 C   0  0  0  0  0  0  0  0  0  0  0  0
   39.5850   22.0680   36.1860 N   0  0  0  0  0  0  0  0  0  0  0  0
   38.9870   25.9050   34.7610 N   0  0  0  0  0  0  0  0  0  0  0  0
   38.7330   27.0760   35.6180 C   0  0  0  0  0  0  0  0  0  0  0  0
   37.4830   27.7710   35.1880 C   0  0  0  0  0  0  0  0  0  0  0  0
   37.0910   27.2910   33.9260 O   0  0  0  0  0  0  0  0  0  0  0  0
   38.1570   27.3860   33.0310 C   0  0  0  0  0  0  0  0  0  0  0  0
   39.1850   26.3480   33.3600 C   0  0  2  0  0  0  0  0  0  0  0  0
   39.2860   25.2700   32.3840 C   0  0  0  0  0  0  0  0  0  0  0  0
   40.5560   24.7320   32.0910 C   0  0  0  0  0  0  0  0  0  0  0  0
   40.8070   23.6960   31.2130 C   0  0  0  0  0  0  0  0  0  0  0  0
   39.7030   23.1460   30.5670 C   0  0  0  0  0  0  0  0  0  0  0  0
   38.4320   23.6320   30.8140 C   0  0  0  0  0  0  0  0  0  0  0  0
   38.2670   24.6480   31.6930 C   0  0  0  0  0  0  0  0  0  0  0  0
   36.9580   25.1400   31.9310 N   0  0  0  0  0  0  0  0  0  0  0  0
   35.7590   24.5100   31.4950 C   0  0  0  0  0  0  0  0  0  0  0  0
   35.7280   23.2060   31.6770 N   0  0  0  0  0  0  0  0  0  0  0  0
   34.6470   25.2210   30.9010 N   0  0  0  0  0  0  0  0  0  0  0  0
   34.8600   22.7210   31.3660 H   0  0  0  0  0  0  0  0  0  0  0  0
   37.5127   21.6908   35.9848 H   0  0  0  0  0  0  0  0  0  0  0  0
   37.0178   23.9743   35.1111 H   0  0  0  0  0  0  0  0  0  0  0  0
   41.6093   22.6710   36.3024 H   0  0  0  0  0  0  0  0  0  0  0  0
   38.6239   26.7453   36.6614 H   0  0  0  0  0  0  0  0  0  0  0  0
   39.5788   27.7738   35.5306 H   0  0  0  0  0  0  0  0  0  0  0  0
   36.6846   27.5755   35.9190 H   0  0  0  0  0  0  0  0  0  0  0  0
   37.6674   28.8538   35.1277 H   0  0  0  0  0  0  0  0  0  0  0  0
   38.6096   28.3858   33.1059 H   0  0  0  0  0  0  0  0  0  0  0  0
   37.7892   27.2234   32.0072 H   0  0  0  0  0  0  0  0  0  0  0  0
   40.1822   26.8065   33.2860 H   0  0  0  0  0  0  0  0  0  0  0  0
   41.4210   25.1755   32.6059 H   0  0  0  0  0  0  0  0  0  0  0  0
   41.8266   23.3245   31.0333 H   0  0  0  0  0  0  0  0  0  0  0  0
   39.8427   22.3191   29.8552 H   0  0  0  0  0  0  0  0  0  0  0  0
   37.5623   23.1964   30.3003 H   0  0  0  0  0  0  0  0  0  0  0  0
   36.8687   26.0197   32.4593 H   0  0  0  0  0  0  0  0  0  0  0  0
   34.6988   26.2414   30.7706 H   0  0  0  0  0  0  0  0  0  0  0  0
   33.8039   24.7066   30.6087 H   0  0  0  0  0  0  0  0  0  0  0  0
  1  6  2  0
  2  1  1  0
  3  2  2  0
  3  4  1  0
  4  5  2  0
  5  6  1  0
  7  3  1  0
  7  8  1  0
  9  8  1  0
 10  9  1  0
 11 12  1  0
 11 10  1  0
 12  7  1  0
 13 12  1  0
 14 13  2  0
 15 14  1  0
 16 17  1  0
 16 15  2  0
 17 18  2  0
 18 19  1  0
 18 13  1  0
 20 21  2  0
 20 19  1  0
 22 20  1  0
 23 21  1  0
  1 24  1  0
  2 25  1  0
  5 26  1  0
  8 27  1  0
  8 28  1  0
  9 29  1  0
  9 30  1  0
 11 31  1  0
 11 32  1  0
 12 33  1  1
 14 34  1  0
 15 35  1  0
 16 36  1  0
 17 37  1  0
 19 38  1  0
 22 39  1  0
 22 40  1  0
M  ISO  8  24  14  25  14  26  14  27  13  28  13  29  13  30  13  31  13
M  ISO  6  32  13  33  13  34  14  35  14  36  14  37  14
M  END
>  <minimizedAffinity>  (1) 
-4.77321482

>  <minimizedRMSD>  (1) 
2.87892079

$$$$
