
     RDKit          3D

 47 51  0  0  1  0  0  0  0  0999 V2000
   38.5570   22.6050   36.1440 C   0  0  0  0  0  0  0  0  0  0  0  0
   38.1360   23.8690   35.7390 C   0  0  0  0  0  0  0  0  0  0  0  0
   39.0210   24.7550   35.2090 C   0  0  0  0  0  0  0  0  0  0  0  0
   40.3190   24.3360   35.1020 N   0  0  0  0  0  0  0  0  0  0  0  0
   40.7160   23.1190   35.4950 C   0  0  0  0  0  0  0  0  0  0  0  0
   39.8470   22.2530   36.0130 N   0  0  0  0  0  0  0  0  0  0  0  0
   38.7880   26.0510   34.7540 N   0  0  0  0  0  0  0  0  0  0  0  0
   38.8610   27.2480   35.6060 C   0  0  0  0  0  0  0  0  0  0  0  0
   37.5440   27.9500   35.6090 C   0  0  0  0  0  0  0  0  0  0  0  0
   36.7270   27.4330   34.5930 O   0  0  0  0  0  0  0  0  0  0  0  0
   37.4100   27.4890   33.3790 C   0  0  0  0  0  0  0  0  0  0  0  0
   38.4730   26.4300   33.3580 C   0  0  2  0  0  0  0  0  0  0  0  0
   38.2070   25.3280   32.4550 C   0  0  0  0  0  0  0  0  0  0  0  0
   36.9100   24.7560   32.3970 C   0  0  0  0  0  0  0  0  0  0  0  0
   36.5410   23.7330   31.5510 C   0  0  0  0  0  0  0  0  0  0  0  0
   37.5120   23.2240   30.6960 C   0  0  0  0  0  0  0  0  0  0  0  0
   38.8010   23.7490   30.7090 C   0  0  0  0  0  0  0  0  0  0  0  0
   39.0730   24.7600   31.5730 C   0  0  0  0  0  0  0  0  0  0  0  0
   40.4350   25.1760   31.3500 C   0  0  0  0  0  0  0  0  0  0  0  0
   41.3320   24.1200   31.5980 C   0  0  0  0  0  0  0  0  0  0  0  0
   42.6030   24.5320   31.3100 N   0  0  0  0  0  0  0  0  0  0  0  0
   42.5760   25.8170   30.8850 C   0  0  0  0  0  0  0  0  0  0  0  0
   43.4560   26.8000   30.4850 C   0  0  0  0  0  0  0  0  0  0  0  0
   42.9830   28.0680   30.1520 C   0  0  0  0  0  0  0  0  0  0  0  0
   41.6320   28.4030   30.2030 C   0  0  0  0  0  0  0  0  0  0  0  0
   40.7550   27.4170   30.6010 C   0  0  0  0  0  0  0  0  0  0  0  0
   41.2490   26.1840   30.9190 C   0  0  0  0  0  0  0  0  0  0  0  0
   37.8336   21.8949   36.5711 H   0  0  0  0  0  0  0  0  0  0  0  0
   37.0790   24.1531   35.8487 H   0  0  0  0  0  0  0  0  0  0  0  0
   41.7724   22.8312   35.3887 H   0  0  0  0  0  0  0  0  0  0  0  0
   39.1176   26.9496   36.6332 H   0  0  0  0  0  0  0  0  0  0  0  0
   39.6323   27.9264   35.2124 H   0  0  0  0  0  0  0  0  0  0  0  0
   37.0537   27.8020   36.5825 H   0  0  0  0  0  0  0  0  0  0  0  0
   37.7049   29.0240   35.4341 H   0  0  0  0  0  0  0  0  0  0  0  0
   36.7046   27.3179   32.5524 H   0  0  0  0  0  0  0  0  0  0  0  0
   37.8745   28.4794   33.2632 H   0  0  0  0  0  0  0  0  0  0  0  0
   39.3862   26.8477   32.9090 H   0  0  0  0  0  0  0  0  0  0  0  0
   36.1439   25.1581   33.0763 H   0  0  0  0  0  0  0  0  0  0  0  0
   35.5160   23.3337   31.5520 H   0  0  0  0  0  0  0  0  0  0  0  0
   37.2608   22.4039   30.0072 H   0  0  0  0  0  0  0  0  0  0  0  0
   39.5782   23.3553   30.0374 H   0  0  0  0  0  0  0  0  0  0  0  0
   41.0541   23.1211   31.9655 H   0  0  0  0  0  0  0  0  0  0  0  0
   43.4505   23.9540   31.4021 H   0  0  0  0  0  0  0  0  0  0  0  0
   44.5330   26.5832   30.4286 H   0  0  0  0  0  0  0  0  0  0  0  0
   43.7056   28.8349   29.8363 H   0  0  0  0  0  0  0  0  0  0  0  0
   41.2802   29.4108   29.9372 H   0  0  0  0  0  0  0  0  0  0  0  0
   39.6755   27.6197   30.6615 H   0  0  0  0  0  0  0  0  0  0  0  0
  2  1  2  0
  3  2  1  0
  4  3  2  0
  4  5  1  0
  5  6  2  0
  6  1  1  0
  7  3  1  0
  7  8  1  0
  8  9  1  0
 10  9  1  0
 11 10  1  0
 12 11  1  0
 12  7  1  0
 13 12  1  0
 14 13  2  0
 15 14  1  0
 16 17  1  0
 16 15  2  0
 17 18  2  0
 18 13  1  0
 19 18  1  0
 19 20  2  0
 21 20  1  0
 22 27  2  0
 22 21  1  0
 23 22  1  0
 24 25  1  0
 24 23  2  0
 25 26  2  0
 26 27  1  0
 27 19  1  0
  1 28  1  0
  2 29  1  0
  5 30  1  0
  8 31  1  0
  8 32  1  0
  9 33  1  0
  9 34  1  0
 11 35  1  0
 11 36  1  0
 12 37  1  6
 14 38  1  0
 15 39  1  0
 16 40  1  0
 17 41  1  0
 20 42  1  0
 21 43  1  0
 23 44  1  0
 24 45  1  0
 25 46  1  0
 26 47  1  0
M  ISO  8  28  14  29  14  30  14  31  13  32  13  33  13  34  13  35  13
M  ISO  8  36  13  37  13  38  14  39  14  40  14  41  14  42  14  43   9
M  ISO  4  44  14  45  14  46  14  47  14
M  END
>  <minimizedAffinity>  (1) 
-4.7426796

>  <minimizedRMSD>  (1) 
1.29172981

$$$$
