
     RDKit          3D

 43 46  0  0  1  0  0  0  0  0999 V2000
   38.5050   22.5930   36.1890 C   0  0  0  0  0  0  0  0  0  0  0  0
   38.0940   23.8610   35.7650 C   0  0  0  0  0  0  0  0  0  0  0  0
   39.0050   24.7210   35.2420 C   0  0  0  0  0  0  0  0  0  0  0  0
   40.2980   24.2780   35.1630 N   0  0  0  0  0  0  0  0  0  0  0  0
   40.6890   23.0710   35.5660 C   0  0  0  0  0  0  0  0  0  0  0  0
   39.7950   22.2220   36.0810 N   0  0  0  0  0  0  0  0  0  0  0  0
   38.8020   26.0180   34.7680 N   0  0  0  0  0  0  0  0  0  0  0  0
   38.8770   27.2280   35.6040 C   0  0  0  0  0  0  0  0  0  0  0  0
   37.5700   27.9460   35.5730 C   0  0  0  0  0  0  0  0  0  0  0  0
   36.7640   27.4250   34.5520 O   0  0  0  0  0  0  0  0  0  0  0  0
   37.4650   27.4550   33.3470 C   0  0  0  0  0  0  0  0  0  0  0  0
   38.5180   26.3860   33.3600 C   0  0  2  0  0  0  0  0  0  0  0  0
   38.2570   25.2790   32.4660 C   0  0  0  0  0  0  0  0  0  0  0  0
   36.9580   24.7080   32.4010 C   0  0  0  0  0  0  0  0  0  0  0  0
   36.5810   23.6800   31.5640 C   0  0  0  0  0  0  0  0  0  0  0  0
   37.5590   23.1650   30.7190 C   0  0  0  0  0  0  0  0  0  0  0  0
   38.8480   23.6790   30.7320 C   0  0  0  0  0  0  0  0  0  0  0  0
   39.1380   24.7030   31.5930 C   0  0  0  0  0  0  0  0  0  0  0  0
   40.4840   25.1070   31.4070 N   0  0  0  0  0  0  0  0  0  0  0  0
   41.6190   24.6460   31.9580 C   0  0  0  0  0  0  0  0  0  0  0  0
   42.8560   25.1470   31.6940 C   0  0  0  0  0  0  0  0  0  0  0  0
   43.0260   26.1860   30.8230 C   0  0  0  0  0  0  0  0  0  0  0  0
   44.1830   26.6240   30.6020 O   0  0  0  0  0  0  0  0  0  0  0  0
   41.9140   26.6800   30.2500 N   0  0  0  0  0  0  0  0  0  0  0  0
   40.7280   26.1420   30.5530 C   0  0  0  0  0  0  0  0  0  0  0  0
   39.7220   26.6720   29.9690 O   0  0  0  0  0  0  0  0  0  0  0  0
   37.7694   21.8940   36.6136 H   0  0  0  0  0  0  0  0  0  0  0  0
   37.0391   24.1595   35.8548 H   0  0  0  0  0  0  0  0  0  0  0  0
   41.7442   22.7737   35.4754 H   0  0  0  0  0  0  0  0  0  0  0  0
   39.1120   26.9421   36.6399 H   0  0  0  0  0  0  0  0  0  0  0  0
   39.6642   27.8902   35.2143 H   0  0  0  0  0  0  0  0  0  0  0  0
   37.0612   27.8193   36.5400 H   0  0  0  0  0  0  0  0  0  0  0  0
   37.7483   29.0149   35.3840 H   0  0  0  0  0  0  0  0  0  0  0  0
   37.9414   28.4387   33.2233 H   0  0  0  0  0  0  0  0  0  0  0  0
   36.7709   27.2789   32.5120 H   0  0  0  0  0  0  0  0  0  0  0  0
   39.4448   26.7900   32.9266 H   0  0  0  0  0  0  0  0  0  0  0  0
   36.1907   25.1197   33.0732 H   0  0  0  0  0  0  0  0  0  0  0  0
   35.5544   23.2850   31.5640 H   0  0  0  0  0  0  0  0  0  0  0  0
   37.3080   22.3420   30.0336 H   0  0  0  0  0  0  0  0  0  0  0  0
   39.6212   23.2718   30.0639 H   0  0  0  0  0  0  0  0  0  0  0  0
   41.5434   23.8096   32.6684 H   0  0  0  0  0  0  0  0  0  0  0  0
   43.7342   24.7082   32.1902 H   0  0  0  0  0  0  0  0  0  0  0  0
   41.9753   27.4642   29.5850 H   0  0  0  0  0  0  0  0  0  0  0  0
  2  1  2  0
  3  2  1  0
  4  3  2  0
  4  5  1  0
  5  6  2  0
  6  1  1  0
  7  3  1  0
  7  8  1  0
  9  8  1  0
 10  9  1  0
 11 12  1  0
 11 10  1  0
 12  7  1  0
 13 12  1  0
 14 13  2  0
 15 14  1  0
 16 17  1  0
 16 15  2  0
 17 18  2  0
 18 13  1  0
 19 18  1  0
 19 20  1  0
 21 20  2  0
 22 21  1  0
 23 22  2  0
 24 25  1  0
 24 22  1  0
 25 19  1  0
 26 25  2  0
  1 27  1  0
  2 28  1  0
  5 29  1  0
  8 30  1  0
  8 31  1  0
  9 32  1  0
  9 33  1  0
 11 34  1  0
 11 35  1  0
 12 36  1  6
 14 37  1  0
 15 38  1  0
 16 39  1  0
 17 40  1  0
 20 41  1  0
 21 42  1  0
 24 43  1  0
M  ISO  8  27  14  28  14  29  14  30  13  31  13  32  13  33  13  34  13
M  ISO  8  35  13  36  13  37  14  38  14  39  14  40  14  41  14  42  14
M  ISO  1  43   9
M  END
>  <minimizedAffinity>  (1) 
-4.60753012

>  <minimizedRMSD>  (1) 
1.02124012

$$$$
