
     RDKit          3D

 44 47  0  0  1  0  0  0  0  0999 V2000
   38.5010   22.5920   36.1920 C   0  0  0  0  0  0  0  0  0  0  0  0
   38.0930   23.8590   35.7650 C   0  0  0  0  0  0  0  0  0  0  0  0
   39.0060   24.7190   35.2400 C   0  0  0  0  0  0  0  0  0  0  0  0
   40.2950   24.2720   35.1650 N   0  0  0  0  0  0  0  0  0  0  0  0
   40.6850   23.0650   35.5700 C   0  0  0  0  0  0  0  0  0  0  0  0
   39.7890   22.2180   36.0860 N   0  0  0  0  0  0  0  0  0  0  0  0
   38.8040   26.0130   34.7660 N   0  0  0  0  0  0  0  0  0  0  0  0
   38.8810   27.2270   35.5980 C   0  0  0  0  0  0  0  0  0  0  0  0
   37.5730   27.9430   35.5720 C   0  0  0  0  0  0  0  0  0  0  0  0
   36.7730   27.4340   34.5400 O   0  0  0  0  0  0  0  0  0  0  0  0
   37.4780   27.4550   33.3380 C   0  0  0  0  0  0  0  0  0  0  0  0
   38.5240   26.3800   33.3580 C   0  0  2  0  0  0  0  0  0  0  0  0
   38.2610   25.2730   32.4620 C   0  0  0  0  0  0  0  0  0  0  0  0
   36.9600   24.7090   32.4000 C   0  0  0  0  0  0  0  0  0  0  0  0
   36.5830   23.6800   31.5640 C   0  0  0  0  0  0  0  0  0  0  0  0
   37.5540   23.1560   30.7200 C   0  0  0  0  0  0  0  0  0  0  0  0
   38.8450   23.6650   30.7310 C   0  0  0  0  0  0  0  0  0  0  0  0
   39.1430   24.6940   31.5910 C   0  0  0  0  0  0  0  0  0  0  0  0
   40.4830   25.0970   31.4090 N   0  0  0  0  0  0  0  0  0  0  0  0
   41.6130   24.6370   31.9630 C   0  0  0  0  0  0  0  0  0  0  0  0
   42.8660   25.1440   31.7020 C   0  0  0  0  0  0  0  0  0  0  0  0
   43.0340   26.1910   30.8220 C   0  0  0  0  0  0  0  0  0  0  0  0
   44.3610   26.6510   30.6090 N   0  0  0  0  0  0  0  0  0  0  0  0
   41.9130   26.6790   30.2460 N   0  0  0  0  0  0  0  0  0  0  0  0
   40.7040   26.1360   30.5460 C   0  0  0  0  0  0  0  0  0  0  0  0
   39.7370   26.6640   29.9620 O   0  0  0  0  0  0  0  0  0  0  0  0
   37.7636   21.8957   36.6178 H   0  0  0  0  0  0  0  0  0  0  0  0
   37.0383   24.1588   35.8533 H   0  0  0  0  0  0  0  0  0  0  0  0
   41.7399   22.7663   35.4803 H   0  0  0  0  0  0  0  0  0  0  0  0
   39.1221   26.9450   36.6335 H   0  0  0  0  0  0  0  0  0  0  0  0
   39.6647   27.8892   35.2014 H   0  0  0  0  0  0  0  0  0  0  0  0
   37.0603   27.8017   36.5349 H   0  0  0  0  0  0  0  0  0  0  0  0
   37.7494   29.0150   35.3994 H   0  0  0  0  0  0  0  0  0  0  0  0
   37.9609   28.4353   33.2123 H   0  0  0  0  0  0  0  0  0  0  0  0
   36.7855   27.2798   32.5015 H   0  0  0  0  0  0  0  0  0  0  0  0
   39.4550   26.7786   32.9286 H   0  0  0  0  0  0  0  0  0  0  0  0
   36.1937   25.1250   33.0706 H   0  0  0  0  0  0  0  0  0  0  0  0
   35.5547   23.2895   31.5651 H   0  0  0  0  0  0  0  0  0  0  0  0
   37.2978   22.3318   30.0381 H   0  0  0  0  0  0  0  0  0  0  0  0
   39.6156   23.2521   30.0634 H   0  0  0  0  0  0  0  0  0  0  0  0
   41.5344   23.8000   32.6724 H   0  0  0  0  0  0  0  0  0  0  0  0
   43.7436   24.7081   32.2019 H   0  0  0  0  0  0  0  0  0  0  0  0
   44.5377   27.4313   29.9603 H   0  0  0  0  0  0  0  0  0  0  0  0
   45.1465   26.2042   31.1033 H   0  0  0  0  0  0  0  0  0  0  0  0
  2  1  2  0
  3  2  1  0
  4  3  2  0
  4  5  1  0
  5  6  2  0
  6  1  1  0
  7  3  1  0
  7  8  1  0
  9  8  1  0
 10  9  1  0
 11 12  1  0
 11 10  1  0
 12  7  1  0
 13 12  1  0
 14 13  2  0
 15 14  1  0
 16 17  1  0
 16 15  2  0
 17 18  2  0
 18 13  1  0
 19 18  1  0
 19 20  1  0
 21 20  2  0
 22 21  1  0
 23 22  1  0
 24 25  1  0
 24 22  2  0
 25 19  1  0
 26 25  2  0
  1 27  1  0
  2 28  1  0
  5 29  1  0
  8 30  1  0
  8 31  1  0
  9 32  1  0
  9 33  1  0
 11 34  1  0
 11 35  1  0
 12 36  1  6
 14 37  1  0
 15 38  1  0
 16 39  1  0
 17 40  1  0
 20 41  1  0
 21 42  1  0
 23 43  1  0
 23 44  1  0
M  ISO  8  27  14  28  14  29  14  30  13  31  13  32  13  33  13  34  13
M  ISO  8  35  13  36  13  37  14  38  14  39  14  40  14  41  14  42  14
M  END
>  <minimizedAffinity>  (1) 
-4.60717106

>  <minimizedRMSD>  (1) 
1.25287986

$$$$
