
     RDKit          3D

 49 52  0  0  1  0  0  0  0  0999 V2000
   38.5080   22.5810   36.0900 C   0  0  0  0  0  0  0  0  0  0  0  0
   38.0850   23.8600   35.7170 C   0  0  0  0  0  0  0  0  0  0  0  0
   38.9610   24.7020   35.1040 C   0  0  0  0  0  0  0  0  0  0  0  0
   40.2120   24.2180   34.8970 N   0  0  0  0  0  0  0  0  0  0  0  0
   40.6260   23.0060   35.2460 C   0  0  0  0  0  0  0  0  0  0  0  0
   39.7660   22.1770   35.8490 N   0  0  0  0  0  0  0  0  0  0  0  0
   38.7440   26.0040   34.6580 N   0  0  0  0  0  0  0  0  0  0  0  0
   38.9340   27.2080   35.4850 C   0  0  0  0  0  0  0  0  0  0  0  0
   37.6480   27.9570   35.6100 C   0  0  0  0  0  0  0  0  0  0  0  0
   36.7270   27.4650   34.6690 O   0  0  0  0  0  0  0  0  0  0  0  0
   37.2940   27.4800   33.3970 C   0  0  0  0  0  0  0  0  0  0  0  0
   38.3270   26.3990   33.2940 C   0  0  2  0  0  0  0  0  0  0  0  0
   37.9470   25.2950   32.4220 C   0  0  0  0  0  0  0  0  0  0  0  0
   36.6060   24.8330   32.4300 C   0  0  0  0  0  0  0  0  0  0  0  0
   36.1060   23.8260   31.6300 C   0  0  0  0  0  0  0  0  0  0  0  0
   36.9990   23.2270   30.7510 C   0  0  0  0  0  0  0  0  0  0  0  0
   38.3240   23.6330   30.6930 C   0  0  0  0  0  0  0  0  0  0  0  0
   38.7370   24.6370   31.5170 C   0  0  0  0  0  0  0  0  0  0  0  0
   40.1510   25.0570   31.3560 C   0  0  0  0  0  0  0  0  0  0  0  0
   40.0780   26.3870   30.5850 C   0  0  0  0  0  0  0  0  0  0  0  0
   39.8700   26.1930   29.1090 C   0  0  0  0  0  0  0  0  0  0  0  0
   40.8290   25.2600   28.4510 C   0  0  0  0  0  0  0  0  0  0  0  0
   41.7580   24.7350   29.5110 C   0  0  0  0  0  0  0  0  0  0  0  0
   41.0090   24.0640   30.6480 C   0  0  0  0  0  0  0  0  0  0  0  0
   37.8029   21.8980   36.5863 H   0  0  0  0  0  0  0  0  0  0  0  0
   37.0528   24.1832   35.9173 H   0  0  0  0  0  0  0  0  0  0  0  0
   41.6593   22.6883   35.0428 H   0  0  0  0  0  0  0  0  0  0  0  0
   39.2797   26.9103   36.4859 H   0  0  0  0  0  0  0  0  0  0  0  0
   39.6821   27.8572   35.0066 H   0  0  0  0  0  0  0  0  0  0  0  0
   37.2430   27.8239   36.6240 H   0  0  0  0  0  0  0  0  0  0  0  0
   37.8265   29.0265   35.4245 H   0  0  0  0  0  0  0  0  0  0  0  0
   36.5098   27.3098   32.6446 H   0  0  0  0  0  0  0  0  0  0  0  0
   37.7684   28.4565   33.2201 H   0  0  0  0  0  0  0  0  0  0  0  0
   39.2106   26.7999   32.7757 H   0  0  0  0  0  0  0  0  0  0  0  0
   35.9086   25.3162   33.1301 H   0  0  0  0  0  0  0  0  0  0  0  0
   35.0528   23.5133   31.6857 H   0  0  0  0  0  0  0  0  0  0  0  0
   36.6504   22.4188   30.0912 H   0  0  0  0  0  0  0  0  0  0  0  0
   39.0274   23.1542   29.9959 H   0  0  0  0  0  0  0  0  0  0  0  0
   40.6332   25.1532   32.3400 H   0  0  0  0  0  0  0  0  0  0  0  0
   39.2407   26.9788   30.9833 H   0  0  0  0  0  0  0  0  0  0  0  0
   41.0410   26.9014   30.7194 H   0  0  0  0  0  0  0  0  0  0  0  0
   38.8539   25.7999   28.9571 H   0  0  0  0  0  0  0  0  0  0  0  0
   40.0338   27.1769   28.6453 H   0  0  0  0  0  0  0  0  0  0  0  0
   40.2816   24.4265   27.9865 H   0  0  0  0  0  0  0  0  0  0  0  0
   41.3963   25.7816   27.6661 H   0  0  0  0  0  0  0  0  0  0  0  0
   42.4389   24.0019   29.0539 H   0  0  0  0  0  0  0  0  0  0  0  0
   42.3114   25.5891   29.9285 H   0  0  0  0  0  0  0  0  0  0  0  0
   40.3763   23.2608   30.2423 H   0  0  0  0  0  0  0  0  0  0  0  0
   41.7362   23.6459   31.3596 H   0  0  0  0  0  0  0  0  0  0  0  0
  2  1  2  0
  3  2  1  0
  4  3  2  0
  4  5  1  0
  5  6  2  0
  6  1  1  0
  7  3  1  0
  7  8  1  0
  8  9  1  0
 10  9  1  0
 11 10  1  0
 12 11  1  0
 12  7  1  0
 13 14  2  0
 13 12  1  0
 15 14  1  0
 16 15  2  0
 17 16  1  0
 17 18  2  0
 18 13  1  0
 19 18  1  0
 20 19  1  0
 21 20  1  0
 22 21  1  0
 22 23  1  0
 23 24  1  0
 24 19  1  0
  1 25  1  0
  2 26  1  0
  5 27  1  0
  8 28  1  0
  8 29  1  0
  9 30  1  0
  9 31  1  0
 11 32  1  0
 11 33  1  0
 12 34  1  6
 14 35  1  0
 15 36  1  0
 16 37  1  0
 17 38  1  0
 19 39  1  0
 20 40  1  0
 20 41  1  0
 21 42  1  0
 21 43  1  0
 22 44  1  0
 22 45  1  0
 23 46  1  0
 23 47  1  0
 24 48  1  0
 24 49  1  0
M  ISO  8  25  14  26  14  27  14  28  13  29  13  30  13  31  13  32  13
M  ISO  8  33  13  34  13  35  14  36  14  37  14  38  14  39  13  40  13
M  ISO  8  41  13  42  13  43  13  44  13  45  13  46  13  47  13  48  13
M  ISO  1  49  13
M  END
>  <minimizedAffinity>  (1) 
-4.47778082

>  <minimizedRMSD>  (1) 
1.84155214

$$$$
