
     RDKit          3D

 42 45  0  0  1  0  0  0  0  0999 V2000
   38.5000   22.5900   36.2160 C   0  0  0  0  0  0  0  0  0  0  0  0
   38.0890   23.8600   35.7900 C   0  0  0  0  0  0  0  0  0  0  0  0
   39.0040   24.7090   35.2500 C   0  0  0  0  0  0  0  0  0  0  0  0
   40.2860   24.2460   35.1630 N   0  0  0  0  0  0  0  0  0  0  0  0
   40.6790   23.0440   35.5650 C   0  0  0  0  0  0  0  0  0  0  0  0
   39.7840   22.2060   36.0960 N   0  0  0  0  0  0  0  0  0  0  0  0
   38.8080   26.0020   34.7650 N   0  0  0  0  0  0  0  0  0  0  0  0
   38.9050   27.2190   35.5880 C   0  0  0  0  0  0  0  0  0  0  0  0
   37.5970   27.9390   35.5820 C   0  0  0  0  0  0  0  0  0  0  0  0
   36.7770   27.4250   34.5680 O   0  0  0  0  0  0  0  0  0  0  0  0
   37.4540   27.4340   33.3530 C   0  0  0  0  0  0  0  0  0  0  0  0
   38.5090   26.3630   33.3570 C   0  0  2  0  0  0  0  0  0  0  0  0
   38.2430   25.2470   32.4740 C   0  0  0  0  0  0  0  0  0  0  0  0
   36.9410   24.6810   32.4470 C   0  0  0  0  0  0  0  0  0  0  0  0
   36.5360   23.6420   31.6350 C   0  0  0  0  0  0  0  0  0  0  0  0
   37.4930   23.1160   30.7790 C   0  0  0  0  0  0  0  0  0  0  0  0
   38.7570   23.6180   30.7590 C   0  0  0  0  0  0  0  0  0  0  0  0
   39.0990   24.6560   31.5900 C   0  0  0  0  0  0  0  0  0  0  0  0
   40.4790   25.1310   31.4860 C   0  0  0  0  0  0  0  0  0  0  0  0
   40.8090   26.1140   30.5780 C   0  0  0  0  0  0  0  0  0  0  0  0
   42.0410   26.6720   30.3330 C   0  0  0  0  0  0  0  0  0  0  0  0
   43.0900   26.1940   31.0850 C   0  0  0  0  0  0  0  0  0  0  0  0
   42.7780   25.2140   31.9950 C   0  0  0  0  0  0  0  0  0  0  0  0
   41.5570   24.7550   32.1430 N   0  0  0  0  0  0  0  0  0  0  0  0
   37.7645   21.8989   36.6536 H   0  0  0  0  0  0  0  0  0  0  0  0
   37.0376   24.1670   35.8912 H   0  0  0  0  0  0  0  0  0  0  0  0
   41.7313   22.7405   35.4621 H   0  0  0  0  0  0  0  0  0  0  0  0
   39.1647   26.9420   36.6204 H   0  0  0  0  0  0  0  0  0  0  0  0
   39.6835   27.8765   35.1738 H   0  0  0  0  0  0  0  0  0  0  0  0
   37.1019   27.8051   36.5551 H   0  0  0  0  0  0  0  0  0  0  0  0
   37.7724   29.0095   35.3997 H   0  0  0  0  0  0  0  0  0  0  0  0
   37.9287   28.4153   33.2054 H   0  0  0  0  0  0  0  0  0  0  0  0
   36.7423   27.2434   32.5362 H   0  0  0  0  0  0  0  0  0  0  0  0
   39.4269   26.7679   32.9058 H   0  0  0  0  0  0  0  0  0  0  0  0
   36.1923   25.1069   33.1312 H   0  0  0  0  0  0  0  0  0  0  0  0
   35.5083   23.2510   31.6646 H   0  0  0  0  0  0  0  0  0  0  0  0
   37.2268   22.2846   30.1098 H   0  0  0  0  0  0  0  0  0  0  0  0
   39.5064   23.1916   30.0759 H   0  0  0  0  0  0  0  0  0  0  0  0
   39.9784   26.5025   29.9704 H   0  0  0  0  0  0  0  0  0  0  0  0
   42.1811   27.4583   29.5766 H   0  0  0  0  0  0  0  0  0  0  0  0
   44.1153   26.5737   30.9645 H   0  0  0  0  0  0  0  0  0  0  0  0
   43.5802   24.7986   32.6226 H   0  0  0  0  0  0  0  0  0  0  0  0
  2  1  2  0
  3  2  1  0
  4  3  2  0
  4  5  1  0
  5  6  2  0
  6  1  1  0
  7  3  1  0
  7  8  1  0
  9  8  1  0
 10  9  1  0
 11 12  1  0
 11 10  1  0
 12  7  1  0
 13 12  1  0
 14 13  2  0
 15 14  1  0
 16 15  2  0
 17 16  1  0
 17 18  2  0
 18 13  1  0
 19 18  1  0
 19 24  1  0
 20 19  2  0
 21 20  1  0
 21 22  2  0
 22 23  1  0
 23 24  2  0
  1 25  1  0
  2 26  1  0
  5 27  1  0
  8 28  1  0
  8 29  1  0
  9 30  1  0
  9 31  1  0
 11 32  1  0
 11 33  1  0
 12 34  1  6
 14 35  1  0
 15 36  1  0
 16 37  1  0
 17 38  1  0
 20 39  1  0
 21 40  1  0
 22 41  1  0
 23 42  1  0
M  ISO  8  25  14  26  14  27  14  28  13  29  13  30  13  31  13  32  13
M  ISO  8  33  13  34  13  35  14  36  14  37  14  38  14  39  14  40  14
M  ISO  2  41  14  42  14
M  END
>  <minimizedAffinity>  (1) 
-4.45522642

>  <minimizedRMSD>  (1) 
0.876703799

$$$$
