
     RDKit          3D

 46 49  0  0  1  0  0  0  0  0999 V2000
   38.5090   22.5690   36.2040 C   0  0  0  0  0  0  0  0  0  0  0  0
   38.1160   23.8370   35.7660 C   0  0  0  0  0  0  0  0  0  0  0  0
   39.0370   24.6860   35.2390 C   0  0  0  0  0  0  0  0  0  0  0  0
   40.3000   24.2120   35.1840 N   0  0  0  0  0  0  0  0  0  0  0  0
   40.6990   23.0180   35.5890 C   0  0  0  0  0  0  0  0  0  0  0  0
   39.7930   22.1840   36.1060 N   0  0  0  0  0  0  0  0  0  0  0  0
   38.8450   25.9770   34.7500 N   0  0  0  0  0  0  0  0  0  0  0  0
   38.9290   27.1960   35.5730 C   0  0  0  0  0  0  0  0  0  0  0  0
   37.6180   27.9110   35.5590 C   0  0  0  0  0  0  0  0  0  0  0  0
   36.8110   27.3770   34.5410 O   0  0  0  0  0  0  0  0  0  0  0  0
   37.4940   27.3890   33.3290 C   0  0  0  0  0  0  0  0  0  0  0  0
   38.5650   26.3440   33.3370 C   0  0  2  0  0  0  0  0  0  0  0  0
   38.3070   25.2210   32.4500 C   0  0  0  0  0  0  0  0  0  0  0  0
   37.0340   24.5890   32.5090 C   0  0  0  0  0  0  0  0  0  0  0  0
   36.6390   23.5280   31.7080 C   0  0  0  0  0  0  0  0  0  0  0  0
   37.5680   23.0520   30.7870 C   0  0  0  0  0  0  0  0  0  0  0  0
   38.8280   23.6410   30.6960 C   0  0  0  0  0  0  0  0  0  0  0  0
   39.1580   24.6900   31.5060 C   0  0  0  0  0  0  0  0  0  0  0  0
   40.4200   25.3070   31.2740 C   0  0  0  0  0  0  0  0  0  0  0  0
   41.2700   25.9370   32.2670 C   0  0  0  0  0  0  0  0  0  0  0  0
   42.3700   26.5350   31.3560 C   0  0  0  0  0  0  0  0  0  0  0  0
   41.6800   26.9910   30.1010 C   0  0  0  0  0  0  0  0  0  0  0  0
   40.2580   26.5200   30.3770 C   0  0  0  0  0  0  0  0  0  0  0  0
   37.7632   21.8825   36.6312 H   0  0  0  0  0  0  0  0  0  0  0  0
   37.0637   24.1468   35.8477 H   0  0  0  0  0  0  0  0  0  0  0  0
   41.7538   22.7184   35.5020 H   0  0  0  0  0  0  0  0  0  0  0  0
   39.1832   26.9208   36.6072 H   0  0  0  0  0  0  0  0  0  0  0  0
   39.7061   27.8572   35.1620 H   0  0  0  0  0  0  0  0  0  0  0  0
   37.1182   27.7819   36.5304 H   0  0  0  0  0  0  0  0  0  0  0  0
   37.7838   28.9828   35.3750 H   0  0  0  0  0  0  0  0  0  0  0  0
   37.9508   28.3782   33.1777 H   0  0  0  0  0  0  0  0  0  0  0  0
   36.7873   27.1767   32.5132 H   0  0  0  0  0  0  0  0  0  0  0  0
   39.4838   26.7622   32.9000 H   0  0  0  0  0  0  0  0  0  0  0  0
   36.3096   24.9698   33.2440 H   0  0  0  0  0  0  0  0  0  0  0  0
   35.6370   23.0828   31.7964 H   0  0  0  0  0  0  0  0  0  0  0  0
   37.3072   22.2094   30.1298 H   0  0  0  0  0  0  0  0  0  0  0  0
   39.5597   23.2593   29.9687 H   0  0  0  0  0  0  0  0  0  0  0  0
   40.8999   24.3643   30.9723 H   0  0  0  0  0  0  0  0  0  0  0  0
   40.7335   26.7196   32.8235 H   0  0  0  0  0  0  0  0  0  0  0  0
   41.6409   25.2594   33.0501 H   0  0  0  0  0  0  0  0  0  0  0  0
   42.8551   27.3871   31.8545 H   0  0  0  0  0  0  0  0  0  0  0  0
   43.1513   25.7930   31.1345 H   0  0  0  0  0  0  0  0  0  0  0  0
   42.1015   26.5072   29.2075 H   0  0  0  0  0  0  0  0  0  0  0  0
   41.7734   28.0670   29.8925 H   0  0  0  0  0  0  0  0  0  0  0  0
   39.6816   27.3056   30.8876 H   0  0  0  0  0  0  0  0  0  0  0  0
   39.7117   26.2831   29.4521 H   0  0  0  0  0  0  0  0  0  0  0  0
  2  1  2  0
  3  2  1  0
  4  3  2  0
  4  5  1  0
  5  6  2  0
  6  1  1  0
  7  3  1  0
  7  8  1  0
  9  8  1  0
 10  9  1  0
 11 12  1  0
 11 10  1  0
 12  7  1  0
 13 14  2  0
 13 12  1  0
 15 14  1  0
 16 15  2  0
 17 16  1  0
 17 18  2  0
 18 13  1  0
 19 18  1  0
 19 20  1  0
 21 20  1  0
 22 23  1  0
 22 21  1  0
 23 19  1  0
  1 24  1  0
  2 25  1  0
  5 26  1  0
  8 27  1  0
  8 28  1  0
  9 29  1  0
  9 30  1  0
 11 31  1  0
 11 32  1  0
 12 33  1  6
 14 34  1  0
 15 35  1  0
 16 36  1  0
 17 37  1  0
 19 38  1  0
 20 39  1  0
 20 40  1  0
 21 41  1  0
 21 42  1  0
 22 43  1  0
 22 44  1  0
 23 45  1  0
 23 46  1  0
M  ISO  8  24  14  25  14  26  14  27  13  28  13  29  13  30  13  31  13
M  ISO  8  32  13  33  13  34  14  35  14  36  14  37  14  38  13  39  13
M  ISO  7  40  13  41  13  42  13  43  13  44  13  45  13  46  13
M  END
>  <minimizedAffinity>  (1) 
-4.44120693

>  <minimizedRMSD>  (1) 
0.693918884

$$$$
