
     RDKit          3D

 43 46  0  0  1  0  0  0  0  0999 V2000
   38.5020   22.5820   36.1790 C   0  0  0  0  0  0  0  0  0  0  0  0
   38.0990   23.8540   35.7600 C   0  0  0  0  0  0  0  0  0  0  0  0
   39.0170   24.7090   35.2330 C   0  0  0  0  0  0  0  0  0  0  0  0
   40.3030   24.2530   35.1450 N   0  0  0  0  0  0  0  0  0  0  0  0
   40.6890   23.0430   35.5410 C   0  0  0  0  0  0  0  0  0  0  0  0
   39.7920   22.1980   36.0610 N   0  0  0  0  0  0  0  0  0  0  0  0
   38.8180   26.0080   34.7670 N   0  0  0  0  0  0  0  0  0  0  0  0
   38.9060   27.2150   35.6070 C   0  0  0  0  0  0  0  0  0  0  0  0
   37.6020   27.9410   35.5940 C   0  0  0  0  0  0  0  0  0  0  0  0
   36.7890   27.4340   34.5700 O   0  0  0  0  0  0  0  0  0  0  0  0
   37.4800   27.4560   33.3600 C   0  0  0  0  0  0  0  0  0  0  0  0
   38.5270   26.3830   33.3630 C   0  0  2  0  0  0  0  0  0  0  0  0
   38.2560   25.2810   32.4650 C   0  0  0  0  0  0  0  0  0  0  0  0
   36.9510   24.7370   32.3950 C   0  0  0  0  0  0  0  0  0  0  0  0
   36.5540   23.7140   31.5560 C   0  0  0  0  0  0  0  0  0  0  0  0
   37.5270   23.1790   30.7150 C   0  0  0  0  0  0  0  0  0  0  0  0
   38.8260   23.6670   30.7350 C   0  0  0  0  0  0  0  0  0  0  0  0
   39.1360   24.6910   31.5980 C   0  0  0  0  0  0  0  0  0  0  0  0
   40.5120   25.1110   31.4250 C   0  0  0  0  0  0  0  0  0  0  0  0
   41.6790   24.6410   31.9820 C   0  0  0  0  0  0  0  0  0  0  0  0
   42.9100   25.1600   31.6940 C   0  0  0  0  0  0  0  0  0  0  0  0
   43.0650   26.2070   30.8120 C   0  0  0  0  0  0  0  0  0  0  0  0
   41.9490   26.7320   30.2160 C   0  0  0  0  0  0  0  0  0  0  0  0
   40.7300   26.1760   30.5370 C   0  0  0  0  0  0  0  0  0  0  0  0
   37.7632   21.8890   36.6078 H   0  0  0  0  0  0  0  0  0  0  0  0
   37.0471   24.1612   35.8558 H   0  0  0  0  0  0  0  0  0  0  0  0
   41.7414   22.7388   35.4412 H   0  0  0  0  0  0  0  0  0  0  0  0
   39.1507   26.9237   36.6391 H   0  0  0  0  0  0  0  0  0  0  0  0
   39.6913   27.8752   35.2101 H   0  0  0  0  0  0  0  0  0  0  0  0
   37.0981   27.8049   36.5623 H   0  0  0  0  0  0  0  0  0  0  0  0
   37.7829   29.0118   35.4191 H   0  0  0  0  0  0  0  0  0  0  0  0
   37.9606   28.4369   33.2299 H   0  0  0  0  0  0  0  0  0  0  0  0
   36.7767   27.2798   32.5328 H   0  0  0  0  0  0  0  0  0  0  0  0
   39.4534   26.7846   32.9265 H   0  0  0  0  0  0  0  0  0  0  0  0
   36.1899   25.1644   33.0643 H   0  0  0  0  0  0  0  0  0  0  0  0
   35.5196   23.3400   31.5522 H   0  0  0  0  0  0  0  0  0  0  0  0
   37.2631   22.3614   30.0280 H   0  0  0  0  0  0  0  0  0  0  0  0
   39.5939   23.2419   30.0720 H   0  0  0  0  0  0  0  0  0  0  0  0
   41.6181   23.8055   32.6949 H   0  0  0  0  0  0  0  0  0  0  0  0
   43.7995   24.7310   32.1786 H   0  0  0  0  0  0  0  0  0  0  0  0
   44.0634   26.6126   30.5912 H   0  0  0  0  0  0  0  0  0  0  0  0
   42.0235   27.5686   29.5057 H   0  0  0  0  0  0  0  0  0  0  0  0
   39.8428   26.6080   30.0509 H   0  0  0  0  0  0  0  0  0  0  0  0
  2  1  2  0
  3  2  1  0
  4  3  2  0
  4  5  1  0
  5  6  2  0
  6  1  1  0
  7  3  1  0
  7  8  1  0
  9  8  1  0
 10  9  1  0
 11 12  1  0
 11 10  1  0
 12  7  1  0
 13 12  1  0
 14 13  2  0
 15 14  1  0
 16 17  1  0
 16 15  2  0
 17 18  2  0
 18 13  1  0
 19 18  1  0
 19 20  2  0
 21 20  1  0
 22 21  2  0
 23 24  2  0
 23 22  1  0
 24 19  1  0
  1 25  1  0
  2 26  1  0
  5 27  1  0
  8 28  1  0
  8 29  1  0
  9 30  1  0
  9 31  1  0
 11 32  1  0
 11 33  1  0
 12 34  1  6
 14 35  1  0
 15 36  1  0
 16 37  1  0
 17 38  1  0
 20 39  1  0
 21 40  1  0
 22 41  1  0
 23 42  1  0
 24 43  1  0
M  ISO  8  25  14  26  14  27  14  28  13  29  13  30  13  31  13  32  13
M  ISO  8  33  13  34  13  35  14  36  14  37  14  38  14  39  14  40  14
M  ISO  3  41  14  42  14  43  14
M  END
>  <minimizedAffinity>  (1) 
-4.43112278

>  <minimizedRMSD>  (1) 
0.842463732

$$$$
