
     RDKit          3D

 45 47  0  0  1  0  0  0  0  0999 V2000
   38.5090   22.5580   36.1960 C   0  0  0  0  0  0  0  0  0  0  0  0
   38.1130   23.8300   35.7610 C   0  0  0  0  0  0  0  0  0  0  0  0
   39.0370   24.6790   35.2420 C   0  0  0  0  0  0  0  0  0  0  0  0
   40.2800   24.1800   35.2040 N   0  0  0  0  0  0  0  0  0  0  0  0
   40.7030   23.0040   35.5940 C   0  0  0  0  0  0  0  0  0  0  0  0
   39.7950   22.1710   36.1040 N   0  0  0  0  0  0  0  0  0  0  0  0
   38.8580   25.9690   34.7500 N   0  0  0  0  0  0  0  0  0  0  0  0
   38.9340   27.1840   35.5810 C   0  0  0  0  0  0  0  0  0  0  0  0
   37.6340   27.9140   35.5370 C   0  0  0  0  0  0  0  0  0  0  0  0
   36.8340   27.3740   34.5230 O   0  0  0  0  0  0  0  0  0  0  0  0
   37.5140   27.3790   33.3210 C   0  0  0  0  0  0  0  0  0  0  0  0
   38.6010   26.3380   33.3300 C   0  0  2  0  0  0  0  0  0  0  0  0
   38.3430   25.2250   32.4470 C   0  0  0  0  0  0  0  0  0  0  0  0
   37.0860   24.5520   32.5310 C   0  0  0  0  0  0  0  0  0  0  0  0
   36.7010   23.4940   31.7220 C   0  0  0  0  0  0  0  0  0  0  0  0
   37.5900   23.0640   30.7830 C   0  0  0  0  0  0  0  0  0  0  0  0
   38.8120   23.6750   30.6550 C   0  0  0  0  0  0  0  0  0  0  0  0
   39.1880   24.7450   31.4690 C   0  0  0  0  0  0  0  0  0  0  0  0
   40.3880   25.4170   31.1220 C   0  0  0  0  0  0  0  0  0  0  0  0
   40.2040   26.8950   31.6150 C   0  0  0  0  0  0  0  0  0  0  0  0
   41.2310   25.5360   30.0210 C   0  0  0  0  0  0  0  0  0  0  0  0
   41.3850   24.9060   32.2380 C   0  0  0  0  0  0  0  0  0  0  0  0
   37.7617   21.8691   36.6167 H   0  0  0  0  0  0  0  0  0  0  0  0
   37.0601   24.1388   35.8395 H   0  0  0  0  0  0  0  0  0  0  0  0
   41.7608   22.7157   35.5049 H   0  0  0  0  0  0  0  0  0  0  0  0
   39.1580   26.9012   36.6202 H   0  0  0  0  0  0  0  0  0  0  0  0
   39.7288   27.8380   35.1928 H   0  0  0  0  0  0  0  0  0  0  0  0
   37.1211   27.8096   36.5045 H   0  0  0  0  0  0  0  0  0  0  0  0
   37.8166   28.9796   35.3341 H   0  0  0  0  0  0  0  0  0  0  0  0
   37.9629   28.3706   33.1624 H   0  0  0  0  0  0  0  0  0  0  0  0
   36.8072   27.1505   32.5097 H   0  0  0  0  0  0  0  0  0  0  0  0
   39.5260   26.7532   32.9035 H   0  0  0  0  0  0  0  0  0  0  0  0
   36.3718   24.8982   33.2926 H   0  0  0  0  0  0  0  0  0  0  0  0
   35.7149   23.0195   31.8339 H   0  0  0  0  0  0  0  0  0  0  0  0
   37.3268   22.2231   30.1245 H   0  0  0  0  0  0  0  0  0  0  0  0
   39.5143   23.3118   29.8903 H   0  0  0  0  0  0  0  0  0  0  0  0
   40.2013   26.9170   32.7148 H   0  0  0  0  0  0  0  0  0  0  0  0
   41.0321   27.5131   31.2379 H   0  0  0  0  0  0  0  0  0  0  0  0
   39.2496   27.2912   31.2379 H   0  0  0  0  0  0  0  0  0  0  0  0
   42.2655   25.6820   30.3653 H   0  0  0  0  0  0  0  0  0  0  0  0
   41.1724   24.6207   29.4137 H   0  0  0  0  0  0  0  0  0  0  0  0
   40.9214   26.3993   29.4137 H   0  0  0  0  0  0  0  0  0  0  0  0
   40.9648   25.1214   33.2315 H   0  0  0  0  0  0  0  0  0  0  0  0
   41.5322   23.8213   32.1294 H   0  0  0  0  0  0  0  0  0  0  0  0
   42.3515   25.4199   32.1294 H   0  0  0  0  0  0  0  0  0  0  0  0
  2  1  2  0
  3  2  1  0
  4  3  2  0
  4  5  1  0
  5  6  2  0
  6  1  1  0
  7  3  1  0
  7  8  1  0
  9  8  1  0
 10  9  1  0
 11 12  1  0
 11 10  1  0
 12  7  1  0
 13 14  2  0
 13 12  1  0
 15 14  1  0
 16 15  2  0
 17 16  1  0
 17 18  2  0
 18 13  1  0
 19 18  1  0
 19 20  1  0
 19 22  1  0
 21 19  1  0
  1 23  1  0
  2 24  1  0
  5 25  1  0
  8 26  1  0
  8 27  1  0
  9 28  1  0
  9 29  1  0
 11 30  1  0
 11 31  1  0
 12 32  1  6
 14 33  1  0
 15 34  1  0
 16 35  1  0
 17 36  1  0
 20 37  1  0
 20 38  1  0
 20 39  1  0
 21 40  1  0
 21 41  1  0
 21 42  1  0
 22 43  1  0
 22 44  1  0
 22 45  1  0
M  ISO  8  23  14  24  14  25  14  26  13  27  13  28  13  29  13  30  13
M  ISO  8  31  13  32  13  33  14  34  14  35  14  36  14  37   8  38   8
M  ISO  7  39   8  40   8  41   8  42   8  43   8  44   8  45   8
M  END
>  <minimizedAffinity>  (1) 
-4.41299057

>  <minimizedRMSD>  (1) 
0.638202608

$$$$
