
     RDKit          3D

 45 48  0  0  1  0  0  0  0  0999 V2000
   38.5030   22.5440   36.2720 C   0  0  0  0  0  0  0  0  0  0  0  0
   38.1130   23.8120   35.8290 C   0  0  0  0  0  0  0  0  0  0  0  0
   39.0230   24.6260   35.2280 C   0  0  0  0  0  0  0  0  0  0  0  0
   40.3080   24.1460   35.0840 N   0  0  0  0  0  0  0  0  0  0  0  0
   40.6630   22.9270   35.5140 C   0  0  0  0  0  0  0  0  0  0  0  0
   39.7720   22.1260   36.1050 N   0  0  0  0  0  0  0  0  0  0  0  0
   38.8330   25.9130   34.7270 N   0  0  0  0  0  0  0  0  0  0  0  0
   38.9860   27.1440   35.5220 C   0  0  0  0  0  0  0  0  0  0  0  0
   37.6980   27.9000   35.5500 C   0  0  0  0  0  0  0  0  0  0  0  0
   36.8280   27.3770   34.5790 O   0  0  0  0  0  0  0  0  0  0  0  0
   37.4650   27.3520   33.3380 C   0  0  0  0  0  0  0  0  0  0  0  0
   38.4830   26.2530   33.3300 C   0  0  2  0  0  0  0  0  0  0  0  0
   38.1380   25.1220   32.4810 C   0  0  0  0  0  0  0  0  0  0  0  0
   36.8310   24.5800   32.5410 C   0  0  0  0  0  0  0  0  0  0  0  0
   36.3810   23.5410   31.7630 C   0  0  0  0  0  0  0  0  0  0  0  0
   37.2640   22.9820   30.8600 C   0  0  0  0  0  0  0  0  0  0  0  0
   38.5560   23.4660   30.7510 C   0  0  0  0  0  0  0  0  0  0  0  0
   38.9500   24.5080   31.5520 C   0  0  0  0  0  0  0  0  0  0  0  0
   40.2920   24.9320   31.3530 N   0  0  0  0  0  0  0  0  0  0  0  0
   41.6030   24.6360   31.9450 C   0  0  0  0  0  0  0  0  0  0  0  0
   42.4020   25.9460   31.7770 C   0  0  0  0  0  0  0  0  0  0  0  0
   42.0890   26.0990   30.2730 C   0  0  0  0  0  0  0  0  0  0  0  0
   40.6020   25.9750   30.3530 C   0  0  0  0  0  0  0  0  0  0  0  0
   37.7694   21.8849   36.7593 H   0  0  0  0  0  0  0  0  0  0  0  0
   37.0751   24.1498   35.9658 H   0  0  0  0  0  0  0  0  0  0  0  0
   41.6989   22.5826   35.3788 H   0  0  0  0  0  0  0  0  0  0  0  0
   39.2753   26.8798   36.5499 H   0  0  0  0  0  0  0  0  0  0  0  0
   39.7634   27.7738   35.0647 H   0  0  0  0  0  0  0  0  0  0  0  0
   37.2379   27.8042   36.5446 H   0  0  0  0  0  0  0  0  0  0  0  0
   37.8908   28.9617   35.3365 H   0  0  0  0  0  0  0  0  0  0  0  0
   36.7225   27.1717   32.5467 H   0  0  0  0  0  0  0  0  0  0  0  0
   37.9610   28.3171   33.1572 H   0  0  0  0  0  0  0  0  0  0  0  0
   39.3961   26.6197   32.8383 H   0  0  0  0  0  0  0  0  0  0  0  0
   36.1267   25.0220   33.2611 H   0  0  0  0  0  0  0  0  0  0  0  0
   35.3509   23.1665   31.8562 H   0  0  0  0  0  0  0  0  0  0  0  0
   36.9381   22.1464   30.2231 H   0  0  0  0  0  0  0  0  0  0  0  0
   39.2584   23.0208   30.0310 H   0  0  0  0  0  0  0  0  0  0  0  0
   41.5004   24.3759   33.0089 H   0  0  0  0  0  0  0  0  0  0  0  0
   42.0968   23.7781   31.4651 H   0  0  0  0  0  0  0  0  0  0  0  0
   42.0047   26.7724   32.3846 H   0  0  0  0  0  0  0  0  0  0  0  0
   43.4587   25.9443   32.0828 H   0  0  0  0  0  0  0  0  0  0  0  0
   42.5415   25.2979   29.6702 H   0  0  0  0  0  0  0  0  0  0  0  0
   42.4709   27.0116   29.7921 H   0  0  0  0  0  0  0  0  0  0  0  0
   40.1621   26.9343   30.6633 H   0  0  0  0  0  0  0  0  0  0  0  0
   40.1843   25.7048   29.3719 H   0  0  0  0  0  0  0  0  0  0  0  0
  2  1  2  0
  3  2  1  0
  4  3  2  0
  4  5  1  0
  5  6  2  0
  6  1  1  0
  7  3  1  0
  7  8  1  0
  8  9  1  0
 10  9  1  0
 11 10  1  0
 12 11  1  0
 12  7  1  0
 13 14  2  0
 13 12  1  0
 15 14  1  0
 16 15  2  0
 17 16  1  0
 17 18  2  0
 18 13  1  0
 19 18  1  0
 19 20  1  0
 21 20  1  0
 22 23  1  0
 22 21  1  0
 23 19  1  0
  1 24  1  0
  2 25  1  0
  5 26  1  0
  8 27  1  0
  8 28  1  0
  9 29  1  0
  9 30  1  0
 11 31  1  0
 11 32  1  0
 12 33  1  6
 14 34  1  0
 15 35  1  0
 16 36  1  0
 17 37  1  0
 20 38  1  0
 20 39  1  0
 21 40  1  0
 21 41  1  0
 22 42  1  0
 22 43  1  0
 23 44  1  0
 23 45  1  0
M  ISO  8  24  14  25  14  26  14  27  13  28  13  29  13  30  13  31  13
M  ISO  8  32  13  33  13  34  14  35  14  36  14  37  14  38  13  39  13
M  ISO  6  40  13  41  13  42  13  43  13  44  13  45  13
M  END
>  <minimizedAffinity>  (1) 
-4.36759329

>  <minimizedRMSD>  (1) 
0.708758593

$$$$
