
     RDKit          3D

 40 43  0  0  1  0  0  0  0  0999 V2000
   38.4950   22.5510   36.2700 C   0  0  0  0  0  0  0  0  0  0  0  0
   38.0950   23.8200   35.8340 C   0  0  0  0  0  0  0  0  0  0  0  0
   39.0080   24.6310   35.2320 C   0  0  0  0  0  0  0  0  0  0  0  0
   40.2740   24.1430   35.0920 N   0  0  0  0  0  0  0  0  0  0  0  0
   40.6580   22.9380   35.5050 C   0  0  0  0  0  0  0  0  0  0  0  0
   39.7720   22.1310   36.0980 N   0  0  0  0  0  0  0  0  0  0  0  0
   38.8180   25.9190   34.7300 N   0  0  0  0  0  0  0  0  0  0  0  0
   38.9750   27.1520   35.5210 C   0  0  0  0  0  0  0  0  0  0  0  0
   37.6840   27.9030   35.5610 C   0  0  0  0  0  0  0  0  0  0  0  0
   36.8090   27.3900   34.5930 O   0  0  0  0  0  0  0  0  0  0  0  0
   37.4380   27.3630   33.3510 C   0  0  0  0  0  0  0  0  0  0  0  0
   38.4640   26.2620   33.3340 C   0  0  2  0  0  0  0  0  0  0  0  0
   38.1280   25.1330   32.4840 C   0  0  0  0  0  0  0  0  0  0  0  0
   36.8230   24.5830   32.5460 C   0  0  0  0  0  0  0  0  0  0  0  0
   36.3650   23.5390   31.7740 C   0  0  0  0  0  0  0  0  0  0  0  0
   37.2350   22.9870   30.8750 C   0  0  0  0  0  0  0  0  0  0  0  0
   38.5030   23.4680   30.7600 C   0  0  0  0  0  0  0  0  0  0  0  0
   38.8930   24.5090   31.5580 C   0  0  0  0  0  0  0  0  0  0  0  0
   40.2370   24.9550   31.3040 C   0  0  0  0  0  0  0  0  0  0  0  0
   40.6550   25.8900   30.3990 C   0  0  0  0  0  0  0  0  0  0  0  0
   41.8980   26.2830   30.1710 C   0  0  0  0  0  0  0  0  0  0  0  0
   42.8640   25.6020   31.0120 C   0  0  0  0  0  0  0  0  0  0  0  0
   41.9230   24.5230   31.9900 S   0  0  0  0  0  0  0  0  0  0  0  0
   37.7650   21.8879   36.7573 H   0  0  0  0  0  0  0  0  0  0  0  0
   37.0576   24.1570   35.9759 H   0  0  0  0  0  0  0  0  0  0  0  0
   41.6972   22.6079   35.3596 H   0  0  0  0  0  0  0  0  0  0  0  0
   39.2761   26.8909   36.5462 H   0  0  0  0  0  0  0  0  0  0  0  0
   39.7453   27.7838   35.0546 H   0  0  0  0  0  0  0  0  0  0  0  0
   37.2300   27.7970   36.5573 H   0  0  0  0  0  0  0  0  0  0  0  0
   37.8744   28.9663   35.3532 H   0  0  0  0  0  0  0  0  0  0  0  0
   36.6905   27.1802   32.5650 H   0  0  0  0  0  0  0  0  0  0  0  0
   37.9322   28.3286   33.1684 H   0  0  0  0  0  0  0  0  0  0  0  0
   39.3715   26.6355   32.8370 H   0  0  0  0  0  0  0  0  0  0  0  0
   36.1207   25.0252   33.2680 H   0  0  0  0  0  0  0  0  0  0  0  0
   35.3365   23.1626   31.8767 H   0  0  0  0  0  0  0  0  0  0  0  0
   36.9082   22.1495   30.2412 H   0  0  0  0  0  0  0  0  0  0  0  0
   39.2039   23.0265   30.0363 H   0  0  0  0  0  0  0  0  0  0  0  0
   39.8716   26.3688   29.7931 H   0  0  0  0  0  0  0  0  0  0  0  0
   42.1693   27.0439   29.4244 H   0  0  0  0  0  0  0  0  0  0  0  0
   43.9552   25.7400   31.0262 H   0  0  0  0  0  0  0  0  0  0  0  0
  2  1  2  0
  3  2  1  0
  4  3  2  0
  4  5  1  0
  5  6  2  0
  6  1  1  0
  7  3  1  0
  7  8  1  0
  8  9  1  0
 10  9  1  0
 11 10  1  0
 12 11  1  0
 12  7  1  0
 13 14  2  0
 13 12  1  0
 15 14  1  0
 16 15  2  0
 17 16  1  0
 17 18  2  0
 18 13  1  0
 19 18  1  0
 19 23  1  0
 20 19  2  0
 21 20  1  0
 21 22  2  0
 22 23  1  0
  1 24  1  0
  2 25  1  0
  5 26  1  0
  8 27  1  0
  8 28  1  0
  9 29  1  0
  9 30  1  0
 11 31  1  0
 11 32  1  0
 12 33  1  6
 14 34  1  0
 15 35  1  0
 16 36  1  0
 17 37  1  0
 20 38  1  0
 21 39  1  0
 22 40  1  0
M  ISO  8  24  14  25  14  26  14  27  13  28  13  29  13  30  13  31  13
M  ISO  8  32  13  33  13  34  14  35  14  36  14  37  14  38  14  39  14
M  ISO  1  40  14
M  END
>  <minimizedAffinity>  (1) 
-4.35400772

>  <minimizedRMSD>  (1) 
0.567742109

$$$$
