
     RDKit          3D

 36 38  0  0  1  0  0  0  0  0999 V2000
   38.5090   22.5670   36.2390 C   0  0  0  0  0  0  0  0  0  0  0  0
   38.1200   23.8320   35.7880 C   0  0  0  0  0  0  0  0  0  0  0  0
   39.0400   24.6790   35.2580 C   0  0  0  0  0  0  0  0  0  0  0  0
   40.2930   24.1880   35.2200 N   0  0  0  0  0  0  0  0  0  0  0  0
   40.7010   23.0070   35.6300 C   0  0  0  0  0  0  0  0  0  0  0  0
   39.7900   22.1800   36.1500 N   0  0  0  0  0  0  0  0  0  0  0  0
   38.8570   25.9640   34.7560 N   0  0  0  0  0  0  0  0  0  0  0  0
   38.9320   27.1870   35.5760 C   0  0  0  0  0  0  0  0  0  0  0  0
   37.6220   27.9050   35.5370 C   0  0  0  0  0  0  0  0  0  0  0  0
   36.8270   27.3720   34.5090 O   0  0  0  0  0  0  0  0  0  0  0  0
   37.5330   27.3760   33.3100 C   0  0  0  0  0  0  0  0  0  0  0  0
   38.5950   26.3190   33.3410 C   0  0  2  0  0  0  0  0  0  0  0  0
   38.3240   25.1960   32.4640 C   0  0  0  0  0  0  0  0  0  0  0  0
   37.0480   24.5640   32.4980 C   0  0  0  0  0  0  0  0  0  0  0  0
   36.6630   23.5140   31.6910 C   0  0  0  0  0  0  0  0  0  0  0  0
   37.5990   23.0410   30.7810 C   0  0  0  0  0  0  0  0  0  0  0  0
   38.8510   23.6110   30.6980 C   0  0  0  0  0  0  0  0  0  0  0  0
   39.1900   24.6710   31.5280 C   0  0  0  0  0  0  0  0  0  0  0  0
   40.4420   25.3180   31.2710 C   0  0  0  0  0  0  0  0  0  0  0  0
   40.2730   26.6970   31.4140 F   0  0  0  0  0  0  0  0  0  0  0  0
   41.1820   25.0440   32.4900 F   0  0  0  0  0  0  0  0  0  0  0  0
   41.3000   25.1050   30.3460 F   0  0  0  0  0  0  0  0  0  0  0  0
   37.7603   21.8855   36.6691 H   0  0  0  0  0  0  0  0  0  0  0  0
   37.0671   24.1417   35.8626 H   0  0  0  0  0  0  0  0  0  0  0  0
   41.7570   22.7101   35.5475 H   0  0  0  0  0  0  0  0  0  0  0  0
   39.1687   26.9156   36.6154 H   0  0  0  0  0  0  0  0  0  0  0  0
   39.7180   27.8444   35.1759 H   0  0  0  0  0  0  0  0  0  0  0  0
   37.1068   27.7808   36.5009 H   0  0  0  0  0  0  0  0  0  0  0  0
   37.7954   28.9749   35.3495 H   0  0  0  0  0  0  0  0  0  0  0  0
   38.0021   28.3605   33.1660 H   0  0  0  0  0  0  0  0  0  0  0  0
   36.8404   27.1698   32.4807 H   0  0  0  0  0  0  0  0  0  0  0  0
   39.5266   26.7189   32.9141 H   0  0  0  0  0  0  0  0  0  0  0  0
   36.3131   24.9425   33.2237 H   0  0  0  0  0  0  0  0  0  0  0  0
   35.6589   23.0709   31.7650 H   0  0  0  0  0  0  0  0  0  0  0  0
   37.3383   22.2021   30.1190 H   0  0  0  0  0  0  0  0  0  0  0  0
   39.5829   23.2255   29.9730 H   0  0  0  0  0  0  0  0  0  0  0  0
  2  1  2  0
  3  2  1  0
  4  3  2  0
  4  5  1  0
  5  6  2  0
  6  1  1  0
  7  3  1  0
  7  8  1  0
  9  8  1  0
 10  9  1  0
 11 12  1  0
 11 10  1  0
 12  7  1  0
 13 14  2  0
 13 12  1  0
 15 14  1  0
 16 15  2  0
 17 16  1  0
 17 18  2  0
 18 13  1  0
 19 20  1  0
 19 18  1  0
 19 21  1  0
 22 19  1  0
  1 23  1  0
  2 24  1  0
  5 25  1  0
  8 26  1  0
  8 27  1  0
  9 28  1  0
  9 29  1  0
 11 30  1  0
 11 31  1  0
 12 32  1  6
 14 33  1  0
 15 34  1  0
 16 35  1  0
 17 36  1  0
M  ISO  8  23  14  24  14  25  14  26  13  27  13  28  13  29  13  30  13
M  ISO  6  31  13  32  13  33  14  34  14  35  14  36  14
M  END
>  <minimizedAffinity>  (1) 
-4.33401775

>  <minimizedRMSD>  (1) 
0.553022385

$$$$
