
     RDKit          3D

 34 36  0  0  1  0  0  0  0  0999 V2000
   38.4890   22.5650   36.3870 C   0  0  0  0  0  0  0  0  0  0  0  0
   38.0970   23.8200   35.9160 C   0  0  0  0  0  0  0  0  0  0  0  0
   39.0000   24.6010   35.2620 C   0  0  0  0  0  0  0  0  0  0  0  0
   40.2760   24.1060   35.0940 N   0  0  0  0  0  0  0  0  0  0  0  0
   40.6390   22.9010   35.5500 C   0  0  0  0  0  0  0  0  0  0  0  0
   39.7480   22.1250   36.1980 N   0  0  0  0  0  0  0  0  0  0  0  0
   38.8080   25.8760   34.7260 N   0  0  0  0  0  0  0  0  0  0  0  0
   39.0030   27.1280   35.4770 C   0  0  0  0  0  0  0  0  0  0  0  0
   37.7320   27.9070   35.5120 C   0  0  0  0  0  0  0  0  0  0  0  0
   36.8130   27.3640   34.5970 O   0  0  0  0  0  0  0  0  0  0  0  0
   37.4190   27.2910   33.3380 C   0  0  0  0  0  0  0  0  0  0  0  0
   38.4160   26.1780   33.3340 C   0  0  2  0  0  0  0  0  0  0  0  0
   38.0340   25.0230   32.5320 C   0  0  0  0  0  0  0  0  0  0  0  0
   36.6640   24.7110   32.3640 C   0  0  0  0  0  0  0  0  0  0  0  0
   36.1840   23.6750   31.6000 C   0  0  0  0  0  0  0  0  0  0  0  0
   37.1150   22.8780   30.9450 C   0  0  0  0  0  0  0  0  0  0  0  0
   38.4700   23.1300   31.0650 C   0  0  0  0  0  0  0  0  0  0  0  0
   38.8700   24.1790   31.8420 C   0  0  0  0  0  0  0  0  0  0  0  0
   40.2290   24.4410   31.9670 O   0  0  0  0  0  0  0  0  0  0  0  0
   37.7634   21.9304   36.9169 H   0  0  0  0  0  0  0  0  0  0  0  0
   37.0674   24.1743   36.0722 H   0  0  0  0  0  0  0  0  0  0  0  0
   41.6676   22.5431   35.3953 H   0  0  0  0  0  0  0  0  0  0  0  0
   39.3130   26.8910   36.5054 H   0  0  0  0  0  0  0  0  0  0  0  0
   39.7800   27.7283   34.9812 H   0  0  0  0  0  0  0  0  0  0  0  0
   37.3061   27.8648   36.5253 H   0  0  0  0  0  0  0  0  0  0  0  0
   37.9400   28.9522   35.2395 H   0  0  0  0  0  0  0  0  0  0  0  0
   36.6529   27.1009   32.5719 H   0  0  0  0  0  0  0  0  0  0  0  0
   37.9268   28.2416   33.1176 H   0  0  0  0  0  0  0  0  0  0  0  0
   39.3150   26.5195   32.7999 H   0  0  0  0  0  0  0  0  0  0  0  0
   35.9296   25.3444   32.8831 H   0  0  0  0  0  0  0  0  0  0  0  0
   35.1045   23.4838   31.5102 H   0  0  0  0  0  0  0  0  0  0  0  0
   36.7708   22.0376   30.3243 H   0  0  0  0  0  0  0  0  0  0  0  0
   39.2078   22.5000   30.5466 H   0  0  0  0  0  0  0  0  0  0  0  0
   40.5379   25.1973   32.5261 H   0  0  0  0  0  0  0  0  0  0  0  0
  2  1  2  0
  3  2  1  0
  4  3  2  0
  4  5  1  0
  5  6  2  0
  6  1  1  0
  7  3  1  0
  7  8  1  0
  8  9  1  0
 10  9  1  0
 11 10  1  0
 12 11  1  0
 12  7  1  0
 13 12  1  0
 14 13  2  0
 15 14  1  0
 16 17  1  0
 16 15  2  0
 17 18  2  0
 18 19  1  0
 18 13  1  0
  1 20  1  0
  2 21  1  0
  5 22  1  0
  8 23  1  0
  8 24  1  0
  9 25  1  0
  9 26  1  0
 11 27  1  0
 11 28  1  0
 12 29  1  6
 14 30  1  0
 15 31  1  0
 16 32  1  0
 17 33  1  0
 19 34  1  0
M  ISO  8  20  14  21  14  22  14  23  13  24  13  25  13  26  13  27  13
M  ISO  7  28  13  29  13  30  14  31  14  32  14  33  14  34   3
M  END
>  <minimizedAffinity>  (1) 
-4.30890417

>  <minimizedRMSD>  (1) 
0.0563215539

$$$$
