
     RDKit          3D

 34 36  0  0  1  0  0  0  0  0999 V2000
   38.4990   22.5550   36.3870 C   0  0  0  0  0  0  0  0  0  0  0  0
   38.1090   23.8110   35.9110 C   0  0  0  0  0  0  0  0  0  0  0  0
   39.0260   24.6080   35.2960 C   0  0  0  0  0  0  0  0  0  0  0  0
   40.2870   24.1110   35.1870 N   0  0  0  0  0  0  0  0  0  0  0  0
   40.6650   22.9190   35.6360 C   0  0  0  0  0  0  0  0  0  0  0  0
   39.7690   22.1320   36.2410 N   0  0  0  0  0  0  0  0  0  0  0  0
   38.8390   25.8820   34.7600 N   0  0  0  0  0  0  0  0  0  0  0  0
   38.9910   27.1280   35.5280 C   0  0  0  0  0  0  0  0  0  0  0  0
   37.7190   27.9000   35.5110 C   0  0  0  0  0  0  0  0  0  0  0  0
   36.8350   27.3450   34.5680 O   0  0  0  0  0  0  0  0  0  0  0  0
   37.4850   27.2880   33.3300 C   0  0  0  0  0  0  0  0  0  0  0  0
   38.4970   26.1880   33.3560 C   0  0  2  0  0  0  0  0  0  0  0  0
   38.1550   25.0350   32.5320 C   0  0  0  0  0  0  0  0  0  0  0  0
   36.8170   24.5740   32.4900 C   0  0  0  0  0  0  0  0  0  0  0  0
   36.3770   23.5240   31.7170 C   0  0  0  0  0  0  0  0  0  0  0  0
   37.3180   22.8730   30.9240 C   0  0  0  0  0  0  0  0  0  0  0  0
   38.6430   23.2790   30.9210 C   0  0  0  0  0  0  0  0  0  0  0  0
   38.9960   24.3290   31.7130 C   0  0  0  0  0  0  0  0  0  0  0  0
   40.7080   24.8300   31.6210 S   0  0  0  0  0  0  0  0  0  0  0  0
   37.7622   21.9074   36.8847 H   0  0  0  0  0  0  0  0  0  0  0  0
   37.0703   24.1521   36.0324 H   0  0  0  0  0  0  0  0  0  0  0  0
   41.7049   22.5828   35.5113 H   0  0  0  0  0  0  0  0  0  0  0  0
   39.2543   26.8842   36.5678 H   0  0  0  0  0  0  0  0  0  0  0  0
   39.7863   27.7361   35.0722 H   0  0  0  0  0  0  0  0  0  0  0  0
   37.2574   27.8645   36.5088 H   0  0  0  0  0  0  0  0  0  0  0  0
   37.9323   28.9438   35.2371 H   0  0  0  0  0  0  0  0  0  0  0  0
   37.9883   28.2463   33.1343 H   0  0  0  0  0  0  0  0  0  0  0  0
   36.7496   27.0947   32.5352 H   0  0  0  0  0  0  0  0  0  0  0  0
   39.4132   26.5413   32.8603 H   0  0  0  0  0  0  0  0  0  0  0  0
   36.0776   25.0912   33.1191 H   0  0  0  0  0  0  0  0  0  0  0  0
   35.3225   23.2111   31.7253 H   0  0  0  0  0  0  0  0  0  0  0  0
   37.0065   22.0274   30.2931 H   0  0  0  0  0  0  0  0  0  0  0  0
   39.3893   22.7670   30.2958 H   0  0  0  0  0  0  0  0  0  0  0  0
   41.2095   24.9768   32.8874 H   0  0  0  0  0  0  0  0  0  0  0  0
  2  1  2  0
  3  2  1  0
  4  3  2  0
  4  5  1  0
  5  6  2  0
  6  1  1  0
  7  3  1  0
  7  8  1  0
  9  8  1  0
 10  9  1  0
 11 12  1  0
 11 10  1  0
 12  7  1  0
 13 12  1  0
 14 13  2  0
 15 14  1  0
 16 15  2  0
 17 16  1  0
 17 18  2  0
 18 13  1  0
 19 18  1  0
  1 20  1  0
  2 21  1  0
  5 22  1  0
  8 23  1  0
  8 24  1  0
  9 25  1  0
  9 26  1  0
 11 27  1  0
 11 28  1  0
 12 29  1  6
 14 30  1  0
 15 31  1  0
 16 32  1  0
 17 33  1  0
 19 34  1  0
M  ISO  8  20  14  21  14  22  14  23  13  24  13  25  13  26  13  27  13
M  ISO  7  28  13  29  13  30  14  31  14  32  14  33  14  34  11
M  END
>  <minimizedAffinity>  (1) 
-4.26549435

>  <minimizedRMSD>  (1) 
0.182846695

$$$$
