
     RDKit          3D

 29 31  0  0  0  0  0  0  0  0999 V2000
   37.7630   25.1630   34.1840 C   0  0  0  0  0  0  0  0  0  0  0  0
   38.6500   24.2020   34.8370 C   0  0  0  0  0  0  0  0  0  0  0  0
   39.5230   23.4110   34.0810 C   0  0  0  0  0  0  0  0  0  0  0  0
   40.4080   22.4660   34.5090 C   0  0  0  0  0  0  0  0  0  0  0  0
   40.4360   22.2750   35.8810 C   0  0  0  0  0  0  0  0  0  0  0  0
   39.6090   23.0100   36.7200 C   0  0  0  0  0  0  0  0  0  0  0  0
   39.6490   22.8120   38.0880 C   0  0  0  0  0  0  0  0  0  0  0  0
   38.8330   23.5430   38.9130 C   0  0  0  0  0  0  0  0  0  0  0  0
   37.9740   24.4740   38.3780 C   0  0  0  0  0  0  0  0  0  0  0  0
   37.8860   24.7190   37.0280 C   0  0  0  0  0  0  0  0  0  0  0  0
   38.7290   23.9590   36.2150 C   0  0  0  0  0  0  0  0  0  0  0  0
   40.1680   27.3030   32.1950 C   0  0  0  0  0  0  0  0  0  0  0  0
   39.5490   26.6940   33.3140 C   0  0  0  0  0  0  0  0  0  0  0  0
   38.4790   25.8340   33.0500 C   0  0  0  0  0  0  0  0  0  0  0  0
   38.0920   25.6250   31.7650 N   0  0  0  0  0  0  0  0  0  0  0  0
   38.7220   26.2360   30.7290 C   0  0  0  0  0  0  0  0  0  0  0  0
   39.7450   27.0620   30.9480 N   0  0  0  0  0  0  0  0  0  0  0  0
   36.8785   24.6368   33.7958 H   0  0  0  0  0  0  0  0  0  0  0  0
   37.4534   25.9236   34.9159 H   0  0  0  0  0  0  0  0  0  0  0  0
   39.4907   23.5739   32.9936 H   0  0  0  0  0  0  0  0  0  0  0  0
   41.0499   21.8993   33.8185 H   0  0  0  0  0  0  0  0  0  0  0  0
   41.1226   21.5311   36.3114 H   0  0  0  0  0  0  0  0  0  0  0  0
   40.3364   22.0670   38.5152 H   0  0  0  0  0  0  0  0  0  0  0  0
   38.8656   23.3848   40.0011 H   0  0  0  0  0  0  0  0  0  0  0  0
   37.3291   25.0478   39.0599 H   0  0  0  0  0  0  0  0  0  0  0  0
   37.1943   25.4674   36.6141 H   0  0  0  0  0  0  0  0  0  0  0  0
   41.0138   27.9881   32.3539 H   0  0  0  0  0  0  0  0  0  0  0  0
   39.8934   26.8882   34.3405 H   0  0  0  0  0  0  0  0  0  0  0  0
   38.3849   26.0475   29.6990 H   0  0  0  0  0  0  0  0  0  0  0  0
  1  2  1  0
  2 11  2  0
  3  4  2  0
  3  2  1  0
  4  5  1  0
  5  6  2  0
  6  7  1  0
  7  8  2  0
  9  8  1  0
 10  9  2  0
 11  6  1  0
 11 10  1  0
 12 13  2  0
 14 13  1  0
 14  1  1  0
 15 14  2  0
 16 17  2  0
 16 15  1  0
 17 12  1  0
  1 18  1  0
  1 19  1  0
  3 20  1  0
  4 21  1  0
  5 22  1  0
  7 23  1  0
  8 24  1  0
  9 25  1  0
 10 26  1  0
 12 27  1  0
 13 28  1  0
 16 29  1  0
M  ISO  8  18   8  19   8  20  14  21  14  22  14  23  14  24  14  25  14
M  ISO  4  26  14  27  14  28  14  29  14
M  END
>  <minimizedAffinity>  (1) 
-4.37874508

>  <minimizedRMSD>  (1) 
5.87356138

$$$$
