
     RDKit          3D

 24 26  0  0  0  0  0  0  0  0999 V2000
   39.8520   23.1980   35.4880 C   0  0  0  0  0  0  0  0  0  0  0  0
   38.9420   22.5870   34.5430 N   0  0  0  0  0  0  0  0  0  0  0  0
   39.1780   22.5880   33.2110 C   0  0  0  0  0  0  0  0  0  0  0  0
   38.1860   21.9600   32.5600 N   0  0  0  0  0  0  0  0  0  0  0  0
   37.2780   21.5370   33.4800 C   0  0  0  0  0  0  0  0  0  0  0  0
   36.0780   20.8550   33.4690 C   0  0  0  0  0  0  0  0  0  0  0  0
   35.4270   20.6000   34.6140 N   0  0  0  0  0  0  0  0  0  0  0  0
   35.9260   21.0040   35.8140 C   0  0  0  0  0  0  0  0  0  0  0  0
   37.1040   21.6730   35.8220 N   0  0  0  0  0  0  0  0  0  0  0  0
   37.7840   21.9470   34.7100 C   0  0  0  0  0  0  0  0  0  0  0  0
   40.0200   26.9270   34.9010 C   0  0  0  0  0  0  0  0  0  0  0  0
   40.3530   25.5700   34.8460 C   0  0  0  0  0  0  0  0  0  0  0  0
   39.5290   24.6520   35.5240 C   0  0  0  0  0  0  0  0  0  0  0  0
   38.4490   25.1390   36.1960 N   0  0  0  0  0  0  0  0  0  0  0  0
   38.1570   26.4560   36.2280 C   0  0  0  0  0  0  0  0  0  0  0  0
   38.9420   27.3380   35.5810 N   0  0  0  0  0  0  0  0  0  0  0  0
   40.8919   23.0498   35.1614 H   0  0  0  0  0  0  0  0  0  0  0  0
   39.7445   22.7466   36.4854 H   0  0  0  0  0  0  0  0  0  0  0  0
   40.0580   23.0394   32.7295 H   0  0  0  0  0  0  0  0  0  0  0  0
   35.6516   20.5175   32.5128 H   0  0  0  0  0  0  0  0  0  0  0  0
   35.3884   20.7934   36.7503 H   0  0  0  0  0  0  0  0  0  0  0  0
   40.6495   27.6639   34.3808 H   0  0  0  0  0  0  0  0  0  0  0  0
   41.2367   25.2285   34.2870 H   0  0  0  0  0  0  0  0  0  0  0  0
   37.2760   26.8097   36.7837 H   0  0  0  0  0  0  0  0  0  0  0  0
  1 13  1  0
  2 10  1  0
  2  1  1  0
  3  2  1  0
  4  3  2  0
  4  5  1  0
  5 10  2  0
  6  5  1  0
  6  7  2  0
  7  8  1  0
  8  9  2  0
 10  9  1  0
 11 16  2  0
 12 11  1  0
 12 13  2  0
 13 14  1  0
 14 15  2  0
 16 15  1  0
  1 17  1  0
  1 18  1  0
  3 19  1  0
  6 20  1  0
  8 21  1  0
 11 22  1  0
 12 23  1  0
 15 24  1  0
M  ISO  8  17   8  18   8  19  14  20  14  21  14  22  14  23  14  24  14
M  END
>  <minimizedAffinity>  (1) 
-3.97167301

>  <minimizedRMSD>  (1) 
5.92508125

$$$$
