
     RDKit          3D

 20 21  0  0  0  0  0  0  0  0999 V2000
   40.7450   22.1060   37.5760 C   0  0  0  0  0  0  0  0  0  0  0  0
   39.6680   22.9590   37.8270 C   0  0  0  0  0  0  0  0  0  0  0  0
   38.9810   23.5090   36.7300 C   0  0  0  0  0  0  0  0  0  0  0  0
   39.4270   23.1610   35.4760 N   0  0  0  0  0  0  0  0  0  0  0  0
   40.4680   22.3370   35.2750 C   0  0  0  0  0  0  0  0  0  0  0  0
   41.1230   21.8130   36.3300 N   0  0  0  0  0  0  0  0  0  0  0  0
   37.8210   24.4270   36.9180 C   0  0  0  0  0  0  0  0  0  0  0  0
   37.8890   25.6420   36.0870 C   0  0  0  0  0  0  0  0  0  0  0  0
   37.5100   25.8370   34.7730 C   0  0  0  0  0  0  0  0  0  0  0  0
   37.7800   27.1410   34.4780 N   0  0  0  0  0  0  0  0  0  0  0  0
   38.3050   27.7090   35.5840 C   0  0  0  0  0  0  0  0  0  0  0  0
   38.3760   26.8010   36.5720 N   0  0  0  0  0  0  0  0  0  0  0  0
   41.2929   21.6667   38.4226 H   0  0  0  0  0  0  0  0  0  0  0  0
   39.3645   23.1949   38.8576 H   0  0  0  0  0  0  0  0  0  0  0  0
   40.7856   22.0901   34.2512 H   0  0  0  0  0  0  0  0  0  0  0  0
   36.9008   23.8815   36.6617 H   0  0  0  0  0  0  0  0  0  0  0  0
   37.8352   24.7536   37.9683 H   0  0  0  0  0  0  0  0  0  0  0  0
   37.0751   25.0867   34.0963 H   0  0  0  0  0  0  0  0  0  0  0  0
   38.6265   28.7579   35.6646 H   0  0  0  0  0  0  0  0  0  0  0  0
   38.7360   26.9612   37.5237 H   0  0  0  0  0  0  0  0  0  0  0  0
  1  2  2  0
  3  7  1  0
  3  2  1  0
  4  3  2  0
  5  4  1  0
  5  6  2  0
  6  1  1  0
  8 12  1  0
  8  7  1  0
  9  8  2  0
 10  9  1  0
 10 11  2  0
 11 12  1  0
  1 13  1  0
  2 14  1  0
  5 15  1  0
  7 16  1  0
  7 17  1  0
  9 18  1  0
 11 19  1  0
 12 20  1  0
M  ISO  8  13  14  14  14  15  14  16   8  17   8  18  14  19  14  20   9
M  END
>  <minimizedAffinity>  (1) 
-3.42229152

>  <minimizedRMSD>  (1) 
2.13864923

$$$$
