
     RDKit          3D

 31 33  0  0  0  0  0  0  0  0999 V2000
   37.6830   26.5790   34.4160 C   0  0  0  0  0  0  0  0  0  0  0  0
   37.5820   27.7100   33.6690 C   0  0  0  0  0  0  0  0  0  0  0  0
   37.2130   27.7200   32.3310 C   0  0  0  0  0  0  0  0  0  0  0  0
   36.9480   26.5330   31.7760 N   0  0  0  0  0  0  0  0  0  0  0  0
   37.0350   25.3950   32.4730 C   0  0  0  0  0  0  0  0  0  0  0  0
   37.3960   25.4230   33.7690 N   0  0  0  0  0  0  0  0  0  0  0  0
   36.7750   24.0740   31.9840 N   0  0  0  0  0  0  0  0  0  0  0  0
   37.8160   23.2180   32.1580 C   0  0  0  0  0  0  0  0  0  0  0  0
   37.7300   21.9060   31.7420 C   0  0  0  0  0  0  0  0  0  0  0  0
   36.5380   21.5210   31.1430 C   0  0  0  0  0  0  0  0  0  0  0  0
   36.3100   20.3730   30.7170 O   0  0  0  0  0  0  0  0  0  0  0  0
   35.5100   22.3980   30.9800 N   0  0  0  0  0  0  0  0  0  0  0  0
   35.6300   23.6700   31.3990 C   0  0  0  0  0  0  0  0  0  0  0  0
   34.7310   24.5570   31.2910 O   0  0  0  0  0  0  0  0  0  0  0  0
   38.0760   26.5620   35.8450 C   0  0  0  0  0  0  0  0  0  0  0  0
   38.4100   23.3000   37.7730 C   0  0  0  0  0  0  0  0  0  0  0  0
   37.9210   24.5630   37.3650 C   0  0  0  0  0  0  0  0  0  0  0  0
   38.5550   25.2250   36.3130 C   0  0  0  0  0  0  0  0  0  0  0  0
   39.6330   24.6000   35.7260 N   0  0  0  0  0  0  0  0  0  0  0  0
   40.0660   23.4000   36.1410 C   0  0  0  0  0  0  0  0  0  0  0  0
   39.4530   22.7790   37.1470 N   0  0  0  0  0  0  0  0  0  0  0  0
   37.8055   28.6724   34.1525 H   0  0  0  0  0  0  0  0  0  0  0  0
   37.1423   28.6558   31.7572 H   0  0  0  0  0  0  0  0  0  0  0  0
   38.7392   23.5763   32.6369 H   0  0  0  0  0  0  0  0  0  0  0  0
   38.5631   21.2006   31.8778 H   0  0  0  0  0  0  0  0  0  0  0  0
   34.6359   22.0858   30.5335 H   0  0  0  0  0  0  0  0  0  0  0  0
   38.8841   27.2934   35.9932 H   0  0  0  0  0  0  0  0  0  0  0  0
   37.1789   26.8093   36.4316 H   0  0  0  0  0  0  0  0  0  0  0  0
   37.9292   22.7576   38.6004 H   0  0  0  0  0  0  0  0  0  0  0  0
   37.0546   25.0161   37.8691 H   0  0  0  0  0  0  0  0  0  0  0  0
   40.9293   22.9279   35.6492 H   0  0  0  0  0  0  0  0  0  0  0  0
  1 15  1  0
  2  1  2  0
  3  2  1  0
  4  3  2  0
  4  5  1  0
  5  6  2  0
  6  1  1  0
  7  8  1  0
  7  5  1  0
  9  8  2  0
 10  9  1  0
 11 10  2  0
 12 10  1  0
 12 13  1  0
 13  7  1  0
 14 13  2  0
 15 18  1  0
 17 16  2  0
 18 17  1  0
 19 20  1  0
 19 18  2  0
 20 21  2  0
 21 16  1  0
  2 22  1  0
  3 23  1  0
  8 24  1  0
  9 25  1  0
 12 26  1  0
 15 27  1  0
 15 28  1  0
 16 29  1  0
 17 30  1  0
 20 31  1  0
M  ISO  8  22  14  23  14  24  14  25  14  26   9  27   8  28   8  29  14
M  ISO  2  30  14  31  14
M  END
>  <minimizedAffinity>  (1) 
-5.26702976

>  <minimizedRMSD>  (1) 
6.37066174

$$$$
