
     RDKit          3D

 35 38  0  0  0  0  0  0  0  0999 V2000
   39.8100   26.7280   34.6420 C   0  0  0  0  0  0  0  0  0  0  0  0
   39.8050   27.1420   33.3390 C   0  0  0  0  0  0  0  0  0  0  0  0
   40.9210   27.1280   32.5280 C   0  0  0  0  0  0  0  0  0  0  0  0
   42.0580   26.6800   33.0700 N   0  0  0  0  0  0  0  0  0  0  0  0
   42.1020   26.2620   34.3530 C   0  0  0  0  0  0  0  0  0  0  0  0
   41.0180   26.2840   35.1190 N   0  0  0  0  0  0  0  0  0  0  0  0
   43.3500   25.7990   34.8580 N   0  0  0  0  0  0  0  0  0  0  0  0
   43.6330   24.6320   35.4640 C   0  0  0  0  0  0  0  0  0  0  0  0
   44.9150   24.5210   35.8130 N   0  0  0  0  0  0  0  0  0  0  0  0
   45.5270   25.6700   35.4250 C   0  0  0  0  0  0  0  0  0  0  0  0
   46.8360   26.0940   35.5320 C   0  0  0  0  0  0  0  0  0  0  0  0
   47.7160   25.3660   36.0740 O   0  0  0  0  0  0  0  0  0  0  0  0
   47.1520   27.3200   35.0390 N   0  0  0  0  0  0  0  0  0  0  0  0
   46.1840   28.0650   34.4680 C   0  0  0  0  0  0  0  0  0  0  0  0
   46.6270   29.3410   33.9810 N   0  0  0  0  0  0  0  0  0  0  0  0
   44.9030   27.6470   34.3640 N   0  0  0  0  0  0  0  0  0  0  0  0
   44.5330   26.4270   34.8420 C   0  0  0  0  0  0  0  0  0  0  0  0
   38.6290   26.7350   35.5270 C   0  0  0  0  0  0  0  0  0  0  0  0
   37.9140   23.0430   35.9770 C   0  0  0  0  0  0  0  0  0  0  0  0
   38.2070   24.2740   35.3430 C   0  0  0  0  0  0  0  0  0  0  0  0
   38.3230   25.4220   36.1440 C   0  0  0  0  0  0  0  0  0  0  0  0
   38.1440   25.2720   37.4970 N   0  0  0  0  0  0  0  0  0  0  0  0
   37.8680   24.0870   38.0430 C   0  0  0  0  0  0  0  0  0  0  0  0
   37.7530   22.9880   37.3060 N   0  0  0  0  0  0  0  0  0  0  0  0
   38.8584   27.5066   32.9136 H   0  0  0  0  0  0  0  0  0  0  0  0
   40.8773   27.4698   31.4834 H   0  0  0  0  0  0  0  0  0  0  0  0
   42.8834   23.8493   35.6524 H   0  0  0  0  0  0  0  0  0  0  0  0
   48.1169   27.6751   35.1005 H   0  0  0  0  0  0  0  0  0  0  0  0
   45.9578   29.9802   33.5288 H   0  0  0  0  0  0  0  0  0  0  0  0
   47.6140   29.6171   34.0839 H   0  0  0  0  0  0  0  0  0  0  0  0
   38.8067   27.4618   36.3333 H   0  0  0  0  0  0  0  0  0  0  0  0
   37.7652   26.9975   34.8986 H   0  0  0  0  0  0  0  0  0  0  0  0
   37.8180   22.1269   35.3757 H   0  0  0  0  0  0  0  0  0  0  0  0
   38.3403   24.3302   34.2525 H   0  0  0  0  0  0  0  0  0  0  0  0
   37.7320   24.0179   39.1324 H   0  0  0  0  0  0  0  0  0  0  0  0
  1  6  1  0
  1 18  1  0
  2  1  2  0
  3  4  2  0
  3  2  1  0
  4  5  1  0
  5  7  1  0
  5  6  2  0
  7  8  1  0
  8  9  2  0
 10 11  1  0
 10  9  1  0
 11 12  2  0
 13 11  1  0
 14 13  1  0
 15 14  1  0
 16 14  2  0
 16 17  1  0
 17  7  1  0
 17 10  2  0
 18 21  1  0
 19 24  2  0
 20 19  1  0
 20 21  2  0
 21 22  1  0
 22 23  2  0
 24 23  1  0
  2 25  1  0
  3 26  1  0
  8 27  1  0
 13 28  1  0
 15 29  1  0
 15 30  1  0
 18 31  1  0
 18 32  1  0
 19 33  1  0
 20 34  1  0
 23 35  1  0
M  ISO  8  25  14  26  14  27  14  28   9  31   8  32   8  33  14  34  14
M  ISO  1  35  14
M  END
>  <minimizedAffinity>  (1) 
-5.22018242

>  <minimizedRMSD>  (1) 
1.63988149

$$$$
