
     RDKit          3D

 35 38  0  0  0  0  0  0  0  0999 V2000
   39.3870   26.9010   34.6480 C   0  0  0  0  0  0  0  0  0  0  0  0
   39.0680   27.0870   33.3340 C   0  0  0  0  0  0  0  0  0  0  0  0
   39.9740   27.0820   32.3000 C   0  0  0  0  0  0  0  0  0  0  0  0
   41.2530   26.8790   32.6250 N   0  0  0  0  0  0  0  0  0  0  0  0
   41.6410   26.6870   33.9130 C   0  0  0  0  0  0  0  0  0  0  0  0
   40.7060   26.7030   34.8810 N   0  0  0  0  0  0  0  0  0  0  0  0
   43.0370   26.4630   34.2850 C   0  0  0  0  0  0  0  0  0  0  0  0
   44.1380   27.2180   33.9330 C   0  0  0  0  0  0  0  0  0  0  0  0
   45.2320   26.6670   34.4850 N   0  0  0  0  0  0  0  0  0  0  0  0
   44.8860   25.5650   35.1950 C   0  0  0  0  0  0  0  0  0  0  0  0
   45.6720   24.6820   35.9290 C   0  0  0  0  0  0  0  0  0  0  0  0
   44.9850   23.6690   36.5230 C   0  0  0  0  0  0  0  0  0  0  0  0
   43.6240   23.4570   36.4590 C   0  0  0  0  0  0  0  0  0  0  0  0
   42.9090   24.3670   35.7170 C   0  0  0  0  0  0  0  0  0  0  0  0
   43.5030   25.4340   35.0700 C   0  0  0  0  0  0  0  0  0  0  0  0
   38.4240   26.9050   35.7580 C   0  0  0  0  0  0  0  0  0  0  0  0
   37.9310   23.1750   36.2190 C   0  0  0  0  0  0  0  0  0  0  0  0
   38.1280   24.4170   35.5810 C   0  0  0  0  0  0  0  0  0  0  0  0
   38.2170   25.5760   36.3830 C   0  0  0  0  0  0  0  0  0  0  0  0
   38.1040   25.3900   37.7360 N   0  0  0  0  0  0  0  0  0  0  0  0
   37.9190   24.1980   38.2970 C   0  0  0  0  0  0  0  0  0  0  0  0
   37.8320   23.0930   37.5400 N   0  0  0  0  0  0  0  0  0  0  0  0
   38.0096   27.2529   33.0843 H   0  0  0  0  0  0  0  0  0  0  0  0
   39.6608   27.2375   31.2570 H   0  0  0  0  0  0  0  0  0  0  0  0
   44.1222   28.1209   33.3048 H   0  0  0  0  0  0  0  0  0  0  0  0
   46.1913   27.0282   34.3838 H   0  0  0  0  0  0  0  0  0  0  0  0
   46.7623   24.7941   36.0216 H   0  0  0  0  0  0  0  0  0  0  0  0
   45.5725   22.9490   37.1116 H   0  0  0  0  0  0  0  0  0  0  0  0
   43.1401   22.6117   36.9702 H   0  0  0  0  0  0  0  0  0  0  0  0
   41.8194   24.2407   35.6349 H   0  0  0  0  0  0  0  0  0  0  0  0
   38.7899   27.5972   36.5307 H   0  0  0  0  0  0  0  0  0  0  0  0
   37.4553   27.2127   35.3373 H   0  0  0  0  0  0  0  0  0  0  0  0
   37.8583   22.2601   35.6126 H   0  0  0  0  0  0  0  0  0  0  0  0
   38.2103   24.4815   34.4860 H   0  0  0  0  0  0  0  0  0  0  0  0
   37.8366   24.1172   39.3909 H   0  0  0  0  0  0  0  0  0  0  0  0
  1  6  1  0
  1 16  1  0
  2  1  2  0
  3  4  2  0
  3  2  1  0
  4  5  1  0
  5  7  1  0
  5  6  2  0
  7 15  1  0
  8  7  2  0
  8  9  1  0
  9 10  1  0
 10 11  2  0
 11 12  1  0
 13 12  2  0
 14 13  1  0
 15 10  1  0
 15 14  2  0
 16 19  1  0
 17 22  2  0
 18 17  1  0
 18 19  2  0
 19 20  1  0
 20 21  2  0
 22 21  1  0
  2 23  1  0
  3 24  1  0
  8 25  1  0
  9 26  1  0
 11 27  1  0
 12 28  1  0
 13 29  1  0
 14 30  1  0
 16 31  1  0
 16 32  1  0
 17 33  1  0
 18 34  1  0
 21 35  1  0
M  ISO  8  23  14  24  14  25  14  26   9  27  14  28  14  29  14  30  14
M  ISO  5  31   8  32   8  33  14  34  14  35  14
M  END
>  <minimizedAffinity>  (1) 
-5.07750273

>  <minimizedRMSD>  (1) 
1.12738109

$$$$
