
     RDKit          3D

 32 35  0  0  0  0  0  0  0  0999 V2000
   39.3200   26.8650   34.6650 C   0  0  0  0  0  0  0  0  0  0  0  0
   39.0540   27.0890   33.3350 C   0  0  0  0  0  0  0  0  0  0  0  0
   40.0120   27.1200   32.3470 C   0  0  0  0  0  0  0  0  0  0  0  0
   41.2850   26.9160   32.7400 N   0  0  0  0  0  0  0  0  0  0  0  0
   41.5840   26.6950   34.0280 C   0  0  0  0  0  0  0  0  0  0  0  0
   40.6260   26.6710   34.9610 N   0  0  0  0  0  0  0  0  0  0  0  0
   42.9710   26.4960   34.2840 N   0  0  0  0  0  0  0  0  0  0  0  0
   44.0700   27.1610   33.9080 C   0  0  0  0  0  0  0  0  0  0  0  0
   45.1370   26.5360   34.4390 N   0  0  0  0  0  0  0  0  0  0  0  0
   44.7510   25.4600   35.1650 C   0  0  0  0  0  0  0  0  0  0  0  0
   45.4680   24.5300   35.8820 C   0  0  0  0  0  0  0  0  0  0  0  0
   44.7190   23.5700   36.4970 N   0  0  0  0  0  0  0  0  0  0  0  0
   43.3950   23.5190   36.4210 C   0  0  0  0  0  0  0  0  0  0  0  0
   42.7230   24.4480   35.7100 N   0  0  0  0  0  0  0  0  0  0  0  0
   43.3740   25.4480   35.0570 C   0  0  0  0  0  0  0  0  0  0  0  0
   38.3020   26.8290   35.7290 C   0  0  0  0  0  0  0  0  0  0  0  0
   37.9270   23.0920   36.2760 C   0  0  0  0  0  0  0  0  0  0  0  0
   38.0670   24.3310   35.6160 C   0  0  0  0  0  0  0  0  0  0  0  0
   38.1540   25.4960   36.3810 C   0  0  0  0  0  0  0  0  0  0  0  0
   38.0960   25.3590   37.7430 N   0  0  0  0  0  0  0  0  0  0  0  0
   37.9640   24.1660   38.3240 C   0  0  0  0  0  0  0  0  0  0  0  0
   37.8800   23.0380   37.6010 N   0  0  0  0  0  0  0  0  0  0  0  0
   38.0070   27.2543   33.0410 H   0  0  0  0  0  0  0  0  0  0  0  0
   39.7526   27.3015   31.2935 H   0  0  0  0  0  0  0  0  0  0  0  0
   44.0964   28.0607   33.2757 H   0  0  0  0  0  0  0  0  0  0  0  0
   46.5653   24.5585   35.9541 H   0  0  0  0  0  0  0  0  0  0  0  0
   42.8452   22.7188   36.9380 H   0  0  0  0  0  0  0  0  0  0  0  0
   38.5812   27.5622   36.5000 H   0  0  0  0  0  0  0  0  0  0  0  0
   37.3370   27.0605   35.2545 H   0  0  0  0  0  0  0  0  0  0  0  0
   37.8563   22.1648   35.6884 H   0  0  0  0  0  0  0  0  0  0  0  0
   38.1069   24.3785   34.5178 H   0  0  0  0  0  0  0  0  0  0  0  0
   37.9230   24.1047   39.4215 H   0  0  0  0  0  0  0  0  0  0  0  0
  1  6  1  0
  1 16  1  0
  2  1  2  0
  3  4  2  0
  3  2  1  0
  4  5  1  0
  5  7  1  0
  5  6  2  0
  7 15  1  0
  8  7  1  0
  8  9  2  0
  9 10  1  0
 10 11  2  0
 11 12  1  0
 13 12  2  0
 14 13  1  0
 15 10  1  0
 15 14  2  0
 16 19  1  0
 17 22  2  0
 18 17  1  0
 18 19  2  0
 19 20  1  0
 20 21  2  0
 22 21  1  0
  2 23  1  0
  3 24  1  0
  8 25  1  0
 11 26  1  0
 13 27  1  0
 16 28  1  0
 16 29  1  0
 17 30  1  0
 18 31  1  0
 21 32  1  0
M  ISO  8  23  14  24  14  25  14  26  14  27  14  28   8  29   8  30  14
M  ISO  2  31  14  32  14
M  END
>  <minimizedAffinity>  (1) 
-4.99199104

>  <minimizedRMSD>  (1) 
0.392114162

$$$$
