
     RDKit          3D

 34 36  0  0  0  0  0  0  0  0999 V2000
   37.7470   24.1180   32.9940 C   0  0  0  0  0  0  0  0  0  0  0  0
   37.0340   25.0710   32.3440 C   0  0  0  0  0  0  0  0  0  0  0  0
   35.8910   24.8290   31.6210 C   0  0  0  0  0  0  0  0  0  0  0  0
   35.4580   23.5630   31.5610 N   0  0  0  0  0  0  0  0  0  0  0  0
   36.1370   22.5770   32.1940 C   0  0  0  0  0  0  0  0  0  0  0  0
   37.2390   22.8500   32.8840 N   0  0  0  0  0  0  0  0  0  0  0  0
   35.6070   21.1790   32.0920 C   0  0  0  0  0  0  0  0  0  0  0  0
   35.6650   20.4670   33.4250 C   0  0  0  0  0  0  0  0  0  0  0  0
   35.3600   19.0380   32.9920 C   0  0  0  0  0  0  0  0  0  0  0  0
   35.9260   18.9130   31.5910 C   0  0  0  0  0  0  0  0  0  0  0  0
   36.4060   20.2950   31.1970 C   0  0  0  0  0  0  0  0  0  0  0  0
   38.9760   24.3650   33.7730 C   0  0  0  0  0  0  0  0  0  0  0  0
   37.8490   24.3600   37.3930 C   0  0  0  0  0  0  0  0  0  0  0  0
   37.9350   24.7180   36.0360 C   0  0  0  0  0  0  0  0  0  0  0  0
   38.8430   24.0290   35.2130 C   0  0  0  0  0  0  0  0  0  0  0  0
   39.6000   23.0340   35.8020 N   0  0  0  0  0  0  0  0  0  0  0  0
   39.4760   22.7370   37.0990 C   0  0  0  0  0  0  0  0  0  0  0  0
   38.6130   23.3870   37.8920 N   0  0  0  0  0  0  0  0  0  0  0  0
   37.3954   26.1085   32.3994 H   0  0  0  0  0  0  0  0  0  0  0  0
   35.3531   25.6423   31.1119 H   0  0  0  0  0  0  0  0  0  0  0  0
   34.5862   21.3232   31.7083 H   0  0  0  0  0  0  0  0  0  0  0  0
   36.6608   20.5478   33.8853 H   0  0  0  0  0  0  0  0  0  0  0  0
   34.9833   20.8692   34.1888 H   0  0  0  0  0  0  0  0  0  0  0  0
   35.8449   18.3189   33.6686 H   0  0  0  0  0  0  0  0  0  0  0  0
   34.2814   18.8237   33.0184 H   0  0  0  0  0  0  0  0  0  0  0  0
   36.7654   18.2021   31.5821 H   0  0  0  0  0  0  0  0  0  0  0  0
   35.1678   18.5392   30.8872 H   0  0  0  0  0  0  0  0  0  0  0  0
   37.4840   20.4099   31.3834 H   0  0  0  0  0  0  0  0  0  0  0  0
   36.2741   20.5176   30.1279 H   0  0  0  0  0  0  0  0  0  0  0  0
   39.7865   23.7555   33.3469 H   0  0  0  0  0  0  0  0  0  0  0  0
   39.1869   25.4428   33.7108 H   0  0  0  0  0  0  0  0  0  0  0  0
   37.1434   24.8885   38.0509 H   0  0  0  0  0  0  0  0  0  0  0  0
   37.3045   25.5210   35.6266 H   0  0  0  0  0  0  0  0  0  0  0  0
   40.0988   21.9378   37.5271 H   0  0  0  0  0  0  0  0  0  0  0  0
  1 12  1  0
  2  1  2  0
  3  2  1  0
  4  3  2  0
  4  5  1  0
  5  6  2  0
  6  1  1  0
  7  5  1  0
  7  8  1  0
  9  8  1  0
 10  9  1  0
 11 10  1  0
 11  7  1  0
 12 15  1  0
 13 18  2  0
 14 13  1  0
 15 16  1  0
 15 14  2  0
 16 17  2  0
 17 18  1  0
  2 19  1  0
  3 20  1  0
  7 21  1  0
  8 22  1  0
  8 23  1  0
  9 24  1  0
  9 25  1  0
 10 26  1  0
 10 27  1  0
 11 28  1  0
 11 29  1  0
 12 30  1  0
 12 31  1  0
 13 32  1  0
 14 33  1  0
 17 34  1  0
M  ISO  8  19  14  20  14  21  13  22  13  23  13  24  13  25  13  26  13
M  ISO  8  27  13  28  13  29  13  30   8  31   8  32  14  33  14  34  14
M  END
>  <minimizedAffinity>  (1) 
-4.94093132

>  <minimizedRMSD>  (1) 
6.70979261

$$$$
