
     RDKit          3D

 28 30  0  0  0  0  0  0  0  0999 V2000
   39.1860   26.9030   34.6630 C   0  0  0  0  0  0  0  0  0  0  0  0
   38.8440   27.0650   33.3430 C   0  0  0  0  0  0  0  0  0  0  0  0
   39.7580   27.1300   32.3140 C   0  0  0  0  0  0  0  0  0  0  0  0
   41.0640   27.0260   32.6440 N   0  0  0  0  0  0  0  0  0  0  0  0
   41.4300   26.8660   33.9210 C   0  0  0  0  0  0  0  0  0  0  0  0
   40.5330   26.8050   34.9110 N   0  0  0  0  0  0  0  0  0  0  0  0
   42.8490   26.7560   34.2500 C   0  0  0  0  0  0  0  0  0  0  0  0
   43.5170   25.6530   34.7390 C   0  0  0  0  0  0  0  0  0  0  0  0
   44.8310   25.9060   34.9290 N   0  0  0  0  0  0  0  0  0  0  0  0
   44.9960   27.2060   34.5500 C   0  0  0  0  0  0  0  0  0  0  0  0
   43.8090   27.6940   34.1490 N   0  0  0  0  0  0  0  0  0  0  0  0
   38.2280   26.8310   35.7750 C   0  0  0  0  0  0  0  0  0  0  0  0
   37.9840   23.0850   36.2660 C   0  0  0  0  0  0  0  0  0  0  0  0
   38.0770   24.3320   35.6170 C   0  0  0  0  0  0  0  0  0  0  0  0
   38.1290   25.4920   36.4010 C   0  0  0  0  0  0  0  0  0  0  0  0
   38.0860   25.3420   37.7730 N   0  0  0  0  0  0  0  0  0  0  0  0
   37.9980   24.1260   38.3270 C   0  0  0  0  0  0  0  0  0  0  0  0
   37.9470   23.0200   37.5910 N   0  0  0  0  0  0  0  0  0  0  0  0
   37.7762   27.1479   33.0920 H   0  0  0  0  0  0  0  0  0  0  0  0
   39.4384   27.2608   31.2696 H   0  0  0  0  0  0  0  0  0  0  0  0
   43.0385   24.6850   34.9489 H   0  0  0  0  0  0  0  0  0  0  0  0
   45.9441   27.7634   34.5693 H   0  0  0  0  0  0  0  0  0  0  0  0
   43.6553   28.6546   33.8107 H   0  0  0  0  0  0  0  0  0  0  0  0
   38.5390   27.5510   36.5463 H   0  0  0  0  0  0  0  0  0  0  0  0
   37.2370   27.0598   35.3559 H   0  0  0  0  0  0  0  0  0  0  0  0
   37.9418   22.1605   35.6714 H   0  0  0  0  0  0  0  0  0  0  0  0
   38.1081   24.3935   34.5192 H   0  0  0  0  0  0  0  0  0  0  0  0
   37.9670   24.0397   39.4232 H   0  0  0  0  0  0  0  0  0  0  0  0
  1  6  1  0
  1 12  1  0
  2  1  2  0
  3  4  2  0
  3  2  1  0
  4  5  1  0
  5  7  1  0
  5  6  2  0
  7  8  2  0
  8  9  1  0
 10  9  2  0
 11  7  1  0
 11 10  1  0
 12 15  1  0
 13 18  2  0
 14 13  1  0
 14 15  2  0
 15 16  1  0
 16 17  2  0
 18 17  1  0
  2 19  1  0
  3 20  1  0
  8 21  1  0
 10 22  1  0
 11 23  1  0
 12 24  1  0
 12 25  1  0
 13 26  1  0
 14 27  1  0
 17 28  1  0
M  ISO  8  19  14  20  14  21  14  22  14  23   9  24   8  25   8  26  14
M  ISO  2  27  14  28  14
M  END
>  <minimizedAffinity>  (1) 
-4.4033761

>  <minimizedRMSD>  (1) 
0.382441491

$$$$
