
     RDKit          3D

 30 32  0  0  0  0  0  0  0  0999 V2000
   38.4250   26.9090   35.5270 C   0  0  0  0  0  0  0  0  0  0  0  0
   38.1330   27.2330   34.0990 C   0  0  0  0  0  0  0  0  0  0  0  0
   38.8620   26.8340   32.9780 C   0  0  0  0  0  0  0  0  0  0  0  0
   38.3010   27.3150   31.8530 N   0  0  0  0  0  0  0  0  0  0  0  0
   37.2220   28.0180   32.2330 C   0  0  0  0  0  0  0  0  0  0  0  0
   36.2490   28.7390   31.5690 C   0  0  0  0  0  0  0  0  0  0  0  0
   35.1990   29.4020   32.1660 C   0  0  0  0  0  0  0  0  0  0  0  0
   35.1300   29.3290   33.5410 C   0  0  0  0  0  0  0  0  0  0  0  0
   36.0500   28.6370   34.2810 C   0  0  0  0  0  0  0  0  0  0  0  0
   37.0720   27.9970   33.6240 C   0  0  0  0  0  0  0  0  0  0  0  0
   37.5530   25.7200   35.8880 C   0  0  0  0  0  0  0  0  0  0  0  0
   40.1740   23.1490   36.4870 C   0  0  0  0  0  0  0  0  0  0  0  0
   39.8920   22.7270   37.7880 C   0  0  0  0  0  0  0  0  0  0  0  0
   38.8060   23.3270   38.4470 C   0  0  0  0  0  0  0  0  0  0  0  0
   38.0890   24.2910   37.7750 N   0  0  0  0  0  0  0  0  0  0  0  0
   38.3980   24.6630   36.5270 C   0  0  0  0  0  0  0  0  0  0  0  0
   39.4380   24.0920   35.8870 N   0  0  0  0  0  0  0  0  0  0  0  0
   38.1804   27.7681   36.1690 H   0  0  0  0  0  0  0  0  0  0  0  0
   39.4907   26.6784   35.6719 H   0  0  0  0  0  0  0  0  0  0  0  0
   39.7692   26.2127   33.0094 H   0  0  0  0  0  0  0  0  0  0  0  0
   38.6343   27.1718   30.8890 H   0  0  0  0  0  0  0  0  0  0  0  0
   36.3181   28.7880   30.4723 H   0  0  0  0  0  0  0  0  0  0  0  0
   34.4558   29.9596   31.5772 H   0  0  0  0  0  0  0  0  0  0  0  0
   34.3084   29.8439   34.0604 H   0  0  0  0  0  0  0  0  0  0  0  0
   35.9726   28.5944   35.3774 H   0  0  0  0  0  0  0  0  0  0  0  0
   36.7695   26.0389   36.5911 H   0  0  0  0  0  0  0  0  0  0  0  0
   37.0842   25.3170   34.9781 H   0  0  0  0  0  0  0  0  0  0  0  0
   41.0178   22.6974   35.9447 H   0  0  0  0  0  0  0  0  0  0  0  0
   40.4988   21.9522   38.2794 H   0  0  0  0  0  0  0  0  0  0  0  0
   38.5359   23.0344   39.4724 H   0  0  0  0  0  0  0  0  0  0  0  0
  1 11  1  0
  2  1  1  0
  3  2  2  0
  4  5  1  0
  4  3  1  0
  5 10  2  0
  6  7  2  0
  6  5  1  0
  7  8  1  0
  8  9  2  0
 10  2  1  0
 10  9  1  0
 11 16  1  0
 12 13  2  0
 13 14  1  0
 15 14  2  0
 16 15  1  0
 17 12  1  0
 17 16  2  0
  1 18  1  0
  1 19  1  0
  3 20  1  0
  4 21  1  0
  6 22  1  0
  7 23  1  0
  8 24  1  0
  9 25  1  0
 11 26  1  0
 11 27  1  0
 12 28  1  0
 13 29  1  0
 14 30  1  0
M  ISO  8  18   8  19   8  20  14  21   9  22  14  23  14  24  14  25  14
M  ISO  5  26   8  27   8  28  14  29  14  30  14
M  END
>  <minimizedAffinity>  (1) 
-4.76751947

>  <minimizedRMSD>  (1) 
1.84706843

$$$$
