
     RDKit          3D

 27 29  0  0  0  0  0  0  0  0999 V2000
   39.2660   26.8880   34.6900 C   0  0  0  0  0  0  0  0  0  0  0  0
   38.9420   27.0970   33.3870 C   0  0  0  0  0  0  0  0  0  0  0  0
   39.8490   27.1490   32.3540 C   0  0  0  0  0  0  0  0  0  0  0  0
   41.1500   26.9750   32.6850 N   0  0  0  0  0  0  0  0  0  0  0  0
   41.5110   26.7640   33.9680 C   0  0  0  0  0  0  0  0  0  0  0  0
   40.5910   26.7230   34.9400 N   0  0  0  0  0  0  0  0  0  0  0  0
   42.9000   26.5860   34.2700 N   0  0  0  0  0  0  0  0  0  0  0  0
   43.1530   25.5430   35.1090 C   0  0  0  0  0  0  0  0  0  0  0  0
   44.4770   25.4700   35.3210 N   0  0  0  0  0  0  0  0  0  0  0  0
   45.0240   26.4770   34.6040 C   0  0  0  0  0  0  0  0  0  0  0  0
   44.0480   27.1410   33.9740 N   0  0  0  0  0  0  0  0  0  0  0  0
   38.2730   26.8360   35.7840 C   0  0  0  0  0  0  0  0  0  0  0  0
   37.9450   23.0910   36.2700 C   0  0  0  0  0  0  0  0  0  0  0  0
   38.0670   24.3360   35.6170 C   0  0  0  0  0  0  0  0  0  0  0  0
   38.1430   25.4880   36.4180 C   0  0  0  0  0  0  0  0  0  0  0  0
   38.0930   25.3210   37.7840 N   0  0  0  0  0  0  0  0  0  0  0  0
   37.9780   24.1190   38.3480 C   0  0  0  0  0  0  0  0  0  0  0  0
   37.9050   23.0200   37.5910 N   0  0  0  0  0  0  0  0  0  0  0  0
   37.8788   27.2344   33.1407 H   0  0  0  0  0  0  0  0  0  0  0  0
   39.5339   27.3227   31.3145 H   0  0  0  0  0  0  0  0  0  0  0  0
   42.3971   24.8711   35.5416 H   0  0  0  0  0  0  0  0  0  0  0  0
   46.0971   26.7123   34.5476 H   0  0  0  0  0  0  0  0  0  0  0  0
   38.5732   27.5563   36.5593 H   0  0  0  0  0  0  0  0  0  0  0  0
   37.2955   27.0770   35.3409 H   0  0  0  0  0  0  0  0  0  0  0  0
   37.8824   22.1686   35.6740 H   0  0  0  0  0  0  0  0  0  0  0  0
   38.1014   24.4023   34.5195 H   0  0  0  0  0  0  0  0  0  0  0  0
   37.9429   24.0308   39.4439 H   0  0  0  0  0  0  0  0  0  0  0  0
  1  6  1  0
  1 12  1  0
  2  1  2  0
  3  4  2  0
  3  2  1  0
  4  5  1  0
  5  7  1  0
  5  6  2  0
  7  8  1  0
  8  9  2  0
 10  9  1  0
 11  7  1  0
 11 10  2  0
 12 15  1  0
 13 18  2  0
 14 13  1  0
 14 15  2  0
 15 16  1  0
 16 17  2  0
 18 17  1  0
  2 19  1  0
  3 20  1  0
  8 21  1  0
 10 22  1  0
 12 23  1  0
 12 24  1  0
 13 25  1  0
 14 26  1  0
 17 27  1  0
M  ISO  8  19  14  20  14  21  14  22  14  23   8  24   8  25  14  26  14
M  ISO  1  27  14
M  END
>  <minimizedAffinity>  (1) 
-4.28531313

>  <minimizedRMSD>  (1) 
0.192985013

$$$$
