
     RDKit          3D

 28 30  0  0  0  0  0  0  0  0999 V2000
   39.9790   26.6500   34.6200 C   0  0  0  0  0  0  0  0  0  0  0  0
   40.2070   27.2320   33.4060 C   0  0  0  0  0  0  0  0  0  0  0  0
   41.4190   27.2510   32.7550 C   0  0  0  0  0  0  0  0  0  0  0  0
   42.4480   26.6400   33.3820 N   0  0  0  0  0  0  0  0  0  0  0  0
   42.2630   26.0580   34.5730 C   0  0  0  0  0  0  0  0  0  0  0  0
   41.0750   26.0630   35.1690 N   0  0  0  0  0  0  0  0  0  0  0  0
   43.3170   25.3810   35.3110 C   0  0  0  0  0  0  0  0  0  0  0  0
   43.3830   24.2900   36.0860 C   0  0  0  0  0  0  0  0  0  0  0  0
   44.5320   23.8840   36.6590 C   0  0  0  0  0  0  0  0  0  0  0  0
   45.6390   24.6770   36.3900 C   0  0  0  0  0  0  0  0  0  0  0  0
   44.9720   26.0460   35.2690 S   0  0  0  0  0  0  0  0  0  0  0  0
   38.6790   26.6300   35.3190 C   0  0  0  0  0  0  0  0  0  0  0  0
   37.9330   22.9400   35.7910 C   0  0  0  0  0  0  0  0  0  0  0  0
   38.2410   24.1760   35.1610 C   0  0  0  0  0  0  0  0  0  0  0  0
   38.3570   25.3190   35.9470 C   0  0  0  0  0  0  0  0  0  0  0  0
   38.1620   25.1810   37.3060 N   0  0  0  0  0  0  0  0  0  0  0  0
   37.8720   23.9950   37.8610 C   0  0  0  0  0  0  0  0  0  0  0  0
   37.7600   22.8960   37.1110 N   0  0  0  0  0  0  0  0  0  0  0  0
   39.3566   27.7233   32.9105 H   0  0  0  0  0  0  0  0  0  0  0  0
   41.5435   27.7376   31.7764 H   0  0  0  0  0  0  0  0  0  0  0  0
   42.4673   23.7060   36.2602 H   0  0  0  0  0  0  0  0  0  0  0  0
   44.5892   22.9881   37.2947 H   0  0  0  0  0  0  0  0  0  0  0  0
   46.6702   24.5401   36.7477 H   0  0  0  0  0  0  0  0  0  0  0  0
   38.6965   27.3974   36.1069 H   0  0  0  0  0  0  0  0  0  0  0  0
   37.9042   26.8228   34.5623 H   0  0  0  0  0  0  0  0  0  0  0  0
   37.8378   22.0231   35.1909 H   0  0  0  0  0  0  0  0  0  0  0  0
   38.3852   24.2286   34.0718 H   0  0  0  0  0  0  0  0  0  0  0  0
   37.7244   23.9267   38.9489 H   0  0  0  0  0  0  0  0  0  0  0  0
  1  6  1  0
  1 12  1  0
  2  1  2  0
  3  4  2  0
  3  2  1  0
  4  5  1  0
  5  6  2  0
  5  7  1  0
  7  8  2  0
  8  9  1  0
 10  9  2  0
 11  7  1  0
 11 10  1  0
 12 15  1  0
 13 18  2  0
 14 13  1  0
 14 15  2  0
 15 16  1  0
 16 17  2  0
 18 17  1  0
  2 19  1  0
  3 20  1  0
  8 21  1  0
  9 22  1  0
 10 23  1  0
 12 24  1  0
 12 25  1  0
 13 26  1  0
 14 27  1  0
 17 28  1  0
M  ISO  8  19  14  20  14  21  14  22  14  23  14  24   8  25   8  26  14
M  ISO  2  27  14  28  14
M  END
>  <minimizedAffinity>  (1) 
-4.184165

>  <minimizedRMSD>  (1) 
1.6207968

$$$$
