
     RDKit          3D

 24 25  0  0  0  0  0  0  0  0999 V2000
   38.3370   26.9400   36.1250 C   0  0  0  0  0  0  0  0  0  0  0  0
   38.0030   23.1620   36.2230 C   0  0  0  0  0  0  0  0  0  0  0  0
   38.1520   24.4680   35.7050 C   0  0  0  0  0  0  0  0  0  0  0  0
   38.1840   25.5460   36.6070 C   0  0  0  0  0  0  0  0  0  0  0  0
   38.0660   25.2390   37.9390 N   0  0  0  0  0  0  0  0  0  0  0  0
   37.9270   23.9920   38.3790 C   0  0  0  0  0  0  0  0  0  0  0  0
   37.8970   22.9700   37.5350 N   0  0  0  0  0  0  0  0  0  0  0  0
   38.9410   27.0400   34.7790 C   0  0  0  0  0  0  0  0  0  0  0  0
   38.2290   27.1400   33.6160 C   0  0  0  0  0  0  0  0  0  0  0  0
   38.8290   27.2330   32.3690 C   0  0  0  0  0  0  0  0  0  0  0  0
   40.1790   27.2230   32.3210 N   0  0  0  0  0  0  0  0  0  0  0  0
   40.8930   27.1270   33.4550 C   0  0  0  0  0  0  0  0  0  0  0  0
   40.3040   27.0380   34.6430 N   0  0  0  0  0  0  0  0  0  0  0  0
   42.3470   27.1240   33.3090 C   0  0  0  0  0  0  0  0  0  0  0  0
   42.8560   26.8160   32.2000 O   0  0  0  0  0  0  0  0  0  0  0  0
   43.1280   27.4720   34.4270 O   0  0  0  0  0  0  0  0  0  0  0  0
   37.3421   27.4084   36.0950 H   0  0  0  0  0  0  0  0  0  0  0  0
   39.0191   27.4485   36.8223 H   0  0  0  0  0  0  0  0  0  0  0  0
   37.9746   22.3010   35.5390 H   0  0  0  0  0  0  0  0  0  0  0  0
   38.2409   24.6374   34.6218 H   0  0  0  0  0  0  0  0  0  0  0  0
   37.8355   23.8056   39.4592 H   0  0  0  0  0  0  0  0  0  0  0  0
   37.1304   27.1470   33.6719 H   0  0  0  0  0  0  0  0  0  0  0  0
   38.2270   27.3121   31.4517 H   0  0  0  0  0  0  0  0  0  0  0  0
   44.1156   27.4788   34.3582 H   0  0  0  0  0  0  0  0  0  0  0  0
  1  4  1  0
  2  7  2  0
  3  2  1  0
  3  4  2  0
  4  5  1  0
  5  6  2  0
  7  6  1  0
  8  1  1  0
  9  8  2  0
 10  9  1  0
 11 10  2  0
 11 12  1  0
 12 13  2  0
 13  8  1  0
 14 12  1  0
 14 16  1  0
 15 14  2  0
  1 17  1  0
  1 18  1  0
  2 19  1  0
  3 20  1  0
  6 21  1  0
  9 22  1  0
 10 23  1  0
 16 24  1  0
M  ISO  8  17   8  18   8  19  14  20  14  21  14  22  14  23  14  24   3
M  END
>  <minimizedAffinity>  (1) 
-4.17217207

>  <minimizedRMSD>  (1) 
0.672162712

$$$$
