
     RDKit          3D

 30 31  0  0  0  0  0  0  0  0999 V2000
   38.7180   26.7650   35.8070 C   0  0  0  0  0  0  0  0  0  0  0  0
   38.0140   23.0520   35.5340 C   0  0  0  0  0  0  0  0  0  0  0  0
   38.3520   24.3710   35.1650 C   0  0  0  0  0  0  0  0  0  0  0  0
   38.3670   25.3700   36.1630 C   0  0  0  0  0  0  0  0  0  0  0  0
   38.0460   24.9770   37.4380 N   0  0  0  0  0  0  0  0  0  0  0  0
   37.7330   23.7170   37.7410 C   0  0  0  0  0  0  0  0  0  0  0  0
   37.7160   22.7640   36.8040 N   0  0  0  0  0  0  0  0  0  0  0  0
   38.0250   27.2820   34.6090 C   0  0  0  0  0  0  0  0  0  0  0  0
   36.8070   27.8850   34.6500 C   0  0  0  0  0  0  0  0  0  0  0  0
   36.1690   28.3640   33.5170 C   0  0  0  0  0  0  0  0  0  0  0  0
   36.7960   28.2170   32.3430 N   0  0  0  0  0  0  0  0  0  0  0  0
   38.0010   27.6230   32.2750 C   0  0  0  0  0  0  0  0  0  0  0  0
   38.5920   27.1730   33.3780 N   0  0  0  0  0  0  0  0  0  0  0  0
   38.7080   27.4540   30.9800 C   0  0  0  0  0  0  0  0  0  0  0  0
   40.1990   27.2970   31.2940 C   0  0  0  0  0  0  0  0  0  0  0  0
   38.4420   28.5930   30.0350 C   0  0  0  0  0  0  0  0  0  0  0  0
   38.4619   27.4123   36.6587 H   0  0  0  0  0  0  0  0  0  0  0  0
   39.7930   26.7685   35.5738 H   0  0  0  0  0  0  0  0  0  0  0  0
   37.9958   22.2577   34.7732 H   0  0  0  0  0  0  0  0  0  0  0  0
   38.5988   24.6162   34.1215 H   0  0  0  0  0  0  0  0  0  0  0  0
   37.4843   23.4571   38.7805 H   0  0  0  0  0  0  0  0  0  0  0  0
   36.3071   27.9973   35.6234 H   0  0  0  0  0  0  0  0  0  0  0  0
   35.1830   28.8476   33.5798 H   0  0  0  0  0  0  0  0  0  0  0  0
   38.3354   26.5601   30.4584 H   0  0  0  0  0  0  0  0  0  0  0  0
   40.3445   27.2817   32.3842 H   0  0  0  0  0  0  0  0  0  0  0  0
   40.5676   26.3551   30.8616 H   0  0  0  0  0  0  0  0  0  0  0  0
   40.7557   28.1415   30.8616 H   0  0  0  0  0  0  0  0  0  0  0  0
   38.2289   29.5054   30.6113 H   0  0  0  0  0  0  0  0  0  0  0  0
   39.3259   28.7577   29.4012 H   0  0  0  0  0  0  0  0  0  0  0  0
   37.5766   28.3491   29.4012 H   0  0  0  0  0  0  0  0  0  0  0  0
  1  4  1  0
  2  7  2  0
  3  2  1  0
  3  4  2  0
  4  5  1  0
  5  6  2  0
  7  6  1  0
  8  9  2  0
  8  1  1  0
 10  9  1  0
 11 10  2  0
 12 11  1  0
 12 13  2  0
 13  8  1  0
 14 15  1  0
 14 12  1  0
 16 14  1  0
  1 17  1  0
  1 18  1  0
  2 19  1  0
  3 20  1  0
  6 21  1  0
  9 22  1  0
 10 23  1  0
 14 24  1  0
 15 25  1  0
 15 26  1  0
 15 27  1  0
 16 28  1  0
 16 29  1  0
 16 30  1  0
M  ISO  8  17   8  18   8  19  14  20  14  21  14  22  14  23  14  24   8
M  ISO  6  25   8  26   8  27   8  28   8  29   8  30   8
M  END
>  <minimizedAffinity>  (1) 
-4.12476921

>  <minimizedRMSD>  (1) 
3.16917515

$$$$
