
     RDKit          3D

 28 30  0  0  0  0  0  0  0  0999 V2000
   38.8680   27.0170   34.8500 C   0  0  0  0  0  0  0  0  0  0  0  0
   38.1040   27.1060   33.7190 C   0  0  0  0  0  0  0  0  0  0  0  0
   38.6050   27.2550   32.4460 C   0  0  0  0  0  0  0  0  0  0  0  0
   39.9350   27.3140   32.3410 N   0  0  0  0  0  0  0  0  0  0  0  0
   40.7450   27.2310   33.4260 C   0  0  0  0  0  0  0  0  0  0  0  0
   40.2110   27.0860   34.6500 N   0  0  0  0  0  0  0  0  0  0  0  0
   42.1910   27.3010   33.2430 C   0  0  0  0  0  0  0  0  0  0  0  0
   42.7560   27.8770   32.1030 C   0  0  0  0  0  0  0  0  0  0  0  0
   44.1390   27.8220   32.1670 C   0  0  0  0  0  0  0  0  0  0  0  0
   44.3760   27.2160   33.3440 N   0  0  0  0  0  0  0  0  0  0  0  0
   43.2570   26.9150   33.9660 N   0  0  0  0  0  0  0  0  0  0  0  0
   38.3060   26.8570   36.2060 C   0  0  0  0  0  0  0  0  0  0  0  0
   38.0480   23.0820   36.1570 C   0  0  0  0  0  0  0  0  0  0  0  0
   38.1730   24.4030   35.6880 C   0  0  0  0  0  0  0  0  0  0  0  0
   38.1780   25.4340   36.6310 C   0  0  0  0  0  0  0  0  0  0  0  0
   38.0620   25.1000   37.9680 N   0  0  0  0  0  0  0  0  0  0  0  0
   37.9470   23.8140   38.3500 C   0  0  0  0  0  0  0  0  0  0  0  0
   37.9400   22.8170   37.4550 N   0  0  0  0  0  0  0  0  0  0  0  0
   37.0114   27.0548   33.8352 H   0  0  0  0  0  0  0  0  0  0  0  0
   37.9482   27.3216   31.5661 H   0  0  0  0  0  0  0  0  0  0  0  0
   42.1834   28.3131   31.2711 H   0  0  0  0  0  0  0  0  0  0  0  0
   44.8696   28.1872   31.4302 H   0  0  0  0  0  0  0  0  0  0  0  0
   45.3163   27.0130   33.7122 H   0  0  0  0  0  0  0  0  0  0  0  0
   38.9635   27.3758   36.9191 H   0  0  0  0  0  0  0  0  0  0  0  0
   37.2919   27.2827   36.1889 H   0  0  0  0  0  0  0  0  0  0  0  0
   38.0395   22.2522   35.4349 H   0  0  0  0  0  0  0  0  0  0  0  0
   38.2639   24.6171   34.6129 H   0  0  0  0  0  0  0  0  0  0  0  0
   37.8568   23.5767   39.4203 H   0  0  0  0  0  0  0  0  0  0  0  0
  1 12  1  0
  2  1  2  0
  3  2  1  0
  4  3  2  0
  4  5  1  0
  5  6  2  0
  6  1  1  0
  7  5  1  0
  7 11  2  0
  8  9  2  0
  8  7  1  0
  9 10  1  0
 10 11  1  0
 12 15  1  0
 13 18  2  0
 14 13  1  0
 14 15  2  0
 15 16  1  0
 16 17  2  0
 18 17  1  0
  2 19  1  0
  3 20  1  0
  8 21  1  0
  9 22  1  0
 10 23  1  0
 12 24  1  0
 12 25  1  0
 13 26  1  0
 14 27  1  0
 17 28  1  0
M  ISO  8  19  14  20  14  21  14  22  14  23   9  24   8  25   8  26  14
M  ISO  2  27  14  28  14
M  END
>  <minimizedAffinity>  (1) 
-4.08082581

>  <minimizedRMSD>  (1) 
1.11821806

$$$$
