
     RDKit          3D

 28 30  0  0  0  0  0  0  0  0999 V2000
   39.1760   26.9070   34.7080 C   0  0  0  0  0  0  0  0  0  0  0  0
   38.8360   27.0930   33.4040 C   0  0  0  0  0  0  0  0  0  0  0  0
   39.7180   27.1500   32.3490 C   0  0  0  0  0  0  0  0  0  0  0  0
   41.0140   27.0060   32.6660 N   0  0  0  0  0  0  0  0  0  0  0  0
   41.4000   26.8200   33.9340 C   0  0  0  0  0  0  0  0  0  0  0  0
   40.5110   26.7700   34.9320 N   0  0  0  0  0  0  0  0  0  0  0  0
   42.8430   26.6810   34.1020 C   0  0  0  0  0  0  0  0  0  0  0  0
   43.2990   25.6260   34.8980 C   0  0  0  0  0  0  0  0  0  0  0  0
   44.6920   25.7200   34.8950 C   0  0  0  0  0  0  0  0  0  0  0  0
   44.9950   26.8230   34.1000 C   0  0  0  0  0  0  0  0  0  0  0  0
   43.8830   27.3310   33.6750 O   0  0  0  0  0  0  0  0  0  0  0  0
   38.2310   26.8460   35.8310 C   0  0  0  0  0  0  0  0  0  0  0  0
   37.9380   23.0800   36.2820 C   0  0  0  0  0  0  0  0  0  0  0  0
   38.0440   24.3470   35.6610 C   0  0  0  0  0  0  0  0  0  0  0  0
   38.1180   25.4930   36.4550 C   0  0  0  0  0  0  0  0  0  0  0  0
   38.0840   25.3170   37.8170 N   0  0  0  0  0  0  0  0  0  0  0  0
   37.9850   24.1060   38.3690 C   0  0  0  0  0  0  0  0  0  0  0  0
   37.9120   23.0010   37.6080 N   0  0  0  0  0  0  0  0  0  0  0  0
   37.7665   27.2074   33.1735 H   0  0  0  0  0  0  0  0  0  0  0  0
   39.3823   27.3037   31.3128 H   0  0  0  0  0  0  0  0  0  0  0  0
   42.6862   24.8760   35.4195 H   0  0  0  0  0  0  0  0  0  0  0  0
   45.4030   25.0597   35.4132 H   0  0  0  0  0  0  0  0  0  0  0  0
   46.0041   27.1973   33.8729 H   0  0  0  0  0  0  0  0  0  0  0  0
   38.5635   27.5563   36.6023 H   0  0  0  0  0  0  0  0  0  0  0  0
   37.2387   27.0949   35.4269 H   0  0  0  0  0  0  0  0  0  0  0  0
   37.8776   22.1671   35.6713 H   0  0  0  0  0  0  0  0  0  0  0  0
   38.0678   24.4282   34.5643 H   0  0  0  0  0  0  0  0  0  0  0  0
   37.9628   24.0109   39.4647 H   0  0  0  0  0  0  0  0  0  0  0  0
  1  6  1  0
  1 12  1  0
  2  1  2  0
  3  4  2  0
  3  2  1  0
  4  5  1  0
  5  7  1  0
  5  6  2  0
  7  8  2  0
  9  8  1  0
 10  9  2  0
 11 10  1  0
 11  7  1  0
 12 15  1  0
 13 18  2  0
 14 13  1  0
 14 15  2  0
 15 16  1  0
 16 17  2  0
 18 17  1  0
  2 19  1  0
  3 20  1  0
  8 21  1  0
  9 22  1  0
 10 23  1  0
 12 24  1  0
 12 25  1  0
 13 26  1  0
 14 27  1  0
 17 28  1  0
M  ISO  8  19  14  20  14  21  14  22  14  23  14  24   8  25   8  26  14
M  ISO  2  27  14  28  14
M  END
>  <minimizedAffinity>  (1) 
-4.06927776

>  <minimizedRMSD>  (1) 
0.561059892

$$$$
