
     RDKit          3D

 32 34  0  0  0  0  0  0  0  0999 V2000
   38.4660   24.5090   33.5640 C   0  0  0  0  0  0  0  0  0  0  0  0
   37.7430   25.6140   33.2300 C   0  0  0  0  0  0  0  0  0  0  0  0
   36.6660   25.5910   32.3760 C   0  0  0  0  0  0  0  0  0  0  0  0
   36.3110   24.4040   31.8420 N   0  0  0  0  0  0  0  0  0  0  0  0
   37.0030   23.2830   32.1460 C   0  0  0  0  0  0  0  0  0  0  0  0
   38.0430   23.3440   32.9790 N   0  0  0  0  0  0  0  0  0  0  0  0
   36.7310   21.9720   31.6520 N   0  0  0  0  0  0  0  0  0  0  0  0
   37.6730   21.5400   30.7610 C   0  0  0  0  0  0  0  0  0  0  0  0
   37.5480   20.2800   30.1920 C   0  0  0  0  0  0  0  0  0  0  0  0
   36.4810   19.5110   30.5420 C   0  0  0  0  0  0  0  0  0  0  0  0
   36.3700   18.2330   29.9530 N   0  0  0  0  0  0  0  0  0  0  0  0
   35.5790   19.9580   31.4120 N   0  0  0  0  0  0  0  0  0  0  0  0
   35.6930   21.1750   31.9680 C   0  0  0  0  0  0  0  0  0  0  0  0
   34.9080   21.6950   32.7940 O   0  0  0  0  0  0  0  0  0  0  0  0
   39.6270   24.4960   34.4760 C   0  0  0  0  0  0  0  0  0  0  0  0
   37.8880   24.1170   37.8380 C   0  0  0  0  0  0  0  0  0  0  0  0
   38.1720   24.5570   36.5160 C   0  0  0  0  0  0  0  0  0  0  0  0
   39.2950   24.0570   35.8680 C   0  0  0  0  0  0  0  0  0  0  0  0
   40.0840   23.1500   36.5490 N   0  0  0  0  0  0  0  0  0  0  0  0
   39.7780   22.7660   37.7860 C   0  0  0  0  0  0  0  0  0  0  0  0
   38.6970   23.2390   38.4270 N   0  0  0  0  0  0  0  0  0  0  0  0
   38.0375   26.5790   33.6682 H   0  0  0  0  0  0  0  0  0  0  0  0
   36.1118   26.5103   32.1359 H   0  0  0  0  0  0  0  0  0  0  0  0
   38.5235   22.1856   30.4968 H   0  0  0  0  0  0  0  0  0  0  0  0
   38.2951   19.9111   29.4738 H   0  0  0  0  0  0  0  0  0  0  0  0
   35.5761   17.6224   30.1933 H   0  0  0  0  0  0  0  0  0  0  0  0
   37.0829   17.9111   29.2829 H   0  0  0  0  0  0  0  0  0  0  0  0
   40.3825   23.8094   34.0664 H   0  0  0  0  0  0  0  0  0  0  0  0
   39.9930   25.5310   34.5445 H   0  0  0  0  0  0  0  0  0  0  0  0
   37.0051   24.4998   38.3708 H   0  0  0  0  0  0  0  0  0  0  0  0
   37.5135   25.2814   36.0144 H   0  0  0  0  0  0  0  0  0  0  0  0
   40.4285   22.0412   38.2974 H   0  0  0  0  0  0  0  0  0  0  0  0
  1 15  1  0
  2  1  2  0
  3  2  1  0
  4  5  1  0
  4  3  2  0
  5  6  2  0
  6  1  1  0
  7 13  1  0
  7  5  1  0
  8  7  1  0
  9 10  1  0
  9  8  2  0
 10 12  2  0
 11 10  1  0
 12 13  1  0
 13 14  2  0
 15 18  1  0
 16 21  2  0
 17 16  1  0
 18 17  2  0
 18 19  1  0
 19 20  2  0
 20 21  1  0
  2 22  1  0
  3 23  1  0
  8 24  1  0
  9 25  1  0
 11 26  1  0
 11 27  1  0
 15 28  1  0
 15 29  1  0
 16 30  1  0
 17 31  1  0
 20 32  1  0
M  ISO  8  22  14  23  14  24  14  25  14  28   8  29   8  30  14  31  14
M  ISO  1  32  14
M  END
>  <minimizedAffinity>  (1) 
-5.40136194

>  <minimizedRMSD>  (1) 
7.28063345

$$$$
