
     RDKit          3D

 48 52  0  0  0  0  0  0  0  0999 V2000
   38.7450   25.2600   33.0260 C   0  0  0  0  0  0  0  0  0  0  0  0
   37.5140   24.8410   32.3240 C   0  0  0  0  0  0  0  0  0  0  0  0
   36.5490   25.6840   31.8410 C   0  0  0  0  0  0  0  0  0  0  0  0
   35.4120   25.2540   31.1950 C   0  0  0  0  0  0  0  0  0  0  0  0
   35.2500   23.9260   31.0310 N   0  0  0  0  0  0  0  0  0  0  0  0
   36.1790   23.0660   31.4930 C   0  0  0  0  0  0  0  0  0  0  0  0
   37.2720   23.5120   32.1170 N   0  0  0  0  0  0  0  0  0  0  0  0
   36.1270   21.6440   31.3850 N   0  0  0  0  0  0  0  0  0  0  0  0
   37.0340   21.1310   30.5050 C   0  0  0  0  0  0  0  0  0  0  0  0
   37.1140   19.7680   30.2850 C   0  0  0  0  0  0  0  0  0  0  0  0
   36.2510   18.9690   30.9830 C   0  0  0  0  0  0  0  0  0  0  0  0
   36.3380   17.5680   30.7510 N   0  0  0  0  0  0  0  0  0  0  0  0
   35.3750   19.4760   31.8330 N   0  0  0  0  0  0  0  0  0  0  0  0
   35.3000   20.7980   32.0450 C   0  0  0  0  0  0  0  0  0  0  0  0
   34.5120   21.3830   32.8230 O   0  0  0  0  0  0  0  0  0  0  0  0
   37.9230   24.6030   36.6790 C   0  0  0  0  0  0  0  0  0  0  0  0
   37.8010   25.0850   35.3580 C   0  0  0  0  0  0  0  0  0  0  0  0
   38.7950   24.7850   34.4560 C   0  0  0  0  0  0  0  0  0  0  0  0
   39.8330   24.0290   34.9330 N   0  0  0  0  0  0  0  0  0  0  0  0
   39.9450   23.5830   36.1580 C   0  0  0  0  0  0  0  0  0  0  0  0
   38.9850   23.8770   37.0180 N   0  0  0  0  0  0  0  0  0  0  0  0
   41.1720   22.8130   36.3240 C   0  0  0  0  0  0  0  0  0  0  0  0
   41.1770   21.4870   36.6980 C   0  0  0  0  0  0  0  0  0  0  0  0
   42.3080   20.7190   36.8670 C   0  0  0  0  0  0  0  0  0  0  0  0
   43.5480   21.2740   36.6580 C   0  0  0  0  0  0  0  0  0  0  0  0
   43.6130   22.5960   36.2820 C   0  0  0  0  0  0  0  0  0  0  0  0
   44.8660   23.1310   36.0780 C   0  0  0  0  0  0  0  0  0  0  0  0
   45.0060   24.4490   35.7000 C   0  0  0  0  0  0  0  0  0  0  0  0
   43.8360   25.1910   35.5390 C   0  0  0  0  0  0  0  0  0  0  0  0
   42.6180   24.6040   35.7560 C   0  0  0  0  0  0  0  0  0  0  0  0
   42.4440   23.2990   36.1320 C   0  0  0  0  0  0  0  0  0  0  0  0
   38.7964   26.3588   33.0191 H   0  0  0  0  0  0  0  0  0  0  0  0
   39.5969   24.8072   32.4976 H   0  0  0  0  0  0  0  0  0  0  0  0
   36.6904   26.7664   31.9770 H   0  0  0  0  0  0  0  0  0  0  0  0
   34.6621   25.9690   30.8257 H   0  0  0  0  0  0  0  0  0  0  0  0
   37.7099   21.8094   29.9638 H   0  0  0  0  0  0  0  0  0  0  0  0
   37.8419   19.3439   29.5776 H   0  0  0  0  0  0  0  0  0  0  0  0
   35.7102   16.9231   31.2518 H   0  0  0  0  0  0  0  0  0  0  0  0
   37.0288   17.1987   30.0822 H   0  0  0  0  0  0  0  0  0  0  0  0
   37.1447   24.8263   37.4236 H   0  0  0  0  0  0  0  0  0  0  0  0
   36.9309   25.6868   35.0568 H   0  0  0  0  0  0  0  0  0  0  0  0
   40.2042   21.0051   36.8751 H   0  0  0  0  0  0  0  0  0  0  0  0
   42.2191   19.6648   37.1683 H   0  0  0  0  0  0  0  0  0  0  0  0
   44.4632   20.6777   36.7878 H   0  0  0  0  0  0  0  0  0  0  0  0
   45.7587   22.5035   36.2174 H   0  0  0  0  0  0  0  0  0  0  0  0
   45.9970   24.8961   35.5326 H   0  0  0  0  0  0  0  0  0  0  0  0
   43.8917   26.2475   35.2378 H   0  0  0  0  0  0  0  0  0  0  0  0
   41.7188   25.2226   35.6190 H   0  0  0  0  0  0  0  0  0  0  0  0
  1 18  1  0
  2  1  1  0
  3  2  2  0
  4  3  1  0
  5  4  2  0
  5  6  1  0
  6  7  2  0
  7  2  1  0
  8  6  1  0
  8 14  1  0
  9  8  1  0
 10  9  2  0
 10 11  1  0
 11 13  2  0
 12 11  1  0
 13 14  1  0
 14 15  2  0
 16 21  2  0
 17 16  1  0
 18 19  1  0
 18 17  2  0
 19 20  2  0
 20 22  1  0
 20 21  1  0
 22 23  2  0
 23 24  1  0
 25 24  2  0
 26 25  1  0
 27 26  2  0
 28 27  1  0
 29 28  2  0
 29 30  1  0
 30 31  2  0
 31 26  1  0
 31 22  1  0
  1 32  1  0
  1 33  1  0
  3 34  1  0
  4 35  1  0
  9 36  1  0
 10 37  1  0
 12 38  1  0
 12 39  1  0
 16 40  1  0
 17 41  1  0
 23 42  1  0
 24 43  1  0
 25 44  1  0
 27 45  1  0
 28 46  1  0
 29 47  1  0
 30 48  1  0
M  ISO  8  32   8  33   8  34  14  35  14  36  14  37  14  40  14  41  14
M  ISO  7  42  14  43  14  44  14  45  14  46  14  47  14  48  14
M  END
>  <minimizedAffinity>  (1) 
-6.7284193

>  <minimizedRMSD>  (1) 
1.84749615

$$$$
