
     RDKit          3D

 33 35  0  0  0  0  0  0  0  0999 V2000
   38.3470   24.6310   33.4660 C   0  0  0  0  0  0  0  0  0  0  0  0
   37.5920   25.7120   33.0990 C   0  0  0  0  0  0  0  0  0  0  0  0
   36.5170   25.6410   32.2600 C   0  0  0  0  0  0  0  0  0  0  0  0
   36.1860   24.4260   31.7650 N   0  0  0  0  0  0  0  0  0  0  0  0
   36.9060   23.3380   32.1030 C   0  0  0  0  0  0  0  0  0  0  0  0
   37.9500   23.4420   32.9260 N   0  0  0  0  0  0  0  0  0  0  0  0
   36.6610   21.9970   31.6500 N   0  0  0  0  0  0  0  0  0  0  0  0
   37.6160   21.5590   30.7670 C   0  0  0  0  0  0  0  0  0  0  0  0
   37.5230   20.2890   30.2400 C   0  0  0  0  0  0  0  0  0  0  0  0
   36.4780   19.5030   30.6150 C   0  0  0  0  0  0  0  0  0  0  0  0
   36.3840   18.1980   30.0720 N   0  0  0  0  0  0  0  0  0  0  0  0
   35.5750   19.9540   31.4680 N   0  0  0  0  0  0  0  0  0  0  0  0
   35.6510   21.1920   31.9920 C   0  0  0  0  0  0  0  0  0  0  0  0
   34.8630   21.7190   32.7980 O   0  0  0  0  0  0  0  0  0  0  0  0
   39.5100   24.6810   34.3690 C   0  0  0  0  0  0  0  0  0  0  0  0
   37.9440   24.2540   37.8120 C   0  0  0  0  0  0  0  0  0  0  0  0
   38.1970   24.7450   36.4950 C   0  0  0  0  0  0  0  0  0  0  0  0
   39.2180   24.1890   35.7540 C   0  0  0  0  0  0  0  0  0  0  0  0
   39.9480   23.1730   36.3350 N   0  0  0  0  0  0  0  0  0  0  0  0
   39.6890   22.7400   37.5570 C   0  0  0  0  0  0  0  0  0  0  0  0
   38.7050   23.2630   38.2960 N   0  0  0  0  0  0  0  0  0  0  0  0
   40.5100   21.7110   38.0060 O   0  0  0  0  0  0  0  0  0  0  0  0
   37.8677   26.6968   33.5041 H   0  0  0  0  0  0  0  0  0  0  0  0
   35.9405   26.5398   31.9959 H   0  0  0  0  0  0  0  0  0  0  0  0
   38.4500   22.2171   30.4819 H   0  0  0  0  0  0  0  0  0  0  0  0
   38.2780   19.9186   29.5309 H   0  0  0  0  0  0  0  0  0  0  0  0
   35.6021   17.5836   30.3403 H   0  0  0  0  0  0  0  0  0  0  0  0
   37.0976   17.8635   29.4088 H   0  0  0  0  0  0  0  0  0  0  0  0
   40.3095   24.0587   33.9406 H   0  0  0  0  0  0  0  0  0  0  0  0
   39.8031   25.7375   34.4580 H   0  0  0  0  0  0  0  0  0  0  0  0
   37.1350   24.6837   38.4211 H   0  0  0  0  0  0  0  0  0  0  0  0
   37.5844   25.5573   36.0767 H   0  0  0  0  0  0  0  0  0  0  0  0
   40.3790   21.3324   38.9113 H   0  0  0  0  0  0  0  0  0  0  0  0
  1 15  1  0
  2  1  2  0
  3  2  1  0
  4  5  1  0
  4  3  2  0
  5  6  2  0
  6  1  1  0
  7 13  1  0
  7  5  1  0
  8  7  1  0
  9 10  1  0
  9  8  2  0
 10 12  2  0
 11 10  1  0
 12 13  1  0
 13 14  2  0
 15 18  1  0
 16 21  2  0
 17 16  1  0
 18 19  1  0
 18 17  2  0
 19 20  2  0
 20 22  1  0
 20 21  1  0
  2 23  1  0
  3 24  1  0
  8 25  1  0
  9 26  1  0
 11 27  1  0
 11 28  1  0
 15 29  1  0
 15 30  1  0
 16 31  1  0
 17 32  1  0
 22 33  1  0
M  ISO  8  23  14  24  14  25  14  26  14  29   8  30   8  31  14  32  14
M  ISO  1  33   3
M  END
>  <minimizedAffinity>  (1) 
-6.17028284

>  <minimizedRMSD>  (1) 
0.175550684

$$$$
