
     RDKit          3D

 47 50  0  0  0  0  0  0  0  0999 V2000
   37.7100   24.6620   32.5050 C   0  0  0  0  0  0  0  0  0  0  0  0
   36.7660   25.5340   32.0660 C   0  0  0  0  0  0  0  0  0  0  0  0
   35.6240   25.1520   31.4140 C   0  0  0  0  0  0  0  0  0  0  0  0
   35.4250   23.8330   31.1950 N   0  0  0  0  0  0  0  0  0  0  0  0
   36.3450   22.9380   31.6210 C   0  0  0  0  0  0  0  0  0  0  0  0
   37.4490   23.3450   32.2530 N   0  0  0  0  0  0  0  0  0  0  0  0
   36.2630   21.5220   31.4570 N   0  0  0  0  0  0  0  0  0  0  0  0
   37.1610   21.0470   30.5410 C   0  0  0  0  0  0  0  0  0  0  0  0
   37.2070   19.6850   30.2680 C   0  0  0  0  0  0  0  0  0  0  0  0
   36.3480   18.8570   30.9260 C   0  0  0  0  0  0  0  0  0  0  0  0
   36.3920   17.4750   30.6520 N   0  0  0  0  0  0  0  0  0  0  0  0
   35.4820   19.3570   31.8170 N   0  0  0  0  0  0  0  0  0  0  0  0
   35.4350   20.6630   32.0820 C   0  0  0  0  0  0  0  0  0  0  0  0
   34.6730   21.2380   32.8880 O   0  0  0  0  0  0  0  0  0  0  0  0
   38.9510   25.0400   33.2120 C   0  0  0  0  0  0  0  0  0  0  0  0
   38.1250   24.0960   36.7960 C   0  0  0  0  0  0  0  0  0  0  0  0
   37.9930   24.6350   35.4930 C   0  0  0  0  0  0  0  0  0  0  0  0
   39.0490   24.4850   34.6010 C   0  0  0  0  0  0  0  0  0  0  0  0
   40.1680   23.8160   35.0420 N   0  0  0  0  0  0  0  0  0  0  0  0
   40.2450   23.3300   36.2690 C   0  0  0  0  0  0  0  0  0  0  0  0
   39.2500   23.4570   37.1480 N   0  0  0  0  0  0  0  0  0  0  0  0
   41.4350   22.6470   36.6600 N   0  0  0  0  0  0  0  0  0  0  0  0
   41.5230   21.2980   37.0950 C   0  0  0  0  0  0  0  0  0  0  0  0
   42.6750   20.5150   36.6010 C   0  0  0  0  0  0  0  0  0  0  0  0
   43.8980   21.2590   36.2070 C   0  0  0  0  0  0  0  0  0  0  0  0
   43.5100   22.5640   35.5580 C   0  0  0  0  0  0  0  0  0  0  0  0
   42.7290   23.3050   36.6470 C   0  0  0  0  0  0  0  0  0  0  0  0
   36.9278   26.6074   32.2441 H   0  0  0  0  0  0  0  0  0  0  0  0
   34.8888   25.8979   31.0777 H   0  0  0  0  0  0  0  0  0  0  0  0
   37.8424   21.7385   30.0238 H   0  0  0  0  0  0  0  0  0  0  0  0
   37.9226   19.2835   29.5354 H   0  0  0  0  0  0  0  0  0  0  0  0
   35.7508   16.8327   31.1391 H   0  0  0  0  0  0  0  0  0  0  0  0
   37.0654   17.1074   29.9647 H   0  0  0  0  0  0  0  0  0  0  0  0
   39.8081   24.6707   32.6297 H   0  0  0  0  0  0  0  0  0  0  0  0
   38.9458   26.1361   33.3046 H   0  0  0  0  0  0  0  0  0  0  0  0
   37.3037   24.2017   37.5201 H   0  0  0  0  0  0  0  0  0  0  0  0
   37.0747   25.1611   35.1931 H   0  0  0  0  0  0  0  0  0  0  0  0
   41.5712   21.3046   38.1939 H   0  0  0  0  0  0  0  0  0  0  0  0
   40.6352   20.8010   36.6770 H   0  0  0  0  0  0  0  0  0  0  0  0
   42.9604   19.8124   37.3978 H   0  0  0  0  0  0  0  0  0  0  0  0
   42.3179   20.0539   35.6683 H   0  0  0  0  0  0  0  0  0  0  0  0
   44.5070   21.4614   37.1004 H   0  0  0  0  0  0  0  0  0  0  0  0
   44.4788   20.6553   35.4941 H   0  0  0  0  0  0  0  0  0  0  0  0
   44.4032   23.1336   35.2619 H   0  0  0  0  0  0  0  0  0  0  0  0
   42.9214   22.4203   34.6399 H   0  0  0  0  0  0  0  0  0  0  0  0
   43.2280   23.2058   37.6223 H   0  0  0  0  0  0  0  0  0  0  0  0
   42.6530   24.3851   36.4531 H   0  0  0  0  0  0  0  0  0  0  0  0
  1 15  1  0
  2  1  2  0
  3  2  1  0
  4  3  2  0
  4  5  1  0
  5  6  2  0
  6  1  1  0
  7  5  1  0
  7 13  1  0
  8  7  1  0
  9  8  2  0
  9 10  1  0
 10 12  2  0
 11 10  1  0
 12 13  1  0
 13 14  2  0
 15 18  1  0
 16 21  2  0
 17 16  1  0
 18 19  1  0
 18 17  2  0
 19 20  2  0
 20 22  1  0
 20 21  1  0
 22 23  1  0
 24 23  1  0
 25 24  1  0
 26 25  1  0
 26 27  1  0
 27 22  1  0
  2 28  1  0
  3 29  1  0
  8 30  1  0
  9 31  1  0
 11 32  1  0
 11 33  1  0
 15 34  1  0
 15 35  1  0
 16 36  1  0
 17 37  1  0
 23 38  1  0
 23 39  1  0
 24 40  1  0
 24 41  1  0
 25 42  1  0
 25 43  1  0
 26 44  1  0
 26 45  1  0
 27 46  1  0
 27 47  1  0
M  ISO  8  28  14  29  14  30  14  31  14  34   8  35   8  36  14  37  14
M  ISO  8  38  13  39  13  40  13  41  13  42  13  43  13  44  13  45  13
M  ISO  2  46  13  47  13
M  END
>  <minimizedAffinity>  (1) 
-6.12451649

>  <minimizedRMSD>  (1) 
1.59333217

$$$$
