
     RDKit          3D

 38 41  0  0  0  0  0  0  0  0999 V2000
   37.3890   24.9860   32.3270 C   0  0  0  0  0  0  0  0  0  0  0  0
   36.4200   25.7990   31.8250 C   0  0  0  0  0  0  0  0  0  0  0  0
   35.3050   25.3470   31.1680 C   0  0  0  0  0  0  0  0  0  0  0  0
   35.1650   24.0140   31.0130 N   0  0  0  0  0  0  0  0  0  0  0  0
   36.1000   23.1710   31.4960 C   0  0  0  0  0  0  0  0  0  0  0  0
   37.1790   23.6450   32.1330 N   0  0  0  0  0  0  0  0  0  0  0  0
   36.0740   21.7500   31.4000 N   0  0  0  0  0  0  0  0  0  0  0  0
   37.0140   21.2580   30.5250 C   0  0  0  0  0  0  0  0  0  0  0  0
   37.1150   19.8850   30.3220 C   0  0  0  0  0  0  0  0  0  0  0  0
   36.2700   19.0630   31.0040 C   0  0  0  0  0  0  0  0  0  0  0  0
   36.3900   17.6790   30.7820 N   0  0  0  0  0  0  0  0  0  0  0  0
   35.3650   19.5690   31.8500 N   0  0  0  0  0  0  0  0  0  0  0  0
   35.2650   20.8920   32.0480 C   0  0  0  0  0  0  0  0  0  0  0  0
   34.4680   21.4730   32.8050 O   0  0  0  0  0  0  0  0  0  0  0  0
   38.6070   25.4410   33.0440 C   0  0  0  0  0  0  0  0  0  0  0  0
   37.9430   24.6770   36.7000 C   0  0  0  0  0  0  0  0  0  0  0  0
   37.8040   25.2100   35.3850 C   0  0  0  0  0  0  0  0  0  0  0  0
   38.7450   24.8880   34.4170 C   0  0  0  0  0  0  0  0  0  0  0  0
   39.7800   24.0550   34.7800 N   0  0  0  0  0  0  0  0  0  0  0  0
   39.8720   23.5780   36.0220 C   0  0  0  0  0  0  0  0  0  0  0  0
   38.9770   23.8760   36.9660 N   0  0  0  0  0  0  0  0  0  0  0  0
   40.9290   22.7160   36.4290 N   0  0  0  0  0  0  0  0  0  0  0  0
   42.2290   23.0630   36.4280 C   0  0  0  0  0  0  0  0  0  0  0  0
   42.9740   22.0250   36.8670 N   0  0  0  0  0  0  0  0  0  0  0  0
   42.1060   21.0140   37.1450 C   0  0  0  0  0  0  0  0  0  0  0  0
   40.8720   21.4690   36.8680 N   0  0  0  0  0  0  0  0  0  0  0  0
   36.5387   26.8849   31.9543 H   0  0  0  0  0  0  0  0  0  0  0  0
   34.5502   26.0471   30.7804 H   0  0  0  0  0  0  0  0  0  0  0  0
   37.6830   21.9466   29.9881 H   0  0  0  0  0  0  0  0  0  0  0  0
   37.8607   19.4728   29.6262 H   0  0  0  0  0  0  0  0  0  0  0  0
   35.7703   17.0223   31.2776 H   0  0  0  0  0  0  0  0  0  0  0  0
   37.0975   17.3224   30.1238 H   0  0  0  0  0  0  0  0  0  0  0  0
   39.4868   25.1358   32.4586 H   0  0  0  0  0  0  0  0  0  0  0  0
   38.5244   26.5329   33.1485 H   0  0  0  0  0  0  0  0  0  0  0  0
   37.2099   24.9219   37.4827 H   0  0  0  0  0  0  0  0  0  0  0  0
   36.9590   25.8702   35.1400 H   0  0  0  0  0  0  0  0  0  0  0  0
   42.6244   24.0414   36.1175 H   0  0  0  0  0  0  0  0  0  0  0  0
   42.3652   20.0145   37.5243 H   0  0  0  0  0  0  0  0  0  0  0  0
  1 15  1  0
  2  1  2  0
  3  2  1  0
  4  3  2  0
  4  5  1  0
  5  6  2  0
  6  1  1  0
  7  5  1  0
  7 13  1  0
  8  7  1  0
  9  8  2  0
  9 10  1  0
 10 12  2  0
 11 10  1  0
 12 13  1  0
 13 14  2  0
 15 18  1  0
 16 21  2  0
 17 16  1  0
 18 19  1  0
 18 17  2  0
 19 20  2  0
 20 22  1  0
 20 21  1  0
 22 26  1  0
 23 22  1  0
 23 24  2  0
 24 25  1  0
 26 25  2  0
  2 27  1  0
  3 28  1  0
  8 29  1  0
  9 30  1  0
 11 31  1  0
 11 32  1  0
 15 33  1  0
 15 34  1  0
 16 35  1  0
 17 36  1  0
 23 37  1  0
 25 38  1  0
M  ISO  8  27  14  28  14  29  14  30  14  33   8  34   8  35  14  36  14
M  ISO  2  37  14  38  14
M  END
>  <minimizedAffinity>  (1) 
-5.81650496

>  <minimizedRMSD>  (1) 
1.69415605

$$$$
