
     RDKit          3D

 48 51  0  0  0  0  0  0  0  0999 V2000
   37.5600   24.8030   32.5890 C   0  0  0  0  0  0  0  0  0  0  0  0
   36.6400   25.6650   32.0750 C   0  0  0  0  0  0  0  0  0  0  0  0
   35.5370   25.2720   31.3380 C   0  0  0  0  0  0  0  0  0  0  0  0
   35.3720   23.9510   31.1210 N   0  0  0  0  0  0  0  0  0  0  0  0
   36.2650   23.0630   31.6160 C   0  0  0  0  0  0  0  0  0  0  0  0
   37.3150   23.4810   32.3220 N   0  0  0  0  0  0  0  0  0  0  0  0
   36.2020   21.6440   31.4570 N   0  0  0  0  0  0  0  0  0  0  0  0
   37.1700   21.1590   30.6090 C   0  0  0  0  0  0  0  0  0  0  0  0
   37.2450   19.8050   30.3490 C   0  0  0  0  0  0  0  0  0  0  0  0
   36.3380   18.9860   30.9550 C   0  0  0  0  0  0  0  0  0  0  0  0
   36.4310   17.5960   30.6720 N   0  0  0  0  0  0  0  0  0  0  0  0
   35.4110   19.4710   31.7700 N   0  0  0  0  0  0  0  0  0  0  0  0
   35.3370   20.7900   32.0250 C   0  0  0  0  0  0  0  0  0  0  0  0
   34.5170   21.3620   32.7670 O   0  0  0  0  0  0  0  0  0  0  0  0
   38.7410   25.1880   33.3750 C   0  0  0  0  0  0  0  0  0  0  0  0
   37.9440   24.0760   36.9300 C   0  0  0  0  0  0  0  0  0  0  0  0
   37.8420   24.7300   35.6680 C   0  0  0  0  0  0  0  0  0  0  0  0
   38.8190   24.5130   34.7180 C   0  0  0  0  0  0  0  0  0  0  0  0
   39.8610   23.6630   35.0360 N   0  0  0  0  0  0  0  0  0  0  0  0
   39.9190   23.0740   36.2210 C   0  0  0  0  0  0  0  0  0  0  0  0
   38.9800   23.2680   37.1650 N   0  0  0  0  0  0  0  0  0  0  0  0
   41.1180   22.1910   36.3800 C   0  0  0  0  0  0  0  0  0  0  0  0
   42.2000   23.0270   36.9770 C   0  0  0  0  0  0  0  0  0  0  0  0
   43.5480   22.8280   36.3450 C   0  0  0  0  0  0  0  0  0  0  0  0
   43.6720   21.3470   36.0060 C   0  0  0  0  0  0  0  0  0  0  0  0
   42.7860   21.1350   34.7910 C   0  0  0  0  0  0  0  0  0  0  0  0
   41.4150   21.6520   35.0210 C   0  0  0  0  0  0  0  0  0  0  0  0
   36.7825   26.7405   32.2569 H   0  0  0  0  0  0  0  0  0  0  0  0
   34.8217   26.0089   30.9439 H   0  0  0  0  0  0  0  0  0  0  0  0
   37.8846   21.8499   30.1378 H   0  0  0  0  0  0  0  0  0  0  0  0
   38.0127   19.3992   29.6738 H   0  0  0  0  0  0  0  0  0  0  0  0
   35.7687   16.9368   31.1053 H   0  0  0  0  0  0  0  0  0  0  0  0
   37.1606   17.2481   30.0337 H   0  0  0  0  0  0  0  0  0  0  0  0
   39.6415   24.9245   32.8008 H   0  0  0  0  0  0  0  0  0  0  0  0
   38.6647   26.2693   33.5621 H   0  0  0  0  0  0  0  0  0  0  0  0
   37.1771   24.2354   37.7023 H   0  0  0  0  0  0  0  0  0  0  0  0
   36.9955   25.3991   35.4540 H   0  0  0  0  0  0  0  0  0  0  0  0
   40.9832   21.3312   37.0527 H   0  0  0  0  0  0  0  0  0  0  0  0
   41.9197   24.0850   36.8669 H   0  0  0  0  0  0  0  0  0  0  0  0
   42.2944   22.7198   38.0290 H   0  0  0  0  0  0  0  0  0  0  0  0
   43.6280   23.4323   35.4293 H   0  0  0  0  0  0  0  0  0  0  0  0
   44.3504   23.1407   37.0294 H   0  0  0  0  0  0  0  0  0  0  0  0
   44.7158   21.0924   35.7701 H   0  0  0  0  0  0  0  0  0  0  0  0
   43.3697   20.7081   36.8488 H   0  0  0  0  0  0  0  0  0  0  0  0
   42.7300   20.0583   34.5730 H   0  0  0  0  0  0  0  0  0  0  0  0
   43.2242   21.6838   33.9444 H   0  0  0  0  0  0  0  0  0  0  0  0
   41.2385   22.4607   34.2965 H   0  0  0  0  0  0  0  0  0  0  0  0
   40.7556   20.7789   34.9075 H   0  0  0  0  0  0  0  0  0  0  0  0
  1 15  1  0
  2  1  2  0
  3  2  1  0
  4  3  2  0
  4  5  1  0
  5  6  2  0
  6  1  1  0
  7  5  1  0
  7 13  1  0
  8  7  1  0
  9  8  2  0
  9 10  1  0
 10 12  2  0
 11 10  1  0
 12 13  1  0
 13 14  2  0
 15 18  1  0
 16 21  2  0
 17 16  1  0
 18 19  1  0
 18 17  2  0
 19 20  2  0
 20 22  1  0
 20 21  1  0
 22 23  1  0
 24 23  1  0
 25 24  1  0
 26 27  1  0
 26 25  1  0
 27 22  1  0
  2 28  1  0
  3 29  1  0
  8 30  1  0
  9 31  1  0
 11 32  1  0
 11 33  1  0
 15 34  1  0
 15 35  1  0
 16 36  1  0
 17 37  1  0
 22 38  1  0
 23 39  1  0
 23 40  1  0
 24 41  1  0
 24 42  1  0
 25 43  1  0
 25 44  1  0
 26 45  1  0
 26 46  1  0
 27 47  1  0
 27 48  1  0
M  ISO  8  28  14  29  14  30  14  31  14  34   8  35   8  36  14  37  14
M  ISO  8  38  13  39  13  40  13  41  13  42  13  43  13  44  13  45  13
M  ISO  3  46  13  47  13  48  13
M  END
>  <minimizedAffinity>  (1) 
-5.80916166

>  <minimizedRMSD>  (1) 
1.5279212

$$$$
