
     RDKit          3D

 35 37  0  0  0  0  0  0  0  0999 V2000
   37.9860   24.6820   33.0770 C   0  0  0  0  0  0  0  0  0  0  0  0
   37.1560   25.6780   32.6420 C   0  0  0  0  0  0  0  0  0  0  0  0
   36.0590   25.4590   31.8320 C   0  0  0  0  0  0  0  0  0  0  0  0
   35.8040   24.1900   31.4590 N   0  0  0  0  0  0  0  0  0  0  0  0
   36.6020   23.1840   31.8700 C   0  0  0  0  0  0  0  0  0  0  0  0
   37.6560   23.4320   32.6530 N   0  0  0  0  0  0  0  0  0  0  0  0
   36.4350   21.8010   31.5410 N   0  0  0  0  0  0  0  0  0  0  0  0
   37.3980   21.3500   30.6670 C   0  0  0  0  0  0  0  0  0  0  0  0
   37.3710   20.0260   30.2520 C   0  0  0  0  0  0  0  0  0  0  0  0
   36.3890   19.2210   30.7290 C   0  0  0  0  0  0  0  0  0  0  0  0
   36.3910   17.8710   30.2830 N   0  0  0  0  0  0  0  0  0  0  0  0
   35.4650   19.6860   31.5790 N   0  0  0  0  0  0  0  0  0  0  0  0
   35.4920   20.9610   31.9770 C   0  0  0  0  0  0  0  0  0  0  0  0
   34.6910   21.5050   32.7600 O   0  0  0  0  0  0  0  0  0  0  0  0
   39.1660   24.8950   33.9430 C   0  0  0  0  0  0  0  0  0  0  0  0
   37.8180   24.1090   37.4140 C   0  0  0  0  0  0  0  0  0  0  0  0
   37.9330   24.6790   36.1070 C   0  0  0  0  0  0  0  0  0  0  0  0
   39.0180   24.3130   35.3160 C   0  0  0  0  0  0  0  0  0  0  0  0
   39.9230   23.4200   35.8310 N   0  0  0  0  0  0  0  0  0  0  0  0
   39.7700   22.9170   37.0540 C   0  0  0  0  0  0  0  0  0  0  0  0
   38.7410   23.2470   37.8440 N   0  0  0  0  0  0  0  0  0  0  0  0
   40.7850   21.9520   37.5610 C   0  0  0  0  0  0  0  0  0  0  0  0
   37.3740   26.7100   32.9543 H   0  0  0  0  0  0  0  0  0  0  0  0
   35.4174   26.2900   31.5037 H   0  0  0  0  0  0  0  0  0  0  0  0
   38.1803   22.0315   30.3015 H   0  0  0  0  0  0  0  0  0  0  0  0
   38.1274   19.6389   29.5534 H   0  0  0  0  0  0  0  0  0  0  0  0
   35.6671   17.2179   30.6150 H   0  0  0  0  0  0  0  0  0  0  0  0
   37.1164   17.5461   29.6279 H   0  0  0  0  0  0  0  0  0  0  0  0
   40.0389   24.4305   33.4611 H   0  0  0  0  0  0  0  0  0  0  0  0
   39.2832   25.9819   34.0653 H   0  0  0  0  0  0  0  0  0  0  0  0
   36.9717   24.3804   38.0621 H   0  0  0  0  0  0  0  0  0  0  0  0
   37.1808   25.3905   35.7356 H   0  0  0  0  0  0  0  0  0  0  0  0
   40.7790   21.9577   38.6610 H   0  0  0  0  0  0  0  0  0  0  0  0
   40.5439   20.9419   37.1982 H   0  0  0  0  0  0  0  0  0  0  0  0
   41.7816   22.2437   37.1982 H   0  0  0  0  0  0  0  0  0  0  0  0
  1 15  1  0
  2  1  2  0
  3  2  1  0
  4  3  2  0
  4  5  1  0
  5  6  2  0
  6  1  1  0
  7  5  1  0
  7 13  1  0
  8  7  1  0
  9  8  2  0
  9 10  1  0
 10 12  2  0
 11 10  1  0
 12 13  1  0
 13 14  2  0
 15 18  1  0
 16 21  2  0
 17 16  1  0
 18 19  1  0
 18 17  2  0
 19 20  2  0
 20 22  1  0
 20 21  1  0
  2 23  1  0
  3 24  1  0
  8 25  1  0
  9 26  1  0
 11 27  1  0
 11 28  1  0
 15 29  1  0
 15 30  1  0
 16 31  1  0
 17 32  1  0
 22 33  1  0
 22 34  1  0
 22 35  1  0
M  ISO  8  23  14  24  14  25  14  26  14  29   8  30   8  31  14  32  14
M  ISO  3  33   8  34   8  35   8
M  END
>  <minimizedAffinity>  (1) 
-5.7003746

>  <minimizedRMSD>  (1) 
0.594496489

$$$$
