
     RDKit          3D

 45 48  0  0  0  0  0  0  0  0999 V2000
   36.9870   25.8880   32.6000 C   0  0  0  0  0  0  0  0  0  0  0  0
   35.9530   26.4740   31.9400 C   0  0  0  0  0  0  0  0  0  0  0  0
   35.1120   25.8010   31.0910 C   0  0  0  0  0  0  0  0  0  0  0  0
   35.3210   24.4860   30.9010 N   0  0  0  0  0  0  0  0  0  0  0  0
   36.3390   23.8650   31.5380 C   0  0  0  0  0  0  0  0  0  0  0  0
   37.1380   24.5460   32.3550 N   0  0  0  0  0  0  0  0  0  0  0  0
   36.6720   22.4800   31.4260 N   0  0  0  0  0  0  0  0  0  0  0  0
   37.8350   22.2660   30.7290 C   0  0  0  0  0  0  0  0  0  0  0  0
   38.2900   20.9700   30.5380 C   0  0  0  0  0  0  0  0  0  0  0  0
   37.5740   19.9420   31.0460 C   0  0  0  0  0  0  0  0  0  0  0  0
   38.0400   18.6280   30.8490 N   0  0  0  0  0  0  0  0  0  0  0  0
   36.4530   20.1720   31.7170 N   0  0  0  0  0  0  0  0  0  0  0  0
   35.9990   21.4220   31.9100 C   0  0  0  0  0  0  0  0  0  0  0  0
   34.9610   21.7640   32.5230 O   0  0  0  0  0  0  0  0  0  0  0  0
   37.9130   26.5760   33.5190 C   0  0  0  0  0  0  0  0  0  0  0  0
   41.5860   27.4810   33.0690 C   0  0  0  0  0  0  0  0  0  0  0  0
   40.3530   27.1130   33.6860 C   0  0  0  0  0  0  0  0  0  0  0  0
   39.2110   26.9600   32.8940 C   0  0  0  0  0  0  0  0  0  0  0  0
   39.3470   27.1760   31.5350 N   0  0  0  0  0  0  0  0  0  0  0  0
   40.5140   27.5150   31.0140 C   0  0  0  0  0  0  0  0  0  0  0  0
   41.6210   27.6700   31.7410 N   0  0  0  0  0  0  0  0  0  0  0  0
   40.5540   27.7160   29.6040 N   0  0  0  0  0  0  0  0  0  0  0  0
   39.9970   28.9090   28.9990 C   0  0  0  0  0  0  0  0  0  0  0  0
   39.1780   28.5200   27.7630 C   0  0  0  0  0  0  0  0  0  0  0  0
   39.9500   27.7600   26.8880 O   0  0  0  0  0  0  0  0  0  0  0  0
   40.1830   26.5290   27.5080 C   0  0  0  0  0  0  0  0  0  0  0  0
   41.1290   26.7930   28.6570 C   0  0  0  0  0  0  0  0  0  0  0  0
   35.7811   27.5493   32.0958 H   0  0  0  0  0  0  0  0  0  0  0  0
   34.2893   26.3223   30.5796 H   0  0  0  0  0  0  0  0  0  0  0  0
   38.4025   23.1171   30.3245 H   0  0  0  0  0  0  0  0  0  0  0  0
   39.2198   20.7813   29.9814 H   0  0  0  0  0  0  0  0  0  0  0  0
   37.5090   17.8310   31.2281 H   0  0  0  0  0  0  0  0  0  0  0  0
   38.9119   18.4638   30.3258 H   0  0  0  0  0  0  0  0  0  0  0  0
   37.4218   27.4893   33.8859 H   0  0  0  0  0  0  0  0  0  0  0  0
   38.1455   25.8672   34.3274 H   0  0  0  0  0  0  0  0  0  0  0  0
   42.4958   27.6081   33.6741 H   0  0  0  0  0  0  0  0  0  0  0  0
   40.3016   26.9515   34.7729 H   0  0  0  0  0  0  0  0  0  0  0  0
   39.3461   29.4186   29.7247 H   0  0  0  0  0  0  0  0  0  0  0  0
   40.8127   29.5842   28.7010 H   0  0  0  0  0  0  0  0  0  0  0  0
   38.3032   27.9324   28.0782 H   0  0  0  0  0  0  0  0  0  0  0  0
   38.8528   29.4360   27.2480 H   0  0  0  0  0  0  0  0  0  0  0  0
   39.2383   26.1090   27.8837 H   0  0  0  0  0  0  0  0  0  0  0  0
   40.6128   25.8048   26.8003 H   0  0  0  0  0  0  0  0  0  0  0  0
   41.3466   25.8436   29.1681 H   0  0  0  0  0  0  0  0  0  0  0  0
   42.0514   27.2367   28.2540 H   0  0  0  0  0  0  0  0  0  0  0  0
  1 15  1  0
  2  1  2  0
  3  2  1  0
  4  3  2  0
  4  5  1  0
  5  6  2  0
  6  1  1  0
  7  5  1  0
  7 13  1  0
  8  7  1  0
  9  8  2  0
  9 10  1  0
 10 12  2  0
 11 10  1  0
 12 13  1  0
 13 14  2  0
 16 17  2  0
 18 15  1  0
 18 17  1  0
 19 18  2  0
 20 19  1  0
 20 21  2  0
 21 16  1  0
 22 20  1  0
 23 22  1  0
 24 23  1  0
 25 26  1  0
 25 24  1  0
 26 27  1  0
 27 22  1  0
  2 28  1  0
  3 29  1  0
  8 30  1  0
  9 31  1  0
 11 32  1  0
 11 33  1  0
 15 34  1  0
 15 35  1  0
 16 36  1  0
 17 37  1  0
 23 38  1  0
 23 39  1  0
 24 40  1  0
 24 41  1  0
 26 42  1  0
 26 43  1  0
 27 44  1  0
 27 45  1  0
M  ISO  8  28  14  29  14  30  14  31  14  34   8  35   8  36  14  37  14
M  ISO  8  38  13  39  13  40  13  41  13  42  13  43  13  44  13  45  13
M  END
>  <minimizedAffinity>  (1) 
-5.27506113

>  <minimizedRMSD>  (1) 
6.84154272

$$$$
