
     RDKit          3D

 41 43  0  0  0  0  0  0  0  0999 V2000
   37.9240   24.4960   32.8130 C   0  0  0  0  0  0  0  0  0  0  0  0
   37.0370   25.4360   32.4040 C   0  0  0  0  0  0  0  0  0  0  0  0
   35.8910   25.1550   31.6850 C   0  0  0  0  0  0  0  0  0  0  0  0
   35.6540   23.8660   31.3790 N   0  0  0  0  0  0  0  0  0  0  0  0
   36.5040   22.9030   31.7640 C   0  0  0  0  0  0  0  0  0  0  0  0
   37.6100   23.2050   32.4620 N   0  0  0  0  0  0  0  0  0  0  0  0
   36.3670   21.4990   31.5040 N   0  0  0  0  0  0  0  0  0  0  0  0
   37.2820   21.0410   30.5830 C   0  0  0  0  0  0  0  0  0  0  0  0
   37.2790   19.7040   30.2230 C   0  0  0  0  0  0  0  0  0  0  0  0
   36.3650   18.8790   30.7940 C   0  0  0  0  0  0  0  0  0  0  0  0
   36.3650   17.5240   30.4250 N   0  0  0  0  0  0  0  0  0  0  0  0
   35.4930   19.3540   31.6820 N   0  0  0  0  0  0  0  0  0  0  0  0
   35.4850   20.6420   32.0400 C   0  0  0  0  0  0  0  0  0  0  0  0
   34.7220   21.1990   32.8550 O   0  0  0  0  0  0  0  0  0  0  0  0
   39.1510   24.7740   33.5800 C   0  0  0  0  0  0  0  0  0  0  0  0
   38.0390   23.4450   36.9630 C   0  0  0  0  0  0  0  0  0  0  0  0
   38.0060   24.0460   35.6700 C   0  0  0  0  0  0  0  0  0  0  0  0
   39.1720   24.1460   34.9380 C   0  0  0  0  0  0  0  0  0  0  0  0
   40.3280   23.6490   35.5140 N   0  0  0  0  0  0  0  0  0  0  0  0
   40.3160   23.1000   36.7170 C   0  0  0  0  0  0  0  0  0  0  0  0
   39.2040   22.9900   37.4440 N   0  0  0  0  0  0  0  0  0  0  0  0
   41.6490   22.6030   37.2140 C   0  0  0  0  0  0  0  0  0  0  0  0
   41.6970   21.1220   36.9340 C   0  0  0  0  0  0  0  0  0  0  0  0
   42.7890   23.3110   36.5720 C   0  0  0  0  0  0  0  0  0  0  0  0
   37.2420   26.4860   32.6600 H   0  0  0  0  0  0  0  0  0  0  0  0
   35.2001   25.9529   31.3751 H   0  0  0  0  0  0  0  0  0  0  0  0
   38.0109   21.7329   30.1359 H   0  0  0  0  0  0  0  0  0  0  0  0
   38.0024   19.3185   29.4894 H   0  0  0  0  0  0  0  0  0  0  0  0
   35.6820   16.8764   30.8432 H   0  0  0  0  0  0  0  0  0  0  0  0
   37.0480   17.1778   29.7361 H   0  0  0  0  0  0  0  0  0  0  0  0
   40.0104   24.3930   33.0088 H   0  0  0  0  0  0  0  0  0  0  0  0
   39.1937   25.8628   33.7308 H   0  0  0  0  0  0  0  0  0  0  0  0
   37.1185   23.3560   37.5587 H   0  0  0  0  0  0  0  0  0  0  0  0
   37.0592   24.4267   35.2595 H   0  0  0  0  0  0  0  0  0  0  0  0
   41.7473   22.8036   38.2911 H   0  0  0  0  0  0  0  0  0  0  0  0
   41.7149   20.5694   37.8850 H   0  0  0  0  0  0  0  0  0  0  0  0
   40.8079   20.8290   36.3564 H   0  0  0  0  0  0  0  0  0  0  0  0
   42.6032   20.8872   36.3564 H   0  0  0  0  0  0  0  0  0  0  0  0
   43.4502   23.7216   37.3493 H   0  0  0  0  0  0  0  0  0  0  0  0
   43.3537   22.6045   35.9460 H   0  0  0  0  0  0  0  0  0  0  0  0
   42.4060   24.1304   35.9460 H   0  0  0  0  0  0  0  0  0  0  0  0
  1 15  1  0
  2  1  2  0
  3  2  1  0
  4  3  2  0
  4  5  1  0
  5  6  2  0
  6  1  1  0
  7  5  1  0
  7 13  1  0
  8  7  1  0
  9  8  2  0
  9 10  1  0
 10 12  2  0
 11 10  1  0
 12 13  1  0
 13 14  2  0
 15 18  1  0
 16 21  2  0
 17 16  1  0
 18 19  1  0
 18 17  2  0
 19 20  2  0
 20 22  1  0
 20 21  1  0
 23 22  1  0
 24 22  1  0
  2 25  1  0
  3 26  1  0
  8 27  1  0
  9 28  1  0
 11 29  1  0
 11 30  1  0
 15 31  1  0
 15 32  1  0
 16 33  1  0
 17 34  1  0
 22 35  1  0
 23 36  1  0
 23 37  1  0
 23 38  1  0
 24 39  1  0
 24 40  1  0
 24 41  1  0
M  ISO  8  25  14  26  14  27  14  28  14  31   8  32   8  33  14  34  14
M  ISO  7  35   8  36   8  37   8  38   8  39   8  40   8  41   8
M  END
>  <minimizedAffinity>  (1) 
-5.53580713

>  <minimizedRMSD>  (1) 
1.12898934

$$$$
