
     RDKit          3D

 51 54  0  0  1  0  0  0  0  0999 V2000
   38.2050   23.5950   36.7350 C   0  0  0  0  0  0  0  0  0  0  0  0
   38.0770   24.1660   35.4340 C   0  0  0  0  0  0  0  0  0  0  0  0
   39.1860   24.2780   34.6280 C   0  0  0  0  0  0  0  0  0  0  0  0
   40.3850   23.8200   35.1360 N   0  0  0  0  0  0  0  0  0  0  0  0
   40.4630   23.2940   36.3570 C   0  0  0  0  0  0  0  0  0  0  0  0
   39.4120   23.1750   37.1520 N   0  0  0  0  0  0  0  0  0  0  0  0
   39.0660   24.8850   33.2610 C   0  0  0  0  0  0  0  0  0  0  0  0
   37.8190   24.5410   32.5660 C   0  0  0  0  0  0  0  0  0  0  0  0
   36.8840   25.4240   32.1450 C   0  0  0  0  0  0  0  0  0  0  0  0
   35.7200   25.0720   31.4930 C   0  0  0  0  0  0  0  0  0  0  0  0
   35.5120   23.7660   31.2680 N   0  0  0  0  0  0  0  0  0  0  0  0
   36.4080   22.8530   31.6660 C   0  0  0  0  0  0  0  0  0  0  0  0
   37.5310   23.2220   32.2980 N   0  0  0  0  0  0  0  0  0  0  0  0
   36.3020   21.4250   31.4850 N   0  0  0  0  0  0  0  0  0  0  0  0
   37.2020   20.9510   30.5460 C   0  0  0  0  0  0  0  0  0  0  0  0
   37.2270   19.5940   30.2550 C   0  0  0  0  0  0  0  0  0  0  0  0
   36.3560   18.7700   30.9130 C   0  0  0  0  0  0  0  0  0  0  0  0
   36.3860   17.4040   30.6190 N   0  0  0  0  0  0  0  0  0  0  0  0
   35.5050   19.2690   31.8110 N   0  0  0  0  0  0  0  0  0  0  0  0
   35.4740   20.5740   32.0960 C   0  0  0  0  0  0  0  0  0  0  0  0
   34.7360   21.1520   32.9040 O   0  0  0  0  0  0  0  0  0  0  0  0
   41.8380   22.8400   36.7640 C   0  0  1  0  0  0  0  0  0  0  0  0
   41.7050   21.3920   37.2220 C   0  0  0  0  0  0  0  0  0  0  0  0
   42.8270   22.9400   35.6790 C   0  0  0  0  0  0  0  0  0  0  0  0
   44.0870   23.5210   36.2650 C   0  0  0  0  0  0  0  0  0  0  0  0
   45.3660   23.0420   36.0530 C   0  0  0  0  0  0  0  0  0  0  0  0
   46.4370   23.6700   36.6520 C   0  0  0  0  0  0  0  0  0  0  0  0
   46.2660   24.7810   37.4720 C   0  0  0  0  0  0  0  0  0  0  0  0
   44.9890   25.2700   37.6930 C   0  0  0  0  0  0  0  0  0  0  0  0
   43.9200   24.6370   37.0900 C   0  0  0  0  0  0  0  0  0  0  0  0
   37.3261   23.4995   37.3895 H   0  0  0  0  0  0  0  0  0  0  0  0
   37.0967   24.5149   35.0773 H   0  0  0  0  0  0  0  0  0  0  0  0
   39.1160   25.9792   33.3620 H   0  0  0  0  0  0  0  0  0  0  0  0
   39.8911   24.4792   32.6573 H   0  0  0  0  0  0  0  0  0  0  0  0
   37.0637   26.4925   32.3350 H   0  0  0  0  0  0  0  0  0  0  0  0
   34.9923   25.8314   31.1708 H   0  0  0  0  0  0  0  0  0  0  0  0
   37.8896   21.6419   30.0362 H   0  0  0  0  0  0  0  0  0  0  0  0
   37.9311   19.1907   29.5123 H   0  0  0  0  0  0  0  0  0  0  0  0
   35.7416   16.7596   31.0990 H   0  0  0  0  0  0  0  0  0  0  0  0
   37.0525   17.0417   29.9223 H   0  0  0  0  0  0  0  0  0  0  0  0
   42.2105   23.4962   37.5644 H   0  0  0  0  0  0  0  0  0  0  0  0
   41.7015   21.3540   38.3213 H   0  0  0  0  0  0  0  0  0  0  0  0
   40.7644   20.9708   36.8376 H   0  0  0  0  0  0  0  0  0  0  0  0
   42.5531   20.8065   36.8376 H   0  0  0  0  0  0  0  0  0  0  0  0
   42.4458   23.5966   34.8830 H   0  0  0  0  0  0  0  0  0  0  0  0
   43.0242   21.9496   35.2429 H   0  0  0  0  0  0  0  0  0  0  0  0
   45.5284   22.1645   35.4099 H   0  0  0  0  0  0  0  0  0  0  0  0
   47.4519   23.2833   36.4774 H   0  0  0  0  0  0  0  0  0  0  0  0
   47.1356   25.2658   37.9398 H   0  0  0  0  0  0  0  0  0  0  0  0
   44.8292   26.1470   38.3374 H   0  0  0  0  0  0  0  0  0  0  0  0
   42.9049   25.0232   37.2644 H   0  0  0  0  0  0  0  0  0  0  0  0
  1  6  2  0
  2  1  1  0
  3  4  1  0
  3  2  2  0
  4  5  2  0
  5 22  1  0
  5  6  1  0
  7  3  1  0
  8  7  1  0
  9  8  2  0
 10  9  1  0
 11 10  2  0
 11 12  1  0
 12 13  2  0
 13  8  1  0
 14 12  1  0
 14 20  1  0
 15 14  1  0
 16 15  2  0
 16 17  1  0
 17 19  2  0
 18 17  1  0
 19 20  1  0
 20 21  2  0
 22 23  1  0
 24 25  1  0
 24 22  1  0
 25 30  1  0
 26 25  2  0
 26 27  1  0
 27 28  2  0
 28 29  1  0
 30 29  2  0
  1 31  1  0
  2 32  1  0
  7 33  1  0
  7 34  1  0
  9 35  1  0
 10 36  1  0
 15 37  1  0
 16 38  1  0
 18 39  1  0
 18 40  1  0
 22 41  1  1
 23 42  1  0
 23 43  1  0
 23 44  1  0
 24 45  1  0
 24 46  1  0
 26 47  1  0
 27 48  1  0
 28 49  1  0
 29 50  1  0
 30 51  1  0
M  ISO  8  31  14  32  14  33   8  34   8  35  14  36  14  37  14  38  14
M  ISO  8  41   8  42   8  43   8  44   8  45   8  46   8  47  14  48  14
M  ISO  3  49  14  50  14  51  14
M  END
>  <minimizedAffinity>  (1) 
-6.5881238

>  <minimizedRMSD>  (1) 
1.07366168

$$$$
