
     RDKit          3D

 57 60  0  0  1  0  0  0  0  0999 V2000
   39.1190   24.7980   33.2870 C   0  0  0  0  0  0  0  0  0  0  0  0
   37.8730   24.4810   32.5840 C   0  0  0  0  0  0  0  0  0  0  0  0
   36.9480   25.3760   32.1630 C   0  0  0  0  0  0  0  0  0  0  0  0
   35.7830   25.0470   31.5020 C   0  0  0  0  0  0  0  0  0  0  0  0
   35.5590   23.7420   31.2670 N   0  0  0  0  0  0  0  0  0  0  0  0
   36.4420   22.8160   31.6630 C   0  0  0  0  0  0  0  0  0  0  0  0
   37.5690   23.1690   32.3040 N   0  0  0  0  0  0  0  0  0  0  0  0
   36.3220   21.3900   31.4730 N   0  0  0  0  0  0  0  0  0  0  0  0
   37.2170   20.9040   30.5430 C   0  0  0  0  0  0  0  0  0  0  0  0
   37.2330   19.5580   30.2410 C   0  0  0  0  0  0  0  0  0  0  0  0
   36.3550   18.7410   30.8790 C   0  0  0  0  0  0  0  0  0  0  0  0
   36.3720   17.3710   30.5680 N   0  0  0  0  0  0  0  0  0  0  0  0
   35.4980   19.2450   31.7770 N   0  0  0  0  0  0  0  0  0  0  0  0
   35.4790   20.5510   32.0730 C   0  0  0  0  0  0  0  0  0  0  0  0
   34.7370   21.1320   32.8810 O   0  0  0  0  0  0  0  0  0  0  0  0
   38.1640   23.5850   36.7680 C   0  0  0  0  0  0  0  0  0  0  0  0
   38.0610   24.1270   35.4590 C   0  0  0  0  0  0  0  0  0  0  0  0
   39.2000   24.2220   34.6660 C   0  0  0  0  0  0  0  0  0  0  0  0
   40.3930   23.7720   35.2090 N   0  0  0  0  0  0  0  0  0  0  0  0
   40.4370   23.2760   36.4330 C   0  0  0  0  0  0  0  0  0  0  0  0
   39.3480   23.1770   37.2140 N   0  0  0  0  0  0  0  0  0  0  0  0
   41.8150   22.8230   36.8970 C   0  0  1  0  0  0  0  0  0  0  0  0
   41.7030   21.3320   37.0780 C   0  0  0  0  0  0  0  0  0  0  0  0
   42.8640   23.2440   35.9690 C   0  0  0  0  0  0  0  0  0  0  0  0
   44.2020   23.5450   36.4980 C   0  0  0  0  0  0  0  0  0  0  0  0
   45.3490   23.6740   35.5800 C   0  0  0  0  0  0  0  0  0  0  0  0
   45.3110   24.9410   34.7450 C   0  0  0  0  0  0  0  0  0  0  0  0
   45.5210   26.1080   35.7060 C   0  0  0  0  0  0  0  0  0  0  0  0
   45.3470   25.7040   37.1360 C   0  0  0  0  0  0  0  0  0  0  0  0
   44.1600   24.8240   37.3420 C   0  0  0  0  0  0  0  0  0  0  0  0
   39.2053   25.8920   33.3629 H   0  0  0  0  0  0  0  0  0  0  0  0
   39.9374   24.3495   32.7048 H   0  0  0  0  0  0  0  0  0  0  0  0
   37.1393   26.4407   32.3623 H   0  0  0  0  0  0  0  0  0  0  0  0
   35.0680   25.8188   31.1809 H   0  0  0  0  0  0  0  0  0  0  0  0
   37.9173   21.5889   30.0426 H   0  0  0  0  0  0  0  0  0  0  0  0
   37.9403   19.1557   29.5008 H   0  0  0  0  0  0  0  0  0  0  0  0
   35.7174   16.7284   31.0365 H   0  0  0  0  0  0  0  0  0  0  0  0
   37.0391   17.0092   29.8715 H   0  0  0  0  0  0  0  0  0  0  0  0
   37.2722   23.5036   37.4068 H   0  0  0  0  0  0  0  0  0  0  0  0
   37.0884   24.4689   35.0755 H   0  0  0  0  0  0  0  0  0  0  0  0
   42.1181   23.2914   37.8450 H   0  0  0  0  0  0  0  0  0  0  0  0
   41.6851   21.0933   38.1516 H   0  0  0  0  0  0  0  0  0  0  0  0
   40.7754   20.9741   36.6073 H   0  0  0  0  0  0  0  0  0  0  0  0
   42.5667   20.8396   36.6073 H   0  0  0  0  0  0  0  0  0  0  0  0
   42.5038   24.1534   35.4658 H   0  0  0  0  0  0  0  0  0  0  0  0
   43.0236   22.3616   35.3319 H   0  0  0  0  0  0  0  0  0  0  0  0
   44.4084   22.6194   37.0554 H   0  0  0  0  0  0  0  0  0  0  0  0
   46.2740   23.6759   36.1753 H   0  0  0  0  0  0  0  0  0  0  0  0
   45.3057   22.8237   34.8835 H   0  0  0  0  0  0  0  0  0  0  0  0
   46.1120   24.9221   33.9913 H   0  0  0  0  0  0  0  0  0  0  0  0
   44.3528   25.0349   34.2130 H   0  0  0  0  0  0  0  0  0  0  0  0
   46.5402   26.4990   35.5703 H   0  0  0  0  0  0  0  0  0  0  0  0
   44.7638   26.8725   35.4777 H   0  0  0  0  0  0  0  0  0  0  0  0
   46.2477   25.1629   37.4616 H   0  0  0  0  0  0  0  0  0  0  0  0
   45.1896   26.6198   37.7247 H   0  0  0  0  0  0  0  0  0  0  0  0
   43.2551   25.3895   37.0748 H   0  0  0  0  0  0  0  0  0  0  0  0
   44.1595   24.5182   38.3986 H   0  0  0  0  0  0  0  0  0  0  0  0
  1 18  1  0
  2  1  1  0
  3  2  2  0
  4  3  1  0
  5  4  2  0
  5  6  1  0
  6  7  2  0
  7  2  1  0
  8  6  1  0
  8 14  1  0
  9  8  1  0
 10  9  2  0
 10 11  1  0
 11 13  2  0
 12 11  1  0
 13 14  1  0
 14 15  2  0
 16 21  2  0
 17 16  1  0
 18 19  1  0
 18 17  2  0
 19 20  2  0
 20 22  1  0
 20 21  1  0
 22 23  1  0
 24 25  1  0
 24 22  1  0
 25 30  1  0
 26 25  1  0
 27 26  1  0
 27 28  1  0
 28 29  1  0
 29 30  1  0
  1 31  1  0
  1 32  1  0
  3 33  1  0
  4 34  1  0
  9 35  1  0
 10 36  1  0
 12 37  1  0
 12 38  1  0
 16 39  1  0
 17 40  1  0
 22 41  1  1
 23 42  1  0
 23 43  1  0
 23 44  1  0
 24 45  1  0
 24 46  1  0
 25 47  1  0
 26 48  1  0
 26 49  1  0
 27 50  1  0
 27 51  1  0
 28 52  1  0
 28 53  1  0
 29 54  1  0
 29 55  1  0
 30 56  1  0
 30 57  1  0
M  ISO  8  31   8  32   8  33  14  34  14  35  14  36  14  39  14  40  14
M  ISO  8  41   8  42   8  43   8  44   8  45   8  46   8  47  13  48  13
M  ISO  8  49  13  50  13  51  13  52  13  53  13  54  13  55  13  56  13
M  ISO  1  57  13
M  END
>  <minimizedAffinity>  (1) 
-6.30295992

>  <minimizedRMSD>  (1) 
0.651676416

$$$$
