
     RDKit          3D

 48 51  0  0  1  0  0  0  0  0999 V2000
   39.0700   24.8710   33.2880 C   0  0  0  0  0  0  0  0  0  0  0  0
   37.8290   24.5300   32.5790 C   0  0  0  0  0  0  0  0  0  0  0  0
   36.9070   25.4320   32.1520 C   0  0  0  0  0  0  0  0  0  0  0  0
   35.7460   25.0850   31.4860 C   0  0  0  0  0  0  0  0  0  0  0  0
   35.5310   23.7750   31.2560 N   0  0  0  0  0  0  0  0  0  0  0  0
   36.4130   22.8590   31.6600 C   0  0  0  0  0  0  0  0  0  0  0  0
   37.5360   23.2160   32.3060 N   0  0  0  0  0  0  0  0  0  0  0  0
   36.3030   21.4390   31.4770 N   0  0  0  0  0  0  0  0  0  0  0  0
   37.2080   20.9570   30.5470 C   0  0  0  0  0  0  0  0  0  0  0  0
   37.2310   19.6020   30.2570 C   0  0  0  0  0  0  0  0  0  0  0  0
   36.3530   18.7770   30.9030 C   0  0  0  0  0  0  0  0  0  0  0  0
   36.3810   17.4150   30.6090 N   0  0  0  0  0  0  0  0  0  0  0  0
   35.4910   19.2800   31.7970 N   0  0  0  0  0  0  0  0  0  0  0  0
   35.4710   20.5880   32.0750 C   0  0  0  0  0  0  0  0  0  0  0  0
   34.7230   21.1670   32.8800 O   0  0  0  0  0  0  0  0  0  0  0  0
   38.1530   23.6180   36.7630 C   0  0  0  0  0  0  0  0  0  0  0  0
   38.0440   24.1840   35.4490 C   0  0  0  0  0  0  0  0  0  0  0  0
   39.1700   24.2720   34.6620 C   0  0  0  0  0  0  0  0  0  0  0  0
   40.3560   23.8040   35.1880 N   0  0  0  0  0  0  0  0  0  0  0  0
   40.4110   23.2850   36.4140 C   0  0  0  0  0  0  0  0  0  0  0  0
   39.3480   23.1870   37.1950 N   0  0  0  0  0  0  0  0  0  0  0  0
   41.7740   22.8190   36.8450 C   0  0  1  0  0  0  0  0  0  0  0  0
   41.6240   21.3580   37.2560 C   0  0  0  0  0  0  0  0  0  0  0  0
   42.7910   22.9430   35.7850 C   0  0  0  0  0  0  0  0  0  0  0  0
   43.9700   23.6580   36.3910 C   0  0  0  0  0  0  0  0  0  0  0  0
   45.3150   23.3500   36.1640 C   0  0  0  0  0  0  0  0  0  0  0  0
   46.0750   24.2500   36.9150 C   0  0  0  0  0  0  0  0  0  0  0  0
   45.1270   25.0550   37.5560 C   0  0  0  0  0  0  0  0  0  0  0  0
   43.9350   24.6780   37.2250 O   0  0  0  0  0  0  0  0  0  0  0  0
   39.1254   25.9655   33.3824 H   0  0  0  0  0  0  0  0  0  0  0  0
   39.8998   24.4556   32.6973 H   0  0  0  0  0  0  0  0  0  0  0  0
   37.0947   26.4982   32.3471 H   0  0  0  0  0  0  0  0  0  0  0  0
   35.0260   25.8487   31.1568 H   0  0  0  0  0  0  0  0  0  0  0  0
   37.9033   21.6439   30.0423 H   0  0  0  0  0  0  0  0  0  0  0  0
   37.9420   19.1981   29.5212 H   0  0  0  0  0  0  0  0  0  0  0  0
   35.7297   16.7725   31.0822 H   0  0  0  0  0  0  0  0  0  0  0  0
   37.0530   17.0509   29.9185 H   0  0  0  0  0  0  0  0  0  0  0  0
   37.2664   23.5383   37.4092 H   0  0  0  0  0  0  0  0  0  0  0  0
   37.0736   24.5428   35.0755 H   0  0  0  0  0  0  0  0  0  0  0  0
   42.1278   23.4524   37.6719 H   0  0  0  0  0  0  0  0  0  0  0  0
   41.6165   21.2848   38.3535 H   0  0  0  0  0  0  0  0  0  0  0  0
   40.6802   20.9595   36.8555 H   0  0  0  0  0  0  0  0  0  0  0  0
   42.4671   20.7760   36.8555 H   0  0  0  0  0  0  0  0  0  0  0  0
   42.3893   23.5236   34.9415 H   0  0  0  0  0  0  0  0  0  0  0  0
   43.0842   21.9539   35.4032 H   0  0  0  0  0  0  0  0  0  0  0  0
   45.7018   22.5497   35.5160 H   0  0  0  0  0  0  0  0  0  0  0  0
   47.1709   24.3118   36.9863 H   0  0  0  0  0  0  0  0  0  0  0  0
   45.3607   25.8847   38.2394 H   0  0  0  0  0  0  0  0  0  0  0  0
  1 18  1  0
  2  1  1  0
  3  2  2  0
  4  3  1  0
  5  4  2  0
  5  6  1  0
  6  7  2  0
  7  2  1  0
  8  6  1  0
  8 14  1  0
  9  8  1  0
 10  9  2  0
 10 11  1  0
 11 13  2  0
 12 11  1  0
 13 14  1  0
 14 15  2  0
 16 21  2  0
 17 16  1  0
 18 19  1  0
 18 17  2  0
 19 20  2  0
 20 22  1  0
 20 21  1  0
 22 23  1  0
 24 25  1  0
 24 22  1  0
 25 29  1  0
 26 25  2  0
 26 27  1  0
 27 28  2  0
 29 28  1  0
  1 30  1  0
  1 31  1  0
  3 32  1  0
  4 33  1  0
  9 34  1  0
 10 35  1  0
 12 36  1  0
 12 37  1  0
 16 38  1  0
 17 39  1  0
 22 40  1  1
 23 41  1  0
 23 42  1  0
 23 43  1  0
 24 44  1  0
 24 45  1  0
 26 46  1  0
 27 47  1  0
 28 48  1  0
M  ISO  8  30   8  31   8  32  14  33  14  34  14  35  14  38  14  39  14
M  ISO  8  40   8  41   8  42   8  43   8  44   8  45   8  46  14  47  14
M  ISO  1  48  14
M  END
>  <minimizedAffinity>  (1) 
-6.11214209

>  <minimizedRMSD>  (1) 
1.04185128

$$$$
