
     RDKit          3D

 55 58  0  0  1  0  0  0  0  0999 V2000
   38.2670   23.4620   36.8790 C   0  0  0  0  0  0  0  0  0  0  0  0
   38.1550   24.0530   35.5880 C   0  0  0  0  0  0  0  0  0  0  0  0
   39.2940   24.1840   34.8040 C   0  0  0  0  0  0  0  0  0  0  0  0
   40.4900   23.7250   35.3300 N   0  0  0  0  0  0  0  0  0  0  0  0
   40.5370   23.1870   36.5310 C   0  0  0  0  0  0  0  0  0  0  0  0
   39.4610   23.0470   37.3100 N   0  0  0  0  0  0  0  0  0  0  0  0
   39.1970   24.8130   33.4430 C   0  0  0  0  0  0  0  0  0  0  0  0
   37.9400   24.5150   32.7350 C   0  0  0  0  0  0  0  0  0  0  0  0
   37.0220   25.4320   32.3470 C   0  0  0  0  0  0  0  0  0  0  0  0
   35.8520   25.1270   31.6850 C   0  0  0  0  0  0  0  0  0  0  0  0
   35.6190   23.8300   31.4120 N   0  0  0  0  0  0  0  0  0  0  0  0
   36.4960   22.8840   31.7740 C   0  0  0  0  0  0  0  0  0  0  0  0
   37.6270   23.2110   32.4180 N   0  0  0  0  0  0  0  0  0  0  0  0
   36.3680   21.4780   31.5450 N   0  0  0  0  0  0  0  0  0  0  0  0
   37.2490   21.0170   30.5950 C   0  0  0  0  0  0  0  0  0  0  0  0
   37.2470   19.6660   30.2610 C   0  0  0  0  0  0  0  0  0  0  0  0
   36.3630   18.8400   30.8910 C   0  0  0  0  0  0  0  0  0  0  0  0
   36.3700   17.4830   30.5410 N   0  0  0  0  0  0  0  0  0  0  0  0
   35.5230   19.3150   31.8050 N   0  0  0  0  0  0  0  0  0  0  0  0
   35.5280   20.6180   32.1260 C   0  0  0  0  0  0  0  0  0  0  0  0
   34.7900   21.1820   32.9650 O   0  0  0  0  0  0  0  0  0  0  0  0
   41.9040   22.7350   36.9840 C   0  0  1  0  0  0  0  0  0  0  0  0
   41.8070   21.2280   37.2060 C   0  0  0  0  0  0  0  0  0  0  0  0
   42.9440   23.0510   35.9960 C   0  0  0  0  0  0  0  0  0  0  0  0
   44.1520   23.5910   36.4400 N   0  0  0  0  0  0  0  0  0  0  0  0
   45.3570   23.0570   35.9430 C   0  0  0  0  0  0  0  0  0  0  0  0
   46.1970   24.1230   35.2780 C   0  0  0  0  0  0  0  0  0  0  0  0
   46.4470   25.1440   36.2480 N   0  0  0  0  0  0  0  0  0  0  0  0
   45.3000   25.7240   36.8630 C   0  0  0  0  0  0  0  0  0  0  0  0
   44.1790   24.7820   37.1760 C   0  0  0  0  0  0  0  0  0  0  0  0
   37.3774   23.3483   37.5159 H   0  0  0  0  0  0  0  0  0  0  0  0
   37.1797   24.4010   35.2169 H   0  0  0  0  0  0  0  0  0  0  0  0
   39.2787   25.9038   33.5591 H   0  0  0  0  0  0  0  0  0  0  0  0
   40.0121   24.3901   32.8374 H   0  0  0  0  0  0  0  0  0  0  0  0
   37.2231   26.4891   32.5750 H   0  0  0  0  0  0  0  0  0  0  0  0
   35.1384   25.9112   31.3920 H   0  0  0  0  0  0  0  0  0  0  0  0
   37.9485   21.7094   30.1039 H   0  0  0  0  0  0  0  0  0  0  0  0
   37.9431   19.2728   29.5054 H   0  0  0  0  0  0  0  0  0  0  0  0
   35.7162   16.8303   30.9964 H   0  0  0  0  0  0  0  0  0  0  0  0
   37.0290   17.1383   29.8284 H   0  0  0  0  0  0  0  0  0  0  0  0
   42.1948   23.2613   37.9051 H   0  0  0  0  0  0  0  0  0  0  0  0
   41.7934   21.0165   38.2854 H   0  0  0  0  0  0  0  0  0  0  0  0
   40.8826   20.8484   36.7463 H   0  0  0  0  0  0  0  0  0  0  0  0
   42.6751   20.7330   36.7463 H   0  0  0  0  0  0  0  0  0  0  0  0
   42.5088   23.7715   35.2878 H   0  0  0  0  0  0  0  0  0  0  0  0
   43.2264   22.0707   35.5846 H   0  0  0  0  0  0  0  0  0  0  0  0
   45.9264   22.6205   36.7768 H   0  0  0  0  0  0  0  0  0  0  0  0
   45.1136   22.2892   35.1939 H   0  0  0  0  0  0  0  0  0  0  0  0
   47.1484   23.6908   34.9345 H   0  0  0  0  0  0  0  0  0  0  0  0
   45.6728   24.5393   34.4051 H   0  0  0  0  0  0  0  0  0  0  0  0
   47.0289   24.7340   36.9925 H   0  0  0  0  0  0  0  0  0  0  0  0
   45.6224   26.1894   37.8061 H   0  0  0  0  0  0  0  0  0  0  0  0
   44.8951   26.4345   36.1273 H   0  0  0  0  0  0  0  0  0  0  0  0
   43.2330   25.3123   36.9921 H   0  0  0  0  0  0  0  0  0  0  0  0
   44.3306   24.4794   38.2226 H   0  0  0  0  0  0  0  0  0  0  0  0
  1  6  2  0
  2  1  1  0
  3  4  1  0
  3  2  2  0
  4  5  2  0
  5 22  1  0
  5  6  1  0
  7  3  1  0
  8  7  1  0
  9  8  2  0
 10  9  1  0
 11 10  2  0
 11 12  1  0
 12 13  2  0
 13  8  1  0
 14 12  1  0
 14 20  1  0
 15 14  1  0
 16 15  2  0
 16 17  1  0
 17 19  2  0
 18 17  1  0
 19 20  1  0
 20 21  2  0
 22 23  1  0
 24 25  1  0
 24 22  1  0
 25 30  1  0
 26 25  1  0
 27 26  1  0
 27 28  1  0
 28 29  1  0
 29 30  1  0
  1 31  1  0
  2 32  1  0
  7 33  1  0
  7 34  1  0
  9 35  1  0
 10 36  1  0
 15 37  1  0
 16 38  1  0
 18 39  1  0
 18 40  1  0
 22 41  1  1
 23 42  1  0
 23 43  1  0
 23 44  1  0
 24 45  1  0
 24 46  1  0
 26 47  1  0
 26 48  1  0
 27 49  1  0
 27 50  1  0
 28 51  1  0
 29 52  1  0
 29 53  1  0
 30 54  1  0
 30 55  1  0
M  ISO  8  31  14  32  14  33   8  34   8  35  14  36  14  37  14  38  14
M  ISO  8  41   8  42   8  43   8  44   8  45   8  46   8  47  13  48  13
M  ISO  7  49  13  50  13  51   5  52  13  53  13  54  13  55  13
M  END
>  <minimizedAffinity>  (1) 
-5.88115358

>  <minimizedRMSD>  (1) 
0.755984664

$$$$
