
     RDKit          3D

 48 51  0  0  1  0  0  0  0  0999 V2000
   39.0940   24.8230   33.2540 C   0  0  0  0  0  0  0  0  0  0  0  0
   37.8460   24.4930   32.5550 C   0  0  0  0  0  0  0  0  0  0  0  0
   36.9170   25.3870   32.1390 C   0  0  0  0  0  0  0  0  0  0  0  0
   35.7510   25.0480   31.4840 C   0  0  0  0  0  0  0  0  0  0  0  0
   35.5340   23.7460   31.2480 N   0  0  0  0  0  0  0  0  0  0  0  0
   36.4240   22.8230   31.6400 C   0  0  0  0  0  0  0  0  0  0  0  0
   37.5500   23.1820   32.2770 N   0  0  0  0  0  0  0  0  0  0  0  0
   36.3110   21.4020   31.4490 N   0  0  0  0  0  0  0  0  0  0  0  0
   37.2090   20.9210   30.5110 C   0  0  0  0  0  0  0  0  0  0  0  0
   37.2240   19.5680   30.2150 C   0  0  0  0  0  0  0  0  0  0  0  0
   36.3480   18.7510   30.8630 C   0  0  0  0  0  0  0  0  0  0  0  0
   36.3630   17.3740   30.5610 N   0  0  0  0  0  0  0  0  0  0  0  0
   35.4930   19.2490   31.7660 N   0  0  0  0  0  0  0  0  0  0  0  0
   35.4750   20.5540   32.0550 C   0  0  0  0  0  0  0  0  0  0  0  0
   34.7360   21.1290   32.8630 O   0  0  0  0  0  0  0  0  0  0  0  0
   38.1780   23.5890   36.7310 C   0  0  0  0  0  0  0  0  0  0  0  0
   38.0590   24.1380   35.4280 C   0  0  0  0  0  0  0  0  0  0  0  0
   39.1880   24.2350   34.6360 C   0  0  0  0  0  0  0  0  0  0  0  0
   40.3840   23.7850   35.1670 N   0  0  0  0  0  0  0  0  0  0  0  0
   40.4390   23.2770   36.3970 C   0  0  0  0  0  0  0  0  0  0  0  0
   39.3720   23.1760   37.1720 N   0  0  0  0  0  0  0  0  0  0  0  0
   41.8030   22.8320   36.8320 C   0  0  1  0  0  0  0  0  0  0  0  0
   41.6940   21.3550   37.1830 C   0  0  0  0  0  0  0  0  0  0  0  0
   42.8390   23.0500   35.8110 C   0  0  0  0  0  0  0  0  0  0  0  0
   44.0540   23.6410   36.3150 N   0  0  0  0  0  0  0  0  0  0  0  0
   45.2880   23.1960   36.0230 C   0  0  0  0  0  0  0  0  0  0  0  0
   46.1900   23.9960   36.6760 C   0  0  0  0  0  0  0  0  0  0  0  0
   45.5150   24.9480   37.3810 N   0  0  0  0  0  0  0  0  0  0  0  0
   44.2110   24.6970   37.1340 C   0  0  0  0  0  0  0  0  0  0  0  0
   39.1665   25.9175   33.3368 H   0  0  0  0  0  0  0  0  0  0  0  0
   39.9161   24.3908   32.6646 H   0  0  0  0  0  0  0  0  0  0  0  0
   37.1046   26.4528   32.3363 H   0  0  0  0  0  0  0  0  0  0  0  0
   35.0285   25.8149   31.1681 H   0  0  0  0  0  0  0  0  0  0  0  0
   37.9042   21.6073   30.0055 H   0  0  0  0  0  0  0  0  0  0  0  0
   37.9277   19.1624   29.4732 H   0  0  0  0  0  0  0  0  0  0  0  0
   35.7104   16.7351   31.0374 H   0  0  0  0  0  0  0  0  0  0  0  0
   37.0265   17.0068   29.8640 H   0  0  0  0  0  0  0  0  0  0  0  0
   37.2915   23.5032   37.3766 H   0  0  0  0  0  0  0  0  0  0  0  0
   37.0832   24.4812   35.0537 H   0  0  0  0  0  0  0  0  0  0  0  0
   42.1206   23.4342   37.6960 H   0  0  0  0  0  0  0  0  0  0  0  0
   41.6853   21.2377   38.2767 H   0  0  0  0  0  0  0  0  0  0  0  0
   40.7632   20.9460   36.7630 H   0  0  0  0  0  0  0  0  0  0  0  0
   42.5546   20.8138   36.7630 H   0  0  0  0  0  0  0  0  0  0  0  0
   42.4267   23.7158   35.0386 H   0  0  0  0  0  0  0  0  0  0  0  0
   43.1098   22.0580   35.4203 H   0  0  0  0  0  0  0  0  0  0  0  0
   45.5314   22.3412   35.3748 H   0  0  0  0  0  0  0  0  0  0  0  0
   47.2839   23.8871   36.6373 H   0  0  0  0  0  0  0  0  0  0  0  0
   43.3794   25.2839   37.5512 H   0  0  0  0  0  0  0  0  0  0  0  0
  1 18  1  0
  2  1  1  0
  3  2  2  0
  4  3  1  0
  5  4  2  0
  5  6  1  0
  6  7  2  0
  7  2  1  0
  8  6  1  0
  8 14  1  0
  9  8  1  0
 10  9  2  0
 10 11  1  0
 11 13  2  0
 12 11  1  0
 13 14  1  0
 14 15  2  0
 16 21  2  0
 17 16  1  0
 18 19  1  0
 18 17  2  0
 19 20  2  0
 20 22  1  0
 20 21  1  0
 22 23  1  0
 24 25  1  0
 24 22  1  0
 25 29  1  0
 26 25  1  0
 26 27  2  0
 27 28  1  0
 29 28  2  0
  1 30  1  0
  1 31  1  0
  3 32  1  0
  4 33  1  0
  9 34  1  0
 10 35  1  0
 12 36  1  0
 12 37  1  0
 16 38  1  0
 17 39  1  0
 22 40  1  1
 23 41  1  0
 23 42  1  0
 23 43  1  0
 24 44  1  0
 24 45  1  0
 26 46  1  0
 27 47  1  0
 29 48  1  0
M  ISO  8  30   8  31   8  32  14  33  14  34  14  35  14  38  14  39  14
M  ISO  8  40   8  41   8  42   8  43   8  44   8  45   8  46  14  47  14
M  ISO  1  48  14
M  END
>  <minimizedAffinity>  (1) 
-5.86140442

>  <minimizedRMSD>  (1) 
0.853849292

$$$$
