
     RDKit          3D

 26 27  0  0  0  0  0  0  0  0999 V2000
   38.2740   24.5100   34.4800 N   0  0  0  0  0  0  0  0  0  0  0  0
   37.6910   23.7960   33.5210 N   0  0  0  0  0  0  0  0  0  0  0  0
   37.5730   24.5180   32.4000 C   0  0  0  0  0  0  0  0  0  0  0  0
   38.1170   25.7650   32.6710 C   0  0  0  0  0  0  0  0  0  0  0  0
   38.5470   25.7250   33.9840 C   0  0  0  0  0  0  0  0  0  0  0  0
   37.5910   24.2360   36.7830 C   0  0  0  0  0  0  0  0  0  0  0  0
   38.5440   24.0650   35.7650 C   0  0  0  0  0  0  0  0  0  0  0  0
   39.7610   23.4430   36.0690 C   0  0  0  0  0  0  0  0  0  0  0  0
   39.9580   23.0310   37.3580 N   0  0  0  0  0  0  0  0  0  0  0  0
   39.0200   23.2090   38.3240 C   0  0  0  0  0  0  0  0  0  0  0  0
   37.8380   23.8120   38.0290 N   0  0  0  0  0  0  0  0  0  0  0  0
   39.1800   26.8930   34.5930 C   0  0  0  0  0  0  0  0  0  0  0  0
   40.6760   26.6150   34.8040 C   0  0  0  0  0  0  0  0  0  0  0  0
   38.6340   27.2370   35.9570 C   0  0  0  0  0  0  0  0  0  0  0  0
   37.1307   24.1869   31.4488 H   0  0  0  0  0  0  0  0  0  0  0  0
   38.1914   26.6165   31.9785 H   0  0  0  0  0  0  0  0  0  0  0  0
   36.6318   24.7233   36.5541 H   0  0  0  0  0  0  0  0  0  0  0  0
   40.5312   23.2912   35.2985 H   0  0  0  0  0  0  0  0  0  0  0  0
   39.2177   22.8637   39.3495 H   0  0  0  0  0  0  0  0  0  0  0  0
   38.9820   27.7255   33.9018 H   0  0  0  0  0  0  0  0  0  0  0  0
   40.8930   26.5747   35.8816 H   0  0  0  0  0  0  0  0  0  0  0  0
   40.9390   25.6526   34.3407 H   0  0  0  0  0  0  0  0  0  0  0  0
   41.2672   27.4187   34.3407 H   0  0  0  0  0  0  0  0  0  0  0  0
   39.2945   26.8209   36.7320 H   0  0  0  0  0  0  0  0  0  0  0  0
   38.5835   28.3304   36.0667 H   0  0  0  0  0  0  0  0  0  0  0  0
   37.6260   26.8106   36.0667 H   0  0  0  0  0  0  0  0  0  0  0  0
  1  7  1  0
  2  1  1  0
  3  4  1  0
  3  2  2  0
  4  5  2  0
  5  1  1  0
  5 12  1  0
  6 11  2  0
  7  8  2  0
  7  6  1  0
  8  9  1  0
  9 10  2  0
 11 10  1  0
 12 13  1  0
 12 14  1  0
  3 15  1  0
  4 16  1  0
  6 17  1  0
  8 18  1  0
 10 19  1  0
 12 20  1  0
 13 21  1  0
 13 22  1  0
 13 23  1  0
 14 24  1  0
 14 25  1  0
 14 26  1  0
M  ISO  8  15  14  16  14  17  14  18  14  19  14  20   8  21   8  22   8
M  ISO  4  23   8  24   8  25   8  26   8
M  END
>  <minimizedAffinity>  (1) 
-4.15270472

>  <minimizedRMSD>  (1) 
1.67931914

$$$$
