
     RDKit          3D

 20 21  0  0  0  0  0  0  0  0999 V2000
   37.7790   24.1300   36.9450 C   0  0  0  0  0  0  0  0  0  0  0  0
   38.5370   24.3880   35.8030 C   0  0  0  0  0  0  0  0  0  0  0  0
   39.8240   23.8480   35.7400 C   0  0  0  0  0  0  0  0  0  0  0  0
   40.2580   23.1010   36.8000 N   0  0  0  0  0  0  0  0  0  0  0  0
   39.4960   22.8760   37.8810 C   0  0  0  0  0  0  0  0  0  0  0  0
   38.2420   23.3960   37.9530 N   0  0  0  0  0  0  0  0  0  0  0  0
   38.0280   25.1610   34.7570 N   0  0  0  0  0  0  0  0  0  0  0  0
   37.5320   24.7000   33.6280 N   0  0  0  0  0  0  0  0  0  0  0  0
   37.1290   25.6840   32.8330 C   0  0  0  0  0  0  0  0  0  0  0  0
   37.3970   26.8570   33.5250 C   0  0  0  0  0  0  0  0  0  0  0  0
   37.9690   26.5070   34.7470 C   0  0  0  0  0  0  0  0  0  0  0  0
   38.4100   27.4750   35.8010 C   0  0  0  0  0  0  0  0  0  0  0  0
   36.7638   24.5477   37.0144 H   0  0  0  0  0  0  0  0  0  0  0  0
   40.4682   24.0185   34.8648 H   0  0  0  0  0  0  0  0  0  0  0  0
   39.8869   22.2693   38.7111 H   0  0  0  0  0  0  0  0  0  0  0  0
   36.6771   25.5894   31.8346 H   0  0  0  0  0  0  0  0  0  0  0  0
   37.1944   27.8791   33.1724 H   0  0  0  0  0  0  0  0  0  0  0  0
   38.2154   27.0477   36.7958 H   0  0  0  0  0  0  0  0  0  0  0  0
   39.4866   27.6718   35.6907 H   0  0  0  0  0  0  0  0  0  0  0  0
   37.8520   28.4165   35.6907 H   0  0  0  0  0  0  0  0  0  0  0  0
  1  6  2  0
  2  1  1  0
  3  2  2  0
  3  4  1  0
  4  5  2  0
  5  6  1  0
  7  2  1  0
  8  7  1  0
  9 10  1  0
  9  8  2  0
 10 11  2  0
 11  7  1  0
 11 12  1  0
  1 13  1  0
  3 14  1  0
  5 15  1  0
  9 16  1  0
 10 17  1  0
 12 18  1  0
 12 19  1  0
 12 20  1  0
M  ISO  8  13  14  14  14  15  14  16  14  17  14  18   8  19   8  20   8
M  END
>  <minimizedAffinity>  (1) 
-3.67255163

>  <minimizedRMSD>  (1) 
0.561134815

$$$$
