
     RDKit          3D

 23 25  0  0  0  0  0  0  0  0999 V2000
   37.0740   24.0180   32.3950 N   0  0  0  0  0  0  0  0  0  0  0  0
   37.0340   25.2940   32.0860 N   0  0  0  0  0  0  0  0  0  0  0  0
   36.0050   25.5570   31.2740 C   0  0  0  0  0  0  0  0  0  0  0  0
   35.3560   24.3470   31.0640 C   0  0  0  0  0  0  0  0  0  0  0  0
   36.0570   23.4020   31.7840 C   0  0  0  0  0  0  0  0  0  0  0  0
   39.0700   22.6580   32.6840 C   0  0  0  0  0  0  0  0  0  0  0  0
   38.0200   23.4100   33.2200 C   0  0  0  0  0  0  0  0  0  0  0  0
   37.9490   23.5300   34.6120 C   0  0  0  0  0  0  0  0  0  0  0  0
   38.8940   22.9170   35.3680 N   0  0  0  0  0  0  0  0  0  0  0  0
   39.8990   22.1950   34.8030 C   0  0  0  0  0  0  0  0  0  0  0  0
   39.9810   22.0690   33.4530 N   0  0  0  0  0  0  0  0  0  0  0  0
   35.7420   22.0160   31.8570 N   0  0  0  0  0  0  0  0  0  0  0  0
   36.1570   21.1560   30.8910 C   0  0  0  0  0  0  0  0  0  0  0  0
   35.7510   19.9020   31.1560 N   0  0  0  0  0  0  0  0  0  0  0  0
   35.0700   20.0300   32.3290 C   0  0  0  0  0  0  0  0  0  0  0  0
   35.0650   21.3060   32.7520 N   0  0  0  0  0  0  0  0  0  0  0  0
   35.7277   26.5359   30.8558 H   0  0  0  0  0  0  0  0  0  0  0  0
   34.4616   24.1764   30.4468 H   0  0  0  0  0  0  0  0  0  0  0  0
   39.1447   22.5503   31.5918 H   0  0  0  0  0  0  0  0  0  0  0  0
   37.1426   24.1101   35.0843 H   0  0  0  0  0  0  0  0  0  0  0  0
   40.6502   21.7100   35.4436 H   0  0  0  0  0  0  0  0  0  0  0  0
   36.7468   21.4468   30.0092 H   0  0  0  0  0  0  0  0  0  0  0  0
   34.5869   19.1972   32.8610 H   0  0  0  0  0  0  0  0  0  0  0  0
  1  7  1  0
  2  1  1  0
  3  2  2  0
  4  3  1  0
  4  5  2  0
  5 12  1  0
  5  1  1  0
  6  7  2  0
  6 11  1  0
  7  8  1  0
  8  9  2  0
 10  9  1  0
 11 10  2  0
 12 16  1  0
 13 14  2  0
 13 12  1  0
 14 15  1  0
 15 16  2  0
  3 17  1  0
  4 18  1  0
  6 19  1  0
  8 20  1  0
 10 21  1  0
 13 22  1  0
 15 23  1  0
M  ISO  7  17  14  18  14  19  14  20  14  21  14  22  14  23  14
M  END
>  <minimizedAffinity>  (1) 
-3.62674546

>  <minimizedRMSD>  (1) 
6.14159966

$$$$
