
     RDKit          3D

 19 20  0  0  0  0  0  0  0  0999 V2000
   37.9960   24.7270   34.5500 N   0  0  0  0  0  0  0  0  0  0  0  0
   37.6790   24.1640   33.4050 N   0  0  0  0  0  0  0  0  0  0  0  0
   37.1570   25.0350   32.5480 C   0  0  0  0  0  0  0  0  0  0  0  0
   37.1370   26.2480   33.1920 C   0  0  0  0  0  0  0  0  0  0  0  0
   37.6700   26.0170   34.4400 C   0  0  0  0  0  0  0  0  0  0  0  0
   37.8040   23.8510   36.7990 C   0  0  0  0  0  0  0  0  0  0  0  0
   38.5620   24.1040   35.6600 C   0  0  0  0  0  0  0  0  0  0  0  0
   39.9090   23.7230   35.6410 C   0  0  0  0  0  0  0  0  0  0  0  0
   40.4120   23.1150   36.7570 N   0  0  0  0  0  0  0  0  0  0  0  0
   39.6610   22.8820   37.8420 C   0  0  0  0  0  0  0  0  0  0  0  0
   38.3620   23.2500   37.8610 N   0  0  0  0  0  0  0  0  0  0  0  0
   37.8070   27.0930   35.4130 C   0  0  0  0  0  0  0  0  0  0  0  0
   38.9120   27.4700   35.9260 O   0  0  0  0  0  0  0  0  0  0  0  0
   36.8097   24.8260   31.5254 H   0  0  0  0  0  0  0  0  0  0  0  0
   36.7709   27.2056   32.7932 H   0  0  0  0  0  0  0  0  0  0  0  0
   36.7443   24.1445   36.8289 H   0  0  0  0  0  0  0  0  0  0  0  0
   40.5403   23.9065   34.7591 H   0  0  0  0  0  0  0  0  0  0  0  0
   40.1042   22.3894   38.7200 H   0  0  0  0  0  0  0  0  0  0  0  0
   36.8925   27.6172   35.7273 H   0  0  0  0  0  0  0  0  0  0  0  0
  1  7  1  0
  2  1  1  0
  3  4  1  0
  3  2  2  0
  4  5  2  0
  5  1  1  0
  5 12  1  0
  6 11  2  0
  7  6  1  0
  8  7  2  0
  8  9  1  0
  9 10  2  0
 10 11  1  0
 12 13  2  0
  3 14  1  0
  4 15  1  0
  6 16  1  0
  8 17  1  0
 10 18  1  0
 12 19  1  0
M  ISO  6  14  14  15  14  16  14  17  14  18  14  19   6
M  END
>  <minimizedAffinity>  (1) 
-3.56674504

>  <minimizedRMSD>  (1) 
0.953472078

$$$$
