
     RDKit          3D

 25 26  0  0  0  0  0  0  0  0999 V2000
   38.0130   24.2520   33.8710 N   0  0  0  0  0  0  0  0  0  0  0  0
   37.9320   23.4340   32.8380 N   0  0  0  0  0  0  0  0  0  0  0  0
   37.6970   24.1010   31.6950 C   0  0  0  0  0  0  0  0  0  0  0  0
   37.6290   25.4380   32.0630 C   0  0  0  0  0  0  0  0  0  0  0  0
   37.8300   25.5310   33.4460 C   0  0  0  0  0  0  0  0  0  0  0  0
   37.3030   24.1600   36.1850 C   0  0  0  0  0  0  0  0  0  0  0  0
   38.2500   23.8710   35.2020 C   0  0  0  0  0  0  0  0  0  0  0  0
   39.4340   23.2030   35.5320 C   0  0  0  0  0  0  0  0  0  0  0  0
   39.5820   22.8690   36.8560 N   0  0  0  0  0  0  0  0  0  0  0  0
   38.6800   23.1440   37.7920 C   0  0  0  0  0  0  0  0  0  0  0  0
   37.5410   23.7880   37.4630 N   0  0  0  0  0  0  0  0  0  0  0  0
   38.9280   22.7640   39.0920 O   0  0  0  0  0  0  0  0  0  0  0  0
   37.8290   26.7410   34.1830 N   0  0  0  0  0  0  0  0  0  0  0  0
   38.9330   27.1700   34.9710 C   0  0  0  0  0  0  0  0  0  0  0  0
   40.1210   26.8900   34.4650 N   0  0  0  0  0  0  0  0  0  0  0  0
   38.6410   27.8440   36.2050 N   0  0  0  0  0  0  0  0  0  0  0  0
   40.9170   27.2150   35.0590 H   0  0  0  0  0  0  0  0  0  0  0  0
   37.5831   23.6787   30.6857 H   0  0  0  0  0  0  0  0  0  0  0  0
   37.4476   26.2829   31.3823 H   0  0  0  0  0  0  0  0  0  0  0  0
   36.3725   24.6850   35.9231 H   0  0  0  0  0  0  0  0  0  0  0  0
   40.1981   22.9606   34.7788 H   0  0  0  0  0  0  0  0  0  0  0  0
   38.2655   22.9619   39.8005 H   0  0  0  0  0  0  0  0  0  0  0  0
   36.9902   27.3376   34.1466 H   0  0  0  0  0  0  0  0  0  0  0  0
   39.4097   28.1719   36.8071 H   0  0  0  0  0  0  0  0  0  0  0  0
   37.6629   27.9995   36.4879 H   0  0  0  0  0  0  0  0  0  0  0  0
  1  7  1  0
  2  1  1  0
  3  4  1  0
  3  2  2  0
  4  5  2  0
  5  1  1  0
  5 13  1  0
  6 11  2  0
  7  8  2  0
  7  6  1  0
  8  9  1  0
  9 10  2  0
 10 12  1  0
 11 10  1  0
 13 14  1  0
 14 16  1  0
 15 14  2  0
 15 17  1  0
  3 18  1  0
  4 19  1  0
  6 20  1  0
  8 21  1  0
 12 22  1  0
 13 23  1  0
 16 24  1  0
 16 25  1  0
M  ISO  5  18  14  19  14  20  14  21  14  22   3
M  END
>  <minimizedAffinity>  (1) 
-4.44447756

>  <minimizedRMSD>  (1) 
0.956441164

$$$$
