
     RDKit          3D

 30 31  0  0  0  0  0  0  0  0999 V2000
   37.7960   24.3150   33.4500 N   0  0  0  0  0  0  0  0  0  0  0  0
   37.4530   23.6800   32.3300 N   0  0  0  0  0  0  0  0  0  0  0  0
   36.7170   24.4570   31.5380 C   0  0  0  0  0  0  0  0  0  0  0  0
   36.5900   25.6640   32.2120 C   0  0  0  0  0  0  0  0  0  0  0  0
   37.2790   25.5630   33.4250 C   0  0  0  0  0  0  0  0  0  0  0  0
   37.9530   23.2910   35.6390 C   0  0  0  0  0  0  0  0  0  0  0  0
   38.5720   23.7620   34.4850 C   0  0  0  0  0  0  0  0  0  0  0  0
   39.9640   23.6870   34.3530 C   0  0  0  0  0  0  0  0  0  0  0  0
   40.6490   23.1390   35.3970 N   0  0  0  0  0  0  0  0  0  0  0  0
   40.0320   22.6870   36.5080 C   0  0  0  0  0  0  0  0  0  0  0  0
   38.6910   22.7640   36.6250 N   0  0  0  0  0  0  0  0  0  0  0  0
   40.7700   22.0880   37.6510 C   0  0  0  0  0  0  0  0  0  0  0  0
   41.9200   21.2380   37.2200 C   0  0  0  0  0  0  0  0  0  0  0  0
   37.3790   26.6030   34.3960 N   0  0  0  0  0  0  0  0  0  0  0  0
   38.6240   27.1530   34.8070 C   0  0  0  0  0  0  0  0  0  0  0  0
   39.5340   27.2750   33.8660 N   0  0  0  0  0  0  0  0  0  0  0  0
   38.7640   27.5160   36.1860 N   0  0  0  0  0  0  0  0  0  0  0  0
   40.4350   27.6850   34.1730 H   0  0  0  0  0  0  0  0  0  0  0  0
   36.2973   24.1969   30.5550 H   0  0  0  0  0  0  0  0  0  0  0  0
   36.0418   26.5478   31.8537 H   0  0  0  0  0  0  0  0  0  0  0  0
   36.8594   23.3514   35.7414 H   0  0  0  0  0  0  0  0  0  0  0  0
   40.4792   24.0519   33.4522 H   0  0  0  0  0  0  0  0  0  0  0  0
   41.1529   22.9006   38.2859 H   0  0  0  0  0  0  0  0  0  0  0  0
   40.0666   21.4401   38.1945 H   0  0  0  0  0  0  0  0  0  0  0  0
   42.4430   20.8514   38.1072 H   0  0  0  0  0  0  0  0  0  0  0  0
   41.5481   20.3960   36.6177 H   0  0  0  0  0  0  0  0  0  0  0  0
   42.6158   21.8405   36.6177 H   0  0  0  0  0  0  0  0  0  0  0  0
   36.5137   26.9707   34.8167 H   0  0  0  0  0  0  0  0  0  0  0  0
   39.6496   27.9178   36.5254 H   0  0  0  0  0  0  0  0  0  0  0  0
   37.9791   27.3751   36.8379 H   0  0  0  0  0  0  0  0  0  0  0  0
  1  7  1  0
  2  1  1  0
  3  4  1  0
  3  2  2  0
  4  5  2  0
  5  1  1  0
  5 14  1  0
  6 11  2  0
  7  6  1  0
  8  7  2  0
  8  9  1  0
  9 10  2  0
 10 11  1  0
 10 12  1  0
 13 12  1  0
 14 15  1  0
 15 17  1  0
 16 18  1  0
 16 15  2  0
  3 19  1  0
  4 20  1  0
  6 21  1  0
  8 22  1  0
 12 23  1  0
 12 24  1  0
 13 25  1  0
 13 26  1  0
 13 27  1  0
 14 28  1  0
 17 29  1  0
 17 30  1  0
M  ISO  8  19  14  20  14  21  14  22  14  23   8  24   8  25   8  26   8
M  ISO  1  27   8
M  END
>  <minimizedAffinity>  (1) 
-4.40764904

>  <minimizedRMSD>  (1) 
2.05446458

$$$$
