
     RDKit          3D

 26 27  0  0  0  0  0  0  0  0999 V2000
   37.7850   24.3270   33.4960 N   0  0  0  0  0  0  0  0  0  0  0  0
   37.4540   23.6870   32.3820 N   0  0  0  0  0  0  0  0  0  0  0  0
   36.7490   24.4650   31.5600 C   0  0  0  0  0  0  0  0  0  0  0  0
   36.6330   25.6770   32.2110 C   0  0  0  0  0  0  0  0  0  0  0  0
   37.2940   25.5840   33.4450 C   0  0  0  0  0  0  0  0  0  0  0  0
   37.8850   23.3570   35.7170 C   0  0  0  0  0  0  0  0  0  0  0  0
   38.5250   23.7810   34.5580 C   0  0  0  0  0  0  0  0  0  0  0  0
   39.9260   23.6640   34.4470 C   0  0  0  0  0  0  0  0  0  0  0  0
   40.5740   23.1210   35.5280 N   0  0  0  0  0  0  0  0  0  0  0  0
   39.9410   22.7220   36.6270 C   0  0  0  0  0  0  0  0  0  0  0  0
   38.6020   22.8360   36.7310 N   0  0  0  0  0  0  0  0  0  0  0  0
   40.7510   22.1620   37.7040 C   0  0  0  0  0  0  0  0  0  0  0  0
   41.6100   21.2930   37.3980 O   0  0  0  0  0  0  0  0  0  0  0  0
   37.3900   26.6340   34.3960 N   0  0  0  0  0  0  0  0  0  0  0  0
   38.6480   27.1720   34.8250 C   0  0  0  0  0  0  0  0  0  0  0  0
   39.5670   27.2540   33.9000 N   0  0  0  0  0  0  0  0  0  0  0  0
   38.7460   27.5530   36.2100 N   0  0  0  0  0  0  0  0  0  0  0  0
   40.4750   27.6590   34.2320 H   0  0  0  0  0  0  0  0  0  0  0  0
   36.3453   24.1977   30.5723 H   0  0  0  0  0  0  0  0  0  0  0  0
   36.1105   26.5656   31.8270 H   0  0  0  0  0  0  0  0  0  0  0  0
   36.7923   23.4471   35.8059 H   0  0  0  0  0  0  0  0  0  0  0  0
   40.4678   23.9890   33.5465 H   0  0  0  0  0  0  0  0  0  0  0  0
   40.6162   22.4872   38.7461 H   0  0  0  0  0  0  0  0  0  0  0  0
   36.5232   27.0240   34.7927 H   0  0  0  0  0  0  0  0  0  0  0  0
   39.6255   27.9455   36.5752 H   0  0  0  0  0  0  0  0  0  0  0  0
   37.9366   27.4331   36.8356 H   0  0  0  0  0  0  0  0  0  0  0  0
  1  7  1  0
  2  1  1  0
  3  4  1  0
  3  2  2  0
  4  5  2  0
  5  1  1  0
  5 14  1  0
  6 11  2  0
  7  6  1  0
  8  7  2  0
  8  9  1  0
  9 10  2  0
 10 11  1  0
 10 12  1  0
 13 12  2  0
 14 15  1  0
 15 17  1  0
 16 18  1  0
 16 15  2  0
  3 19  1  0
  4 20  1  0
  6 21  1  0
  8 22  1  0
 12 23  1  0
 14 24  1  0
 17 25  1  0
 17 26  1  0
M  ISO  5  19  14  20  14  21  14  22  14  23   6
M  END
>  <minimizedAffinity>  (1) 
-4.23553467

>  <minimizedRMSD>  (1) 
2.01551104

$$$$
