
     RDKit          3D

 31 33  0  0  0  0  0  0  0  0999 V2000
   38.6870   23.5790   36.5170 N   0  0  0  0  0  0  0  0  0  0  0  0
   37.8890   24.4350   37.1590 N   0  0  0  0  0  0  0  0  0  0  0  0
   37.9660   24.2970   38.4770 C   0  0  0  0  0  0  0  0  0  0  0  0
   38.8770   23.2820   38.6820 C   0  0  0  0  0  0  0  0  0  0  0  0
   39.3270   22.8360   37.4440 C   0  0  0  0  0  0  0  0  0  0  0  0
   38.1200   22.5210   34.4300 C   0  0  0  0  0  0  0  0  0  0  0  0
   38.8230   23.4850   35.1230 C   0  0  0  0  0  0  0  0  0  0  0  0
   39.6680   24.3660   34.4440 C   0  0  0  0  0  0  0  0  0  0  0  0
   39.7420   24.2060   33.0930 N   0  0  0  0  0  0  0  0  0  0  0  0
   39.0630   23.2750   32.4230 C   0  0  0  0  0  0  0  0  0  0  0  0
   38.2490   22.4300   33.0940 N   0  0  0  0  0  0  0  0  0  0  0  0
   39.1850   23.1530   30.9540 C   0  0  0  0  0  0  0  0  0  0  0  0
   38.9320   24.1680   30.0700 C   0  0  0  0  0  0  0  0  0  0  0  0
   39.1510   23.6800   28.8380 N   0  0  0  0  0  0  0  0  0  0  0  0
   39.5320   22.4010   28.9300 C   0  0  0  0  0  0  0  0  0  0  0  0
   39.5600   22.0500   30.2500 N   0  0  0  0  0  0  0  0  0  0  0  0
   40.2790   21.7930   37.2340 N   0  0  0  0  0  0  0  0  0  0  0  0
   41.5610   22.0020   36.6300 C   0  0  0  0  0  0  0  0  0  0  0  0
   42.1300   23.1530   36.9360 N   0  0  0  0  0  0  0  0  0  0  0  0
   42.0710   20.9750   35.7870 N   0  0  0  0  0  0  0  0  0  0  0  0
   43.0550   23.2940   36.4890 H   0  0  0  0  0  0  0  0  0  0  0  0
   37.4203   24.8694   39.2416 H   0  0  0  0  0  0  0  0  0  0  0  0
   39.1942   22.8911   39.6600 H   0  0  0  0  0  0  0  0  0  0  0  0
   37.4559   21.8288   34.9684 H   0  0  0  0  0  0  0  0  0  0  0  0
   40.2407   25.1442   34.9698 H   0  0  0  0  0  0  0  0  0  0  0  0
   38.6104   25.1894   30.3214 H   0  0  0  0  0  0  0  0  0  0  0  0
   39.7809   21.7425   28.0848 H   0  0  0  0  0  0  0  0  0  0  0  0
   39.8151   21.1302   30.6370 H   0  0  0  0  0  0  0  0  0  0  0  0
   40.0307   20.8391   37.5328 H   0  0  0  0  0  0  0  0  0  0  0  0
   41.5219   20.1180   35.6294 H   0  0  0  0  0  0  0  0  0  0  0  0
   42.9892   21.0888   35.3345 H   0  0  0  0  0  0  0  0  0  0  0  0
  1  2  1  0
  1  5  1  0
  2  3  2  0
  3  4  1  0
  5  4  2  0
  6  7  2  0
  7  1  1  0
  8  7  1  0
  9  8  2  0
 10  9  1  0
 10 11  2  0
 11  6  1  0
 12 10  1  0
 13 12  2  0
 14 15  2  0
 14 13  1  0
 15 16  1  0
 16 12  1  0
 17  5  1  0
 18 19  2  0
 18 17  1  0
 20 18  1  0
 21 19  1  0
  3 22  1  0
  4 23  1  0
  6 24  1  0
  8 25  1  0
 13 26  1  0
 15 27  1  0
 16 28  1  0
 17 29  1  0
 20 30  1  0
 20 31  1  0
M  ISO  7  22  14  23  14  24  14  25  14  26  14  27  14  28   9
M  END
>  <minimizedAffinity>  (1) 
-4.20381069

>  <minimizedRMSD>  (1) 
7.24884701

$$$$
