
     RDKit          3D

 34 36  0  0  0  0  0  0  0  0999 V2000
   37.6650   25.0060   34.4200 C   0  0  0  0  0  0  0  0  0  0  0  0
   38.1470   25.4080   35.6660 C   0  0  0  0  0  0  0  0  0  0  0  0
   38.1850   26.7850   35.9800 C   0  0  0  0  0  0  0  0  0  0  0  0
   37.7370   27.6380   35.0200 N   0  0  0  0  0  0  0  0  0  0  0  0
   37.2770   27.2370   33.8290 C   0  0  0  0  0  0  0  0  0  0  0  0
   37.2370   25.9160   33.5190 N   0  0  0  0  0  0  0  0  0  0  0  0
   38.5870   24.4600   36.5900 N   0  0  0  0  0  0  0  0  0  0  0  0
   38.1760   24.3760   37.8440 N   0  0  0  0  0  0  0  0  0  0  0  0
   38.7720   23.3670   38.4950 C   0  0  0  0  0  0  0  0  0  0  0  0
   39.6220   22.7860   37.5520 C   0  0  0  0  0  0  0  0  0  0  0  0
   39.4940   23.4870   36.3560 C   0  0  0  0  0  0  0  0  0  0  0  0
   40.2060   23.1880   35.1530 N   0  0  0  0  0  0  0  0  0  0  0  0
   41.3660   23.9290   34.7300 C   0  0  0  0  0  0  0  0  0  0  0  0
   42.1540   24.3220   35.6930 N   0  0  0  0  0  0  0  0  0  0  0  0
   41.4960   24.1340   33.3220 N   0  0  0  0  0  0  0  0  0  0  0  0
   42.9950   24.8570   35.3680 H   0  0  0  0  0  0  0  0  0  0  0  0
   36.8010   28.1570   32.8120 C   0  0  0  0  0  0  0  0  0  0  0  0
   35.8460   29.1580   32.8290 C   0  0  0  0  0  0  0  0  0  0  0  0
   35.8590   29.6770   31.5300 C   0  0  0  0  0  0  0  0  0  0  0  0
   36.8130   28.9690   30.8040 C   0  0  0  0  0  0  0  0  0  0  0  0
   37.3570   28.0650   31.6120 O   0  0  0  0  0  0  0  0  0  0  0  0
   37.1280   29.2140   29.4010 C   0  0  0  0  0  0  0  0  0  0  0  0
   37.1580   30.4440   29.0570 O   0  0  0  0  0  0  0  0  0  0  0  0
   37.3670   28.1410   28.5520 O   0  0  0  0  0  0  0  0  0  0  0  0
   37.6333   23.9355   34.1688 H   0  0  0  0  0  0  0  0  0  0  0  0
   38.5572   27.1479   36.9494 H   0  0  0  0  0  0  0  0  0  0  0  0
   38.6239   23.0635   39.5419 H   0  0  0  0  0  0  0  0  0  0  0  0
   40.2804   21.9219   37.7246 H   0  0  0  0  0  0  0  0  0  0  0  0
   39.8755   22.4101   34.5643 H   0  0  0  0  0  0  0  0  0  0  0  0
   42.3022   24.6560   32.9498 H   0  0  0  0  0  0  0  0  0  0  0  0
   40.7835   23.7598   32.6791 H   0  0  0  0  0  0  0  0  0  0  0  0
   35.2175   29.4747   33.6744 H   0  0  0  0  0  0  0  0  0  0  0  0
   35.2298   30.4958   31.1510 H   0  0  0  0  0  0  0  0  0  0  0  0
   37.5812   28.3020   27.5990 H   0  0  0  0  0  0  0  0  0  0  0  0
  1  2  2  0
  2  3  1  0
  2  7  1  0
  4  3  2  0
  5  4  1  0
  6  5  2  0
  6  1  1  0
  7  8  1  0
  8  9  2  0
 10  9  1  0
 11  7  1  0
 11 10  2  0
 12 11  1  0
 13 12  1  0
 13 14  2  0
 15 13  1  0
 16 14  1  0
 17 18  2  0
 17  5  1  0
 19 18  1  0
 20 19  2  0
 20 21  1  0
 21 17  1  0
 22 20  1  0
 23 22  2  0
 24 22  1  0
  1 25  1  0
  3 26  1  0
  9 27  1  0
 10 28  1  0
 12 29  1  0
 15 30  1  0
 15 31  1  0
 18 32  1  0
 19 33  1  0
 24 34  1  0
M  ISO  7  25  14  26  14  27  14  28  14  32  14  33  14  34   3
M  END
>  <minimizedAffinity>  (1) 
-5.30074549

>  <minimizedRMSD>  (1) 
1.1791364

$$$$
