
     RDKit          3D

 38 41  0  0  0  0  0  0  0  0999 V2000
   38.0580   24.7570   34.1300 C   0  0  0  0  0  0  0  0  0  0  0  0
   38.8000   25.1200   35.2460 C   0  0  0  0  0  0  0  0  0  0  0  0
   38.9240   26.5010   35.5640 C   0  0  0  0  0  0  0  0  0  0  0  0
   38.2870   27.3580   34.7190 N   0  0  0  0  0  0  0  0  0  0  0  0
   37.5850   26.9980   33.6600 C   0  0  0  0  0  0  0  0  0  0  0  0
   37.4630   25.6740   33.3530 N   0  0  0  0  0  0  0  0  0  0  0  0
   39.4160   24.1580   36.0490 N   0  0  0  0  0  0  0  0  0  0  0  0
   38.9450   23.7030   37.1900 N   0  0  0  0  0  0  0  0  0  0  0  0
   39.7360   22.7960   37.7400 C   0  0  0  0  0  0  0  0  0  0  0  0
   40.8140   22.6710   36.8530 C   0  0  0  0  0  0  0  0  0  0  0  0
   40.5950   23.5450   35.7820 C   0  0  0  0  0  0  0  0  0  0  0  0
   41.4700   23.7160   34.6610 N   0  0  0  0  0  0  0  0  0  0  0  0
   42.1580   24.9590   34.4030 C   0  0  0  0  0  0  0  0  0  0  0  0
   42.5630   25.6120   35.4540 N   0  0  0  0  0  0  0  0  0  0  0  0
   42.3080   25.3100   33.0320 N   0  0  0  0  0  0  0  0  0  0  0  0
   43.0630   26.5030   35.2420 H   0  0  0  0  0  0  0  0  0  0  0  0
   36.9130   27.9390   32.7740 C   0  0  0  0  0  0  0  0  0  0  0  0
   35.6760   28.5440   32.8350 C   0  0  0  0  0  0  0  0  0  0  0  0
   35.6230   29.3350   31.6880 C   0  0  0  0  0  0  0  0  0  0  0  0
   36.8370   29.1640   30.9910 C   0  0  0  0  0  0  0  0  0  0  0  0
   37.5720   28.3120   31.6950 O   0  0  0  0  0  0  0  0  0  0  0  0
   37.1560   29.8140   29.7650 N   0  0  0  0  0  0  0  0  0  0  0  0
   36.9640   31.0680   29.3720 C   0  0  0  0  0  0  0  0  0  0  0  0
   37.4240   31.2970   28.0920 C   0  0  0  0  0  0  0  0  0  0  0  0
   37.9250   30.1050   27.6910 N   0  0  0  0  0  0  0  0  0  0  0  0
   37.7620   29.2180   28.6970 C   0  0  0  0  0  0  0  0  0  0  0  0
   37.9557   23.6914   33.8770 H   0  0  0  0  0  0  0  0  0  0  0  0
   39.4965   26.8532   36.4347 H   0  0  0  0  0  0  0  0  0  0  0  0
   39.5813   22.2576   38.6867 H   0  0  0  0  0  0  0  0  0  0  0  0
   41.6796   22.0036   36.9768 H   0  0  0  0  0  0  0  0  0  0  0  0
   41.6134   22.9252   34.0168 H   0  0  0  0  0  0  0  0  0  0  0  0
   42.7888   26.1835   32.7736 H   0  0  0  0  0  0  0  0  0  0  0  0
   41.9357   24.6906   32.2981 H   0  0  0  0  0  0  0  0  0  0  0  0
   34.9058   28.4289   33.6119 H   0  0  0  0  0  0  0  0  0  0  0  0
   34.7843   29.9775   31.3816 H   0  0  0  0  0  0  0  0  0  0  0  0
   36.4905   31.8387   29.9980 H   0  0  0  0  0  0  0  0  0  0  0  0
   37.3911   32.2383   27.5237 H   0  0  0  0  0  0  0  0  0  0  0  0
   38.0738   28.1638   28.6605 H   0  0  0  0  0  0  0  0  0  0  0  0
  1  2  2  0
  2  3  1  0
  2  7  1  0
  4  3  2  0
  5  4  1  0
  6  5  2  0
  6  1  1  0
  7  8  1  0
  8  9  2  0
 10  9  1  0
 11  7  1  0
 11 10  2  0
 12 11  1  0
 13 12  1  0
 13 14  2  0
 15 13  1  0
 16 14  1  0
 17 18  2  0
 17  5  1  0
 19 18  1  0
 20 19  2  0
 20 21  1  0
 21 17  1  0
 22 20  1  0
 23 22  1  0
 24 23  2  0
 25 24  1  0
 25 26  2  0
 26 22  1  0
  1 27  1  0
  3 28  1  0
  9 29  1  0
 10 30  1  0
 12 31  1  0
 15 32  1  0
 15 33  1  0
 18 34  1  0
 19 35  1  0
 23 36  1  0
 24 37  1  0
 26 38  1  0
M  ISO  8  27  14  28  14  29  14  30  14  34  14  35  14  36  14  37  14
M  ISO  1  38  14
M  END
>  <minimizedAffinity>  (1) 
-5.09325933

>  <minimizedRMSD>  (1) 
1.00049579

$$$$
