
     RDKit          3D

 44 47  0  0  0  0  0  0  0  0999 V2000
   37.9470   24.8690   34.2690 C   0  0  0  0  0  0  0  0  0  0  0  0
   38.5590   25.2170   35.4680 C   0  0  0  0  0  0  0  0  0  0  0  0
   38.5770   26.5620   35.8670 C   0  0  0  0  0  0  0  0  0  0  0  0
   37.9760   27.4580   35.0280 N   0  0  0  0  0  0  0  0  0  0  0  0
   37.3920   27.1070   33.8790 C   0  0  0  0  0  0  0  0  0  0  0  0
   37.3750   25.8070   33.4930 N   0  0  0  0  0  0  0  0  0  0  0  0
   39.1500   24.2390   36.2690 N   0  0  0  0  0  0  0  0  0  0  0  0
   38.6970   23.8400   37.4470 N   0  0  0  0  0  0  0  0  0  0  0  0
   39.4660   22.8930   37.9850 C   0  0  0  0  0  0  0  0  0  0  0  0
   40.4820   22.6880   37.0600 C   0  0  0  0  0  0  0  0  0  0  0  0
   40.2770   23.5430   35.9750 C   0  0  0  0  0  0  0  0  0  0  0  0
   41.1140   23.6260   34.8230 N   0  0  0  0  0  0  0  0  0  0  0  0
   41.8430   24.8220   34.4730 C   0  0  0  0  0  0  0  0  0  0  0  0
   42.3200   25.5030   35.4990 N   0  0  0  0  0  0  0  0  0  0  0  0
   41.9550   25.1130   33.0800 N   0  0  0  0  0  0  0  0  0  0  0  0
   42.8520   26.3550   35.2230 H   0  0  0  0  0  0  0  0  0  0  0  0
   36.7560   28.0660   32.9920 C   0  0  0  0  0  0  0  0  0  0  0  0
   35.5790   28.7860   33.0780 C   0  0  0  0  0  0  0  0  0  0  0  0
   35.5460   29.5310   31.8910 C   0  0  0  0  0  0  0  0  0  0  0  0
   36.6910   29.2240   31.1620 C   0  0  0  0  0  0  0  0  0  0  0  0
   37.3850   28.3430   31.8610 O   0  0  0  0  0  0  0  0  0  0  0  0
   36.9780   29.8070   29.8970 N   0  0  0  0  0  0  0  0  0  0  0  0
   36.7010   31.2260   29.7370 C   0  0  0  0  0  0  0  0  0  0  0  0
   37.7150   31.6700   28.6710 C   0  0  0  0  0  0  0  0  0  0  0  0
   38.8940   30.9710   28.8330 O   0  0  0  0  0  0  0  0  0  0  0  0
   38.8610   29.6530   28.4550 C   0  0  0  0  0  0  0  0  0  0  0  0
   37.5260   29.0300   28.7980 C   0  0  0  0  0  0  0  0  0  0  0  0
   37.9304   23.8159   33.9518 H   0  0  0  0  0  0  0  0  0  0  0  0
   39.0509   26.8793   36.8076 H   0  0  0  0  0  0  0  0  0  0  0  0
   39.3264   22.3849   38.9506 H   0  0  0  0  0  0  0  0  0  0  0  0
   41.3101   21.9715   37.1647 H   0  0  0  0  0  0  0  0  0  0  0  0
   41.2019   22.7986   34.2159 H   0  0  0  0  0  0  0  0  0  0  0  0
   42.4636   25.9528   32.7686 H   0  0  0  0  0  0  0  0  0  0  0  0
   41.5272   24.4832   32.3863 H   0  0  0  0  0  0  0  0  0  0  0  0
   34.8383   28.7765   33.8912 H   0  0  0  0  0  0  0  0  0  0  0  0
   34.7553   30.2337   31.5893 H   0  0  0  0  0  0  0  0  0  0  0  0
   35.6696   31.3889   29.3910 H   0  0  0  0  0  0  0  0  0  0  0  0
   36.7924   31.7896   30.6772 H   0  0  0  0  0  0  0  0  0  0  0  0
   37.9105   32.7472   28.7781 H   0  0  0  0  0  0  0  0  0  0  0  0
   37.3051   31.4675   27.6705 H   0  0  0  0  0  0  0  0  0  0  0  0
   39.6592   29.1072   28.9793 H   0  0  0  0  0  0  0  0  0  0  0  0
   39.0087   29.5942   27.3666 H   0  0  0  0  0  0  0  0  0  0  0  0
   36.8524   29.0728   27.9294 H   0  0  0  0  0  0  0  0  0  0  0  0
   37.6408   27.9722   29.0772 H   0  0  0  0  0  0  0  0  0  0  0  0
  1  2  2  0
  2  3  1  0
  2  7  1  0
  4  3  2  0
  5  4  1  0
  6  5  2  0
  6  1  1  0
  7  8  1  0
  8  9  2  0
 10  9  1  0
 11  7  1  0
 11 10  2  0
 12 11  1  0
 13 12  1  0
 13 14  2  0
 15 13  1  0
 16 14  1  0
 17 18  2  0
 17  5  1  0
 19 18  1  0
 20 21  1  0
 20 19  2  0
 21 17  1  0
 22 20  1  0
 23 22  1  0
 24 25  1  0
 24 23  1  0
 26 27  1  0
 26 25  1  0
 27 22  1  0
  1 28  1  0
  3 29  1  0
  9 30  1  0
 10 31  1  0
 12 32  1  0
 15 33  1  0
 15 34  1  0
 18 35  1  0
 19 36  1  0
 23 37  1  0
 23 38  1  0
 24 39  1  0
 24 40  1  0
 26 41  1  0
 26 42  1  0
 27 43  1  0
 27 44  1  0
M  ISO  8  28  14  29  14  30  14  31  14  35  14  36  14  37  13  38  13
M  ISO  6  39  13  40  13  41  13  42  13  43  13  44  13
M  END
>  <minimizedAffinity>  (1) 
-5.09242392

>  <minimizedRMSD>  (1) 
0.971397936

$$$$
