
     RDKit          3D

 32 34  0  0  0  0  0  0  0  0999 V2000
   37.9050   25.0560   34.2490 C   0  0  0  0  0  0  0  0  0  0  0  0
   38.6250   25.3060   35.4260 C   0  0  0  0  0  0  0  0  0  0  0  0
   38.6020   26.5880   36.0110 C   0  0  0  0  0  0  0  0  0  0  0  0
   37.8480   27.5290   35.3590 N   0  0  0  0  0  0  0  0  0  0  0  0
   37.1650   27.2840   34.2390 C   0  0  0  0  0  0  0  0  0  0  0  0
   37.1880   26.0380   33.6710 N   0  0  0  0  0  0  0  0  0  0  0  0
   39.3670   24.2830   36.0190 N   0  0  0  0  0  0  0  0  0  0  0  0
   39.0460   23.6420   37.1350 N   0  0  0  0  0  0  0  0  0  0  0  0
   39.9400   22.7180   37.4570 C   0  0  0  0  0  0  0  0  0  0  0  0
   40.9180   22.7760   36.4550 C   0  0  0  0  0  0  0  0  0  0  0  0
   40.5360   23.7780   35.5490 C   0  0  0  0  0  0  0  0  0  0  0  0
   41.2710   24.1450   34.3860 N   0  0  0  0  0  0  0  0  0  0  0  0
   41.9820   25.3840   34.2730 C   0  0  0  0  0  0  0  0  0  0  0  0
   42.5550   25.8070   35.3770 N   0  0  0  0  0  0  0  0  0  0  0  0
   41.9820   26.0080   32.9800 N   0  0  0  0  0  0  0  0  0  0  0  0
   43.0730   26.7030   35.2660 H   0  0  0  0  0  0  0  0  0  0  0  0
   36.3680   28.2850   33.5540 C   0  0  0  0  0  0  0  0  0  0  0  0
   35.4330   29.2000   34.0000 C   0  0  0  0  0  0  0  0  0  0  0  0
   35.0290   29.8750   32.8550 C   0  0  0  0  0  0  0  0  0  0  0  0
   35.7310   29.3460   31.7690 C   0  0  0  0  0  0  0  0  0  0  0  0
   36.5300   28.3850   32.2520 O   0  0  0  0  0  0  0  0  0  0  0  0
   35.5610   29.7990   30.4870 O   0  0  0  0  0  0  0  0  0  0  0  0
   37.9261   24.0537   33.7962 H   0  0  0  0  0  0  0  0  0  0  0  0
   39.1548   26.8191   36.9335 H   0  0  0  0  0  0  0  0  0  0  0  0
   39.9187   22.0465   38.3280 H   0  0  0  0  0  0  0  0  0  0  0  0
   41.8205   22.1504   36.3902 H   0  0  0  0  0  0  0  0  0  0  0  0
   41.2926   23.4909   33.5907 H   0  0  0  0  0  0  0  0  0  0  0  0
   42.4767   26.9003   32.8388 H   0  0  0  0  0  0  0  0  0  0  0  0
   41.4873   25.5634   32.1936 H   0  0  0  0  0  0  0  0  0  0  0  0
   35.0861   29.3584   35.0318 H   0  0  0  0  0  0  0  0  0  0  0  0
   34.2859   30.6849   32.8110 H   0  0  0  0  0  0  0  0  0  0  0  0
   34.9186   30.5290   30.3010 H   0  0  0  0  0  0  0  0  0  0  0  0
  1  2  2  0
  2  3  1  0
  2  7  1  0
  4  3  2  0
  5  4  1  0
  6  5  2  0
  6  1  1  0
  7  8  1  0
  8  9  2  0
 10  9  1  0
 11  7  1  0
 11 10  2  0
 12 11  1  0
 13 12  1  0
 13 14  2  0
 15 13  1  0
 16 14  1  0
 17 18  2  0
 17  5  1  0
 19 18  1  0
 20 21  1  0
 20 19  2  0
 21 17  1  0
 22 20  1  0
  1 23  1  0
  3 24  1  0
  9 25  1  0
 10 26  1  0
 12 27  1  0
 15 28  1  0
 15 29  1  0
 18 30  1  0
 19 31  1  0
 22 32  1  0
M  ISO  7  23  14  24  14  25  14  26  14  30  14  31  14  32   3
M  END
>  <minimizedAffinity>  (1) 
-4.93612051

>  <minimizedRMSD>  (1) 
0.828768969

$$$$
