
     RDKit          3D

 34 36  0  0  0  0  0  0  0  0999 V2000
   38.0590   24.7820   34.2880 C   0  0  0  0  0  0  0  0  0  0  0  0
   38.8680   25.1050   35.3820 C   0  0  0  0  0  0  0  0  0  0  0  0
   39.0080   26.4570   35.7780 C   0  0  0  0  0  0  0  0  0  0  0  0
   38.3140   27.3690   35.0330 N   0  0  0  0  0  0  0  0  0  0  0  0
   37.5430   27.0430   33.9890 C   0  0  0  0  0  0  0  0  0  0  0  0
   37.4130   25.7480   33.6130 N   0  0  0  0  0  0  0  0  0  0  0  0
   39.5430   24.1010   36.0870 N   0  0  0  0  0  0  0  0  0  0  0  0
   39.1120   23.5350   37.2000 N   0  0  0  0  0  0  0  0  0  0  0  0
   39.9540   22.6100   37.6550 C   0  0  0  0  0  0  0  0  0  0  0  0
   41.0110   22.6010   36.7330 C   0  0  0  0  0  0  0  0  0  0  0  0
   40.7330   23.5510   35.7480 C   0  0  0  0  0  0  0  0  0  0  0  0
   41.5650   23.8440   34.6340 N   0  0  0  0  0  0  0  0  0  0  0  0
   42.3550   25.0370   34.5510 C   0  0  0  0  0  0  0  0  0  0  0  0
   42.8740   25.4630   35.6650 N   0  0  0  0  0  0  0  0  0  0  0  0
   42.4930   25.6360   33.2590 N   0  0  0  0  0  0  0  0  0  0  0  0
   43.4380   26.3320   35.5980 H   0  0  0  0  0  0  0  0  0  0  0  0
   36.8170   28.0320   33.2140 C   0  0  0  0  0  0  0  0  0  0  0  0
   35.6850   28.7800   33.4620 C   0  0  0  0  0  0  0  0  0  0  0  0
   35.5130   29.5410   32.3100 C   0  0  0  0  0  0  0  0  0  0  0  0
   36.5350   29.2240   31.4240 C   0  0  0  0  0  0  0  0  0  0  0  0
   37.2920   28.3120   32.0140 O   0  0  0  0  0  0  0  0  0  0  0  0
   36.6580   29.8540   30.0860 C   0  0  0  0  0  0  0  0  0  0  0  0
   37.9509   23.7320   33.9784 H   0  0  0  0  0  0  0  0  0  0  0  0
   39.6354   26.7547   36.6311 H   0  0  0  0  0  0  0  0  0  0  0  0
   39.8449   21.9889   38.5563 H   0  0  0  0  0  0  0  0  0  0  0  0
   41.9026   21.9583   36.7780 H   0  0  0  0  0  0  0  0  0  0  0  0
   41.6019   23.1718   33.8545 H   0  0  0  0  0  0  0  0  0  0  0  0
   43.0506   26.4946   33.1463 H   0  0  0  0  0  0  0  0  0  0  0  0
   42.0347   25.2086   32.4416 H   0  0  0  0  0  0  0  0  0  0  0  0
   35.0592   28.7758   34.3667 H   0  0  0  0  0  0  0  0  0  0  0  0
   34.7070   30.2680   32.1316 H   0  0  0  0  0  0  0  0  0  0  0  0
   36.8676   30.9274   30.2040 H   0  0  0  0  0  0  0  0  0  0  0  0
   37.4803   29.3787   29.5311 H   0  0  0  0  0  0  0  0  0  0  0  0
   35.7173   29.7229   29.5311 H   0  0  0  0  0  0  0  0  0  0  0  0
  1  2  2  0
  2  3  1  0
  2  7  1  0
  4  3  2  0
  5  4  1  0
  6  5  2  0
  6  1  1  0
  7  8  1  0
  8  9  2  0
 10  9  1  0
 11  7  1  0
 11 10  2  0
 12 11  1  0
 13 12  1  0
 13 14  2  0
 15 13  1  0
 16 14  1  0
 17 18  2  0
 17  5  1  0
 19 18  1  0
 20 21  1  0
 20 19  2  0
 21 17  1  0
 22 20  1  0
  1 23  1  0
  3 24  1  0
  9 25  1  0
 10 26  1  0
 12 27  1  0
 15 28  1  0
 15 29  1  0
 18 30  1  0
 19 31  1  0
 22 32  1  0
 22 33  1  0
 22 34  1  0
M  ISO  8  23  14  24  14  25  14  26  14  30  14  31  14  32   8  33   8
M  ISO  1  34   8
M  END
>  <minimizedAffinity>  (1) 
-4.67751455

>  <minimizedRMSD>  (1) 
0.470744729

$$$$
