
     RDKit          3D

 14 14  0  0  0  0  0  0  0  0999 V2000
   41.8120   21.4250   36.4470 C   0  0  0  0  0  0  0  0  0  0  0  0
   40.9620   21.8020   37.5070 C   0  0  0  0  0  0  0  0  0  0  0  0
   40.1030   22.8840   37.3100 C   0  0  0  0  0  0  0  0  0  0  0  0
   40.1260   23.5220   36.1070 N   0  0  0  0  0  0  0  0  0  0  0  0
   40.9510   23.1330   35.1210 C   0  0  0  0  0  0  0  0  0  0  0  0
   41.8000   22.0880   35.2730 N   0  0  0  0  0  0  0  0  0  0  0  0
   39.3070   23.2000   38.3690 O   0  0  0  0  0  0  0  0  0  0  0  0
   37.9870   23.6450   38.3170 C   0  0  0  0  0  0  0  0  0  0  0  0
   37.4790   23.7950   37.0420 F   0  0  0  0  0  0  0  0  0  0  0  0
   37.7980   24.8350   39.0200 F   0  0  0  0  0  0  0  0  0  0  0  0
   37.2050   22.7170   38.9760 F   0  0  0  0  0  0  0  0  0  0  0  0
   42.4971   20.5748   36.5802 H   0  0  0  0  0  0  0  0  0  0  0  0
   40.9756   21.2581   38.4630 H   0  0  0  0  0  0  0  0  0  0  0  0
   40.9370   23.6770   34.1651 H   0  0  0  0  0  0  0  0  0  0  0  0
  1  2  2  0
  3  2  1  0
  3  7  1  0
  4  3  2  0
  5  6  2  0
  5  4  1  0
  6  1  1  0
  8  7  1  0
  8 11  1  0
  8 10  1  0
  9  8  1  0
  1 12  1  0
  2 13  1  0
  5 14  1  0
M  ISO  3  12  14  13  14  14  14
M  END
>  <minimizedAffinity>  (1) 
-3.61177635

>  <minimizedRMSD>  (1) 
2.36454439

$$$$
