
     RDKit          3D

 24 25  0  0  0  0  0  0  0  0999 V2000
   39.4410   22.8280   37.8730 C   0  0  0  0  0  0  0  0  0  0  0  0
   38.8920   23.6450   36.8530 C   0  0  0  0  0  0  0  0  0  0  0  0
   39.6990   23.9420   35.7360 C   0  0  0  0  0  0  0  0  0  0  0  0
   40.9540   23.4290   35.7070 N   0  0  0  0  0  0  0  0  0  0  0  0
   41.4370   22.6580   36.6970 C   0  0  0  0  0  0  0  0  0  0  0  0
   40.6870   22.3550   37.7800 N   0  0  0  0  0  0  0  0  0  0  0  0
   39.1160   24.7340   34.7840 O   0  0  0  0  0  0  0  0  0  0  0  0
   38.1550   25.6900   35.2060 C   0  0  0  0  0  0  0  0  0  0  0  0
   37.3750   26.1720   34.0000 C   0  0  0  0  0  0  0  0  0  0  0  0
   36.7090   27.4230   34.5500 C   0  0  0  0  0  0  0  0  0  0  0  0
   37.7800   28.0320   35.4000 C   0  0  0  0  0  0  0  0  0  0  0  0
   38.8140   26.9700   35.6750 C   0  0  0  0  0  0  0  0  0  0  0  0
   38.8318   22.5796   38.7546 H   0  0  0  0  0  0  0  0  0  0  0  0
   37.8667   24.0357   36.9308 H   0  0  0  0  0  0  0  0  0  0  0  0
   42.4623   22.2662   36.6242 H   0  0  0  0  0  0  0  0  0  0  0  0
   37.5580   25.2001   35.9893 H   0  0  0  0  0  0  0  0  0  0  0  0
   36.6306   25.4283   33.6795 H   0  0  0  0  0  0  0  0  0  0  0  0
   37.9931   26.3485   33.1074 H   0  0  0  0  0  0  0  0  0  0  0  0
   36.4150   28.1036   33.7374 H   0  0  0  0  0  0  0  0  0  0  0  0
   35.7838   27.2114   35.1060 H   0  0  0  0  0  0  0  0  0  0  0  0
   38.2437   28.8763   34.8688 H   0  0  0  0  0  0  0  0  0  0  0  0
   37.3544   28.4054   36.3431 H   0  0  0  0  0  0  0  0  0  0  0  0
   39.0471   26.9195   36.7488 H   0  0  0  0  0  0  0  0  0  0  0  0
   39.7694   27.1663   35.1664 H   0  0  0  0  0  0  0  0  0  0  0  0
  2  1  2  0
  3  2  1  0
  4  3  2  0
  4  5  1  0
  5  6  2  0
  6  1  1  0
  7  8  1  0
  7  3  1  0
  8 12  1  0
  9 10  1  0
  9  8  1  0
 10 11  1  0
 11 12  1  0
  1 13  1  0
  2 14  1  0
  5 15  1  0
  8 16  1  0
  9 17  1  0
  9 18  1  0
 10 19  1  0
 10 20  1  0
 11 21  1  0
 11 22  1  0
 12 23  1  0
 12 24  1  0
M  ISO  8  13  14  14  14  15  14  16  13  17  13  18  13  19  13  20  13
M  ISO  4  21  13  22  13  23  13  24  13
M  END
>  <minimizedAffinity>  (1) 
-3.54998565

>  <minimizedRMSD>  (1) 
3.30213141

$$$$
