
     RDKit          3D

 17 17  0  0  0  0  0  0  0  0999 V2000
   40.4530   22.2010   37.6180 C   0  0  0  0  0  0  0  0  0  0  0  0
   39.4250   23.1620   37.7380 C   0  0  0  0  0  0  0  0  0  0  0  0
   38.9540   23.8070   36.5900 C   0  0  0  0  0  0  0  0  0  0  0  0
   39.5270   23.4620   35.4030 N   0  0  0  0  0  0  0  0  0  0  0  0
   40.5010   22.5460   35.3190 C   0  0  0  0  0  0  0  0  0  0  0  0
   40.9640   21.9180   36.4170 N   0  0  0  0  0  0  0  0  0  0  0  0
   37.9620   24.7220   36.7730 O   0  0  0  0  0  0  0  0  0  0  0  0
   37.7600   25.6900   35.7570 C   0  0  0  0  0  0  0  0  0  0  0  0
   38.4630   27.0030   36.0740 C   0  0  0  0  0  0  0  0  0  0  0  0
   40.8324   21.6861   38.5129 H   0  0  0  0  0  0  0  0  0  0  0  0
   38.9994   23.4006   38.7239 H   0  0  0  0  0  0  0  0  0  0  0  0
   40.9302   22.3024   34.3359 H   0  0  0  0  0  0  0  0  0  0  0  0
   36.6812   25.8798   35.6564 H   0  0  0  0  0  0  0  0  0  0  0  0
   38.1828   25.2948   34.8215 H   0  0  0  0  0  0  0  0  0  0  0  0
   38.5304   27.1288   37.1647 H   0  0  0  0  0  0  0  0  0  0  0  0
   39.4750   26.9904   35.6431 H   0  0  0  0  0  0  0  0  0  0  0  0
   37.8914   27.8383   35.6431 H   0  0  0  0  0  0  0  0  0  0  0  0
  1  2  2  0
  3  7  1  0
  3  2  1  0
  4  3  2  0
  5  4  1  0
  5  6  2  0
  6  1  1  0
  8  9  1  0
  8  7  1  0
  1 10  1  0
  2 11  1  0
  5 12  1  0
  8 13  1  0
  8 14  1  0
  9 15  1  0
  9 16  1  0
  9 17  1  0
M  ISO  8  10  14  11  14  12  14  13   8  14   8  15   8  16   8  17   8
M  END
>  <minimizedAffinity>  (1) 
-2.82271457

>  <minimizedRMSD>  (1) 
1.86569548

$$$$
