
     RDKit          3D

 20 20  0  0  0  0  0  0  0  0999 V2000
   42.2700   20.8690   37.0950 C   0  0  0  0  0  0  0  0  0  0  0  0
   41.2540   21.7550   37.5470 C   0  0  0  0  0  0  0  0  0  0  0  0
   40.5790   22.5410   36.5970 C   0  0  0  0  0  0  0  0  0  0  0  0
   40.9440   22.4030   35.3010 N   0  0  0  0  0  0  0  0  0  0  0  0
   41.9070   21.5590   34.8930 C   0  0  0  0  0  0  0  0  0  0  0  0
   42.5720   20.7930   35.7810 N   0  0  0  0  0  0  0  0  0  0  0  0
   39.6140   23.3700   37.1070 O   0  0  0  0  0  0  0  0  0  0  0  0
   38.4270   23.7030   36.3900 C   0  0  0  0  0  0  0  0  0  0  0  0
   37.2760   23.0390   37.1570 C   0  0  0  0  0  0  0  0  0  0  0  0
   38.1470   25.1720   36.3560 C   0  0  0  0  0  0  0  0  0  0  0  0
   42.8123   20.2428   37.8187 H   0  0  0  0  0  0  0  0  0  0  0  0
   41.0020   21.8238   38.6155 H   0  0  0  0  0  0  0  0  0  0  0  0
   42.1552   21.4925   33.8234 H   0  0  0  0  0  0  0  0  0  0  0  0
   38.5387   23.3673   35.3484 H   0  0  0  0  0  0  0  0  0  0  0  0
   37.4500   23.1394   38.2385 H   0  0  0  0  0  0  0  0  0  0  0  0
   36.3276   23.5287   36.8912 H   0  0  0  0  0  0  0  0  0  0  0  0
   37.2252   21.9728   36.8912 H   0  0  0  0  0  0  0  0  0  0  0  0
   38.0740   25.5552   37.3845 H   0  0  0  0  0  0  0  0  0  0  0  0
   38.9628   25.6887   35.8293 H   0  0  0  0  0  0  0  0  0  0  0  0
   37.1983   25.3523   35.8293 H   0  0  0  0  0  0  0  0  0  0  0  0
  1  2  2  0
  3  7  1  0
  3  2  1  0
  4  3  2  0
  5  4  1  0
  5  6  2  0
  6  1  1  0
  8  7  1  0
  8  9  1  0
 10  8  1  0
  1 11  1  0
  2 12  1  0
  5 13  1  0
  8 14  1  0
  9 15  1  0
  9 16  1  0
  9 17  1  0
 10 18  1  0
 10 19  1  0
 10 20  1  0
M  ISO  8  11  14  12  14  13  14  14   8  15   8  16   8  17   8  18   8
M  ISO  2  19   8  20   8
M  END
>  <minimizedAffinity>  (1) 
-2.63292646

>  <minimizedRMSD>  (1) 
2.93184161

$$$$
