
     RDKit          3D

 29 30  0  0  0  0  0  0  0  0999 V2000
   38.3980   24.7430   34.6960 C   0  0  0  0  0  0  0  0  0  0  0  0
   39.7380   22.8190   37.6080 C   0  0  0  0  0  0  0  0  0  0  0  0
   38.9080   23.2940   38.6490 C   0  0  0  0  0  0  0  0  0  0  0  0
   37.9230   24.2450   38.3420 C   0  0  0  0  0  0  0  0  0  0  0  0
   37.8120   24.6720   37.0430 N   0  0  0  0  0  0  0  0  0  0  0  0
   38.6240   24.1930   36.0810 C   0  0  0  0  0  0  0  0  0  0  0  0
   39.5750   23.2790   36.3580 N   0  0  0  0  0  0  0  0  0  0  0  0
   38.2190   26.2400   34.7660 C   0  0  0  0  0  0  0  0  0  0  0  0
   37.6050   26.7830   33.5770 N   0  0  0  0  0  0  0  0  0  0  0  0
   36.9710   25.7630   32.7900 C   0  0  0  0  0  0  0  0  0  0  0  0
   36.3230   26.3890   31.5680 C   0  0  0  0  0  0  0  0  0  0  0  0
   35.5560   27.4900   31.8440 O   0  0  0  0  0  0  0  0  0  0  0  0
   36.2350   28.4420   32.5880 C   0  0  0  0  0  0  0  0  0  0  0  0
   36.6970   27.8550   33.9140 C   0  0  0  0  0  0  0  0  0  0  0  0
   37.4951   24.2866   34.2642 H   0  0  0  0  0  0  0  0  0  0  0  0
   39.2681   24.5093   34.0648 H   0  0  0  0  0  0  0  0  0  0  0  0
   40.5171   22.0727   37.8225 H   0  0  0  0  0  0  0  0  0  0  0  0
   39.0317   22.9258   39.6781 H   0  0  0  0  0  0  0  0  0  0  0  0
   37.2563   24.6384   39.1235 H   0  0  0  0  0  0  0  0  0  0  0  0
   37.5828   26.4785   35.6311 H   0  0  0  0  0  0  0  0  0  0  0  0
   39.2181   26.6905   34.8600 H   0  0  0  0  0  0  0  0  0  0  0  0
   37.7238   25.0281   32.4687 H   0  0  0  0  0  0  0  0  0  0  0  0
   36.2007   25.2621   33.3947 H   0  0  0  0  0  0  0  0  0  0  0  0
   35.6825   25.6326   31.0909 H   0  0  0  0  0  0  0  0  0  0  0  0
   37.1401   26.7274   30.9139 H   0  0  0  0  0  0  0  0  0  0  0  0
   37.1117   28.7870   32.0202 H   0  0  0  0  0  0  0  0  0  0  0  0
   35.5572   29.2845   32.7898 H   0  0  0  0  0  0  0  0  0  0  0  0
   35.8381   27.4653   34.4800 H   0  0  0  0  0  0  0  0  0  0  0  0
   37.1839   28.6139   34.5441 H   0  0  0  0  0  0  0  0  0  0  0  0
  1  8  1  0
  1  6  1  0
  2  3  2  0
  4  3  1  0
  5  4  2  0
  6  7  2  0
  6  5  1  0
  7  2  1  0
  9 14  1  0
  9  8  1  0
 10  9  1  0
 11 12  1  0
 11 10  1  0
 12 13  1  0
 13 14  1  0
  1 15  1  0
  1 16  1  0
  2 17  1  0
  3 18  1  0
  4 19  1  0
  8 20  1  0
  8 21  1  0
 10 22  1  0
 10 23  1  0
 11 24  1  0
 11 25  1  0
 13 26  1  0
 13 27  1  0
 14 28  1  0
 14 29  1  0
M  ISO  8  15   8  16   8  17  14  18  14  19  14  20   8  21   8  22  13
M  ISO  7  23  13  24  13  25  13  26  13  27  13  28  13  29  13
M  END
>  <minimizedAffinity>  (1) 
-3.81000352

>  <minimizedRMSD>  (1) 
2.39568257

$$$$
