
     RDKit          3D

 34 37  0  0  1  0  0  0  0  0999 V2000
   43.4670   25.3780   35.7100 C   0  0  1  0  0  0  0  0  0  0  0  0
   43.2040   25.8220   34.3380 C   0  0  0  0  0  0  0  0  0  0  0  0
   42.3160   24.7760   34.9210 C   0  0  2  0  0  0  0  0  0  0  0  0
   40.9330   25.2930   35.0820 C   0  0  0  0  0  0  0  0  0  0  0  0
   40.5460   26.5330   34.5530 C   0  0  0  0  0  0  0  0  0  0  0  0
   39.3100   27.0820   34.6510 C   0  0  0  0  0  0  0  0  0  0  0  0
   38.3250   26.4130   35.3070 C   0  0  0  0  0  0  0  0  0  0  0  0
   38.6110   25.1860   35.8600 C   0  0  0  0  0  0  0  0  0  0  0  0
   37.6320   24.4950   36.5220 C   0  0  0  0  0  0  0  0  0  0  0  0
   37.8890   23.2530   37.0870 C   0  0  0  0  0  0  0  0  0  0  0  0
   39.1710   22.7150   36.9690 C   0  0  0  0  0  0  0  0  0  0  0  0
   40.0940   23.4590   36.2970 C   0  0  0  0  0  0  0  0  0  0  0  0
   39.8830   24.6820   35.7290 C   0  0  0  0  0  0  0  0  0  0  0  0
   44.6430   24.5670   35.7790 O   0  0  0  0  0  0  0  0  0  0  0  0
   47.7190   23.8510   37.4970 C   0  0  0  0  0  0  0  0  0  0  0  0
   46.7090   23.9030   36.4870 C   0  0  0  0  0  0  0  0  0  0  0  0
   45.5290   24.6050   36.8210 C   0  0  0  0  0  0  0  0  0  0  0  0
   45.4220   25.1760   38.0420 N   0  0  0  0  0  0  0  0  0  0  0  0
   46.3770   25.1080   38.9510 C   0  0  0  0  0  0  0  0  0  0  0  0
   47.5140   24.4570   38.6950 N   0  0  0  0  0  0  0  0  0  0  0  0
   43.5478   25.8441   36.7031 H   0  0  0  0  0  0  0  0  0  0  0  0
   43.9063   25.5545   33.5348 H   0  0  0  0  0  0  0  0  0  0  0  0
   43.0295   26.8017   33.8693 H   0  0  0  0  0  0  0  0  0  0  0  0
   42.0116   23.7328   34.7504 H   0  0  0  0  0  0  0  0  0  0  0  0
   41.3108   27.1097   34.0122 H   0  0  0  0  0  0  0  0  0  0  0  0
   39.1051   28.0648   34.2015 H   0  0  0  0  0  0  0  0  0  0  0  0
   37.3171   26.8450   35.3942 H   0  0  0  0  0  0  0  0  0  0  0  0
   36.6256   24.9307   36.6077 H   0  0  0  0  0  0  0  0  0  0  0  0
   37.0972   22.7037   37.6174 H   0  0  0  0  0  0  0  0  0  0  0  0
   39.4251   21.7349   37.3989 H   0  0  0  0  0  0  0  0  0  0  0  0
   41.1042   23.0339   36.2035 H   0  0  0  0  0  0  0  0  0  0  0  0
   48.6628   23.3199   37.3039 H   0  0  0  0  0  0  0  0  0  0  0  0
   46.8426   23.4240   35.5058 H   0  0  0  0  0  0  0  0  0  0  0  0
   46.2345   25.5922   39.9284 H   0  0  0  0  0  0  0  0  0  0  0  0
  1 14  1  0
  2  3  1  0
  2  1  1  0
  3  4  1  0
  3  1  1  0
  4 13  2  0
  5  6  2  0
  5  4  1  0
  6  7  1  0
  7  8  2  0
  8  9  1  0
  9 10  2  0
 11 10  1  0
 12 11  2  0
 13  8  1  0
 13 12  1  0
 14 17  1  0
 15 20  2  0
 16 17  2  0
 16 15  1  0
 17 18  1  0
 18 19  2  0
 20 19  1  0
  1 21  1  1
  2 22  1  0
  2 23  1  0
  3 24  1  6
  5 25  1  0
  6 26  1  0
  7 27  1  0
  9 28  1  0
 10 29  1  0
 11 30  1  0
 12 31  1  0
 15 32  1  0
 16 33  1  0
 19 34  1  0
M  ISO  8  21  13  22  13  23  13  24  13  25  14  26  14  27  14  28  14
M  ISO  6  29  14  30  14  31  14  32  14  33  14  34  14
M  END
>  <minimizedAffinity>  (1) 
-4.9255414

>  <minimizedRMSD>  (1) 
7.87498379

$$$$
