
     RDKit          3D

 31 34  0  0  1  0  0  0  0  0999 V2000
   43.3010   24.9380   35.7520 C   0  0  1  0  0  0  0  0  0  0  0  0
   42.2220   25.3360   34.8410 C   0  0  0  0  0  0  0  0  0  0  0  0
   42.3440   23.8960   35.1660 C   0  0  2  0  0  0  0  0  0  0  0  0
   41.3450   23.4100   36.0910 N   0  0  0  0  0  0  0  0  0  0  0  0
   41.5140   22.4400   37.0070 C   0  0  0  0  0  0  0  0  0  0  0  0
   40.3730   22.2230   37.7170 N   0  0  0  0  0  0  0  0  0  0  0  0
   39.4310   23.0810   37.2450 C   0  0  0  0  0  0  0  0  0  0  0  0
   38.1130   23.3470   37.5370 C   0  0  0  0  0  0  0  0  0  0  0  0
   37.4210   24.3060   36.8550 N   0  0  0  0  0  0  0  0  0  0  0  0
   38.0490   24.9960   35.8830 C   0  0  0  0  0  0  0  0  0  0  0  0
   39.3270   24.7160   35.6220 N   0  0  0  0  0  0  0  0  0  0  0  0
   40.0670   23.8020   36.2370 C   0  0  0  0  0  0  0  0  0  0  0  0
   37.4780   22.6050   38.5670 N   0  0  0  0  0  0  0  0  0  0  0  0
   44.5950   24.9720   35.1180 O   0  0  0  0  0  0  0  0  0  0  0  0
   46.5620   25.7120   38.0300 C   0  0  0  0  0  0  0  0  0  0  0  0
   45.4950   25.2840   37.1750 C   0  0  0  0  0  0  0  0  0  0  0  0
   45.7170   25.4120   35.7860 C   0  0  0  0  0  0  0  0  0  0  0  0
   46.8950   25.9150   35.3270 N   0  0  0  0  0  0  0  0  0  0  0  0
   47.8510   26.2960   36.1620 C   0  0  0  0  0  0  0  0  0  0  0  0
   47.7050   26.2040   37.4860 N   0  0  0  0  0  0  0  0  0  0  0  0
   43.6264   25.2092   36.7672 H   0  0  0  0  0  0  0  0  0  0  0  0
   42.4687   25.6865   33.8279 H   0  0  0  0  0  0  0  0  0  0  0  0
   41.4006   26.0649   34.9046 H   0  0  0  0  0  0  0  0  0  0  0  0
   42.4494   22.9613   34.5957 H   0  0  0  0  0  0  0  0  0  0  0  0
   42.4547   21.8916   37.1627 H   0  0  0  0  0  0  0  0  0  0  0  0
   37.5184   25.7749   35.3158 H   0  0  0  0  0  0  0  0  0  0  0  0
   36.4919   22.7887   38.8011 H   0  0  0  0  0  0  0  0  0  0  0  0
   38.0033   21.8829   39.0803 H   0  0  0  0  0  0  0  0  0  0  0  0
   46.4559   25.6424   39.1227 H   0  0  0  0  0  0  0  0  0  0  0  0
   44.5553   24.8783   37.5779 H   0  0  0  0  0  0  0  0  0  0  0  0
   48.7896   26.6987   35.7535 H   0  0  0  0  0  0  0  0  0  0  0  0
  2  3  1  0
  2  1  1  0
  3  1  1  0
  3  4  1  0
  4 12  1  0
  4  5  1  0
  5  6  2  0
  7  8  2  0
  7  6  1  0
  8 13  1  0
  9  8  1  0
 10  9  2  0
 11 10  1  0
 11 12  2  0
 12  7  1  0
 14  1  1  0
 14 17  1  0
 16 15  2  0
 17 16  1  0
 18 17  2  0
 18 19  1  0
 19 20  2  0
 20 15  1  0
  1 21  1  1
  2 22  1  0
  2 23  1  0
  3 24  1  6
  5 25  1  0
 10 26  1  0
 13 27  1  0
 13 28  1  0
 15 29  1  0
 16 30  1  0
 19 31  1  0
M  ISO  8  21  13  22  13  23  13  24  13  25  14  26  14  29  14  30  14
M  ISO  1  31  14
M  END
>  <minimizedAffinity>  (1) 
-4.82217073

>  <minimizedRMSD>  (1) 
8.09917355

$$$$
