
     RDKit          3D

 28 30  0  0  1  0  0  0  0  0999 V2000
   44.8880   25.2560   37.2910 C   0  0  1  0  0  0  0  0  0  0  0  0
   44.9350   26.1700   38.4340 C   0  0  0  0  0  0  0  0  0  0  0  0
   45.8280   24.9890   38.4610 C   0  0  2  0  0  0  0  0  0  0  0  0
   47.2660   25.1640   38.1470 C   0  0  0  0  0  0  0  0  0  0  0  0
   48.2130   24.2460   38.5570 C   0  0  0  0  0  0  0  0  0  0  0  0
   49.5440   24.4400   38.2460 C   0  0  0  0  0  0  0  0  0  0  0  0
   49.9570   25.5530   37.5200 C   0  0  0  0  0  0  0  0  0  0  0  0
   49.0460   26.4980   37.0880 C   0  0  0  0  0  0  0  0  0  0  0  0
   47.7310   26.2480   37.4300 C   0  0  0  0  0  0  0  0  0  0  0  0
   43.7010   24.4510   37.2640 O   0  0  0  0  0  0  0  0  0  0  0  0
   42.0200   21.6350   35.8120 C   0  0  0  0  0  0  0  0  0  0  0  0
   42.2790   22.8440   36.5230 C   0  0  0  0  0  0  0  0  0  0  0  0
   43.6210   23.2880   36.5280 C   0  0  0  0  0  0  0  0  0  0  0  0
   44.5800   22.5780   35.8800 N   0  0  0  0  0  0  0  0  0  0  0  0
   44.2830   21.4540   35.2300 C   0  0  0  0  0  0  0  0  0  0  0  0
   43.0340   20.9830   35.1900 N   0  0  0  0  0  0  0  0  0  0  0  0
   45.0154   25.3359   36.2013 H   0  0  0  0  0  0  0  0  0  0  0  0
   45.3659   27.1744   38.3093 H   0  0  0  0  0  0  0  0  0  0  0  0
   44.1771   26.5704   39.1234 H   0  0  0  0  0  0  0  0  0  0  0  0
   46.0111   24.1886   39.1930 H   0  0  0  0  0  0  0  0  0  0  0  0
   47.9065   23.3596   39.1318 H   0  0  0  0  0  0  0  0  0  0  0  0
   50.2901   23.7028   38.5775 H   0  0  0  0  0  0  0  0  0  0  0  0
   51.0241   25.6824   37.2866 H   0  0  0  0  0  0  0  0  0  0  0  0
   49.3465   27.3861   36.5127 H   0  0  0  0  0  0  0  0  0  0  0  0
   46.9828   26.9833   37.0992 H   0  0  0  0  0  0  0  0  0  0  0  0
   40.9978   21.2312   35.7680 H   0  0  0  0  0  0  0  0  0  0  0  0
   41.4807   23.3988   37.0377 H   0  0  0  0  0  0  0  0  0  0  0  0
   45.0833   20.9021   34.7153 H   0  0  0  0  0  0  0  0  0  0  0  0
  1  2  1  0
  1  3  1  0
  2  3  1  0
  4  3  1  0
  4  5  2  0
  6  5  1  0
  7  6  2  0
  8  9  2  0
  8  7  1  0
  9  4  1  0
 10  1  1  0
 11 12  2  0
 12 13  1  0
 13 10  1  0
 14 13  2  0
 15 14  1  0
 16 15  2  0
 16 11  1  0
  1 17  1  6
  2 18  1  0
  2 19  1  0
  3 20  1  1
  5 21  1  0
  6 22  1  0
  7 23  1  0
  8 24  1  0
  9 25  1  0
 11 26  1  0
 12 27  1  0
 15 28  1  0
M  ISO  8  17  13  18  13  19  13  20  13  21  14  22  14  23  14  24  14
M  ISO  4  25  14  26  14  27  14  28  14
M  END
>  <minimizedAffinity>  (1) 
-3.94945693

>  <minimizedRMSD>  (1) 
1.21097684

$$$$
