
     RDKit          3D

 27 29  0  0  1  0  0  0  0  0999 V2000
   44.8990   25.2210   37.2880 C   0  0  1  0  0  0  0  0  0  0  0  0
   44.9680   26.1180   38.4500 C   0  0  0  0  0  0  0  0  0  0  0  0
   45.9140   24.9850   38.4030 C   0  0  2  0  0  0  0  0  0  0  0  0
   47.3280   25.2400   38.0520 C   0  0  0  0  0  0  0  0  0  0  0  0
   48.3610   24.3750   38.3040 C   0  0  0  0  0  0  0  0  0  0  0  0
   49.6650   24.6600   37.9560 C   0  0  0  0  0  0  0  0  0  0  0  0
   49.9790   25.8510   37.3300 C   0  0  0  0  0  0  0  0  0  0  0  0
   48.9310   26.7000   37.0880 C   0  0  0  0  0  0  0  0  0  0  0  0
   47.6830   26.3910   37.4380 N   0  0  0  0  0  0  0  0  0  0  0  0
   43.7450   24.3580   37.3320 O   0  0  0  0  0  0  0  0  0  0  0  0
   41.8920   21.7610   35.6940 C   0  0  0  0  0  0  0  0  0  0  0  0
   42.2440   22.8510   36.5430 C   0  0  0  0  0  0  0  0  0  0  0  0
   43.5730   23.3230   36.4430 C   0  0  0  0  0  0  0  0  0  0  0  0
   44.4460   22.7530   35.5730 N   0  0  0  0  0  0  0  0  0  0  0  0
   44.0570   21.7290   34.7980 C   0  0  0  0  0  0  0  0  0  0  0  0
   42.8160   21.2360   34.8480 N   0  0  0  0  0  0  0  0  0  0  0  0
   44.9613   25.3217   36.1944 H   0  0  0  0  0  0  0  0  0  0  0  0
   45.3428   27.1443   38.3225 H   0  0  0  0  0  0  0  0  0  0  0  0
   44.2322   26.4681   39.1890 H   0  0  0  0  0  0  0  0  0  0  0  0
   46.1735   24.1727   39.0979 H   0  0  0  0  0  0  0  0  0  0  0  0
   48.1422   23.4188   38.8018 H   0  0  0  0  0  0  0  0  0  0  0  0
   50.4607   23.9338   38.1785 H   0  0  0  0  0  0  0  0  0  0  0  0
   51.0104   26.1031   37.0426 H   0  0  0  0  0  0  0  0  0  0  0  0
   49.1251   27.6622   36.5916 H   0  0  0  0  0  0  0  0  0  0  0  0
   40.8738   21.3459   35.7240 H   0  0  0  0  0  0  0  0  0  0  0  0
   41.5203   23.3007   37.2387 H   0  0  0  0  0  0  0  0  0  0  0  0
   44.7811   21.2822   34.1009 H   0  0  0  0  0  0  0  0  0  0  0  0
  1 10  1  0
  1  3  1  0
  1  2  1  0
  3  2  1  0
  4  5  2  0
  4  3  1  0
  6  5  1  0
  7  6  2  0
  8  7  1  0
  8  9  2  0
  9  4  1  0
 11 12  2  0
 13 12  1  0
 13 10  1  0
 14 13  2  0
 15 16  2  0
 15 14  1  0
 16 11  1  0
  1 17  1  6
  2 18  1  0
  2 19  1  0
  3 20  1  1
  5 21  1  0
  6 22  1  0
  7 23  1  0
  8 24  1  0
 11 25  1  0
 12 26  1  0
 15 27  1  0
M  ISO  8  17  13  18  13  19  13  20  13  21  14  22  14  23  14  24  14
M  ISO  3  25  14  26  14  27  14
M  END
>  <minimizedAffinity>  (1) 
-3.64729142

>  <minimizedRMSD>  (1) 
1.11732054

$$$$
