
     RDKit          3D

 34 36  0  0  1  0  0  0  0  0999 V2000
   45.0080   24.6550   35.9960 C   0  0  1  0  0  0  0  0  0  0  0  0
   45.2610   26.0970   36.0580 C   0  0  0  0  0  0  0  0  0  0  0  0
   45.6500   25.2800   37.2330 C   0  0  2  0  0  0  0  0  0  0  0  0
   47.1360   25.1300   37.4050 C   0  0  0  0  0  0  0  0  0  0  0  0
   47.5190   24.4710   38.7110 C   0  0  0  0  0  0  0  0  0  0  0  0
   49.0180   24.3060   38.7000 C   0  0  0  0  0  0  0  0  0  0  0  0
   49.6850   24.7780   37.4500 C   0  0  0  0  0  0  0  0  0  0  0  0
   49.3030   26.1820   37.0440 C   0  0  0  0  0  0  0  0  0  0  0  0
   47.8460   26.4460   37.3850 C   0  0  0  0  0  0  0  0  0  0  0  0
   43.6210   24.3300   36.1260 O   0  0  0  0  0  0  0  0  0  0  0  0
   41.2360   21.8640   37.1720 C   0  0  0  0  0  0  0  0  0  0  0  0
   41.8490   23.1140   36.8480 C   0  0  0  0  0  0  0  0  0  0  0  0
   43.1780   23.0500   36.3750 C   0  0  0  0  0  0  0  0  0  0  0  0
   43.8090   21.8560   36.2430 N   0  0  0  0  0  0  0  0  0  0  0  0
   43.1870   20.7160   36.5610 C   0  0  0  0  0  0  0  0  0  0  0  0
   41.9330   20.7090   37.0160 N   0  0  0  0  0  0  0  0  0  0  0  0
   45.2759   23.8255   35.3251 H   0  0  0  0  0  0  0  0  0  0  0  0
   46.0415   26.5394   35.4216 H   0  0  0  0  0  0  0  0  0  0  0  0
   44.6316   26.9890   35.9230 H   0  0  0  0  0  0  0  0  0  0  0  0
   45.4286   25.2496   38.3101 H   0  0  0  0  0  0  0  0  0  0  0  0
   47.4370   24.5011   36.5542 H   0  0  0  0  0  0  0  0  0  0  0  0
   47.2151   25.1048   39.5571 H   0  0  0  0  0  0  0  0  0  0  0  0
   47.0182   23.4978   38.8207 H   0  0  0  0  0  0  0  0  0  0  0  0
   49.4322   24.8744   39.5458 H   0  0  0  0  0  0  0  0  0  0  0  0
   49.2138   23.2258   38.7697 H   0  0  0  0  0  0  0  0  0  0  0  0
   50.7735   24.7466   37.6054 H   0  0  0  0  0  0  0  0  0  0  0  0
   49.3541   24.1108   36.6405 H   0  0  0  0  0  0  0  0  0  0  0  0
   49.4502   26.3001   35.9603 H   0  0  0  0  0  0  0  0  0  0  0  0
   49.9357   26.8988   37.5880 H   0  0  0  0  0  0  0  0  0  0  0  0
   47.7736   26.9254   38.3724 H   0  0  0  0  0  0  0  0  0  0  0  0
   47.3922   27.1163   36.6402 H   0  0  0  0  0  0  0  0  0  0  0  0
   40.2022   21.8377   37.5468 H   0  0  0  0  0  0  0  0  0  0  0  0
   41.3166   24.0700   36.9606 H   0  0  0  0  0  0  0  0  0  0  0  0
   43.7217   19.7617   36.4447 H   0  0  0  0  0  0  0  0  0  0  0  0
  1  2  1  0
  1 10  1  0
  1  3  1  0
  2  3  1  0
  3  4  1  0
  4  5  1  0
  6  5  1  0
  7  6  1  0
  8  9  1  0
  8  7  1  0
  9  4  1  0
 10 13  1  0
 12 11  2  0
 13 12  1  0
 14 13  2  0
 14 15  1  0
 15 16  2  0
 16 11  1  0
  1 17  1  6
  2 18  1  0
  2 19  1  0
  3 20  1  1
  4 21  1  0
  5 22  1  0
  5 23  1  0
  6 24  1  0
  6 25  1  0
  7 26  1  0
  7 27  1  0
  8 28  1  0
  8 29  1  0
  9 30  1  0
  9 31  1  0
 11 32  1  0
 12 33  1  0
 15 34  1  0
M  ISO  8  17  13  18  13  19  13  20  13  21  13  22  13  23  13  24  13
M  ISO  8  25  13  26  13  27  13  28  13  29  13  30  13  31  13  32  14
M  ISO  2  33  14  34  14
M  END
>  <minimizedAffinity>  (1) 
-3.63830304

>  <minimizedRMSD>  (1) 
0.697796643

$$$$
