
     RDKit          3D

 32 34  0  0  1  0  0  0  0  0999 V2000
   44.9910   25.4790   37.5140 C   0  0  1  0  0  0  0  0  0  0  0  0
   44.9970   26.2210   38.7760 C   0  0  0  0  0  0  0  0  0  0  0  0
   45.9300   25.0740   38.6530 C   0  0  2  0  0  0  0  0  0  0  0  0
   47.3100   25.3660   38.3780 N   0  0  0  0  0  0  0  0  0  0  0  0
   48.1610   24.2500   38.5140 C   0  0  0  0  0  0  0  0  0  0  0  0
   49.3330   24.2470   37.5660 C   0  0  0  0  0  0  0  0  0  0  0  0
   49.8870   25.6020   37.5990 N   0  0  0  0  0  0  0  0  0  0  0  0
   48.9560   26.4430   36.9120 C   0  0  0  0  0  0  0  0  0  0  0  0
   47.5120   26.1620   37.2000 C   0  0  0  0  0  0  0  0  0  0  0  0
   43.8380   24.6500   37.3440 O   0  0  0  0  0  0  0  0  0  0  0  0
   42.3440   21.8460   35.6800 C   0  0  0  0  0  0  0  0  0  0  0  0
   42.5320   23.0060   36.4990 C   0  0  0  0  0  0  0  0  0  0  0  0
   43.8280   23.5600   36.5010 C   0  0  0  0  0  0  0  0  0  0  0  0
   44.8190   23.0070   35.7560 N   0  0  0  0  0  0  0  0  0  0  0  0
   44.5890   21.9250   35.0080 C   0  0  0  0  0  0  0  0  0  0  0  0
   43.3840   21.3500   34.9640 N   0  0  0  0  0  0  0  0  0  0  0  0
   45.1260   25.7205   36.4494 H   0  0  0  0  0  0  0  0  0  0  0  0
   45.3967   27.2455   38.8014 H   0  0  0  0  0  0  0  0  0  0  0  0
   44.2182   26.4957   39.5026 H   0  0  0  0  0  0  0  0  0  0  0  0
   46.1325   24.1829   39.2653 H   0  0  0  0  0  0  0  0  0  0  0  0
   48.5497   24.2360   39.5430 H   0  0  0  0  0  0  0  0  0  0  0  0
   47.5581   23.3618   38.2738 H   0  0  0  0  0  0  0  0  0  0  0  0
   48.9998   23.9957   36.5482 H   0  0  0  0  0  0  0  0  0  0  0  0
   50.0844   23.4990   37.8591 H   0  0  0  0  0  0  0  0  0  0  0  0
   49.9977   25.9167   38.5735 H   0  0  0  0  0  0  0  0  0  0  0  0
   49.1182   26.3190   35.8311 H   0  0  0  0  0  0  0  0  0  0  0  0
   49.1460   27.4659   37.2693 H   0  0  0  0  0  0  0  0  0  0  0  0
   46.9900   27.1210   37.3334 H   0  0  0  0  0  0  0  0  0  0  0  0
   47.1166   25.5884   36.3487 H   0  0  0  0  0  0  0  0  0  0  0  0
   41.3590   21.3587   35.6318 H   0  0  0  0  0  0  0  0  0  0  0  0
   41.7128   23.4391   37.0917 H   0  0  0  0  0  0  0  0  0  0  0  0
   45.4105   21.4974   34.4145 H   0  0  0  0  0  0  0  0  0  0  0  0
  1  3  1  0
  1  2  1  0
  3  2  1  0
  4  5  1  0
  4  3  1  0
  6  7  1  0
  6  5  1  0
  8  9  1  0
  8  7  1  0
  9  4  1  0
 10  1  1  0
 11 12  2  0
 12 13  1  0
 13 10  1  0
 14 13  2  0
 15 14  1  0
 16 15  2  0
 16 11  1  0
  1 17  1  6
  2 18  1  0
  2 19  1  0
  3 20  1  1
  5 21  1  0
  5 22  1  0
  6 23  1  0
  6 24  1  0
  7 25  1  0
  8 26  1  0
  8 27  1  0
  9 28  1  0
  9 29  1  0
 11 30  1  0
 12 31  1  0
 15 32  1  0
M  ISO  8  17  13  18  13  19  13  20  13  21  13  22  13  23  13  24  13
M  ISO  8  25   5  26  13  27  13  28  13  29  13  30  14  31  14  32  14
M  END
>  <minimizedAffinity>  (1) 
-3.29562879

>  <minimizedRMSD>  (1) 
1.31378543

$$$$
