
     RDKit          3D

 21 22  0  0  1  0  0  0  0  0999 V2000
   44.8650   24.5960   36.2840 C   0  0  1  0  0  0  0  0  0  0  0  0
   45.0740   26.0000   35.9390 C   0  0  0  0  0  0  0  0  0  0  0  0
   44.8470   25.6890   37.3660 C   0  0  2  0  0  0  0  0  0  0  0  0
   45.9980   25.7500   38.2870 C   0  0  0  0  0  0  0  0  0  0  0  0
   47.1630   26.1350   37.9980 O   0  0  0  0  0  0  0  0  0  0  0  0
   45.7840   25.3500   39.5880 O   0  0  0  0  0  0  0  0  0  0  0  0
   43.5710   24.1030   35.9250 O   0  0  0  0  0  0  0  0  0  0  0  0
   41.2280   21.7580   37.2870 C   0  0  0  0  0  0  0  0  0  0  0  0
   41.8200   22.9780   36.8310 C   0  0  0  0  0  0  0  0  0  0  0  0
   43.1230   22.8570   36.3070 C   0  0  0  0  0  0  0  0  0  0  0  0
   43.7440   21.6350   36.2530 N   0  0  0  0  0  0  0  0  0  0  0  0
   43.1440   20.5450   36.6900 C   0  0  0  0  0  0  0  0  0  0  0  0
   41.8910   20.5830   37.2080 N   0  0  0  0  0  0  0  0  0  0  0  0
   45.4133   23.6548   36.1306 H   0  0  0  0  0  0  0  0  0  0  0  0
   46.0689   26.3340   35.6095 H   0  0  0  0  0  0  0  0  0  0  0  0
   44.5935   26.6860   35.2259 H   0  0  0  0  0  0  0  0  0  0  0  0
   44.1452   26.0296   38.1415 H   0  0  0  0  0  0  0  0  0  0  0  0
   46.5271   25.3738   40.2418 H   0  0  0  0  0  0  0  0  0  0  0  0
   40.2129   21.7767   37.7104 H   0  0  0  0  0  0  0  0  0  0  0  0
   41.2950   23.9431   36.8855 H   0  0  0  0  0  0  0  0  0  0  0  0
   43.6724   19.5819   36.6331 H   0  0  0  0  0  0  0  0  0  0  0  0
  1  3  1  0
  2  1  1  0
  2  3  1  0
  3  4  1  0
  4  6  1  0
  5  4  2  0
  7  1  1  0
  7 10  1  0
  9  8  2  0
 10  9  1  0
 11 10  2  0
 11 12  1  0
 12 13  2  0
 13  8  1  0
  1 14  1  1
  2 15  1  0
  2 16  1  0
  3 17  1  1
  6 18  1  0
  8 19  1  0
  9 20  1  0
 12 21  1  0
M  ISO  8  14  13  15  13  16  13  17  13  18   3  19  14  20  14  21  14
M  END
>  <minimizedAffinity>  (1) 
-3.19298553

>  <minimizedRMSD>  (1) 
1.27058423

$$$$
