
     RDKit          3D

 21 22  0  0  1  0  0  0  0  0999 V2000
   43.8250   25.6910   35.4090 O   0  0  0  0  0  0  0  0  0  0  0  0
   45.6340   25.3860   38.4900 C   0  0  0  0  0  0  0  0  0  0  0  0
   44.5770   25.3860   37.5290 C   0  0  0  0  0  0  0  0  0  0  0  0
   44.9480   25.7200   36.2060 C   0  0  0  0  0  0  0  0  0  0  0  0
   46.2410   26.0120   35.9080 N   0  0  0  0  0  0  0  0  0  0  0  0
   47.1870   25.9960   36.8430 C   0  0  0  0  0  0  0  0  0  0  0  0
   46.8970   25.6910   38.1080 N   0  0  0  0  0  0  0  0  0  0  0  0
   43.7060   26.4880   34.2210 C   0  0  1  0  0  0  0  0  0  0  0  0
   43.0130   25.7900   33.1360 C   0  0  0  0  0  0  0  0  0  0  0  0
   42.2780   26.8620   33.8400 C   0  0  1  0  0  0  0  0  0  0  0  0
   41.1290   26.4730   34.7000 C   0  0  0  0  0  0  0  0  0  0  0  0
   45.4220   25.1382   39.5405 H   0  0  0  0  0  0  0  0  0  0  0  0
   43.5396   25.1415   37.8011 H   0  0  0  0  0  0  0  0  0  0  0  0
   48.2243   26.2381   36.5683 H   0  0  0  0  0  0  0  0  0  0  0  0
   44.6470   27.0457   34.3367 H   0  0  0  0  0  0  0  0  0  0  0  0
   42.7075   24.7421   33.2721 H   0  0  0  0  0  0  0  0  0  0  0  0
   43.2507   25.5938   32.0801 H   0  0  0  0  0  0  0  0  0  0  0  0
   41.7736   27.8019   33.5715 H   0  0  0  0  0  0  0  0  0  0  0  0
   41.4138   26.5694   35.7581 H   0  0  0  0  0  0  0  0  0  0  0  0
   40.2736   27.1316   34.4890 H   0  0  0  0  0  0  0  0  0  0  0  0
   40.8496   25.4302   34.4890 H   0  0  0  0  0  0  0  0  0  0  0  0
  1  4  1  0
  3  2  2  0
  4  3  1  0
  5  4  2  0
  5  6  1  0
  6  7  2  0
  7  2  1  0
  8  1  1  0
  9 10  1  0
  9  8  1  0
 10  8  1  0
 10 11  1  0
  2 12  1  0
  3 13  1  0
  6 14  1  0
  8 15  1  6
  9 16  1  0
  9 17  1  0
 10 18  1  6
 11 19  1  0
 11 20  1  0
 11 21  1  0
M  ISO  8  12  14  13  14  14  14  15  13  16  13  17  13  18  13  19   8
M  ISO  2  20   8  21   8
M  END
>  <minimizedAffinity>  (1) 
-2.68198872

>  <minimizedRMSD>  (1) 
4.98353863

$$$$
