
     RDKit          3D

 32 35  0  0  1  0  0  0  0  0999 V2000
   46.1100   25.0440   37.4370 C   0  0  1  0  0  0  0  0  0  0  0  0
   47.2890   24.4680   38.0900 C   0  0  0  0  0  0  0  0  0  0  0  0
   47.4540   24.9590   36.7050 C   0  0  2  0  0  0  0  0  0  0  0  0
   48.2000   26.1900   36.5170 N   0  0  0  0  0  0  0  0  0  0  0  0
   49.3790   26.6490   37.0200 C   0  0  0  0  0  0  0  0  0  0  0  0
   49.6190   27.8830   36.5070 N   0  0  0  0  0  0  0  0  0  0  0  0
   48.5850   28.1920   35.6820 C   0  0  0  0  0  0  0  0  0  0  0  0
   48.3710   29.3380   34.9290 C   0  0  0  0  0  0  0  0  0  0  0  0
   49.1750   30.3140   34.9140 O   0  0  0  0  0  0  0  0  0  0  0  0
   47.2420   29.3630   34.1970 N   0  0  0  0  0  0  0  0  0  0  0  0
   46.3730   28.3580   34.1860 C   0  0  0  0  0  0  0  0  0  0  0  0
   45.1570   28.2890   33.4500 N   0  0  0  0  0  0  0  0  0  0  0  0
   46.5940   27.2690   34.9130 N   0  0  0  0  0  0  0  0  0  0  0  0
   47.7030   27.1300   35.6940 C   0  0  0  0  0  0  0  0  0  0  0  0
   45.1560   24.0550   37.0220 O   0  0  0  0  0  0  0  0  0  0  0  0
   41.8060   23.5680   35.8530 C   0  0  0  0  0  0  0  0  0  0  0  0
   43.0370   23.3780   36.5150 C   0  0  0  0  0  0  0  0  0  0  0  0
   44.0110   24.3870   36.3280 C   0  0  0  0  0  0  0  0  0  0  0  0
   43.7460   25.4690   35.5500 N   0  0  0  0  0  0  0  0  0  0  0  0
   42.5540   25.5950   34.9450 C   0  0  0  0  0  0  0  0  0  0  0  0
   41.5870   24.6580   35.0900 N   0  0  0  0  0  0  0  0  0  0  0  0
   45.3927   25.8466   37.6636 H   0  0  0  0  0  0  0  0  0  0  0  0
   47.7691   25.0098   38.9182 H   0  0  0  0  0  0  0  0  0  0  0  0
   47.4912   23.5074   38.5864 H   0  0  0  0  0  0  0  0  0  0  0  0
   47.8057   24.5354   35.7527 H   0  0  0  0  0  0  0  0  0  0  0  0
   50.0290   26.1098   37.7248 H   0  0  0  0  0  0  0  0  0  0  0  0
   47.0437   30.1944   33.6223 H   0  0  0  0  0  0  0  0  0  0  0  0
   44.5592   27.4532   33.5203 H   0  0  0  0  0  0  0  0  0  0  0  0
   44.8747   29.0749   32.8470 H   0  0  0  0  0  0  0  0  0  0  0  0
   41.0117   22.8147   35.9609 H   0  0  0  0  0  0  0  0  0  0  0  0
   43.2290   22.4946   37.1417 H   0  0  0  0  0  0  0  0  0  0  0  0
   42.3588   26.4778   34.3184 H   0  0  0  0  0  0  0  0  0  0  0  0
  1  2  1  0
  3  1  1  0
  3  2  1  0
  4  3  1  0
  4  5  1  0
  6  5  2  0
  7 14  2  0
  7  6  1  0
  8  7  1  0
  9  8  2  0
 10  8  1  0
 11 10  1  0
 11 13  2  0
 12 11  1  0
 13 14  1  0
 14  4  1  0
 15  1  1  0
 16 17  2  0
 18 17  1  0
 18 15  1  0
 19 18  2  0
 20 21  2  0
 20 19  1  0
 21 16  1  0
  1 22  1  1
  2 23  1  0
  2 24  1  0
  3 25  1  6
  5 26  1  0
 10 27  1  0
 12 28  1  0
 12 29  1  0
 16 30  1  0
 17 31  1  0
 20 32  1  0
M  ISO  8  22  13  23  13  24  13  25  13  26  14  27   9  30  14  31  14
M  ISO  1  32  14
M  END
>  <minimizedAffinity>  (1) 
-4.09440899

>  <minimizedRMSD>  (1) 
3.30309439

$$$$
