
     RDKit          3D

 43 47  0  0  1  0  0  0  0  0999 V2000
   42.2070   22.6980   36.8700 C   0  0  1  0  0  0  0  0  0  0  0  0
   43.2140   21.7540   36.4340 C   0  0  0  0  0  0  0  0  0  0  0  0
   42.9330   22.8970   35.5170 C   0  0  2  0  0  0  0  0  0  0  0  0
   43.9510   23.9420   35.4530 N   0  0  0  0  0  0  0  0  0  0  0  0
   45.2560   23.9790   35.8380 C   0  0  0  0  0  0  0  0  0  0  0  0
   45.7620   25.1990   35.5530 N   0  0  0  0  0  0  0  0  0  0  0  0
   44.7640   25.9320   34.9860 C   0  0  0  0  0  0  0  0  0  0  0  0
   44.7810   27.2350   34.5230 C   0  0  0  0  0  0  0  0  0  0  0  0
   45.8170   27.9720   34.5730 O   0  0  0  0  0  0  0  0  0  0  0  0
   43.6330   27.7020   34.0050 N   0  0  0  0  0  0  0  0  0  0  0  0
   42.5330   26.9560   33.9370 C   0  0  0  0  0  0  0  0  0  0  0  0
   41.2760   27.3590   33.4110 N   0  0  0  0  0  0  0  0  0  0  0  0
   42.5370   25.7110   34.3870 N   0  0  0  0  0  0  0  0  0  0  0  0
   43.6450   25.1320   34.9320 C   0  0  0  0  0  0  0  0  0  0  0  0
   40.8400   22.2470   36.6460 O   0  0  0  0  0  0  0  0  0  0  0  0
   37.9320   23.8240   38.0350 C   0  0  0  0  0  0  0  0  0  0  0  0
   39.0450   22.9840   37.8680 C   0  0  0  0  0  0  0  0  0  0  0  0
   39.7820   23.1290   36.6850 C   0  0  0  0  0  0  0  0  0  0  0  0
   39.4050   24.0600   35.7540 N   0  0  0  0  0  0  0  0  0  0  0  0
   38.3310   24.8380   35.9640 C   0  0  0  0  0  0  0  0  0  0  0  0
   37.5980   24.7280   37.0870 N   0  0  0  0  0  0  0  0  0  0  0  0
   37.9870   25.7870   34.9630 N   0  0  0  0  0  0  0  0  0  0  0  0
   37.1690   26.8470   35.1090 C   0  0  0  0  0  0  0  0  0  0  0  0
   36.9270   27.6880   34.0370 C   0  0  0  0  0  0  0  0  0  0  0  0
   37.5290   27.4460   32.7970 C   0  0  0  0  0  0  0  0  0  0  0  0
   37.2880   28.3010   31.6940 N   0  0  0  0  0  0  0  0  0  0  0  0
   38.3510   26.3720   32.6670 N   0  0  0  0  0  0  0  0  0  0  0  0
   38.5600   25.5720   33.7470 C   0  0  0  0  0  0  0  0  0  0  0  0
   39.3390   24.6120   33.5070 O   0  0  0  0  0  0  0  0  0  0  0  0
   42.0500   23.2764   37.7924 H   0  0  0  0  0  0  0  0  0  0  0  0
   44.1777   21.7101   36.9625 H   0  0  0  0  0  0  0  0  0  0  0  0
   43.2202   20.6620   36.3017 H   0  0  0  0  0  0  0  0  0  0  0  0
   42.6304   23.0270   34.4675 H   0  0  0  0  0  0  0  0  0  0  0  0
   45.8087   23.1506   36.3051 H   0  0  0  0  0  0  0  0  0  0  0  0
   43.6031   28.6681   33.6491 H   0  0  0  0  0  0  0  0  0  0  0  0
   40.4846   26.6998   33.4058 H   0  0  0  0  0  0  0  0  0  0  0  0
   41.1562   28.3104   33.0349 H   0  0  0  0  0  0  0  0  0  0  0  0
   37.3244   23.7454   38.9486 H   0  0  0  0  0  0  0  0  0  0  0  0
   39.3260   22.2446   38.6324 H   0  0  0  0  0  0  0  0  0  0  0  0
   36.6930   27.0443   36.0809 H   0  0  0  0  0  0  0  0  0  0  0  0
   36.2574   28.5520   34.1603 H   0  0  0  0  0  0  0  0  0  0  0  0
   37.7378   28.1109   30.7871 H   0  0  0  0  0  0  0  0  0  0  0  0
   36.6629   29.1129   31.7987 H   0  0  0  0  0  0  0  0  0  0  0  0
  2  1  1  0
  3  2  1  0
  3  1  1  0
  4  3  1  0
  4  5  1  0
  6  5  2  0
  7  6  1  0
  8  9  2  0
  8  7  1  0
 10  8  1  0
 11 10  1  0
 11 13  2  0
 12 11  1  0
 13 14  1  0
 14  7  2  0
 14  4  1  0
 15 18  1  0
 15  1  1  0
 17 16  2  0
 18 17  1  0
 19 20  1  0
 19 18  2  0
 20 21  2  0
 21 16  1  0
 22 23  1  0
 22 20  1  0
 24 23  2  0
 25 24  1  0
 26 25  1  0
 27 25  2  0
 27 28  1  0
 28 22  1  0
 29 28  2  0
  1 30  1  1
  2 31  1  0
  2 32  1  0
  3 33  1  6
  5 34  1  0
 10 35  1  0
 12 36  1  0
 12 37  1  0
 16 38  1  0
 17 39  1  0
 23 40  1  0
 24 41  1  0
 26 42  1  0
 26 43  1  0
M  ISO  8  30  13  31  13  32  13  33  13  34  14  35   9  38  14  39  14
M  ISO  2  40  14  41  14
M  END
>  <minimizedAffinity>  (1) 
-6.27983665

>  <minimizedRMSD>  (1) 
4.66334391

$$$$
