
     RDKit          3D

 45 49  0  0  1  0  0  0  0  0999 V2000
   45.9520   25.1200   37.4100 C   0  0  1  0  0  0  0  0  0  0  0  0
   47.0840   24.6800   38.1960 C   0  0  0  0  0  0  0  0  0  0  0  0
   47.3470   24.9840   36.7580 C   0  0  2  0  0  0  0  0  0  0  0  0
   48.0840   26.2180   36.4970 N   0  0  0  0  0  0  0  0  0  0  0  0
   49.2710   26.7040   36.9350 C   0  0  0  0  0  0  0  0  0  0  0  0
   49.4920   27.9140   36.3720 N   0  0  0  0  0  0  0  0  0  0  0  0
   48.4270   28.1890   35.5690 C   0  0  0  0  0  0  0  0  0  0  0  0
   48.1880   29.3050   34.7800 C   0  0  0  0  0  0  0  0  0  0  0  0
   48.9870   30.2800   34.7020 O   0  0  0  0  0  0  0  0  0  0  0  0
   47.0290   29.2960   34.0840 N   0  0  0  0  0  0  0  0  0  0  0  0
   46.1730   28.2890   34.1450 C   0  0  0  0  0  0  0  0  0  0  0  0
   44.9320   28.1860   33.4490 N   0  0  0  0  0  0  0  0  0  0  0  0
   46.4190   27.2300   34.9060 N   0  0  0  0  0  0  0  0  0  0  0  0
   47.5590   27.1240   35.6570 C   0  0  0  0  0  0  0  0  0  0  0  0
   45.0760   24.0440   36.9660 O   0  0  0  0  0  0  0  0  0  0  0  0
   41.6860   23.4150   35.9570 C   0  0  0  0  0  0  0  0  0  0  0  0
   42.9700   23.2650   36.5430 C   0  0  0  0  0  0  0  0  0  0  0  0
   43.8710   24.3260   36.3460 C   0  0  0  0  0  0  0  0  0  0  0  0
   43.5150   25.4390   35.6260 N   0  0  0  0  0  0  0  0  0  0  0  0
   42.2870   25.5210   35.0990 C   0  0  0  0  0  0  0  0  0  0  0  0
   41.3780   24.5390   35.2510 N   0  0  0  0  0  0  0  0  0  0  0  0
   41.6780   26.6110   34.3170 C   0  0  0  0  0  0  0  0  0  0  0  0
   41.8280   26.2140   32.8550 C   0  0  0  0  0  0  0  0  0  0  0  0
   40.4140   26.1800   32.3130 C   0  0  0  0  0  0  0  0  0  0  0  0
   39.7100   27.1770   33.1810 C   0  0  0  0  0  0  0  0  0  0  0  0
   40.1840   26.7230   34.5630 C   0  0  0  0  0  0  0  0  0  0  0  0
   45.1961   25.9088   37.5378 H   0  0  0  0  0  0  0  0  0  0  0  0
   47.4934   25.3434   38.9721 H   0  0  0  0  0  0  0  0  0  0  0  0
   47.2694   23.8005   38.8301 H   0  0  0  0  0  0  0  0  0  0  0  0
   47.7619   24.4570   35.8862 H   0  0  0  0  0  0  0  0  0  0  0  0
   49.9476   26.1950   37.6372 H   0  0  0  0  0  0  0  0  0  0  0  0
   46.8042   30.1026   33.4843 H   0  0  0  0  0  0  0  0  0  0  0  0
   44.3406   27.3516   33.5713 H   0  0  0  0  0  0  0  0  0  0  0  0
   44.6274   28.9460   32.8241 H   0  0  0  0  0  0  0  0  0  0  0  0
   40.9353   22.6194   36.0734 H   0  0  0  0  0  0  0  0  0  0  0  0
   43.2447   22.3690   37.1189 H   0  0  0  0  0  0  0  0  0  0  0  0
   42.1615   27.5603   34.5910 H   0  0  0  0  0  0  0  0  0  0  0  0
   42.4326   26.9559   32.3126 H   0  0  0  0  0  0  0  0  0  0  0  0
   42.3392   25.2469   32.7390 H   0  0  0  0  0  0  0  0  0  0  0  0
   40.3860   26.4833   31.2560 H   0  0  0  0  0  0  0  0  0  0  0  0
   39.9590   25.1788   32.3374 H   0  0  0  0  0  0  0  0  0  0  0  0
   40.0293   28.2061   32.9595 H   0  0  0  0  0  0  0  0  0  0  0  0
   38.6175   27.2045   33.0561 H   0  0  0  0  0  0  0  0  0  0  0  0
   39.7448   25.7549   34.8457 H   0  0  0  0  0  0  0  0  0  0  0  0
   39.9033   27.3939   35.3883 H   0  0  0  0  0  0  0  0  0  0  0  0
  1  2  1  0
  3  1  1  0
  3  2  1  0
  4  3  1  0
  4  5  1  0
  6  5  2  0
  7 14  2  0
  7  6  1  0
  8  7  1  0
  9  8  2  0
 10 11  1  0
 10  8  1  0
 11 13  2  0
 12 11  1  0
 13 14  1  0
 14  4  1  0
 15  1  1  0
 16 17  2  0
 18 17  1  0
 18 15  1  0
 19 18  2  0
 20 21  2  0
 20 19  1  0
 21 16  1  0
 22 26  1  0
 22 20  1  0
 23 22  1  0
 24 23  1  0
 24 25  1  0
 25 26  1  0
  1 27  1  1
  2 28  1  0
  2 29  1  0
  3 30  1  6
  5 31  1  0
 10 32  1  0
 12 33  1  0
 12 34  1  0
 16 35  1  0
 17 36  1  0
 22 37  1  0
 23 38  1  0
 23 39  1  0
 24 40  1  0
 24 41  1  0
 25 42  1  0
 25 43  1  0
 26 44  1  0
 26 45  1  0
M  ISO  8  27  13  28  13  29  13  30  13  31  14  32   9  35  14  36  14
M  ISO  8  37  13  38  13  39  13  40  13  41  13  42  13  43  13  44  13
M  ISO  1  45  13
M  END
>  <minimizedAffinity>  (1) 
-4.97951031

>  <minimizedRMSD>  (1) 
0.73903358

$$$$
