
     RDKit          3D

 39 43  0  0  1  0  0  0  0  0999 V2000
   44.5630   25.0710   35.7670 C   0  0  1  0  0  0  0  0  0  0  0  0
   45.0630   25.6880   36.9770 C   0  0  0  0  0  0  0  0  0  0  0  0
   46.0090   25.6210   35.8230 C   0  0  2  0  0  0  0  0  0  0  0  0
   46.2810   26.8760   35.1420 N   0  0  0  0  0  0  0  0  0  0  0  0
   45.5650   27.6270   34.2750 C   0  0  0  0  0  0  0  0  0  0  0  0
   46.2920   28.7200   33.9430 N   0  0  0  0  0  0  0  0  0  0  0  0
   47.4750   28.6550   34.6070 C   0  0  0  0  0  0  0  0  0  0  0  0
   48.5480   29.5330   34.5980 C   0  0  0  0  0  0  0  0  0  0  0  0
   48.5650   30.5960   33.9120 O   0  0  0  0  0  0  0  0  0  0  0  0
   49.5980   29.1900   35.3730 N   0  0  0  0  0  0  0  0  0  0  0  0
   49.6140   28.0900   36.0990 C   0  0  0  0  0  0  0  0  0  0  0  0
   50.6710   27.6440   36.9430 N   0  0  0  0  0  0  0  0  0  0  0  0
   48.5780   27.2610   36.0970 N   0  0  0  0  0  0  0  0  0  0  0  0
   47.4530   27.4960   35.3520 C   0  0  0  0  0  0  0  0  0  0  0  0
   44.5770   23.6140   35.7980 O   0  0  0  0  0  0  0  0  0  0  0  0
   42.7590   20.6940   36.7990 C   0  0  0  0  0  0  0  0  0  0  0  0
   43.8020   21.5450   36.3840 C   0  0  0  0  0  0  0  0  0  0  0  0
   43.4730   22.8990   36.2060 C   0  0  0  0  0  0  0  0  0  0  0  0
   42.1940   23.3350   36.4360 N   0  0  0  0  0  0  0  0  0  0  0  0
   41.2420   22.4810   36.8290 C   0  0  0  0  0  0  0  0  0  0  0  0
   41.5100   21.1770   37.0110 N   0  0  0  0  0  0  0  0  0  0  0  0
   39.8840   22.9760   37.0680 C   0  0  0  0  0  0  0  0  0  0  0  0
   39.3190   23.1820   38.3140 C   0  0  0  0  0  0  0  0  0  0  0  0
   38.0360   23.6480   38.4060 C   0  0  0  0  0  0  0  0  0  0  0  0
   37.3140   23.9080   37.1950 C   0  0  0  0  0  0  0  0  0  0  0  0
   38.6080   23.4370   35.8870 S   0  0  0  0  0  0  0  0  0  0  0  0
   43.6675   25.2225   35.1464 H   0  0  0  0  0  0  0  0  0  0  0  0
   44.6626   26.6632   37.2912 H   0  0  0  0  0  0  0  0  0  0  0  0
   45.1233   25.3590   38.0249 H   0  0  0  0  0  0  0  0  0  0  0  0
   47.0139   25.2184   35.6280 H   0  0  0  0  0  0  0  0  0  0  0  0
   44.5582   27.3893   33.9011 H   0  0  0  0  0  0  0  0  0  0  0  0
   50.4187   29.8118   35.3982 H   0  0  0  0  0  0  0  0  0  0  0  0
   50.5744   26.7628   37.4674 H   0  0  0  0  0  0  0  0  0  0  0  0
   51.5320   28.2027   37.0290 H   0  0  0  0  0  0  0  0  0  0  0  0
   42.9605   19.6236   36.9531 H   0  0  0  0  0  0  0  0  0  0  0  0
   44.8207   21.1690   36.2085 H   0  0  0  0  0  0  0  0  0  0  0  0
   39.8980   22.9723   39.2254 H   0  0  0  0  0  0  0  0  0  0  0  0
   37.5689   23.8193   39.3871 H   0  0  0  0  0  0  0  0  0  0  0  0
   36.2876   24.2799   37.0599 H   0  0  0  0  0  0  0  0  0  0  0  0
  1 15  1  0
  1  3  1  0
  1  2  1  0
  3  2  1  0
  4 14  1  0
  4  3  1  0
  5  4  1  0
  6  5  2  0
  6  7  1  0
  7 14  2  0
  8  7  1  0
  8 10  1  0
  9  8  2  0
 10 11  1  0
 11 12  1  0
 13 11  2  0
 14 13  1  0
 15 18  1  0
 16 21  2  0
 17 16  1  0
 18 17  2  0
 18 19  1  0
 19 20  2  0
 20 21  1  0
 20 22  1  0
 22 23  2  0
 23 24  1  0
 25 24  2  0
 26 22  1  0
 26 25  1  0
  1 27  1  6
  2 28  1  0
  2 29  1  0
  3 30  1  1
  5 31  1  0
 10 32  1  0
 12 33  1  0
 12 34  1  0
 16 35  1  0
 17 36  1  0
 23 37  1  0
 24 38  1  0
 25 39  1  0
M  ISO  8  27  13  28  13  29  13  30  13  31  14  32   9  35  14  36  14
M  ISO  3  37  14  38  14  39  14
M  END
>  <minimizedAffinity>  (1) 
-4.92731333

>  <minimizedRMSD>  (1) 
4.11295128

$$$$
