
     RDKit          3D

 39 43  0  0  1  0  0  0  0  0999 V2000
   45.7920   24.8210   36.6280 C   0  0  1  0  0  0  0  0  0  0  0  0
   46.8330   24.1170   37.3470 C   0  0  0  0  0  0  0  0  0  0  0  0
   47.2350   24.7870   36.0740 C   0  0  2  0  0  0  0  0  0  0  0  0
   48.0400   25.9870   36.2090 N   0  0  0  0  0  0  0  0  0  0  0  0
   49.1480   26.2850   36.9290 C   0  0  0  0  0  0  0  0  0  0  0  0
   49.4990   27.5750   36.6810 N   0  0  0  0  0  0  0  0  0  0  0  0
   48.5980   28.0820   35.7970 C   0  0  0  0  0  0  0  0  0  0  0  0
   48.5320   29.3530   35.2410 C   0  0  0  0  0  0  0  0  0  0  0  0
   49.3680   30.2700   35.5070 O   0  0  0  0  0  0  0  0  0  0  0  0
   47.5190   29.5670   34.3880 N   0  0  0  0  0  0  0  0  0  0  0  0
   46.6310   28.6380   34.0860 C   0  0  0  0  0  0  0  0  0  0  0  0
   45.5270   28.7660   33.2030 N   0  0  0  0  0  0  0  0  0  0  0  0
   46.7100   27.4280   34.6280 N   0  0  0  0  0  0  0  0  0  0  0  0
   47.6960   27.0890   35.5080 C   0  0  0  0  0  0  0  0  0  0  0  0
   44.9280   23.9490   35.8460 O   0  0  0  0  0  0  0  0  0  0  0  0
   42.2400   25.9660   34.5720 C   0  0  0  0  0  0  0  0  0  0  0  0
   43.5290   25.4950   34.8810 C   0  0  0  0  0  0  0  0  0  0  0  0
   43.6100   24.2980   35.6090 C   0  0  0  0  0  0  0  0  0  0  0  0
   42.4640   23.6440   35.9850 N   0  0  0  0  0  0  0  0  0  0  0  0
   41.2640   24.1450   35.6600 C   0  0  0  0  0  0  0  0  0  0  0  0
   41.1420   25.2920   34.9630 N   0  0  0  0  0  0  0  0  0  0  0  0
   40.0780   23.4090   36.0840 C   0  0  0  0  0  0  0  0  0  0  0  0
   39.0320   23.4450   35.1550 C   0  0  0  0  0  0  0  0  0  0  0  0
   37.9780   22.7060   35.6940 C   0  0  0  0  0  0  0  0  0  0  0  0
   38.4390   22.2690   36.9020 N   0  0  0  0  0  0  0  0  0  0  0  0
   39.6830   22.6750   37.1550 N   0  0  0  0  0  0  0  0  0  0  0  0
   45.0564   25.5904   36.9052 H   0  0  0  0  0  0  0  0  0  0  0  0
   47.1934   24.5179   38.3058 H   0  0  0  0  0  0  0  0  0  0  0  0
   46.9298   23.0884   37.7248 H   0  0  0  0  0  0  0  0  0  0  0  0
   47.7070   24.4954   35.1242 H   0  0  0  0  0  0  0  0  0  0  0  0
   49.6772   25.5961   37.6039 H   0  0  0  0  0  0  0  0  0  0  0  0
   47.4303   30.4951   33.9503 H   0  0  0  0  0  0  0  0  0  0  0  0
   44.8981   27.9657   33.0454 H   0  0  0  0  0  0  0  0  0  0  0  0
   45.3548   29.6592   32.7198 H   0  0  0  0  0  0  0  0  0  0  0  0
   42.1273   26.8999   34.0018 H   0  0  0  0  0  0  0  0  0  0  0  0
   44.4315   26.0396   34.5666 H   0  0  0  0  0  0  0  0  0  0  0  0
   39.0392   23.9592   34.1826 H   0  0  0  0  0  0  0  0  0  0  0  0
   36.9922   22.5172   35.2441 H   0  0  0  0  0  0  0  0  0  0  0  0
   37.8855   21.6884   37.5481 H   0  0  0  0  0  0  0  0  0  0  0  0
  1  2  1  0
  3  4  1  0
  3  1  1  0
  3  2  1  0
  4  5  1  0
  6  5  2  0
  7  6  1  0
  8  9  2  0
  8  7  1  0
 10  8  1  0
 11 10  1  0
 11 13  2  0
 12 11  1  0
 13 14  1  0
 14  7  2  0
 14  4  1  0
 15  1  1  0
 16 17  2  0
 16 21  1  0
 17 18  1  0
 18 15  1  0
 18 19  2  0
 20 19  1  0
 20 22  1  0
 21 20  2  0
 22 26  2  0
 23 24  2  0
 23 22  1  0
 24 25  1  0
 25 26  1  0
  1 27  1  1
  2 28  1  0
  2 29  1  0
  3 30  1  6
  5 31  1  0
 10 32  1  0
 12 33  1  0
 12 34  1  0
 16 35  1  0
 17 36  1  0
 23 37  1  0
 24 38  1  0
 25 39  1  0
M  ISO  8  27  13  28  13  29  13  30  13  31  14  32   9  35  14  36  14
M  ISO  3  37  14  38  14  39   9
M  END
>  <minimizedAffinity>  (1) 
-4.82003403

>  <minimizedRMSD>  (1) 
3.08281612

$$$$
