
     RDKit          3D

 40 44  0  0  1  0  0  0  0  0999 V2000
   45.2040   24.9660   37.1300 C   0  0  1  0  0  0  0  0  0  0  0  0
   46.4300   24.8110   37.8900 C   0  0  0  0  0  0  0  0  0  0  0  0
   46.5630   24.9150   36.4050 C   0  0  2  0  0  0  0  0  0  0  0  0
   47.1090   26.1570   35.8950 N   0  0  0  0  0  0  0  0  0  0  0  0
   48.3030   26.7830   36.0700 C   0  0  0  0  0  0  0  0  0  0  0  0
   48.2990   27.9340   35.3440 N   0  0  0  0  0  0  0  0  0  0  0  0
   47.0950   28.0170   34.7180 C   0  0  0  0  0  0  0  0  0  0  0  0
   46.6170   28.9930   33.8690 C   0  0  0  0  0  0  0  0  0  0  0  0
   47.2870   30.0130   33.5460 O   0  0  0  0  0  0  0  0  0  0  0  0
   45.3650   28.7950   33.3920 N   0  0  0  0  0  0  0  0  0  0  0  0
   44.6350   27.7440   33.7050 C   0  0  0  0  0  0  0  0  0  0  0  0
   43.3260   27.4390   33.2480 N   0  0  0  0  0  0  0  0  0  0  0  0
   45.1030   26.8190   34.5170 N   0  0  0  0  0  0  0  0  0  0  0  0
   46.3550   26.9050   35.0670 C   0  0  0  0  0  0  0  0  0  0  0  0
   44.4660   23.7260   36.9430 O   0  0  0  0  0  0  0  0  0  0  0  0
   41.2820   22.3280   36.1340 C   0  0  0  0  0  0  0  0  0  0  0  0
   42.5850   22.4800   36.6680 C   0  0  0  0  0  0  0  0  0  0  0  0
   43.2160   23.7230   36.3710 C   0  0  0  0  0  0  0  0  0  0  0  0
   42.5940   24.6990   35.6210 N   0  0  0  0  0  0  0  0  0  0  0  0
   41.3720   24.4760   35.1610 C   0  0  0  0  0  0  0  0  0  0  0  0
   40.7120   23.2990   35.4090 N   0  0  0  0  0  0  0  0  0  0  0  0
   40.4640   25.3900   34.4840 C   0  0  0  0  0  0  0  0  0  0  0  0
   40.2310   25.3880   33.1310 C   0  0  0  0  0  0  0  0  0  0  0  0
   39.3990   26.2360   32.4500 C   0  0  0  0  0  0  0  0  0  0  0  0
   38.7420   27.1610   33.1710 N   0  0  0  0  0  0  0  0  0  0  0  0
   38.9560   27.1820   34.5120 C   0  0  0  0  0  0  0  0  0  0  0  0
   39.7790   26.3310   35.1180 N   0  0  0  0  0  0  0  0  0  0  0  0
   44.3516   25.6593   37.1825 H   0  0  0  0  0  0  0  0  0  0  0  0
   46.7819   25.6380   38.5242 H   0  0  0  0  0  0  0  0  0  0  0  0
   46.7747   24.0774   38.6336 H   0  0  0  0  0  0  0  0  0  0  0  0
   46.9974   24.3151   35.5917 H   0  0  0  0  0  0  0  0  0  0  0  0
   49.1331   26.4200   36.6938 H   0  0  0  0  0  0  0  0  0  0  0  0
   44.9651   29.4987   32.7550 H   0  0  0  0  0  0  0  0  0  0  0  0
   42.8562   26.5798   33.5673 H   0  0  0  0  0  0  0  0  0  0  0  0
   42.8461   28.0769   32.5971 H   0  0  0  0  0  0  0  0  0  0  0  0
   40.7283   21.3955   36.3181 H   0  0  0  0  0  0  0  0  0  0  0  0
   43.0734   21.6973   37.2671 H   0  0  0  0  0  0  0  0  0  0  0  0
   40.7644   24.6318   32.5363 H   0  0  0  0  0  0  0  0  0  0  0  0
   39.2736   26.1634   31.3596 H   0  0  0  0  0  0  0  0  0  0  0  0
   38.4284   27.9315   35.1202 H   0  0  0  0  0  0  0  0  0  0  0  0
  1  2  1  0
  3  1  1  0
  3  2  1  0
  4  5  1  0
  4  3  1  0
  6  5  2  0
  7 14  2  0
  7  6  1  0
  8  7  1  0
  9  8  2  0
 10 11  1  0
 10  8  1  0
 11 13  2  0
 12 11  1  0
 13 14  1  0
 14  4  1  0
 15  1  1  0
 16 17  2  0
 18 17  1  0
 18 15  1  0
 19 18  2  0
 20 21  2  0
 20 19  1  0
 21 16  1  0
 22 27  1  0
 22 20  1  0
 23 22  2  0
 24 23  1  0
 24 25  2  0
 25 26  1  0
 26 27  2  0
  1 28  1  1
  2 29  1  0
  2 30  1  0
  3 31  1  6
  5 32  1  0
 10 33  1  0
 12 34  1  0
 12 35  1  0
 16 36  1  0
 17 37  1  0
 23 38  1  0
 24 39  1  0
 26 40  1  0
M  ISO  8  28  13  29  13  30  13  31  13  32  14  33   9  36  14  37  14
M  ISO  3  38  14  39  14  40  14
M  END
>  <minimizedAffinity>  (1) 
-4.69229031

>  <minimizedRMSD>  (1) 
1.88868642

$$$$
