
     RDKit          3D

 38 42  0  0  1  0  0  0  0  0999 V2000
   45.0440   22.6210   36.1100 C   0  0  1  0  0  0  0  0  0  0  0  0
   46.4270   22.2130   36.0090 C   0  0  0  0  0  0  0  0  0  0  0  0
   45.8730   22.9900   34.8580 C   0  0  2  0  0  0  0  0  0  0  0  0
   46.3250   24.3690   34.7280 N   0  0  0  0  0  0  0  0  0  0  0  0
   47.5570   24.9220   34.6780 C   0  0  0  0  0  0  0  0  0  0  0  0
   47.4200   26.2600   34.5450 N   0  0  0  0  0  0  0  0  0  0  0  0
   46.0960   26.5340   34.5150 C   0  0  0  0  0  0  0  0  0  0  0  0
   45.4460   27.7610   34.3900 C   0  0  0  0  0  0  0  0  0  0  0  0
   46.0700   28.8680   34.2820 O   0  0  0  0  0  0  0  0  0  0  0  0
   44.1080   27.7320   34.3880 N   0  0  0  0  0  0  0  0  0  0  0  0
   43.4270   26.5890   34.4990 C   0  0  0  0  0  0  0  0  0  0  0  0
   42.0060   26.4580   34.5070 N   0  0  0  0  0  0  0  0  0  0  0  0
   44.0560   25.4380   34.6160 N   0  0  0  0  0  0  0  0  0  0  0  0
   45.4220   25.3470   34.6290 C   0  0  0  0  0  0  0  0  0  0  0  0
   44.0910   21.5660   35.8020 O   0  0  0  0  0  0  0  0  0  0  0  0
   41.1760   21.7680   33.7200 C   0  0  0  0  0  0  0  0  0  0  0  0
   42.4780   21.5130   34.1690 C   0  0  0  0  0  0  0  0  0  0  0  0
   42.7820   21.8680   35.4950 C   0  0  0  0  0  0  0  0  0  0  0  0
   41.8180   22.4380   36.2860 N   0  0  0  0  0  0  0  0  0  0  0  0
   40.5910   22.6560   35.7970 C   0  0  0  0  0  0  0  0  0  0  0  0
   40.2570   22.3320   34.5350 N   0  0  0  0  0  0  0  0  0  0  0  0
   39.5780   23.2720   36.6830 C   0  0  0  0  0  0  0  0  0  0  0  0
   39.4340   23.0080   38.0370 C   0  0  0  0  0  0  0  0  0  0  0  0
   38.0030   24.1180   38.4630 S   0  0  0  0  0  0  0  0  0  0  0  0
   37.8890   24.7330   36.6670 C   0  0  0  0  0  0  0  0  0  0  0  0
   38.7530   24.1520   36.0950 N   0  0  0  0  0  0  0  0  0  0  0  0
   44.4593   23.1576   36.8717 H   0  0  0  0  0  0  0  0  0  0  0  0
   47.1771   22.6794   36.6646 H   0  0  0  0  0  0  0  0  0  0  0  0
   46.9380   21.2424   36.0913 H   0  0  0  0  0  0  0  0  0  0  0  0
   45.7676   22.8529   33.7717 H   0  0  0  0  0  0  0  0  0  0  0  0
   48.5100   24.3757   34.7358 H   0  0  0  0  0  0  0  0  0  0  0  0
   43.5887   28.6169   34.2982 H   0  0  0  0  0  0  0  0  0  0  0  0
   41.5752   25.5269   34.5979 H   0  0  0  0  0  0  0  0  0  0  0  0
   41.4112   27.2946   34.4219 H   0  0  0  0  0  0  0  0  0  0  0  0
   40.8973   21.5054   32.6888 H   0  0  0  0  0  0  0  0  0  0  0  0
   43.2312   21.0542   33.5116 H   0  0  0  0  0  0  0  0  0  0  0  0
   40.0090   22.3279   38.6827 H   0  0  0  0  0  0  0  0  0  0  0  0
   37.1805   25.4641   36.2505 H   0  0  0  0  0  0  0  0  0  0  0  0
  2  1  1  0
  3  2  1  0
  3  1  1  0
  4  3  1  0
  5  4  1  0
  6  5  2  0
  7  6  1  0
  7 14  2  0
  8  7  1  0
  9  8  2  0
 10  8  1  0
 10 11  1  0
 11 12  1  0
 11 13  2  0
 13 14  1  0
 14  4  1  0
 15  1  1  0
 16 17  2  0
 16 21  1  0
 17 18  1  0
 18 15  1  0
 18 19  2  0
 20 19  1  0
 20 22  1  0
 21 20  2  0
 22 23  2  0
 23 24  1  0
 25 24  1  0
 26 25  2  0
 26 22  1  0
  1 27  1  1
  2 28  1  0
  2 29  1  0
  3 30  1  6
  5 31  1  0
 10 32  1  0
 12 33  1  0
 12 34  1  0
 16 35  1  0
 17 36  1  0
 23 37  1  0
 25 38  1  0
M  ISO  8  27  13  28  13  29  13  30  13  31  14  32   9  35  14  36  14
M  ISO  2  37  14  38  14
M  END
>  <minimizedAffinity>  (1) 
-4.49214697

>  <minimizedRMSD>  (1) 
4.05587149

$$$$
