
     RDKit          3D

 35 38  0  0  1  0  0  0  0  0999 V2000
   45.8390   25.1220   37.2930 C   0  0  1  0  0  0  0  0  0  0  0  0
   46.9110   24.6320   38.1330 C   0  0  0  0  0  0  0  0  0  0  0  0
   47.2730   24.9760   36.7290 C   0  0  2  0  0  0  0  0  0  0  0  0
   48.0470   26.1970   36.5360 N   0  0  0  0  0  0  0  0  0  0  0  0
   49.2160   26.6200   37.0630 C   0  0  0  0  0  0  0  0  0  0  0  0
   49.5120   27.8500   36.5440 N   0  0  0  0  0  0  0  0  0  0  0  0
   48.4970   28.1730   35.6860 C   0  0  0  0  0  0  0  0  0  0  0  0
   48.3280   29.3120   34.9130 C   0  0  0  0  0  0  0  0  0  0  0  0
   49.1660   30.2720   34.9080 O   0  0  0  0  0  0  0  0  0  0  0  0
   47.2240   29.3600   34.1570 N   0  0  0  0  0  0  0  0  0  0  0  0
   46.3330   28.3760   34.1430 C   0  0  0  0  0  0  0  0  0  0  0  0
   45.1310   28.3300   33.3820 N   0  0  0  0  0  0  0  0  0  0  0  0
   46.5130   27.2960   34.8870 N   0  0  0  0  0  0  0  0  0  0  0  0
   47.6020   27.1350   35.6990 C   0  0  0  0  0  0  0  0  0  0  0  0
   44.9780   24.0740   36.7710 O   0  0  0  0  0  0  0  0  0  0  0  0
   41.5530   23.5680   35.8310 C   0  0  0  0  0  0  0  0  0  0  0  0
   42.8260   23.3830   36.3970 C   0  0  0  0  0  0  0  0  0  0  0  0
   43.7760   24.3860   36.1610 C   0  0  0  0  0  0  0  0  0  0  0  0
   43.4490   25.4850   35.4090 N   0  0  0  0  0  0  0  0  0  0  0  0
   42.2150   25.6060   34.8940 C   0  0  0  0  0  0  0  0  0  0  0  0
   41.2710   24.6550   35.1020 N   0  0  0  0  0  0  0  0  0  0  0  0
   41.9220   26.8100   34.0930 C   0  0  0  0  0  0  0  0  0  0  0  0
   45.0924   25.9237   37.3925 H   0  0  0  0  0  0  0  0  0  0  0  0
   47.2825   25.2606   38.9557 H   0  0  0  0  0  0  0  0  0  0  0  0
   47.0378   23.7280   38.7468 H   0  0  0  0  0  0  0  0  0  0  0  0
   47.7385   24.4653   35.8731 H   0  0  0  0  0  0  0  0  0  0  0  0
   49.8289   26.0666   37.7897 H   0  0  0  0  0  0  0  0  0  0  0  0
   47.0606   30.1880   33.5666 H   0  0  0  0  0  0  0  0  0  0  0  0
   44.5099   27.5111   33.4493 H   0  0  0  0  0  0  0  0  0  0  0  0
   44.8823   29.1156   32.7641 H   0  0  0  0  0  0  0  0  0  0  0  0
   40.7750   22.8067   35.9896 H   0  0  0  0  0  0  0  0  0  0  0  0
   43.0655   22.4928   36.9971 H   0  0  0  0  0  0  0  0  0  0  0  0
   41.7161   27.6562   34.7649 H   0  0  0  0  0  0  0  0  0  0  0  0
   42.7884   27.0481   33.4585 H   0  0  0  0  0  0  0  0  0  0  0  0
   41.0431   26.6233   33.4585 H   0  0  0  0  0  0  0  0  0  0  0  0
  1  2  1  0
  3  1  1  0
  3  2  1  0
  4  3  1  0
  4  5  1  0
  6  5  2  0
  7 14  2  0
  7  6  1  0
  8  7  1  0
  9  8  2  0
 10  8  1  0
 11 10  1  0
 11 13  2  0
 12 11  1  0
 13 14  1  0
 14  4  1  0
 15  1  1  0
 16 17  2  0
 18 17  1  0
 18 15  1  0
 19 18  2  0
 20 21  2  0
 20 19  1  0
 21 16  1  0
 22 20  1  0
  1 23  1  1
  2 24  1  0
  2 25  1  0
  3 26  1  6
  5 27  1  0
 10 28  1  0
 12 29  1  0
 12 30  1  0
 16 31  1  0
 17 32  1  0
 22 33  1  0
 22 34  1  0
 22 35  1  0
M  ISO  8  23  13  24  13  25  13  26  13  27  14  28   9  31  14  32  14
M  ISO  3  33   8  34   8  35   8
M  END
>  <minimizedAffinity>  (1) 
-4.35338259

>  <minimizedRMSD>  (1) 
0.22947523

$$$$
