
     RDKit          3D

 46 51  0  0  1  0  0  0  0  0999 V2000
   41.1860   22.3230   36.0950 O   0  0  0  0  0  0  0  0  0  0  0  0
   38.6340   23.4700   38.3110 C   0  0  0  0  0  0  0  0  0  0  0  0
   39.7040   22.7460   37.7750 C   0  0  0  0  0  0  0  0  0  0  0  0
   40.1430   23.1070   36.4970 C   0  0  0  0  0  0  0  0  0  0  0  0
   39.5410   24.1210   35.8210 N   0  0  0  0  0  0  0  0  0  0  0  0
   38.5240   24.7840   36.3690 C   0  0  0  0  0  0  0  0  0  0  0  0
   38.0590   24.4760   37.6020 N   0  0  0  0  0  0  0  0  0  0  0  0
   37.7500   25.9280   35.8240 C   0  0  1  0  0  0  0  0  0  0  0  0
   38.5000   27.3140   35.8810 C   0  0  0  0  0  0  0  0  0  0  0  0
   38.1580   26.6590   34.6020 C   0  0  2  0  0  0  0  0  0  0  0  0
   37.1240   27.3240   33.7770 C   0  0  0  0  0  0  0  0  0  0  0  0
   36.8190   26.9800   32.4550 C   0  0  0  0  0  0  0  0  0  0  0  0
   35.8160   27.8000   32.0040 C   0  0  0  0  0  0  0  0  0  0  0  0
   35.5260   28.6260   33.0430 N   0  0  0  0  0  0  0  0  0  0  0  0
   36.3070   28.3370   34.0900 N   0  0  0  0  0  0  0  0  0  0  0  0
   42.5250   22.4610   36.5980 C   0  0  1  0  0  0  0  0  0  0  0  0
   43.3900   21.3340   36.3260 C   0  0  0  0  0  0  0  0  0  0  0  0
   43.5560   22.5360   35.4380 C   0  0  2  0  0  0  0  0  0  0  0  0
   44.7550   23.3220   35.6560 N   0  0  0  0  0  0  0  0  0  0  0  0
   45.9750   23.0090   36.1670 C   0  0  0  0  0  0  0  0  0  0  0  0
   46.7540   24.1230   36.1530 N   0  0  0  0  0  0  0  0  0  0  0  0
   46.0010   25.1360   35.6250 C   0  0  0  0  0  0  0  0  0  0  0  0
   46.3410   26.4450   35.4070 C   0  0  0  0  0  0  0  0  0  0  0  0
   47.4770   26.9160   35.6860 O   0  0  0  0  0  0  0  0  0  0  0  0
   45.3850   27.2290   34.8670 N   0  0  0  0  0  0  0  0  0  0  0  0
   44.1760   26.7570   34.5630 C   0  0  0  0  0  0  0  0  0  0  0  0
   43.1100   27.5030   33.9940 N   0  0  0  0  0  0  0  0  0  0  0  0
   43.8680   25.5060   34.7790 N   0  0  0  0  0  0  0  0  0  0  0  0
   44.7600   24.6240   35.3210 C   0  0  0  0  0  0  0  0  0  0  0  0
   38.2554   23.2230   39.3138 H   0  0  0  0  0  0  0  0  0  0  0  0
   40.1800   21.9275   38.3348 H   0  0  0  0  0  0  0  0  0  0  0  0
   36.7975   25.4773   36.1398 H   0  0  0  0  0  0  0  0  0  0  0  0
   37.9669   28.2216   36.2005 H   0  0  0  0  0  0  0  0  0  0  0  0
   39.4175   27.6968   36.3518 H   0  0  0  0  0  0  0  0  0  0  0  0
   38.7360   26.3482   33.7192 H   0  0  0  0  0  0  0  0  0  0  0  0
   37.3042   26.1826   31.8729 H   0  0  0  0  0  0  0  0  0  0  0  0
   35.3453   27.7907   31.0098 H   0  0  0  0  0  0  0  0  0  0  0  0
   34.8099   29.3661   33.0269 H   0  0  0  0  0  0  0  0  0  0  0  0
   42.2929   23.0430   37.5021 H   0  0  0  0  0  0  0  0  0  0  0  0
   44.1846   21.0780   37.0423 H   0  0  0  0  0  0  0  0  0  0  0  0
   43.2040   20.2679   36.1290 H   0  0  0  0  0  0  0  0  0  0  0  0
   43.5177   22.7573   34.3612 H   0  0  0  0  0  0  0  0  0  0  0  0
   46.2815   22.0176   36.5318 H   0  0  0  0  0  0  0  0  0  0  0  0
   45.5954   28.2206   34.6844 H   0  0  0  0  0  0  0  0  0  0  0  0
   43.2377   28.5023   33.7797 H   0  0  0  0  0  0  0  0  0  0  0  0
   42.2092   27.0447   33.7955 H   0  0  0  0  0  0  0  0  0  0  0  0
  1  4  1  0
  1 16  1  0
  3  2  2  0
  4  3  1  0
  5  6  1  0
  5  4  2  0
  6  7  2  0
  7  2  1  0
  8  9  1  0
  8  6  1  0
 10  8  1  0
 10  9  1  0
 11 15  2  0
 11 10  1  0
 12 11  1  0
 13 12  2  0
 13 14  1  0
 14 15  1  0
 17 16  1  0
 18 19  1  0
 18 17  1  0
 18 16  1  0
 19 20  1  0
 21 20  2  0
 22 21  1  0
 23 22  1  0
 23 24  2  0
 25 23  1  0
 26 28  2  0
 26 25  1  0
 27 26  1  0
 28 29  1  0
 29 22  2  0
 29 19  1  0
  2 30  1  0
  3 31  1  0
  8 32  1  6
  9 33  1  0
  9 34  1  0
 10 35  1  6
 12 36  1  0
 13 37  1  0
 14 38  1  0
 16 39  1  1
 17 40  1  0
 17 41  1  0
 18 42  1  6
 20 43  1  0
 25 44  1  0
 27 45  1  0
 27 46  1  0
M  ISO  8  30  14  31  14  32  13  33  13  34  13  35  13  36  14  37  14
M  ISO  7  38   9  39  13  40  13  41  13  42  13  43  14  44   9
M  END
>  <minimizedAffinity>  (1) 
-6.1731739

>  <minimizedRMSD>  (1) 
3.75184703

$$$$
