
     RDKit          3D

 48 53  0  0  1  0  0  0  0  0999 V2000
   44.8590   24.2510   35.7700 O   0  0  0  0  0  0  0  0  0  0  0  0
   41.4070   23.3440   35.8890 C   0  0  0  0  0  0  0  0  0  0  0  0
   42.7950   23.2980   35.9940 C   0  0  0  0  0  0  0  0  0  0  0  0
   43.5080   24.4320   35.6180 C   0  0  0  0  0  0  0  0  0  0  0  0
   42.8540   25.5360   35.1660 N   0  0  0  0  0  0  0  0  0  0  0  0
   41.5280   25.5400   35.0790 C   0  0  0  0  0  0  0  0  0  0  0  0
   40.7860   24.4650   35.4310 N   0  0  0  0  0  0  0  0  0  0  0  0
   40.6210   26.6330   34.6410 C   0  0  1  0  0  0  0  0  0  0  0  0
   40.9070   27.1870   33.1920 C   0  0  0  0  0  0  0  0  0  0  0  0
   39.6600   26.4690   33.5260 C   0  0  2  0  0  0  0  0  0  0  0  0
   38.4110   27.2290   33.4660 C   0  0  0  0  0  0  0  0  0  0  0  0
   37.7100   27.4370   34.6460 C   0  0  0  0  0  0  0  0  0  0  0  0
   36.5250   28.1500   34.6270 C   0  0  0  0  0  0  0  0  0  0  0  0
   36.1080   28.6200   33.4020 C   0  0  0  0  0  0  0  0  0  0  0  0
   36.7900   28.4270   32.2000 C   0  0  0  0  0  0  0  0  0  0  0  0
   37.9210   27.7330   32.2960 N   0  0  0  0  0  0  0  0  0  0  0  0
   45.6810   25.1350   36.5620 C   0  0  1  0  0  0  0  0  0  0  0  0
   46.5880   24.4840   37.4740 C   0  0  0  0  0  0  0  0  0  0  0  0
   47.1760   24.9770   36.1790 C   0  0  2  0  0  0  0  0  0  0  0  0
   48.0230   26.1530   36.2930 N   0  0  0  0  0  0  0  0  0  0  0  0
   49.1360   26.4260   37.0310 C   0  0  0  0  0  0  0  0  0  0  0  0
   49.5420   27.6870   36.7640 N   0  0  0  0  0  0  0  0  0  0  0  0
   48.6730   28.2090   35.8470 C   0  0  0  0  0  0  0  0  0  0  0  0
   48.6650   29.4570   35.2640 C   0  0  0  0  0  0  0  0  0  0  0  0
   49.5240   30.3420   35.5220 O   0  0  0  0  0  0  0  0  0  0  0  0
   47.6760   29.7020   34.3830 N   0  0  0  0  0  0  0  0  0  0  0  0
   46.7470   28.7780   34.0880 C   0  0  0  0  0  0  0  0  0  0  0  0
   45.6710   28.9340   33.1810 N   0  0  0  0  0  0  0  0  0  0  0  0
   46.7710   27.5940   34.6550 N   0  0  0  0  0  0  0  0  0  0  0  0
   47.7330   27.2460   35.5630 C   0  0  0  0  0  0  0  0  0  0  0  0
   40.8083   22.4678   36.1784 H   0  0  0  0  0  0  0  0  0  0  0  0
   43.3091   22.3974   36.3610 H   0  0  0  0  0  0  0  0  0  0  0  0
   40.5142   27.0034   35.6713 H   0  0  0  0  0  0  0  0  0  0  0  0
   41.6683   26.7121   32.5557 H   0  0  0  0  0  0  0  0  0  0  0  0
   41.1636   28.1638   32.7561 H   0  0  0  0  0  0  0  0  0  0  0  0
   39.1484   25.5761   33.1374 H   0  0  0  0  0  0  0  0  0  0  0  0
   38.0963   27.0355   35.5945 H   0  0  0  0  0  0  0  0  0  0  0  0
   35.9453   28.3322   35.5439 H   0  0  0  0  0  0  0  0  0  0  0  0
   35.1677   29.1898   33.3683 H   0  0  0  0  0  0  0  0  0  0  0  0
   36.4192   28.8204   31.2420 H   0  0  0  0  0  0  0  0  0  0  0  0
   44.9592   25.9571   36.6768 H   0  0  0  0  0  0  0  0  0  0  0  0
   46.8590   24.9844   38.4153 H   0  0  0  0  0  0  0  0  0  0  0  0
   46.5818   23.5066   37.9787 H   0  0  0  0  0  0  0  0  0  0  0  0
   47.7307   24.5577   35.3267 H   0  0  0  0  0  0  0  0  0  0  0  0
   49.6247   25.7321   37.7308 H   0  0  0  0  0  0  0  0  0  0  0  0
   47.6310   30.6226   33.9232 H   0  0  0  0  0  0  0  0  0  0  0  0
   45.0111   28.1584   33.0265 H   0  0  0  0  0  0  0  0  0  0  0  0
   45.5481   29.8231   32.6757 H   0  0  0  0  0  0  0  0  0  0  0  0
  1 17  1  0
  2  3  2  0
  4  1  1  0
  4  3  1  0
  5  4  2  0
  6  5  1  0
  6  7  2  0
  7  2  1  0
  8  6  1  0
  9 10  1  0
  9  8  1  0
 10  8  1  0
 11 10  1  0
 11 12  2  0
 13 12  1  0
 14 13  2  0
 15 16  2  0
 15 14  1  0
 16 11  1  0
 17 18  1  0
 19 20  1  0
 19 17  1  0
 19 18  1  0
 20 21  1  0
 22 21  2  0
 23 22  1  0
 24 25  2  0
 24 23  1  0
 26 24  1  0
 27 26  1  0
 27 29  2  0
 28 27  1  0
 29 30  1  0
 30 23  2  0
 30 20  1  0
  2 31  1  0
  3 32  1  0
  8 33  1  1
  9 34  1  0
  9 35  1  0
 10 36  1  6
 12 37  1  0
 13 38  1  0
 14 39  1  0
 15 40  1  0
 17 41  1  1
 18 42  1  0
 18 43  1  0
 19 44  1  6
 21 45  1  0
 26 46  1  0
 28 47  1  0
 28 48  1  0
M  ISO  8  31  14  32  14  33  13  34  13  35  13  36  13  37  14  38  14
M  ISO  8  39  14  40  14  41  13  42  13  43  13  44  13  45  14  46   9
M  END
>  <minimizedAffinity>  (1) 
-5.70206642

>  <minimizedRMSD>  (1) 
0.989809036

$$$$
