
     RDKit          3D

 44 49  0  0  1  0  0  0  0  0999 V2000
   44.9980   25.3310   36.3240 C   0  0  1  0  0  0  0  0  0  0  0  0
   45.7330   24.6170   37.3370 C   0  0  0  0  0  0  0  0  0  0  0  0
   46.4920   24.9810   36.0910 C   0  0  2  0  0  0  0  0  0  0  0  0
   47.4590   26.0590   36.2490 N   0  0  0  0  0  0  0  0  0  0  0  0
   48.5520   26.1970   37.0520 C   0  0  0  0  0  0  0  0  0  0  0  0
   49.1190   27.4090   36.8110 N   0  0  0  0  0  0  0  0  0  0  0  0
   48.3650   28.0240   35.8480 C   0  0  0  0  0  0  0  0  0  0  0  0
   48.5350   29.2630   35.2730 C   0  0  0  0  0  0  0  0  0  0  0  0
   49.4680   30.0390   35.5800 O   0  0  0  0  0  0  0  0  0  0  0  0
   47.6290   29.6170   34.3380 N   0  0  0  0  0  0  0  0  0  0  0  0
   46.6180   28.8050   33.9880 C   0  0  0  0  0  0  0  0  0  0  0  0
   45.6190   29.0820   33.0230 N   0  0  0  0  0  0  0  0  0  0  0  0
   46.4760   27.6300   34.5500 N   0  0  0  0  0  0  0  0  0  0  0  0
   47.3370   27.1730   35.5090 C   0  0  0  0  0  0  0  0  0  0  0  0
   44.1540   24.5140   35.4850 O   0  0  0  0  0  0  0  0  0  0  0  0
   40.7020   23.6600   35.8220 C   0  0  0  0  0  0  0  0  0  0  0  0
   42.0920   23.6050   35.8690 C   0  0  0  0  0  0  0  0  0  0  0  0
   42.7990   24.7020   35.3820 C   0  0  0  0  0  0  0  0  0  0  0  0
   42.1320   25.7820   34.8820 N   0  0  0  0  0  0  0  0  0  0  0  0
   40.8070   25.7960   34.8550 C   0  0  0  0  0  0  0  0  0  0  0  0
   40.0730   24.7560   35.3150 N   0  0  0  0  0  0  0  0  0  0  0  0
   39.8920   26.8670   34.3860 C   0  0  1  0  0  0  0  0  0  0  0  0
   39.9300   27.1350   32.8330 C   0  0  0  0  0  0  0  0  0  0  0  0
   38.7280   26.6070   33.5110 C   0  0  2  0  0  0  0  0  0  0  0  0
   37.5460   27.4710   33.5650 C   0  0  0  0  0  0  0  0  0  0  0  0
   36.9380   27.7950   34.7200 N   0  0  0  0  0  0  0  0  0  0  0  0
   35.9340   28.5630   34.4430 O   0  0  0  0  0  0  0  0  0  0  0  0
   35.8410   28.7680   33.1380 C   0  0  0  0  0  0  0  0  0  0  0  0
   36.8490   28.0880   32.5670 N   0  0  0  0  0  0  0  0  0  0  0  0
   44.3734   26.2362   36.3439 H   0  0  0  0  0  0  0  0  0  0  0  0
   45.9761   25.1213   38.2839 H   0  0  0  0  0  0  0  0  0  0  0  0
   45.5621   23.6693   37.8686 H   0  0  0  0  0  0  0  0  0  0  0  0
   47.0685   24.4620   35.3110 H   0  0  0  0  0  0  0  0  0  0  0  0
   48.9149   25.4515   37.7749 H   0  0  0  0  0  0  0  0  0  0  0  0
   47.7151   30.5355   33.8799 H   0  0  0  0  0  0  0  0  0  0  0  0
   44.8840   28.3871   32.8286 H   0  0  0  0  0  0  0  0  0  0  0  0
   45.6275   29.9783   32.5157 H   0  0  0  0  0  0  0  0  0  0  0  0
   40.1082   22.8132   36.1966 H   0  0  0  0  0  0  0  0  0  0  0  0
   42.6137   22.7264   36.2763 H   0  0  0  0  0  0  0  0  0  0  0  0
   40.0022   27.4138   35.3341 H   0  0  0  0  0  0  0  0  0  0  0  0
   40.5246   26.4877   32.1716 H   0  0  0  0  0  0  0  0  0  0  0  0
   40.1586   27.9936   32.1845 H   0  0  0  0  0  0  0  0  0  0  0  0
   38.0979   25.7155   33.3764 H   0  0  0  0  0  0  0  0  0  0  0  0
   35.0847   29.3772   32.6215 H   0  0  0  0  0  0  0  0  0  0  0  0
  1  2  1  0
  3  4  1  0
  3  1  1  0
  3  2  1  0
  4  5  1  0
  6  5  2  0
  7  6  1  0
  8  9  2  0
  8  7  1  0
 10  8  1  0
 11 10  1  0
 11 13  2  0
 12 11  1  0
 13 14  1  0
 14  7  2  0
 14  4  1  0
 15  1  1  0
 16 17  2  0
 18 15  1  0
 18 17  1  0
 19 18  2  0
 20 19  1  0
 20 21  2  0
 21 16  1  0
 22 20  1  0
 23 24  1  0
 23 22  1  0
 24 25  1  0
 24 22  1  0
 25 26  2  0
 27 26  1  0
 28 27  1  0
 29 28  2  0
 29 25  1  0
  1 30  1  1
  2 31  1  0
  2 32  1  0
  3 33  1  6
  5 34  1  0
 10 35  1  0
 12 36  1  0
 12 37  1  0
 16 38  1  0
 17 39  1  0
 22 40  1  1
 23 41  1  0
 23 42  1  0
 24 43  1  6
 28 44  1  0
M  ISO  8  30  13  31  13  32  13  33  13  34  14  35   9  38  14  39  14
M  ISO  5  40  13  41  13  42  13  43  13  44  14
M  END
>  <minimizedAffinity>  (1) 
-5.42642021

>  <minimizedRMSD>  (1) 
1.34272003

$$$$
