
     RDKit          3D

 52 57  0  0  1  0  0  0  0  0999 V2000
   45.7960   25.0940   37.0410 C   0  0  1  0  0  0  0  0  0  0  0  0
   46.8230   24.5860   37.9200 C   0  0  0  0  0  0  0  0  0  0  0  0
   47.2580   24.9650   36.5330 C   0  0  2  0  0  0  0  0  0  0  0  0
   48.0430   26.1840   36.4320 N   0  0  0  0  0  0  0  0  0  0  0  0
   49.2020   26.5860   37.0230 C   0  0  0  0  0  0  0  0  0  0  0  0
   49.5100   27.8330   36.5780 N   0  0  0  0  0  0  0  0  0  0  0  0
   48.5310   28.2100   35.7020 C   0  0  0  0  0  0  0  0  0  0  0  0
   48.3920   29.3720   34.9930 C   0  0  0  0  0  0  0  0  0  0  0  0
   49.2170   30.3190   35.0670 O   0  0  0  0  0  0  0  0  0  0  0  0
   47.3140   29.4710   34.1950 N   0  0  0  0  0  0  0  0  0  0  0  0
   46.4160   28.4780   34.0960 C   0  0  0  0  0  0  0  0  0  0  0  0
   45.2520   28.4840   33.2860 N   0  0  0  0  0  0  0  0  0  0  0  0
   46.5620   27.3700   34.7810 N   0  0  0  0  0  0  0  0  0  0  0  0
   47.6220   27.1700   35.6210 C   0  0  0  0  0  0  0  0  0  0  0  0
   44.9560   24.0900   36.4450 O   0  0  0  0  0  0  0  0  0  0  0  0
   41.5180   23.3720   35.7940 C   0  0  0  0  0  0  0  0  0  0  0  0
   42.8530   23.2430   36.2050 C   0  0  0  0  0  0  0  0  0  0  0  0
   43.6850   24.3450   36.0050 C   0  0  0  0  0  0  0  0  0  0  0  0
   43.1970   25.4870   35.4340 N   0  0  0  0  0  0  0  0  0  0  0  0
   41.9300   25.5590   35.0640 C   0  0  0  0  0  0  0  0  0  0  0  0
   41.0710   24.5260   35.2280 N   0  0  0  0  0  0  0  0  0  0  0  0
   41.1960   26.7070   34.4610 C   0  0  1  0  0  0  0  0  0  0  0  0
   41.7760   27.2330   33.0990 C   0  0  0  0  0  0  0  0  0  0  0  0
   40.4540   26.5850   33.1830 C   0  0  2  0  0  0  0  0  0  0  0  0
   39.2060   27.2280   32.9710 N   0  0  0  0  0  0  0  0  0  0  0  0
   38.7510   27.2150   31.6280 C   0  0  0  0  0  0  0  0  0  0  0  0
   37.2900   27.1080   31.4350 C   0  0  0  0  0  0  0  0  0  0  0  0
   36.5490   26.5520   32.4310 O   0  0  0  0  0  0  0  0  0  0  0  0
   37.2180   26.0510   33.5110 C   0  0  0  0  0  0  0  0  0  0  0  0
   38.2130   27.0810   33.9690 C   0  0  0  0  0  0  0  0  0  0  0  0
   45.0440   25.8913   37.1344 H   0  0  0  0  0  0  0  0  0  0  0  0
   47.1522   25.1955   38.7744 H   0  0  0  0  0  0  0  0  0  0  0  0
   46.9199   23.6682   38.5185 H   0  0  0  0  0  0  0  0  0  0  0  0
   47.7569   24.4815   35.6802 H   0  0  0  0  0  0  0  0  0  0  0  0
   49.7918   25.9985   37.7420 H   0  0  0  0  0  0  0  0  0  0  0  0
   47.1737   30.3309   33.6456 H   0  0  0  0  0  0  0  0  0  0  0  0
   44.6239   27.6677   33.2809 H   0  0  0  0  0  0  0  0  0  0  0  0
   45.0347   29.3047   32.7027 H   0  0  0  0  0  0  0  0  0  0  0  0
   40.8238   22.5298   35.9309 H   0  0  0  0  0  0  0  0  0  0  0  0
   43.2267   22.3157   36.6638 H   0  0  0  0  0  0  0  0  0  0  0  0
   40.9250   27.0953   35.4539 H   0  0  0  0  0  0  0  0  0  0  0  0
   42.6185   26.7149   32.6175 H   0  0  0  0  0  0  0  0  0  0  0  0
   42.1612   28.1928   32.7243 H   0  0  0  0  0  0  0  0  0  0  0  0
   40.0102   25.7499   32.6212 H   0  0  0  0  0  0  0  0  0  0  0  0
   39.0849   28.1485   31.1515 H   0  0  0  0  0  0  0  0  0  0  0  0
   39.1743   26.3026   31.1827 H   0  0  0  0  0  0  0  0  0  0  0  0
   36.9070   28.1264   31.2731 H   0  0  0  0  0  0  0  0  0  0  0  0
   37.1769   26.4124   30.5904 H   0  0  0  0  0  0  0  0  0  0  0  0
   36.5067   25.8346   34.3217 H   0  0  0  0  0  0  0  0  0  0  0  0
   37.7352   25.1194   33.2379 H   0  0  0  0  0  0  0  0  0  0  0  0
   38.6793   26.7526   34.9096 H   0  0  0  0  0  0  0  0  0  0  0  0
   37.7062   28.0426   34.1379 H   0  0  0  0  0  0  0  0  0  0  0  0
  1  2  1  0
  3  1  1  0
  3  2  1  0
  4  3  1  0
  4  5  1  0
  6  5  2  0
  7  6  1  0
  8  9  2  0
  8  7  1  0
 10  8  1  0
 11 10  1  0
 11 13  2  0
 12 11  1  0
 13 14  1  0
 14  7  2  0
 14  4  1  0
 15  1  1  0
 16 17  2  0
 18 17  1  0
 18 15  1  0
 19 18  2  0
 20 21  2  0
 20 19  1  0
 21 16  1  0
 22 20  1  0
 23 24  1  0
 23 22  1  0
 24 22  1  0
 25 24  1  0
 25 30  1  0
 26 25  1  0
 27 26  1  0
 27 28  1  0
 28 29  1  0
 29 30  1  0
  1 31  1  1
  2 32  1  0
  2 33  1  0
  3 34  1  6
  5 35  1  0
 10 36  1  0
 12 37  1  0
 12 38  1  0
 16 39  1  0
 17 40  1  0
 22 41  1  1
 23 42  1  0
 23 43  1  0
 24 44  1  6
 26 45  1  0
 26 46  1  0
 27 47  1  0
 27 48  1  0
 29 49  1  0
 29 50  1  0
 30 51  1  0
 30 52  1  0
M  ISO  8  31  13  32  13  33  13  34  13  35  14  36   9  39  14  40  14
M  ISO  8  41  13  42  13  43  13  44  13  45  13  46  13  47  13  48  13
M  ISO  4  49  13  50  13  51  13  52  13
M  END
>  <minimizedAffinity>  (1) 
-5.33925533

>  <minimizedRMSD>  (1) 
0.789790154

$$$$
