
     RDKit          3D

 46 51  0  0  1  0  0  0  0  0999 V2000
   46.1020   24.9220   37.1720 C   0  0  1  0  0  0  0  0  0  0  0  0
   47.1910   24.4810   38.0070 C   0  0  0  0  0  0  0  0  0  0  0  0
   47.5460   24.8750   36.5990 C   0  0  2  0  0  0  0  0  0  0  0  0
   48.2550   26.1320   36.4620 N   0  0  0  0  0  0  0  0  0  0  0  0
   49.4160   26.5920   37.0010 C   0  0  0  0  0  0  0  0  0  0  0  0
   49.6410   27.8540   36.5460 N   0  0  0  0  0  0  0  0  0  0  0  0
   48.6060   28.1760   35.7160 C   0  0  0  0  0  0  0  0  0  0  0  0
   48.3790   29.3300   35.0170 C   0  0  0  0  0  0  0  0  0  0  0  0
   49.1610   30.3210   35.0560 O   0  0  0  0  0  0  0  0  0  0  0  0
   47.2610   29.3750   34.2650 N   0  0  0  0  0  0  0  0  0  0  0  0
   46.4140   28.3420   34.2050 C   0  0  0  0  0  0  0  0  0  0  0  0
   45.2150   28.2900   33.4470 N   0  0  0  0  0  0  0  0  0  0  0  0
   46.6450   27.2440   34.8800 N   0  0  0  0  0  0  0  0  0  0  0  0
   47.7490   27.0960   35.6720 C   0  0  0  0  0  0  0  0  0  0  0  0
   45.2940   23.8710   36.6120 O   0  0  0  0  0  0  0  0  0  0  0  0
   41.8670   22.9650   36.1500 C   0  0  0  0  0  0  0  0  0  0  0  0
   43.2300   22.9130   36.5010 C   0  0  0  0  0  0  0  0  0  0  0  0
   43.9930   24.0510   36.2290 C   0  0  0  0  0  0  0  0  0  0  0  0
   43.4210   25.1510   35.6510 N   0  0  0  0  0  0  0  0  0  0  0  0
   42.1340   25.1510   35.3400 C   0  0  0  0  0  0  0  0  0  0  0  0
   41.3490   24.0730   35.5820 N   0  0  0  0  0  0  0  0  0  0  0  0
   41.3180   26.2380   34.7400 C   0  0  1  0  0  0  0  0  0  0  0  0
   40.8210   25.9510   33.2690 C   0  0  0  0  0  0  0  0  0  0  0  0
   39.8850   26.0640   34.3990 C   0  0  2  0  0  0  0  0  0  0  0  0
   38.9370   27.2090   34.4120 C   0  0  0  0  0  0  0  0  0  0  0  0
   38.1030   27.4820   35.6560 C   0  0  0  0  0  0  0  0  0  0  0  0
   37.4740   26.9980   34.3770 C   0  0  0  0  0  0  0  0  0  0  0  0
   45.3096   25.6745   37.2979 H   0  0  0  0  0  0  0  0  0  0  0  0
   47.5201   25.1145   38.8439 H   0  0  0  0  0  0  0  0  0  0  0  0
   47.3657   23.5744   38.6049 H   0  0  0  0  0  0  0  0  0  0  0  0
   48.0336   24.4165   35.7261 H   0  0  0  0  0  0  0  0  0  0  0  0
   50.0663   26.0349   37.6915 H   0  0  0  0  0  0  0  0  0  0  0  0
   47.0541   30.2262   33.7232 H   0  0  0  0  0  0  0  0  0  0  0  0
   44.6286   27.4435   33.4682 H   0  0  0  0  0  0  0  0  0  0  0  0
   44.9313   29.0988   32.8758 H   0  0  0  0  0  0  0  0  0  0  0  0
   41.2204   22.0957   36.3405 H   0  0  0  0  0  0  0  0  0  0  0  0
   43.6721   22.0198   36.9666 H   0  0  0  0  0  0  0  0  0  0  0  0
   41.8641   27.0073   35.3055 H   0  0  0  0  0  0  0  0  0  0  0  0
   41.0097   24.9742   32.7998 H   0  0  0  0  0  0  0  0  0  0  0  0
   40.9364   26.4359   32.2884 H   0  0  0  0  0  0  0  0  0  0  0  0
   39.1087   25.4114   34.8250 H   0  0  0  0  0  0  0  0  0  0  0  0
   39.6432   27.7849   33.7959 H   0  0  0  0  0  0  0  0  0  0  0  0
   38.1720   26.8139   36.5271 H   0  0  0  0  0  0  0  0  0  0  0  0
   37.9543   28.3374   36.3313 H   0  0  0  0  0  0  0  0  0  0  0  0
   36.8381   27.6770   33.7900 H   0  0  0  0  0  0  0  0  0  0  0  0
   36.8245   26.1510   34.1110 H   0  0  0  0  0  0  0  0  0  0  0  0
  1  2  1  0
  3  1  1  0
  3  2  1  0
  4  3  1  0
  4  5  1  0
  6  5  2  0
  7  6  1  0
  8  9  2  0
  8  7  1  0
 10  8  1  0
 11 10  1  0
 11 13  2  0
 12 11  1  0
 13 14  1  0
 14  7  2  0
 14  4  1  0
 15  1  1  0
 16 17  2  0
 18 17  1  0
 18 15  1  0
 19 18  2  0
 20 21  2  0
 20 19  1  0
 21 16  1  0
 22 20  1  0
 23 24  1  0
 23 22  1  0
 24 25  1  0
 24 22  1  0
 25 26  1  0
 27 25  1  0
 27 26  1  0
  1 28  1  1
  2 29  1  0
  2 30  1  0
  3 31  1  6
  5 32  1  0
 10 33  1  0
 12 34  1  0
 12 35  1  0
 16 36  1  0
 17 37  1  0
 22 38  1  6
 23 39  1  0
 23 40  1  0
 24 41  1  1
 25 42  1  0
 26 43  1  0
 26 44  1  0
 27 45  1  0
 27 46  1  0
M  ISO  8  28  13  29  13  30  13  31  13  32  14  33   9  36  14  37  14
M  ISO  8  38  13  39  13  40  13  41  13  42  13  43  13  44  13  45  13
M  ISO  1  46  13
M  END
>  <minimizedAffinity>  (1) 
-5.17581654

>  <minimizedRMSD>  (1) 
0.899874508

$$$$
