
     RDKit          3D

 52 57  0  0  1  0  0  0  0  0999 V2000
   45.4730   25.0520   36.7490 C   0  0  1  0  0  0  0  0  0  0  0  0
   46.4800   24.4080   37.5520 C   0  0  0  0  0  0  0  0  0  0  0  0
   46.9190   24.9080   36.2040 C   0  0  2  0  0  0  0  0  0  0  0  0
   47.7640   26.0920   36.2240 N   0  0  0  0  0  0  0  0  0  0  0  0
   48.9040   26.4060   36.8990 C   0  0  0  0  0  0  0  0  0  0  0  0
   49.2990   27.6530   36.5550 N   0  0  0  0  0  0  0  0  0  0  0  0
   48.3920   28.1260   35.6510 C   0  0  0  0  0  0  0  0  0  0  0  0
   48.3590   29.3440   35.0070 C   0  0  0  0  0  0  0  0  0  0  0  0
   49.2250   30.2430   35.1860 O   0  0  0  0  0  0  0  0  0  0  0  0
   47.3320   29.5430   34.1540 N   0  0  0  0  0  0  0  0  0  0  0  0
   46.3970   28.6060   33.9450 C   0  0  0  0  0  0  0  0  0  0  0  0
   45.2850   28.7200   33.0730 N   0  0  0  0  0  0  0  0  0  0  0  0
   46.4460   27.4530   34.5680 N   0  0  0  0  0  0  0  0  0  0  0  0
   47.4420   27.1450   35.4540 C   0  0  0  0  0  0  0  0  0  0  0  0
   44.5840   24.1610   36.0400 O   0  0  0  0  0  0  0  0  0  0  0  0
   41.0470   23.7130   35.7350 C   0  0  0  0  0  0  0  0  0  0  0  0
   42.3960   23.4960   36.0390 C   0  0  0  0  0  0  0  0  0  0  0  0
   43.3070   24.4910   35.6950 C   0  0  0  0  0  0  0  0  0  0  0  0
   42.8640   25.6360   35.0820 N   0  0  0  0  0  0  0  0  0  0  0  0
   41.5780   25.7970   34.8150 C   0  0  0  0  0  0  0  0  0  0  0  0
   40.6650   24.8460   35.1350 N   0  0  0  0  0  0  0  0  0  0  0  0
   40.8950   26.9610   34.1800 C   0  0  1  0  0  0  0  0  0  0  0  0
   41.6780   27.6250   32.9910 C   0  0  0  0  0  0  0  0  0  0  0  0
   40.4000   26.9250   32.7830 C   0  0  1  0  0  0  0  0  0  0  0  0
   40.2840   25.6760   31.9780 C   0  0  0  0  0  0  0  0  0  0  0  0
   38.7970   25.2930   31.9720 C   0  0  0  0  0  0  0  0  0  0  0  0
   38.2820   26.0350   30.7550 C   0  0  0  0  0  0  0  0  0  0  0  0
   39.3290   25.6470   29.7330 C   0  0  0  0  0  0  0  0  0  0  0  0
   40.6050   25.7730   30.5350 C   0  0  0  0  0  0  0  0  0  0  0  0
   44.7593   25.8649   36.9488 H   0  0  0  0  0  0  0  0  0  0  0  0
   46.8483   24.9087   38.4596 H   0  0  0  0  0  0  0  0  0  0  0  0
   46.5374   23.4292   38.0507 H   0  0  0  0  0  0  0  0  0  0  0  0
   47.3818   24.4947   35.2957 H   0  0  0  0  0  0  0  0  0  0  0  0
   49.4225   25.7485   37.6123 H   0  0  0  0  0  0  0  0  0  0  0  0
   47.2652   30.4389   33.6503 H   0  0  0  0  0  0  0  0  0  0  0  0
   44.6196   27.9391   32.9822 H   0  0  0  0  0  0  0  0  0  0  0  0
   45.1425   29.5838   32.5303 H   0  0  0  0  0  0  0  0  0  0  0  0
   40.2981   22.9489   35.9905 H   0  0  0  0  0  0  0  0  0  0  0  0
   42.7254   22.5701   36.5332 H   0  0  0  0  0  0  0  0  0  0  0  0
   40.4286   27.2472   35.1342 H   0  0  0  0  0  0  0  0  0  0  0  0
   41.7312   28.7203   32.9046 H   0  0  0  0  0  0  0  0  0  0  0  0
   42.6943   27.5499   32.5770 H   0  0  0  0  0  0  0  0  0  0  0  0
   39.4441   27.2125   32.3209 H   0  0  0  0  0  0  0  0  0  0  0  0
   40.9994   24.9816   32.4428 H   0  0  0  0  0  0  0  0  0  0  0  0
   38.6651   24.2064   31.8624 H   0  0  0  0  0  0  0  0  0  0  0  0
   38.2702   25.5506   32.9027 H   0  0  0  0  0  0  0  0  0  0  0  0
   37.2800   25.6884   30.4618 H   0  0  0  0  0  0  0  0  0  0  0  0
   38.1588   27.1189   30.8967 H   0  0  0  0  0  0  0  0  0  0  0  0
   39.3256   26.3352   28.8749 H   0  0  0  0  0  0  0  0  0  0  0  0
   39.1752   24.6503   29.2938 H   0  0  0  0  0  0  0  0  0  0  0  0
   41.2962   24.9639   30.2565 H   0  0  0  0  0  0  0  0  0  0  0  0
   41.0790   26.7433   30.3259 H   0  0  0  0  0  0  0  0  0  0  0  0
  1  2  1  0
  3  4  1  0
  3  1  1  0
  3  2  1  0
  4  5  1  0
  6  5  2  0
  7  6  1  0
  8  9  2  0
  8  7  1  0
 10  8  1  0
 11 10  1  0
 11 13  2  0
 12 11  1  0
 13 14  1  0
 14  7  2  0
 14  4  1  0
 15  1  1  0
 16 17  2  0
 18 17  1  0
 18 15  1  0
 19 18  2  0
 20 19  1  0
 20 21  2  0
 21 16  1  0
 22 20  1  0
 23 22  1  0
 24 23  1  0
 24 22  1  0
 25 24  1  0
 26 25  1  0
 27 26  1  0
 28 29  1  0
 28 27  1  0
 29 25  1  0
  1 30  1  1
  2 31  1  0
  2 32  1  0
  3 33  1  6
  5 34  1  0
 10 35  1  0
 12 36  1  0
 12 37  1  0
 16 38  1  0
 17 39  1  0
 22 40  1  1
 23 41  1  0
 23 42  1  0
 24 43  1  1
 25 44  1  0
 26 45  1  0
 26 46  1  0
 27 47  1  0
 27 48  1  0
 28 49  1  0
 28 50  1  0
 29 51  1  0
 29 52  1  0
M  ISO  8  30  13  31  13  32  13  33  13  34  14  35   9  38  14  39  14
M  ISO  8  40  13  41  13  42  13  43  13  44  13  45  13  46  13  47  13
M  ISO  5  48  13  49  13  50  13  51  13  52  13
M  END
>  <minimizedAffinity>  (1) 
-4.92694283

>  <minimizedRMSD>  (1) 
0.566856682

$$$$
