
     RDKit          3D

 51 56  0  0  1  0  0  0  0  0999 V2000
   45.4390   25.0760   36.6840 C   0  0  1  0  0  0  0  0  0  0  0  0
   46.4210   24.4410   37.5260 C   0  0  0  0  0  0  0  0  0  0  0  0
   46.8980   24.9130   36.1800 C   0  0  2  0  0  0  0  0  0  0  0  0
   47.7510   26.0950   36.2090 N   0  0  0  0  0  0  0  0  0  0  0  0
   48.8890   26.3970   36.8950 C   0  0  0  0  0  0  0  0  0  0  0  0
   49.2920   27.6480   36.5590 N   0  0  0  0  0  0  0  0  0  0  0  0
   48.3880   28.1270   35.6510 C   0  0  0  0  0  0  0  0  0  0  0  0
   48.3610   29.3470   35.0130 C   0  0  0  0  0  0  0  0  0  0  0  0
   49.2260   30.2410   35.1980 O   0  0  0  0  0  0  0  0  0  0  0  0
   47.3380   29.5540   34.1530 N   0  0  0  0  0  0  0  0  0  0  0  0
   46.3990   28.6180   33.9350 C   0  0  0  0  0  0  0  0  0  0  0  0
   45.2970   28.7400   33.0600 N   0  0  0  0  0  0  0  0  0  0  0  0
   46.4450   27.4630   34.5540 N   0  0  0  0  0  0  0  0  0  0  0  0
   47.4350   27.1530   35.4410 C   0  0  0  0  0  0  0  0  0  0  0  0
   44.5570   24.1820   35.9810 O   0  0  0  0  0  0  0  0  0  0  0  0
   41.0210   23.6830   35.7870 C   0  0  0  0  0  0  0  0  0  0  0  0
   42.3820   23.4820   36.0510 C   0  0  0  0  0  0  0  0  0  0  0  0
   43.2640   24.4940   35.6740 C   0  0  0  0  0  0  0  0  0  0  0  0
   42.7860   25.6260   35.0730 N   0  0  0  0  0  0  0  0  0  0  0  0
   41.4860   25.7670   34.8470 C   0  0  0  0  0  0  0  0  0  0  0  0
   40.6000   24.8030   35.2000 N   0  0  0  0  0  0  0  0  0  0  0  0
   40.7590   26.9100   34.2260 C   0  0  1  0  0  0  0  0  0  0  0  0
   41.3800   27.4790   32.9100 C   0  0  0  0  0  0  0  0  0  0  0  0
   40.0850   26.7840   32.9100 C   0  0  1  0  0  0  0  0  0  0  0  0
   39.8980   25.5730   32.1980 N   0  0  0  0  0  0  0  0  0  0  0  0
   40.4040   25.4480   30.8950 C   0  0  0  0  0  0  0  0  0  0  0  0
   39.2360   25.4140   29.9270 C   0  0  0  0  0  0  0  0  0  0  0  0
   38.1310   24.8570   30.7700 C   0  0  0  0  0  0  0  0  0  0  0  0
   38.4850   25.2470   32.1810 C   0  0  0  0  0  0  0  0  0  0  0  0
   44.7275   25.8992   36.8454 H   0  0  0  0  0  0  0  0  0  0  0  0
   46.7687   24.9567   38.4333 H   0  0  0  0  0  0  0  0  0  0  0  0
   46.4592   23.4717   38.0446 H   0  0  0  0  0  0  0  0  0  0  0  0
   47.3802   24.4811   35.2906 H   0  0  0  0  0  0  0  0  0  0  0  0
   49.3994   25.7324   37.6076 H   0  0  0  0  0  0  0  0  0  0  0  0
   47.2771   30.4521   33.6524 H   0  0  0  0  0  0  0  0  0  0  0  0
   44.6289   27.9622   32.9616 H   0  0  0  0  0  0  0  0  0  0  0  0
   45.1614   29.6067   32.5203 H   0  0  0  0  0  0  0  0  0  0  0  0
   40.2921   22.9083   36.0671 H   0  0  0  0  0  0  0  0  0  0  0  0
   42.7406   22.5624   36.5364 H   0  0  0  0  0  0  0  0  0  0  0  0
   40.4353   27.2762   35.2114 H   0  0  0  0  0  0  0  0  0  0  0  0
   42.2649   27.0019   32.4634 H   0  0  0  0  0  0  0  0  0  0  0  0
   41.7461   28.4601   32.5732 H   0  0  0  0  0  0  0  0  0  0  0  0
   39.0649   27.0355   32.5841 H   0  0  0  0  0  0  0  0  0  0  0  0
   41.0522   26.3063   30.6646 H   0  0  0  0  0  0  0  0  0  0  0  0
   40.9942   24.5240   30.8066 H   0  0  0  0  0  0  0  0  0  0  0  0
   39.4498   24.7595   29.0692 H   0  0  0  0  0  0  0  0  0  0  0  0
   39.0010   26.3955   29.4895 H   0  0  0  0  0  0  0  0  0  0  0  0
   37.1644   25.2938   30.4788 H   0  0  0  0  0  0  0  0  0  0  0  0
   38.0311   23.7677   30.6544 H   0  0  0  0  0  0  0  0  0  0  0  0
   37.8934   26.1216   32.4892 H   0  0  0  0  0  0  0  0  0  0  0  0
   38.2672   24.4244   32.8781 H   0  0  0  0  0  0  0  0  0  0  0  0
  1  2  1  0
  3  4  1  0
  3  1  1  0
  3  2  1  0
  4  5  1  0
  6  5  2  0
  7  6  1  0
  8  9  2  0
  8  7  1  0
 10  8  1  0
 11 10  1  0
 11 13  2  0
 12 11  1  0
 13 14  1  0
 14  7  2  0
 14  4  1  0
 15  1  1  0
 16 17  2  0
 18 15  1  0
 18 17  1  0
 19 18  2  0
 20 19  1  0
 20 21  2  0
 21 16  1  0
 22 20  1  0
 23 24  1  0
 23 22  1  0
 24 22  1  0
 25 26  1  0
 25 24  1  0
 27 28  1  0
 27 26  1  0
 28 29  1  0
 29 25  1  0
  1 30  1  1
  2 31  1  0
  2 32  1  0
  3 33  1  6
  5 34  1  0
 10 35  1  0
 12 36  1  0
 12 37  1  0
 16 38  1  0
 17 39  1  0
 22 40  1  1
 23 41  1  0
 23 42  1  0
 24 43  1  1
 26 44  1  0
 26 45  1  0
 27 46  1  0
 27 47  1  0
 28 48  1  0
 28 49  1  0
 29 50  1  0
 29 51  1  0
M  ISO  8  30  13  31  13  32  13  33  13  34  14  35   9  38  14  39  14
M  ISO  8  40  13  41  13  42  13  43  13  44  13  45  13  46  13  47  13
M  ISO  4  48  13  49  13  50  13  51  13
M  END
>  <minimizedAffinity>  (1) 
-4.88301277

>  <minimizedRMSD>  (1) 
0.695849657

$$$$
