
     RDKit          3D

 49 54  0  0  1  0  0  0  0  0999 V2000
   44.5900   24.1400   36.0800 O   0  0  0  0  0  0  0  0  0  0  0  0
   41.0580   23.7120   35.7370 C   0  0  0  0  0  0  0  0  0  0  0  0
   42.3990   23.4910   36.0540 C   0  0  0  0  0  0  0  0  0  0  0  0
   43.3210   24.4850   35.7170 C   0  0  0  0  0  0  0  0  0  0  0  0
   42.8980   25.6220   35.1000 N   0  0  0  0  0  0  0  0  0  0  0  0
   41.6110   25.7950   34.8160 C   0  0  0  0  0  0  0  0  0  0  0  0
   40.6860   24.8570   35.1240 N   0  0  0  0  0  0  0  0  0  0  0  0
   40.9290   26.9400   34.1700 C   0  0  1  0  0  0  0  0  0  0  0  0
   41.6730   27.6400   33.0060 C   0  0  0  0  0  0  0  0  0  0  0  0
   40.4510   26.8960   32.7600 C   0  0  1  0  0  0  0  0  0  0  0  0
   40.6090   25.6800   31.9130 C   0  0  0  0  0  0  0  0  0  0  0  0
   41.8130   25.3440   31.2810 C   0  0  0  0  0  0  0  0  0  0  0  0
   41.9920   24.2340   30.5110 C   0  0  0  0  0  0  0  0  0  0  0  0
   40.9560   23.3750   30.3210 C   0  0  0  0  0  0  0  0  0  0  0  0
   39.7430   23.6410   30.9120 C   0  0  0  0  0  0  0  0  0  0  0  0
   39.5970   24.7700   31.6840 C   0  0  0  0  0  0  0  0  0  0  0  0
   45.4860   25.0360   36.7600 C   0  0  1  0  0  0  0  0  0  0  0  0
   46.5040   24.3950   37.5620 C   0  0  0  0  0  0  0  0  0  0  0  0
   46.9290   24.8930   36.2080 C   0  0  2  0  0  0  0  0  0  0  0  0
   47.7710   26.0840   36.2230 N   0  0  0  0  0  0  0  0  0  0  0  0
   48.9080   26.3970   36.9000 C   0  0  0  0  0  0  0  0  0  0  0  0
   49.2950   27.6530   36.5500 N   0  0  0  0  0  0  0  0  0  0  0  0
   48.3810   28.1160   35.6460 C   0  0  0  0  0  0  0  0  0  0  0  0
   48.3430   29.3340   35.0020 C   0  0  0  0  0  0  0  0  0  0  0  0
   49.1980   30.2320   35.1770 O   0  0  0  0  0  0  0  0  0  0  0  0
   47.3120   29.5210   34.1500 N   0  0  0  0  0  0  0  0  0  0  0  0
   46.3840   28.5810   33.9440 C   0  0  0  0  0  0  0  0  0  0  0  0
   45.2680   28.6850   33.0730 N   0  0  0  0  0  0  0  0  0  0  0  0
   46.4400   27.4300   34.5660 N   0  0  0  0  0  0  0  0  0  0  0  0
   47.4380   27.1320   35.4500 C   0  0  0  0  0  0  0  0  0  0  0  0
   40.3025   22.9525   35.9867 H   0  0  0  0  0  0  0  0  0  0  0  0
   42.7195   22.5645   36.5529 H   0  0  0  0  0  0  0  0  0  0  0  0
   40.4584   27.2062   35.1280 H   0  0  0  0  0  0  0  0  0  0  0  0
   41.6747   28.7376   32.9332 H   0  0  0  0  0  0  0  0  0  0  0  0
   42.6973   27.6142   32.6058 H   0  0  0  0  0  0  0  0  0  0  0  0
   39.4604   27.1098   32.3323 H   0  0  0  0  0  0  0  0  0  0  0  0
   42.6701   26.0203   31.4150 H   0  0  0  0  0  0  0  0  0  0  0  0
   42.9688   24.0345   30.0462 H   0  0  0  0  0  0  0  0  0  0  0  0
   41.0864   22.4760   29.7007 H   0  0  0  0  0  0  0  0  0  0  0  0
   38.8950   22.9553   30.7682 H   0  0  0  0  0  0  0  0  0  0  0  0
   38.6166   24.9586   32.1457 H   0  0  0  0  0  0  0  0  0  0  0  0
   44.7739   25.8519   36.9529 H   0  0  0  0  0  0  0  0  0  0  0  0
   46.8777   24.8998   38.4651 H   0  0  0  0  0  0  0  0  0  0  0  0
   46.5688   23.4184   38.0640 H   0  0  0  0  0  0  0  0  0  0  0  0
   47.3858   24.4778   35.2976 H   0  0  0  0  0  0  0  0  0  0  0  0
   49.4292   25.7419   37.6136 H   0  0  0  0  0  0  0  0  0  0  0  0
   47.2384   30.4149   33.6436 H   0  0  0  0  0  0  0  0  0  0  0  0
   44.6079   27.8992   32.9856 H   0  0  0  0  0  0  0  0  0  0  0  0
   45.1183   29.5463   32.5283 H   0  0  0  0  0  0  0  0  0  0  0  0
  1 17  1  0
  2  3  2  0
  4  3  1  0
  4  1  1  0
  5  4  2  0
  6  5  1  0
  6  7  2  0
  7  2  1  0
  8  6  1  0
  9  8  1  0
 10  9  1  0
 10  8  1  0
 11 10  1  0
 12 11  2  0
 13 12  1  0
 14 13  2  0
 14 15  1  0
 15 16  2  0
 16 11  1  0
 17 18  1  0
 19 20  1  0
 19 17  1  0
 19 18  1  0
 20 21  1  0
 22 21  2  0
 23 22  1  0
 24 25  2  0
 24 23  1  0
 26 24  1  0
 27 26  1  0
 27 29  2  0
 28 27  1  0
 29 30  1  0
 30 23  2  0
 30 20  1  0
  2 31  1  0
  3 32  1  0
  8 33  1  1
  9 34  1  0
  9 35  1  0
 10 36  1  1
 12 37  1  0
 13 38  1  0
 14 39  1  0
 15 40  1  0
 16 41  1  0
 17 42  1  1
 18 43  1  0
 18 44  1  0
 19 45  1  6
 21 46  1  0
 26 47  1  0
 28 48  1  0
 28 49  1  0
M  ISO  8  31  14  32  14  33  13  34  13  35  13  36  13  37  14  38  14
M  ISO  8  39  14  40  14  41  14  42  13  43  13  44  13  45  13  46  14
M  ISO  1  47   9
M  END
>  <minimizedAffinity>  (1) 
-4.72218657

>  <minimizedRMSD>  (1) 
0.864589572

$$$$
