
     RDKit          3D

 46 51  0  0  1  0  0  0  0  0999 V2000
   45.4960   25.0380   36.7870 C   0  0  1  0  0  0  0  0  0  0  0  0
   46.5170   24.3930   37.5810 C   0  0  0  0  0  0  0  0  0  0  0  0
   46.9420   24.9100   36.2330 C   0  0  2  0  0  0  0  0  0  0  0  0
   47.7760   26.0920   36.2400 N   0  0  0  0  0  0  0  0  0  0  0  0
   48.9170   26.4140   36.9100 C   0  0  0  0  0  0  0  0  0  0  0  0
   49.2990   27.6630   36.5530 N   0  0  0  0  0  0  0  0  0  0  0  0
   48.3870   28.1200   35.6520 C   0  0  0  0  0  0  0  0  0  0  0  0
   48.3390   29.3310   34.9990 C   0  0  0  0  0  0  0  0  0  0  0  0
   49.2080   30.2430   35.1680 O   0  0  0  0  0  0  0  0  0  0  0  0
   47.3040   29.5160   34.1480 N   0  0  0  0  0  0  0  0  0  0  0  0
   46.3800   28.5750   33.9520 C   0  0  0  0  0  0  0  0  0  0  0  0
   45.2670   28.6810   33.0850 N   0  0  0  0  0  0  0  0  0  0  0  0
   46.4420   27.4300   34.5820 N   0  0  0  0  0  0  0  0  0  0  0  0
   47.4430   27.1350   35.4650 C   0  0  0  0  0  0  0  0  0  0  0  0
   44.6010   24.1420   36.1110 O   0  0  0  0  0  0  0  0  0  0  0  0
   41.0650   23.7110   35.7380 C   0  0  0  0  0  0  0  0  0  0  0  0
   42.4190   23.4780   36.0700 C   0  0  0  0  0  0  0  0  0  0  0  0
   43.3260   24.4820   35.7440 C   0  0  0  0  0  0  0  0  0  0  0  0
   42.9010   25.6280   35.1310 N   0  0  0  0  0  0  0  0  0  0  0  0
   41.6230   25.7990   34.8400 C   0  0  0  0  0  0  0  0  0  0  0  0
   40.7020   24.8500   35.1380 N   0  0  0  0  0  0  0  0  0  0  0  0
   40.9460   26.9510   34.2050 C   0  0  1  0  0  0  0  0  0  0  0  0
   41.6890   27.6000   32.9870 C   0  0  0  0  0  0  0  0  0  0  0  0
   40.4040   26.9000   32.8220 C   0  0  1  0  0  0  0  0  0  0  0  0
   40.5040   25.6440   32.0340 C   0  0  0  0  0  0  0  0  0  0  0  0
   41.5430   25.1040   31.2640 C   0  0  0  0  0  0  0  0  0  0  0  0
   41.1750   23.9060   30.7110 C   0  0  0  0  0  0  0  0  0  0  0  0
   39.8860   23.7440   31.1720 C   0  0  0  0  0  0  0  0  0  0  0  0
   39.5400   24.7400   31.9120 O   0  0  0  0  0  0  0  0  0  0  0  0
   44.7813   25.8509   36.9831 H   0  0  0  0  0  0  0  0  0  0  0  0
   46.8871   24.8886   38.4906 H   0  0  0  0  0  0  0  0  0  0  0  0
   46.5864   23.4104   38.0707 H   0  0  0  0  0  0  0  0  0  0  0  0
   47.4042   24.5063   35.3201 H   0  0  0  0  0  0  0  0  0  0  0  0
   49.4431   25.7647   37.6253 H   0  0  0  0  0  0  0  0  0  0  0  0
   47.2277   30.4075   33.6378 H   0  0  0  0  0  0  0  0  0  0  0  0
   44.6041   27.8973   32.9997 H   0  0  0  0  0  0  0  0  0  0  0  0
   45.1196   29.5419   32.5391 H   0  0  0  0  0  0  0  0  0  0  0  0
   40.3054   22.9513   35.9744 H   0  0  0  0  0  0  0  0  0  0  0  0
   42.7403   22.5482   36.5622 H   0  0  0  0  0  0  0  0  0  0  0  0
   40.5171   27.2528   35.1720 H   0  0  0  0  0  0  0  0  0  0  0  0
   41.7407   28.6943   32.8884 H   0  0  0  0  0  0  0  0  0  0  0  0
   42.6921   27.5186   32.5429 H   0  0  0  0  0  0  0  0  0  0  0  0
   39.4082   27.1561   32.4310 H   0  0  0  0  0  0  0  0  0  0  0  0
   42.5247   25.5795   31.1223 H   0  0  0  0  0  0  0  0  0  0  0  0
   41.7615   23.2397   30.0614 H   0  0  0  0  0  0  0  0  0  0  0  0
   39.2418   22.8831   30.9400 H   0  0  0  0  0  0  0  0  0  0  0  0
  1  2  1  0
  3  4  1  0
  3  1  1  0
  3  2  1  0
  4  5  1  0
  6  5  2  0
  7  6  1  0
  8  9  2  0
  8  7  1  0
 10  8  1  0
 11 10  1  0
 11 13  2  0
 12 11  1  0
 13 14  1  0
 14  7  2  0
 14  4  1  0
 15  1  1  0
 16 17  2  0
 18 17  1  0
 18 15  1  0
 19 18  2  0
 20 19  1  0
 20 21  2  0
 21 16  1  0
 22 20  1  0
 23 22  1  0
 24 23  1  0
 24 22  1  0
 25 24  1  0
 26 25  2  0
 27 28  2  0
 27 26  1  0
 28 29  1  0
 29 25  1  0
  1 30  1  1
  2 31  1  0
  2 32  1  0
  3 33  1  6
  5 34  1  0
 10 35  1  0
 12 36  1  0
 12 37  1  0
 16 38  1  0
 17 39  1  0
 22 40  1  1
 23 41  1  0
 23 42  1  0
 24 43  1  1
 26 44  1  0
 27 45  1  0
 28 46  1  0
M  ISO  8  30  13  31  13  32  13  33  13  34  14  35   9  38  14  39  14
M  ISO  7  40  13  41  13  42  13  43  13  44  14  45  14  46  14
M  END
>  <minimizedAffinity>  (1) 
-4.68956137

>  <minimizedRMSD>  (1) 
0.781080842

$$$$
