
     RDKit          3D

 46 51  0  0  1  0  0  0  0  0999 V2000
   45.4840   25.0400   36.7880 C   0  0  1  0  0  0  0  0  0  0  0  0
   46.5020   24.4040   37.5890 C   0  0  0  0  0  0  0  0  0  0  0  0
   46.9280   24.9030   36.2340 C   0  0  2  0  0  0  0  0  0  0  0  0
   47.7670   26.0880   36.2400 N   0  0  0  0  0  0  0  0  0  0  0  0
   48.9090   26.4140   36.9050 C   0  0  0  0  0  0  0  0  0  0  0  0
   49.2900   27.6570   36.5450 N   0  0  0  0  0  0  0  0  0  0  0  0
   48.3810   28.1190   35.6450 C   0  0  0  0  0  0  0  0  0  0  0  0
   48.3340   29.3280   34.9900 C   0  0  0  0  0  0  0  0  0  0  0  0
   49.2020   30.2410   35.1560 O   0  0  0  0  0  0  0  0  0  0  0  0
   47.2960   29.5110   34.1400 N   0  0  0  0  0  0  0  0  0  0  0  0
   46.3710   28.5760   33.9450 C   0  0  0  0  0  0  0  0  0  0  0  0
   45.2600   28.6770   33.0830 N   0  0  0  0  0  0  0  0  0  0  0  0
   46.4340   27.4280   34.5800 N   0  0  0  0  0  0  0  0  0  0  0  0
   47.4360   27.1340   35.4620 C   0  0  0  0  0  0  0  0  0  0  0  0
   44.5970   24.1310   36.0910 O   0  0  0  0  0  0  0  0  0  0  0  0
   41.0660   23.6970   35.7380 C   0  0  0  0  0  0  0  0  0  0  0  0
   42.4080   23.4770   36.0580 C   0  0  0  0  0  0  0  0  0  0  0  0
   43.3260   24.4750   35.7240 C   0  0  0  0  0  0  0  0  0  0  0  0
   42.8950   25.6180   35.1060 N   0  0  0  0  0  0  0  0  0  0  0  0
   41.6160   25.7860   34.8220 C   0  0  0  0  0  0  0  0  0  0  0  0
   40.6950   24.8460   35.1250 N   0  0  0  0  0  0  0  0  0  0  0  0
   40.9380   26.9380   34.1850 C   0  0  1  0  0  0  0  0  0  0  0  0
   41.6990   27.6210   33.0060 C   0  0  0  0  0  0  0  0  0  0  0  0
   40.4280   26.9110   32.7910 C   0  0  1  0  0  0  0  0  0  0  0  0
   40.5420   25.7020   31.9370 C   0  0  0  0  0  0  0  0  0  0  0  0
   39.5940   24.8180   31.6350 C   0  0  0  0  0  0  0  0  0  0  0  0
   39.8540   23.7590   30.8200 C   0  0  0  0  0  0  0  0  0  0  0  0
   41.2470   23.7070   30.3330 C   0  0  0  0  0  0  0  0  0  0  0  0
   42.0670   25.2260   31.1140 S   0  0  0  0  0  0  0  0  0  0  0  0
   44.7670   25.8503   36.9862 H   0  0  0  0  0  0  0  0  0  0  0  0
   46.8732   24.9104   38.4922 H   0  0  0  0  0  0  0  0  0  0  0  0
   46.5693   23.4277   38.0912 H   0  0  0  0  0  0  0  0  0  0  0  0
   47.3865   24.4894   35.3237 H   0  0  0  0  0  0  0  0  0  0  0  0
   49.4368   25.7673   37.6214 H   0  0  0  0  0  0  0  0  0  0  0  0
   47.2206   30.4020   33.6287 H   0  0  0  0  0  0  0  0  0  0  0  0
   44.5977   27.8923   33.0024 H   0  0  0  0  0  0  0  0  0  0  0  0
   45.1107   29.5355   32.5338 H   0  0  0  0  0  0  0  0  0  0  0  0
   40.3104   22.9365   35.9841 H   0  0  0  0  0  0  0  0  0  0  0  0
   42.7302   22.5504   36.5555 H   0  0  0  0  0  0  0  0  0  0  0  0
   40.4799   27.2109   35.1471 H   0  0  0  0  0  0  0  0  0  0  0  0
   41.7398   28.7179   32.9345 H   0  0  0  0  0  0  0  0  0  0  0  0
   42.7138   27.5615   32.5857 H   0  0  0  0  0  0  0  0  0  0  0  0
   39.4310   27.1546   32.3951 H   0  0  0  0  0  0  0  0  0  0  0  0
   38.5836   24.9452   32.0508 H   0  0  0  0  0  0  0  0  0  0  0  0
   39.0953   23.0101   30.5489 H   0  0  0  0  0  0  0  0  0  0  0  0
   41.7038   22.9582   29.6692 H   0  0  0  0  0  0  0  0  0  0  0  0
  1  2  1  0
  3  4  1  0
  3  1  1  0
  3  2  1  0
  4  5  1  0
  6  5  2  0
  7  6  1  0
  8  9  2  0
  8  7  1  0
 10  8  1  0
 11 10  1  0
 11 13  2  0
 12 11  1  0
 13 14  1  0
 14  7  2  0
 14  4  1  0
 15  1  1  0
 16 17  2  0
 18 17  1  0
 18 15  1  0
 19 18  2  0
 20 19  1  0
 20 21  2  0
 21 16  1  0
 22 20  1  0
 23 22  1  0
 24 23  1  0
 24 22  1  0
 25 24  1  0
 26 25  2  0
 27 26  1  0
 28 27  2  0
 28 29  1  0
 29 25  1  0
  1 30  1  1
  2 31  1  0
  2 32  1  0
  3 33  1  6
  5 34  1  0
 10 35  1  0
 12 36  1  0
 12 37  1  0
 16 38  1  0
 17 39  1  0
 22 40  1  1
 23 41  1  0
 23 42  1  0
 24 43  1  1
 26 44  1  0
 27 45  1  0
 28 46  1  0
M  ISO  8  30  13  31  13  32  13  33  13  34  14  35   9  38  14  39  14
M  ISO  7  40  13  41  13  42  13  43  13  44  14  45  14  46  14
M  END
>  <minimizedAffinity>  (1) 
-4.68487644

>  <minimizedRMSD>  (1) 
0.733365834

$$$$
