
     RDKit          3D

 42 46  0  0  1  0  0  0  0  0999 V2000
   45.5680   25.1030   36.8640 C   0  0  1  0  0  0  0  0  0  0  0  0
   46.5640   24.5240   37.7270 C   0  0  0  0  0  0  0  0  0  0  0  0
   47.0290   24.9550   36.3670 C   0  0  2  0  0  0  0  0  0  0  0  0
   47.8600   26.1530   36.3400 N   0  0  0  0  0  0  0  0  0  0  0  0
   48.9950   26.5000   36.9910 C   0  0  0  0  0  0  0  0  0  0  0  0
   49.3700   27.7430   36.6050 N   0  0  0  0  0  0  0  0  0  0  0  0
   48.4470   28.1750   35.6960 C   0  0  0  0  0  0  0  0  0  0  0  0
   48.3880   29.3720   35.0130 C   0  0  0  0  0  0  0  0  0  0  0  0
   49.2400   30.2850   35.1540 O   0  0  0  0  0  0  0  0  0  0  0  0
   47.3490   29.5250   34.1650 N   0  0  0  0  0  0  0  0  0  0  0  0
   46.4250   28.5690   33.9940 C   0  0  0  0  0  0  0  0  0  0  0  0
   45.3070   28.6360   33.1330 N   0  0  0  0  0  0  0  0  0  0  0  0
   46.5030   27.4370   34.6550 N   0  0  0  0  0  0  0  0  0  0  0  0
   47.5120   27.1740   35.5400 C   0  0  0  0  0  0  0  0  0  0  0  0
   44.7110   24.1590   36.1840 O   0  0  0  0  0  0  0  0  0  0  0  0
   41.1980   23.6020   35.8280 C   0  0  0  0  0  0  0  0  0  0  0  0
   42.5440   23.4310   36.1530 C   0  0  0  0  0  0  0  0  0  0  0  0
   43.4290   24.4560   35.8110 C   0  0  0  0  0  0  0  0  0  0  0  0
   42.9720   25.5710   35.1830 N   0  0  0  0  0  0  0  0  0  0  0  0
   41.6800   25.6960   34.8900 C   0  0  0  0  0  0  0  0  0  0  0  0
   40.7940   24.7360   35.2010 N   0  0  0  0  0  0  0  0  0  0  0  0
   40.9650   26.8180   34.2370 C   0  0  1  0  0  0  0  0  0  0  0  0
   41.7700   27.5720   33.1200 C   0  0  0  0  0  0  0  0  0  0  0  0
   40.5480   26.8050   32.8170 C   0  0  1  0  0  0  0  0  0  0  0  0
   40.7180   25.6370   31.8940 C   0  0  0  0  0  0  0  0  0  0  0  0
   40.3130   26.0740   30.6120 F   0  0  0  0  0  0  0  0  0  0  0  0
   42.0200   25.2260   31.7280 F   0  0  0  0  0  0  0  0  0  0  0  0
   39.8440   24.5890   32.1570 F   0  0  0  0  0  0  0  0  0  0  0  0
   44.8356   25.9126   36.9988 H   0  0  0  0  0  0  0  0  0  0  0  0
   46.8996   25.0814   38.6139 H   0  0  0  0  0  0  0  0  0  0  0  0
   46.6250   23.5759   38.2815 H   0  0  0  0  0  0  0  0  0  0  0  0
   47.5216   24.5004   35.4948 H   0  0  0  0  0  0  0  0  0  0  0  0
   49.5288   25.8714   37.7190 H   0  0  0  0  0  0  0  0  0  0  0  0
   47.2636   30.4029   33.6332 H   0  0  0  0  0  0  0  0  0  0  0  0
   44.6534   27.8421   33.0749 H   0  0  0  0  0  0  0  0  0  0  0  0
   45.1455   29.4788   32.5633 H   0  0  0  0  0  0  0  0  0  0  0  0
   40.4663   22.8200   36.0792 H   0  0  0  0  0  0  0  0  0  0  0  0
   42.8959   22.5209   36.6608 H   0  0  0  0  0  0  0  0  0  0  0  0
   40.4240   27.0345   35.1700 H   0  0  0  0  0  0  0  0  0  0  0  0
   41.7611   28.6711   33.0752 H   0  0  0  0  0  0  0  0  0  0  0  0
   42.8099   27.5731   32.7615 H   0  0  0  0  0  0  0  0  0  0  0  0
   39.5614   27.0069   32.3745 H   0  0  0  0  0  0  0  0  0  0  0  0
  1  2  1  0
  3  1  1  0
  3  2  1  0
  4  3  1  0
  4  5  1  0
  6  5  2  0
  7  6  1  0
  8  9  2  0
  8  7  1  0
 10  8  1  0
 11 10  1  0
 11 13  2  0
 12 11  1  0
 13 14  1  0
 14  7  2  0
 14  4  1  0
 15  1  1  0
 16 17  2  0
 18 17  1  0
 18 15  1  0
 19 18  2  0
 20 19  1  0
 20 21  2  0
 21 16  1  0
 22 20  1  0
 23 22  1  0
 24 23  1  0
 24 22  1  0
 25 28  1  0
 25 24  1  0
 26 25  1  0
 27 25  1  0
  1 29  1  1
  2 30  1  0
  2 31  1  0
  3 32  1  6
  5 33  1  0
 10 34  1  0
 12 35  1  0
 12 36  1  0
 16 37  1  0
 17 38  1  0
 22 39  1  1
 23 40  1  0
 23 41  1  0
 24 42  1  1
M  ISO  8  29  13  30  13  31  13  32  13  33  14  34   9  37  14  38  14
M  ISO  4  39  13  40  13  41  13  42  13
M  END
>  <minimizedAffinity>  (1) 
-4.66465855

>  <minimizedRMSD>  (1) 
0.60302186

$$$$
