
     RDKit          3D

 41 45  0  0  1  0  0  0  0  0999 V2000
   45.9120   25.1400   37.3790 C   0  0  1  0  0  0  0  0  0  0  0  0
   47.0050   24.7200   38.2150 C   0  0  0  0  0  0  0  0  0  0  0  0
   47.3360   25.0010   36.7740 C   0  0  2  0  0  0  0  0  0  0  0  0
   48.0900   26.2200   36.5360 N   0  0  0  0  0  0  0  0  0  0  0  0
   49.2760   26.6730   37.0110 C   0  0  0  0  0  0  0  0  0  0  0  0
   49.5330   27.8910   36.4630 N   0  0  0  0  0  0  0  0  0  0  0  0
   48.4880   28.1940   35.6350 C   0  0  0  0  0  0  0  0  0  0  0  0
   48.2850   29.3100   34.8580 C   0  0  0  0  0  0  0  0  0  0  0  0
   49.1010   30.2710   34.8080 O   0  0  0  0  0  0  0  0  0  0  0  0
   47.1450   29.3330   34.1330 N   0  0  0  0  0  0  0  0  0  0  0  0
   46.2670   28.3320   34.1690 C   0  0  0  0  0  0  0  0  0  0  0  0
   45.0470   28.2650   33.4470 N   0  0  0  0  0  0  0  0  0  0  0  0
   46.4770   27.2770   34.9140 N   0  0  0  0  0  0  0  0  0  0  0  0
   47.5950   27.1440   35.6890 C   0  0  0  0  0  0  0  0  0  0  0  0
   45.0520   24.0860   36.9090 O   0  0  0  0  0  0  0  0  0  0  0  0
   41.6680   23.3910   35.9930 C   0  0  0  0  0  0  0  0  0  0  0  0
   42.9500   23.2770   36.5590 C   0  0  0  0  0  0  0  0  0  0  0  0
   43.8430   24.3200   36.3070 C   0  0  0  0  0  0  0  0  0  0  0  0
   43.4690   25.3890   35.5470 N   0  0  0  0  0  0  0  0  0  0  0  0
   42.2480   25.4510   35.0340 C   0  0  0  0  0  0  0  0  0  0  0  0
   41.3340   24.4720   35.2410 N   0  0  0  0  0  0  0  0  0  0  0  0
   41.6340   26.5270   34.2110 C   0  0  1  0  0  0  0  0  0  0  0  0
   41.9860   26.4570   32.6760 C   0  0  0  0  0  0  0  0  0  0  0  0
   40.6110   26.2560   33.1760 C   0  0  2  0  0  0  0  0  0  0  0  0
   39.6130   27.2400   32.8600 N   0  0  0  0  0  0  0  0  0  0  0  0
   45.1495   25.9271   37.4744 H   0  0  0  0  0  0  0  0  0  0  0  0
   47.3781   25.3982   38.9965 H   0  0  0  0  0  0  0  0  0  0  0  0
   47.1640   23.8518   38.8714 H   0  0  0  0  0  0  0  0  0  0  0  0
   47.7810   24.4667   35.9217 H   0  0  0  0  0  0  0  0  0  0  0  0
   49.9247   26.1422   37.7234 H   0  0  0  0  0  0  0  0  0  0  0  0
   46.9492   30.1485   33.5350 H   0  0  0  0  0  0  0  0  0  0  0  0
   44.4351   27.4423   33.5450 H   0  0  0  0  0  0  0  0  0  0  0  0
   44.7735   29.0391   32.8250 H   0  0  0  0  0  0  0  0  0  0  0  0
   40.9269   22.5957   36.1610 H   0  0  0  0  0  0  0  0  0  0  0  0
   43.2354   22.4083   37.1705 H   0  0  0  0  0  0  0  0  0  0  0  0
   41.6751   27.2386   35.0488 H   0  0  0  0  0  0  0  0  0  0  0  0
   42.5613   25.6091   32.2759 H   0  0  0  0  0  0  0  0  0  0  0  0
   42.4719   27.1209   31.9459 H   0  0  0  0  0  0  0  0  0  0  0  0
   39.8685   25.4522   33.0634 H   0  0  0  0  0  0  0  0  0  0  0  0
   39.2224   27.6251   33.7318 H   0  0  0  0  0  0  0  0  0  0  0  0
   40.0410   27.9990   32.3108 H   0  0  0  0  0  0  0  0  0  0  0  0
  1  2  1  0
  3  1  1  0
  3  2  1  0
  4  3  1  0
  4  5  1  0
  6  5  2  0
  7 14  2  0
  7  6  1  0
  8  7  1  0
  9  8  2  0
 10 11  1  0
 10  8  1  0
 11 13  2  0
 12 11  1  0
 13 14  1  0
 14  4  1  0
 15  1  1  0
 16 17  2  0
 18 17  1  0
 18 15  1  0
 19 18  2  0
 20 21  2  0
 20 19  1  0
 21 16  1  0
 22 20  1  0
 23 24  1  0
 23 22  1  0
 24 22  1  0
 25 24  1  0
  1 26  1  1
  2 27  1  0
  2 28  1  0
  3 29  1  6
  5 30  1  0
 10 31  1  0
 12 32  1  0
 12 33  1  0
 16 34  1  0
 17 35  1  0
 22 36  1  1
 23 37  1  0
 23 38  1  0
 24 39  1  1
 25 40  1  0
 25 41  1  0
M  ISO  8  26  13  27  13  28  13  29  13  30  14  31   9  34  14  35  14
M  ISO  6  36  13  37  13  38  13  39  13  40   5  41   5
M  END
>  <minimizedAffinity>  (1) 
-4.55895281

>  <minimizedRMSD>  (1) 
0.373728842

$$$$
