
     RDKit          3D

 17 18  0  0  0  0  0  0  0  0999 V2000
   39.5040   23.6840   35.7900 C   0  0  0  0  0  0  0  0  0  0  0  0
   39.8990   22.9280   36.9080 C   0  0  0  0  0  0  0  0  0  0  0  0
   39.2210   23.1090   38.1110 C   0  0  0  0  0  0  0  0  0  0  0  0
   38.1990   24.0200   38.1330 N   0  0  0  0  0  0  0  0  0  0  0  0
   37.8440   24.7320   37.0340 C   0  0  0  0  0  0  0  0  0  0  0  0
   38.4970   24.5580   35.8770 N   0  0  0  0  0  0  0  0  0  0  0  0
   40.9840   21.9830   36.8250 C   0  0  0  0  0  0  0  0  0  0  0  0
   41.7270   21.7150   35.6890 C   0  0  0  0  0  0  0  0  0  0  0  0
   42.6400   20.7510   36.0940 C   0  0  0  0  0  0  0  0  0  0  0  0
   42.4620   20.4480   37.4110 N   0  0  0  0  0  0  0  0  0  0  0  0
   41.4560   21.2160   37.7960 N   0  0  0  0  0  0  0  0  0  0  0  0
   40.0301   23.5544   34.8327 H   0  0  0  0  0  0  0  0  0  0  0  0
   39.4967   22.5404   39.0114 H   0  0  0  0  0  0  0  0  0  0  0  0
   37.0170   25.4549   37.0930 H   0  0  0  0  0  0  0  0  0  0  0  0
   41.6187   22.1642   34.6908 H   0  0  0  0  0  0  0  0  0  0  0  0
   43.4008   20.2953   35.4431 H   0  0  0  0  0  0  0  0  0  0  0  0
   42.9922   19.7722   37.9794 H   0  0  0  0  0  0  0  0  0  0  0  0
  1  6  2  0
  1  2  1  0
  2  3  2  0
  3  4  1  0
  5  4  2  0
  6  5  1  0
  7  2  1  0
  7 11  2  0
  8  9  2  0
  8  7  1  0
  9 10  1  0
 10 11  1  0
  1 12  1  0
  3 13  1  0
  5 14  1  0
  8 15  1  0
  9 16  1  0
 10 17  1  0
M  ISO  6  12  14  13  14  14  14  15  14  16  14  17   9
M  END
>  <minimizedAffinity>  (1) 
-3.27394199

>  <minimizedRMSD>  (1) 
4.23463154

$$$$
