
     RDKit          3D

 30 32  0  0  0  0  0  0  0  0999 V2000
   40.6910   22.8410   36.5750 C   0  0  0  0  0  0  0  0  0  0  0  0
   39.7340   22.7770   37.5640 C   0  0  0  0  0  0  0  0  0  0  0  0
   38.8250   23.7690   37.2680 C   0  0  0  0  0  0  0  0  0  0  0  0
   39.2080   24.4180   36.1430 N   0  0  0  0  0  0  0  0  0  0  0  0
   40.3200   23.8200   35.7790 N   0  0  0  0  0  0  0  0  0  0  0  0
   42.0120   20.8840   37.3380 C   0  0  0  0  0  0  0  0  0  0  0  0
   41.8450   21.9760   36.4850 C   0  0  0  0  0  0  0  0  0  0  0  0
   42.8160   22.2500   35.5140 C   0  0  0  0  0  0  0  0  0  0  0  0
   43.8920   21.4040   35.4660 N   0  0  0  0  0  0  0  0  0  0  0  0
   44.0230   20.3520   36.3090 C   0  0  0  0  0  0  0  0  0  0  0  0
   43.0820   20.0970   37.2420 N   0  0  0  0  0  0  0  0  0  0  0  0
   37.0350   27.5300   34.2590 C   0  0  0  0  0  0  0  0  0  0  0  0
   37.1200   26.2670   33.6810 C   0  0  0  0  0  0  0  0  0  0  0  0
   37.8390   25.3050   34.3430 C   0  0  0  0  0  0  0  0  0  0  0  0
   38.5000   25.4880   35.5620 C   0  0  0  0  0  0  0  0  0  0  0  0
   38.3890   26.7510   36.0960 C   0  0  0  0  0  0  0  0  0  0  0  0
   37.6740   27.7540   35.4650 C   0  0  0  0  0  0  0  0  0  0  0  0
   36.1060   28.7060   33.3650 S   0  0  0  0  0  0  0  0  0  0  0  0
   34.9910   29.2880   34.1730 O   0  0  0  0  0  0  0  0  0  0  0  0
   35.4600   28.0330   32.1620 O   0  0  0  0  0  0  0  0  0  0  0  0
   39.7023   22.0789   38.4135 H   0  0  0  0  0  0  0  0  0  0  0  0
   37.9245   23.9990   37.8564 H   0  0  0  0  0  0  0  0  0  0  0  0
   41.2487   20.6703   38.1007 H   0  0  0  0  0  0  0  0  0  0  0  0
   42.7195   23.1017   34.8246 H   0  0  0  0  0  0  0  0  0  0  0  0
   44.9050   19.6992   36.2324 H   0  0  0  0  0  0  0  0  0  0  0  0
   36.6259   26.0472   32.7231 H   0  0  0  0  0  0  0  0  0  0  0  0
   37.9008   24.3099   33.8782 H   0  0  0  0  0  0  0  0  0  0  0  0
   38.8836   26.9704   37.0537 H   0  0  0  0  0  0  0  0  0  0  0  0
   37.6128   28.7483   35.9315 H   0  0  0  0  0  0  0  0  0  0  0  0
   36.9782   29.6996   33.0060 H   0  0  0  0  0  0  0  0  0  0  0  0
  1  2  1  0
  3  2  2  0
  4  3  1  0
  5  4  1  0
  5  1  2  0
  7  1  1  0
  7  6  2  0
  8  7  1  0
  9  8  2  0
  9 10  1  0
 10 11  2  0
 11  6  1  0
 12 17  2  0
 13 12  1  0
 13 14  2  0
 14 15  1  0
 15 16  2  0
 15  4  1  0
 17 16  1  0
 18 19  2  0
 18 12  1  0
 20 18  2  0
  2 21  1  0
  3 22  1  0
  6 23  1  0
  8 24  1  0
 10 25  1  0
 13 26  1  0
 14 27  1  0
 16 28  1  0
 17 29  1  0
 18 30  1  0
M  ISO  8  21  14  22  14  23  14  24  14  25  14  26  14  27  14  28  14
M  ISO  2  29  14  30  11
M  END
>  <minimizedAffinity>  (1) 
-4.75281572

>  <minimizedRMSD>  (1) 
9.91542721

$$$$
