
     RDKit          3D

 24 26  0  0  0  0  0  0  0  0999 V2000
   41.1990   22.6000   36.7020 C   0  0  0  0  0  0  0  0  0  0  0  0
   41.9200   21.4290   36.4720 C   0  0  0  0  0  0  0  0  0  0  0  0
   43.2410   21.8260   36.4260 C   0  0  0  0  0  0  0  0  0  0  0  0
   43.3190   23.1730   36.6180 N   0  0  0  0  0  0  0  0  0  0  0  0
   42.0750   23.5850   36.7770 N   0  0  0  0  0  0  0  0  0  0  0  0
   39.1340   23.1790   37.9660 C   0  0  0  0  0  0  0  0  0  0  0  0
   39.7720   22.6620   36.8250 C   0  0  0  0  0  0  0  0  0  0  0  0
   38.9720   22.1980   35.7810 C   0  0  0  0  0  0  0  0  0  0  0  0
   37.6100   22.2790   35.9460 N   0  0  0  0  0  0  0  0  0  0  0  0
   37.0410   22.7850   37.0650 C   0  0  0  0  0  0  0  0  0  0  0  0
   37.8100   23.2270   38.0580 N   0  0  0  0  0  0  0  0  0  0  0  0
   44.4970   23.9390   36.6370 C   0  0  0  0  0  0  0  0  0  0  0  0
   44.8080   25.0210   37.5120 C   0  0  0  0  0  0  0  0  0  0  0  0
   46.0100   25.6240   37.3540 C   0  0  0  0  0  0  0  0  0  0  0  0
   46.9010   25.2030   36.3770 C   0  0  0  0  0  0  0  0  0  0  0  0
   45.9810   23.7930   35.5590 S   0  0  0  0  0  0  0  0  0  0  0  0
   41.5224   20.4103   36.3531 H   0  0  0  0  0  0  0  0  0  0  0  0
   44.0990   21.1579   36.2599 H   0  0  0  0  0  0  0  0  0  0  0  0
   39.7450   23.5521   38.8012 H   0  0  0  0  0  0  0  0  0  0  0  0
   39.4134   21.7839   34.8625 H   0  0  0  0  0  0  0  0  0  0  0  0
   35.9456   22.8310   37.1539 H   0  0  0  0  0  0  0  0  0  0  0  0
   44.0993   25.3528   38.2850 H   0  0  0  0  0  0  0  0  0  0  0  0
   46.2849   26.4620   38.0114 H   0  0  0  0  0  0  0  0  0  0  0  0
   47.8998   25.5994   36.1417 H   0  0  0  0  0  0  0  0  0  0  0  0
  1  5  2  0
  1  7  1  0
  2  1  1  0
  3  2  2  0
  3  4  1  0
  4 12  1  0
  4  5  1  0
  6 11  2  0
  7  6  1  0
  8  9  1  0
  8  7  2  0
  9 10  2  0
 10 11  1  0
 12 13  2  0
 14 13  1  0
 15 14  2  0
 16 15  1  0
 16 12  1  0
  2 17  1  0
  3 18  1  0
  6 19  1  0
  8 20  1  0
 10 21  1  0
 13 22  1  0
 14 23  1  0
 15 24  1  0
M  ISO  8  17  14  18  14  19  14  20  14  21  14  22  14  23  14  24  14
M  END
>  <minimizedAffinity>  (1) 
-4.04745626

>  <minimizedRMSD>  (1) 
4.20478439

$$$$
