
     RDKit          3D

 29 30  0  0  0  0  0  0  0  0999 V2000
   38.1310   22.9680   34.6290 C   0  0  0  0  0  0  0  0  0  0  0  0
   39.0750   22.8030   35.6160 C   0  0  0  0  0  0  0  0  0  0  0  0
   39.6160   24.0580   35.8090 C   0  0  0  0  0  0  0  0  0  0  0  0
   39.0330   24.9600   34.9790 N   0  0  0  0  0  0  0  0  0  0  0  0
   38.1440   24.2570   34.2860 N   0  0  0  0  0  0  0  0  0  0  0  0
   37.4170   21.5360   32.7460 C   0  0  0  0  0  0  0  0  0  0  0  0
   37.2950   21.9360   34.0790 C   0  0  0  0  0  0  0  0  0  0  0  0
   36.3410   21.3180   34.8900 C   0  0  0  0  0  0  0  0  0  0  0  0
   35.5650   20.3380   34.3240 N   0  0  0  0  0  0  0  0  0  0  0  0
   35.7160   19.9810   33.0290 C   0  0  0  0  0  0  0  0  0  0  0  0
   36.6310   20.5730   32.2490 N   0  0  0  0  0  0  0  0  0  0  0  0
   39.2550   26.3680   34.8120 C   0  0  0  0  0  0  0  0  0  0  0  0
   38.6380   27.1400   35.9440 C   0  0  0  0  0  0  0  0  0  0  0  0
   40.7460   26.6760   34.6900 C   0  0  0  0  0  0  0  0  0  0  0  0
   38.6570   26.7540   33.4680 C   0  0  0  0  0  0  0  0  0  0  0  0
   39.3411   21.8722   36.1384 H   0  0  0  0  0  0  0  0  0  0  0  0
   40.4088   24.2942   36.5341 H   0  0  0  0  0  0  0  0  0  0  0  0
   38.1656   22.0166   32.0990 H   0  0  0  0  0  0  0  0  0  0  0  0
   36.2161   21.6062   35.9442 H   0  0  0  0  0  0  0  0  0  0  0  0
   35.0768   19.1909   32.6081 H   0  0  0  0  0  0  0  0  0  0  0  0
   38.9752   26.7181   36.9023 H   0  0  0  0  0  0  0  0  0  0  0  0
   38.9452   28.1943   35.8792 H   0  0  0  0  0  0  0  0  0  0  0  0
   37.5420   27.0728   35.8792 H   0  0  0  0  0  0  0  0  0  0  0  0
   41.1851   26.7667   35.6945 H   0  0  0  0  0  0  0  0  0  0  0  0
   41.2451   25.8620   34.1438 H   0  0  0  0  0  0  0  0  0  0  0  0
   40.8817   27.6211   34.1438 H   0  0  0  0  0  0  0  0  0  0  0  0
   37.7428   27.3441   33.6293 H   0  0  0  0  0  0  0  0  0  0  0  0
   39.3849   27.3531   32.9013 H   0  0  0  0  0  0  0  0  0  0  0  0
   38.4108   25.8439   32.9013 H   0  0  0  0  0  0  0  0  0  0  0  0
  1  2  1  0
  2  3  2  0
  4  3  1  0
  5  1  2  0
  5  4  1  0
  6  7  2  0
  7  1  1  0
  7  8  1  0
  9  8  2  0
 10  9  1  0
 11  6  1  0
 11 10  2  0
 12  4  1  0
 12 13  1  0
 14 12  1  0
 15 12  1  0
  2 16  1  0
  3 17  1  0
  6 18  1  0
  8 19  1  0
 10 20  1  0
 13 21  1  0
 13 22  1  0
 13 23  1  0
 14 24  1  0
 14 25  1  0
 14 26  1  0
 15 27  1  0
 15 28  1  0
 15 29  1  0
M  ISO  8  16  14  17  14  18  14  19  14  20  14  21   8  22   8  23   8
M  ISO  6  24   8  25   8  26   8  27   8  28   8  29   8
M  END
>  <minimizedAffinity>  (1) 
-3.80511427

>  <minimizedRMSD>  (1) 
6.46941805

$$$$
