
     RDKit          3D

 13 13  0  0  0  0  0  0  0  0999 V2000
   39.9810   22.6780   37.6120 C   0  0  0  0  0  0  0  0  0  0  0  0
   39.0440   23.2690   38.4710 C   0  0  0  0  0  0  0  0  0  0  0  0
   37.7450   23.4260   37.9910 C   0  0  0  0  0  0  0  0  0  0  0  0
   37.4560   23.0030   36.7320 N   0  0  0  0  0  0  0  0  0  0  0  0
   38.3830   22.4400   35.9360 C   0  0  0  0  0  0  0  0  0  0  0  0
   39.6570   22.2750   36.3760 N   0  0  0  0  0  0  0  0  0  0  0  0
   37.8250   22.0630   34.6090 C   0  0  0  0  0  0  0  0  0  0  0  0
   36.6790   21.2920   34.7470 F   0  0  0  0  0  0  0  0  0  0  0  0
   38.7460   21.3430   33.8700 F   0  0  0  0  0  0  0  0  0  0  0  0
   37.5410   23.2120   33.8800 F   0  0  0  0  0  0  0  0  0  0  0  0
   41.0142   22.5409   37.9636 H   0  0  0  0  0  0  0  0  0  0  0  0
   39.3229   23.5958   39.4836 H   0  0  0  0  0  0  0  0  0  0  0  0
   36.9674   23.8841   38.6199 H   0  0  0  0  0  0  0  0  0  0  0  0
  1  2  2  0
  3  2  1  0
  4  3  2  0
  5  6  2  0
  5  4  1  0
  6  1  1  0
  7  8  1  0
  7  5  1  0
  9  7  1  0
 10  7  1  0
  1 11  1  0
  2 12  1  0
  3 13  1  0
M  ISO  3  11  14  12  14  13  14
M  END
>  <minimizedAffinity>  (1) 
-3.24671745

>  <minimizedRMSD>  (1) 
0.473110825

$$$$
