
     RDKit          3D

 17 17  0  0  0  0  0  0  0  0999 V2000
   40.2670   23.0660   36.6830 C   0  0  0  0  0  0  0  0  0  0  0  0
   39.9030   22.7950   38.0150 C   0  0  0  0  0  0  0  0  0  0  0  0
   38.7380   23.4270   38.5260 C   0  0  0  0  0  0  0  0  0  0  0  0
   38.0550   24.2630   37.6630 N   0  0  0  0  0  0  0  0  0  0  0  0
   38.4530   24.4790   36.4060 C   0  0  0  0  0  0  0  0  0  0  0  0
   39.5400   23.8950   35.9150 N   0  0  0  0  0  0  0  0  0  0  0  0
   37.5990   25.4140   35.5960 C   0  0  0  0  0  0  0  0  0  0  0  0
   38.1010   26.8190   35.7260 C   0  0  0  0  0  0  0  0  0  0  0  0
   37.0340   27.8740   34.6720 S   0  0  0  0  0  0  0  0  0  0  0  0
   41.1647   22.5896   36.2620 H   0  0  0  0  0  0  0  0  0  0  0  0
   40.5012   22.1158   38.6402 H   0  0  0  0  0  0  0  0  0  0  0  0
   38.3962   23.2593   39.5580 H   0  0  0  0  0  0  0  0  0  0  0  0
   36.5616   25.3641   35.9584 H   0  0  0  0  0  0  0  0  0  0  0  0
   37.6430   25.1142   34.5386 H   0  0  0  0  0  0  0  0  0  0  0  0
   38.0376   27.1466   36.7742 H   0  0  0  0  0  0  0  0  0  0  0  0
   39.1528   26.8891   35.4117 H   0  0  0  0  0  0  0  0  0  0  0  0
   36.2403   28.6587   35.4665 H   0  0  0  0  0  0  0  0  0  0  0  0
  1  2  2  0
  2  3  1  0
  4  3  2  0
  5  4  1  0
  6  5  2  0
  6  1  1  0
  7  8  1  0
  7  5  1  0
  9  8  1  0
  1 10  1  0
  2 11  1  0
  3 12  1  0
  7 13  1  0
  7 14  1  0
  8 15  1  0
  8 16  1  0
  9 17  1  0
M  ISO  8  10  14  11  14  12  14  13   8  14   8  15   8  16   8  17  11
M  END
>  <minimizedAffinity>  (1) 
-2.77938199

>  <minimizedRMSD>  (1) 
0.385835588

$$$$
