
     RDKit          3D

 23 25  0  0  0  0  0  0  0  0999 V2000
   41.3480   22.4450   36.7450 C   0  0  0  0  0  0  0  0  0  0  0  0
   42.4820   23.1370   36.3970 C   0  0  0  0  0  0  0  0  0  0  0  0
   43.4940   22.1990   36.3690 C   0  0  0  0  0  0  0  0  0  0  0  0
   42.9900   20.9860   36.6890 N   0  0  0  0  0  0  0  0  0  0  0  0
   41.7020   21.1760   36.9080 N   0  0  0  0  0  0  0  0  0  0  0  0
   39.3590   23.6170   35.8220 C   0  0  0  0  0  0  0  0  0  0  0  0
   40.0310   23.0190   36.8990 C   0  0  0  0  0  0  0  0  0  0  0  0
   39.4090   22.9790   38.1480 C   0  0  0  0  0  0  0  0  0  0  0  0
   38.1650   23.5350   38.2390 N   0  0  0  0  0  0  0  0  0  0  0  0
   37.5440   24.1040   37.1800 C   0  0  0  0  0  0  0  0  0  0  0  0
   38.1470   24.1410   35.9800 N   0  0  0  0  0  0  0  0  0  0  0  0
   43.6640   19.7090   36.7900 C   0  0  0  0  0  0  0  0  0  0  0  0
   45.0210   19.4830   36.6360 C   0  0  0  0  0  0  0  0  0  0  0  0
   45.1410   17.6790   36.8940 S   0  0  0  0  0  0  0  0  0  0  0  0
   43.2660   17.5460   37.1740 C   0  0  0  0  0  0  0  0  0  0  0  0
   42.9090   18.6620   37.0530 N   0  0  0  0  0  0  0  0  0  0  0  0
   42.5661   24.2131   36.1850 H   0  0  0  0  0  0  0  0  0  0  0  0
   44.5463   22.4060   36.1245 H   0  0  0  0  0  0  0  0  0  0  0  0
   39.8411   23.6528   34.8339 H   0  0  0  0  0  0  0  0  0  0  0  0
   39.8988   22.5203   39.0196 H   0  0  0  0  0  0  0  0  0  0  0  0
   36.5408   24.5383   37.3022 H   0  0  0  0  0  0  0  0  0  0  0  0
   45.8213   20.2045   36.4150 H   0  0  0  0  0  0  0  0  0  0  0  0
   42.6649   16.6514   37.3939 H   0  0  0  0  0  0  0  0  0  0  0  0
  1  7  1  0
  1  5  2  0
  2  1  1  0
  3  2  2  0
  3  4  1  0
  4 12  1  0
  4  5  1  0
  6 11  2  0
  6  7  1  0
  7  8  2  0
  8  9  1  0
 10  9  2  0
 11 10  1  0
 12 16  1  0
 13 12  2  0
 13 14  1  0
 14 15  1  0
 16 15  2  0
  2 17  1  0
  3 18  1  0
  6 19  1  0
  8 20  1  0
 10 21  1  0
 13 22  1  0
 15 23  1  0
M  ISO  7  17  14  18  14  19  14  20  14  21  14  22  14  23  14
M  END
>  <minimizedAffinity>  (1) 
-3.77408814

>  <minimizedRMSD>  (1) 
1.42722845

$$$$
