
     RDKit          3D

 23 24  0  0  0  0  0  0  0  0999 V2000
   38.1870   24.4590   35.1520 C   0  0  0  0  0  0  0  0  0  0  0  0
   38.1380   23.1570   34.7120 C   0  0  0  0  0  0  0  0  0  0  0  0
   38.7820   22.4080   35.6740 C   0  0  0  0  0  0  0  0  0  0  0  0
   39.2070   23.2280   36.6630 N   0  0  0  0  0  0  0  0  0  0  0  0
   38.8290   24.4340   36.3030 N   0  0  0  0  0  0  0  0  0  0  0  0
   37.3410   25.5550   33.1020 C   0  0  0  0  0  0  0  0  0  0  0  0
   37.6430   25.6050   34.4760 C   0  0  0  0  0  0  0  0  0  0  0  0
   37.4040   26.7850   35.1720 C   0  0  0  0  0  0  0  0  0  0  0  0
   36.8850   27.8360   34.4650 N   0  0  0  0  0  0  0  0  0  0  0  0
   36.6080   27.7510   33.1500 C   0  0  0  0  0  0  0  0  0  0  0  0
   36.8360   26.6160   32.4770 N   0  0  0  0  0  0  0  0  0  0  0  0
   39.9140   22.7390   37.8090 C   0  0  0  0  0  0  0  0  0  0  0  0
   41.0450   21.8320   37.4380 C   0  0  0  0  0  0  0  0  0  0  0  0
   37.6790   22.7885   33.7828 H   0  0  0  0  0  0  0  0  0  0  0  0
   38.9271   21.3181   35.6425 H   0  0  0  0  0  0  0  0  0  0  0  0
   37.5245   24.6284   32.5384 H   0  0  0  0  0  0  0  0  0  0  0  0
   37.6230   26.8703   36.2466 H   0  0  0  0  0  0  0  0  0  0  0  0
   36.1905   28.6220   32.6237 H   0  0  0  0  0  0  0  0  0  0  0  0
   40.3176   23.5965   38.3674 H   0  0  0  0  0  0  0  0  0  0  0  0
   39.2050   22.1588   38.4178 H   0  0  0  0  0  0  0  0  0  0  0  0
   41.5227   21.4489   38.3518 H   0  0  0  0  0  0  0  0  0  0  0  0
   40.6599   20.9895   36.8447 H   0  0  0  0  0  0  0  0  0  0  0  0
   41.7837   22.3909   36.8447 H   0  0  0  0  0  0  0  0  0  0  0  0
  1  5  2  0
  2  1  1  0
  2  3  2  0
  3  4  1  0
  4 12  1  0
  5  4  1  0
  6  7  2  0
  7  1  1  0
  7  8  1  0
  9  8  2  0
 10  9  1  0
 11  6  1  0
 11 10  2  0
 13 12  1  0
  2 14  1  0
  3 15  1  0
  6 16  1  0
  8 17  1  0
 10 18  1  0
 12 19  1  0
 12 20  1  0
 13 21  1  0
 13 22  1  0
 13 23  1  0
M  ISO  8  14  14  15  14  16  14  17  14  18  14  19   8  20   8  21   8
M  ISO  2  22   8  23   8
M  END
>  <minimizedAffinity>  (1) 
-3.66739655

>  <minimizedRMSD>  (1) 
4.45977306

$$$$
