
     RDKit          3D

 44 48  0  0  1  0  0  0  0  0999 V2000
   44.7270   24.8040   37.1530 C   0  0  0  0  0  0  0  0  0  0  0  0
   44.6680   25.5000   38.3250 C   0  0  0  0  0  0  0  0  0  0  0  0
   45.7550   25.6380   39.1710 C   0  0  0  0  0  0  0  0  0  0  0  0
   46.9150   25.0370   38.7790 C   0  0  0  0  0  0  0  0  0  0  0  0
   46.9930   24.3210   37.5900 C   0  0  0  0  0  0  0  0  0  0  0  0
   45.8920   24.2250   36.8050 N   0  0  0  0  0  0  0  0  0  0  0  0
   48.1780   23.7780   36.9650 C   0  0  0  0  0  0  0  0  0  0  0  0
   49.1820   23.3170   36.4350 N   0  0  0  0  0  0  0  0  0  0  0  0
   50.1360   22.7390   35.9250 C   0  0  0  0  0  0  0  0  0  0  0  0
   50.7550   23.8890   35.6530 N   0  0  0  0  0  0  0  0  0  0  0  0
   50.1520   25.0610   36.0080 C   0  0  0  0  0  0  0  0  0  0  0  0
   50.9410   26.2140   35.7240 C   0  0  0  0  0  0  0  0  0  0  0  0
   50.4230   27.4090   36.1270 C   0  0  0  0  0  0  0  0  0  0  0  0
   49.2230   27.6060   36.7780 C   0  0  0  0  0  0  0  0  0  0  0  0
   48.5940   26.3850   36.9690 C   0  0  0  0  0  0  0  0  0  0  0  0
   48.8850   25.0100   36.6570 C   0  0  0  0  0  0  0  0  0  0  0  0
   41.7430   23.9590   35.3890 C   0  0  0  0  0  0  0  0  0  0  0  0
   42.3520   24.6900   34.4070 C   0  0  0  0  0  0  0  0  0  0  0  0
   43.5490   25.0940   34.9640 C   0  0  0  0  0  0  0  0  0  0  0  0
   43.6630   24.6260   36.2390 N   0  0  0  0  0  0  0  0  0  0  0  0
   42.5580   23.9550   36.4430 N   0  0  0  0  0  0  0  0  0  0  0  0
   40.1190   22.5200   34.1780 C   0  0  0  0  0  0  0  0  0  0  0  0
   40.4580   23.3170   35.2880 C   0  0  0  0  0  0  0  0  0  0  0  0
   39.5320   23.4760   36.2910 C   0  0  0  0  0  0  0  0  0  0  0  0
   38.3260   22.8460   36.1480 N   0  0  0  0  0  0  0  0  0  0  0  0
   38.0310   22.0830   35.0610 C   0  0  0  0  0  0  0  0  0  0  0  0
   38.9350   21.9290   34.0830 N   0  0  0  0  0  0  0  0  0  0  0  0
   43.7160   25.9717   38.6099 H   0  0  0  0  0  0  0  0  0  0  0  0
   45.6867   26.2038   40.1119 H   0  0  0  0  0  0  0  0  0  0  0  0
   47.8072   25.1206   39.4169 H   0  0  0  0  0  0  0  0  0  0  0  0
   48.4646   23.3075   37.9171 H   0  0  0  0  0  0  0  0  0  0  0  0
   49.0372   23.8892   35.5909 H   0  0  0  0  0  0  0  0  0  0  0  0
   50.6884   22.0972   36.6271 H   0  0  0  0  0  0  0  0  0  0  0  0
   49.9557   22.0212   35.1112 H   0  0  0  0  0  0  0  0  0  0  0  0
   51.6717   23.8925   35.1834 H   0  0  0  0  0  0  0  0  0  0  0  0
   51.9109   26.1436   35.2098 H   0  0  0  0  0  0  0  0  0  0  0  0
   51.0221   28.3060   35.9114 H   0  0  0  0  0  0  0  0  0  0  0  0
   48.8262   28.5812   37.0965 H   0  0  0  0  0  0  0  0  0  0  0  0
   47.6311   26.4945   37.4895 H   0  0  0  0  0  0  0  0  0  0  0  0
   41.9727   24.9078   33.3977 H   0  0  0  0  0  0  0  0  0  0  0  0
   44.3044   25.7073   34.4509 H   0  0  0  0  0  0  0  0  0  0  0  0
   40.8533   22.3841   33.3703 H   0  0  0  0  0  0  0  0  0  0  0  0
   39.7528   24.0884   37.1777 H   0  0  0  0  0  0  0  0  0  0  0  0
   37.0497   21.5919   34.9844 H   0  0  0  0  0  0  0  0  0  0  0  0
  1  2  2  0
  2  3  1  0
  4  3  2  0
  5  4  1  0
  6  1  1  0
  6  5  2  0
  7  5  1  0
  8  7  1  0
  9  8  1  0
 10  9  1  0
 10 11  1  0
 11 16  2  0
 12 11  1  0
 12 13  2  0
 13 14  1  0
 14 15  2  0
 16  7  1  0
 16 15  1  0
 17 21  2  0
 18 19  2  0
 18 17  1  0
 19 20  1  0
 20 21  1  0
 20  1  1  0
 22 23  2  0
 23 17  1  0
 23 24  1  0
 25 24  2  0
 26 25  1  0
 27 22  1  0
 27 26  2  0
  2 28  1  0
  3 29  1  0
  4 30  1  0
  7 31  1  0
  8 32  1  0
  9 33  1  0
  9 34  1  0
 10 35  1  0
 12 36  1  0
 13 37  1  0
 14 38  1  0
 15 39  1  0
 18 40  1  0
 19 41  1  0
 22 42  1  0
 24 43  1  0
 26 44  1  0
M  ISO  8  28  14  29  14  30  14  31  13  32   5  33  13  34  13  36  14
M  ISO  8  37  14  38  14  39  14  40  14  41  14  42  14  43  14  44  14
M  END
>  <minimizedAffinity>  (1) 
-5.23565483

>  <minimizedRMSD>  (1) 
3.12162066

$$$$
