
     RDKit          3D

 37 41  0  0  0  0  0  0  0  0999 V2000
   44.6860   24.8580   37.1650 C   0  0  0  0  0  0  0  0  0  0  0  0
   44.6620   25.7130   38.2450 C   0  0  0  0  0  0  0  0  0  0  0  0
   45.8000   25.7840   39.0470 C   0  0  0  0  0  0  0  0  0  0  0  0
   46.9030   25.0140   38.7540 C   0  0  0  0  0  0  0  0  0  0  0  0
   46.9090   24.1660   37.6720 C   0  0  0  0  0  0  0  0  0  0  0  0
   45.7960   24.1020   36.8940 N   0  0  0  0  0  0  0  0  0  0  0  0
   48.0150   23.3250   37.2920 N   0  0  0  0  0  0  0  0  0  0  0  0
   47.9740   22.2440   36.4900 C   0  0  0  0  0  0  0  0  0  0  0  0
   49.2410   21.7760   36.4150 N   0  0  0  0  0  0  0  0  0  0  0  0
   50.0700   22.5400   37.1500 C   0  0  0  0  0  0  0  0  0  0  0  0
   51.4210   22.5300   37.4290 C   0  0  0  0  0  0  0  0  0  0  0  0
   51.9390   23.4790   38.2340 N   0  0  0  0  0  0  0  0  0  0  0  0
   51.1740   24.4510   38.7840 C   0  0  0  0  0  0  0  0  0  0  0  0
   49.8370   24.4840   38.5250 N   0  0  0  0  0  0  0  0  0  0  0  0
   49.2760   23.5410   37.7160 C   0  0  0  0  0  0  0  0  0  0  0  0
   41.7020   23.9530   35.4050 C   0  0  0  0  0  0  0  0  0  0  0  0
   42.3000   24.6850   34.4140 C   0  0  0  0  0  0  0  0  0  0  0  0
   43.4920   25.1100   34.9630 C   0  0  0  0  0  0  0  0  0  0  0  0
   43.6190   24.6550   36.2390 N   0  0  0  0  0  0  0  0  0  0  0  0
   42.5260   23.9740   36.4500 N   0  0  0  0  0  0  0  0  0  0  0  0
   40.0770   22.5130   34.2060 C   0  0  0  0  0  0  0  0  0  0  0  0
   40.4290   23.3010   35.3050 C   0  0  0  0  0  0  0  0  0  0  0  0
   39.4980   23.4450   36.3330 C   0  0  0  0  0  0  0  0  0  0  0  0
   38.2990   22.8120   36.2090 N   0  0  0  0  0  0  0  0  0  0  0  0
   37.9980   22.0600   35.1270 C   0  0  0  0  0  0  0  0  0  0  0  0
   38.8950   21.9220   34.1390 N   0  0  0  0  0  0  0  0  0  0  0  0
   43.7725   26.3207   38.4675 H   0  0  0  0  0  0  0  0  0  0  0  0
   45.8167   26.4574   39.9167 H   0  0  0  0  0  0  0  0  0  0  0  0
   47.7939   25.0783   39.3960 H   0  0  0  0  0  0  0  0  0  0  0  0
   47.0862   21.8246   35.9941 H   0  0  0  0  0  0  0  0  0  0  0  0
   52.0704   21.7538   36.9980 H   0  0  0  0  0  0  0  0  0  0  0  0
   51.6296   25.2102   39.4367 H   0  0  0  0  0  0  0  0  0  0  0  0
   41.9151   24.8889   33.4039 H   0  0  0  0  0  0  0  0  0  0  0  0
   44.2361   25.7303   34.4419 H   0  0  0  0  0  0  0  0  0  0  0  0
   40.7946   22.3818   33.3827 H   0  0  0  0  0  0  0  0  0  0  0  0
   39.7261   24.0537   37.2204 H   0  0  0  0  0  0  0  0  0  0  0  0
   37.0196   21.5622   35.0567 H   0  0  0  0  0  0  0  0  0  0  0  0
  1  2  2  0
  2  3  1  0
  4  3  2  0
  5  4  1  0
  6  1  1  0
  6  5  2  0
  7  5  1  0
  7 15  1  0
  8  7  1  0
  9  8  2  0
  9 10  1  0
 10 11  2  0
 10 15  1  0
 11 12  1  0
 12 13  2  0
 14 13  1  0
 15 14  2  0
 16 20  2  0
 17 18  2  0
 17 16  1  0
 18 19  1  0
 19 20  1  0
 19  1  1  0
 21 22  2  0
 22 16  1  0
 22 23  1  0
 24 23  2  0
 25 24  1  0
 26 21  1  0
 26 25  2  0
  2 27  1  0
  3 28  1  0
  4 29  1  0
  8 30  1  0
 11 31  1  0
 13 32  1  0
 17 33  1  0
 18 34  1  0
 21 35  1  0
 23 36  1  0
 25 37  1  0
M  ISO  8  27  14  28  14  29  14  30  14  31  14  32  14  33  14  34  14
M  ISO  3  35  14  36  14  37  14
M  END
>  <minimizedAffinity>  (1) 
-5.13158083

>  <minimizedRMSD>  (1) 
0.514930308

$$$$
