
     RDKit          3D

 39 42  0  0  0  0  0  0  0  0999 V2000
   44.7110   24.9020   37.1450 C   0  0  0  0  0  0  0  0  0  0  0  0
   44.7020   25.6640   38.2930 C   0  0  0  0  0  0  0  0  0  0  0  0
   45.8650   25.6760   39.0780 C   0  0  0  0  0  0  0  0  0  0  0  0
   46.9660   24.9440   38.6920 C   0  0  0  0  0  0  0  0  0  0  0  0
   46.9510   24.1920   37.5410 C   0  0  0  0  0  0  0  0  0  0  0  0
   45.8100   24.1970   36.8000 N   0  0  0  0  0  0  0  0  0  0  0  0
   48.0600   23.4050   37.0790 N   0  0  0  0  0  0  0  0  0  0  0  0
   47.7240   22.2160   36.5440 C   0  0  0  0  0  0  0  0  0  0  0  0
   48.6590   21.3410   36.0530 C   0  0  0  0  0  0  0  0  0  0  0  0
   48.2810   20.0440   35.4700 C   0  0  0  0  0  0  0  0  0  0  0  0
   49.9760   21.7550   36.1420 C   0  0  0  0  0  0  0  0  0  0  0  0
   50.8870   20.9880   35.7050 O   0  0  0  0  0  0  0  0  0  0  0  0
   50.2770   22.9320   36.6750 N   0  0  0  0  0  0  0  0  0  0  0  0
   49.3640   23.8010   37.1600 C   0  0  0  0  0  0  0  0  0  0  0  0
   49.5730   24.9180   37.6720 O   0  0  0  0  0  0  0  0  0  0  0  0
   41.7120   24.0840   35.3950 C   0  0  0  0  0  0  0  0  0  0  0  0
   42.2160   24.9800   34.4840 C   0  0  0  0  0  0  0  0  0  0  0  0
   43.4120   25.3880   35.0510 C   0  0  0  0  0  0  0  0  0  0  0  0
   43.6220   24.7750   36.2380 N   0  0  0  0  0  0  0  0  0  0  0  0
   42.5660   24.0040   36.3900 N   0  0  0  0  0  0  0  0  0  0  0  0
   40.2090   22.5370   34.1700 C   0  0  0  0  0  0  0  0  0  0  0  0
   40.4650   23.3800   35.2450 C   0  0  0  0  0  0  0  0  0  0  0  0
   39.4680   23.5360   36.1950 C   0  0  0  0  0  0  0  0  0  0  0  0
   38.3000   22.8630   36.0350 N   0  0  0  0  0  0  0  0  0  0  0  0
   38.0870   22.0460   34.9690 C   0  0  0  0  0  0  0  0  0  0  0  0
   39.0450   21.8930   34.0490 N   0  0  0  0  0  0  0  0  0  0  0  0
   43.8133   26.2432   38.5842 H   0  0  0  0  0  0  0  0  0  0  0  0
   45.8974   26.2707   40.0028 H   0  0  0  0  0  0  0  0  0  0  0  0
   47.8724   24.9613   39.3149 H   0  0  0  0  0  0  0  0  0  0  0  0
   46.6611   21.9363   36.4991 H   0  0  0  0  0  0  0  0  0  0  0  0
   48.0718   19.3263   36.2769 H   0  0  0  0  0  0  0  0  0  0  0  0
   47.3820   20.1693   34.8486 H   0  0  0  0  0  0  0  0  0  0  0  0
   49.1066   19.6667   34.8486 H   0  0  0  0  0  0  0  0  0  0  0  0
   51.2704   23.2002   36.7219 H   0  0  0  0  0  0  0  0  0  0  0  0
   41.7737   25.2986   33.5286 H   0  0  0  0  0  0  0  0  0  0  0  0
   44.1005   26.1151   34.5957 H   0  0  0  0  0  0  0  0  0  0  0  0
   40.9829   22.3969   33.4010 H   0  0  0  0  0  0  0  0  0  0  0  0
   39.6205   24.1937   37.0635 H   0  0  0  0  0  0  0  0  0  0  0  0
   37.1304   21.5132   34.8640 H   0  0  0  0  0  0  0  0  0  0  0  0
  1  2  2  0
  2  3  1  0
  4  3  2  0
  5  4  1  0
  6  1  1  0
  6  5  2  0
  7 14  1  0
  7  5  1  0
  8  7  1  0
  9 11  1  0
  9  8  2  0
 10  9  1  0
 11 13  1  0
 12 11  2  0
 13 14  1  0
 14 15  2  0
 16 20  2  0
 17 18  2  0
 17 16  1  0
 18 19  1  0
 19 20  1  0
 19  1  1  0
 21 22  2  0
 22 16  1  0
 22 23  1  0
 24 23  2  0
 25 24  1  0
 26 21  1  0
 26 25  2  0
  2 27  1  0
  3 28  1  0
  4 29  1  0
  8 30  1  0
 10 31  1  0
 10 32  1  0
 10 33  1  0
 13 34  1  0
 17 35  1  0
 18 36  1  0
 21 37  1  0
 23 38  1  0
 25 39  1  0
M  ISO  8  27  14  28  14  29  14  30  14  31   8  32   8  33   8  34   9
M  ISO  5  35  14  36  14  37  14  38  14  39  14
M  END
>  <minimizedAffinity>  (1) 
-5.05373383

>  <minimizedRMSD>  (1) 
0.313208431

$$$$
