
     RDKit          3D

 36 39  0  0  0  0  0  0  0  0999 V2000
   44.7030   24.8710   37.1460 C   0  0  0  0  0  0  0  0  0  0  0  0
   44.6960   25.6800   38.2650 C   0  0  0  0  0  0  0  0  0  0  0  0
   45.8460   25.7240   39.0500 C   0  0  0  0  0  0  0  0  0  0  0  0
   46.9490   24.9580   38.6870 C   0  0  0  0  0  0  0  0  0  0  0  0
   46.9340   24.1600   37.5690 C   0  0  0  0  0  0  0  0  0  0  0  0
   45.8070   24.1300   36.8170 N   0  0  0  0  0  0  0  0  0  0  0  0
   48.0390   23.3600   37.1580 N   0  0  0  0  0  0  0  0  0  0  0  0
   47.8860   22.2210   36.4580 C   0  0  0  0  0  0  0  0  0  0  0  0
   48.9930   21.4850   36.0850 C   0  0  0  0  0  0  0  0  0  0  0  0
   50.2660   21.8780   36.4070 C   0  0  0  0  0  0  0  0  0  0  0  0
   51.3340   21.2810   36.1170 O   0  0  0  0  0  0  0  0  0  0  0  0
   50.3990   23.0210   37.1090 N   0  0  0  0  0  0  0  0  0  0  0  0
   49.2840   23.7100   37.4520 C   0  0  0  0  0  0  0  0  0  0  0  0
   49.4380   24.7870   38.1150 O   0  0  0  0  0  0  0  0  0  0  0  0
   41.6910   24.0110   35.4190 C   0  0  0  0  0  0  0  0  0  0  0  0
   42.2480   24.8030   34.4540 C   0  0  0  0  0  0  0  0  0  0  0  0
   43.4450   25.2160   34.9940 C   0  0  0  0  0  0  0  0  0  0  0  0
   43.6180   24.7050   36.2320 N   0  0  0  0  0  0  0  0  0  0  0  0
   42.5390   23.9920   36.4350 N   0  0  0  0  0  0  0  0  0  0  0  0
   40.0970   22.5270   34.2210 C   0  0  0  0  0  0  0  0  0  0  0  0
   40.4180   23.3380   35.3180 C   0  0  0  0  0  0  0  0  0  0  0  0
   39.4830   23.4830   36.3150 C   0  0  0  0  0  0  0  0  0  0  0  0
   38.2970   22.8270   36.1730 N   0  0  0  0  0  0  0  0  0  0  0  0
   38.0220   22.0600   35.1100 C   0  0  0  0  0  0  0  0  0  0  0  0
   38.9260   21.9160   34.1420 N   0  0  0  0  0  0  0  0  0  0  0  0
   43.8078   26.2728   38.5290 H   0  0  0  0  0  0  0  0  0  0  0  0
   45.8815   26.3582   39.9481 H   0  0  0  0  0  0  0  0  0  0  0  0
   47.8548   24.9921   39.3101 H   0  0  0  0  0  0  0  0  0  0  0  0
   46.8784   21.8761   36.1828 H   0  0  0  0  0  0  0  0  0  0  0  0
   48.8492   20.5565   35.5130 H   0  0  0  0  0  0  0  0  0  0  0  0
   51.3315   23.3644   37.3798 H   0  0  0  0  0  0  0  0  0  0  0  0
   41.8326   25.0541   33.4669 H   0  0  0  0  0  0  0  0  0  0  0  0
   44.1645   25.8743   34.4851 H   0  0  0  0  0  0  0  0  0  0  0  0
   40.8309   22.3962   33.4121 H   0  0  0  0  0  0  0  0  0  0  0  0
   39.6852   24.1075   37.1977 H   0  0  0  0  0  0  0  0  0  0  0  0
   37.0505   21.5494   35.0363 H   0  0  0  0  0  0  0  0  0  0  0  0
  1  2  2  0
  2  3  1  0
  4  3  2  0
  5  4  1  0
  6  1  1  0
  6  5  2  0
  7 13  1  0
  7  5  1  0
  8  7  1  0
  9 10  1  0
  9  8  2  0
 10 12  1  0
 11 10  2  0
 12 13  1  0
 13 14  2  0
 15 19  2  0
 16 17  2  0
 16 15  1  0
 17 18  1  0
 18 19  1  0
 18  1  1  0
 20 21  2  0
 21 15  1  0
 21 22  1  0
 23 22  2  0
 24 23  1  0
 25 20  1  0
 25 24  2  0
  2 26  1  0
  3 27  1  0
  4 28  1  0
  8 29  1  0
  9 30  1  0
 12 31  1  0
 16 32  1  0
 17 33  1  0
 20 34  1  0
 22 35  1  0
 24 36  1  0
M  ISO  8  26  14  27  14  28  14  29  14  30  14  31   9  32  14  33  14
M  ISO  3  34  14  35  14  36  14
M  END
>  <minimizedAffinity>  (1) 
-5.03409243

>  <minimizedRMSD>  (1) 
0.379549384

$$$$
