
     RDKit          3D

 33 35  0  0  0  0  0  0  0  0999 V2000
   44.7030   24.8520   37.1480 C   0  0  0  0  0  0  0  0  0  0  0  0
   44.6940   25.6490   38.2710 C   0  0  0  0  0  0  0  0  0  0  0  0
   45.8430   25.6940   39.0510 C   0  0  0  0  0  0  0  0  0  0  0  0
   46.9470   24.9550   38.6900 C   0  0  0  0  0  0  0  0  0  0  0  0
   46.9410   24.1650   37.5670 C   0  0  0  0  0  0  0  0  0  0  0  0
   45.8070   24.1410   36.8290 N   0  0  0  0  0  0  0  0  0  0  0  0
   48.0600   23.3650   37.1320 N   0  0  0  0  0  0  0  0  0  0  0  0
   49.1670   23.0850   38.0130 C   0  0  0  0  0  0  0  0  0  0  0  0
   49.3970   24.0440   38.8400 N   0  0  0  0  0  0  0  0  0  0  0  0
   49.7840   21.8010   37.7900 N   0  0  0  0  0  0  0  0  0  0  0  0
   50.1450   24.0580   39.5640 H   0  0  0  0  0  0  0  0  0  0  0  0
   41.6900   23.9940   35.4180 C   0  0  0  0  0  0  0  0  0  0  0  0
   42.2520   24.7860   34.4510 C   0  0  0  0  0  0  0  0  0  0  0  0
   43.4530   25.2010   34.9910 C   0  0  0  0  0  0  0  0  0  0  0  0
   43.6210   24.6850   36.2390 N   0  0  0  0  0  0  0  0  0  0  0  0
   42.5340   23.9680   36.4450 N   0  0  0  0  0  0  0  0  0  0  0  0
   40.0960   22.5250   34.2210 C   0  0  0  0  0  0  0  0  0  0  0  0
   40.4250   23.3290   35.3120 C   0  0  0  0  0  0  0  0  0  0  0  0
   39.4840   23.4850   36.3270 C   0  0  0  0  0  0  0  0  0  0  0  0
   38.2940   22.8270   36.1730 N   0  0  0  0  0  0  0  0  0  0  0  0
   38.0080   22.0620   35.1140 C   0  0  0  0  0  0  0  0  0  0  0  0
   38.9200   21.9150   34.1370 N   0  0  0  0  0  0  0  0  0  0  0  0
   43.8026   26.2334   38.5428 H   0  0  0  0  0  0  0  0  0  0  0  0
   45.8705   26.3192   39.9556 H   0  0  0  0  0  0  0  0  0  0  0  0
   47.8520   24.9983   39.3137 H   0  0  0  0  0  0  0  0  0  0  0  0
   48.0685   22.9866   36.1741 H   0  0  0  0  0  0  0  0  0  0  0  0
   50.5839   21.5066   38.3683 H   0  0  0  0  0  0  0  0  0  0  0  0
   49.4249   21.1782   37.0524 H   0  0  0  0  0  0  0  0  0  0  0  0
   41.8378   25.0358   33.4631 H   0  0  0  0  0  0  0  0  0  0  0  0
   44.1743   25.8579   34.4828 H   0  0  0  0  0  0  0  0  0  0  0  0
   40.8284   22.3932   33.4109 H   0  0  0  0  0  0  0  0  0  0  0  0
   39.6877   24.1077   37.2106 H   0  0  0  0  0  0  0  0  0  0  0  0
   37.0336   21.5566   35.0427 H   0  0  0  0  0  0  0  0  0  0  0  0
  1  2  2  0
  2  3  1  0
  4  3  2  0
  5  4  1  0
  6  1  1  0
  6  5  2  0
  7  5  1  0
  7  8  1  0
  8  9  2  0
  9 11  1  0
 10  8  1  0
 12 16  2  0
 13 14  2  0
 13 12  1  0
 14 15  1  0
 15 16  1  0
 15  1  1  0
 17 18  2  0
 18 12  1  0
 18 19  1  0
 20 19  2  0
 21 20  1  0
 22 17  1  0
 22 21  2  0
  2 23  1  0
  3 24  1  0
  4 25  1  0
  7 26  1  0
 10 27  1  0
 10 28  1  0
 13 29  1  0
 14 30  1  0
 17 31  1  0
 19 32  1  0
 21 33  1  0
M  ISO  8  23  14  24  14  25  14  29  14  30  14  31  14  32  14  33  14
M  END
>  <minimizedAffinity>  (1) 
-4.91526318

>  <minimizedRMSD>  (1) 
0.29144904

$$$$
