
     RDKit          3D

 39 42  0  0  0  0  0  0  0  0999 V2000
   41.6900   24.0220   35.4190 C   0  0  0  0  0  0  0  0  0  0  0  0
   42.2340   24.8390   34.4500 C   0  0  0  0  0  0  0  0  0  0  0  0
   43.4310   25.2430   34.9910 C   0  0  0  0  0  0  0  0  0  0  0  0
   43.6290   24.7180   36.2150 N   0  0  0  0  0  0  0  0  0  0  0  0
   42.5470   23.9950   36.4130 N   0  0  0  0  0  0  0  0  0  0  0  0
   40.1120   22.5330   34.2150 C   0  0  0  0  0  0  0  0  0  0  0  0
   40.4210   23.3480   35.3170 C   0  0  0  0  0  0  0  0  0  0  0  0
   39.4820   23.4960   36.3140 C   0  0  0  0  0  0  0  0  0  0  0  0
   38.2890   22.8290   36.1630 N   0  0  0  0  0  0  0  0  0  0  0  0
   38.0180   22.0570   35.1000 C   0  0  0  0  0  0  0  0  0  0  0  0
   38.9250   21.9150   34.1410 N   0  0  0  0  0  0  0  0  0  0  0  0
   44.7180   24.8710   37.1210 C   0  0  0  0  0  0  0  0  0  0  0  0
   44.6950   25.6210   38.2770 C   0  0  0  0  0  0  0  0  0  0  0  0
   45.8440   25.6740   39.0640 C   0  0  0  0  0  0  0  0  0  0  0  0
   46.9590   24.9730   38.6580 C   0  0  0  0  0  0  0  0  0  0  0  0
   46.9670   24.2270   37.5010 C   0  0  0  0  0  0  0  0  0  0  0  0
   45.8290   24.1910   36.7470 N   0  0  0  0  0  0  0  0  0  0  0  0
   48.2030   23.5140   37.1510 C   0  0  0  0  0  0  0  0  0  0  0  0
   49.1380   23.2680   38.2980 C   0  0  0  0  0  0  0  0  0  0  0  0
   50.1410   22.3000   37.6700 C   0  0  0  0  0  0  0  0  0  0  0  0
   49.3930   21.6180   36.5210 C   0  0  0  0  0  0  0  0  0  0  0  0
   47.9520   22.1100   36.6550 C   0  0  0  0  0  0  0  0  0  0  0  0
   41.8085   25.1054   33.4712 H   0  0  0  0  0  0  0  0  0  0  0  0
   44.1412   25.9139   34.4854 H   0  0  0  0  0  0  0  0  0  0  0  0
   40.8484   22.4014   33.4085 H   0  0  0  0  0  0  0  0  0  0  0  0
   39.6788   24.1230   37.1961 H   0  0  0  0  0  0  0  0  0  0  0  0
   37.0482   21.5437   35.0232 H   0  0  0  0  0  0  0  0  0  0  0  0
   43.7872   26.1673   38.5728 H   0  0  0  0  0  0  0  0  0  0  0  0
   45.8606   26.2644   39.9920 H   0  0  0  0  0  0  0  0  0  0  0  0
   47.8683   25.0106   39.2759 H   0  0  0  0  0  0  0  0  0  0  0  0
   48.6315   24.1927   36.3988 H   0  0  0  0  0  0  0  0  0  0  0  0
   49.6269   24.1977   38.6246 H   0  0  0  0  0  0  0  0  0  0  0  0
   48.6465   22.8808   39.2027 H   0  0  0  0  0  0  0  0  0  0  0  0
   51.0149   22.8476   37.2875 H   0  0  0  0  0  0  0  0  0  0  0  0
   50.5141   21.5692   38.4026 H   0  0  0  0  0  0  0  0  0  0  0  0
   49.4409   20.5237   36.6216 H   0  0  0  0  0  0  0  0  0  0  0  0
   49.8269   21.8584   35.5392 H   0  0  0  0  0  0  0  0  0  0  0  0
   47.4270   22.1057   35.6884 H   0  0  0  0  0  0  0  0  0  0  0  0
   47.3098   21.4960   37.3035 H   0  0  0  0  0  0  0  0  0  0  0  0
  1  5  2  0
  2  3  2  0
  2  1  1  0
  3  4  1  0
  4  5  1  0
  4 12  1  0
  6  7  2  0
  7  1  1  0
  7  8  1  0
  9  8  2  0
 10  9  1  0
 11  6  1  0
 11 10  2  0
 12 13  2  0
 13 14  1  0
 15 14  2  0
 16 15  1  0
 17 12  1  0
 17 16  2  0
 18 16  1  0
 18 19  1  0
 20 19  1  0
 21 22  1  0
 21 20  1  0
 22 18  1  0
  2 23  1  0
  3 24  1  0
  6 25  1  0
  8 26  1  0
 10 27  1  0
 13 28  1  0
 14 29  1  0
 15 30  1  0
 18 31  1  0
 19 32  1  0
 19 33  1  0
 20 34  1  0
 20 35  1  0
 21 36  1  0
 21 37  1  0
 22 38  1  0
 22 39  1  0
M  ISO  8  23  14  24  14  25  14  26  14  27  14  28  14  29  14  30  14
M  ISO  8  31  13  32  13  33  13  34  13  35  13  36  13  37  13  38  13
M  ISO  1  39  13
M  END
>  <minimizedAffinity>  (1) 
-4.78149748

>  <minimizedRMSD>  (1) 
0.537169993

$$$$
