
     RDKit          3D

 38 40  0  0  0  0  0  0  0  0999 V2000
   41.6840   24.0600   35.4250 C   0  0  0  0  0  0  0  0  0  0  0  0
   42.1960   24.9480   34.5050 C   0  0  0  0  0  0  0  0  0  0  0  0
   43.3990   25.3580   35.0390 C   0  0  0  0  0  0  0  0  0  0  0  0
   43.6280   24.7610   36.2220 N   0  0  0  0  0  0  0  0  0  0  0  0
   42.5650   23.9960   36.3990 N   0  0  0  0  0  0  0  0  0  0  0  0
   40.1460   22.5430   34.2140 C   0  0  0  0  0  0  0  0  0  0  0  0
   40.4370   23.3690   35.2970 C   0  0  0  0  0  0  0  0  0  0  0  0
   39.4710   23.5160   36.2760 C   0  0  0  0  0  0  0  0  0  0  0  0
   38.2940   22.8400   36.1160 N   0  0  0  0  0  0  0  0  0  0  0  0
   38.0500   22.0530   35.0600 C   0  0  0  0  0  0  0  0  0  0  0  0
   38.9770   21.9130   34.1190 N   0  0  0  0  0  0  0  0  0  0  0  0
   44.7290   24.8810   37.1190 C   0  0  0  0  0  0  0  0  0  0  0  0
   44.7210   25.6270   38.2850 C   0  0  0  0  0  0  0  0  0  0  0  0
   45.8990   25.6330   39.0550 C   0  0  0  0  0  0  0  0  0  0  0  0
   46.9930   24.9150   38.6340 C   0  0  0  0  0  0  0  0  0  0  0  0
   46.9750   24.1830   37.4720 C   0  0  0  0  0  0  0  0  0  0  0  0
   45.8230   24.1830   36.7290 N   0  0  0  0  0  0  0  0  0  0  0  0
   48.1420   23.3970   36.9920 C   0  0  0  0  0  0  0  0  0  0  0  0
   49.1420   23.2070   38.1340 C   0  0  0  0  0  0  0  0  0  0  0  0
   48.8850   24.1220   35.8880 C   0  0  0  0  0  0  0  0  0  0  0  0
   47.7730   22.0500   36.4530 C   0  0  0  0  0  0  0  0  0  0  0  0
   41.7439   25.2615   33.5525 H   0  0  0  0  0  0  0  0  0  0  0  0
   44.0805   26.0773   34.5613 H   0  0  0  0  0  0  0  0  0  0  0  0
   40.8969   22.4085   33.4215 H   0  0  0  0  0  0  0  0  0  0  0  0
   39.6443   24.1556   37.1540 H   0  0  0  0  0  0  0  0  0  0  0  0
   37.0884   21.5261   34.9726 H   0  0  0  0  0  0  0  0  0  0  0  0
   43.8303   26.1920   38.5970 H   0  0  0  0  0  0  0  0  0  0  0  0
   45.9441   26.2102   39.9903 H   0  0  0  0  0  0  0  0  0  0  0  0
   47.9080   24.9270   39.2445 H   0  0  0  0  0  0  0  0  0  0  0  0
   48.6211   23.3060   39.0978 H   0  0  0  0  0  0  0  0  0  0  0  0
   49.5943   22.2068   38.0627 H   0  0  0  0  0  0  0  0  0  0  0  0
   49.9296   23.9716   38.0627 H   0  0  0  0  0  0  0  0  0  0  0  0
   49.6055   24.8251   36.3313 H   0  0  0  0  0  0  0  0  0  0  0  0
   49.4216   23.3908   35.2657 H   0  0  0  0  0  0  0  0  0  0  0  0
   48.1671   24.6764   35.2657 H   0  0  0  0  0  0  0  0  0  0  0  0
   47.5840   21.3600   37.2885 H   0  0  0  0  0  0  0  0  0  0  0  0
   46.8657   22.1374   35.8372 H   0  0  0  0  0  0  0  0  0  0  0  0
   48.5982   21.6628   35.8372 H   0  0  0  0  0  0  0  0  0  0  0  0
  1  5  2  0
  2  3  2  0
  2  1  1  0
  3  4  1  0
  4  5  1  0
  4 12  1  0
  6  7  2  0
  7  1  1  0
  7  8  1  0
  9  8  2  0
 10  9  1  0
 11  6  1  0
 11 10  2  0
 12 13  2  0
 13 14  1  0
 15 14  2  0
 16 15  1  0
 17 12  1  0
 17 16  2  0
 18 16  1  0
 18 19  1  0
 20 18  1  0
 21 18  1  0
  2 22  1  0
  3 23  1  0
  6 24  1  0
  8 25  1  0
 10 26  1  0
 13 27  1  0
 14 28  1  0
 15 29  1  0
 19 30  1  0
 19 31  1  0
 19 32  1  0
 20 33  1  0
 20 34  1  0
 20 35  1  0
 21 36  1  0
 21 37  1  0
 21 38  1  0
M  ISO  8  22  14  23  14  24  14  25  14  26  14  27  14  28  14  29  14
M  ISO  8  30   8  31   8  32   8  33   8  34   8  35   8  36   8  37   8
M  ISO  1  38   8
M  END
>  <minimizedAffinity>  (1) 
-4.74323463

>  <minimizedRMSD>  (1) 
0.317829311

$$$$
