
     RDKit          3D

 33 36  0  0  0  0  0  0  0  0999 V2000
   41.6680   24.0320   35.4270 C   0  0  0  0  0  0  0  0  0  0  0  0
   42.1970   24.8820   34.4810 C   0  0  0  0  0  0  0  0  0  0  0  0
   43.4070   25.2920   35.0090 C   0  0  0  0  0  0  0  0  0  0  0  0
   43.6180   24.7280   36.2120 N   0  0  0  0  0  0  0  0  0  0  0  0
   42.5420   23.9840   36.4080 N   0  0  0  0  0  0  0  0  0  0  0  0
   40.1010   22.5340   34.2250 C   0  0  0  0  0  0  0  0  0  0  0  0
   40.4070   23.3520   35.3200 C   0  0  0  0  0  0  0  0  0  0  0  0
   39.4610   23.5000   36.3170 C   0  0  0  0  0  0  0  0  0  0  0  0
   38.2780   22.8340   36.1700 N   0  0  0  0  0  0  0  0  0  0  0  0
   38.0120   22.0550   35.1070 C   0  0  0  0  0  0  0  0  0  0  0  0
   38.9340   21.9130   34.1370 N   0  0  0  0  0  0  0  0  0  0  0  0
   44.7080   24.8580   37.1090 C   0  0  0  0  0  0  0  0  0  0  0  0
   44.7260   25.6330   38.2490 C   0  0  0  0  0  0  0  0  0  0  0  0
   45.8710   25.6640   39.0380 C   0  0  0  0  0  0  0  0  0  0  0  0
   46.9620   24.9190   38.6590 C   0  0  0  0  0  0  0  0  0  0  0  0
   46.9390   24.1480   37.5200 C   0  0  0  0  0  0  0  0  0  0  0  0
   45.8030   24.1270   36.7530 N   0  0  0  0  0  0  0  0  0  0  0  0
   48.0790   23.3320   37.0680 C   0  0  0  0  0  0  0  0  0  0  0  0
   47.8890   22.0660   36.5010 C   0  0  0  0  0  0  0  0  0  0  0  0
   49.1150   21.5590   36.1860 C   0  0  0  0  0  0  0  0  0  0  0  0
   50.0010   22.5420   36.5750 C   0  0  0  0  0  0  0  0  0  0  0  0
   49.3580   23.5860   37.0970 O   0  0  0  0  0  0  0  0  0  0  0  0
   41.7538   25.1712   33.5167 H   0  0  0  0  0  0  0  0  0  0  0  0
   44.1025   25.9850   34.5131 H   0  0  0  0  0  0  0  0  0  0  0  0
   40.8432   22.4048   33.4234 H   0  0  0  0  0  0  0  0  0  0  0  0
   39.6542   24.1313   37.1968 H   0  0  0  0  0  0  0  0  0  0  0  0
   37.0451   21.5361   35.0305 H   0  0  0  0  0  0  0  0  0  0  0  0
   43.8415   26.2224   38.5325 H   0  0  0  0  0  0  0  0  0  0  0  0
   45.9029   26.2757   39.9517 H   0  0  0  0  0  0  0  0  0  0  0  0
   47.8709   24.9397   39.2783 H   0  0  0  0  0  0  0  0  0  0  0  0
   46.9216   21.5683   36.3384 H   0  0  0  0  0  0  0  0  0  0  0  0
   49.3452   20.5867   35.7260 H   0  0  0  0  0  0  0  0  0  0  0  0
   51.0937   22.4733   36.4684 H   0  0  0  0  0  0  0  0  0  0  0  0
  1  5  2  0
  2  3  2  0
  2  1  1  0
  3  4  1  0
  4  5  1  0
  4 12  1  0
  6  7  2  0
  7  1  1  0
  7  8  1  0
  9  8  2  0
 10  9  1  0
 11  6  1  0
 11 10  2  0
 12 13  2  0
 13 14  1  0
 15 14  2  0
 16 15  1  0
 17 12  1  0
 17 16  2  0
 18 22  1  0
 18 16  1  0
 19 18  2  0
 20 19  1  0
 20 21  2  0
 21 22  1  0
  2 23  1  0
  3 24  1  0
  6 25  1  0
  8 26  1  0
 10 27  1  0
 13 28  1  0
 14 29  1  0
 15 30  1  0
 19 31  1  0
 20 32  1  0
 21 33  1  0
M  ISO  8  23  14  24  14  25  14  26  14  27  14  28  14  29  14  30  14
M  ISO  3  31  14  32  14  33  14
M  END
>  <minimizedAffinity>  (1) 
-4.63606453

>  <minimizedRMSD>  (1) 
0.266505927

$$$$
