
     RDKit          3D

 31 34  0  0  0  0  0  0  0  0999 V2000
   41.6820   24.0820   35.4020 C   0  0  0  0  0  0  0  0  0  0  0  0
   42.1860   24.9750   34.4990 C   0  0  0  0  0  0  0  0  0  0  0  0
   43.3880   25.3760   35.0450 C   0  0  0  0  0  0  0  0  0  0  0  0
   43.6050   24.7490   36.2330 N   0  0  0  0  0  0  0  0  0  0  0  0
   42.5500   23.9800   36.4060 N   0  0  0  0  0  0  0  0  0  0  0  0
   40.1710   22.5390   34.1800 C   0  0  0  0  0  0  0  0  0  0  0  0
   40.4270   23.3840   35.2700 C   0  0  0  0  0  0  0  0  0  0  0  0
   39.4470   23.5420   36.2340 C   0  0  0  0  0  0  0  0  0  0  0  0
   38.2730   22.8510   36.0530 N   0  0  0  0  0  0  0  0  0  0  0  0
   38.0560   22.0470   34.9980 C   0  0  0  0  0  0  0  0  0  0  0  0
   39.0120   21.8970   34.0650 N   0  0  0  0  0  0  0  0  0  0  0  0
   44.7130   24.8690   37.1240 C   0  0  0  0  0  0  0  0  0  0  0  0
   44.7220   25.6580   38.2770 C   0  0  0  0  0  0  0  0  0  0  0  0
   45.8820   25.6760   39.0530 C   0  0  0  0  0  0  0  0  0  0  0  0
   46.9650   24.9180   38.6530 C   0  0  0  0  0  0  0  0  0  0  0  0
   46.9350   24.1390   37.5000 C   0  0  0  0  0  0  0  0  0  0  0  0
   45.8030   24.1260   36.7480 N   0  0  0  0  0  0  0  0  0  0  0  0
   48.1020   23.3530   37.1110 C   0  0  0  0  0  0  0  0  0  0  0  0
   49.3090   23.9460   36.9870 N   0  0  0  0  0  0  0  0  0  0  0  0
   50.2060   23.0540   36.6310 O   0  0  0  0  0  0  0  0  0  0  0  0
   49.6200   21.8690   36.5130 C   0  0  0  0  0  0  0  0  0  0  0  0
   48.3130   22.0480   36.8090 N   0  0  0  0  0  0  0  0  0  0  0  0
   41.7349   25.3009   33.5502 H   0  0  0  0  0  0  0  0  0  0  0  0
   44.0749   26.1012   34.5843 H   0  0  0  0  0  0  0  0  0  0  0  0
   40.9421   22.4051   33.4071 H   0  0  0  0  0  0  0  0  0  0  0  0
   39.6010   24.1926   37.1075 H   0  0  0  0  0  0  0  0  0  0  0  0
   37.0992   21.5135   34.8984 H   0  0  0  0  0  0  0  0  0  0  0  0
   43.8397   26.2484   38.5651 H   0  0  0  0  0  0  0  0  0  0  0  0
   45.9328   26.2840   39.9683 H   0  0  0  0  0  0  0  0  0  0  0  0
   47.8793   24.9303   39.2644 H   0  0  0  0  0  0  0  0  0  0  0  0
   50.1045   20.9232   36.2290 H   0  0  0  0  0  0  0  0  0  0  0  0
  1  5  2  0
  2  3  2  0
  2  1  1  0
  3  4  1  0
  4  5  1  0
  4 12  1  0
  6  7  2  0
  7  1  1  0
  7  8  1  0
  9  8  2  0
 10  9  1  0
 11  6  1  0
 11 10  2  0
 12 13  2  0
 13 14  1  0
 15 14  2  0
 16 15  1  0
 17 12  1  0
 17 16  2  0
 18 16  1  0
 19 18  2  0
 20 19  1  0
 21 20  1  0
 21 22  2  0
 22 18  1  0
  2 23  1  0
  3 24  1  0
  6 25  1  0
  8 26  1  0
 10 27  1  0
 13 28  1  0
 14 29  1  0
 15 30  1  0
 21 31  1  0
M  ISO  8  23  14  24  14  25  14  26  14  27  14  28  14  29  14  30  14
M  ISO  1  31  14
M  END
>  <minimizedAffinity>  (1) 
-4.61870384

>  <minimizedRMSD>  (1) 
0.344515771

$$$$
