
     RDKit          3D

 33 36  0  0  0  0  0  0  0  0999 V2000
   41.6800   24.0880   35.4080 C   0  0  0  0  0  0  0  0  0  0  0  0
   42.1830   24.9990   34.5100 C   0  0  0  0  0  0  0  0  0  0  0  0
   43.3880   25.3930   35.0570 C   0  0  0  0  0  0  0  0  0  0  0  0
   43.6100   24.7590   36.2210 N   0  0  0  0  0  0  0  0  0  0  0  0
   42.5590   23.9850   36.3940 N   0  0  0  0  0  0  0  0  0  0  0  0
   40.1670   22.5460   34.1810 C   0  0  0  0  0  0  0  0  0  0  0  0
   40.4270   23.3880   35.2790 C   0  0  0  0  0  0  0  0  0  0  0  0
   39.4500   23.5320   36.2410 C   0  0  0  0  0  0  0  0  0  0  0  0
   38.2810   22.8410   36.0630 N   0  0  0  0  0  0  0  0  0  0  0  0
   38.0720   22.0480   35.0030 C   0  0  0  0  0  0  0  0  0  0  0  0
   39.0080   21.9010   34.0680 N   0  0  0  0  0  0  0  0  0  0  0  0
   44.7250   24.8670   37.1120 C   0  0  0  0  0  0  0  0  0  0  0  0
   44.7450   25.6490   38.2600 C   0  0  0  0  0  0  0  0  0  0  0  0
   45.9020   25.6590   39.0380 C   0  0  0  0  0  0  0  0  0  0  0  0
   46.9820   24.8960   38.6400 C   0  0  0  0  0  0  0  0  0  0  0  0
   46.9370   24.1310   37.4990 C   0  0  0  0  0  0  0  0  0  0  0  0
   45.8050   24.1350   36.7600 N   0  0  0  0  0  0  0  0  0  0  0  0
   48.0370   23.3220   37.0490 C   0  0  0  0  0  0  0  0  0  0  0  0
   47.9940   22.0800   36.5380 C   0  0  0  0  0  0  0  0  0  0  0  0
   49.1310   21.4290   36.1510 C   0  0  0  0  0  0  0  0  0  0  0  0
   50.3660   22.2160   36.3500 C   0  0  0  0  0  0  0  0  0  0  0  0
   49.7470   23.8120   37.0760 S   0  0  0  0  0  0  0  0  0  0  0  0
   41.7279   25.3379   33.5676 H   0  0  0  0  0  0  0  0  0  0  0  0
   44.0720   26.1249   34.6027 H   0  0  0  0  0  0  0  0  0  0  0  0
   40.9345   22.4190   33.4034 H   0  0  0  0  0  0  0  0  0  0  0  0
   39.6036   24.1775   37.1184 H   0  0  0  0  0  0  0  0  0  0  0  0
   37.1162   21.5125   34.9045 H   0  0  0  0  0  0  0  0  0  0  0  0
   43.8679   26.2468   38.5487 H   0  0  0  0  0  0  0  0  0  0  0  0
   45.9537   26.2652   39.9545 H   0  0  0  0  0  0  0  0  0  0  0  0
   47.8979   24.9006   39.2492 H   0  0  0  0  0  0  0  0  0  0  0  0
   47.0221   21.5765   36.4289 H   0  0  0  0  0  0  0  0  0  0  0  0
   49.1276   20.4127   35.7301 H   0  0  0  0  0  0  0  0  0  0  0  0
   51.4028   21.9269   36.1230 H   0  0  0  0  0  0  0  0  0  0  0  0
  1  5  2  0
  2  3  2  0
  2  1  1  0
  3  4  1  0
  4  5  1  0
  4 12  1  0
  6  7  2  0
  7  1  1  0
  7  8  1  0
  9  8  2  0
 10  9  1  0
 11  6  1  0
 11 10  2  0
 12 13  2  0
 13 14  1  0
 15 14  2  0
 16 15  1  0
 17 12  1  0
 17 16  2  0
 18 22  1  0
 18 16  1  0
 19 18  2  0
 20 21  2  0
 20 19  1  0
 21 22  1  0
  2 23  1  0
  3 24  1  0
  6 25  1  0
  8 26  1  0
 10 27  1  0
 13 28  1  0
 14 29  1  0
 15 30  1  0
 19 31  1  0
 20 32  1  0
 21 33  1  0
M  ISO  8  23  14  24  14  25  14  26  14  27  14  28  14  29  14  30  14
M  ISO  3  31  14  32  14  33  14
M  END
>  <minimizedAffinity>  (1) 
-4.61852503

>  <minimizedRMSD>  (1) 
0.334580988

$$$$
