
     RDKit          3D

 33 36  0  0  0  0  0  0  0  0999 V2000
   41.6830   24.0860   35.3920 C   0  0  0  0  0  0  0  0  0  0  0  0
   42.1940   24.9750   34.4950 C   0  0  0  0  0  0  0  0  0  0  0  0
   43.3960   25.3690   35.0520 C   0  0  0  0  0  0  0  0  0  0  0  0
   43.6090   24.7420   36.2440 N   0  0  0  0  0  0  0  0  0  0  0  0
   42.5550   23.9900   36.3940 N   0  0  0  0  0  0  0  0  0  0  0  0
   40.1800   22.5380   34.1720 C   0  0  0  0  0  0  0  0  0  0  0  0
   40.4260   23.3840   35.2630 C   0  0  0  0  0  0  0  0  0  0  0  0
   39.4440   23.5370   36.2190 C   0  0  0  0  0  0  0  0  0  0  0  0
   38.2810   22.8580   36.0560 N   0  0  0  0  0  0  0  0  0  0  0  0
   38.0630   22.0470   34.9950 C   0  0  0  0  0  0  0  0  0  0  0  0
   39.0170   21.8950   34.0610 N   0  0  0  0  0  0  0  0  0  0  0  0
   44.7090   24.8660   37.1240 C   0  0  0  0  0  0  0  0  0  0  0  0
   44.7190   25.6300   38.2830 C   0  0  0  0  0  0  0  0  0  0  0  0
   45.8720   25.6630   39.0610 C   0  0  0  0  0  0  0  0  0  0  0  0
   46.9770   24.9290   38.6530 C   0  0  0  0  0  0  0  0  0  0  0  0
   46.9410   24.1810   37.5030 C   0  0  0  0  0  0  0  0  0  0  0  0
   45.8110   24.1510   36.7430 N   0  0  0  0  0  0  0  0  0  0  0  0
   48.1010   23.4080   37.0730 C   0  0  0  0  0  0  0  0  0  0  0  0
   48.0590   22.1230   36.5780 C   0  0  0  0  0  0  0  0  0  0  0  0
   49.3370   21.7430   36.2860 N   0  0  0  0  0  0  0  0  0  0  0  0
   50.1050   22.8050   36.6130 C   0  0  0  0  0  0  0  0  0  0  0  0
   49.3770   23.8300   37.0930 N   0  0  0  0  0  0  0  0  0  0  0  0
   41.7507   25.3044   33.5437 H   0  0  0  0  0  0  0  0  0  0  0  0
   44.0881   26.0916   34.5949 H   0  0  0  0  0  0  0  0  0  0  0  0
   40.9531   22.4036   33.4011 H   0  0  0  0  0  0  0  0  0  0  0  0
   39.5994   24.1914   37.0894 H   0  0  0  0  0  0  0  0  0  0  0  0
   37.1063   21.5130   34.8972 H   0  0  0  0  0  0  0  0  0  0  0  0
   43.8278   26.2013   38.5821 H   0  0  0  0  0  0  0  0  0  0  0  0
   45.9072   26.2607   39.9838 H   0  0  0  0  0  0  0  0  0  0  0  0
   47.8943   24.9471   39.2598 H   0  0  0  0  0  0  0  0  0  0  0  0
   47.1550   21.5112   36.4421 H   0  0  0  0  0  0  0  0  0  0  0  0
   51.1989   22.8292   36.5000 H   0  0  0  0  0  0  0  0  0  0  0  0
   49.7249   24.7463   37.4095 H   0  0  0  0  0  0  0  0  0  0  0  0
  1  5  2  0
  2  3  2  0
  2  1  1  0
  3  4  1  0
  4  5  1  0
  4 12  1  0
  6  7  2  0
  7  1  1  0
  7  8  1  0
  9  8  2  0
 10  9  1  0
 11  6  1  0
 11 10  2  0
 12 13  2  0
 13 14  1  0
 15 14  2  0
 16 15  1  0
 17 12  1  0
 17 16  2  0
 18 22  1  0
 18 16  1  0
 19 18  2  0
 20 19  1  0
 20 21  2  0
 21 22  1  0
  2 23  1  0
  3 24  1  0
  6 25  1  0
  8 26  1  0
 10 27  1  0
 13 28  1  0
 14 29  1  0
 15 30  1  0
 19 31  1  0
 21 32  1  0
 22 33  1  0
M  ISO  8  23  14  24  14  25  14  26  14  27  14  28  14  29  14  30  14
M  ISO  3  31  14  32  14  33   9
M  END
>  <minimizedAffinity>  (1) 
-4.60653782

>  <minimizedRMSD>  (1) 
0.215101272

$$$$
