
     RDKit          3D

 27 29  0  0  0  0  0  0  0  0999 V2000
   41.6870   24.0520   35.4690 C   0  0  0  0  0  0  0  0  0  0  0  0
   42.1450   25.0070   34.5830 C   0  0  0  0  0  0  0  0  0  0  0  0
   43.3700   25.3840   35.1050 C   0  0  0  0  0  0  0  0  0  0  0  0
   43.6410   24.6930   36.2480 N   0  0  0  0  0  0  0  0  0  0  0  0
   42.6040   23.9180   36.4120 N   0  0  0  0  0  0  0  0  0  0  0  0
   40.1370   22.5460   34.2540 C   0  0  0  0  0  0  0  0  0  0  0  0
   40.4280   23.3580   35.3380 C   0  0  0  0  0  0  0  0  0  0  0  0
   39.4730   23.5060   36.3310 C   0  0  0  0  0  0  0  0  0  0  0  0
   38.2930   22.8450   36.1910 N   0  0  0  0  0  0  0  0  0  0  0  0
   38.0410   22.0570   35.1130 C   0  0  0  0  0  0  0  0  0  0  0  0
   38.9630   21.9200   34.1650 N   0  0  0  0  0  0  0  0  0  0  0  0
   44.7810   24.7770   37.0890 C   0  0  0  0  0  0  0  0  0  0  0  0
   44.8450   25.5160   38.2650 C   0  0  0  0  0  0  0  0  0  0  0  0
   46.0310   25.5100   38.9980 C   0  0  0  0  0  0  0  0  0  0  0  0
   47.1070   24.7630   38.5220 C   0  0  0  0  0  0  0  0  0  0  0  0
   47.0220   24.0380   37.3520 C   0  0  0  0  0  0  0  0  0  0  0  0
   45.8420   24.0650   36.6550 N   0  0  0  0  0  0  0  0  0  0  0  0
   48.4320   23.1010   36.7900 S   0  0  0  0  0  0  0  0  0  0  0  0
   41.6512   25.3810   33.6740 H   0  0  0  0  0  0  0  0  0  0  0  0
   44.0343   26.1384   34.6583 H   0  0  0  0  0  0  0  0  0  0  0  0
   40.8837   22.4160   33.4568 H   0  0  0  0  0  0  0  0  0  0  0  0
   39.6642   24.1409   37.2087 H   0  0  0  0  0  0  0  0  0  0  0  0
   37.0772   21.5341   35.0250 H   0  0  0  0  0  0  0  0  0  0  0  0
   43.9758   26.0948   38.6108 H   0  0  0  0  0  0  0  0  0  0  0  0
   46.1157   26.0832   39.9330 H   0  0  0  0  0  0  0  0  0  0  0  0
   48.0469   24.7514   39.0934 H   0  0  0  0  0  0  0  0  0  0  0  0
   49.1319   22.6359   37.8720 H   0  0  0  0  0  0  0  0  0  0  0  0
  1  5  2  0
  2  3  2  0
  2  1  1  0
  3  4  1  0
  4  5  1  0
  4 12  1  0
  6  7  2  0
  7  1  1  0
  7  8  1  0
  9  8  2  0
 10  9  1  0
 11  6  1  0
 11 10  2  0
 12 13  2  0
 13 14  1  0
 15 14  2  0
 16 15  1  0
 17 12  1  0
 17 16  2  0
 18 16  1  0
  2 19  1  0
  3 20  1  0
  6 21  1  0
  8 22  1  0
 10 23  1  0
 13 24  1  0
 14 25  1  0
 15 26  1  0
 18 27  1  0
M  ISO  8  19  14  20  14  21  14  22  14  23  14  24  14  25  14  26  14
M  ISO  1  27  11
M  END
>  <minimizedAffinity>  (1) 
-4.57158375

>  <minimizedRMSD>  (1) 
0.0536682382

$$$$
