
     RDKit          3D

 28 31  0  0  0  0  0  0  0  0999 V2000
   43.1310   22.5930   36.1630 C   0  0  0  0  0  0  0  0  0  0  0  0
   41.9440   23.1440   36.6840 C   0  0  0  0  0  0  0  0  0  0  0  0
   40.8030   23.1370   35.8880 C   0  0  0  0  0  0  0  0  0  0  0  0
   40.8890   22.5960   34.6380 N   0  0  0  0  0  0  0  0  0  0  0  0
   42.0440   22.0700   34.1570 C   0  0  0  0  0  0  0  0  0  0  0  0
   43.1660   22.0720   34.9270 N   0  0  0  0  0  0  0  0  0  0  0  0
   39.5680   23.6780   36.3510 N   0  0  0  0  0  0  0  0  0  0  0  0
   38.8750   23.0520   37.3190 C   0  0  0  0  0  0  0  0  0  0  0  0
   37.7570   23.8230   37.5230 C   0  0  0  0  0  0  0  0  0  0  0  0
   37.7970   24.8870   36.6830 N   0  0  0  0  0  0  0  0  0  0  0  0
   38.9350   24.7850   35.9550 C   0  0  0  0  0  0  0  0  0  0  0  0
   39.3580   25.6920   34.9630 N   0  0  0  0  0  0  0  0  0  0  0  0
   40.5020   26.3710   34.8100 C   0  0  0  0  0  0  0  0  0  0  0  0
   40.4550   27.1260   33.6980 N   0  0  0  0  0  0  0  0  0  0  0  0
   39.2880   26.9750   33.0800 C   0  0  0  0  0  0  0  0  0  0  0  0
   38.6540   27.4550   31.9440 C   0  0  0  0  0  0  0  0  0  0  0  0
   37.4110   27.0290   31.6640 N   0  0  0  0  0  0  0  0  0  0  0  0
   36.7540   26.1560   32.4400 C   0  0  0  0  0  0  0  0  0  0  0  0
   37.3600   25.6910   33.5360 N   0  0  0  0  0  0  0  0  0  0  0  0
   38.6010   26.0640   33.8890 C   0  0  0  0  0  0  0  0  0  0  0  0
   44.0427   22.5898   36.7785 H   0  0  0  0  0  0  0  0  0  0  0  0
   41.9197   23.5704   37.6977 H   0  0  0  0  0  0  0  0  0  0  0  0
   42.0732   21.6418   33.1442 H   0  0  0  0  0  0  0  0  0  0  0  0
   39.1462   22.1204   37.8372 H   0  0  0  0  0  0  0  0  0  0  0  0
   36.9587   23.6118   38.2497 H   0  0  0  0  0  0  0  0  0  0  0  0
   41.3594   26.3186   35.4971 H   0  0  0  0  0  0  0  0  0  0  0  0
   39.1608   28.1732   31.2826 H   0  0  0  0  0  0  0  0  0  0  0  0
   35.7365   25.8290   32.1798 H   0  0  0  0  0  0  0  0  0  0  0  0
  1  2  2  0
  3  7  1  0
  3  2  1  0
  4  3  2  0
  5  4  1  0
  5  6  2  0
  6  1  1  0
  7  8  1  0
  8  9  2  0
 10  9  1  0
 11  7  1  0
 11 10  2  0
 12 11  1  0
 13 12  1  0
 14 13  2  0
 15 14  1  0
 15 20  2  0
 16 15  1  0
 17 16  2  0
 17 18  1  0
 18 19  2  0
 19 20  1  0
 20 12  1  0
  1 21  1  0
  2 22  1  0
  5 23  1  0
  8 24  1  0
  9 25  1  0
 13 26  1  0
 16 27  1  0
 18 28  1  0
M  ISO  8  21  14  22  14  23  14  24  14  25  14  26  14  27  14  28  14
M  END
>  <minimizedAffinity>  (1) 
-4.91022539

>  <minimizedRMSD>  (1) 
2.63852787

$$$$
