
     RDKit          3D

 32 34  0  0  0  0  0  0  0  0999 V2000
   42.5510   21.5730   36.7690 C   0  0  0  0  0  0  0  0  0  0  0  0
   41.4470   22.3900   37.0910 C   0  0  0  0  0  0  0  0  0  0  0  0
   40.5420   22.7020   36.0590 C   0  0  0  0  0  0  0  0  0  0  0  0
   40.8000   22.1970   34.8410 N   0  0  0  0  0  0  0  0  0  0  0  0
   41.8530   21.4210   34.5420 C   0  0  0  0  0  0  0  0  0  0  0  0
   42.7380   21.1120   35.5390 N   0  0  0  0  0  0  0  0  0  0  0  0
   39.3990   23.5180   36.3020 N   0  0  0  0  0  0  0  0  0  0  0  0
   38.3690   23.0440   37.0480 C   0  0  0  0  0  0  0  0  0  0  0  0
   37.4660   24.0880   37.0630 C   0  0  0  0  0  0  0  0  0  0  0  0
   37.9480   25.1200   36.3590 N   0  0  0  0  0  0  0  0  0  0  0  0
   39.1710   24.7620   35.8770 C   0  0  0  0  0  0  0  0  0  0  0  0
   39.9930   25.6050   35.0860 N   0  0  0  0  0  0  0  0  0  0  0  0
   41.3030   25.2500   34.5780 C   0  0  0  0  0  0  0  0  0  0  0  0
   42.1290   26.4830   34.2690 C   0  0  0  0  0  0  0  0  0  0  0  0
   41.4230   27.3930   33.2860 C   0  0  0  0  0  0  0  0  0  0  0  0
   39.9290   27.1430   33.2770 C   0  0  0  0  0  0  0  0  0  0  0  0
   39.5420   26.9390   34.7270 C   0  0  0  0  0  0  0  0  0  0  0  0
   43.2738   21.3120   37.5561 H   0  0  0  0  0  0  0  0  0  0  0  0
   41.2986   22.7699   38.1126 H   0  0  0  0  0  0  0  0  0  0  0  0
   42.0013   21.0423   33.5200 H   0  0  0  0  0  0  0  0  0  0  0  0
   38.2756   22.0587   37.5282 H   0  0  0  0  0  0  0  0  0  0  0  0
   36.4938   24.0742   37.5774 H   0  0  0  0  0  0  0  0  0  0  0  0
   41.8285   24.6472   35.3333 H   0  0  0  0  0  0  0  0  0  0  0  0
   41.1704   24.6797   33.6468 H   0  0  0  0  0  0  0  0  0  0  0  0
   42.3082   27.0362   35.2027 H   0  0  0  0  0  0  0  0  0  0  0  0
   43.0780   26.1580   33.8176 H   0  0  0  0  0  0  0  0  0  0  0  0
   41.6092   28.4394   33.5695 H   0  0  0  0  0  0  0  0  0  0  0  0
   41.8149   27.1860   32.2793 H   0  0  0  0  0  0  0  0  0  0  0  0
   39.3972   28.0089   32.8557 H   0  0  0  0  0  0  0  0  0  0  0  0
   39.6655   26.2721   32.6588 H   0  0  0  0  0  0  0  0  0  0  0  0
   40.0336   27.6909   35.3618 H   0  0  0  0  0  0  0  0  0  0  0  0
   38.4566   27.0459   34.8698 H   0  0  0  0  0  0  0  0  0  0  0  0
  1  2  2  0
  3  7  1  0
  3  2  1  0
  4  3  2  0
  5  4  1  0
  5  6  2  0
  6  1  1  0
  7  8  1  0
  8  9  2  0
 10  9  1  0
 11  7  1  0
 11 10  2  0
 12 11  1  0
 13 12  1  0
 14 13  1  0
 15 14  1  0
 16 15  1  0
 16 17  1  0
 17 12  1  0
  1 18  1  0
  2 19  1  0
  5 20  1  0
  8 21  1  0
  9 22  1  0
 13 23  1  0
 13 24  1  0
 14 25  1  0
 14 26  1  0
 15 27  1  0
 15 28  1  0
 16 29  1  0
 16 30  1  0
 17 31  1  0
 17 32  1  0
M  ISO  8  18  14  19  14  20  14  21  14  22  14  23  13  24  13  25  13
M  ISO  7  26  13  27  13  28  13  29  13  30  13  31  13  32  13
M  END
>  <minimizedAffinity>  (1) 
-4.54485846

>  <minimizedRMSD>  (1) 
1.30170846

$$$$
