
     RDKit          3D

 30 32  0  0  0  0  0  0  0  0999 V2000
   41.6770   21.5610   37.3370 C   0  0  0  0  0  0  0  0  0  0  0  0
   40.8190   22.6690   37.2420 C   0  0  0  0  0  0  0  0  0  0  0  0
   40.4610   23.1000   35.9510 C   0  0  0  0  0  0  0  0  0  0  0  0
   40.9620   22.4300   34.8970 N   0  0  0  0  0  0  0  0  0  0  0  0
   41.7850   21.3670   35.0130 C   0  0  0  0  0  0  0  0  0  0  0  0
   42.1410   20.9360   36.2540 N   0  0  0  0  0  0  0  0  0  0  0  0
   39.5940   24.2170   35.7600 N   0  0  0  0  0  0  0  0  0  0  0  0
   38.2990   24.1480   36.0930 C   0  0  0  0  0  0  0  0  0  0  0  0
   37.7570   25.3620   35.7910 C   0  0  0  0  0  0  0  0  0  0  0  0
   38.7250   26.1350   35.2850 N   0  0  0  0  0  0  0  0  0  0  0  0
   39.8820   25.4290   35.2610 C   0  0  0  0  0  0  0  0  0  0  0  0
   43.5410   26.9030   33.7740 C   0  0  0  0  0  0  0  0  0  0  0  0
   42.3390   27.4290   33.3210 C   0  0  0  0  0  0  0  0  0  0  0  0
   41.1520   26.9110   33.8400 C   0  0  0  0  0  0  0  0  0  0  0  0
   41.1570   25.8880   34.7940 C   0  0  0  0  0  0  0  0  0  0  0  0
   42.3830   25.4390   35.1750 C   0  0  0  0  0  0  0  0  0  0  0  0
   43.5960   25.8960   34.7120 C   0  0  0  0  0  0  0  0  0  0  0  0
   45.0190   27.5800   33.0970 S   0  0  0  0  0  0  0  0  0  0  0  0
   45.6940   28.3180   34.2240 O   0  0  0  0  0  0  0  0  0  0  0  0
   44.6250   28.6270   32.0790 O   0  0  0  0  0  0  0  0  0  0  0  0
   41.9745   21.1987   38.3321 H   0  0  0  0  0  0  0  0  0  0  0  0
   40.4420   23.1794   38.1406 H   0  0  0  0  0  0  0  0  0  0  0  0
   42.1635   20.8552   34.1159 H   0  0  0  0  0  0  0  0  0  0  0  0
   37.7755   23.2824   36.5251 H   0  0  0  0  0  0  0  0  0  0  0  0
   36.7069   25.6550   35.9377 H   0  0  0  0  0  0  0  0  0  0  0  0
   42.3227   28.2341   32.5716 H   0  0  0  0  0  0  0  0  0  0  0  0
   40.1907   27.3162   33.4911 H   0  0  0  0  0  0  0  0  0  0  0  0
   42.4075   24.6341   35.9244 H   0  0  0  0  0  0  0  0  0  0  0  0
   44.5506   25.4824   35.0692 H   0  0  0  0  0  0  0  0  0  0  0  0
   45.8108   26.6112   32.5390 H   0  0  0  0  0  0  0  0  0  0  0  0
  2  1  2  0
  3  2  1  0
  4  5  1  0
  4  3  2  0
  5  6  2  0
  6  1  1  0
  7  3  1  0
  7  8  1  0
  9  8  2  0
 10  9  1  0
 11 10  2  0
 11  7  1  0
 12 17  2  0
 13 12  1  0
 13 14  2  0
 14 15  1  0
 15 16  2  0
 15 11  1  0
 17 16  1  0
 18 12  1  0
 18 19  2  0
 20 18  2  0
  1 21  1  0
  2 22  1  0
  5 23  1  0
  8 24  1  0
  9 25  1  0
 13 26  1  0
 14 27  1  0
 16 28  1  0
 17 29  1  0
 18 30  1  0
M  ISO  8  21  14  22  14  23  14  24  14  25  14  26  14  27  14  28  14
M  ISO  2  29  14  30  11
M  END
>  <minimizedAffinity>  (1) 
-4.30997372

>  <minimizedRMSD>  (1) 
0.606653214

$$$$
