
     RDKit          3D

 24 26  0  0  0  0  0  0  0  0999 V2000
   37.8110   23.6040   38.3560 C   0  0  0  0  0  0  0  0  0  0  0  0
   37.5150   23.5920   36.9850 C   0  0  0  0  0  0  0  0  0  0  0  0
   38.5190   23.1860   36.1180 C   0  0  0  0  0  0  0  0  0  0  0  0
   39.7290   22.8220   36.6340 N   0  0  0  0  0  0  0  0  0  0  0  0
   39.9730   22.8480   37.9660 C   0  0  0  0  0  0  0  0  0  0  0  0
   39.0060   23.2410   38.8210 N   0  0  0  0  0  0  0  0  0  0  0  0
   38.3080   23.1420   34.6950 N   0  0  0  0  0  0  0  0  0  0  0  0
   37.5000   22.1950   34.1580 C   0  0  0  0  0  0  0  0  0  0  0  0
   37.5290   22.4460   32.8100 C   0  0  0  0  0  0  0  0  0  0  0  0
   38.3320   23.5120   32.5630 N   0  0  0  0  0  0  0  0  0  0  0  0
   38.8210   23.9470   33.7550 C   0  0  0  0  0  0  0  0  0  0  0  0
   39.7230   25.0630   33.9870 C   0  0  0  0  0  0  0  0  0  0  0  0
   39.4810   26.4160   34.1170 C   0  0  0  0  0  0  0  0  0  0  0  0
   40.7250   27.0030   34.3260 C   0  0  0  0  0  0  0  0  0  0  0  0
   41.6510   25.9980   34.3170 C   0  0  0  0  0  0  0  0  0  0  0  0
   41.0180   24.8860   34.1150 O   0  0  0  0  0  0  0  0  0  0  0  0
   37.0348   23.9221   39.0675 H   0  0  0  0  0  0  0  0  0  0  0  0
   36.5250   23.8929   36.6117 H   0  0  0  0  0  0  0  0  0  0  0  0
   40.9592   22.5488   38.3506 H   0  0  0  0  0  0  0  0  0  0  0  0
   36.9461   21.4039   34.6846 H   0  0  0  0  0  0  0  0  0  0  0  0
   36.9848   21.8714   32.0460 H   0  0  0  0  0  0  0  0  0  0  0  0
   38.5069   26.9244   34.0659 H   0  0  0  0  0  0  0  0  0  0  0  0
   40.9255   28.0748   34.4712 H   0  0  0  0  0  0  0  0  0  0  0  0
   42.7362   26.1125   34.4560 H   0  0  0  0  0  0  0  0  0  0  0  0
  1  6  2  0
  2  1  1  0
  3  4  1  0
  3  2  2  0
  4  5  2  0
  5  6  1  0
  7  3  1  0
  8  7  1  0
  9  8  2  0
 10  9  1  0
 10 11  2  0
 11 12  1  0
 11  7  1  0
 12 16  1  0
 12 13  2  0
 13 14  1  0
 15 14  2  0
 16 15  1  0
  1 17  1  0
  2 18  1  0
  5 19  1  0
  8 20  1  0
  9 21  1  0
 13 22  1  0
 14 23  1  0
 15 24  1  0
M  ISO  8  17  14  18  14  19  14  20  14  21  14  22  14  23  14  24  14
M  END
>  <minimizedAffinity>  (1) 
-4.21699715

>  <minimizedRMSD>  (1) 
3.09720278

$$$$
