
     RDKit          3D

 24 26  0  0  0  0  0  0  0  0999 V2000
   42.4020   21.4020   36.8840 C   0  0  0  0  0  0  0  0  0  0  0  0
   41.3080   22.2250   37.1610 C   0  0  0  0  0  0  0  0  0  0  0  0
   40.4860   22.6210   36.0950 C   0  0  0  0  0  0  0  0  0  0  0  0
   40.8020   22.1800   34.8430 N   0  0  0  0  0  0  0  0  0  0  0  0
   41.8660   21.3870   34.6150 C   0  0  0  0  0  0  0  0  0  0  0  0
   42.6700   20.9960   35.6430 N   0  0  0  0  0  0  0  0  0  0  0  0
   39.3530   23.4610   36.3050 N   0  0  0  0  0  0  0  0  0  0  0  0
   38.2700   22.9890   36.9690 C   0  0  0  0  0  0  0  0  0  0  0  0
   37.3850   24.0420   36.9880 C   0  0  0  0  0  0  0  0  0  0  0  0
   37.9370   25.1020   36.3490 N   0  0  0  0  0  0  0  0  0  0  0  0
   39.1720   24.7300   35.9240 C   0  0  0  0  0  0  0  0  0  0  0  0
   40.1910   25.4310   35.2040 N   0  0  0  0  0  0  0  0  0  0  0  0
   41.3500   24.9240   34.8340 N   0  0  0  0  0  0  0  0  0  0  0  0
   42.0800   25.8460   34.1750 C   0  0  0  0  0  0  0  0  0  0  0  0
   41.2970   26.9940   34.1460 C   0  0  0  0  0  0  0  0  0  0  0  0
   40.1010   26.7200   34.8020 C   0  0  0  0  0  0  0  0  0  0  0  0
   43.0567   21.0819   37.7080 H   0  0  0  0  0  0  0  0  0  0  0  0
   41.0962   22.5544   38.1889 H   0  0  0  0  0  0  0  0  0  0  0  0
   42.0878   21.0523   33.5909 H   0  0  0  0  0  0  0  0  0  0  0  0
   38.1297   21.9858   37.3979 H   0  0  0  0  0  0  0  0  0  0  0  0
   36.3865   24.0261   37.4492 H   0  0  0  0  0  0  0  0  0  0  0  0
   43.0859   25.7167   33.7489 H   0  0  0  0  0  0  0  0  0  0  0  0
   41.5748   27.9530   33.6844 H   0  0  0  0  0  0  0  0  0  0  0  0
   39.2576   27.4081   34.9608 H   0  0  0  0  0  0  0  0  0  0  0  0
  1  2  2  0
  3  7  1  0
  3  2  1  0
  4  3  2  0
  5  4  1  0
  5  6  2  0
  6  1  1  0
  7  8  1  0
  8  9  2  0
 10  9  1  0
 11  7  1  0
 11 10  2  0
 12 11  1  0
 13 12  1  0
 14 13  2  0
 15 14  1  0
 15 16  2  0
 16 12  1  0
  1 17  1  0
  2 18  1  0
  5 19  1  0
  8 20  1  0
  9 21  1  0
 14 22  1  0
 15 23  1  0
 16 24  1  0
M  ISO  8  17  14  18  14  19  14  20  14  21  14  22  14  23  14  24  14
M  END
>  <minimizedAffinity>  (1) 
-4.17310238

>  <minimizedRMSD>  (1) 
1.06887949

$$$$
