
     RDKit          3D

 25 27  0  0  0  0  0  0  0  0999 V2000
   42.8810   22.6660   35.4220 C   0  0  0  0  0  0  0  0  0  0  0  0
   41.9010   23.2200   36.2680 C   0  0  0  0  0  0  0  0  0  0  0  0
   40.5640   22.9650   35.9290 C   0  0  0  0  0  0  0  0  0  0  0  0
   40.2750   22.2170   34.8330 N   0  0  0  0  0  0  0  0  0  0  0  0
   41.2670   21.7080   34.0540 C   0  0  0  0  0  0  0  0  0  0  0  0
   42.5690   21.9370   34.3560 N   0  0  0  0  0  0  0  0  0  0  0  0
   39.4900   23.4930   36.7370 N   0  0  0  0  0  0  0  0  0  0  0  0
   39.2590   22.9990   37.9710 C   0  0  0  0  0  0  0  0  0  0  0  0
   38.1870   23.7200   38.4340 C   0  0  0  0  0  0  0  0  0  0  0  0
   37.8020   24.6130   37.4960 N   0  0  0  0  0  0  0  0  0  0  0  0
   38.6250   24.4690   36.4220 C   0  0  0  0  0  0  0  0  0  0  0  0
   38.6340   25.1810   35.1630 C   0  0  0  0  0  0  0  0  0  0  0  0
   39.3900   26.3330   35.0150 C   0  0  0  0  0  0  0  0  0  0  0  0
   39.3700   26.9770   33.8060 C   0  0  0  0  0  0  0  0  0  0  0  0
   38.6410   26.5080   32.7930 N   0  0  0  0  0  0  0  0  0  0  0  0
   37.8990   25.3890   32.9180 C   0  0  0  0  0  0  0  0  0  0  0  0
   37.9380   24.7870   34.1010 N   0  0  0  0  0  0  0  0  0  0  0  0
   43.9421   22.8430   35.6518 H   0  0  0  0  0  0  0  0  0  0  0  0
   42.1700   23.8214   37.1489 H   0  0  0  0  0  0  0  0  0  0  0  0
   41.0107   21.1048   33.1706 H   0  0  0  0  0  0  0  0  0  0  0  0
   39.8068   22.1983   38.4895 H   0  0  0  0  0  0  0  0  0  0  0  0
   37.7135   23.5906   39.4184 H   0  0  0  0  0  0  0  0  0  0  0  0
   39.9925   26.7215   35.8493 H   0  0  0  0  0  0  0  0  0  0  0  0
   39.9632   27.8932   33.6692 H   0  0  0  0  0  0  0  0  0  0  0  0
   37.2951   24.9967   32.0865 H   0  0  0  0  0  0  0  0  0  0  0  0
  1  2  2  0
  3  2  1  0
  3  7  1  0
  4  3  2  0
  5  6  2  0
  5  4  1  0
  6  1  1  0
  7  8  1  0
  8  9  2  0
 10  9  1  0
 11  7  1  0
 11 10  2  0
 12 11  1  0
 13 12  2  0
 14 13  1  0
 15 16  1  0
 15 14  2  0
 16 17  2  0
 17 12  1  0
  1 18  1  0
  2 19  1  0
  5 20  1  0
  8 21  1  0
  9 22  1  0
 13 23  1  0
 14 24  1  0
 16 25  1  0
M  ISO  8  18  14  19  14  20  14  21  14  22  14  23  14  24  14  25  14
M  END
>  <minimizedAffinity>  (1) 
-4.04968596

>  <minimizedRMSD>  (1) 
2.9429431

$$$$
