
     RDKit          3D

 23 25  0  0  0  0  0  0  0  0999 V2000
   42.4080   21.3980   36.9010 C   0  0  0  0  0  0  0  0  0  0  0  0
   41.3090   22.2190   37.1740 C   0  0  0  0  0  0  0  0  0  0  0  0
   40.4870   22.5870   36.1060 C   0  0  0  0  0  0  0  0  0  0  0  0
   40.7960   22.1320   34.8690 N   0  0  0  0  0  0  0  0  0  0  0  0
   41.8620   21.3430   34.6310 C   0  0  0  0  0  0  0  0  0  0  0  0
   42.6720   20.9740   35.6530 N   0  0  0  0  0  0  0  0  0  0  0  0
   39.3380   23.4290   36.3120 N   0  0  0  0  0  0  0  0  0  0  0  0
   38.2630   22.9580   36.9830 C   0  0  0  0  0  0  0  0  0  0  0  0
   37.3730   23.9870   37.0010 C   0  0  0  0  0  0  0  0  0  0  0  0
   37.9100   25.0490   36.3530 N   0  0  0  0  0  0  0  0  0  0  0  0
   39.1500   24.6930   35.9190 C   0  0  0  0  0  0  0  0  0  0  0  0
   40.1030   25.4870   35.1820 N   0  0  0  0  0  0  0  0  0  0  0  0
   40.1610   26.8130   34.8680 C   0  0  0  0  0  0  0  0  0  0  0  0
   41.2940   26.9930   34.1520 N   0  0  0  0  0  0  0  0  0  0  0  0
   41.8860   25.7670   34.0550 C   0  0  0  0  0  0  0  0  0  0  0  0
   41.1510   24.8220   34.6940 N   0  0  0  0  0  0  0  0  0  0  0  0
   43.0701   21.0929   37.7247 H   0  0  0  0  0  0  0  0  0  0  0  0
   41.0986   22.5640   38.1971 H   0  0  0  0  0  0  0  0  0  0  0  0
   42.0746   20.9987   33.6081 H   0  0  0  0  0  0  0  0  0  0  0  0
   38.1352   21.9570   37.4208 H   0  0  0  0  0  0  0  0  0  0  0  0
   36.3769   23.9610   37.4670 H   0  0  0  0  0  0  0  0  0  0  0  0
   39.4284   27.5859   35.1436 H   0  0  0  0  0  0  0  0  0  0  0  0
   42.8322   25.5712   33.5293 H   0  0  0  0  0  0  0  0  0  0  0  0
  1  2  2  0
  3  7  1  0
  3  2  1  0
  4  3  2  0
  5  4  1  0
  5  6  2  0
  6  1  1  0
  7  8  1  0
  8  9  2  0
 10  9  1  0
 11  7  1  0
 11 10  2  0
 12 11  1  0
 13 12  1  0
 14 13  2  0
 15 14  1  0
 15 16  2  0
 16 12  1  0
  1 17  1  0
  2 18  1  0
  5 19  1  0
  8 20  1  0
  9 21  1  0
 13 22  1  0
 15 23  1  0
M  ISO  7  17  14  18  14  19  14  20  14  21  14  22  14  23  14
M  END
>  <minimizedAffinity>  (1) 
-4.01416111

>  <minimizedRMSD>  (1) 
1.09778404

$$$$
