
     RDKit          3D

 22 24  0  0  0  0  0  0  0  0999 V2000
   43.0360   22.5270   36.1310 C   0  0  0  0  0  0  0  0  0  0  0  0
   41.8720   23.1100   36.6450 C   0  0  0  0  0  0  0  0  0  0  0  0
   40.7630   23.1640   35.8170 C   0  0  0  0  0  0  0  0  0  0  0  0
   40.8460   22.6540   34.5560 N   0  0  0  0  0  0  0  0  0  0  0  0
   41.9870   22.0980   34.0940 C   0  0  0  0  0  0  0  0  0  0  0  0
   43.0850   22.0370   34.8890 N   0  0  0  0  0  0  0  0  0  0  0  0
   39.5210   23.7480   36.2690 N   0  0  0  0  0  0  0  0  0  0  0  0
   38.7770   23.1080   37.2080 C   0  0  0  0  0  0  0  0  0  0  0  0
   37.6900   23.9410   37.3850 C   0  0  0  0  0  0  0  0  0  0  0  0
   37.8000   25.0170   36.5820 N   0  0  0  0  0  0  0  0  0  0  0  0
   38.9530   24.8940   35.8800 C   0  0  0  0  0  0  0  0  0  0  0  0
   39.5520   25.7690   34.8810 C   0  0  0  0  0  0  0  0  0  0  0  0
   40.5020   26.7050   34.9480 N   0  0  0  0  0  0  0  0  0  0  0  0
   40.6950   27.2250   33.7560 O   0  0  0  0  0  0  0  0  0  0  0  0
   39.8920   26.6530   32.8930 C   0  0  0  0  0  0  0  0  0  0  0  0
   39.1850   25.7540   33.5850 N   0  0  0  0  0  0  0  0  0  0  0  0
   43.9329   22.4708   36.7654 H   0  0  0  0  0  0  0  0  0  0  0  0
   41.8392   23.5106   37.6689 H   0  0  0  0  0  0  0  0  0  0  0  0
   42.0262   21.6940   33.0716 H   0  0  0  0  0  0  0  0  0  0  0  0
   38.9900   22.1522   37.7090 H   0  0  0  0  0  0  0  0  0  0  0  0
   36.8574   23.7537   38.0790 H   0  0  0  0  0  0  0  0  0  0  0  0
   39.8152   26.8688   31.8171 H   0  0  0  0  0  0  0  0  0  0  0  0
  1  2  2  0
  3  7  1  0
  3  2  1  0
  4  3  2  0
  5  4  1  0
  5  6  2  0
  6  1  1  0
  7  8  1  0
  8  9  2  0
 10  9  1  0
 11  7  1  0
 11 10  2  0
 12 13  2  0
 12 11  1  0
 14 13  1  0
 15 16  2  0
 15 14  1  0
 16 12  1  0
  1 17  1  0
  2 18  1  0
  5 19  1  0
  8 20  1  0
  9 21  1  0
 15 22  1  0
M  ISO  6  17  14  18  14  19  14  20  14  21  14  22  14
M  END
>  <minimizedAffinity>  (1) 
-3.65260935

>  <minimizedRMSD>  (1) 
1.96060002

$$$$
