
     RDKit          3D

 20 21  0  0  0  0  0  0  0  0999 V2000
   42.5830   21.6700   36.6100 C   0  0  0  0  0  0  0  0  0  0  0  0
   41.4850   22.4750   36.9820 C   0  0  0  0  0  0  0  0  0  0  0  0
   40.5470   22.7580   35.9890 C   0  0  0  0  0  0  0  0  0  0  0  0
   40.7450   22.2540   34.7580 N   0  0  0  0  0  0  0  0  0  0  0  0
   41.7940   21.4890   34.4170 C   0  0  0  0  0  0  0  0  0  0  0  0
   42.7290   21.1960   35.3690 N   0  0  0  0  0  0  0  0  0  0  0  0
   39.4070   23.5640   36.2770 N   0  0  0  0  0  0  0  0  0  0  0  0
   38.4210   23.1270   37.0680 C   0  0  0  0  0  0  0  0  0  0  0  0
   37.4970   24.1360   37.1310 C   0  0  0  0  0  0  0  0  0  0  0  0
   37.9410   25.1710   36.3730 N   0  0  0  0  0  0  0  0  0  0  0  0
   39.1410   24.8180   35.8330 C   0  0  0  0  0  0  0  0  0  0  0  0
   40.0510   25.5530   34.9450 C   0  0  0  0  0  0  0  0  0  0  0  0
   41.3900   25.4180   35.2550 F   0  0  0  0  0  0  0  0  0  0  0  0
   39.9470   25.1050   33.6210 F   0  0  0  0  0  0  0  0  0  0  0  0
   39.8010   26.9160   34.9050 F   0  0  0  0  0  0  0  0  0  0  0  0
   43.3433   21.4248   37.3661 H   0  0  0  0  0  0  0  0  0  0  0  0
   41.3742   22.8608   38.0061 H   0  0  0  0  0  0  0  0  0  0  0  0
   41.8987   21.1056   33.3913 H   0  0  0  0  0  0  0  0  0  0  0  0
   38.3635   22.1496   37.5693 H   0  0  0  0  0  0  0  0  0  0  0  0
   36.5554   24.1118   37.6991 H   0  0  0  0  0  0  0  0  0  0  0  0
  1  2  2  0
  3  7  1  0
  3  2  1  0
  4  3  2  0
  5  4  1  0
  5  6  2  0
  6  1  1  0
  7  8  1  0
  8  9  2  0
 10  9  1  0
 11  7  1  0
 11 10  2  0
 12 13  1  0
 12 11  1  0
 14 12  1  0
 15 12  1  0
  1 16  1  0
  2 17  1  0
  5 18  1  0
  8 19  1  0
  9 20  1  0
M  ISO  5  16  14  17  14  18  14  19  14  20  14
M  END
>  <minimizedAffinity>  (1) 
-3.62009978

>  <minimizedRMSD>  (1) 
1.18776333

$$$$
