
     RDKit          3D

 37 40  0  0  0  0  0  0  0  0999 V2000
   38.0110   27.2420   34.0740 C   0  0  0  0  0  0  0  0  0  0  0  0
   36.8290   27.7970   34.4970 C   0  0  0  0  0  0  0  0  0  0  0  0
   35.9450   28.5140   33.6890 C   0  0  0  0  0  0  0  0  0  0  0  0
   36.3140   28.6510   32.3970 N   0  0  0  0  0  0  0  0  0  0  0  0
   37.4770   28.1130   31.9500 C   0  0  0  0  0  0  0  0  0  0  0  0
   38.2840   27.4320   32.7880 N   0  0  0  0  0  0  0  0  0  0  0  0
   37.8320   28.2790   30.5820 N   0  0  0  0  0  0  0  0  0  0  0  0
   37.0720   28.7960   29.6160 C   0  0  0  0  0  0  0  0  0  0  0  0
   37.7270   28.8000   28.4410 N   0  0  0  0  0  0  0  0  0  0  0  0
   38.9540   28.2640   28.6600 C   0  0  0  0  0  0  0  0  0  0  0  0
   39.9840   28.0570   27.7630 C   0  0  0  0  0  0  0  0  0  0  0  0
   41.0850   27.4980   28.3110 N   0  0  0  0  0  0  0  0  0  0  0  0
   41.1390   27.1850   29.6140 C   0  0  0  0  0  0  0  0  0  0  0  0
   40.1240   27.3920   30.4840 N   0  0  0  0  0  0  0  0  0  0  0  0
   39.0050   27.9390   30.0210 C   0  0  0  0  0  0  0  0  0  0  0  0
   38.8710   26.4980   35.0340 C   0  0  0  0  0  0  0  0  0  0  0  0
   38.7620   25.0150   34.8870 C   0  0  0  0  0  0  0  0  0  0  0  0
   39.7380   22.8110   37.7360 C   0  0  0  0  0  0  0  0  0  0  0  0
   38.8540   23.2480   38.7510 C   0  0  0  0  0  0  0  0  0  0  0  0
   37.9530   24.2800   38.4320 C   0  0  0  0  0  0  0  0  0  0  0  0
   37.9790   24.8000   37.1740 N   0  0  0  0  0  0  0  0  0  0  0  0
   38.8470   24.3490   36.2260 C   0  0  0  0  0  0  0  0  0  0  0  0
   39.7030   23.3790   36.5050 N   0  0  0  0  0  0  0  0  0  0  0  0
   39.8160   28.4290   26.4000 N   0  0  0  0  0  0  0  0  0  0  0  0
   36.5573   27.6666   35.5549 H   0  0  0  0  0  0  0  0  0  0  0  0
   35.0088   28.9397   34.0791 H   0  0  0  0  0  0  0  0  0  0  0  0
   36.0473   29.1690   29.7605 H   0  0  0  0  0  0  0  0  0  0  0  0
   42.0649   26.7325   29.9986 H   0  0  0  0  0  0  0  0  0  0  0  0
   39.9180   26.7909   34.8665 H   0  0  0  0  0  0  0  0  0  0  0  0
   38.5303   26.7542   36.0480 H   0  0  0  0  0  0  0  0  0  0  0  0
   37.7975   24.7672   34.4197 H   0  0  0  0  0  0  0  0  0  0  0  0
   39.5904   24.6574   34.2578 H   0  0  0  0  0  0  0  0  0  0  0  0
   40.4576   22.0061   37.9467 H   0  0  0  0  0  0  0  0  0  0  0  0
   38.8709   22.7966   39.7540 H   0  0  0  0  0  0  0  0  0  0  0  0
   37.2432   24.6585   39.1823 H   0  0  0  0  0  0  0  0  0  0  0  0
   38.9299   28.8503   26.0866 H   0  0  0  0  0  0  0  0  0  0  0  0
   40.5805   28.2770   25.7267 H   0  0  0  0  0  0  0  0  0  0  0  0
  1  2  2  0
  1 16  1  0
  3  2  1  0
  4  3  2  0
  5  4  1  0
  5  6  2  0
  6  1  1  0
  7  5  1  0
  8  7  1  0
  9 10  1  0
  9  8  2  0
 10 15  2  0
 11 12  2  0
 11 10  1  0
 12 13  1  0
 13 14  2  0
 15 14  1  0
 15  7  1  0
 17 16  1  0
 17 22  1  0
 18 19  2  0
 20 19  1  0
 21 20  2  0
 22 23  2  0
 22 21  1  0
 23 18  1  0
 24 11  1  0
  2 25  1  0
  3 26  1  0
  8 27  1  0
 13 28  1  0
 16 29  1  0
 16 30  1  0
 17 31  1  0
 17 32  1  0
 18 33  1  0
 19 34  1  0
 20 35  1  0
 24 36  1  0
 24 37  1  0
M  ISO  8  25  14  26  14  27  14  28  14  29   8  30   8  31   8  32   8
M  ISO  3  33  14  34  14  35  14
M  END
>  <minimizedAffinity>  (1) 
-5.6709156

>  <minimizedRMSD>  (1) 
0.851212859

$$$$
