
     RDKit          3D

 37 40  0  0  0  0  0  0  0  0999 V2000
   39.0780   22.7450   36.8780 C   0  0  0  0  0  0  0  0  0  0  0  0
   38.0490   22.6640   35.9340 C   0  0  0  0  0  0  0  0  0  0  0  0
   38.3890   22.4280   34.6010 C   0  0  0  0  0  0  0  0  0  0  0  0
   39.6860   22.2940   34.3060 N   0  0  0  0  0  0  0  0  0  0  0  0
   40.6780   22.3720   35.2140 C   0  0  0  0  0  0  0  0  0  0  0  0
   40.3680   22.6000   36.5120 N   0  0  0  0  0  0  0  0  0  0  0  0
   37.3800   22.3310   33.5820 N   0  0  0  0  0  0  0  0  0  0  0  0
   36.5470   21.2860   33.5320 C   0  0  0  0  0  0  0  0  0  0  0  0
   35.7370   21.5120   32.4530 C   0  0  0  0  0  0  0  0  0  0  0  0
   36.0950   22.6850   31.8760 N   0  0  0  0  0  0  0  0  0  0  0  0
   37.1240   23.2010   32.5810 C   0  0  0  0  0  0  0  0  0  0  0  0
   37.9150   24.4450   32.4170 C   0  0  0  0  0  0  0  0  0  0  0  0
   37.1860   25.5730   33.1310 C   0  0  0  0  0  0  0  0  0  0  0  0
   36.7790   26.6560   32.2020 C   0  0  0  0  0  0  0  0  0  0  0  0
   36.8150   26.4840   30.8170 C   0  0  0  0  0  0  0  0  0  0  0  0
   36.4110   27.5980   30.1830 N   0  0  0  0  0  0  0  0  0  0  0  0
   36.1060   28.5130   31.1320 C   0  0  0  0  0  0  0  0  0  0  0  0
   35.6390   29.8320   31.0780 C   0  0  0  0  0  0  0  0  0  0  0  0
   35.4040   30.5550   32.2500 C   0  0  0  0  0  0  0  0  0  0  0  0
   35.6500   29.9150   33.4720 C   0  0  0  0  0  0  0  0  0  0  0  0
   36.1170   28.5970   33.5640 C   0  0  0  0  0  0  0  0  0  0  0  0
   36.3260   27.9510   32.3650 C   0  0  0  0  0  0  0  0  0  0  0  0
   38.8316   22.9296   37.9340 H   0  0  0  0  0  0  0  0  0  0  0  0
   36.9977   22.7834   36.2348 H   0  0  0  0  0  0  0  0  0  0  0  0
   41.7268   22.2519   34.9047 H   0  0  0  0  0  0  0  0  0  0  0  0
   36.5190   20.4247   34.2156 H   0  0  0  0  0  0  0  0  0  0  0  0
   34.9280   20.8504   32.1100 H   0  0  0  0  0  0  0  0  0  0  0  0
   38.9143   24.3110   32.8569 H   0  0  0  0  0  0  0  0  0  0  0  0
   38.0285   24.6836   31.3492 H   0  0  0  0  0  0  0  0  0  0  0  0
   36.2861   25.1635   33.6131 H   0  0  0  0  0  0  0  0  0  0  0  0
   37.8760   26.0051   33.8707 H   0  0  0  0  0  0  0  0  0  0  0  0
   37.1319   25.5596   30.3119 H   0  0  0  0  0  0  0  0  0  0  0  0
   36.3457   27.7307   29.1637 H   0  0  0  0  0  0  0  0  0  0  0  0
   35.4551   30.3042   30.1017 H   0  0  0  0  0  0  0  0  0  0  0  0
   35.0382   31.5918   32.2147 H   0  0  0  0  0  0  0  0  0  0  0  0
   35.4681   30.4731   34.4023 H   0  0  0  0  0  0  0  0  0  0  0  0
   36.3048   28.1091   34.5318 H   0  0  0  0  0  0  0  0  0  0  0  0
  2  1  2  0
  3  2  1  0
  4  3  2  0
  4  5  1  0
  5  6  2  0
  6  1  1  0
  7  3  1  0
  8  7  1  0
  9  8  2  0
 10  9  1  0
 10 11  2  0
 11  7  1  0
 12 11  1  0
 12 13  1  0
 14 22  1  0
 14 13  1  0
 15 14  2  0
 16 15  1  0
 16 17  1  0
 17 22  2  0
 18 17  1  0
 18 19  2  0
 19 20  1  0
 20 21  2  0
 22 21  1  0
  1 23  1  0
  2 24  1  0
  5 25  1  0
  8 26  1  0
  9 27  1  0
 12 28  1  0
 12 29  1  0
 13 30  1  0
 13 31  1  0
 15 32  1  0
 16 33  1  0
 18 34  1  0
 19 35  1  0
 20 36  1  0
 21 37  1  0
M  ISO  8  23  14  24  14  25  14  26  14  27  14  28   8  29   8  30   8
M  ISO  7  31   8  32  14  33   9  34  14  35  14  36  14  37  14
M  END
>  <minimizedAffinity>  (1) 
-5.16012955

>  <minimizedRMSD>  (1) 
3.2444067

$$$$
