
     RDKit          3D

 25 26  0  0  0  0  0  0  0  0999 V2000
   39.5600   22.7330   37.5790 C   0  0  0  0  0  0  0  0  0  0  0  0
   38.7240   23.1530   36.5320 C   0  0  0  0  0  0  0  0  0  0  0  0
   39.3330   23.5900   35.3620 C   0  0  0  0  0  0  0  0  0  0  0  0
   40.6720   23.5780   35.3150 N   0  0  0  0  0  0  0  0  0  0  0  0
   41.4660   23.1720   36.3280 C   0  0  0  0  0  0  0  0  0  0  0  0
   40.8910   22.7450   37.4720 N   0  0  0  0  0  0  0  0  0  0  0  0
   38.5580   24.0360   34.2390 N   0  0  0  0  0  0  0  0  0  0  0  0
   37.8290   23.1780   33.5210 C   0  0  0  0  0  0  0  0  0  0  0  0
   37.2350   23.9340   32.5520 C   0  0  0  0  0  0  0  0  0  0  0  0
   37.6050   25.2220   32.6910 N   0  0  0  0  0  0  0  0  0  0  0  0
   38.4400   25.2920   33.7550 C   0  0  0  0  0  0  0  0  0  0  0  0
   39.1550   26.4150   34.3820 C   0  0  0  0  0  0  0  0  0  0  0  0
   38.1470   27.3510   35.0410 C   0  0  0  0  0  0  0  0  0  0  0  0
   38.6410   27.6230   36.3810 N   0  0  0  0  0  0  0  0  0  0  0  0
   39.1042   22.3830   38.5169 H   0  0  0  0  0  0  0  0  0  0  0  0
   37.6289   23.1367   36.6341 H   0  0  0  0  0  0  0  0  0  0  0  0
   42.5609   23.1888   36.2233 H   0  0  0  0  0  0  0  0  0  0  0  0
   37.7286   22.0938   33.6770 H   0  0  0  0  0  0  0  0  0  0  0  0
   36.5571   23.5499   31.7755 H   0  0  0  0  0  0  0  0  0  0  0  0
   39.8497   26.0292   35.1426 H   0  0  0  0  0  0  0  0  0  0  0  0
   39.7211   26.9646   33.6156 H   0  0  0  0  0  0  0  0  0  0  0  0
   38.0690   28.2872   34.4687 H   0  0  0  0  0  0  0  0  0  0  0  0
   37.1468   26.8943   35.0739 H   0  0  0  0  0  0  0  0  0  0  0  0
   37.9736   27.2555   37.0741 H   0  0  0  0  0  0  0  0  0  0  0  0
   39.5553   27.1664   36.5091 H   0  0  0  0  0  0  0  0  0  0  0  0
  2  1  2  0
  3  2  1  0
  4  3  2  0
  4  5  1  0
  5  6  2  0
  6  1  1  0
  7  3  1  0
  8  7  1  0
  9 10  1  0
  9  8  2  0
 10 11  2  0
 11  7  1  0
 11 12  1  0
 12 13  1  0
 13 14  1  0
  1 15  1  0
  2 16  1  0
  5 17  1  0
  8 18  1  0
  9 19  1  0
 12 20  1  0
 12 21  1  0
 13 22  1  0
 13 23  1  0
 14 24  1  0
 14 25  1  0
M  ISO  8  15  14  16  14  17  14  18  14  19  14  20   8  21   8  22   8
M  ISO  3  23   8  24   5  25   5
M  END
>  <minimizedAffinity>  (1) 
-3.73438954

>  <minimizedRMSD>  (1) 
0.643444955

$$$$
