
     RDKit          3D

 38 41  0  0  0  0  0  0  0  0999 V2000
   38.0070   27.2250   34.0320 C   0  0  0  0  0  0  0  0  0  0  0  0
   36.8470   27.8090   34.4740 C   0  0  0  0  0  0  0  0  0  0  0  0
   35.9850   28.5450   33.6450 C   0  0  0  0  0  0  0  0  0  0  0  0
   36.3490   28.6640   32.3430 N   0  0  0  0  0  0  0  0  0  0  0  0
   37.4900   28.0920   31.8950 C   0  0  0  0  0  0  0  0  0  0  0  0
   38.2880   27.3900   32.7450 N   0  0  0  0  0  0  0  0  0  0  0  0
   37.8720   28.2160   30.5300 N   0  0  0  0  0  0  0  0  0  0  0  0
   37.1780   28.8610   29.5750 C   0  0  0  0  0  0  0  0  0  0  0  0
   37.8410   28.7760   28.3880 N   0  0  0  0  0  0  0  0  0  0  0  0
   38.9600   28.0650   28.6320 C   0  0  0  0  0  0  0  0  0  0  0  0
   39.9470   27.7240   27.7180 C   0  0  0  0  0  0  0  0  0  0  0  0
   39.8770   28.0690   26.5180 O   0  0  0  0  0  0  0  0  0  0  0  0
   40.9750   27.0000   28.2200 N   0  0  0  0  0  0  0  0  0  0  0  0
   40.9950   26.6580   29.5210 C   0  0  0  0  0  0  0  0  0  0  0  0
   42.1010   25.8980   29.9890 N   0  0  0  0  0  0  0  0  0  0  0  0
   40.0340   26.9900   30.4120 N   0  0  0  0  0  0  0  0  0  0  0  0
   38.9920   27.7050   29.9760 C   0  0  0  0  0  0  0  0  0  0  0  0
   38.8500   26.4650   34.9940 C   0  0  0  0  0  0  0  0  0  0  0  0
   38.7030   24.9850   34.8750 C   0  0  0  0  0  0  0  0  0  0  0  0
   39.7200   22.8210   37.7360 C   0  0  0  0  0  0  0  0  0  0  0  0
   38.8680   23.2550   38.7530 C   0  0  0  0  0  0  0  0  0  0  0  0
   37.9510   24.2880   38.4480 C   0  0  0  0  0  0  0  0  0  0  0  0
   37.9570   24.7950   37.1760 N   0  0  0  0  0  0  0  0  0  0  0  0
   38.8070   24.3360   36.2250 C   0  0  0  0  0  0  0  0  0  0  0  0
   39.6640   23.3720   36.5090 N   0  0  0  0  0  0  0  0  0  0  0  0
   36.5777   27.6946   35.5344 H   0  0  0  0  0  0  0  0  0  0  0  0
   35.0619   29.0018   34.0312 H   0  0  0  0  0  0  0  0  0  0  0  0
   36.2199   29.3788   29.7293 H   0  0  0  0  0  0  0  0  0  0  0  0
   41.7463   26.7093   27.6023 H   0  0  0  0  0  0  0  0  0  0  0  0
   42.1512   25.6175   30.9788 H   0  0  0  0  0  0  0  0  0  0  0  0
   42.8523   25.6277   29.3384 H   0  0  0  0  0  0  0  0  0  0  0  0
   39.9036   26.7256   34.8150 H   0  0  0  0  0  0  0  0  0  0  0  0
   38.5172   26.7427   36.0050 H   0  0  0  0  0  0  0  0  0  0  0  0
   37.7213   24.7528   34.4364 H   0  0  0  0  0  0  0  0  0  0  0  0
   39.5069   24.5982   34.2314 H   0  0  0  0  0  0  0  0  0  0  0  0
   40.4455   22.0196   37.9395 H   0  0  0  0  0  0  0  0  0  0  0  0
   38.9083   22.8088   39.7576 H   0  0  0  0  0  0  0  0  0  0  0  0
   37.2551   24.6718   39.2086 H   0  0  0  0  0  0  0  0  0  0  0  0
  1  2  2  0
  1 18  1  0
  3  2  1  0
  4  3  2  0
  5  4  1  0
  5  6  2  0
  6  1  1  0
  7  5  1  0
  8  7  1  0
  9 10  1  0
  9  8  2  0
 10 17  2  0
 11 13  1  0
 11 10  1  0
 12 11  2  0
 13 14  1  0
 14 15  1  0
 14 16  2  0
 17 16  1  0
 17  7  1  0
 19 18  1  0
 19 24  1  0
 20 21  2  0
 22 21  1  0
 23 22  2  0
 24 25  2  0
 24 23  1  0
 25 20  1  0
  2 26  1  0
  3 27  1  0
  8 28  1  0
 13 29  1  0
 15 30  1  0
 15 31  1  0
 18 32  1  0
 18 33  1  0
 19 34  1  0
 19 35  1  0
 20 36  1  0
 21 37  1  0
 22 38  1  0
M  ISO  8  26  14  27  14  28  14  29   9  32   8  33   8  34   8  35   8
M  ISO  3  36  14  37  14  38  14
M  END
>  <minimizedAffinity>  (1) 
-5.58682442

>  <minimizedRMSD>  (1) 
0.923810601

$$$$
