
     RDKit          3D

 30 31  0  0  0  0  0  0  0  0999 V2000
   40.4210   22.1700   37.1610 C   0  0  0  0  0  0  0  0  0  0  0  0
   39.4280   22.4110   36.2110 C   0  0  0  0  0  0  0  0  0  0  0  0
   39.7160   23.2190   35.1280 C   0  0  0  0  0  0  0  0  0  0  0  0
   40.9680   23.7280   35.0660 N   0  0  0  0  0  0  0  0  0  0  0  0
   41.9290   23.4950   35.9840 C   0  0  0  0  0  0  0  0  0  0  0  0
   41.6560   22.7120   37.0380 N   0  0  0  0  0  0  0  0  0  0  0  0
   38.7650   23.5170   34.1140 N   0  0  0  0  0  0  0  0  0  0  0  0
   38.3630   22.5760   33.2530 C   0  0  0  0  0  0  0  0  0  0  0  0
   37.4680   23.1890   32.4320 C   0  0  0  0  0  0  0  0  0  0  0  0
   37.3420   24.4770   32.8030 N   0  0  0  0  0  0  0  0  0  0  0  0
   38.1600   24.6790   33.8610 C   0  0  0  0  0  0  0  0  0  0  0  0
   38.4250   25.8880   34.6680 C   0  0  0  0  0  0  0  0  0  0  0  0
   37.1140   26.5120   35.0970 C   0  0  0  0  0  0  0  0  0  0  0  0
   37.1410   27.8870   34.6080 N   0  0  0  0  0  0  0  0  0  0  0  0
   36.3690   28.2560   33.4640 C   0  0  0  0  0  0  0  0  0  0  0  0
   36.1810   27.4010   32.5430 N   0  0  0  0  0  0  0  0  0  0  0  0
   35.8200   29.5640   33.3510 N   0  0  0  0  0  0  0  0  0  0  0  0
   36.4990   26.4370   32.4640 H   0  0  0  0  0  0  0  0  0  0  0  0
   40.1967   21.5281   38.0256 H   0  0  0  0  0  0  0  0  0  0  0  0
   38.4293   21.9637   36.3228 H   0  0  0  0  0  0  0  0  0  0  0  0
   42.9270   23.9431   35.8690 H   0  0  0  0  0  0  0  0  0  0  0  0
   38.6881   21.5258   33.2163 H   0  0  0  0  0  0  0  0  0  0  0  0
   36.9332   22.7094   31.5989 H   0  0  0  0  0  0  0  0  0  0  0  0
   39.0078   25.6123   35.5593 H   0  0  0  0  0  0  0  0  0  0  0  0
   38.9930   26.6116   34.0648 H   0  0  0  0  0  0  0  0  0  0  0  0
   36.2682   25.9658   34.6540 H   0  0  0  0  0  0  0  0  0  0  0  0
   36.9904   26.4763   36.1895 H   0  0  0  0  0  0  0  0  0  0  0  0
   37.7176   28.5924   35.0885 H   0  0  0  0  0  0  0  0  0  0  0  0
   35.2649   29.8197   32.5219 H   0  0  0  0  0  0  0  0  0  0  0  0
   35.9777   30.2551   34.0983 H   0  0  0  0  0  0  0  0  0  0  0  0
  2  1  2  0
  3  2  1  0
  4  3  2  0
  4  5  1  0
  5  6  2  0
  6  1  1  0
  7  3  1  0
  8  7  1  0
  9 10  1  0
  9  8  2  0
 10 11  2  0
 11  7  1  0
 11 12  1  0
 12 13  1  0
 14 13  1  0
 15 14  1  0
 16 15  2  0
 17 15  1  0
 18 16  1  0
  1 19  1  0
  2 20  1  0
  5 21  1  0
  8 22  1  0
  9 23  1  0
 12 24  1  0
 12 25  1  0
 13 26  1  0
 13 27  1  0
 14 28  1  0
 17 29  1  0
 17 30  1  0
M  ISO  8  19  14  20  14  21  14  22  14  23  14  24   8  25   8  26   8
M  ISO  1  27   8
M  END
>  <minimizedAffinity>  (1) 
-3.4778235

>  <minimizedRMSD>  (1) 
2.42094088

$$$$
