
     RDKit          3D

 31 33  0  0  0  0  0  0  0  0999 V2000
   38.1050   22.9380   34.7970 N   0  0  0  0  0  0  0  0  0  0  0  0
   37.3830   21.8920   34.4120 C   0  0  0  0  0  0  0  0  0  0  0  0
   37.2800   21.9790   33.0560 C   0  0  0  0  0  0  0  0  0  0  0  0
   37.9560   23.0950   32.6480 N   0  0  0  0  0  0  0  0  0  0  0  0
   38.4650   23.6850   33.7410 C   0  0  0  0  0  0  0  0  0  0  0  0
   37.9290   24.0770   38.3410 C   0  0  0  0  0  0  0  0  0  0  0  0
   37.5560   23.9000   36.9970 C   0  0  0  0  0  0  0  0  0  0  0  0
   38.4120   23.1640   36.1750 C   0  0  0  0  0  0  0  0  0  0  0  0
   39.5230   22.6840   36.7380 N   0  0  0  0  0  0  0  0  0  0  0  0
   39.8750   22.8550   38.0210 C   0  0  0  0  0  0  0  0  0  0  0  0
   39.0710   23.5600   38.8360 N   0  0  0  0  0  0  0  0  0  0  0  0
   39.2740   24.9110   33.8910 C   0  0  0  0  0  0  0  0  0  0  0  0
   38.3580   26.0930   34.1090 C   0  0  0  0  0  0  0  0  0  0  0  0
   36.9390   26.0370   32.9900 S   0  0  0  0  0  0  0  0  0  0  0  0
   36.6300   27.9220   29.6800 N   0  0  0  0  0  0  0  0  0  0  0  0
   36.3010   27.1770   30.7200 N   0  0  0  0  0  0  0  0  0  0  0  0
   37.3550   27.0480   31.5650 C   0  0  0  0  0  0  0  0  0  0  0  0
   38.4140   27.7690   31.0030 C   0  0  0  0  0  0  0  0  0  0  0  0
   37.9320   28.3140   29.8080 C   0  0  0  0  0  0  0  0  0  0  0  0
   36.9541   21.1119   35.0581 H   0  0  0  0  0  0  0  0  0  0  0  0
   36.7455   21.2735   32.4029 H   0  0  0  0  0  0  0  0  0  0  0  0
   37.2703   24.6536   39.0071 H   0  0  0  0  0  0  0  0  0  0  0  0
   36.6208   24.3272   36.6059 H   0  0  0  0  0  0  0  0  0  0  0  0
   40.8119   22.4229   38.4025 H   0  0  0  0  0  0  0  0  0  0  0  0
   39.9465   24.8036   34.7548 H   0  0  0  0  0  0  0  0  0  0  0  0
   39.8706   25.0713   32.9808 H   0  0  0  0  0  0  0  0  0  0  0  0
   37.9963   26.0797   35.1478 H   0  0  0  0  0  0  0  0  0  0  0  0
   38.9244   27.0140   33.9068 H   0  0  0  0  0  0  0  0  0  0  0  0
   36.0054   28.1676   28.8987 H   0  0  0  0  0  0  0  0  0  0  0  0
   39.4259   27.8846   31.4186 H   0  0  0  0  0  0  0  0  0  0  0  0
   38.4967   28.9415   29.1027 H   0  0  0  0  0  0  0  0  0  0  0  0
  1  8  1  0
  2  1  1  0
  3  2  2  0
  4  3  1  0
  4  5  2  0
  5 12  1  0
  5  1  1  0
  6 11  2  0
  7  6  1  0
  8  9  1  0
  8  7  2  0
  9 10  2  0
 10 11  1  0
 12 13  1  0
 14 13  1  0
 15 19  1  0
 15 16  1  0
 16 17  2  0
 17 14  1  0
 18 17  1  0
 19 18  2  0
  2 20  1  0
  3 21  1  0
  6 22  1  0
  7 23  1  0
 10 24  1  0
 12 25  1  0
 12 26  1  0
 13 27  1  0
 13 28  1  0
 15 29  1  0
 18 30  1  0
 19 31  1  0
M  ISO  8  20  14  21  14  22  14  23  14  24  14  25   8  26   8  27   8
M  ISO  4  28   8  29   9  30  14  31  14
M  END
>  <minimizedAffinity>  (1) 
-4.40400696

>  <minimizedRMSD>  (1) 
2.34790778

$$$$
