
     RDKit          3D

 31 33  0  0  0  0  0  0  0  0999 V2000
   38.5410   24.2540   34.7610 N   0  0  0  0  0  0  0  0  0  0  0  0
   38.0020   23.4070   33.8860 C   0  0  0  0  0  0  0  0  0  0  0  0
   38.0310   24.0500   32.6790 C   0  0  0  0  0  0  0  0  0  0  0  0
   38.5920   25.2750   32.8580 N   0  0  0  0  0  0  0  0  0  0  0  0
   38.9070   25.3990   34.1510 C   0  0  0  0  0  0  0  0  0  0  0  0
   37.8920   23.8510   38.4050 C   0  0  0  0  0  0  0  0  0  0  0  0
   37.6870   24.2300   37.0640 C   0  0  0  0  0  0  0  0  0  0  0  0
   38.6740   23.9030   36.1480 C   0  0  0  0  0  0  0  0  0  0  0  0
   39.7600   23.2490   36.5920 N   0  0  0  0  0  0  0  0  0  0  0  0
   39.9420   22.8950   37.8700 C   0  0  0  0  0  0  0  0  0  0  0  0
   39.0030   23.1960   38.7870 N   0  0  0  0  0  0  0  0  0  0  0  0
   39.5260   26.4890   34.9080 C   0  0  0  0  0  0  0  0  0  0  0  0
   38.4610   27.4140   35.4570 C   0  0  0  0  0  0  0  0  0  0  0  0
   36.8720   27.1440   34.6320 S   0  0  0  0  0  0  0  0  0  0  0  0
   36.7610   28.3260   33.2730 C   0  0  0  0  0  0  0  0  0  0  0  0
   35.6230   28.2830   32.3270 C   0  0  0  0  0  0  0  0  0  0  0  0
   35.6240   29.3200   33.3920 C   0  0  0  0  0  0  0  0  0  0  0  0
   37.6137   22.3985   34.0915 H   0  0  0  0  0  0  0  0  0  0  0  0
   37.6627   23.6444   31.7251 H   0  0  0  0  0  0  0  0  0  0  0  0
   37.1268   24.0960   39.1563 H   0  0  0  0  0  0  0  0  0  0  0  0
   36.7772   24.7657   36.7553 H   0  0  0  0  0  0  0  0  0  0  0  0
   40.8552   22.3602   38.1700 H   0  0  0  0  0  0  0  0  0  0  0  0
   40.1070   26.0682   35.7419 H   0  0  0  0  0  0  0  0  0  0  0  0
   40.1878   27.0597   34.2399 H   0  0  0  0  0  0  0  0  0  0  0  0
   38.3427   27.2258   36.5343 H   0  0  0  0  0  0  0  0  0  0  0  0
   38.7751   28.4528   35.2774 H   0  0  0  0  0  0  0  0  0  0  0  0
   37.8513   28.3469   33.1289 H   0  0  0  0  0  0  0  0  0  0  0  0
   35.7736   28.5775   31.2779 H   0  0  0  0  0  0  0  0  0  0  0  0
   34.9130   27.5040   32.0123 H   0  0  0  0  0  0  0  0  0  0  0  0
   34.9156   29.2513   34.2307 H   0  0  0  0  0  0  0  0  0  0  0  0
   35.5420   30.4167   33.4172 H   0  0  0  0  0  0  0  0  0  0  0  0
  1  8  1  0
  2  1  1  0
  3  4  1  0
  3  2  2  0
  4  5  2  0
  5  1  1  0
  5 12  1  0
  6 11  2  0
  7  6  1  0
  8  9  1  0
  8  7  2  0
  9 10  2  0
 10 11  1  0
 12 13  1  0
 14 13  1  0
 15 17  1  0
 15 14  1  0
 16 15  1  0
 16 17  1  0
  2 18  1  0
  3 19  1  0
  6 20  1  0
  7 21  1  0
 10 22  1  0
 12 23  1  0
 12 24  1  0
 13 25  1  0
 13 26  1  0
 15 27  1  0
 16 28  1  0
 16 29  1  0
 17 30  1  0
 17 31  1  0
M  ISO  8  18  14  19  14  20  14  21  14  22  14  23   8  24   8  25   8
M  ISO  6  26   8  27  13  28  13  29  13  30  13  31  13
M  END
>  <minimizedAffinity>  (1) 
-4.02032089

>  <minimizedRMSD>  (1) 
0.966440856

$$$$
