
     RDKit          3D

 35 38  0  0  0  0  0  0  0  0999 V2000
   38.1410   27.1110   33.9460 C   0  0  0  0  0  0  0  0  0  0  0  0
   37.0000   27.6710   34.4690 C   0  0  0  0  0  0  0  0  0  0  0  0
   36.0920   28.4410   33.7460 C   0  0  0  0  0  0  0  0  0  0  0  0
   36.3810   28.6310   32.4350 N   0  0  0  0  0  0  0  0  0  0  0  0
   37.5050   28.0880   31.8830 C   0  0  0  0  0  0  0  0  0  0  0  0
   38.3360   27.3520   32.6610 N   0  0  0  0  0  0  0  0  0  0  0  0
   37.7740   28.3120   30.4990 N   0  0  0  0  0  0  0  0  0  0  0  0
   37.1140   29.1320   29.6610 C   0  0  0  0  0  0  0  0  0  0  0  0
   37.6860   29.0550   28.4250 N   0  0  0  0  0  0  0  0  0  0  0  0
   38.7030   28.1820   28.5110 C   0  0  0  0  0  0  0  0  0  0  0  0
   39.5940   27.7620   27.5200 C   0  0  0  0  0  0  0  0  0  0  0  0
   40.5110   26.8600   27.9540 N   0  0  0  0  0  0  0  0  0  0  0  0
   40.5840   26.3980   29.1980 C   0  0  0  0  0  0  0  0  0  0  0  0
   39.7210   26.8040   30.1590 N   0  0  0  0  0  0  0  0  0  0  0  0
   38.7650   27.7120   29.8070 C   0  0  0  0  0  0  0  0  0  0  0  0
   39.0430   26.3050   34.8130 C   0  0  0  0  0  0  0  0  0  0  0  0
   38.7460   24.8360   34.7580 C   0  0  0  0  0  0  0  0  0  0  0  0
   39.7640   22.8240   37.7320 C   0  0  0  0  0  0  0  0  0  0  0  0
   38.8600   23.2880   38.7040 C   0  0  0  0  0  0  0  0  0  0  0  0
   37.9210   24.2770   38.3370 C   0  0  0  0  0  0  0  0  0  0  0  0
   37.9410   24.7250   37.0590 N   0  0  0  0  0  0  0  0  0  0  0  0
   38.8300   24.2510   36.1490 C   0  0  0  0  0  0  0  0  0  0  0  0
   39.7280   23.3210   36.4650 N   0  0  0  0  0  0  0  0  0  0  0  0
   36.7888   27.4988   35.5347 H   0  0  0  0  0  0  0  0  0  0  0  0
   35.1925   28.8701   34.2117 H   0  0  0  0  0  0  0  0  0  0  0  0
   36.2531   29.7621   29.9290 H   0  0  0  0  0  0  0  0  0  0  0  0
   39.5559   28.1285   26.4836 H   0  0  0  0  0  0  0  0  0  0  0  0
   41.3655   25.6672   29.4534 H   0  0  0  0  0  0  0  0  0  0  0  0
   40.0807   26.4658   34.4854 H   0  0  0  0  0  0  0  0  0  0  0  0
   38.8855   26.6350   35.8504 H   0  0  0  0  0  0  0  0  0  0  0  0
   37.7337   24.6817   34.3561 H   0  0  0  0  0  0  0  0  0  0  0  0
   39.4797   24.3384   34.1068 H   0  0  0  0  0  0  0  0  0  0  0  0
   40.5046   22.0550   37.9969 H   0  0  0  0  0  0  0  0  0  0  0  0
   38.8837   22.8890   39.7288 H   0  0  0  0  0  0  0  0  0  0  0  0
   37.1969   24.6707   39.0655 H   0  0  0  0  0  0  0  0  0  0  0  0
  1  2  2  0
  1 16  1  0
  3  2  1  0
  4  3  2  0
  5  4  1  0
  5  6  2  0
  6  1  1  0
  7  5  1  0
  8  7  1  0
  9 10  1  0
  9  8  2  0
 10 15  2  0
 11 12  2  0
 11 10  1  0
 12 13  1  0
 13 14  2  0
 15 14  1  0
 15  7  1  0
 17 16  1  0
 17 22  1  0
 18 19  2  0
 20 19  1  0
 21 20  2  0
 22 23  2  0
 22 21  1  0
 23 18  1  0
  2 24  1  0
  3 25  1  0
  8 26  1  0
 11 27  1  0
 13 28  1  0
 16 29  1  0
 16 30  1  0
 17 31  1  0
 17 32  1  0
 18 33  1  0
 19 34  1  0
 20 35  1  0
M  ISO  8  24  14  25  14  26  14  27  14  28  14  29   8  30   8  31   8
M  ISO  4  32   8  33  14  34  14  35  14
M  END
>  <minimizedAffinity>  (1) 
-5.45314503

>  <minimizedRMSD>  (1) 
0.646061897

$$$$
