
     RDKit          3D

 50 54  0  0  1  0  0  0  0  0999 V2000
   36.4990   30.3440   33.2460 N   0  0  0  0  0  0  0  0  0  0  0  0
   35.9860   30.7750   31.9800 C   0  0  0  0  0  0  0  0  0  0  0  0
   35.2090   29.5990   31.4400 C   0  0  0  0  0  0  0  0  0  0  0  0
   35.2490   28.5500   32.4920 C   0  0  0  0  0  0  0  0  0  0  0  0
   35.6440   29.3760   33.7980 C   0  0  2  0  0  0  0  0  0  0  0  0
   34.2750   29.6810   34.1970 C   0  0  0  0  0  0  0  0  0  0  0  0
   33.1160   29.1740   33.7310 N   0  0  0  0  0  0  0  0  0  0  0  0
   31.8940   29.4620   34.1770 C   0  0  0  0  0  0  0  0  0  0  0  0
   31.6730   30.3230   35.1810 N   0  0  0  0  0  0  0  0  0  0  0  0
   32.7470   30.9030   35.7370 C   0  0  0  0  0  0  0  0  0  0  0  0
   32.5190   31.8000   36.7380 C   0  0  0  0  0  0  0  0  0  0  0  0
   33.5890   32.4440   37.3200 C   0  0  0  0  0  0  0  0  0  0  0  0
   34.8720   32.1800   36.8880 C   0  0  0  0  0  0  0  0  0  0  0  0
   35.0060   31.2730   35.8870 C   0  0  0  0  0  0  0  0  0  0  0  0
   33.9890   30.5700   35.2370 C   0  0  0  0  0  0  0  0  0  0  0  0
   36.5310   28.1220   34.7740 S   0  0  0  0  0  0  0  0  0  0  0  0
   37.5480   27.2810   33.5720 C   0  0  0  0  0  0  0  0  0  0  0  0
   38.3600   26.1920   34.1910 C   0  0  0  0  0  0  0  0  0  0  0  0
   38.0270   23.7840   34.3790 N   0  0  0  0  0  0  0  0  0  0  0  0
   37.6890   22.7190   33.6640 C   0  0  0  0  0  0  0  0  0  0  0  0
   37.4550   23.1800   32.4010 C   0  0  0  0  0  0  0  0  0  0  0  0
   37.6540   24.5320   32.3670 N   0  0  0  0  0  0  0  0  0  0  0  0
   38.0120   24.8960   33.6120 C   0  0  0  0  0  0  0  0  0  0  0  0
   37.9330   24.0640   38.0940 C   0  0  0  0  0  0  0  0  0  0  0  0
   37.5410   24.2200   36.7450 C   0  0  0  0  0  0  0  0  0  0  0  0
   38.3490   23.6750   35.7750 C   0  0  0  0  0  0  0  0  0  0  0  0
   39.4470   23.0360   36.1800 N   0  0  0  0  0  0  0  0  0  0  0  0
   39.8210   22.8870   37.4610 C   0  0  0  0  0  0  0  0  0  0  0  0
   39.0590   23.4050   38.4270 N   0  0  0  0  0  0  0  0  0  0  0  0
   36.5598   31.1507   33.8835 H   0  0  0  0  0  0  0  0  0  0  0  0
   35.3262   31.6457   32.1085 H   0  0  0  0  0  0  0  0  0  0  0  0
   36.7909   31.0819   31.2959 H   0  0  0  0  0  0  0  0  0  0  0  0
   34.1689   29.8923   31.2348 H   0  0  0  0  0  0  0  0  0  0  0  0
   35.6423   29.2343   30.4970 H   0  0  0  0  0  0  0  0  0  0  0  0
   34.2669   28.0686   32.6094 H   0  0  0  0  0  0  0  0  0  0  0  0
   35.9485   27.7318   32.2655 H   0  0  0  0  0  0  0  0  0  0  0  0
   31.0306   28.9732   33.7019 H   0  0  0  0  0  0  0  0  0  0  0  0
   31.4932   32.0071   37.0769 H   0  0  0  0  0  0  0  0  0  0  0  0
   33.4199   33.1691   38.1297 H   0  0  0  0  0  0  0  0  0  0  0  0
   35.7446   32.6804   37.3332 H   0  0  0  0  0  0  0  0  0  0  0  0
   36.0326   31.0683   35.5492 H   0  0  0  0  0  0  0  0  0  0  0  0
   38.2277   28.0113   33.1086 H   0  0  0  0  0  0  0  0  0  0  0  0
   36.8831   26.8256   32.8233 H   0  0  0  0  0  0  0  0  0  0  0  0
   39.4271   26.3919   34.0139 H   0  0  0  0  0  0  0  0  0  0  0  0
   38.1511   26.1648   35.2706 H   0  0  0  0  0  0  0  0  0  0  0  0
   37.6131   21.6797   34.0161 H   0  0  0  0  0  0  0  0  0  0  0  0
   37.1532   22.5602   31.5438 H   0  0  0  0  0  0  0  0  0  0  0  0
   37.3042   24.4904   38.8895 H   0  0  0  0  0  0  0  0  0  0  0  0
   36.6199   24.7596   36.4798 H   0  0  0  0  0  0  0  0  0  0  0  0
   40.7445   22.3444   37.7115 H   0  0  0  0  0  0  0  0  0  0  0  0
  1  5  1  0
  2  1  1  0
  3  2  1  0
  3  4  1  0
  4  5  1  0
  5  6  1  0
  5 16  1  1
  6 15  2  0
  7  8  2  0
  7  6  1  0
  8  9  1  0
  9 10  2  0
 10 11  1  0
 11 12  2  0
 13 12  1  0
 14 13  2  0
 15 10  1  0
 15 14  1  0
 17 18  1  0
 17 16  1  0
 19 26  1  0
 20 19  1  0
 21 20  2  0
 22 21  1  0
 22 23  2  0
 23 18  1  0
 23 19  1  0
 24 29  2  0
 25 24  1  0
 26 27  1  0
 26 25  2  0
 27 28  2  0
 28 29  1  0
  1 30  1  0
  2 31  1  0
  2 32  1  0
  3 33  1  0
  3 34  1  0
  4 35  1  0
  4 36  1  0
  8 37  1  0
 11 38  1  0
 12 39  1  0
 13 40  1  0
 14 41  1  0
 17 42  1  0
 17 43  1  0
 18 44  1  0
 18 45  1  0
 20 46  1  0
 21 47  1  0
 24 48  1  0
 25 49  1  0
 28 50  1  0
M  ISO  8  30   5  31  13  32  13  33  13  34  13  35  13  36  13  37  14
M  ISO  8  38  14  39  14  40  14  41  14  42   8  43   8  44   8  45   8
M  ISO  5  46  14  47  14  48  14  49  14  50  14
M  END
>  <minimizedAffinity>  (1) 
-5.4470582

>  <minimizedRMSD>  (1) 
3.9440372

$$$$
