
     RDKit          3D

 45 47  0  0  1  0  0  0  0  0999 V2000
   38.1160   26.3520   34.5870 C   0  0  0  0  0  0  0  0  0  0  0  0
   38.0440   23.9130   34.6580 N   0  0  0  0  0  0  0  0  0  0  0  0
   37.8210   22.8600   33.8630 C   0  0  0  0  0  0  0  0  0  0  0  0
   37.5520   23.3630   32.6350 C   0  0  0  0  0  0  0  0  0  0  0  0
   37.6120   24.7190   32.6910 N   0  0  0  0  0  0  0  0  0  0  0  0
   37.9150   25.0610   33.9430 C   0  0  0  0  0  0  0  0  0  0  0  0
   37.9190   23.9960   38.3660 C   0  0  0  0  0  0  0  0  0  0  0  0
   37.5260   24.2040   37.0320 C   0  0  0  0  0  0  0  0  0  0  0  0
   38.3610   23.7450   36.0390 C   0  0  0  0  0  0  0  0  0  0  0  0
   39.4900   23.1320   36.4120 N   0  0  0  0  0  0  0  0  0  0  0  0
   39.8700   22.9310   37.6830 C   0  0  0  0  0  0  0  0  0  0  0  0
   39.0770   23.3660   38.6700 N   0  0  0  0  0  0  0  0  0  0  0  0
   36.8640   27.1780   34.4850 C   0  0  0  0  0  0  0  0  0  0  0  0
   36.7590   28.0310   32.9200 S   0  0  0  0  0  0  0  0  0  0  0  0
   36.1110   30.6540   32.6110 N   0  0  0  0  0  0  0  0  0  0  0  0
   34.9380   31.3480   32.0880 C   0  0  0  0  0  0  0  0  0  0  0  0
   33.8370   30.3460   31.9070 C   0  0  0  0  0  0  0  0  0  0  0  0
   34.3200   29.0820   32.5730 C   0  0  0  0  0  0  0  0  0  0  0  0
   35.6520   29.4560   33.2140 C   0  0  1  0  0  0  0  0  0  0  0  0
   35.3210   29.6160   34.6750 C   0  0  0  0  0  0  0  0  0  0  0  0
   35.7670   30.9110   35.2870 C   0  0  0  0  0  0  0  0  0  0  0  0
   33.8160   29.5690   34.9320 C   0  0  0  0  0  0  0  0  0  0  0  0
   38.3638   26.1955   35.6472 H   0  0  0  0  0  0  0  0  0  0  0  0
   38.9396   26.8813   34.0855 H   0  0  0  0  0  0  0  0  0  0  0  0
   37.8503   21.7984   34.1497 H   0  0  0  0  0  0  0  0  0  0  0  0
   37.3222   22.7699   31.7376 H   0  0  0  0  0  0  0  0  0  0  0  0
   37.2709   24.3532   39.1799 H   0  0  0  0  0  0  0  0  0  0  0  0
   36.5830   24.7163   36.7903 H   0  0  0  0  0  0  0  0  0  0  0  0
   40.8162   22.4180   37.9100 H   0  0  0  0  0  0  0  0  0  0  0  0
   35.9914   26.5165   34.5893 H   0  0  0  0  0  0  0  0  0  0  0  0
   36.8857   27.9325   35.2852 H   0  0  0  0  0  0  0  0  0  0  0  0
   36.5867   31.2418   33.3103 H   0  0  0  0  0  0  0  0  0  0  0  0
   34.6195   32.1259   32.7975 H   0  0  0  0  0  0  0  0  0  0  0  0
   35.1781   31.8238   31.1257 H   0  0  0  0  0  0  0  0  0  0  0  0
   32.9124   30.7019   32.3851 H   0  0  0  0  0  0  0  0  0  0  0  0
   33.6088   30.1821   30.8435 H   0  0  0  0  0  0  0  0  0  0  0  0
   33.6027   28.7501   33.3381 H   0  0  0  0  0  0  0  0  0  0  0  0
   34.4247   28.2529   31.8577 H   0  0  0  0  0  0  0  0  0  0  0  0
   35.8635   28.7746   35.1309 H   0  0  0  0  0  0  0  0  0  0  0  0
   35.7382   30.8275   36.3834 H   0  0  0  0  0  0  0  0  0  0  0  0
   36.7941   31.1351   34.9632 H   0  0  0  0  0  0  0  0  0  0  0  0
   35.0957   31.7200   34.9632 H   0  0  0  0  0  0  0  0  0  0  0  0
   33.6291   29.5632   36.0160 H   0  0  0  0  0  0  0  0  0  0  0  0
   33.3395   30.4527   34.4825 H   0  0  0  0  0  0  0  0  0  0  0  0
   33.3956   28.6573   34.4825 H   0  0  0  0  0  0  0  0  0  0  0  0
  2  9  1  0
  3  2  1  0
  4  5  1  0
  4  3  2  0
  5  6  2  0
  6  1  1  0
  6  2  1  0
  7 12  2  0
  8  7  1  0
  9 10  1  0
  9  8  2  0
 10 11  2  0
 11 12  1  0
 13  1  1  0
 14 13  1  0
 15 19  1  0
 16 15  1  0
 17 16  1  0
 17 18  1  0
 18 19  1  0
 19 14  1  1
 19 20  1  0
 20 22  1  0
 20 21  1  0
  1 23  1  0
  1 24  1  0
  3 25  1  0
  4 26  1  0
  7 27  1  0
  8 28  1  0
 11 29  1  0
 13 30  1  0
 13 31  1  0
 15 32  1  0
 16 33  1  0
 16 34  1  0
 17 35  1  0
 17 36  1  0
 18 37  1  0
 18 38  1  0
 20 39  1  0
 21 40  1  0
 21 41  1  0
 21 42  1  0
 22 43  1  0
 22 44  1  0
 22 45  1  0
M  ISO  8  23   8  24   8  25  14  26  14  27  14  28  14  29  14  30   8
M  ISO  8  31   8  32   5  33  13  34  13  35  13  36  13  37  13  38  13
M  ISO  7  39   8  40   8  41   8  42   8  43   8  44   8  45   8
M  END
>  <minimizedAffinity>  (1) 
-4.5625267

>  <minimizedRMSD>  (1) 
1.81169188

$$$$
