
     RDKit          3D

 38 41  0  0  0  0  0  0  0  0999 V2000
   38.5120   27.0980   34.2550 C   0  0  0  0  0  0  0  0  0  0  0  0
   37.4140   27.6060   34.9020 C   0  0  0  0  0  0  0  0  0  0  0  0
   36.3740   28.2900   34.2510 C   0  0  0  0  0  0  0  0  0  0  0  0
   36.4940   28.4390   32.9050 N   0  0  0  0  0  0  0  0  0  0  0  0
   37.5730   27.9420   32.2510 C   0  0  0  0  0  0  0  0  0  0  0  0
   38.5380   27.2950   32.9390 N   0  0  0  0  0  0  0  0  0  0  0  0
   37.6950   28.1060   30.8050 C   0  0  0  0  0  0  0  0  0  0  0  0
   36.6260   28.3290   29.9630 C   0  0  0  0  0  0  0  0  0  0  0  0
   37.1350   28.4240   28.7170 N   0  0  0  0  0  0  0  0  0  0  0  0
   38.4740   28.2670   28.7820 C   0  0  0  0  0  0  0  0  0  0  0  0
   39.4340   28.2840   27.7670 C   0  0  0  0  0  0  0  0  0  0  0  0
   40.7590   28.0890   28.1590 C   0  0  0  0  0  0  0  0  0  0  0  0
   41.1770   27.8830   29.4490 C   0  0  0  0  0  0  0  0  0  0  0  0
   40.1950   27.8750   30.4150 C   0  0  0  0  0  0  0  0  0  0  0  0
   38.8740   28.0610   30.0930 C   0  0  0  0  0  0  0  0  0  0  0  0
   39.5560   26.3910   35.0350 C   0  0  0  0  0  0  0  0  0  0  0  0
   39.5130   24.9070   34.8800 C   0  0  0  0  0  0  0  0  0  0  0  0
   39.7820   22.7270   37.9030 C   0  0  0  0  0  0  0  0  0  0  0  0
   38.6980   23.1810   38.6800 C   0  0  0  0  0  0  0  0  0  0  0  0
   37.9090   24.2140   38.1540 C   0  0  0  0  0  0  0  0  0  0  0  0
   38.2130   24.7280   36.9380 N   0  0  0  0  0  0  0  0  0  0  0  0
   39.2750   24.2550   36.2190 C   0  0  0  0  0  0  0  0  0  0  0  0
   40.0410   23.2770   36.6940 N   0  0  0  0  0  0  0  0  0  0  0  0
   37.3441   27.4701   35.9913 H   0  0  0  0  0  0  0  0  0  0  0  0
   35.5074   28.6846   34.8017 H   0  0  0  0  0  0  0  0  0  0  0  0
   35.5675   28.4129   30.2503 H   0  0  0  0  0  0  0  0  0  0  0  0
   36.5914   28.5891   27.8579 H   0  0  0  0  0  0  0  0  0  0  0  0
   39.1596   28.4428   26.7137 H   0  0  0  0  0  0  0  0  0  0  0  0
   41.5279   28.1015   27.3724 H   0  0  0  0  0  0  0  0  0  0  0  0
   42.2377   27.7325   29.6984 H   0  0  0  0  0  0  0  0  0  0  0  0
   40.4756   27.7162   31.4667 H   0  0  0  0  0  0  0  0  0  0  0  0
   40.5415   26.7475   34.7007 H   0  0  0  0  0  0  0  0  0  0  0  0
   39.3707   26.6107   36.0968 H   0  0  0  0  0  0  0  0  0  0  0  0
   38.6979   24.6360   34.1929 H   0  0  0  0  0  0  0  0  0  0  0  0
   40.4743   24.5584   34.4745 H   0  0  0  0  0  0  0  0  0  0  0  0
   40.4236   21.9181   38.2825 H   0  0  0  0  0  0  0  0  0  0  0  0
   38.4785   22.7409   39.6639 H   0  0  0  0  0  0  0  0  0  0  0  0
   37.0518   24.6031   38.7230 H   0  0  0  0  0  0  0  0  0  0  0  0
  1  2  2  0
  1 16  1  0
  3  2  1  0
  4  3  2  0
  5  4  1  0
  5  6  2  0
  6  1  1  0
  7  5  1  0
  8  7  2  0
  9 10  1  0
  9  8  1  0
 10 15  2  0
 11 12  2  0
 11 10  1  0
 12 13  1  0
 13 14  2  0
 15 14  1  0
 15  7  1  0
 17 16  1  0
 17 22  1  0
 18 19  2  0
 20 19  1  0
 21 20  2  0
 22 23  2  0
 22 21  1  0
 23 18  1  0
  2 24  1  0
  3 25  1  0
  8 26  1  0
  9 27  1  0
 11 28  1  0
 12 29  1  0
 13 30  1  0
 14 31  1  0
 16 32  1  0
 16 33  1  0
 17 34  1  0
 17 35  1  0
 18 36  1  0
 19 37  1  0
 20 38  1  0
M  ISO  8  24  14  25  14  26  14  27   9  28  14  29  14  30  14  31  14
M  ISO  7  32   8  33   8  34   8  35   8  36  14  37  14  38  14
M  END
>  <minimizedAffinity>  (1) 
-5.4317646

>  <minimizedRMSD>  (1) 
0.637257993

$$$$
