
     RDKit          3D

 38 40  0  0  1  0  0  0  0  0999 V2000
   38.1790   26.5370   34.6460 C   0  0  0  0  0  0  0  0  0  0  0  0
   38.0450   24.1090   34.5420 N   0  0  0  0  0  0  0  0  0  0  0  0
   37.7870   23.1080   33.6840 C   0  0  0  0  0  0  0  0  0  0  0  0
   37.5120   23.7090   32.4950 C   0  0  0  0  0  0  0  0  0  0  0  0
   37.6070   25.0590   32.6400 N   0  0  0  0  0  0  0  0  0  0  0  0
   37.9390   25.3040   33.9190 C   0  0  0  0  0  0  0  0  0  0  0  0
   37.9270   23.8990   38.2530 C   0  0  0  0  0  0  0  0  0  0  0  0
   37.5250   24.2040   36.9350 C   0  0  0  0  0  0  0  0  0  0  0  0
   38.3740   23.8380   35.8990 C   0  0  0  0  0  0  0  0  0  0  0  0
   39.5070   23.2230   36.2340 N   0  0  0  0  0  0  0  0  0  0  0  0
   39.8850   22.9330   37.4990 C   0  0  0  0  0  0  0  0  0  0  0  0
   39.0870   23.2750   38.5140 N   0  0  0  0  0  0  0  0  0  0  0  0
   36.8970   27.2880   34.8500 C   0  0  0  0  0  0  0  0  0  0  0  0
   36.4690   28.2730   33.3950 S   0  0  0  0  0  0  0  0  0  0  0  0
   35.5590   30.8390   33.1820 N   0  0  0  0  0  0  0  0  0  0  0  0
   34.2710   31.4820   33.4090 C   0  0  0  0  0  0  0  0  0  0  0  0
   33.3460   30.4810   34.0260 C   0  0  0  0  0  0  0  0  0  0  0  0
   34.2060   29.3040   34.4220 C   0  0  0  0  0  0  0  0  0  0  0  0
   35.6210   29.7360   34.0740 C   0  0  1  0  0  0  0  0  0  0  0  0
   36.1800   30.1550   35.3490 N   0  0  0  0  0  0  0  0  0  0  0  0
   38.8780   27.1641   34.0732 H   0  0  0  0  0  0  0  0  0  0  0  0
   38.6062   26.2913   35.6294 H   0  0  0  0  0  0  0  0  0  0  0  0
   37.7962   22.0290   33.8980 H   0  0  0  0  0  0  0  0  0  0  0  0
   37.2534   23.1859   31.5625 H   0  0  0  0  0  0  0  0  0  0  0  0
   37.2714   24.1804   39.0903 H   0  0  0  0  0  0  0  0  0  0  0  0
   36.5713   24.7144   36.7352 H   0  0  0  0  0  0  0  0  0  0  0  0
   40.8395   22.4209   37.6904 H   0  0  0  0  0  0  0  0  0  0  0  0
   36.0882   26.5685   35.0454 H   0  0  0  0  0  0  0  0  0  0  0  0
   37.0279   27.9701   35.7030 H   0  0  0  0  0  0  0  0  0  0  0  0
   35.6272   30.5129   32.2074 H   0  0  0  0  0  0  0  0  0  0  0  0
   34.3977   32.3385   34.0875 H   0  0  0  0  0  0  0  0  0  0  0  0
   33.8559   31.8436   32.4567 H   0  0  0  0  0  0  0  0  0  0  0  0
   32.8550   30.9102   34.9118 H   0  0  0  0  0  0  0  0  0  0  0  0
   32.5529   30.1814   33.3251 H   0  0  0  0  0  0  0  0  0  0  0  0
   34.1150   29.1003   35.4991 H   0  0  0  0  0  0  0  0  0  0  0  0
   33.9118   28.3775   33.9071 H   0  0  0  0  0  0  0  0  0  0  0  0
   35.6306   29.7432   36.1167 H   0  0  0  0  0  0  0  0  0  0  0  0
   37.1571   29.8364   35.4168 H   0  0  0  0  0  0  0  0  0  0  0  0
  1 13  1  0
  2  9  1  0
  3  2  1  0
  4  5  1  0
  4  3  2  0
  5  6  2  0
  6  2  1  0
  6  1  1  0
  7 12  2  0
  8  7  1  0
  9 10  1  0
  9  8  2  0
 10 11  2  0
 11 12  1  0
 14 13  1  0
 15 16  1  0
 15 19  1  0
 16 17  1  0
 17 18  1  0
 19 14  1  6
 19 18  1  0
 19 20  1  0
  1 21  1  0
  1 22  1  0
  3 23  1  0
  4 24  1  0
  7 25  1  0
  8 26  1  0
 11 27  1  0
 13 28  1  0
 13 29  1  0
 15 30  1  0
 16 31  1  0
 16 32  1  0
 17 33  1  0
 17 34  1  0
 18 35  1  0
 18 36  1  0
 20 37  1  0
 20 38  1  0
M  ISO  8  21   8  22   8  23  14  24  14  25  14  26  14  27  14  28   8
M  ISO  8  29   8  30   5  31  13  32  13  33  13  34  13  35  13  36  13
M  ISO  2  37   5  38   5
M  END
>  <minimizedAffinity>  (1) 
-4.14068317

>  <minimizedRMSD>  (1) 
1.69133675

$$$$
