
     RDKit          3D

 39 41  0  0  1  0  0  0  0  0999 V2000
   40.2510   27.0770   34.1750 C   0  0  0  0  0  0  0  0  0  0  0  0
   40.7770   25.7570   34.6750 C   0  0  0  0  0  0  0  0  0  0  0  0
   39.4570   23.7170   34.5800 N   0  0  0  0  0  0  0  0  0  0  0  0
   39.0010   22.8040   33.7100 C   0  0  0  0  0  0  0  0  0  0  0  0
   39.4520   23.1980   32.4910 C   0  0  0  0  0  0  0  0  0  0  0  0
   40.1770   24.3450   32.6340 N   0  0  0  0  0  0  0  0  0  0  0  0
   40.1740   24.6600   33.9390 C   0  0  0  0  0  0  0  0  0  0  0  0
   37.7890   23.9900   37.8900 C   0  0  0  0  0  0  0  0  0  0  0  0
   37.9990   24.1410   36.5080 C   0  0  0  0  0  0  0  0  0  0  0  0
   39.1660   23.6090   35.9720 C   0  0  0  0  0  0  0  0  0  0  0  0
   39.9940   22.9950   36.8110 N   0  0  0  0  0  0  0  0  0  0  0  0
   39.7990   22.8490   38.1250 C   0  0  0  0  0  0  0  0  0  0  0  0
   38.6820   23.3510   38.6770 N   0  0  0  0  0  0  0  0  0  0  0  0
   38.4950   27.2470   34.4960 S   0  0  0  0  0  0  0  0  0  0  0  0
   38.5840   27.1490   31.7700 N   0  0  0  0  0  0  0  0  0  0  0  0
   37.9250   26.3390   30.7500 C   0  0  0  0  0  0  0  0  0  0  0  0
   36.9040   25.4740   31.4410 C   0  0  0  0  0  0  0  0  0  0  0  0
   36.7870   25.9840   32.8500 C   0  0  0  0  0  0  0  0  0  0  0  0
   37.6920   27.2060   32.8700 C   0  0  1  0  0  0  0  0  0  0  0  0
   36.7280   28.3400   32.6660 C   0  0  0  0  0  0  0  0  0  0  0  0
   35.7470   28.3920   33.4280 O   0  0  0  0  0  0  0  0  0  0  0  0
   36.9290   29.3000   31.6570 O   0  0  0  0  0  0  0  0  0  0  0  0
   40.4245   27.1436   33.0908 H   0  0  0  0  0  0  0  0  0  0  0  0
   40.7791   27.8829   34.7057 H   0  0  0  0  0  0  0  0  0  0  0  0
   41.8683   25.7273   34.5402 H   0  0  0  0  0  0  0  0  0  0  0  0
   40.5246   25.6530   35.7406 H   0  0  0  0  0  0  0  0  0  0  0  0
   38.3884   21.9190   33.9368 H   0  0  0  0  0  0  0  0  0  0  0  0
   39.2632   22.6763   31.5412 H   0  0  0  0  0  0  0  0  0  0  0  0
   36.8748   24.4025   38.3417 H   0  0  0  0  0  0  0  0  0  0  0  0
   37.2662   24.6614   35.8738 H   0  0  0  0  0  0  0  0  0  0  0  0
   40.5418   22.3258   38.7450 H   0  0  0  0  0  0  0  0  0  0  0  0
   38.7671   28.0964   31.4098 H   0  0  0  0  0  0  0  0  0  0  0  0
   38.6654   25.7076   30.2370 H   0  0  0  0  0  0  0  0  0  0  0  0
   37.4409   26.9824   30.0006 H   0  0  0  0  0  0  0  0  0  0  0  0
   35.9336   25.5503   30.9286 H   0  0  0  0  0  0  0  0  0  0  0  0
   37.2074   24.4167   31.4272 H   0  0  0  0  0  0  0  0  0  0  0  0
   35.7481   26.2620   33.0811 H   0  0  0  0  0  0  0  0  0  0  0  0
   37.0721   25.2313   33.5998 H   0  0  0  0  0  0  0  0  0  0  0  0
   36.2806   30.0390   31.5406 H   0  0  0  0  0  0  0  0  0  0  0  0
  1 14  1  0
  1  2  1  0
  3 10  1  0
  4  3  1  0
  5  6  1  0
  5  4  2  0
  6  7  2  0
  7  3  1  0
  7  2  1  0
  8 13  2  0
  9  8  1  0
 10  9  2  0
 10 11  1  0
 11 12  2  0
 12 13  1  0
 15 19  1  0
 16 17  1  0
 16 15  1  0
 17 18  1  0
 18 19  1  0
 19 20  1  0
 19 14  1  1
 20 21  2  0
 22 20  1  0
  1 23  1  0
  1 24  1  0
  2 25  1  0
  2 26  1  0
  4 27  1  0
  5 28  1  0
  8 29  1  0
  9 30  1  0
 12 31  1  0
 15 32  1  0
 16 33  1  0
 16 34  1  0
 17 35  1  0
 17 36  1  0
 18 37  1  0
 18 38  1  0
 22 39  1  0
M  ISO  8  23   8  24   8  25   8  26   8  27  14  28  14  29  14  30  14
M  ISO  8  31  14  32   5  33  13  34  13  35  13  36  13  37  13  38  13
M  ISO  1  39   3
M  END
>  <minimizedAffinity>  (1) 
-4.05241919

>  <minimizedRMSD>  (1) 
1.99641871

$$$$
