
     RDKit          3D

 38 41  0  0  0  0  0  0  0  0999 V2000
   38.0730   27.0900   33.9690 C   0  0  0  0  0  0  0  0  0  0  0  0
   36.8990   27.5940   34.4610 C   0  0  0  0  0  0  0  0  0  0  0  0
   36.0490   28.4020   33.7200 C   0  0  0  0  0  0  0  0  0  0  0  0
   36.4200   28.6930   32.4480 N   0  0  0  0  0  0  0  0  0  0  0  0
   37.5890   28.2000   31.9340 C   0  0  0  0  0  0  0  0  0  0  0  0
   38.3230   27.4410   32.7280 N   0  0  0  0  0  0  0  0  0  0  0  0
   37.8000   28.6270   30.5610 C   0  0  0  0  0  0  0  0  0  0  0  0
   37.2790   29.7660   30.0560 N   0  0  0  0  0  0  0  0  0  0  0  0
   37.4370   30.2060   28.8130 C   0  0  0  0  0  0  0  0  0  0  0  0
   38.1630   29.5230   27.9140 N   0  0  0  0  0  0  0  0  0  0  0  0
   38.7400   28.3510   28.3130 C   0  0  0  0  0  0  0  0  0  0  0  0
   39.4880   27.6410   27.4010 C   0  0  0  0  0  0  0  0  0  0  0  0
   40.0870   26.4550   27.7610 C   0  0  0  0  0  0  0  0  0  0  0  0
   39.8980   26.0240   29.0760 C   0  0  0  0  0  0  0  0  0  0  0  0
   39.1400   26.7810   29.9410 C   0  0  0  0  0  0  0  0  0  0  0  0
   38.5370   27.9520   29.6150 C   0  0  0  0  0  0  0  0  0  0  0  0
   38.9450   26.2200   34.8010 C   0  0  0  0  0  0  0  0  0  0  0  0
   38.5160   24.7880   34.8390 C   0  0  0  0  0  0  0  0  0  0  0  0
   39.7390   22.8100   37.7550 C   0  0  0  0  0  0  0  0  0  0  0  0
   38.9000   23.2880   38.7940 C   0  0  0  0  0  0  0  0  0  0  0  0
   37.9360   24.2730   38.4770 C   0  0  0  0  0  0  0  0  0  0  0  0
   37.8790   24.7030   37.1780 N   0  0  0  0  0  0  0  0  0  0  0  0
   38.7010   24.2200   36.2180 C   0  0  0  0  0  0  0  0  0  0  0  0
   39.6100   23.2930   36.5050 N   0  0  0  0  0  0  0  0  0  0  0  0
   36.6158   27.3461   35.4946 H   0  0  0  0  0  0  0  0  0  0  0  0
   35.1125   28.7908   34.1464 H   0  0  0  0  0  0  0  0  0  0  0  0
   36.9620   31.1518   28.5133 H   0  0  0  0  0  0  0  0  0  0  0  0
   39.6079   28.0243   26.3769 H   0  0  0  0  0  0  0  0  0  0  0  0
   40.6870   25.8734   27.0457 H   0  0  0  0  0  0  0  0  0  0  0  0
   40.3530   25.0832   29.4194 H   0  0  0  0  0  0  0  0  0  0  0  0
   39.0144   26.4103   30.9690 H   0  0  0  0  0  0  0  0  0  0  0  0
   39.9664   26.2645   34.3952 H   0  0  0  0  0  0  0  0  0  0  0  0
   38.8822   26.5987   35.8318 H   0  0  0  0  0  0  0  0  0  0  0  0
   37.4544   24.7205   34.5590 H   0  0  0  0  0  0  0  0  0  0  0  0
   39.1318   24.2131   34.1317 H   0  0  0  0  0  0  0  0  0  0  0  0
   40.4970   22.0427   37.9711 H   0  0  0  0  0  0  0  0  0  0  0  0
   38.9967   22.9025   39.8197 H   0  0  0  0  0  0  0  0  0  0  0  0
   37.2588   24.6778   39.2435 H   0  0  0  0  0  0  0  0  0  0  0  0
  1  2  2  0
  1 17  1  0
  3  2  1  0
  4  3  2  0
  5  4  1  0
  5  6  2  0
  6  1  1  0
  7  5  1  0
  8  7  2  0
  9  8  1  0
 10 11  1  0
 10  9  2  0
 11 16  2  0
 12 13  2  0
 12 11  1  0
 13 14  1  0
 14 15  2  0
 16 15  1  0
 16  7  1  0
 17 18  1  0
 18 23  1  0
 19 20  2  0
 21 20  1  0
 22 21  2  0
 23 24  2  0
 23 22  1  0
 24 19  1  0
  2 25  1  0
  3 26  1  0
  9 27  1  0
 12 28  1  0
 13 29  1  0
 14 30  1  0
 15 31  1  0
 17 32  1  0
 17 33  1  0
 18 34  1  0
 18 35  1  0
 19 36  1  0
 20 37  1  0
 21 38  1  0
M  ISO  8  25  14  26  14  27  14  28  14  29  14  30  14  31  14  32   8
M  ISO  6  33   8  34   8  35   8  36  14  37  14  38  14
M  END
>  <minimizedAffinity>  (1) 
-5.3388567

>  <minimizedRMSD>  (1) 
0.993823588

$$$$
