
     RDKit          3D

 31 32  0  0  0  0  0  0  0  0999 V2000
   37.9160   26.9580   33.9700 C   0  0  0  0  0  0  0  0  0  0  0  0
   37.0470   27.7770   34.6440 C   0  0  0  0  0  0  0  0  0  0  0  0
   36.0300   28.4850   34.0190 C   0  0  0  0  0  0  0  0  0  0  0  0
   35.9160   28.3380   32.6710 N   0  0  0  0  0  0  0  0  0  0  0  0
   36.7570   27.5400   31.9840 C   0  0  0  0  0  0  0  0  0  0  0  0
   37.7150   26.8890   32.6680 N   0  0  0  0  0  0  0  0  0  0  0  0
   36.6970   27.3370   30.5760 N   0  0  0  0  0  0  0  0  0  0  0  0
   36.8420   28.4390   29.7110 C   0  0  0  0  0  0  0  0  0  0  0  0
   36.3000   29.5750   29.9640 N   0  0  0  0  0  0  0  0  0  0  0  0
   37.6170   28.3020   28.4990 N   0  0  0  0  0  0  0  0  0  0  0  0
   35.7330   29.7150   30.8190 H   0  0  0  0  0  0  0  0  0  0  0  0
   38.9950   26.2190   34.6930 C   0  0  0  0  0  0  0  0  0  0  0  0
   38.8000   24.7360   34.6760 C   0  0  0  0  0  0  0  0  0  0  0  0
   39.7420   22.8290   37.7490 C   0  0  0  0  0  0  0  0  0  0  0  0
   38.8270   23.3470   38.6950 C   0  0  0  0  0  0  0  0  0  0  0  0
   37.9200   24.3260   38.2590 C   0  0  0  0  0  0  0  0  0  0  0  0
   37.9660   24.7260   36.9580 N   0  0  0  0  0  0  0  0  0  0  0  0
   38.8680   24.1970   36.0800 C   0  0  0  0  0  0  0  0  0  0  0  0
   39.7370   23.2710   36.4630 N   0  0  0  0  0  0  0  0  0  0  0  0
   37.1615   27.8778   35.7334 H   0  0  0  0  0  0  0  0  0  0  0  0
   35.3478   29.1347   34.5869 H   0  0  0  0  0  0  0  0  0  0  0  0
   36.5488   26.3923   30.1933 H   0  0  0  0  0  0  0  0  0  0  0  0
   38.0627   27.4017   28.2717 H   0  0  0  0  0  0  0  0  0  0  0  0
   37.7237   29.1047   27.8625 H   0  0  0  0  0  0  0  0  0  0  0  0
   39.9589   26.4513   34.2165 H   0  0  0  0  0  0  0  0  0  0  0  0
   38.9680   26.5424   35.7440 H   0  0  0  0  0  0  0  0  0  0  0  0
   37.8167   24.5018   34.2421 H   0  0  0  0  0  0  0  0  0  0  0  0
   39.5923   24.2723   34.0700 H   0  0  0  0  0  0  0  0  0  0  0  0
   40.4657   22.0600   38.0570 H   0  0  0  0  0  0  0  0  0  0  0  0
   38.8260   22.9948   39.7371 H   0  0  0  0  0  0  0  0  0  0  0  0
   37.1870   24.7612   38.9542 H   0  0  0  0  0  0  0  0  0  0  0  0
  1  2  2  0
  1 12  1  0
  3  2  1  0
  4  3  2  0
  5  6  2  0
  5  4  1  0
  6  1  1  0
  7  5  1  0
  8  9  2  0
  8  7  1  0
  9 11  1  0
 10  8  1  0
 13 12  1  0
 13 18  1  0
 14 15  2  0
 16 15  1  0
 17 16  2  0
 18 19  2  0
 18 17  1  0
 19 14  1  0
  2 20  1  0
  3 21  1  0
  7 22  1  0
 10 23  1  0
 10 24  1  0
 12 25  1  0
 12 26  1  0
 13 27  1  0
 13 28  1  0
 14 29  1  0
 15 30  1  0
 16 31  1  0
M  ISO  8  20  14  21  14  25   8  26   8  27   8  28   8  29  14  30  14
M  ISO  1  31  14
M  END
>  <minimizedAffinity>  (1) 
-5.24162436

>  <minimizedRMSD>  (1) 
0.701282501

$$$$
