
     RDKit          3D

 32 35  0  0  0  0  0  0  0  0999 V2000
   41.0600   25.0950   34.7760 C   0  0  0  0  0  0  0  0  0  0  0  0
   41.4790   26.3260   34.4110 N   0  0  0  0  0  0  0  0  0  0  0  0
   42.7640   26.3760   34.6110 O   0  0  0  0  0  0  0  0  0  0  0  0
   43.1780   25.2360   35.0850 C   0  0  0  0  0  0  0  0  0  0  0  0
   42.1240   24.3850   35.2090 N   0  0  0  0  0  0  0  0  0  0  0  0
   44.5360   24.8020   35.4690 C   0  0  0  0  0  0  0  0  0  0  0  0
   45.5080   24.1520   34.7360 C   0  0  0  0  0  0  0  0  0  0  0  0
   46.5930   23.9620   35.5110 N   0  0  0  0  0  0  0  0  0  0  0  0
   46.3630   24.4700   36.7350 C   0  0  0  0  0  0  0  0  0  0  0  0
   47.2420   24.4640   37.8020 C   0  0  0  0  0  0  0  0  0  0  0  0
   46.8030   25.0470   38.9920 C   0  0  0  0  0  0  0  0  0  0  0  0
   45.5330   25.5830   39.0190 C   0  0  0  0  0  0  0  0  0  0  0  0
   44.6700   25.5720   37.9200 C   0  0  0  0  0  0  0  0  0  0  0  0
   45.0890   25.0000   36.7360 C   0  0  0  0  0  0  0  0  0  0  0  0
   39.6730   24.5880   34.7210 C   0  0  0  0  0  0  0  0  0  0  0  0
   37.8430   24.3500   38.0230 C   0  0  0  0  0  0  0  0  0  0  0  0
   38.1940   24.7730   36.7490 C   0  0  0  0  0  0  0  0  0  0  0  0
   39.2560   24.1660   36.0980 C   0  0  0  0  0  0  0  0  0  0  0  0
   39.9220   23.1630   36.7470 N   0  0  0  0  0  0  0  0  0  0  0  0
   39.5580   22.7730   37.9820 C   0  0  0  0  0  0  0  0  0  0  0  0
   38.5180   23.3760   38.6100 N   0  0  0  0  0  0  0  0  0  0  0  0
   45.4119   23.8389   33.6859 H   0  0  0  0  0  0  0  0  0  0  0  0
   47.4637   23.4995   35.2127 H   0  0  0  0  0  0  0  0  0  0  0  0
   48.2443   24.0189   37.7169 H   0  0  0  0  0  0  0  0  0  0  0  0
   47.4504   25.0778   39.8808 H   0  0  0  0  0  0  0  0  0  0  0  0
   45.1809   26.0431   39.9540 H   0  0  0  0  0  0  0  0  0  0  0  0
   43.6662   26.0151   37.9979 H   0  0  0  0  0  0  0  0  0  0  0  0
   39.0034   25.3823   34.3594 H   0  0  0  0  0  0  0  0  0  0  0  0
   39.6164   23.7301   34.0348 H   0  0  0  0  0  0  0  0  0  0  0  0
   37.0008   24.8262   38.5463 H   0  0  0  0  0  0  0  0  0  0  0  0
   37.6338   25.5835   36.2598 H   0  0  0  0  0  0  0  0  0  0  0  0
   40.1058   21.9621   38.4843 H   0  0  0  0  0  0  0  0  0  0  0  0
  1  5  1  0
  2  3  1  0
  2  1  2  0
  3  4  1  0
  4  5  2  0
  4  6  1  0
  6 14  1  0
  7  6  2  0
  7  8  1  0
  8  9  1  0
  9 14  2  0
  9 10  1  0
 10 11  2  0
 11 12  1  0
 13 12  2  0
 14 13  1  0
 15  1  1  0
 15 18  1  0
 16 21  2  0
 17 16  1  0
 18 19  1  0
 18 17  2  0
 19 20  2  0
 20 21  1  0
  7 22  1  0
  8 23  1  0
 10 24  1  0
 11 25  1  0
 12 26  1  0
 13 27  1  0
 15 28  1  0
 15 29  1  0
 16 30  1  0
 17 31  1  0
 20 32  1  0
M  ISO  8  22  14  23   9  24  14  25  14  26  14  27  14  28   8  29   8
M  ISO  3  30  14  31  14  32  14
M  END
>  <minimizedAffinity>  (1) 
-5.46947145

>  <minimizedRMSD>  (1) 
3.77788377

$$$$
