
     RDKit          3D

 32 35  0  0  0  0  0  0  0  0999 V2000
   40.7950   25.1490   34.5490 C   0  0  0  0  0  0  0  0  0  0  0  0
   40.6790   26.4760   34.3200 N   0  0  0  0  0  0  0  0  0  0  0  0
   41.8770   26.9880   34.3620 O   0  0  0  0  0  0  0  0  0  0  0  0
   42.7440   26.0380   34.6070 C   0  0  0  0  0  0  0  0  0  0  0  0
   42.1020   24.8550   34.7330 N   0  0  0  0  0  0  0  0  0  0  0  0
   44.1610   26.1230   34.7420 N   0  0  0  0  0  0  0  0  0  0  0  0
   44.9890   26.3490   33.6840 C   0  0  0  0  0  0  0  0  0  0  0  0
   46.2720   26.3930   34.0150 N   0  0  0  0  0  0  0  0  0  0  0  0
   46.3040   26.1860   35.3620 C   0  0  0  0  0  0  0  0  0  0  0  0
   47.2730   26.1100   36.3270 C   0  0  0  0  0  0  0  0  0  0  0  0
   48.4570   26.2630   35.9140 O   0  0  0  0  0  0  0  0  0  0  0  0
   46.9470   25.8860   37.6160 N   0  0  0  0  0  0  0  0  0  0  0  0
   45.6640   25.7300   38.0060 C   0  0  0  0  0  0  0  0  0  0  0  0
   45.5390   25.5060   39.3930 N   0  0  0  0  0  0  0  0  0  0  0  0
   44.6740   25.8000   37.0710 N   0  0  0  0  0  0  0  0  0  0  0  0
   44.9900   26.0210   35.7970 C   0  0  0  0  0  0  0  0  0  0  0  0
   39.6910   24.1640   34.5930 C   0  0  0  0  0  0  0  0  0  0  0  0
   37.9520   24.2740   37.9500 C   0  0  0  0  0  0  0  0  0  0  0  0
   38.2350   24.5530   36.6150 C   0  0  0  0  0  0  0  0  0  0  0  0
   39.3320   23.9090   36.0290 C   0  0  0  0  0  0  0  0  0  0  0  0
   40.0680   23.0440   36.7850 N   0  0  0  0  0  0  0  0  0  0  0  0
   39.7640   22.8020   38.0680 C   0  0  0  0  0  0  0  0  0  0  0  0
   38.7030   23.4200   38.6500 N   0  0  0  0  0  0  0  0  0  0  0  0
   44.6276   26.4822   32.6536 H   0  0  0  0  0  0  0  0  0  0  0  0
   47.6959   25.8325   38.3211 H   0  0  0  0  0  0  0  0  0  0  0  0
   44.6073   25.3718   39.8111 H   0  0  0  0  0  0  0  0  0  0  0  0
   46.3794   25.4766   39.9877 H   0  0  0  0  0  0  0  0  0  0  0  0
   38.8168   24.5633   34.0579 H   0  0  0  0  0  0  0  0  0  0  0  0
   40.0055   23.2259   34.1124 H   0  0  0  0  0  0  0  0  0  0  0  0
   37.0959   24.7652   38.4356 H   0  0  0  0  0  0  0  0  0  0  0  0
   37.6164   25.2570   36.0391 H   0  0  0  0  0  0  0  0  0  0  0  0
   40.3765   22.0997   38.6525 H   0  0  0  0  0  0  0  0  0  0  0  0
  1 17  1  0
  1  5  1  0
  2  3  1  0
  2  1  2  0
  3  4  1  0
  4  5  2  0
  4  6  1  0
  6 16  1  0
  7  8  2  0
  7  6  1  0
  8  9  1  0
  9 16  2  0
  9 10  1  0
 10 12  1  0
 11 10  2  0
 12 13  1  0
 13 14  1  0
 15 13  2  0
 16 15  1  0
 17 20  1  0
 18 23  2  0
 19 18  1  0
 20 19  2  0
 20 21  1  0
 21 22  2  0
 22 23  1  0
  7 24  1  0
 12 25  1  0
 14 26  1  0
 14 27  1  0
 17 28  1  0
 17 29  1  0
 18 30  1  0
 19 31  1  0
 22 32  1  0
M  ISO  7  24  14  25   9  28   8  29   8  30  14  31  14  32  14
M  END
>  <minimizedAffinity>  (1) 
-5.4263711

>  <minimizedRMSD>  (1) 
3.45560789

$$$$
