
     RDKit          3D

 31 34  0  0  0  0  0  0  0  0999 V2000
   40.1350   25.4400   34.5280 C   0  0  0  0  0  0  0  0  0  0  0  0
   40.0520   26.7890   34.4870 N   0  0  0  0  0  0  0  0  0  0  0  0
   41.2470   27.2660   34.3310 O   0  0  0  0  0  0  0  0  0  0  0  0
   42.1000   26.2570   34.2690 C   0  0  0  0  0  0  0  0  0  0  0  0
   41.4340   25.0840   34.3900 N   0  0  0  0  0  0  0  0  0  0  0  0
   43.4820   26.5500   34.0970 N   0  0  0  0  0  0  0  0  0  0  0  0
   44.0200   27.1460   32.9940 C   0  0  0  0  0  0  0  0  0  0  0  0
   45.3510   27.2900   33.1220 N   0  0  0  0  0  0  0  0  0  0  0  0
   45.6980   26.7930   34.3030 C   0  0  0  0  0  0  0  0  0  0  0  0
   46.9210   26.7070   34.8920 C   0  0  0  0  0  0  0  0  0  0  0  0
   46.9700   26.1400   36.1260 N   0  0  0  0  0  0  0  0  0  0  0  0
   45.8260   25.6890   36.7170 C   0  0  0  0  0  0  0  0  0  0  0  0
   44.6090   25.7870   36.1050 N   0  0  0  0  0  0  0  0  0  0  0  0
   44.5470   26.3440   34.8900 C   0  0  0  0  0  0  0  0  0  0  0  0
   39.0080   24.4930   34.6930 C   0  0  0  0  0  0  0  0  0  0  0  0
   37.9450   24.2760   38.3110 C   0  0  0  0  0  0  0  0  0  0  0  0
   37.9740   24.6830   36.9840 C   0  0  0  0  0  0  0  0  0  0  0  0
   38.9260   24.0950   36.1390 C   0  0  0  0  0  0  0  0  0  0  0  0
   39.7730   23.1590   36.6560 N   0  0  0  0  0  0  0  0  0  0  0  0
   39.7020   22.7990   37.9540 C   0  0  0  0  0  0  0  0  0  0  0  0
   38.7910   23.3580   38.7730 N   0  0  0  0  0  0  0  0  0  0  0  0
   48.0790   27.1990   34.2200 N   0  0  0  0  0  0  0  0  0  0  0  0
   43.4411   27.4667   32.1153 H   0  0  0  0  0  0  0  0  0  0  0  0
   45.8856   25.2329   37.7162 H   0  0  0  0  0  0  0  0  0  0  0  0
   38.0688   24.9776   34.3879 H   0  0  0  0  0  0  0  0  0  0  0  0
   39.1691   23.6034   34.0664 H   0  0  0  0  0  0  0  0  0  0  0  0
   37.2075   24.7214   38.9949 H   0  0  0  0  0  0  0  0  0  0  0  0
   37.2727   25.4423   36.6076 H   0  0  0  0  0  0  0  0  0  0  0  0
   40.3953   22.0411   38.3475 H   0  0  0  0  0  0  0  0  0  0  0  0
   49.0031   27.1317   34.6700 H   0  0  0  0  0  0  0  0  0  0  0  0
   47.9911   27.6216   33.2848 H   0  0  0  0  0  0  0  0  0  0  0  0
  1 15  1  0
  2  1  2  0
  3  2  1  0
  4  3  1  0
  4  5  2  0
  5  1  1  0
  6  4  1  0
  6 14  1  0
  7  8  2  0
  7  6  1  0
  8  9  1  0
  9 14  2  0
  9 10  1  0
 10 11  2  0
 11 12  1  0
 13 12  2  0
 14 13  1  0
 15 18  1  0
 16 21  2  0
 17 16  1  0
 18 19  1  0
 18 17  2  0
 19 20  2  0
 20 21  1  0
 22 10  1  0
  7 23  1  0
 12 24  1  0
 15 25  1  0
 15 26  1  0
 16 27  1  0
 17 28  1  0
 20 29  1  0
 22 30  1  0
 22 31  1  0
M  ISO  7  23  14  24  14  25   8  26   8  27  14  28  14  29  14
M  END
>  <minimizedAffinity>  (1) 
-4.72693205

>  <minimizedRMSD>  (1) 
2.22338867

$$$$
