
     RDKit          3D

 38 40  0  0  0  0  0  0  0  0999 V2000
   39.0620   26.2440   34.8500 C   0  0  0  0  0  0  0  0  0  0  0  0
   38.2130   27.0640   33.9610 C   0  0  0  0  0  0  0  0  0  0  0  0
   37.0340   27.5980   34.4150 C   0  0  0  0  0  0  0  0  0  0  0  0
   36.1690   28.3790   33.6620 C   0  0  0  0  0  0  0  0  0  0  0  0
   36.5450   28.6190   32.3690 N   0  0  0  0  0  0  0  0  0  0  0  0
   37.7100   28.1030   31.8900 C   0  0  0  0  0  0  0  0  0  0  0  0
   38.4910   27.3500   32.7030 N   0  0  0  0  0  0  0  0  0  0  0  0
   38.0710   28.3780   30.5230 N   0  0  0  0  0  0  0  0  0  0  0  0
   38.8570   27.3540   29.8630 C   0  0  0  0  0  0  0  0  0  0  0  0
   39.2080   27.8430   28.4960 C   0  0  0  0  0  0  0  0  0  0  0  0
   38.0490   28.4150   27.8860 N   0  0  0  0  0  0  0  0  0  0  0  0
   37.6570   29.6780   28.4730 C   0  0  0  0  0  0  0  0  0  0  0  0
   37.6060   29.6470   29.9640 C   0  0  0  0  0  0  0  0  0  0  0  0
   38.7030   24.7810   34.8240 C   0  0  0  0  0  0  0  0  0  0  0  0
   39.7620   22.8150   37.8130 C   0  0  0  0  0  0  0  0  0  0  0  0
   38.8850   23.2810   38.7980 C   0  0  0  0  0  0  0  0  0  0  0  0
   37.9430   24.2600   38.4260 C   0  0  0  0  0  0  0  0  0  0  0  0
   37.9320   24.7030   37.1390 N   0  0  0  0  0  0  0  0  0  0  0  0
   38.8120   24.2140   36.2180 C   0  0  0  0  0  0  0  0  0  0  0  0
   39.7140   23.2860   36.5440 N   0  0  0  0  0  0  0  0  0  0  0  0
   40.1095   26.3533   34.5327 H   0  0  0  0  0  0  0  0  0  0  0  0
   38.9040   26.6028   35.8778 H   0  0  0  0  0  0  0  0  0  0  0  0
   36.7521   27.3908   35.4579 H   0  0  0  0  0  0  0  0  0  0  0  0
   35.2349   28.7818   34.0806 H   0  0  0  0  0  0  0  0  0  0  0  0
   39.7755   27.1620   30.4370 H   0  0  0  0  0  0  0  0  0  0  0  0
   38.2822   26.4185   29.7957 H   0  0  0  0  0  0  0  0  0  0  0  0
   39.9979   28.6049   28.5701 H   0  0  0  0  0  0  0  0  0  0  0  0
   39.5682   27.0019   27.8854 H   0  0  0  0  0  0  0  0  0  0  0  0
   37.2669   27.7520   27.9846 H   0  0  0  0  0  0  0  0  0  0  0  0
   38.3817   30.4459   28.1646 H   0  0  0  0  0  0  0  0  0  0  0  0
   36.6400   29.9001   28.1174 H   0  0  0  0  0  0  0  0  0  0  0  0
   38.2412   30.4560   30.3538 H   0  0  0  0  0  0  0  0  0  0  0  0
   36.5544   29.7730   30.2611 H   0  0  0  0  0  0  0  0  0  0  0  0
   37.6721   24.6624   34.4590 H   0  0  0  0  0  0  0  0  0  0  0  0
   39.3918   24.2452   34.1543 H   0  0  0  0  0  0  0  0  0  0  0  0
   40.5070   22.0492   38.0747 H   0  0  0  0  0  0  0  0  0  0  0  0
   38.9294   22.8962   39.8276 H   0  0  0  0  0  0  0  0  0  0  0  0
   37.2295   24.6591   39.1619 H   0  0  0  0  0  0  0  0  0  0  0  0
  2  3  2  0
  2  1  1  0
  4  3  1  0
  5  4  2  0
  6  5  1  0
  6  7  2  0
  7  2  1  0
  8  6  1  0
  9  8  1  0
 10  9  1  0
 11 12  1  0
 11 10  1  0
 12 13  1  0
 13  8  1  0
 14  1  1  0
 14 19  1  0
 15 16  2  0
 17 16  1  0
 18 17  2  0
 19 20  2  0
 19 18  1  0
 20 15  1  0
  1 21  1  0
  1 22  1  0
  3 23  1  0
  4 24  1  0
  9 25  1  0
  9 26  1  0
 10 27  1  0
 10 28  1  0
 11 29  1  0
 12 30  1  0
 12 31  1  0
 13 32  1  0
 13 33  1  0
 14 34  1  0
 14 35  1  0
 15 36  1  0
 16 37  1  0
 17 38  1  0
M  ISO  8  21   8  22   8  23  14  24  14  25  13  26  13  27  13  28  13
M  ISO  8  29   5  30  13  31  13  32  13  33  13  34   8  35   8  36  14
M  ISO  2  37  14  38  14
M  END
>  <minimizedAffinity>  (1) 
-5.19394922

>  <minimizedRMSD>  (1) 
0.789946318

$$$$
