
     RDKit          3D

 25 26  0  0  0  0  0  0  0  0999 V2000
   39.7670   25.4500   34.4460 C   0  0  0  0  0  0  0  0  0  0  0  0
   39.3040   26.7170   34.3150 N   0  0  0  0  0  0  0  0  0  0  0  0
   40.3420   27.4910   34.1420 O   0  0  0  0  0  0  0  0  0  0  0  0
   41.4300   26.7750   34.1580 C   0  0  0  0  0  0  0  0  0  0  0  0
   41.1190   25.4710   34.3480 N   0  0  0  0  0  0  0  0  0  0  0  0
   42.7560   27.2750   34.0000 N   0  0  0  0  0  0  0  0  0  0  0  0
   43.8420   26.6080   34.6350 C   0  0  0  0  0  0  0  0  0  0  0  0
   43.7300   25.3240   34.8560 N   0  0  0  0  0  0  0  0  0  0  0  0
   45.0020   27.3860   34.9960 N   0  0  0  0  0  0  0  0  0  0  0  0
   44.5470   24.8720   35.3220 H   0  0  0  0  0  0  0  0  0  0  0  0
   38.9520   24.2310   34.6600 C   0  0  0  0  0  0  0  0  0  0  0  0
   37.9330   24.2260   38.3030 C   0  0  0  0  0  0  0  0  0  0  0  0
   37.9340   24.5290   36.9470 C   0  0  0  0  0  0  0  0  0  0  0  0
   38.8950   23.9480   36.1250 C   0  0  0  0  0  0  0  0  0  0  0  0
   39.8010   23.0980   36.7050 N   0  0  0  0  0  0  0  0  0  0  0  0
   39.7740   22.8240   38.0240 C   0  0  0  0  0  0  0  0  0  0  0  0
   38.8410   23.3900   38.8170 N   0  0  0  0  0  0  0  0  0  0  0  0
   42.9275   28.1149   33.4291 H   0  0  0  0  0  0  0  0  0  0  0  0
   45.8037   26.9320   35.4566 H   0  0  0  0  0  0  0  0  0  0  0  0
   45.0286   28.3955   34.7932 H   0  0  0  0  0  0  0  0  0  0  0  0
   37.9348   24.3927   34.2738 H   0  0  0  0  0  0  0  0  0  0  0  0
   39.4029   23.3793   34.1297 H   0  0  0  0  0  0  0  0  0  0  0  0
   37.1767   24.6790   38.9610 H   0  0  0  0  0  0  0  0  0  0  0  0
   37.1857   25.2185   36.5290 H   0  0  0  0  0  0  0  0  0  0  0  0
   40.5157   22.1360   38.4559 H   0  0  0  0  0  0  0  0  0  0  0  0
  1 11  1  0
  2  1  2  0
  3  4  1  0
  3  2  1  0
  4  5  2  0
  5  1  1  0
  6  4  1  0
  6  7  1  0
  7  8  2  0
  7  9  1  0
  8 10  1  0
 11 14  1  0
 12 17  2  0
 13 12  1  0
 14 15  1  0
 14 13  2  0
 15 16  2  0
 16 17  1  0
  6 18  1  0
  9 19  1  0
  9 20  1  0
 11 21  1  0
 11 22  1  0
 12 23  1  0
 13 24  1  0
 16 25  1  0
M  ISO  5  21   8  22   8  23  14  24  14  25  14
M  END
>  <minimizedAffinity>  (1) 
-4.33442831

>  <minimizedRMSD>  (1) 
1.67316759

$$$$
