
     RDKit          3D

 24 26  0  0  0  0  0  0  0  0999 V2000
   38.9360   24.5370   34.6750 C   0  0  0  0  0  0  0  0  0  0  0  0
   40.0880   25.4620   34.4970 C   0  0  0  0  0  0  0  0  0  0  0  0
   40.0210   26.7490   34.0930 N   0  0  0  0  0  0  0  0  0  0  0  0
   41.2470   27.2170   34.0610 O   0  0  0  0  0  0  0  0  0  0  0  0
   42.0650   26.2630   34.4310 C   0  0  0  0  0  0  0  0  0  0  0  0
   41.3850   25.1270   34.7180 N   0  0  0  0  0  0  0  0  0  0  0  0
   43.4940   26.4340   34.5090 N   0  0  0  0  0  0  0  0  0  0  0  0
   44.4460   27.2020   33.9430 C   0  0  0  0  0  0  0  0  0  0  0  0
   45.6330   26.8300   34.4940 N   0  0  0  0  0  0  0  0  0  0  0  0
   45.4140   25.8460   35.3860 C   0  0  0  0  0  0  0  0  0  0  0  0
   44.0930   25.6120   35.3850 N   0  0  0  0  0  0  0  0  0  0  0  0
   37.9500   24.3140   38.3220 C   0  0  0  0  0  0  0  0  0  0  0  0
   37.9700   24.7190   36.9970 C   0  0  0  0  0  0  0  0  0  0  0  0
   38.8770   24.1300   36.1230 C   0  0  0  0  0  0  0  0  0  0  0  0
   39.7210   23.1650   36.6120 N   0  0  0  0  0  0  0  0  0  0  0  0
   39.6750   22.7960   37.8990 C   0  0  0  0  0  0  0  0  0  0  0  0
   38.7900   23.3730   38.7430 N   0  0  0  0  0  0  0  0  0  0  0  0
   39.0726   23.6467   34.0435 H   0  0  0  0  0  0  0  0  0  0  0  0
   38.0002   25.0360   34.3828 H   0  0  0  0  0  0  0  0  0  0  0  0
   44.2926   27.9806   33.1813 H   0  0  0  0  0  0  0  0  0  0  0  0
   46.1713   25.3332   35.9972 H   0  0  0  0  0  0  0  0  0  0  0  0
   37.2390   24.7711   39.0259 H   0  0  0  0  0  0  0  0  0  0  0  0
   37.2775   25.4962   36.6413 H   0  0  0  0  0  0  0  0  0  0  0  0
   40.3603   22.0201   38.2709 H   0  0  0  0  0  0  0  0  0  0  0  0
  1 14  1  0
  2  1  1  0
  2  6  1  0
  3  2  2  0
  4  3  1  0
  4  5  1  0
  5  7  1  0
  5  6  2  0
  7 11  1  0
  8  9  2  0
  8  7  1  0
  9 10  1  0
 11 10  2  0
 12 17  2  0
 13 12  1  0
 14 15  1  0
 14 13  2  0
 15 16  2  0
 16 17  1  0
  1 18  1  0
  1 19  1  0
  8 20  1  0
 10 21  1  0
 12 22  1  0
 13 23  1  0
 16 24  1  0
M  ISO  7  18   8  19   8  20  14  21  14  22  14  23  14  24  14
M  END
>  <minimizedAffinity>  (1) 
-4.08643341

>  <minimizedRMSD>  (1) 
1.80313385

$$$$
