
     RDKit          3D

 34 36  0  0  0  0  0  0  0  0999 V2000
   37.9950   23.5340   34.6730 C   0  0  0  0  0  0  0  0  0  0  0  0
   37.9930   24.1000   38.4150 C   0  0  0  0  0  0  0  0  0  0  0  0
   37.5920   24.1620   37.0760 C   0  0  0  0  0  0  0  0  0  0  0  0
   38.3730   23.5020   36.1220 C   0  0  0  0  0  0  0  0  0  0  0  0
   39.4870   22.8290   36.5290 N   0  0  0  0  0  0  0  0  0  0  0  0
   39.8350   22.7970   37.8350 C   0  0  0  0  0  0  0  0  0  0  0  0
   39.0870   23.4290   38.7620 N   0  0  0  0  0  0  0  0  0  0  0  0
   38.3940   24.8370   34.1050 C   0  0  0  0  0  0  0  0  0  0  0  0
   37.5920   25.9130   33.9200 N   0  0  0  0  0  0  0  0  0  0  0  0
   38.3210   26.8640   33.3960 O   0  0  0  0  0  0  0  0  0  0  0  0
   39.5430   26.4280   33.2450 C   0  0  0  0  0  0  0  0  0  0  0  0
   39.6480   25.1480   33.6780 N   0  0  0  0  0  0  0  0  0  0  0  0
   40.6590   27.2080   32.6850 C   0  0  0  0  0  0  0  0  0  0  0  0
   41.0350   26.7270   31.2800 C   0  0  0  0  0  0  0  0  0  0  0  0
   41.5860   27.9490   30.5530 C   0  0  0  0  0  0  0  0  0  0  0  0
   42.5440   28.6100   31.5270 C   0  0  0  0  0  0  0  0  0  0  0  0
   43.0420   27.6630   32.5910 C   0  0  0  0  0  0  0  0  0  0  0  0
   41.9260   27.1490   33.4870 C   0  0  0  0  0  0  0  0  0  0  0  0
   38.5122   22.7238   34.1382 H   0  0  0  0  0  0  0  0  0  0  0  0
   36.9086   23.3976   34.5674 H   0  0  0  0  0  0  0  0  0  0  0  0
   37.3983   24.6105   39.1868 H   0  0  0  0  0  0  0  0  0  0  0  0
   36.6875   24.7146   36.7818 H   0  0  0  0  0  0  0  0  0  0  0  0
   40.7376   22.2498   38.1446 H   0  0  0  0  0  0  0  0  0  0  0  0
   40.2722   28.2378   32.6877 H   0  0  0  0  0  0  0  0  0  0  0  0
   41.8001   25.9388   31.3375 H   0  0  0  0  0  0  0  0  0  0  0  0
   40.1681   26.3010   30.7537 H   0  0  0  0  0  0  0  0  0  0  0  0
   42.1176   27.6442   29.6395 H   0  0  0  0  0  0  0  0  0  0  0  0
   40.7826   28.6347   30.2458 H   0  0  0  0  0  0  0  0  0  0  0  0
   43.4084   28.9927   30.9646 H   0  0  0  0  0  0  0  0  0  0  0  0
   41.9961   29.4184   32.0333 H   0  0  0  0  0  0  0  0  0  0  0  0
   43.5235   26.8042   32.1005 H   0  0  0  0  0  0  0  0  0  0  0  0
   43.7491   28.2176   33.2254 H   0  0  0  0  0  0  0  0  0  0  0  0
   41.8371   27.7830   34.3815 H   0  0  0  0  0  0  0  0  0  0  0  0
   42.1321   26.1215   33.8215 H   0  0  0  0  0  0  0  0  0  0  0  0
  1  4  1  0
  2  7  2  0
  3  2  1  0
  4  5  1  0
  4  3  2  0
  5  6  2  0
  6  7  1  0
  8  1  1  0
  9  8  2  0
 10  9  1  0
 11 10  1  0
 11 12  2  0
 12  8  1  0
 13 11  1  0
 13 18  1  0
 14 13  1  0
 15 14  1  0
 15 16  1  0
 16 17  1  0
 17 18  1  0
  1 19  1  0
  1 20  1  0
  2 21  1  0
  3 22  1  0
  6 23  1  0
 13 24  1  0
 14 25  1  0
 14 26  1  0
 15 27  1  0
 15 28  1  0
 16 29  1  0
 16 30  1  0
 17 31  1  0
 17 32  1  0
 18 33  1  0
 18 34  1  0
M  ISO  8  19   8  20   8  21  14  22  14  23  14  24  13  25  13  26  13
M  ISO  8  27  13  28  13  29  13  30  13  31  13  32  13  33  13  34  13
M  END
>  <minimizedAffinity>  (1) 
-4.07524967

>  <minimizedRMSD>  (1) 
1.90428853

$$$$
