
     RDKit          3D

 25 27  0  0  0  0  0  0  0  0999 V2000
   38.9210   24.4850   34.6800 C   0  0  0  0  0  0  0  0  0  0  0  0
   40.0280   25.4560   34.4820 C   0  0  0  0  0  0  0  0  0  0  0  0
   39.8990   26.7550   34.1340 N   0  0  0  0  0  0  0  0  0  0  0  0
   41.1030   27.2640   34.0630 O   0  0  0  0  0  0  0  0  0  0  0  0
   41.9750   26.3380   34.3520 C   0  0  0  0  0  0  0  0  0  0  0  0
   41.3410   25.1700   34.6270 N   0  0  0  0  0  0  0  0  0  0  0  0
   43.3960   26.4220   34.4050 N   0  0  0  0  0  0  0  0  0  0  0  0
   44.2600   27.2070   33.7310 C   0  0  0  0  0  0  0  0  0  0  0  0
   45.5370   26.8610   34.1830 C   0  0  0  0  0  0  0  0  0  0  0  0
   45.3950   25.8940   35.0990 N   0  0  0  0  0  0  0  0  0  0  0  0
   44.0800   25.6140   35.2440 C   0  0  0  0  0  0  0  0  0  0  0  0
   37.9640   24.3070   38.3340 C   0  0  0  0  0  0  0  0  0  0  0  0
   37.9640   24.6990   37.0020 C   0  0  0  0  0  0  0  0  0  0  0  0
   38.8800   24.0980   36.1290 C   0  0  0  0  0  0  0  0  0  0  0  0
   39.7300   23.1550   36.6210 N   0  0  0  0  0  0  0  0  0  0  0  0
   39.7040   22.7980   37.9180 C   0  0  0  0  0  0  0  0  0  0  0  0
   38.8260   23.3720   38.7630 N   0  0  0  0  0  0  0  0  0  0  0  0
   39.0961   23.5918   34.0623 H   0  0  0  0  0  0  0  0  0  0  0  0
   37.9639   24.9395   34.3843 H   0  0  0  0  0  0  0  0  0  0  0  0
   44.0104   27.9675   32.9765 H   0  0  0  0  0  0  0  0  0  0  0  0
   46.4867   27.3030   33.8471 H   0  0  0  0  0  0  0  0  0  0  0  0
   43.6461   24.8644   35.9221 H   0  0  0  0  0  0  0  0  0  0  0  0
   37.2552   24.7643   39.0400 H   0  0  0  0  0  0  0  0  0  0  0  0
   37.2609   25.4639   36.6406 H   0  0  0  0  0  0  0  0  0  0  0  0
   40.4027   22.0341   38.2899 H   0  0  0  0  0  0  0  0  0  0  0  0
  1 14  1  0
  2  6  1  0
  2  1  1  0
  3  2  2  0
  4  3  1  0
  4  5  1  0
  5  7  1  0
  5  6  2  0
  7 11  1  0
  8  9  2  0
  8  7  1  0
  9 10  1  0
 10 11  2  0
 12 17  2  0
 13 12  1  0
 14 15  1  0
 14 13  2  0
 15 16  2  0
 16 17  1  0
  1 18  1  0
  1 19  1  0
  8 20  1  0
  9 21  1  0
 11 22  1  0
 12 23  1  0
 13 24  1  0
 16 25  1  0
M  ISO  8  18   8  19   8  20  14  21  14  22  14  23  14  24  14  25  14
M  END
>  <minimizedAffinity>  (1) 
-4.03973293

>  <minimizedRMSD>  (1) 
1.74069178

$$$$
