
     RDKit          3D

 27 29  0  0  0  0  0  0  0  0999 V2000
   38.7880   24.4570   34.6970 C   0  0  0  0  0  0  0  0  0  0  0  0
   37.9620   24.3170   38.3900 C   0  0  0  0  0  0  0  0  0  0  0  0
   37.9260   24.6840   37.0570 C   0  0  0  0  0  0  0  0  0  0  0  0
   38.7920   24.0890   36.1550 C   0  0  0  0  0  0  0  0  0  0  0  0
   39.6600   23.1500   36.6340 N   0  0  0  0  0  0  0  0  0  0  0  0
   39.6730   22.8130   37.9370 C   0  0  0  0  0  0  0  0  0  0  0  0
   38.8280   23.3960   38.7990 N   0  0  0  0  0  0  0  0  0  0  0  0
   39.8520   25.4580   34.4630 C   0  0  0  0  0  0  0  0  0  0  0  0
   39.6800   26.7640   34.1700 N   0  0  0  0  0  0  0  0  0  0  0  0
   40.8630   27.3020   34.0380 O   0  0  0  0  0  0  0  0  0  0  0  0
   41.7740   26.3870   34.2370 C   0  0  0  0  0  0  0  0  0  0  0  0
   41.1780   25.2010   34.5100 N   0  0  0  0  0  0  0  0  0  0  0  0
   43.2440   26.5080   34.1980 C   0  0  0  0  0  0  0  0  0  0  0  0
   44.0940   25.8110   35.0550 C   0  0  0  0  0  0  0  0  0  0  0  0
   45.4540   26.0170   34.9100 C   0  0  0  0  0  0  0  0  0  0  0  0
   45.9490   26.8780   33.9520 C   0  0  0  0  0  0  0  0  0  0  0  0
   45.0840   27.5550   33.1160 C   0  0  0  0  0  0  0  0  0  0  0  0
   43.7730   27.3370   33.2800 N   0  0  0  0  0  0  0  0  0  0  0  0
   38.9803   23.5616   34.0877 H   0  0  0  0  0  0  0  0  0  0  0  0
   37.8096   24.8740   34.4160 H   0  0  0  0  0  0  0  0  0  0  0  0
   37.2754   24.7864   39.1098 H   0  0  0  0  0  0  0  0  0  0  0  0
   37.2112   25.4466   36.7142 H   0  0  0  0  0  0  0  0  0  0  0  0
   40.3824   22.0534   38.2973 H   0  0  0  0  0  0  0  0  0  0  0  0
   43.6985   25.1236   35.8173 H   0  0  0  0  0  0  0  0  0  0  0  0
   46.1540   25.4846   35.5707 H   0  0  0  0  0  0  0  0  0  0  0  0
   47.0347   27.0251   33.8543 H   0  0  0  0  0  0  0  0  0  0  0  0
   45.4568   28.2461   32.3457 H   0  0  0  0  0  0  0  0  0  0  0  0
  1  4  1  0
  2  7  2  0
  3  2  1  0
  4  5  1  0
  4  3  2  0
  5  6  2  0
  6  7  1  0
  8 12  1  0
  8  1  1  0
  9  8  2  0
 10  9  1  0
 10 11  1  0
 11 12  2  0
 13 11  1  0
 13 14  2  0
 15 14  1  0
 16 15  2  0
 17 18  2  0
 17 16  1  0
 18 13  1  0
  1 19  1  0
  1 20  1  0
  2 21  1  0
  3 22  1  0
  6 23  1  0
 14 24  1  0
 15 25  1  0
 16 26  1  0
 17 27  1  0
M  ISO  8  19   8  20   8  21  14  22  14  23  14  24  14  25  14  26  14
M  ISO  1  27  14
M  END
>  <minimizedAffinity>  (1) 
-3.93584991

>  <minimizedRMSD>  (1) 
1.6994406

$$$$
