
     RDKit          3D

 21 22  0  0  0  0  0  0  0  0999 V2000
   38.9380   24.4790   34.6870 C   0  0  0  0  0  0  0  0  0  0  0  0
   37.9690   24.2750   38.3450 C   0  0  0  0  0  0  0  0  0  0  0  0
   37.9620   24.6740   37.0070 C   0  0  0  0  0  0  0  0  0  0  0  0
   38.8800   24.0990   36.1450 C   0  0  0  0  0  0  0  0  0  0  0  0
   39.7570   23.1620   36.6420 N   0  0  0  0  0  0  0  0  0  0  0  0
   39.7270   22.8110   37.9320 C   0  0  0  0  0  0  0  0  0  0  0  0
   38.8300   23.3700   38.7850 N   0  0  0  0  0  0  0  0  0  0  0  0
   40.0050   25.4920   34.5070 C   0  0  0  0  0  0  0  0  0  0  0  0
   39.8410   26.8370   34.4300 N   0  0  0  0  0  0  0  0  0  0  0  0
   41.0200   27.3490   34.2730 O   0  0  0  0  0  0  0  0  0  0  0  0
   41.9320   26.3960   34.2470 C   0  0  0  0  0  0  0  0  0  0  0  0
   41.3180   25.1950   34.3950 N   0  0  0  0  0  0  0  0  0  0  0  0
   43.3970   26.5140   34.0900 C   0  0  0  0  0  0  0  0  0  0  0  0
   44.0930   25.6570   33.5220 O   0  0  0  0  0  0  0  0  0  0  0  0
   43.9810   27.6720   34.6270 O   0  0  0  0  0  0  0  0  0  0  0  0
   39.1645   23.5897   34.0805 H   0  0  0  0  0  0  0  0  0  0  0  0
   37.9697   24.8905   34.3660 H   0  0  0  0  0  0  0  0  0  0  0  0
   37.2471   24.7199   39.0456 H   0  0  0  0  0  0  0  0  0  0  0  0
   37.2450   25.4264   36.6468 H   0  0  0  0  0  0  0  0  0  0  0  0
   40.4378   22.0600   38.3071 H   0  0  0  0  0  0  0  0  0  0  0  0
   44.9584   27.8123   34.5555 H   0  0  0  0  0  0  0  0  0  0  0  0
  1  4  1  0
  2  7  2  0
  3  2  1  0
  4  5  1  0
  4  3  2  0
  5  6  2  0
  6  7  1  0
  8  1  1  0
  9  8  2  0
 10  9  1  0
 11 10  1  0
 11 12  2  0
 12  8  1  0
 13 11  1  0
 13 15  1  0
 14 13  2  0
  1 16  1  0
  1 17  1  0
  2 18  1  0
  3 19  1  0
  6 20  1  0
 15 21  1  0
M  ISO  6  16   8  17   8  18  14  19  14  20  14  21   3
M  END
>  <minimizedAffinity>  (1) 
-3.92642045

>  <minimizedRMSD>  (1) 
1.04907882

$$$$
