
     RDKit          3D

 21 22  0  0  0  0  0  0  0  0999 V2000
   38.9100   24.5310   34.7210 C   0  0  0  0  0  0  0  0  0  0  0  0
   37.9550   24.2910   38.3720 C   0  0  0  0  0  0  0  0  0  0  0  0
   37.9570   24.6980   37.0460 C   0  0  0  0  0  0  0  0  0  0  0  0
   38.8660   24.1250   36.1680 C   0  0  0  0  0  0  0  0  0  0  0  0
   39.7250   23.1750   36.6540 N   0  0  0  0  0  0  0  0  0  0  0  0
   39.6920   22.8100   37.9420 C   0  0  0  0  0  0  0  0  0  0  0  0
   38.8070   23.3680   38.7950 N   0  0  0  0  0  0  0  0  0  0  0  0
   40.0360   25.4780   34.5310 C   0  0  0  0  0  0  0  0  0  0  0  0
   39.9350   26.8090   34.3190 N   0  0  0  0  0  0  0  0  0  0  0  0
   41.1440   27.2750   34.2040 O   0  0  0  0  0  0  0  0  0  0  0  0
   42.0040   26.2920   34.3350 C   0  0  0  0  0  0  0  0  0  0  0  0
   41.3440   25.1310   34.5450 N   0  0  0  0  0  0  0  0  0  0  0  0
   43.5020   26.2550   34.2920 C   0  0  0  0  0  0  0  0  0  0  0  0
   44.0280   27.4760   33.9860 F   0  0  0  0  0  0  0  0  0  0  0  0
   43.9230   25.3130   33.3630 F   0  0  0  0  0  0  0  0  0  0  0  0
   43.9240   25.7900   35.5220 F   0  0  0  0  0  0  0  0  0  0  0  0
   39.0624   23.6423   34.0909 H   0  0  0  0  0  0  0  0  0  0  0  0
   37.9622   25.0108   34.4355 H   0  0  0  0  0  0  0  0  0  0  0  0
   37.2402   24.7381   39.0786 H   0  0  0  0  0  0  0  0  0  0  0  0
   37.2488   25.4633   36.6958 H   0  0  0  0  0  0  0  0  0  0  0  0
   40.3940   22.0468   38.3091 H   0  0  0  0  0  0  0  0  0  0  0  0
  1  4  1  0
  2  7  2  0
  3  2  1  0
  4  5  1  0
  4  3  2  0
  5  6  2  0
  6  7  1  0
  8 12  1  0
  8  1  1  0
  9  8  2  0
 10  9  1  0
 10 11  1  0
 11 12  2  0
 13 11  1  0
 13 16  1  0
 14 13  1  0
 15 13  1  0
  1 17  1  0
  1 18  1  0
  2 19  1  0
  3 20  1  0
  6 21  1  0
M  ISO  5  17   8  18   8  19  14  20  14  21  14
M  END
>  <minimizedAffinity>  (1) 
-3.72552466

>  <minimizedRMSD>  (1) 
1.38562119

$$$$
