
     RDKit          3D

 25 27  0  0  0  0  0  0  0  0999 V2000
   38.9370   24.5650   34.7140 C   0  0  0  0  0  0  0  0  0  0  0  0
   37.9480   24.2680   38.3570 C   0  0  0  0  0  0  0  0  0  0  0  0
   37.9480   24.6960   37.0370 C   0  0  0  0  0  0  0  0  0  0  0  0
   38.8910   24.1370   36.1580 C   0  0  0  0  0  0  0  0  0  0  0  0
   39.7630   23.2010   36.6290 N   0  0  0  0  0  0  0  0  0  0  0  0
   39.7220   22.8140   37.9280 C   0  0  0  0  0  0  0  0  0  0  0  0
   38.8190   23.3510   38.7690 N   0  0  0  0  0  0  0  0  0  0  0  0
   40.1380   25.4100   34.5190 C   0  0  0  0  0  0  0  0  0  0  0  0
   40.1930   26.7580   34.5840 N   0  0  0  0  0  0  0  0  0  0  0  0
   41.4240   27.1240   34.3550 O   0  0  0  0  0  0  0  0  0  0  0  0
   42.1520   26.0520   34.1460 C   0  0  0  0  0  0  0  0  0  0  0  0
   41.3800   24.9450   34.2390 N   0  0  0  0  0  0  0  0  0  0  0  0
   43.6100   25.9990   33.8460 C   0  0  0  0  0  0  0  0  0  0  0  0
   44.4720   27.1700   34.1490 C   0  0  0  0  0  0  0  0  0  0  0  0
   44.5790   26.0150   35.0690 C   0  0  0  0  0  0  0  0  0  0  0  0
   38.9959   23.6789   34.0648 H   0  0  0  0  0  0  0  0  0  0  0  0
   38.0292   25.1303   34.4565 H   0  0  0  0  0  0  0  0  0  0  0  0
   37.2224   24.6901   39.0678 H   0  0  0  0  0  0  0  0  0  0  0  0
   37.2294   25.4523   36.6883 H   0  0  0  0  0  0  0  0  0  0  0  0
   40.4304   22.0573   38.2962 H   0  0  0  0  0  0  0  0  0  0  0  0
   43.4435   25.3746   32.9559 H   0  0  0  0  0  0  0  0  0  0  0  0
   45.3132   27.4085   33.4815 H   0  0  0  0  0  0  0  0  0  0  0  0
   44.2687   28.2406   34.2990 H   0  0  0  0  0  0  0  0  0  0  0  0
   44.1797   26.0821   36.0918 H   0  0  0  0  0  0  0  0  0  0  0  0
   45.3941   25.3738   35.4358 H   0  0  0  0  0  0  0  0  0  0  0  0
  1  4  1  0
  2  7  2  0
  3  2  1  0
  4  5  1  0
  4  3  2  0
  5  6  2  0
  6  7  1  0
  8  9  2  0
  8  1  1  0
 10  9  1  0
 11 12  2  0
 11 10  1  0
 12  8  1  0
 13 11  1  0
 13 14  1  0
 13 15  1  0
 14 15  1  0
  1 16  1  0
  1 17  1  0
  2 18  1  0
  3 19  1  0
  6 20  1  0
 13 21  1  0
 14 22  1  0
 14 23  1  0
 15 24  1  0
 15 25  1  0
M  ISO  8  16   8  17   8  18  14  19  14  20  14  21  13  22  13  23  13
M  ISO  2  24  13  25  13
M  END
>  <minimizedAffinity>  (1) 
-3.58844566

>  <minimizedRMSD>  (1) 
1.05654681

$$$$
