
     RDKit          3D

 19 20  0  0  0  0  0  0  0  0999 V2000
   38.5090   24.6270   34.7410 C   0  0  0  0  0  0  0  0  0  0  0  0
   37.9840   24.2230   38.4730 C   0  0  0  0  0  0  0  0  0  0  0  0
   37.8180   24.6710   37.1670 C   0  0  0  0  0  0  0  0  0  0  0  0
   38.6500   24.1710   36.1740 C   0  0  0  0  0  0  0  0  0  0  0  0
   39.6040   23.2510   36.5220 N   0  0  0  0  0  0  0  0  0  0  0  0
   39.7360   22.8410   37.7920 C   0  0  0  0  0  0  0  0  0  0  0  0
   38.9220   23.3330   38.7540 N   0  0  0  0  0  0  0  0  0  0  0  0
   39.7020   25.4340   34.3960 C   0  0  0  0  0  0  0  0  0  0  0  0
   40.1060   26.5780   34.9910 N   0  0  0  0  0  0  0  0  0  0  0  0
   41.1950   26.9800   34.4050 O   0  0  0  0  0  0  0  0  0  0  0  0
   41.5010   26.1230   33.4470 C   0  0  0  0  0  0  0  0  0  0  0  0
   40.5860   25.1270   33.4030 N   0  0  0  0  0  0  0  0  0  0  0  0
   42.8570   26.0660   32.2610 S   0  0  0  0  0  0  0  0  0  0  0  0
   38.4449   23.7530   34.0761 H   0  0  0  0  0  0  0  0  0  0  0  0
   37.5949   25.2268   34.6199 H   0  0  0  0  0  0  0  0  0  0  0  0
   37.3351   24.6088   39.2730 H   0  0  0  0  0  0  0  0  0  0  0  0
   37.0399   25.4098   36.9244 H   0  0  0  0  0  0  0  0  0  0  0  0
   40.5085   22.1024   38.0523 H   0  0  0  0  0  0  0  0  0  0  0  0
   44.0497   26.0159   32.9331 H   0  0  0  0  0  0  0  0  0  0  0  0
  1  4  1  0
  2  7  2  0
  3  2  1  0
  4  5  1  0
  4  3  2  0
  5  6  2  0
  6  7  1  0
  8  1  1  0
  8  9  2  0
 10  9  1  0
 11 10  1  0
 12 11  2  0
 12  8  1  0
 13 11  1  0
  1 14  1  0
  1 15  1  0
  2 16  1  0
  3 17  1  0
  6 18  1  0
 13 19  1  0
M  ISO  6  14   8  15   8  16  14  17  14  18  14  19  11
M  END
>  <minimizedAffinity>  (1) 
-3.37371039

>  <minimizedRMSD>  (1) 
0.0229770821

$$$$
