
     RDKit          3D

 19 20  0  0  0  0  0  0  0  0999 V2000
   38.5130   24.6220   34.7330 C   0  0  0  0  0  0  0  0  0  0  0  0
   37.9790   24.2270   38.4480 C   0  0  0  0  0  0  0  0  0  0  0  0
   37.8170   24.6720   37.1420 C   0  0  0  0  0  0  0  0  0  0  0  0
   38.6510   24.1730   36.1560 C   0  0  0  0  0  0  0  0  0  0  0  0
   39.5990   23.2600   36.5200 N   0  0  0  0  0  0  0  0  0  0  0  0
   39.7290   22.8510   37.7870 C   0  0  0  0  0  0  0  0  0  0  0  0
   38.9160   23.3350   38.7610 N   0  0  0  0  0  0  0  0  0  0  0  0
   39.7100   25.4350   34.3800 C   0  0  0  0  0  0  0  0  0  0  0  0
   40.1050   26.5840   34.9980 N   0  0  0  0  0  0  0  0  0  0  0  0
   41.1830   26.9760   34.3990 O   0  0  0  0  0  0  0  0  0  0  0  0
   41.4950   26.1340   33.4300 C   0  0  0  0  0  0  0  0  0  0  0  0
   40.5830   25.1330   33.3810 N   0  0  0  0  0  0  0  0  0  0  0  0
   42.6170   26.2940   32.6010 O   0  0  0  0  0  0  0  0  0  0  0  0
   38.4504   23.7457   34.0711 H   0  0  0  0  0  0  0  0  0  0  0  0
   37.5989   25.2218   34.6122 H   0  0  0  0  0  0  0  0  0  0  0  0
   37.3211   24.6189   39.2377 H   0  0  0  0  0  0  0  0  0  0  0  0
   37.0386   25.4090   36.8953 H   0  0  0  0  0  0  0  0  0  0  0  0
   40.5040   22.1135   38.0430 H   0  0  0  0  0  0  0  0  0  0  0  0
   42.8047   25.6324   31.8889 H   0  0  0  0  0  0  0  0  0  0  0  0
  1  4  1  0
  2  7  2  0
  3  2  1  0
  4  5  1  0
  4  3  2  0
  5  6  2  0
  6  7  1  0
  8  1  1  0
  8  9  2  0
 10  9  1  0
 11 10  1  0
 12 11  2  0
 12  8  1  0
 13 11  1  0
  1 14  1  0
  1 15  1  0
  2 16  1  0
  3 17  1  0
  6 18  1  0
 13 19  1  0
M  ISO  6  14   8  15   8  16  14  17  14  18  14  19   3
M  END
>  <minimizedAffinity>  (1) 
-3.36767626

>  <minimizedRMSD>  (1) 
0.0137557229

$$$$
