
     RDKit          3D

 34 36  0  0  0  0  0  0  0  0999 V2000
   38.0890   27.2020   34.0380 C   0  0  0  0  0  0  0  0  0  0  0  0
   36.9080   27.7370   34.5030 C   0  0  0  0  0  0  0  0  0  0  0  0
   36.0310   28.4590   33.6980 C   0  0  0  0  0  0  0  0  0  0  0  0
   36.3600   28.6410   32.4000 N   0  0  0  0  0  0  0  0  0  0  0  0
   37.5330   28.1120   31.9290 C   0  0  0  0  0  0  0  0  0  0  0  0
   38.3630   27.4120   32.7490 N   0  0  0  0  0  0  0  0  0  0  0  0
   37.9620   28.2640   30.5430 C   0  0  0  0  0  0  0  0  0  0  0  0
   39.0270   27.5030   30.1090 C   0  0  0  0  0  0  0  0  0  0  0  0
   39.5400   27.5420   28.8280 C   0  0  0  0  0  0  0  0  0  0  0  0
   38.9140   28.4190   27.9370 C   0  0  0  0  0  0  0  0  0  0  0  0
   37.8470   29.1870   28.3520 C   0  0  0  0  0  0  0  0  0  0  0  0
   37.3490   29.1290   29.6520 C   0  0  0  0  0  0  0  0  0  0  0  0
   38.9600   26.4430   34.9830 C   0  0  0  0  0  0  0  0  0  0  0  0
   38.7810   24.9490   34.8500 C   0  0  0  0  0  0  0  0  0  0  0  0
   39.7470   22.8140   37.7510 C   0  0  0  0  0  0  0  0  0  0  0  0
   38.8530   23.2560   38.7490 C   0  0  0  0  0  0  0  0  0  0  0  0
   37.9500   24.2680   38.3960 C   0  0  0  0  0  0  0  0  0  0  0  0
   37.9630   24.7810   37.1350 N   0  0  0  0  0  0  0  0  0  0  0  0
   38.8530   24.3130   36.2100 C   0  0  0  0  0  0  0  0  0  0  0  0
   39.7250   23.3500   36.5150 N   0  0  0  0  0  0  0  0  0  0  0  0
   36.6453   27.5867   35.5605 H   0  0  0  0  0  0  0  0  0  0  0  0
   35.0963   28.8699   34.1072 H   0  0  0  0  0  0  0  0  0  0  0  0
   39.4987   26.8201   30.8309 H   0  0  0  0  0  0  0  0  0  0  0  0
   40.3937   26.9179   28.5251 H   0  0  0  0  0  0  0  0  0  0  0  0
   39.2744   28.4965   26.9006 H   0  0  0  0  0  0  0  0  0  0  0  0
   37.3722   29.8694   27.6317 H   0  0  0  0  0  0  0  0  0  0  0  0
   36.4958   29.7507   29.9609 H   0  0  0  0  0  0  0  0  0  0  0  0
   40.0107   26.6937   34.7753 H   0  0  0  0  0  0  0  0  0  0  0  0
   38.6752   26.7272   36.0068 H   0  0  0  0  0  0  0  0  0  0  0  0
   37.8016   24.7359   34.3969 H   0  0  0  0  0  0  0  0  0  0  0  0
   39.5773   24.5396   34.2110 H   0  0  0  0  0  0  0  0  0  0  0  0
   40.4721   22.0207   37.9852 H   0  0  0  0  0  0  0  0  0  0  0  0
   38.8643   22.8247   39.7609 H   0  0  0  0  0  0  0  0  0  0  0  0
   37.2313   24.6475   39.1372 H   0  0  0  0  0  0  0  0  0  0  0  0
  1  2  2  0
  1 13  1  0
  3  2  1  0
  4  3  2  0
  5  4  1  0
  5  6  2  0
  6  1  1  0
  7  5  1  0
  8  7  2  0
  9  8  1  0
 10 11  1  0
 10  9  2  0
 11 12  2  0
 12  7  1  0
 14 13  1  0
 14 19  1  0
 15 16  2  0
 17 16  1  0
 18 17  2  0
 19 20  2  0
 19 18  1  0
 20 15  1  0
  2 21  1  0
  3 22  1  0
  8 23  1  0
  9 24  1  0
 10 25  1  0
 11 26  1  0
 12 27  1  0
 13 28  1  0
 13 29  1  0
 14 30  1  0
 14 31  1  0
 15 32  1  0
 16 33  1  0
 17 34  1  0
M  ISO  8  21  14  22  14  23  14  24  14  25  14  26  14  27  14  28   8
M  ISO  6  29   8  30   8  31   8  32  14  33  14  34  14
M  END
>  <minimizedAffinity>  (1) 
-4.94663191

>  <minimizedRMSD>  (1) 
0.729369044

$$$$
