
     RDKit          3D

 38 40  0  0  0  0  0  0  0  0999 V2000
   38.7500   25.1760   34.8560 C   0  0  0  0  0  0  0  0  0  0  0  0
   40.0830   25.7850   34.6630 C   0  0  0  0  0  0  0  0  0  0  0  0
   40.3940   27.0540   34.2510 N   0  0  0  0  0  0  0  0  0  0  0  0
   41.6970   27.1490   34.2270 O   0  0  0  0  0  0  0  0  0  0  0  0
   42.2070   25.9940   34.6060 C   0  0  0  0  0  0  0  0  0  0  0  0
   41.2300   25.0930   34.8960 N   0  0  0  0  0  0  0  0  0  0  0  0
   43.6600   25.9660   34.6220 N   0  0  0  0  0  0  0  0  0  0  0  0
   44.2650   26.7210   33.5450 C   0  0  0  0  0  0  0  0  0  0  0  0
   45.3110   27.6280   34.2040 C   0  0  0  0  0  0  0  0  0  0  0  0
   46.2310   26.7770   34.8340 O   0  0  0  0  0  0  0  0  0  0  0  0
   45.6170   26.2650   35.9710 C   0  0  0  0  0  0  0  0  0  0  0  0
   44.5290   25.3010   35.5500 C   0  0  0  0  0  0  0  0  0  0  0  0
   37.9380   24.2820   38.4340 C   0  0  0  0  0  0  0  0  0  0  0  0
   37.8780   24.9730   37.2220 C   0  0  0  0  0  0  0  0  0  0  0  0
   38.7160   24.5220   36.2130 C   0  0  0  0  0  0  0  0  0  0  0  0
   39.5340   23.4520   36.4520 N   0  0  0  0  0  0  0  0  0  0  0  0
   39.5590   22.8120   37.6430 C   0  0  0  0  0  0  0  0  0  0  0  0
   38.7550   23.2430   38.6170 N   0  0  0  0  0  0  0  0  0  0  0  0
   40.4460   21.7080   37.7830 N   0  0  0  0  0  0  0  0  0  0  0  0
   41.4810   21.5030   36.8290 C   0  0  0  0  0  0  0  0  0  0  0  0
   41.2700   21.7130   35.5910 N   0  0  0  0  0  0  0  0  0  0  0  0
   42.7690   21.0560   37.2580 N   0  0  0  0  0  0  0  0  0  0  0  0
   40.3910   22.0290   35.1750 H   0  0  0  0  0  0  0  0  0  0  0  0
   38.5700   24.4217   34.0758 H   0  0  0  0  0  0  0  0  0  0  0  0
   37.9693   25.9481   34.7897 H   0  0  0  0  0  0  0  0  0  0  0  0
   43.5055   27.3257   33.0279 H   0  0  0  0  0  0  0  0  0  0  0  0
   44.7202   26.0591   32.7936 H   0  0  0  0  0  0  0  0  0  0  0  0
   45.8177   28.2399   33.4432 H   0  0  0  0  0  0  0  0  0  0  0  0
   44.8454   28.3162   34.9248 H   0  0  0  0  0  0  0  0  0  0  0  0
   46.3606   25.7366   36.5858 H   0  0  0  0  0  0  0  0  0  0  0  0
   45.1802   27.0853   36.5595 H   0  0  0  0  0  0  0  0  0  0  0  0
   43.9545   24.9827   36.4324 H   0  0  0  0  0  0  0  0  0  0  0  0
   44.9760   24.4146   35.0762 H   0  0  0  0  0  0  0  0  0  0  0  0
   37.2916   24.6042   39.2637 H   0  0  0  0  0  0  0  0  0  0  0  0
   37.2026   25.8288   37.0754 H   0  0  0  0  0  0  0  0  0  0  0  0
   40.3386   21.0578   38.5746 H   0  0  0  0  0  0  0  0  0  0  0  0
   43.5188   20.9074   36.5677 H   0  0  0  0  0  0  0  0  0  0  0  0
   42.9474   20.8825   38.2575 H   0  0  0  0  0  0  0  0  0  0  0  0
  1 15  1  0
  2  1  1  0
  2  6  1  0
  3  2  2  0
  4  3  1  0
  4  5  1  0
  5  7  1  0
  5  6  2  0
  7 12  1  0
  8  9  1  0
  8  7  1  0
  9 10  1  0
 10 11  1  0
 12 11  1  0
 13 18  2  0
 14 13  1  0
 15 16  1  0
 15 14  2  0
 16 17  2  0
 17 19  1  0
 17 18  1  0
 20 22  1  0
 20 19  1  0
 21 20  2  0
 23 21  1  0
  1 24  1  0
  1 25  1  0
  8 26  1  0
  8 27  1  0
  9 28  1  0
  9 29  1  0
 11 30  1  0
 11 31  1  0
 12 32  1  0
 12 33  1  0
 13 34  1  0
 14 35  1  0
 19 36  1  0
 22 37  1  0
 22 38  1  0
M  ISO  8  24   8  25   8  26  13  27  13  28  13  29  13  30  13  31  13
M  ISO  4  32  13  33  13  34  14  35  14
M  END
>  <minimizedAffinity>  (1) 
-5.67825174

>  <minimizedRMSD>  (1) 
0.488634944

$$$$
