
     RDKit          3D

 38 41  0  0  0  0  0  0  0  0999 V2000
   42.0630   23.5950   35.4430 C   0  0  0  0  0  0  0  0  0  0  0  0
   42.5700   22.8740   36.4740 N   0  0  0  0  0  0  0  0  0  0  0  0
   43.5840   23.5440   36.9640 O   0  0  0  0  0  0  0  0  0  0  0  0
   43.7270   24.6620   36.2710 C   0  0  0  0  0  0  0  0  0  0  0  0
   42.7890   24.7400   35.2980 N   0  0  0  0  0  0  0  0  0  0  0  0
   44.8190   25.4840   36.7220 N   0  0  0  0  0  0  0  0  0  0  0  0
   45.0100   25.4790   38.1610 C   0  0  0  0  0  0  0  0  0  0  0  0
   46.5010   25.2020   38.3880 C   0  0  0  0  0  0  0  0  0  0  0  0
   47.2040   26.2580   37.7550 O   0  0  0  0  0  0  0  0  0  0  0  0
   47.1240   26.0520   36.3950 C   0  0  0  0  0  0  0  0  0  0  0  0
   45.7120   26.2850   35.9220 C   0  0  0  0  0  0  0  0  0  0  0  0
   40.9130   23.2760   34.5620 C   0  0  0  0  0  0  0  0  0  0  0  0
   38.0980   24.4440   36.7860 C   0  0  0  0  0  0  0  0  0  0  0  0
   39.2270   23.7420   36.3700 C   0  0  0  0  0  0  0  0  0  0  0  0
   39.7120   23.9820   35.0900 C   0  0  0  0  0  0  0  0  0  0  0  0
   39.0540   24.8940   34.3080 N   0  0  0  0  0  0  0  0  0  0  0  0
   37.9580   25.5560   34.7530 C   0  0  0  0  0  0  0  0  0  0  0  0
   37.4840   25.3310   35.9820 N   0  0  0  0  0  0  0  0  0  0  0  0
   37.2700   26.5230   33.9080 C   0  0  0  0  0  0  0  0  0  0  0  0
   36.8230   27.8120   33.9940 C   0  0  0  0  0  0  0  0  0  0  0  0
   36.2510   28.0810   32.7720 C   0  0  0  0  0  0  0  0  0  0  0  0
   36.3650   26.9560   31.9820 C   0  0  0  0  0  0  0  0  0  0  0  0
   36.9890   26.0490   32.7210 O   0  0  0  0  0  0  0  0  0  0  0  0
   44.7333   26.4548   38.5868 H   0  0  0  0  0  0  0  0  0  0  0  0
   44.3802   24.7203   38.6486 H   0  0  0  0  0  0  0  0  0  0  0  0
   46.7257   25.1867   39.4647 H   0  0  0  0  0  0  0  0  0  0  0  0
   46.7928   24.2247   37.9760 H   0  0  0  0  0  0  0  0  0  0  0  0
   47.8007   26.7498   35.8802 H   0  0  0  0  0  0  0  0  0  0  0  0
   47.4150   25.0157   36.1684 H   0  0  0  0  0  0  0  0  0  0  0  0
   45.4551   27.3488   36.0330 H   0  0  0  0  0  0  0  0  0  0  0  0
   45.6203   26.0042   34.8624 H   0  0  0  0  0  0  0  0  0  0  0  0
   40.7357   22.1904   34.5596 H   0  0  0  0  0  0  0  0  0  0  0  0
   41.1221   23.6004   33.5319 H   0  0  0  0  0  0  0  0  0  0  0  0
   37.6989   24.2690   37.7960 H   0  0  0  0  0  0  0  0  0  0  0  0
   39.7205   23.0185   37.0356 H   0  0  0  0  0  0  0  0  0  0  0  0
   36.9035   28.4898   34.8566 H   0  0  0  0  0  0  0  0  0  0  0  0
   35.7826   29.0311   32.4755 H   0  0  0  0  0  0  0  0  0  0  0  0
   36.0100   26.8356   30.9479 H   0  0  0  0  0  0  0  0  0  0  0  0
  1  2  2  0
  2  3  1  0
  4  6  1  0
  4  3  1  0
  5  1  1  0
  5  4  2  0
  6  7  1  0
  7  8  1  0
  9  8  1  0
 10  9  1  0
 11 10  1  0
 11  6  1  0
 12 15  1  0
 12  1  1  0
 14 13  2  0
 15 14  1  0
 16 17  1  0
 16 15  2  0
 17 18  2  0
 18 13  1  0
 19 20  2  0
 19 17  1  0
 21 20  1  0
 22 23  1  0
 22 21  2  0
 23 19  1  0
  7 24  1  0
  7 25  1  0
  8 26  1  0
  8 27  1  0
 10 28  1  0
 10 29  1  0
 11 30  1  0
 11 31  1  0
 12 32  1  0
 12 33  1  0
 13 34  1  0
 14 35  1  0
 20 36  1  0
 21 37  1  0
 22 38  1  0
M  ISO  8  24  13  25  13  26  13  27  13  28  13  29  13  30  13  31  13
M  ISO  7  32   8  33   8  34  14  35  14  36  14  37  14  38  14
M  END
>  <minimizedAffinity>  (1) 
-5.17079163

>  <minimizedRMSD>  (1) 
5.29971743

$$$$
