
     RDKit          3D

 39 42  0  0  0  0  0  0  0  0999 V2000
   41.3980   24.6410   34.9100 C   0  0  0  0  0  0  0  0  0  0  0  0
   41.9170   23.4950   35.4010 N   0  0  0  0  0  0  0  0  0  0  0  0
   43.1030   23.7830   35.8810 O   0  0  0  0  0  0  0  0  0  0  0  0
   43.3410   25.0580   35.7070 C   0  0  0  0  0  0  0  0  0  0  0  0
   42.2880   25.6630   35.0900 N   0  0  0  0  0  0  0  0  0  0  0  0
   44.6250   25.5030   36.1970 N   0  0  0  0  0  0  0  0  0  0  0  0
   45.0390   24.8550   37.4140 C   0  0  0  0  0  0  0  0  0  0  0  0
   46.4700   24.3570   37.1510 C   0  0  0  0  0  0  0  0  0  0  0  0
   47.2490   25.4950   36.8560 O   0  0  0  0  0  0  0  0  0  0  0  0
   46.9140   25.9310   35.5920 C   0  0  0  0  0  0  0  0  0  0  0  0
   45.5140   26.4940   35.6190 C   0  0  0  0  0  0  0  0  0  0  0  0
   40.0880   24.8650   34.2600 C   0  0  0  0  0  0  0  0  0  0  0  0
   37.8700   22.8230   36.5330 C   0  0  0  0  0  0  0  0  0  0  0  0
   38.8070   23.7910   36.1470 C   0  0  0  0  0  0  0  0  0  0  0  0
   39.1050   23.8720   34.7940 C   0  0  0  0  0  0  0  0  0  0  0  0
   38.4890   23.0270   33.9110 N   0  0  0  0  0  0  0  0  0  0  0  0
   37.5850   22.1000   34.3260 C   0  0  0  0  0  0  0  0  0  0  0  0
   37.2870   22.0110   35.6430 N   0  0  0  0  0  0  0  0  0  0  0  0
   36.9420   21.2100   33.3690 C   0  0  0  0  0  0  0  0  0  0  0  0
   35.7280   20.6430   33.6900 C   0  0  0  0  0  0  0  0  0  0  0  0
   35.1600   19.8080   32.7500 C   0  0  0  0  0  0  0  0  0  0  0  0
   35.7640   19.5630   31.5810 N   0  0  0  0  0  0  0  0  0  0  0  0
   36.9410   20.1450   31.3290 C   0  0  0  0  0  0  0  0  0  0  0  0
   37.5460   20.9570   32.1830 N   0  0  0  0  0  0  0  0  0  0  0  0
   45.0284   25.5681   38.2515 H   0  0  0  0  0  0  0  0  0  0  0  0
   44.3643   24.0298   37.6857 H   0  0  0  0  0  0  0  0  0  0  0  0
   46.8643   23.8490   38.0434 H   0  0  0  0  0  0  0  0  0  0  0  0
   46.4912   23.6374   36.3193 H   0  0  0  0  0  0  0  0  0  0  0  0
   46.9583   25.0873   34.8875 H   0  0  0  0  0  0  0  0  0  0  0  0
   47.6206   26.7098   35.2691 H   0  0  0  0  0  0  0  0  0  0  0  0
   45.4948   27.4092   36.2290 H   0  0  0  0  0  0  0  0  0  0  0  0
   45.1887   26.7387   34.5971 H   0  0  0  0  0  0  0  0  0  0  0  0
   40.1889   24.7362   33.1722 H   0  0  0  0  0  0  0  0  0  0  0  0
   39.7375   25.8861   34.4709 H   0  0  0  0  0  0  0  0  0  0  0  0
   37.6064   22.7279   37.5967 H   0  0  0  0  0  0  0  0  0  0  0  0
   39.2841   24.4557   36.8822 H   0  0  0  0  0  0  0  0  0  0  0  0
   35.2343   20.8467   34.6516 H   0  0  0  0  0  0  0  0  0  0  0  0
   34.1911   19.3340   32.9657 H   0  0  0  0  0  0  0  0  0  0  0  0
   37.4308   19.9396   30.3657 H   0  0  0  0  0  0  0  0  0  0  0  0
  1  5  1  0
  1  2  2  0
  2  3  1  0
  4  3  1  0
  4  6  1  0
  5  4  2  0
  6  7  1  0
  8  7  1  0
  9  8  1  0
 10 11  1  0
 10  9  1  0
 11  6  1  0
 12 15  1  0
 12  1  1  0
 14 13  2  0
 15 14  1  0
 16 17  1  0
 16 15  2  0
 17 18  2  0
 18 13  1  0
 19 20  2  0
 19 17  1  0
 21 20  1  0
 22 21  2  0
 23 22  1  0
 23 24  2  0
 24 19  1  0
  7 25  1  0
  7 26  1  0
  8 27  1  0
  8 28  1  0
 10 29  1  0
 10 30  1  0
 11 31  1  0
 11 32  1  0
 12 33  1  0
 12 34  1  0
 13 35  1  0
 14 36  1  0
 20 37  1  0
 21 38  1  0
 23 39  1  0
M  ISO  8  25  13  26  13  27  13  28  13  29  13  30  13  31  13  32  13
M  ISO  7  33   8  34   8  35  14  36  14  37  14  38  14  39  14
M  END
>  <minimizedAffinity>  (1) 
-5.01238441

>  <minimizedRMSD>  (1) 
4.74361897

$$$$
