
     RDKit          3D

 40 43  0  0  0  0  0  0  0  0999 V2000
   39.7810   26.1760   34.5220 C   0  0  0  0  0  0  0  0  0  0  0  0
   40.0210   27.2940   33.7860 N   0  0  0  0  0  0  0  0  0  0  0  0
   41.3160   27.3710   33.6030 O   0  0  0  0  0  0  0  0  0  0  0  0
   41.8970   26.3450   34.1960 C   0  0  0  0  0  0  0  0  0  0  0  0
   40.9580   25.5540   34.7970 N   0  0  0  0  0  0  0  0  0  0  0  0
   43.3390   26.3150   34.0660 N   0  0  0  0  0  0  0  0  0  0  0  0
   43.8120   26.7720   32.7790 C   0  0  0  0  0  0  0  0  0  0  0  0
   44.9040   27.8140   33.1010 C   0  0  0  0  0  0  0  0  0  0  0  0
   45.9000   27.1290   33.8090 O   0  0  0  0  0  0  0  0  0  0  0  0
   45.4220   26.9010   35.1010 C   0  0  0  0  0  0  0  0  0  0  0  0
   44.3090   25.8920   35.0490 C   0  0  0  0  0  0  0  0  0  0  0  0
   38.4820   25.6450   34.9950 C   0  0  0  0  0  0  0  0  0  0  0  0
   38.3230   23.7930   38.2820 C   0  0  0  0  0  0  0  0  0  0  0  0
   37.9910   24.7370   37.2900 C   0  0  0  0  0  0  0  0  0  0  0  0
   38.7340   24.7010   36.1170 C   0  0  0  0  0  0  0  0  0  0  0  0
   39.7290   23.7700   35.9840 N   0  0  0  0  0  0  0  0  0  0  0  0
   40.0110   22.8800   36.9690 C   0  0  0  0  0  0  0  0  0  0  0  0
   39.3140   22.8900   38.1090 N   0  0  0  0  0  0  0  0  0  0  0  0
   41.0970   21.9440   36.6930 C   0  0  0  0  0  0  0  0  0  0  0  0
   41.6240   21.7590   35.4330 C   0  0  0  0  0  0  0  0  0  0  0  0
   42.6490   20.8860   35.1310 C   0  0  0  0  0  0  0  0  0  0  0  0
   43.1710   20.1500   36.2000 C   0  0  0  0  0  0  0  0  0  0  0  0
   42.6250   20.3530   37.4510 C   0  0  0  0  0  0  0  0  0  0  0  0
   41.6090   21.2320   37.6930 N   0  0  0  0  0  0  0  0  0  0  0  0
   42.9931   27.2341   32.2081 H   0  0  0  0  0  0  0  0  0  0  0  0
   44.1981   25.9459   32.1639 H   0  0  0  0  0  0  0  0  0  0  0  0
   45.3167   28.2337   32.1717 H   0  0  0  0  0  0  0  0  0  0  0  0
   44.4988   28.6517   33.6876 H   0  0  0  0  0  0  0  0  0  0  0  0
   46.2371   26.5165   35.7317 H   0  0  0  0  0  0  0  0  0  0  0  0
   45.0452   27.8432   35.5257 H   0  0  0  0  0  0  0  0  0  0  0  0
   43.8280   25.8217   36.0358 H   0  0  0  0  0  0  0  0  0  0  0  0
   44.7124   24.9063   34.7741 H   0  0  0  0  0  0  0  0  0  0  0  0
   37.8479   26.4736   35.3434 H   0  0  0  0  0  0  0  0  0  0  0  0
   37.9684   25.1235   34.1739 H   0  0  0  0  0  0  0  0  0  0  0  0
   37.7585   23.7908   39.2261 H   0  0  0  0  0  0  0  0  0  0  0  0
   37.1820   25.4676   37.4375 H   0  0  0  0  0  0  0  0  0  0  0  0
   41.1969   22.3496   34.6091 H   0  0  0  0  0  0  0  0  0  0  0  0
   43.0342   20.7750   34.1067 H   0  0  0  0  0  0  0  0  0  0  0  0
   43.9906   19.4323   36.0482 H   0  0  0  0  0  0  0  0  0  0  0  0
   43.0292   19.7770   38.2965 H   0  0  0  0  0  0  0  0  0  0  0  0
  1  5  1  0
  1 12  1  0
  2  1  2  0
  3  2  1  0
  3  4  1  0
  4  5  2  0
  6  4  1  0
  6 11  1  0
  7  8  1  0
  7  6  1  0
  8  9  1  0
  9 10  1  0
 11 10  1  0
 12 15  1  0
 14 13  2  0
 15 14  1  0
 16 15  2  0
 16 17  1  0
 17 18  2  0
 18 13  1  0
 19 17  1  0
 19 24  1  0
 20 19  2  0
 21 20  1  0
 21 22  2  0
 22 23  1  0
 23 24  2  0
  7 25  1  0
  7 26  1  0
  8 27  1  0
  8 28  1  0
 10 29  1  0
 10 30  1  0
 11 31  1  0
 11 32  1  0
 12 33  1  0
 12 34  1  0
 13 35  1  0
 14 36  1  0
 20 37  1  0
 21 38  1  0
 22 39  1  0
 23 40  1  0
M  ISO  8  25  13  26  13  27  13  28  13  29  13  30  13  31  13  32  13
M  ISO  8  33   8  34   8  35  14  36  14  37  14  38  14  39  14  40  14
M  END
>  <minimizedAffinity>  (1) 
-4.97589159

>  <minimizedRMSD>  (1) 
1.5203023

$$$$
