
     RDKit          3D

 38 41  0  0  0  0  0  0  0  0999 V2000
   39.1960   25.9480   34.5530 C   0  0  0  0  0  0  0  0  0  0  0  0
   39.9940   26.9120   35.0970 N   0  0  0  0  0  0  0  0  0  0  0  0
   40.9380   27.1690   34.2260 O   0  0  0  0  0  0  0  0  0  0  0  0
   40.7540   26.4010   33.1680 C   0  0  0  0  0  0  0  0  0  0  0  0
   39.6670   25.6140   33.3260 N   0  0  0  0  0  0  0  0  0  0  0  0
   41.7390   26.5920   32.1230 N   0  0  0  0  0  0  0  0  0  0  0  0
   42.1680   27.9670   31.9710 C   0  0  0  0  0  0  0  0  0  0  0  0
   43.6990   27.9310   31.9620 C   0  0  0  0  0  0  0  0  0  0  0  0
   44.0800   27.1260   30.8790 O   0  0  0  0  0  0  0  0  0  0  0  0
   43.8100   25.8060   31.2050 C   0  0  0  0  0  0  0  0  0  0  0  0
   42.3190   25.6000   31.2520 C   0  0  0  0  0  0  0  0  0  0  0  0
   37.9980   25.3230   35.1480 C   0  0  0  0  0  0  0  0  0  0  0  0
   38.2530   23.7750   38.5910 C   0  0  0  0  0  0  0  0  0  0  0  0
   37.7940   24.5810   37.5530 C   0  0  0  0  0  0  0  0  0  0  0  0
   38.4310   24.4920   36.3120 C   0  0  0  0  0  0  0  0  0  0  0  0
   39.4920   23.6080   36.1540 N   0  0  0  0  0  0  0  0  0  0  0  0
   39.8850   22.8570   37.2030 C   0  0  0  0  0  0  0  0  0  0  0  0
   39.2800   22.9360   38.3940 N   0  0  0  0  0  0  0  0  0  0  0  0
   41.0010   21.9320   37.0280 C   0  0  0  0  0  0  0  0  0  0  0  0
   41.7560   21.7540   35.8880 C   0  0  0  0  0  0  0  0  0  0  0  0
   42.6910   20.8090   36.1260 N   0  0  0  0  0  0  0  0  0  0  0  0
   42.5420   20.3840   37.3980 C   0  0  0  0  0  0  0  0  0  0  0  0
   41.5220   21.0740   37.9150 N   0  0  0  0  0  0  0  0  0  0  0  0
   41.7896   28.3835   31.0258 H   0  0  0  0  0  0  0  0  0  0  0  0
   41.7839   28.6018   32.7831 H   0  0  0  0  0  0  0  0  0  0  0  0
   44.1008   28.9474   31.8378 H   0  0  0  0  0  0  0  0  0  0  0  0
   44.0895   27.5290   32.9086 H   0  0  0  0  0  0  0  0  0  0  0  0
   44.2488   25.1427   30.4451 H   0  0  0  0  0  0  0  0  0  0  0  0
   44.2454   25.5727   32.1878 H   0  0  0  0  0  0  0  0  0  0  0  0
   41.8994   25.7055   30.2407 H   0  0  0  0  0  0  0  0  0  0  0  0
   42.0932   24.5924   31.6312 H   0  0  0  0  0  0  0  0  0  0  0  0
   37.3009   26.1035   35.4871 H   0  0  0  0  0  0  0  0  0  0  0  0
   37.4887   24.6946   34.4025 H   0  0  0  0  0  0  0  0  0  0  0  0
   37.7705   23.8267   39.5782 H   0  0  0  0  0  0  0  0  0  0  0  0
   36.9509   25.2708   37.7056 H   0  0  0  0  0  0  0  0  0  0  0  0
   41.6191   22.2937   34.9393 H   0  0  0  0  0  0  0  0  0  0  0  0
   43.1436   19.6182   37.9096 H   0  0  0  0  0  0  0  0  0  0  0  0
   41.1777   20.9602   38.8790 H   0  0  0  0  0  0  0  0  0  0  0  0
  1  2  2  0
  1 12  1  0
  3  2  1  0
  4  5  2  0
  4  3  1  0
  5  1  1  0
  6  4  1  0
  7  6  1  0
  8  7  1  0
  9 10  1  0
  9  8  1  0
 10 11  1  0
 11  6  1  0
 12 15  1  0
 14 13  2  0
 15 14  1  0
 16 15  2  0
 16 17  1  0
 17 18  2  0
 18 13  1  0
 19 17  1  0
 19 23  1  0
 20 21  1  0
 20 19  2  0
 21 22  2  0
 22 23  1  0
  7 24  1  0
  7 25  1  0
  8 26  1  0
  8 27  1  0
 10 28  1  0
 10 29  1  0
 11 30  1  0
 11 31  1  0
 12 32  1  0
 12 33  1  0
 13 34  1  0
 14 35  1  0
 20 36  1  0
 22 37  1  0
 23 38  1  0
M  ISO  8  24  13  25  13  26  13  27  13  28  13  29  13  30  13  31  13
M  ISO  7  32   8  33   8  34  14  35  14  36  14  37  14  38   9
M  END
>  <minimizedAffinity>  (1) 
-4.93424559

>  <minimizedRMSD>  (1) 
2.5727284

$$$$
