
     RDKit          3D

 40 42  0  0  0  0  0  0  0  0999 V2000
   39.0830   26.1690   34.6780 C   0  0  0  0  0  0  0  0  0  0  0  0
   38.1010   27.0610   34.0070 C   0  0  0  0  0  0  0  0  0  0  0  0
   37.1040   27.6630   34.7660 C   0  0  0  0  0  0  0  0  0  0  0  0
   36.1290   28.5210   34.2290 C   0  0  0  0  0  0  0  0  0  0  0  0
   36.1880   28.7560   32.8940 N   0  0  0  0  0  0  0  0  0  0  0  0
   37.1660   28.1680   32.1360 C   0  0  0  0  0  0  0  0  0  0  0  0
   38.0830   27.3500   32.7040 N   0  0  0  0  0  0  0  0  0  0  0  0
   37.1780   28.4650   30.6880 C   0  0  0  0  0  0  0  0  0  0  0  0
   37.1320   29.9700   30.5170 C   0  0  0  0  0  0  0  0  0  0  0  0
   37.2130   30.3010   29.0440 C   0  0  0  0  0  0  0  0  0  0  0  0
   38.4750   29.7520   28.4190 C   0  0  0  0  0  0  0  0  0  0  0  0
   38.6470   28.2850   28.6590 C   0  0  0  0  0  0  0  0  0  0  0  0
   38.4200   27.8780   30.0820 C   0  0  0  0  0  0  0  0  0  0  0  0
   38.6110   24.7310   34.7040 C   0  0  0  0  0  0  0  0  0  0  0  0
   39.7340   22.8150   37.7130 C   0  0  0  0  0  0  0  0  0  0  0  0
   38.8680   23.3140   38.6910 C   0  0  0  0  0  0  0  0  0  0  0  0
   37.9110   24.2940   38.3290 C   0  0  0  0  0  0  0  0  0  0  0  0
   37.8970   24.6940   37.0190 N   0  0  0  0  0  0  0  0  0  0  0  0
   38.7500   24.1880   36.1050 C   0  0  0  0  0  0  0  0  0  0  0  0
   39.6430   23.2720   36.4510 N   0  0  0  0  0  0  0  0  0  0  0  0
   39.2291   26.5144   35.7121 H   0  0  0  0  0  0  0  0  0  0  0  0
   40.0245   26.2093   34.1106 H   0  0  0  0  0  0  0  0  0  0  0  0
   37.0767   27.4565   35.8461 H   0  0  0  0  0  0  0  0  0  0  0  0
   35.3547   28.9803   34.8611 H   0  0  0  0  0  0  0  0  0  0  0  0
   36.3094   28.0231   30.1779 H   0  0  0  0  0  0  0  0  0  0  0  0
   36.1904   30.3596   30.9313 H   0  0  0  0  0  0  0  0  0  0  0  0
   37.9781   30.4303   31.0483 H   0  0  0  0  0  0  0  0  0  0  0  0
   36.3423   29.8655   28.5318 H   0  0  0  0  0  0  0  0  0  0  0  0
   37.2244   31.3958   28.9375 H   0  0  0  0  0  0  0  0  0  0  0  0
   39.3389   30.2822   28.8463 H   0  0  0  0  0  0  0  0  0  0  0  0
   38.4012   29.9046   27.3321 H   0  0  0  0  0  0  0  0  0  0  0  0
   37.9309   27.7428   28.0241 H   0  0  0  0  0  0  0  0  0  0  0  0
   39.6916   28.0396   28.4168 H   0  0  0  0  0  0  0  0  0  0  0  0
   38.3404   26.7816   30.1209 H   0  0  0  0  0  0  0  0  0  0  0  0
   39.2720   28.2584   30.6645 H   0  0  0  0  0  0  0  0  0  0  0  0
   37.5565   24.6843   34.3943 H   0  0  0  0  0  0  0  0  0  0  0  0
   39.2199   24.1298   34.0127 H   0  0  0  0  0  0  0  0  0  0  0  0
   40.4844   22.0541   37.9738 H   0  0  0  0  0  0  0  0  0  0  0  0
   38.9290   22.9505   39.7274 H   0  0  0  0  0  0  0  0  0  0  0  0
   37.2112   24.7144   39.0662 H   0  0  0  0  0  0  0  0  0  0  0  0
  1 14  1  0
  2  1  1  0
  2  3  2  0
  4  3  1  0
  5  4  2  0
  6  7  2  0
  6  5  1  0
  7  2  1  0
  8  6  1  0
  9  8  1  0
 10  9  1  0
 11 12  1  0
 11 10  1  0
 12 13  1  0
 13  8  1  0
 14 19  1  0
 15 16  2  0
 17 16  1  0
 18 17  2  0
 19 20  2  0
 19 18  1  0
 20 15  1  0
  1 21  1  0
  1 22  1  0
  3 23  1  0
  4 24  1  0
  8 25  1  0
  9 26  1  0
  9 27  1  0
 10 28  1  0
 10 29  1  0
 11 30  1  0
 11 31  1  0
 12 32  1  0
 12 33  1  0
 13 34  1  0
 13 35  1  0
 14 36  1  0
 14 37  1  0
 15 38  1  0
 16 39  1  0
 17 40  1  0
M  ISO  8  21   8  22   8  23  14  24  14  25  13  26  13  27  13  28  13
M  ISO  8  29  13  30  13  31  13  32  13  33  13  34  13  35  13  36   8
M  ISO  4  37   8  38  14  39  14  40  14
M  END
>  <minimizedAffinity>  (1) 
-4.92253113

>  <minimizedRMSD>  (1) 
0.907421529

$$$$
