
     RDKit          3D

 45 48  0  0  0  0  0  0  0  0999 V2000
   38.5980   26.2480   34.4750 C   0  0  0  0  0  0  0  0  0  0  0  0
   39.3360   27.1640   35.1720 N   0  0  0  0  0  0  0  0  0  0  0  0
   40.5690   26.7290   35.1680 O   0  0  0  0  0  0  0  0  0  0  0  0
   40.6360   25.5960   34.5080 C   0  0  0  0  0  0  0  0  0  0  0  0
   39.4110   25.2460   34.0460 N   0  0  0  0  0  0  0  0  0  0  0  0
   41.9650   25.0220   34.4390 N   0  0  0  0  0  0  0  0  0  0  0  0
   43.0210   26.0060   34.3150 C   0  0  0  0  0  0  0  0  0  0  0  0
   44.0520   25.6500   35.4010 C   0  0  0  0  0  0  0  0  0  0  0  0
   44.4980   24.3460   35.0900 O   0  0  0  0  0  0  0  0  0  0  0  0
   43.4900   23.4540   35.4260 C   0  0  0  0  0  0  0  0  0  0  0  0
   42.3310   23.6290   34.4820 C   0  0  0  0  0  0  0  0  0  0  0  0
   37.1430   26.2750   34.1920 C   0  0  0  0  0  0  0  0  0  0  0  0
   36.7930   29.1680   31.7930 C   0  0  0  0  0  0  0  0  0  0  0  0
   37.1400   27.9080   32.2750 C   0  0  0  0  0  0  0  0  0  0  0  0
   36.8070   27.6050   33.5940 C   0  0  0  0  0  0  0  0  0  0  0  0
   36.1590   28.5480   34.3520 N   0  0  0  0  0  0  0  0  0  0  0  0
   35.8410   29.7630   33.8380 C   0  0  0  0  0  0  0  0  0  0  0  0
   36.1630   30.0580   32.5640 N   0  0  0  0  0  0  0  0  0  0  0  0
   35.1650   30.7180   34.6610 N   0  0  0  0  0  0  0  0  0  0  0  0
   35.8710   31.4240   35.6850 C   0  0  0  0  0  0  0  0  0  0  0  0
   34.8310   31.8530   36.7130 C   0  0  0  0  0  0  0  0  0  0  0  0
   33.9420   32.7870   36.0890 N   0  0  0  0  0  0  0  0  0  0  0  0
   33.4050   32.3620   34.8240 C   0  0  0  0  0  0  0  0  0  0  0  0
   33.7570   30.9600   34.4430 C   0  0  0  0  0  0  0  0  0  0  0  0
   43.4807   25.9515   33.3172 H   0  0  0  0  0  0  0  0  0  0  0  0
   42.6383   27.0298   34.4387 H   0  0  0  0  0  0  0  0  0  0  0  0
   44.8930   26.3587   35.3789 H   0  0  0  0  0  0  0  0  0  0  0  0
   43.6146   25.7005   36.4090 H   0  0  0  0  0  0  0  0  0  0  0  0
   43.8712   22.4248   35.3519 H   0  0  0  0  0  0  0  0  0  0  0  0
   43.1567   23.6479   36.4562 H   0  0  0  0  0  0  0  0  0  0  0  0
   41.4756   23.0340   34.8345 H   0  0  0  0  0  0  0  0  0  0  0  0
   42.6178   23.2896   33.4757 H   0  0  0  0  0  0  0  0  0  0  0  0
   36.8865   25.4731   33.4841 H   0  0  0  0  0  0  0  0  0  0  0  0
   36.5728   26.1209   35.1199 H   0  0  0  0  0  0  0  0  0  0  0  0
   37.0431   29.4355   30.7557 H   0  0  0  0  0  0  0  0  0  0  0  0
   37.6588   27.1775   31.6368 H   0  0  0  0  0  0  0  0  0  0  0  0
   36.6188   30.7668   36.1529 H   0  0  0  0  0  0  0  0  0  0  0  0
   36.4040   32.2935   35.2727 H   0  0  0  0  0  0  0  0  0  0  0  0
   34.2656   30.9752   37.0590 H   0  0  0  0  0  0  0  0  0  0  0  0
   35.3234   32.3186   37.5795 H   0  0  0  0  0  0  0  0  0  0  0  0
   33.1539   32.9557   36.7304 H   0  0  0  0  0  0  0  0  0  0  0  0
   32.3089   32.4406   34.8718 H   0  0  0  0  0  0  0  0  0  0  0  0
   33.8490   33.0159   34.0590 H   0  0  0  0  0  0  0  0  0  0  0  0
   33.5225   30.8034   33.3797 H   0  0  0  0  0  0  0  0  0  0  0  0
   33.1745   30.2640   35.0645 H   0  0  0  0  0  0  0  0  0  0  0  0
  1  2  2  0
  3  2  1  0
  4  3  1  0
  5  1  1  0
  5  4  2  0
  6 11  1  0
  6  4  1  0
  7  6  1  0
  7  8  1  0
  9  8  1  0
  9 10  1  0
 11 10  1  0
 12  1  1  0
 13 14  2  0
 13 18  1  0
 14 15  1  0
 15 12  1  0
 15 16  2  0
 17 16  1  0
 17 19  1  0
 18 17  2  0
 19 20  1  0
 20 21  1  0
 22 21  1  0
 23 22  1  0
 24 19  1  0
 24 23  1  0
  7 25  1  0
  7 26  1  0
  8 27  1  0
  8 28  1  0
 10 29  1  0
 10 30  1  0
 11 31  1  0
 11 32  1  0
 12 33  1  0
 12 34  1  0
 13 35  1  0
 14 36  1  0
 20 37  1  0
 20 38  1  0
 21 39  1  0
 21 40  1  0
 22 41  1  0
 23 42  1  0
 23 43  1  0
 24 44  1  0
 24 45  1  0
M  ISO  8  25  13  26  13  27  13  28  13  29  13  30  13  31  13  32  13
M  ISO  8  33   8  34   8  35  14  36  14  37  13  38  13  39  13  40  13
M  ISO  5  41   5  42  13  43  13  44  13  45  13
M  END
>  <minimizedAffinity>  (1) 
-4.84094477

>  <minimizedRMSD>  (1) 
7.92431593

$$$$
