
     RDKit          3D

 44 47  0  0  0  0  0  0  0  0999 V2000
   38.2130   26.1970   34.7540 C   0  0  0  0  0  0  0  0  0  0  0  0
   39.2760   27.0300   34.6620 N   0  0  0  0  0  0  0  0  0  0  0  0
   39.6000   27.1110   33.4020 O   0  0  0  0  0  0  0  0  0  0  0  0
   38.7780   26.3560   32.6910 C   0  0  0  0  0  0  0  0  0  0  0  0
   37.8780   25.7540   33.5020 N   0  0  0  0  0  0  0  0  0  0  0  0
   39.0420   26.3670   31.2670 N   0  0  0  0  0  0  0  0  0  0  0  0
   39.4740   27.6400   30.7570 C   0  0  0  0  0  0  0  0  0  0  0  0
   40.7590   27.3590   29.9460 C   0  0  0  0  0  0  0  0  0  0  0  0
   40.3810   26.4800   28.9110 O   0  0  0  0  0  0  0  0  0  0  0  0
   40.1620   25.2350   29.4640 C   0  0  0  0  0  0  0  0  0  0  0  0
   38.9210   25.2760   30.3360 C   0  0  0  0  0  0  0  0  0  0  0  0
   37.4680   25.7730   35.9570 C   0  0  0  0  0  0  0  0  0  0  0  0
   38.7380   23.3030   38.5220 C   0  0  0  0  0  0  0  0  0  0  0  0
   37.9280   24.2840   37.9450 C   0  0  0  0  0  0  0  0  0  0  0  0
   38.2670   24.7240   36.6700 C   0  0  0  0  0  0  0  0  0  0  0  0
   39.3630   24.1900   36.0340 N   0  0  0  0  0  0  0  0  0  0  0  0
   40.1080   23.2450   36.6370 C   0  0  0  0  0  0  0  0  0  0  0  0
   39.8070   22.8030   37.8620 N   0  0  0  0  0  0  0  0  0  0  0  0
   41.2010   22.7720   35.8950 N   0  0  0  0  0  0  0  0  0  0  0  0
   42.5460   23.1820   36.2290 C   0  0  0  0  0  0  0  0  0  0  0  0
   43.3220   23.3340   34.9310 C   0  0  0  0  0  0  0  0  0  0  0  0
   43.4320   22.1240   34.2560 O   0  0  0  0  0  0  0  0  0  0  0  0
   42.5160   21.1810   34.7220 C   0  0  0  0  0  0  0  0  0  0  0  0
   41.1460   21.8680   34.7650 C   0  0  0  0  0  0  0  0  0  0  0  0
   38.6996   28.0746   30.1079 H   0  0  0  0  0  0  0  0  0  0  0  0
   39.6588   28.3582   31.5694 H   0  0  0  0  0  0  0  0  0  0  0  0
   41.1583   28.2942   29.5264 H   0  0  0  0  0  0  0  0  0  0  0  0
   41.5466   26.9224   30.5777 H   0  0  0  0  0  0  0  0  0  0  0  0
   40.0204   24.4973   28.6604 H   0  0  0  0  0  0  0  0  0  0  0  0
   41.0297   24.9500   30.0771 H   0  0  0  0  0  0  0  0  0  0  0  0
   38.0317   25.4249   29.7060 H   0  0  0  0  0  0  0  0  0  0  0  0
   38.8187   24.3277   30.8840 H   0  0  0  0  0  0  0  0  0  0  0  0
   37.3141   26.6364   36.6209 H   0  0  0  0  0  0  0  0  0  0  0  0
   36.4877   25.3664   35.6678 H   0  0  0  0  0  0  0  0  0  0  0  0
   38.5023   22.9311   39.5300 H   0  0  0  0  0  0  0  0  0  0  0  0
   37.0566   24.6923   38.4779 H   0  0  0  0  0  0  0  0  0  0  0  0
   42.5221   24.1422   36.7652 H   0  0  0  0  0  0  0  0  0  0  0  0
   43.0255   22.4341   36.8776 H   0  0  0  0  0  0  0  0  0  0  0  0
   42.8006   24.0565   34.2859 H   0  0  0  0  0  0  0  0  0  0  0  0
   44.3354   23.6852   35.1751 H   0  0  0  0  0  0  0  0  0  0  0  0
   42.4841   20.3173   34.0415 H   0  0  0  0  0  0  0  0  0  0  0  0
   42.8027   20.8154   35.7191 H   0  0  0  0  0  0  0  0  0  0  0  0
   40.9668   22.4265   33.8344 H   0  0  0  0  0  0  0  0  0  0  0  0
   40.3276   21.1398   34.8648 H   0  0  0  0  0  0  0  0  0  0  0  0
  1 12  1  0
  2  1  2  0
  3  2  1  0
  4  3  1  0
  4  5  2  0
  5  1  1  0
  6  4  1  0
  7  6  1  0
  8  7  1  0
  9 10  1  0
  9  8  1  0
 10 11  1  0
 11  6  1  0
 12 15  1  0
 14 13  2  0
 15 14  1  0
 16 17  1  0
 16 15  2  0
 17 18  2  0
 18 13  1  0
 19 20  1  0
 19 17  1  0
 21 20  1  0
 22 23  1  0
 22 21  1  0
 23 24  1  0
 24 19  1  0
  7 25  1  0
  7 26  1  0
  8 27  1  0
  8 28  1  0
 10 29  1  0
 10 30  1  0
 11 31  1  0
 11 32  1  0
 12 33  1  0
 12 34  1  0
 13 35  1  0
 14 36  1  0
 20 37  1  0
 20 38  1  0
 21 39  1  0
 21 40  1  0
 23 41  1  0
 23 42  1  0
 24 43  1  0
 24 44  1  0
M  ISO  8  25  13  26  13  27  13  28  13  29  13  30  13  31  13  32  13
M  ISO  8  33   8  34   8  35  14  36  14  37  13  38  13  39  13  40  13
M  ISO  4  41  13  42  13  43  13  44  13
M  END
>  <minimizedAffinity>  (1) 
-4.82812977

>  <minimizedRMSD>  (1) 
4.50765467

$$$$
