
     RDKit          3D

 37 40  0  0  0  0  0  0  0  0999 V2000
   40.0390   25.9080   34.3050 C   0  0  0  0  0  0  0  0  0  0  0  0
   40.7650   27.0540   34.1320 N   0  0  0  0  0  0  0  0  0  0  0  0
   41.9880   26.7950   34.5180 O   0  0  0  0  0  0  0  0  0  0  0  0
   42.0550   25.5370   34.9240 C   0  0  0  0  0  0  0  0  0  0  0  0
   40.8460   24.9460   34.8050 N   0  0  0  0  0  0  0  0  0  0  0  0
   43.3620   25.1290   35.3790 N   0  0  0  0  0  0  0  0  0  0  0  0
   44.4520   25.7250   34.6370 C   0  0  0  0  0  0  0  0  0  0  0  0
   45.4190   26.3000   35.6840 C   0  0  0  0  0  0  0  0  0  0  0  0
   45.8430   25.2100   36.4570 O   0  0  0  0  0  0  0  0  0  0  0  0
   44.7920   24.8340   37.2880 C   0  0  0  0  0  0  0  0  0  0  0  0
   43.6890   24.2210   36.4530 C   0  0  0  0  0  0  0  0  0  0  0  0
   38.6040   25.6970   34.0110 C   0  0  0  0  0  0  0  0  0  0  0  0
   37.8350   22.9300   36.4580 C   0  0  0  0  0  0  0  0  0  0  0  0
   38.2320   24.1790   35.9870 C   0  0  0  0  0  0  0  0  0  0  0  0
   38.1950   24.3880   34.5980 C   0  0  0  0  0  0  0  0  0  0  0  0
   37.7790   23.3730   33.7650 N   0  0  0  0  0  0  0  0  0  0  0  0
   37.4060   22.1820   34.3000 C   0  0  0  0  0  0  0  0  0  0  0  0
   37.4330   21.9600   35.6190 N   0  0  0  0  0  0  0  0  0  0  0  0
   36.9550   21.0810   33.4130 C   0  0  0  0  0  0  0  0  0  0  0  0
   35.6780   20.4890   33.4980 C   0  0  0  0  0  0  0  0  0  0  0  0
   35.7690   19.2360   32.1590 S   0  0  0  0  0  0  0  0  0  0  0  0
   37.5650   19.7610   31.7230 C   0  0  0  0  0  0  0  0  0  0  0  0
   37.8790   20.7100   32.5290 N   0  0  0  0  0  0  0  0  0  0  0  0
   44.9594   24.9633   34.0268 H   0  0  0  0  0  0  0  0  0  0  0  0
   44.0909   26.5068   33.9525 H   0  0  0  0  0  0  0  0  0  0  0  0
   46.2789   26.7758   35.1898 H   0  0  0  0  0  0  0  0  0  0  0  0
   44.9328   27.0685   36.3029 H   0  0  0  0  0  0  0  0  0  0  0  0
   45.1497   24.0972   38.0223 H   0  0  0  0  0  0  0  0  0  0  0  0
   44.4060   25.7179   37.8168 H   0  0  0  0  0  0  0  0  0  0  0  0
   42.8004   24.0532   37.0793 H   0  0  0  0  0  0  0  0  0  0  0  0
   44.0228   23.2575   36.0405 H   0  0  0  0  0  0  0  0  0  0  0  0
   38.0094   26.5074   34.4578 H   0  0  0  0  0  0  0  0  0  0  0  0
   38.4354   25.6950   32.9240 H   0  0  0  0  0  0  0  0  0  0  0  0
   37.8508   22.7331   37.5401 H   0  0  0  0  0  0  0  0  0  0  0  0
   38.5617   24.9710   36.6755 H   0  0  0  0  0  0  0  0  0  0  0  0
   34.8486   20.7170   34.1836 H   0  0  0  0  0  0  0  0  0  0  0  0
   38.2013   19.3316   30.9352 H   0  0  0  0  0  0  0  0  0  0  0  0
  1  5  1  0
  2  1  2  0
  2  3  1  0
  3  4  1  0
  4  6  1  0
  5  4  2  0
  6 11  1  0
  7  6  1  0
  7  8  1  0
  8  9  1  0
  9 10  1  0
 11 10  1  0
 12  1  1  0
 12 15  1  0
 14 13  2  0
 15 14  1  0
 16 17  1  0
 16 15  2  0
 17 18  2  0
 18 13  1  0
 19 20  2  0
 19 17  1  0
 21 20  1  0
 22 21  1  0
 22 23  2  0
 23 19  1  0
  7 24  1  0
  7 25  1  0
  8 26  1  0
  8 27  1  0
 10 28  1  0
 10 29  1  0
 11 30  1  0
 11 31  1  0
 12 32  1  0
 12 33  1  0
 13 34  1  0
 14 35  1  0
 20 36  1  0
 22 37  1  0
M  ISO  8  24  13  25  13  26  13  27  13  28  13  29  13  30  13  31  13
M  ISO  6  32   8  33   8  34  14  35  14  36  14  37  14
M  END
>  <minimizedAffinity>  (1) 
-4.77378225

>  <minimizedRMSD>  (1) 
4.13705492

$$$$
