
     RDKit          3D

 44 47  0  0  0  0  0  0  0  0999 V2000
   39.9450   25.8120   34.0200 C   0  0  0  0  0  0  0  0  0  0  0  0
   40.4170   26.9040   34.6590 N   0  0  0  0  0  0  0  0  0  0  0  0
   41.7160   26.7580   34.8120 O   0  0  0  0  0  0  0  0  0  0  0  0
   42.0650   25.6030   34.2860 C   0  0  0  0  0  0  0  0  0  0  0  0
   40.9910   24.9630   33.7720 N   0  0  0  0  0  0  0  0  0  0  0  0
   43.4880   25.3180   34.3910 N   0  0  0  0  0  0  0  0  0  0  0  0
   44.3210   26.4940   34.2390 C   0  0  0  0  0  0  0  0  0  0  0  0
   45.2950   26.4540   35.4370 C   0  0  0  0  0  0  0  0  0  0  0  0
   46.0270   25.2620   35.3190 O   0  0  0  0  0  0  0  0  0  0  0  0
   45.1920   24.2090   35.6550 C   0  0  0  0  0  0  0  0  0  0  0  0
   44.1170   24.0480   34.6190 C   0  0  0  0  0  0  0  0  0  0  0  0
   38.5720   25.4720   33.6060 C   0  0  0  0  0  0  0  0  0  0  0  0
   37.8210   22.8220   36.2080 C   0  0  0  0  0  0  0  0  0  0  0  0
   38.2300   24.0550   35.6770 C   0  0  0  0  0  0  0  0  0  0  0  0
   38.1660   24.2080   34.2900 C   0  0  0  0  0  0  0  0  0  0  0  0
   37.7130   23.1640   33.5200 N   0  0  0  0  0  0  0  0  0  0  0  0
   37.3310   21.9970   34.0810 C   0  0  0  0  0  0  0  0  0  0  0  0
   37.3840   21.8220   35.4140 N   0  0  0  0  0  0  0  0  0  0  0  0
   36.8460   20.8850   33.2190 C   0  0  0  0  0  0  0  0  0  0  0  0
   35.5440   20.2940   33.7150 C   0  0  0  0  0  0  0  0  0  0  0  0
   35.0220   19.5800   32.4880 C   0  0  0  0  0  0  0  0  0  0  0  0
   35.2990   20.5950   31.3970 C   0  0  0  0  0  0  0  0  0  0  0  0
   36.5920   21.2840   31.8010 C   0  0  0  0  0  0  0  0  0  0  0  0
   44.8748   26.4549   33.2894 H   0  0  0  0  0  0  0  0  0  0  0  0
   43.7277   27.4201   34.2207 H   0  0  0  0  0  0  0  0  0  0  0  0
   45.9723   27.3201   35.4046 H   0  0  0  0  0  0  0  0  0  0  0  0
   44.7508   26.4925   36.3922 H   0  0  0  0  0  0  0  0  0  0  0  0
   45.7817   23.2823   35.7137 H   0  0  0  0  0  0  0  0  0  0  0  0
   44.7239   24.4188   36.6281 H   0  0  0  0  0  0  0  0  0  0  0  0
   43.3682   23.3251   34.9749 H   0  0  0  0  0  0  0  0  0  0  0  0
   44.5592   23.6807   33.6812 H   0  0  0  0  0  0  0  0  0  0  0  0
   37.8872   26.2841   33.8916 H   0  0  0  0  0  0  0  0  0  0  0  0
   38.5313   25.3380   32.5149 H   0  0  0  0  0  0  0  0  0  0  0  0
   37.8574   22.6671   37.2964 H   0  0  0  0  0  0  0  0  0  0  0  0
   38.5865   24.8679   36.3266 H   0  0  0  0  0  0  0  0  0  0  0  0
   37.6688   20.1565   33.2677 H   0  0  0  0  0  0  0  0  0  0  0  0
   35.7165   19.5895   34.5420 H   0  0  0  0  0  0  0  0  0  0  0  0
   34.8464   21.0436   34.1169 H   0  0  0  0  0  0  0  0  0  0  0  0
   35.5664   18.6411   32.3091 H   0  0  0  0  0  0  0  0  0  0  0  0
   33.9656   19.2824   32.5616 H   0  0  0  0  0  0  0  0  0  0  0  0
   34.4783   21.3247   31.3336 H   0  0  0  0  0  0  0  0  0  0  0  0
   35.3821   20.1190   30.4088 H   0  0  0  0  0  0  0  0  0  0  0  0
   37.4194   20.9522   31.1565 H   0  0  0  0  0  0  0  0  0  0  0  0
   36.5158   22.3765   31.6974 H   0  0  0  0  0  0  0  0  0  0  0  0
  1  2  2  0
  2  3  1  0
  4  6  1  0
  4  3  1  0
  5  1  1  0
  5  4  2  0
  6 11  1  0
  7  6  1  0
  7  8  1  0
  9  8  1  0
  9 10  1  0
 11 10  1  0
 12  1  1  0
 12 15  1  0
 14 13  2  0
 15 14  1  0
 16 17  1  0
 16 15  2  0
 17 18  2  0
 18 13  1  0
 19 20  1  0
 19 17  1  0
 21 20  1  0
 22 23  1  0
 22 21  1  0
 23 19  1  0
  7 24  1  0
  7 25  1  0
  8 26  1  0
  8 27  1  0
 10 28  1  0
 10 29  1  0
 11 30  1  0
 11 31  1  0
 12 32  1  0
 12 33  1  0
 13 34  1  0
 14 35  1  0
 19 36  1  0
 20 37  1  0
 20 38  1  0
 21 39  1  0
 21 40  1  0
 22 41  1  0
 22 42  1  0
 23 43  1  0
 23 44  1  0
M  ISO  8  24  13  25  13  26  13  27  13  28  13  29  13  30  13  31  13
M  ISO  8  32   8  33   8  34  14  35  14  36  13  37  13  38  13  39  13
M  ISO  5  40  13  41  13  42  13  43  13  44  13
M  END
>  <minimizedAffinity>  (1) 
-4.73403645

>  <minimizedRMSD>  (1) 
4.4278903

$$$$
