
     RDKit          3D

 30 32  0  0  0  0  0  0  0  0999 V2000
   39.3090   26.3300   34.8310 C   0  0  0  0  0  0  0  0  0  0  0  0
   38.2850   27.1160   34.0960 C   0  0  0  0  0  0  0  0  0  0  0  0
   37.1840   27.6120   34.7870 C   0  0  0  0  0  0  0  0  0  0  0  0
   36.1820   28.3590   34.1720 C   0  0  0  0  0  0  0  0  0  0  0  0
   36.3030   28.5970   32.8480 N   0  0  0  0  0  0  0  0  0  0  0  0
   37.3660   28.1250   32.1570 C   0  0  0  0  0  0  0  0  0  0  0  0
   38.3040   27.4090   32.8070 N   0  0  0  0  0  0  0  0  0  0  0  0
   37.6070   28.3080   30.7660 N   0  0  0  0  0  0  0  0  0  0  0  0
   36.9740   28.9540   29.7550 C   0  0  0  0  0  0  0  0  0  0  0  0
   37.6710   28.7870   28.6160 N   0  0  0  0  0  0  0  0  0  0  0  0
   38.7420   28.0380   28.8980 C   0  0  0  0  0  0  0  0  0  0  0  0
   38.6790   27.7590   30.2170 N   0  0  0  0  0  0  0  0  0  0  0  0
   39.0610   24.8410   34.7380 C   0  0  0  0  0  0  0  0  0  0  0  0
   39.7600   22.8130   37.7910 C   0  0  0  0  0  0  0  0  0  0  0  0
   38.8040   23.3110   38.6820 C   0  0  0  0  0  0  0  0  0  0  0  0
   37.9400   24.3260   38.2340 C   0  0  0  0  0  0  0  0  0  0  0  0
   38.0740   24.7720   36.9560 N   0  0  0  0  0  0  0  0  0  0  0  0
   39.0120   24.2640   36.1270 C   0  0  0  0  0  0  0  0  0  0  0  0
   39.8500   23.3000   36.5200 N   0  0  0  0  0  0  0  0  0  0  0  0
   40.2987   26.5516   34.4052 H   0  0  0  0  0  0  0  0  0  0  0  0
   39.2568   26.6156   35.8920 H   0  0  0  0  0  0  0  0  0  0  0  0
   37.1013   27.4056   35.8643 H   0  0  0  0  0  0  0  0  0  0  0  0
   35.3235   28.7411   34.7438 H   0  0  0  0  0  0  0  0  0  0  0  0
   36.0384   29.5245   29.8511 H   0  0  0  0  0  0  0  0  0  0  0  0
   39.5215   27.7129   28.1933 H   0  0  0  0  0  0  0  0  0  0  0  0
   38.1033   24.6579   34.2287 H   0  0  0  0  0  0  0  0  0  0  0  0
   39.8712   24.3646   34.1664 H   0  0  0  0  0  0  0  0  0  0  0  0
   40.4474   22.0193   38.1190 H   0  0  0  0  0  0  0  0  0  0  0  0
   38.7298   22.9188   39.7070 H   0  0  0  0  0  0  0  0  0  0  0  0
   37.1743   24.7490   38.9009 H   0  0  0  0  0  0  0  0  0  0  0  0
  2  3  2  0
  2  1  1  0
  4  3  1  0
  5  4  2  0
  6  7  2  0
  6  5  1  0
  7  2  1  0
  8  6  1  0
  9  8  1  0
 10 11  1  0
 10  9  2  0
 11 12  2  0
 12  8  1  0
 13  1  1  0
 13 18  1  0
 14 15  2  0
 16 15  1  0
 17 16  2  0
 18 19  2  0
 18 17  1  0
 19 14  1  0
  1 20  1  0
  1 21  1  0
  3 22  1  0
  4 23  1  0
  9 24  1  0
 11 25  1  0
 13 26  1  0
 13 27  1  0
 14 28  1  0
 15 29  1  0
 16 30  1  0
M  ISO  8  20   8  21   8  22  14  23  14  24  14  25  14  26   8  27   8
M  ISO  3  28  14  29  14  30  14
M  END
>  <minimizedAffinity>  (1) 
-4.91775036

>  <minimizedRMSD>  (1) 
0.2558797

$$$$
