
     RDKit          3D

 34 36  0  0  0  0  0  0  0  0999 V2000
   40.2540   25.8830   34.4260 C   0  0  0  0  0  0  0  0  0  0  0  0
   40.5120   27.1750   34.1060 N   0  0  0  0  0  0  0  0  0  0  0  0
   41.8100   27.3230   34.0660 O   0  0  0  0  0  0  0  0  0  0  0  0
   42.3690   26.1600   34.3520 C   0  0  0  0  0  0  0  0  0  0  0  0
   41.4370   25.2110   34.5890 N   0  0  0  0  0  0  0  0  0  0  0  0
   43.8180   26.1910   34.3400 N   0  0  0  0  0  0  0  0  0  0  0  0
   44.3790   27.0480   33.3080 C   0  0  0  0  0  0  0  0  0  0  0  0
   45.4080   27.9270   34.0080 C   0  0  0  0  0  0  0  0  0  0  0  0
   46.3650   27.0660   34.5630 O   0  0  0  0  0  0  0  0  0  0  0  0
   45.8000   26.4470   35.6590 C   0  0  0  0  0  0  0  0  0  0  0  0
   44.7340   25.4910   35.2090 C   0  0  0  0  0  0  0  0  0  0  0  0
   38.9440   25.2110   34.5950 C   0  0  0  0  0  0  0  0  0  0  0  0
   38.1070   24.0730   38.1010 C   0  0  0  0  0  0  0  0  0  0  0  0
   38.0250   24.7930   36.9080 C   0  0  0  0  0  0  0  0  0  0  0  0
   38.9480   24.4940   35.9110 C   0  0  0  0  0  0  0  0  0  0  0  0
   39.8820   23.5190   36.1450 N   0  0  0  0  0  0  0  0  0  0  0  0
   39.9230   22.8460   37.3160 C   0  0  0  0  0  0  0  0  0  0  0  0
   39.0300   23.1320   38.2880 N   0  0  0  0  0  0  0  0  0  0  0  0
   40.9040   21.7880   37.6210 C   0  0  0  0  0  0  0  0  0  0  0  0
   43.5910   27.6679   32.8555 H   0  0  0  0  0  0  0  0  0  0  0  0
   44.8350   26.4593   32.4984 H   0  0  0  0  0  0  0  0  0  0  0  0
   45.8831   28.6046   33.2833 H   0  0  0  0  0  0  0  0  0  0  0  0
   44.9355   28.5457   34.7851 H   0  0  0  0  0  0  0  0  0  0  0  0
   46.5773   25.8953   36.2079 H   0  0  0  0  0  0  0  0  0  0  0  0
   45.3523   27.2078   36.3153 H   0  0  0  0  0  0  0  0  0  0  0  0
   44.1910   25.1042   36.0840 H   0  0  0  0  0  0  0  0  0  0  0  0
   45.1911   24.6485   34.6694 H   0  0  0  0  0  0  0  0  0  0  0  0
   38.1379   25.9593   34.5818 H   0  0  0  0  0  0  0  0  0  0  0  0
   38.7764   24.4968   33.7753 H   0  0  0  0  0  0  0  0  0  0  0  0
   37.3906   24.2886   38.9074 H   0  0  0  0  0  0  0  0  0  0  0  0
   37.2586   25.5684   36.7615 H   0  0  0  0  0  0  0  0  0  0  0  0
   41.0021   21.6822   38.7115 H   0  0  0  0  0  0  0  0  0  0  0  0
   40.5622   20.8356   37.1895 H   0  0  0  0  0  0  0  0  0  0  0  0
   41.8794   22.0570   37.1895 H   0  0  0  0  0  0  0  0  0  0  0  0
  1  5  1  0
  1 12  1  0
  2  1  2  0
  3  2  1  0
  3  4  1  0
  4  5  2  0
  6  4  1  0
  6 11  1  0
  7  8  1  0
  7  6  1  0
  8  9  1  0
  9 10  1  0
 11 10  1  0
 12 15  1  0
 13 18  2  0
 14 13  1  0
 15 16  1  0
 15 14  2  0
 16 17  2  0
 17 19  1  0
 17 18  1  0
  7 20  1  0
  7 21  1  0
  8 22  1  0
  8 23  1  0
 10 24  1  0
 10 25  1  0
 11 26  1  0
 11 27  1  0
 12 28  1  0
 12 29  1  0
 13 30  1  0
 14 31  1  0
 19 32  1  0
 19 33  1  0
 19 34  1  0
M  ISO  8  20  13  21  13  22  13  23  13  24  13  25  13  26  13  27  13
M  ISO  7  28   8  29   8  30  14  31  14  32   8  33   8  34   8
M  END
>  <minimizedAffinity>  (1) 
-4.57367659

>  <minimizedRMSD>  (1) 
0.509173751

$$$$
