
     RDKit          3D

 32 34  0  0  0  0  0  0  0  0999 V2000
   40.2210   25.8710   34.4490 C   0  0  0  0  0  0  0  0  0  0  0  0
   40.4910   27.1690   34.1240 N   0  0  0  0  0  0  0  0  0  0  0  0
   41.7930   27.2980   34.0890 O   0  0  0  0  0  0  0  0  0  0  0  0
   42.3480   26.1440   34.3770 C   0  0  0  0  0  0  0  0  0  0  0  0
   41.3930   25.2160   34.6100 N   0  0  0  0  0  0  0  0  0  0  0  0
   43.8000   26.1710   34.3690 N   0  0  0  0  0  0  0  0  0  0  0  0
   44.3640   27.0200   33.3430 C   0  0  0  0  0  0  0  0  0  0  0  0
   45.3950   27.9050   34.0660 C   0  0  0  0  0  0  0  0  0  0  0  0
   46.3470   27.0330   34.6090 O   0  0  0  0  0  0  0  0  0  0  0  0
   45.7740   26.4070   35.7090 C   0  0  0  0  0  0  0  0  0  0  0  0
   44.6990   25.4660   35.2440 C   0  0  0  0  0  0  0  0  0  0  0  0
   38.9130   25.2080   34.6160 C   0  0  0  0  0  0  0  0  0  0  0  0
   38.0540   24.0910   38.1260 C   0  0  0  0  0  0  0  0  0  0  0  0
   37.9810   24.8030   36.9320 C   0  0  0  0  0  0  0  0  0  0  0  0
   38.9130   24.4940   35.9330 C   0  0  0  0  0  0  0  0  0  0  0  0
   39.8570   23.5140   36.1580 N   0  0  0  0  0  0  0  0  0  0  0  0
   39.8710   22.8590   37.3450 C   0  0  0  0  0  0  0  0  0  0  0  0
   38.9800   23.1390   38.3220 N   0  0  0  0  0  0  0  0  0  0  0  0
   41.1610   21.6280   37.4490 S   0  0  0  0  0  0  0  0  0  0  0  0
   43.5804   27.6397   32.8825 H   0  0  0  0  0  0  0  0  0  0  0  0
   44.8240   26.4336   32.5340 H   0  0  0  0  0  0  0  0  0  0  0  0
   45.8719   28.5943   33.3537 H   0  0  0  0  0  0  0  0  0  0  0  0
   44.9201   28.5165   34.8474 H   0  0  0  0  0  0  0  0  0  0  0  0
   46.5456   25.8426   36.2532 H   0  0  0  0  0  0  0  0  0  0  0  0
   45.3361   27.1643   36.3758 H   0  0  0  0  0  0  0  0  0  0  0  0
   44.1430   25.0842   36.1129 H   0  0  0  0  0  0  0  0  0  0  0  0
   45.1540   24.6221   34.7048 H   0  0  0  0  0  0  0  0  0  0  0  0
   38.1101   25.9598   34.6003 H   0  0  0  0  0  0  0  0  0  0  0  0
   38.7427   24.4934   33.7972 H   0  0  0  0  0  0  0  0  0  0  0  0
   37.3354   24.3139   38.9285 H   0  0  0  0  0  0  0  0  0  0  0  0
   37.2184   25.5807   36.7785 H   0  0  0  0  0  0  0  0  0  0  0  0
   41.4364   21.3652   38.7650 H   0  0  0  0  0  0  0  0  0  0  0  0
  1  5  1  0
  1 12  1  0
  2  1  2  0
  3  2  1  0
  3  4  1  0
  4  5  2  0
  6  4  1  0
  6 11  1  0
  7  8  1  0
  7  6  1  0
  8  9  1  0
  9 10  1  0
 11 10  1  0
 12 15  1  0
 13 18  2  0
 14 13  1  0
 15 16  1  0
 15 14  2  0
 16 17  2  0
 17 19  1  0
 17 18  1  0
  7 20  1  0
  7 21  1  0
  8 22  1  0
  8 23  1  0
 10 24  1  0
 10 25  1  0
 11 26  1  0
 11 27  1  0
 12 28  1  0
 12 29  1  0
 13 30  1  0
 14 31  1  0
 19 32  1  0
M  ISO  8  20  13  21  13  22  13  23  13  24  13  25  13  26  13  27  13
M  ISO  5  28   8  29   8  30  14  31  14  32  11
M  END
>  <minimizedAffinity>  (1) 
-4.47219563

>  <minimizedRMSD>  (1) 
0.490033358

$$$$
