
     RDKit          3D

 33 35  0  0  0  0  0  0  0  0999 V2000
   40.3050   25.6960   34.5280 C   0  0  0  0  0  0  0  0  0  0  0  0
   40.5450   27.0080   34.2680 N   0  0  0  0  0  0  0  0  0  0  0  0
   41.8440   27.1660   34.2620 O   0  0  0  0  0  0  0  0  0  0  0  0
   42.4190   26.0000   34.5090 C   0  0  0  0  0  0  0  0  0  0  0  0
   41.4920   25.0350   34.6870 N   0  0  0  0  0  0  0  0  0  0  0  0
   43.8650   26.0550   34.5280 N   0  0  0  0  0  0  0  0  0  0  0  0
   44.4290   26.9560   33.5470 C   0  0  0  0  0  0  0  0  0  0  0  0
   45.4260   27.8370   34.3280 C   0  0  0  0  0  0  0  0  0  0  0  0
   46.3950   26.9630   34.8370 O   0  0  0  0  0  0  0  0  0  0  0  0
   45.8130   26.2840   35.9100 C   0  0  0  0  0  0  0  0  0  0  0  0
   44.7790   25.3340   35.3860 C   0  0  0  0  0  0  0  0  0  0  0  0
   39.0050   24.9870   34.6460 C   0  0  0  0  0  0  0  0  0  0  0  0
   37.9970   24.2240   38.2190 C   0  0  0  0  0  0  0  0  0  0  0  0
   37.9990   24.8570   36.9670 C   0  0  0  0  0  0  0  0  0  0  0  0
   38.9120   24.3900   36.0170 C   0  0  0  0  0  0  0  0  0  0  0  0
   39.7610   23.3490   36.3260 N   0  0  0  0  0  0  0  0  0  0  0  0
   39.7020   22.7830   37.5630 C   0  0  0  0  0  0  0  0  0  0  0  0
   38.8300   23.2160   38.4970 N   0  0  0  0  0  0  0  0  0  0  0  0
   40.5330   21.7110   37.9720 N   0  0  0  0  0  0  0  0  0  0  0  0
   43.6405   27.5751   33.0944 H   0  0  0  0  0  0  0  0  0  0  0  0
   44.9186   26.4128   32.7253 H   0  0  0  0  0  0  0  0  0  0  0  0
   45.8909   28.5749   33.6576 H   0  0  0  0  0  0  0  0  0  0  0  0
   44.9258   28.3971   35.1318 H   0  0  0  0  0  0  0  0  0  0  0  0
   46.5869   25.7227   36.4542 H   0  0  0  0  0  0  0  0  0  0  0  0
   45.3412   27.0055   36.5933 H   0  0  0  0  0  0  0  0  0  0  0  0
   44.2241   24.8929   36.2272 H   0  0  0  0  0  0  0  0  0  0  0  0
   45.2687   24.5318   34.8145 H   0  0  0  0  0  0  0  0  0  0  0  0
   38.1795   25.6979   34.4941 H   0  0  0  0  0  0  0  0  0  0  0  0
   38.9367   24.1958   33.8849 H   0  0  0  0  0  0  0  0  0  0  0  0
   37.2923   24.5657   38.9914 H   0  0  0  0  0  0  0  0  0  0  0  0
   37.3113   25.6856   36.7424 H   0  0  0  0  0  0  0  0  0  0  0  0
   40.4429   21.3230   38.9219 H   0  0  0  0  0  0  0  0  0  0  0  0
   41.2273   21.3196   37.3195 H   0  0  0  0  0  0  0  0  0  0  0  0
  1 12  1  0
  1  5  1  0
  2  1  2  0
  3  2  1  0
  3  4  1  0
  4  6  1  0
  4  5  2  0
  6 11  1  0
  7  8  1  0
  7  6  1  0
  8  9  1  0
  9 10  1  0
 11 10  1  0
 12 15  1  0
 13 18  2  0
 14 13  1  0
 15 16  1  0
 15 14  2  0
 16 17  2  0
 17 19  1  0
 17 18  1  0
  7 20  1  0
  7 21  1  0
  8 22  1  0
  8 23  1  0
 10 24  1  0
 10 25  1  0
 11 26  1  0
 11 27  1  0
 12 28  1  0
 12 29  1  0
 13 30  1  0
 14 31  1  0
 19 32  1  0
 19 33  1  0
M  ISO  8  20  13  21  13  22  13  23  13  24  13  25  13  26  13  27  13
M  ISO  4  28   8  29   8  30  14  31  14
M  END
>  <minimizedAffinity>  (1) 
-5.11031246

>  <minimizedRMSD>  (1) 
0.261616439

$$$$
