
     RDKit          3D

 36 38  0  0  0  0  0  0  0  0999 V2000
   39.3570   26.4120   34.8880 C   0  0  0  0  0  0  0  0  0  0  0  0
   38.3450   27.1280   34.0500 C   0  0  0  0  0  0  0  0  0  0  0  0
   37.2300   27.6610   34.6450 C   0  0  0  0  0  0  0  0  0  0  0  0
   36.2400   28.3440   33.9300 C   0  0  0  0  0  0  0  0  0  0  0  0
   36.3990   28.4770   32.5950 N   0  0  0  0  0  0  0  0  0  0  0  0
   37.5090   27.9470   31.9980 C   0  0  0  0  0  0  0  0  0  0  0  0
   38.4360   27.2960   32.7350 N   0  0  0  0  0  0  0  0  0  0  0  0
   37.7820   28.0240   30.6030 N   0  0  0  0  0  0  0  0  0  0  0  0
   37.0260   28.6340   29.5280 C   0  0  0  0  0  0  0  0  0  0  0  0
   38.0910   29.2590   28.6790 C   0  0  0  0  0  0  0  0  0  0  0  0
   39.4200   28.7170   29.1780 C   0  0  0  0  0  0  0  0  0  0  0  0
   38.9650   27.4640   29.9380 C   0  0  0  0  0  0  0  0  0  0  0  0
   39.2420   24.9110   34.7620 C   0  0  0  0  0  0  0  0  0  0  0  0
   39.7490   22.7970   37.7910 C   0  0  0  0  0  0  0  0  0  0  0  0
   38.7510   23.2850   38.6460 C   0  0  0  0  0  0  0  0  0  0  0  0
   37.9300   24.3200   38.1740 C   0  0  0  0  0  0  0  0  0  0  0  0
   38.1420   24.7950   36.9200 N   0  0  0  0  0  0  0  0  0  0  0  0
   39.1250   24.2910   36.1190 C   0  0  0  0  0  0  0  0  0  0  0  0
   39.9100   23.3120   36.5520 N   0  0  0  0  0  0  0  0  0  0  0  0
   40.3635   26.7185   34.5671 H   0  0  0  0  0  0  0  0  0  0  0  0
   39.1742   26.6779   35.9396 H   0  0  0  0  0  0  0  0  0  0  0  0
   37.1087   27.5465   35.7323 H   0  0  0  0  0  0  0  0  0  0  0  0
   35.3585   28.7602   34.4397 H   0  0  0  0  0  0  0  0  0  0  0  0
   36.4626   27.8774   28.9621 H   0  0  0  0  0  0  0  0  0  0  0  0
   36.2747   29.3555   29.8816 H   0  0  0  0  0  0  0  0  0  0  0  0
   38.0649   30.3538   28.7828 H   0  0  0  0  0  0  0  0  0  0  0  0
   37.9403   29.0209   27.6157 H   0  0  0  0  0  0  0  0  0  0  0  0
   40.0898   28.4613   28.3437 H   0  0  0  0  0  0  0  0  0  0  0  0
   39.9979   29.4286   29.7860 H   0  0  0  0  0  0  0  0  0  0  0  0
   38.7056   26.6392   29.2580 H   0  0  0  0  0  0  0  0  0  0  0  0
   39.7156   27.0125   30.6034 H   0  0  0  0  0  0  0  0  0  0  0  0
   38.3490   24.6625   34.1697 H   0  0  0  0  0  0  0  0  0  0  0  0
   40.1412   24.5206   34.2629 H   0  0  0  0  0  0  0  0  0  0  0  0
   40.4086   21.9856   38.1325 H   0  0  0  0  0  0  0  0  0  0  0  0
   38.6159   22.8694   39.6554 H   0  0  0  0  0  0  0  0  0  0  0  0
   37.1322   24.7374   38.8059 H   0  0  0  0  0  0  0  0  0  0  0  0
  2  3  2  0
  2  1  1  0
  4  3  1  0
  5  4  2  0
  6  5  1  0
  6  7  2  0
  7  2  1  0
  8  6  1  0
  9  8  1  0
 10 11  1  0
 10  9  1  0
 11 12  1  0
 12  8  1  0
 13  1  1  0
 13 18  1  0
 14 15  2  0
 16 15  1  0
 17 16  2  0
 18 19  2  0
 18 17  1  0
 19 14  1  0
  1 20  1  0
  1 21  1  0
  3 22  1  0
  4 23  1  0
  9 24  1  0
  9 25  1  0
 10 26  1  0
 10 27  1  0
 11 28  1  0
 11 29  1  0
 12 30  1  0
 12 31  1  0
 13 32  1  0
 13 33  1  0
 14 34  1  0
 15 35  1  0
 16 36  1  0
M  ISO  8  20   8  21   8  22  14  23  14  24  13  25  13  26  13  27  13
M  ISO  8  28  13  29  13  30  13  31  13  32   8  33   8  34  14  35  14
M  ISO  1  36  14
M  END
>  <minimizedAffinity>  (1) 
-4.86410236

>  <minimizedRMSD>  (1) 
0.39182049

$$$$
