
     RDKit          3D

 46 49  0  0  0  0  0  0  0  0999 V2000
   40.6300   24.6830   34.0940 C   0  0  0  0  0  0  0  0  0  0  0  0
   41.9870   25.1880   34.4450 C   0  0  0  0  0  0  0  0  0  0  0  0
   42.5270   26.4280   34.3850 N   0  0  0  0  0  0  0  0  0  0  0  0
   43.7530   26.3490   34.8020 O   0  0  0  0  0  0  0  0  0  0  0  0
   44.0200   25.1020   35.1270 C   0  0  0  0  0  0  0  0  0  0  0  0
   42.9430   24.3300   34.9220 N   0  0  0  0  0  0  0  0  0  0  0  0
   45.3690   24.8990   35.6080 N   0  0  0  0  0  0  0  0  0  0  0  0
   46.3590   25.7170   34.9510 C   0  0  0  0  0  0  0  0  0  0  0  0
   47.1690   26.3830   36.0780 C   0  0  0  0  0  0  0  0  0  0  0  0
   47.7740   25.3290   36.7730 O   0  0  0  0  0  0  0  0  0  0  0  0
   46.7750   24.7240   37.5420 C   0  0  0  0  0  0  0  0  0  0  0  0
   45.8260   23.9980   36.6360 C   0  0  0  0  0  0  0  0  0  0  0  0
   38.2010   24.2590   36.9670 C   0  0  0  0  0  0  0  0  0  0  0  0
   38.7550   24.7830   35.7800 C   0  0  0  0  0  0  0  0  0  0  0  0
   39.9460   24.2320   35.3360 C   0  0  0  0  0  0  0  0  0  0  0  0
   40.5420   23.2170   36.0450 N   0  0  0  0  0  0  0  0  0  0  0  0
   39.9660   22.7460   37.1890 C   0  0  0  0  0  0  0  0  0  0  0  0
   38.7970   23.2740   37.6400 N   0  0  0  0  0  0  0  0  0  0  0  0
   40.5080   21.7080   37.9840 N   0  0  0  0  0  0  0  0  0  0  0  0
   36.7160   27.5940   33.3320 C   0  0  0  0  0  0  0  0  0  0  0  0
   36.9680   26.2880   32.9690 C   0  0  0  0  0  0  0  0  0  0  0  0
   37.6490   25.4220   33.8310 C   0  0  0  0  0  0  0  0  0  0  0  0
   38.0950   25.8510   35.0870 C   0  0  0  0  0  0  0  0  0  0  0  0
   37.8330   27.1590   35.4300 C   0  0  0  0  0  0  0  0  0  0  0  0
   37.1620   28.0000   34.5690 C   0  0  0  0  0  0  0  0  0  0  0  0
   35.8740   28.7490   32.3230 S   0  0  0  0  0  0  0  0  0  0  0  0
   36.0940   28.4140   30.8810 O   0  0  0  0  0  0  0  0  0  0  0  0
   34.3970   28.7530   32.6200 O   0  0  0  0  0  0  0  0  0  0  0  0
   40.0470   25.4883   33.6233 H   0  0  0  0  0  0  0  0  0  0  0  0
   40.7165   23.8419   33.3904 H   0  0  0  0  0  0  0  0  0  0  0  0
   47.0149   25.0950   34.3242 H   0  0  0  0  0  0  0  0  0  0  0  0
   45.8934   26.4642   34.2915 H   0  0  0  0  0  0  0  0  0  0  0  0
   47.9317   27.0554   35.6583 H   0  0  0  0  0  0  0  0  0  0  0  0
   46.5316   26.9937   36.7344 H   0  0  0  0  0  0  0  0  0  0  0  0
   47.2322   24.0106   38.2434 H   0  0  0  0  0  0  0  0  0  0  0  0
   46.2292   25.4925   38.1090 H   0  0  0  0  0  0  0  0  0  0  0  0
   44.9652   23.6370   37.2180 H   0  0  0  0  0  0  0  0  0  0  0  0
   46.3382   23.1407   36.1749 H   0  0  0  0  0  0  0  0  0  0  0  0
   37.2550   24.6728   37.3463 H   0  0  0  0  0  0  0  0  0  0  0  0
   40.0176   21.4029   38.8368 H   0  0  0  0  0  0  0  0  0  0  0  0
   41.3928   21.2577   37.7097 H   0  0  0  0  0  0  0  0  0  0  0  0
   36.6290   25.9222   31.9885 H   0  0  0  0  0  0  0  0  0  0  0  0
   37.8376   24.3850   33.5163 H   0  0  0  0  0  0  0  0  0  0  0  0
   38.1650   27.5386   36.4076 H   0  0  0  0  0  0  0  0  0  0  0  0
   36.9754   29.0376   34.8831 H   0  0  0  0  0  0  0  0  0  0  0  0
   36.3724   29.9966   32.5914 H   0  0  0  0  0  0  0  0  0  0  0  0
  1  2  1  0
  1 15  1  0
  2  6  1  0
  3  2  2  0
  3  4  1  0
  4  5  1  0
  5  7  1  0
  6  5  2  0
  7 12  1  0
  8  7  1  0
  8  9  1  0
  9 10  1  0
 10 11  1  0
 12 11  1  0
 13 18  2  0
 14 13  1  0
 15 14  2  0
 15 16  1  0
 16 17  2  0
 17 18  1  0
 17 19  1  0
 20 25  2  0
 21 20  1  0
 21 22  2  0
 22 23  1  0
 23 24  2  0
 23 14  1  0
 25 24  1  0
 26 28  2  0
 26 20  1  0
 27 26  2  0
  1 29  1  0
  1 30  1  0
  8 31  1  0
  8 32  1  0
  9 33  1  0
  9 34  1  0
 11 35  1  0
 11 36  1  0
 12 37  1  0
 12 38  1  0
 13 39  1  0
 19 40  1  0
 19 41  1  0
 21 42  1  0
 22 43  1  0
 24 44  1  0
 25 45  1  0
 26 46  1  0
M  ISO  8  29   8  30   8  31  13  32  13  33  13  34  13  35  13  36  13
M  ISO  8  37  13  38  13  39  14  42  14  43  14  44  14  45  14  46  11
M  END
>  <minimizedAffinity>  (1) 
-6.15090227

>  <minimizedRMSD>  (1) 
2.35783148

$$$$
