
     RDKit          3D

 47 51  0  0  0  0  0  0  0  0999 V2000
   40.7650   24.2690   33.7660 C   0  0  0  0  0  0  0  0  0  0  0  0
   42.0630   24.7860   34.2800 C   0  0  0  0  0  0  0  0  0  0  0  0
   42.3880   26.0620   34.6420 N   0  0  0  0  0  0  0  0  0  0  0  0
   43.6340   26.0310   35.0290 O   0  0  0  0  0  0  0  0  0  0  0  0
   44.0950   24.7960   34.9240 C   0  0  0  0  0  0  0  0  0  0  0  0
   43.1460   23.9630   34.4550 N   0  0  0  0  0  0  0  0  0  0  0  0
   45.4780   24.6550   35.3310 N   0  0  0  0  0  0  0  0  0  0  0  0
   46.3180   25.7690   34.9780 C   0  0  0  0  0  0  0  0  0  0  0  0
   47.0680   26.1580   36.2610 C   0  0  0  0  0  0  0  0  0  0  0  0
   47.8250   25.0370   36.6300 O   0  0  0  0  0  0  0  0  0  0  0  0
   46.9460   24.0860   37.1440 C   0  0  0  0  0  0  0  0  0  0  0  0
   46.0880   23.5560   36.0320 C   0  0  0  0  0  0  0  0  0  0  0  0
   37.9310   23.5520   36.1620 C   0  0  0  0  0  0  0  0  0  0  0  0
   38.6010   24.0560   35.0320 C   0  0  0  0  0  0  0  0  0  0  0  0
   39.9590   23.7780   34.9310 C   0  0  0  0  0  0  0  0  0  0  0  0
   40.5960   23.0440   35.9040 N   0  0  0  0  0  0  0  0  0  0  0  0
   39.8830   22.5860   36.9740 C   0  0  0  0  0  0  0  0  0  0  0  0
   38.5730   22.8340   37.1020 N   0  0  0  0  0  0  0  0  0  0  0  0
   40.4420   21.8260   38.0210 N   0  0  0  0  0  0  0  0  0  0  0  0
   37.9190   24.8270   34.0170 C   0  0  0  0  0  0  0  0  0  0  0  0
   37.6860   24.2420   32.7790 C   0  0  0  0  0  0  0  0  0  0  0  0
   37.0440   25.1360   31.9970 N   0  0  0  0  0  0  0  0  0  0  0  0
   36.8610   26.2660   32.6930 C   0  0  0  0  0  0  0  0  0  0  0  0
   36.2720   27.5040   32.4180 C   0  0  0  0  0  0  0  0  0  0  0  0
   36.2560   28.4860   33.4040 C   0  0  0  0  0  0  0  0  0  0  0  0
   36.8060   28.2640   34.6440 C   0  0  0  0  0  0  0  0  0  0  0  0
   37.3980   27.0430   34.9470 C   0  0  0  0  0  0  0  0  0  0  0  0
   37.3890   26.1080   33.9440 C   0  0  0  0  0  0  0  0  0  0  0  0
   40.2215   25.0748   33.2509 H   0  0  0  0  0  0  0  0  0  0  0  0
   40.9391   23.4493   33.0534 H   0  0  0  0  0  0  0  0  0  0  0  0
   47.0305   25.4765   34.1927 H   0  0  0  0  0  0  0  0  0  0  0  0
   45.7275   26.6102   34.5861 H   0  0  0  0  0  0  0  0  0  0  0  0
   47.7279   27.0173   36.0707 H   0  0  0  0  0  0  0  0  0  0  0  0
   46.3696   26.4491   37.0595 H   0  0  0  0  0  0  0  0  0  0  0  0
   47.5181   23.2606   37.5929 H   0  0  0  0  0  0  0  0  0  0  0  0
   46.3103   24.5478   37.9138 H   0  0  0  0  0  0  0  0  0  0  0  0
   45.3041   22.9079   36.4508 H   0  0  0  0  0  0  0  0  0  0  0  0
   46.7095   22.9757   35.3341 H   0  0  0  0  0  0  0  0  0  0  0  0
   36.8554   23.7498   36.2801 H   0  0  0  0  0  0  0  0  0  0  0  0
   39.8489   21.5100   38.8015 H   0  0  0  0  0  0  0  0  0  0  0  0
   41.4437   21.5866   38.0056 H   0  0  0  0  0  0  0  0  0  0  0  0
   37.9757   23.2223   32.4852 H   0  0  0  0  0  0  0  0  0  0  0  0
   36.7441   24.9755   31.0248 H   0  0  0  0  0  0  0  0  0  0  0  0
   35.8256   27.6998   31.4319 H   0  0  0  0  0  0  0  0  0  0  0  0
   35.7936   29.4601   33.1865 H   0  0  0  0  0  0  0  0  0  0  0  0
   36.7775   29.0594   35.4033 H   0  0  0  0  0  0  0  0  0  0  0  0
   37.8460   26.8396   35.9308 H   0  0  0  0  0  0  0  0  0  0  0  0
  1  2  1  0
  1 15  1  0
  2  6  1  0
  2  3  2  0
  3  4  1  0
  5  4  1  0
  5  7  1  0
  6  5  2  0
  7 12  1  0
  8  7  1  0
  8  9  1  0
  9 10  1  0
 10 11  1  0
 12 11  1  0
 13 18  2  0
 14 13  1  0
 15 14  2  0
 15 16  1  0
 16 17  2  0
 17 18  1  0
 17 19  1  0
 20 14  1  0
 21 20  2  0
 22 23  1  0
 22 21  1  0
 23 28  2  0
 24 23  1  0
 24 25  2  0
 25 26  1  0
 26 27  2  0
 28 20  1  0
 28 27  1  0
  1 29  1  0
  1 30  1  0
  8 31  1  0
  8 32  1  0
  9 33  1  0
  9 34  1  0
 11 35  1  0
 11 36  1  0
 12 37  1  0
 12 38  1  0
 13 39  1  0
 19 40  1  0
 19 41  1  0
 21 42  1  0
 22 43  1  0
 24 44  1  0
 25 45  1  0
 26 46  1  0
 27 47  1  0
M  ISO  8  29   8  30   8  31  13  32  13  33  13  34  13  35  13  36  13
M  ISO  8  37  13  38  13  39  14  42  14  43   9  44  14  45  14  46  14
M  ISO  1  47  14
M  END
>  <minimizedAffinity>  (1) 
-6.05055904

>  <minimizedRMSD>  (1) 
2.61090159

$$$$
