
     RDKit          3D

 44 48  0  0  0  0  0  0  0  0999 V2000
   40.0570   24.5480   33.7750 C   0  0  0  0  0  0  0  0  0  0  0  0
   41.2310   25.4410   33.8910 C   0  0  0  0  0  0  0  0  0  0  0  0
   41.2720   26.7860   34.0120 N   0  0  0  0  0  0  0  0  0  0  0  0
   42.5260   27.1340   34.0810 O   0  0  0  0  0  0  0  0  0  0  0  0
   43.2840   26.0400   34.0060 C   0  0  0  0  0  0  0  0  0  0  0  0
   42.5020   24.9580   33.8850 N   0  0  0  0  0  0  0  0  0  0  0  0
   44.6950   26.3270   34.0740 N   0  0  0  0  0  0  0  0  0  0  0  0
   45.0980   27.5290   33.4020 C   0  0  0  0  0  0  0  0  0  0  0  0
   45.9740   28.2960   34.4230 C   0  0  0  0  0  0  0  0  0  0  0  0
   47.0770   27.4620   34.6700 O   0  0  0  0  0  0  0  0  0  0  0  0
   46.6110   26.4470   35.5220 C   0  0  0  0  0  0  0  0  0  0  0  0
   45.7230   25.5420   34.7370 C   0  0  0  0  0  0  0  0  0  0  0  0
   38.1170   24.5450   37.0350 C   0  0  0  0  0  0  0  0  0  0  0  0
   38.4970   24.9300   35.7350 C   0  0  0  0  0  0  0  0  0  0  0  0
   39.5540   24.2320   35.1600 C   0  0  0  0  0  0  0  0  0  0  0  0
   40.1840   23.2140   35.8500 N   0  0  0  0  0  0  0  0  0  0  0  0
   39.7620   22.8940   37.1050 C   0  0  0  0  0  0  0  0  0  0  0  0
   38.7450   23.5530   37.6820 N   0  0  0  0  0  0  0  0  0  0  0  0
   40.3450   21.8700   37.8860 N   0  0  0  0  0  0  0  0  0  0  0  0
   37.8980   25.9550   34.9810 N   0  0  0  0  0  0  0  0  0  0  0  0
   37.9170   27.2360   35.4400 C   0  0  0  0  0  0  0  0  0  0  0  0
   37.2880   28.0790   34.5740 N   0  0  0  0  0  0  0  0  0  0  0  0
   36.8570   27.3270   33.5390 C   0  0  0  0  0  0  0  0  0  0  0  0
   36.1680   27.4940   32.3410 C   0  0  0  0  0  0  0  0  0  0  0  0
   35.9080   26.4650   31.5270 N   0  0  0  0  0  0  0  0  0  0  0  0
   36.3030   25.2100   31.8330 C   0  0  0  0  0  0  0  0  0  0  0  0
   36.9750   25.0050   32.9880 N   0  0  0  0  0  0  0  0  0  0  0  0
   37.2480   26.0350   33.8250 C   0  0  0  0  0  0  0  0  0  0  0  0
   39.2655   25.0496   33.1988 H   0  0  0  0  0  0  0  0  0  0  0  0
   40.3409   23.6197   33.2576 H   0  0  0  0  0  0  0  0  0  0  0  0
   45.6793   27.2891   32.4995 H   0  0  0  0  0  0  0  0  0  0  0  0
   44.2331   28.1250   33.0753 H   0  0  0  0  0  0  0  0  0  0  0  0
   46.3048   29.2565   34.0011 H   0  0  0  0  0  0  0  0  0  0  0  0
   45.4205   28.5256   35.3454 H   0  0  0  0  0  0  0  0  0  0  0  0
   47.4630   25.8768   35.9207 H   0  0  0  0  0  0  0  0  0  0  0  0
   46.0537   26.8863   36.3625 H   0  0  0  0  0  0  0  0  0  0  0  0
   45.2499   24.8152   35.4137 H   0  0  0  0  0  0  0  0  0  0  0  0
   46.3191   25.0071   33.9830 H   0  0  0  0  0  0  0  0  0  0  0  0
   37.2868   25.0696   37.5305 H   0  0  0  0  0  0  0  0  0  0  0  0
   39.9830   21.6728   38.8299 H   0  0  0  0  0  0  0  0  0  0  0  0
   41.1318   21.3211   37.5111 H   0  0  0  0  0  0  0  0  0  0  0  0
   38.3800   27.5500   36.3871 H   0  0  0  0  0  0  0  0  0  0  0  0
   35.8278   28.5004   32.0558 H   0  0  0  0  0  0  0  0  0  0  0  0
   36.0823   24.3716   31.1560 H   0  0  0  0  0  0  0  0  0  0  0  0
  1  2  1  0
  1 15  1  0
  2  3  2  0
  3  4  1  0
  5  7  1  0
  5  4  1  0
  6  2  1  0
  6  5  2  0
  7 12  1  0
  8  7  1  0
  8  9  1  0
  9 10  1  0
 10 11  1  0
 12 11  1  0
 13 18  2  0
 14 13  1  0
 15 14  2  0
 15 16  1  0
 16 17  2  0
 17 18  1  0
 17 19  1  0
 20 21  1  0
 20 14  1  0
 22 21  2  0
 23 28  2  0
 23 22  1  0
 24 23  1  0
 25 26  1  0
 25 24  2  0
 26 27  2  0
 27 28  1  0
 28 20  1  0
  1 29  1  0
  1 30  1  0
  8 31  1  0
  8 32  1  0
  9 33  1  0
  9 34  1  0
 11 35  1  0
 11 36  1  0
 12 37  1  0
 12 38  1  0
 13 39  1  0
 19 40  1  0
 19 41  1  0
 21 42  1  0
 24 43  1  0
 26 44  1  0
M  ISO  8  29   8  30   8  31  13  32  13  33  13  34  13  35  13  36  13
M  ISO  6  37  13  38  13  39  14  42  14  43  14  44  14
M  END
>  <minimizedAffinity>  (1) 
-5.87753344

>  <minimizedRMSD>  (1) 
2.28472781

$$$$
