
     RDKit          3D

 46 50  0  0  0  0  0  0  0  0999 V2000
   40.9080   24.2020   33.7540 C   0  0  0  0  0  0  0  0  0  0  0  0
   42.1840   24.7110   34.3440 C   0  0  0  0  0  0  0  0  0  0  0  0
   42.4370   25.9190   34.9010 N   0  0  0  0  0  0  0  0  0  0  0  0
   43.6830   25.9160   35.2770 O   0  0  0  0  0  0  0  0  0  0  0  0
   44.2190   24.7410   34.9740 C   0  0  0  0  0  0  0  0  0  0  0  0
   43.3190   23.9330   34.3800 N   0  0  0  0  0  0  0  0  0  0  0  0
   45.6110   24.6220   35.3490 N   0  0  0  0  0  0  0  0  0  0  0  0
   46.3790   25.8270   35.1670 C   0  0  0  0  0  0  0  0  0  0  0  0
   47.1090   26.0590   36.5140 C   0  0  0  0  0  0  0  0  0  0  0  0
   47.9400   24.9540   36.6910 O   0  0  0  0  0  0  0  0  0  0  0  0
   47.1250   23.8830   37.0600 C   0  0  0  0  0  0  0  0  0  0  0  0
   46.3010   23.4710   35.8680 C   0  0  0  0  0  0  0  0  0  0  0  0
   37.9590   23.3020   35.9350 C   0  0  0  0  0  0  0  0  0  0  0  0
   38.6860   23.8320   34.8570 C   0  0  0  0  0  0  0  0  0  0  0  0
   40.0650   23.6700   34.8580 C   0  0  0  0  0  0  0  0  0  0  0  0
   40.6510   23.0080   35.9000 N   0  0  0  0  0  0  0  0  0  0  0  0
   39.9110   22.5100   36.9240 C   0  0  0  0  0  0  0  0  0  0  0  0
   38.5800   22.6580   36.9360 N   0  0  0  0  0  0  0  0  0  0  0  0
   40.4370   21.8160   38.0330 N   0  0  0  0  0  0  0  0  0  0  0  0
   38.0300   24.5010   33.8190 N   0  0  0  0  0  0  0  0  0  0  0  0
   37.6960   24.1430   32.5680 C   0  0  0  0  0  0  0  0  0  0  0  0
   37.0550   25.1420   31.9160 N   0  0  0  0  0  0  0  0  0  0  0  0
   36.9710   26.1920   32.7850 C   0  0  0  0  0  0  0  0  0  0  0  0
   36.4170   27.4430   32.6230 C   0  0  0  0  0  0  0  0  0  0  0  0
   36.4900   28.2730   33.6780 N   0  0  0  0  0  0  0  0  0  0  0  0
   37.0790   27.8820   34.8260 C   0  0  0  0  0  0  0  0  0  0  0  0
   37.6230   26.6630   34.9960 N   0  0  0  0  0  0  0  0  0  0  0  0
   37.5830   25.7810   33.9730 C   0  0  0  0  0  0  0  0  0  0  0  0
   35.8000   27.8620   31.4290 N   0  0  0  0  0  0  0  0  0  0  0  0
   40.3803   25.0217   33.2444 H   0  0  0  0  0  0  0  0  0  0  0  0
   41.1181   23.4095   33.0207 H   0  0  0  0  0  0  0  0  0  0  0  0
   47.1068   25.6998   34.3521 H   0  0  0  0  0  0  0  0  0  0  0  0
   45.7409   26.6810   34.8959 H   0  0  0  0  0  0  0  0  0  0  0  0
   47.7042   26.9832   36.4729 H   0  0  0  0  0  0  0  0  0  0  0  0
   46.3980   26.1682   37.3462 H   0  0  0  0  0  0  0  0  0  0  0  0
   47.7491   23.0388   37.3884 H   0  0  0  0  0  0  0  0  0  0  0  0
   46.4646   24.1819   37.8873 H   0  0  0  0  0  0  0  0  0  0  0  0
   45.5683   22.7093   36.1728 H   0  0  0  0  0  0  0  0  0  0  0  0
   46.9582   23.0528   35.0913 H   0  0  0  0  0  0  0  0  0  0  0  0
   36.8652   23.4161   35.9597 H   0  0  0  0  0  0  0  0  0  0  0  0
   39.8064   21.4691   38.7698 H   0  0  0  0  0  0  0  0  0  0  0  0
   41.4518   21.6559   38.1063 H   0  0  0  0  0  0  0  0  0  0  0  0
   37.9161   23.1594   32.1274 H   0  0  0  0  0  0  0  0  0  0  0  0
   37.1167   28.5936   35.6639 H   0  0  0  0  0  0  0  0  0  0  0  0
   35.4010   28.8091   31.3603 H   0  0  0  0  0  0  0  0  0  0  0  0
   35.7476   27.2215   30.6241 H   0  0  0  0  0  0  0  0  0  0  0  0
  1  2  1  0
  1 15  1  0
  2  6  1  0
  2  3  2  0
  3  4  1  0
  5  4  1  0
  5  7  1  0
  6  5  2  0
  7 12  1  0
  8  7  1  0
  8  9  1  0
  9 10  1  0
 10 11  1  0
 12 11  1  0
 13 18  2  0
 14 15  2  0
 14 13  1  0
 15 16  1  0
 16 17  2  0
 17 18  1  0
 17 19  1  0
 20 28  1  0
 20 14  1  0
 21 20  1  0
 22 21  2  0
 22 23  1  0
 23 28  2  0
 24 23  1  0
 24 25  2  0
 25 26  1  0
 26 27  2  0
 28 27  1  0
 29 24  1  0
  1 30  1  0
  1 31  1  0
  8 32  1  0
  8 33  1  0
  9 34  1  0
  9 35  1  0
 11 36  1  0
 11 37  1  0
 12 38  1  0
 12 39  1  0
 13 40  1  0
 19 41  1  0
 19 42  1  0
 21 43  1  0
 26 44  1  0
 29 45  1  0
 29 46  1  0
M  ISO  8  30   8  31   8  32  13  33  13  34  13  35  13  36  13  37  13
M  ISO  5  38  13  39  13  40  14  43  14  44  14
M  END
>  <minimizedAffinity>  (1) 
-5.79131365

>  <minimizedRMSD>  (1) 
2.87905192

$$$$
