
     RDKit          3D

 37 39  0  0  0  0  0  0  0  0999 V2000
   39.1040   26.1930   34.6590 C   0  0  0  0  0  0  0  0  0  0  0  0
   38.0430   27.0290   34.0610 C   0  0  0  0  0  0  0  0  0  0  0  0
   37.1780   27.7200   34.8740 C   0  0  0  0  0  0  0  0  0  0  0  0
   36.1400   28.5400   34.3990 C   0  0  0  0  0  0  0  0  0  0  0  0
   36.0100   28.6340   33.0550 N   0  0  0  0  0  0  0  0  0  0  0  0
   36.8520   27.9600   32.2390 C   0  0  0  0  0  0  0  0  0  0  0  0
   37.8390   27.1830   32.7610 N   0  0  0  0  0  0  0  0  0  0  0  0
   36.6740   28.0910   30.7620 C   0  0  0  0  0  0  0  0  0  0  0  0
   36.4050   29.5150   30.4000 C   0  0  0  0  0  0  0  0  0  0  0  0
   37.4020   29.9570   29.3740 C   0  0  0  0  0  0  0  0  0  0  0  0
   38.2320   28.7430   29.0120 C   0  0  0  0  0  0  0  0  0  0  0  0
   38.0360   27.7660   30.1440 C   0  0  0  0  0  0  0  0  0  0  0  0
   38.7760   24.7240   34.6680 C   0  0  0  0  0  0  0  0  0  0  0  0
   39.7420   22.8300   37.7420 C   0  0  0  0  0  0  0  0  0  0  0  0
   38.8410   23.3420   38.6800 C   0  0  0  0  0  0  0  0  0  0  0  0
   37.9230   24.3180   38.2590 C   0  0  0  0  0  0  0  0  0  0  0  0
   37.9530   24.7210   36.9580 N   0  0  0  0  0  0  0  0  0  0  0  0
   38.8420   24.1990   36.0770 C   0  0  0  0  0  0  0  0  0  0  0  0
   39.7120   23.2800   36.4620 N   0  0  0  0  0  0  0  0  0  0  0  0
   39.2624   26.5209   35.6970 H   0  0  0  0  0  0  0  0  0  0  0  0
   40.0043   26.3202   34.0399 H   0  0  0  0  0  0  0  0  0  0  0  0
   37.3053   27.6259   35.9625 H   0  0  0  0  0  0  0  0  0  0  0  0
   35.4680   29.0776   35.0841 H   0  0  0  0  0  0  0  0  0  0  0  0
   35.8523   27.4435   30.4221 H   0  0  0  0  0  0  0  0  0  0  0  0
   35.3888   29.6047   29.9886 H   0  0  0  0  0  0  0  0  0  0  0  0
   36.4904   30.1474   31.2960 H   0  0  0  0  0  0  0  0  0  0  0  0
   36.8828   30.3392   28.4827 H   0  0  0  0  0  0  0  0  0  0  0  0
   38.0376   30.7645   29.7663 H   0  0  0  0  0  0  0  0  0  0  0  0
   37.8826   28.3077   28.0641 H   0  0  0  0  0  0  0  0  0  0  0  0
   39.2926   29.0008   28.8757 H   0  0  0  0  0  0  0  0  0  0  0  0
   38.0445   26.7344   29.7623 H   0  0  0  0  0  0  0  0  0  0  0  0
   38.8422   27.8493   30.8877 H   0  0  0  0  0  0  0  0  0  0  0  0
   37.7623   24.5731   34.2685 H   0  0  0  0  0  0  0  0  0  0  0  0
   39.5029   24.1842   34.0433 H   0  0  0  0  0  0  0  0  0  0  0  0
   40.4733   22.0645   38.0405 H   0  0  0  0  0  0  0  0  0  0  0  0
   38.8507   22.9893   39.7219 H   0  0  0  0  0  0  0  0  0  0  0  0
   37.1960   24.7474   38.9640 H   0  0  0  0  0  0  0  0  0  0  0  0
  1 13  1  0
  2  1  1  0
  2  3  2  0
  4  3  1  0
  5  4  2  0
  6  7  2  0
  6  5  1  0
  7  2  1  0
  8  6  1  0
  9  8  1  0
 10  9  1  0
 11 10  1  0
 11 12  1  0
 12  8  1  0
 13 18  1  0
 14 15  2  0
 16 15  1  0
 17 16  2  0
 18 19  2  0
 18 17  1  0
 19 14  1  0
  1 20  1  0
  1 21  1  0
  3 22  1  0
  4 23  1  0
  8 24  1  0
  9 25  1  0
  9 26  1  0
 10 27  1  0
 10 28  1  0
 11 29  1  0
 11 30  1  0
 12 31  1  0
 12 32  1  0
 13 33  1  0
 13 34  1  0
 14 35  1  0
 15 36  1  0
 16 37  1  0
M  ISO  8  20   8  21   8  22  14  23  14  24  13  25  13  26  13  27  13
M  ISO  8  28  13  29  13  30  13  31  13  32  13  33   8  34   8  35  14
M  ISO  2  36  14  37  14
M  END
>  <minimizedAffinity>  (1) 
-4.85045052

>  <minimizedRMSD>  (1) 
0.487970531

$$$$
