
     RDKit          3D

 40 43  0  0  0  0  0  0  0  0999 V2000
   41.3240   25.2970   34.0500 C   0  0  0  0  0  0  0  0  0  0  0  0
   41.3410   26.6560   34.0580 N   0  0  0  0  0  0  0  0  0  0  0  0
   42.5890   27.0280   34.1020 O   0  0  0  0  0  0  0  0  0  0  0  0
   43.3570   25.9400   34.1230 C   0  0  0  0  0  0  0  0  0  0  0  0
   42.6100   24.8110   34.0910 N   0  0  0  0  0  0  0  0  0  0  0  0
   44.7830   26.2280   34.1730 N   0  0  0  0  0  0  0  0  0  0  0  0
   45.1680   27.3880   33.3960 C   0  0  0  0  0  0  0  0  0  0  0  0
   46.0260   28.2480   34.3380 C   0  0  0  0  0  0  0  0  0  0  0  0
   47.1370   27.4540   34.6610 O   0  0  0  0  0  0  0  0  0  0  0  0
   46.6930   26.5020   35.5800 C   0  0  0  0  0  0  0  0  0  0  0  0
   45.8190   25.5210   34.8770 C   0  0  0  0  0  0  0  0  0  0  0  0
   40.1910   24.3330   33.9990 C   0  0  0  0  0  0  0  0  0  0  0  0
   38.5420   24.1650   37.4180 C   0  0  0  0  0  0  0  0  0  0  0  0
   38.8060   24.6350   36.1180 C   0  0  0  0  0  0  0  0  0  0  0  0
   39.7890   23.9800   35.3930 C   0  0  0  0  0  0  0  0  0  0  0  0
   40.4690   22.9080   35.9540 N   0  0  0  0  0  0  0  0  0  0  0  0
   40.1510   22.5130   37.2280 C   0  0  0  0  0  0  0  0  0  0  0  0
   39.2020   23.1410   37.9340 N   0  0  0  0  0  0  0  0  0  0  0  0
   40.7870   21.4340   37.8950 N   0  0  0  0  0  0  0  0  0  0  0  0
   38.0900   25.7660   35.5450 C   0  0  0  0  0  0  0  0  0  0  0  0
   38.3430   27.0460   35.9950 C   0  0  0  0  0  0  0  0  0  0  0  0
   37.5830   27.9960   35.3500 C   0  0  0  0  0  0  0  0  0  0  0  0
   36.8530   27.2140   34.4820 C   0  0  0  0  0  0  0  0  0  0  0  0
   37.1800   25.9860   34.6380 O   0  0  0  0  0  0  0  0  0  0  0  0
   45.7519   27.0838   32.5148 H   0  0  0  0  0  0  0  0  0  0  0  0
   44.2915   27.9397   33.0252 H   0  0  0  0  0  0  0  0  0  0  0  0
   46.3466   29.1704   33.8316 H   0  0  0  0  0  0  0  0  0  0  0  0
   45.4673   28.5532   35.2350 H   0  0  0  0  0  0  0  0  0  0  0  0
   47.5570   25.9797   36.0167 H   0  0  0  0  0  0  0  0  0  0  0  0
   46.1266   26.9961   36.3832 H   0  0  0  0  0  0  0  0  0  0  0  0
   45.3652   24.8401   35.6121 H   0  0  0  0  0  0  0  0  0  0  0  0
   46.4189   24.9381   34.1626 H   0  0  0  0  0  0  0  0  0  0  0  0
   39.3398   24.7920   33.4749 H   0  0  0  0  0  0  0  0  0  0  0  0
   40.5000   23.4250   33.4604 H   0  0  0  0  0  0  0  0  0  0  0  0
   37.7672   24.6617   38.0204 H   0  0  0  0  0  0  0  0  0  0  0  0
   40.5052   21.1831   38.8534 H   0  0  0  0  0  0  0  0  0  0  0  0
   41.5304   20.9017   37.4207 H   0  0  0  0  0  0  0  0  0  0  0  0
   39.0728   27.2817   36.7836 H   0  0  0  0  0  0  0  0  0  0  0  0
   37.5639   29.0869   35.4902 H   0  0  0  0  0  0  0  0  0  0  0  0
   36.1055   27.5867   33.7662 H   0  0  0  0  0  0  0  0  0  0  0  0
  1  2  2  0
  1  5  1  0
  2  3  1  0
  3  4  1  0
  4  6  1  0
  5  4  2  0
  6 11  1  0
  7  6  1  0
  7  8  1  0
  8  9  1  0
  9 10  1  0
 11 10  1  0
 12  1  1  0
 12 15  1  0
 13 18  2  0
 14 13  1  0
 15 16  1  0
 15 14  2  0
 16 17  2  0
 17 19  1  0
 17 18  1  0
 20 21  2  0
 20 14  1  0
 22 21  1  0
 23 24  1  0
 23 22  2  0
 24 20  1  0
  7 25  1  0
  7 26  1  0
  8 27  1  0
  8 28  1  0
 10 29  1  0
 10 30  1  0
 11 31  1  0
 11 32  1  0
 12 33  1  0
 12 34  1  0
 13 35  1  0
 19 36  1  0
 19 37  1  0
 21 38  1  0
 22 39  1  0
 23 40  1  0
M  ISO  8  25  13  26  13  27  13  28  13  29  13  30  13  31  13  32  13
M  ISO  6  33   8  34   8  35  14  38  14  39  14  40  14
M  END
>  <minimizedAffinity>  (1) 
-5.54828119

>  <minimizedRMSD>  (1) 
1.18226552

$$$$
