
     RDKit          3D

 43 46  0  0  0  0  0  0  0  0999 V2000
   40.5010   23.1420   34.3950 C   0  0  0  0  0  0  0  0  0  0  0  0
   41.7760   23.8740   34.5870 C   0  0  0  0  0  0  0  0  0  0  0  0
   42.3060   24.8890   33.8390 N   0  0  0  0  0  0  0  0  0  0  0  0
   43.4450   25.2100   34.3980 O   0  0  0  0  0  0  0  0  0  0  0  0
   43.6390   24.4330   35.4600 C   0  0  0  0  0  0  0  0  0  0  0  0
   42.6170   23.5760   35.6210 N   0  0  0  0  0  0  0  0  0  0  0  0
   44.8860   24.7200   36.1470 N   0  0  0  0  0  0  0  0  0  0  0  0
   45.9830   25.0560   35.2830 C   0  0  0  0  0  0  0  0  0  0  0  0
   46.5670   26.3680   35.8670 C   0  0  0  0  0  0  0  0  0  0  0  0
   47.0270   26.0370   37.1480 O   0  0  0  0  0  0  0  0  0  0  0  0
   45.8930   25.9270   37.9660 C   0  0  0  0  0  0  0  0  0  0  0  0
   45.1290   24.7010   37.5770 C   0  0  0  0  0  0  0  0  0  0  0  0
   37.7230   24.8750   36.2870 C   0  0  0  0  0  0  0  0  0  0  0  0
   38.5660   24.5530   35.2190 C   0  0  0  0  0  0  0  0  0  0  0  0
   39.5350   23.5750   35.4620 C   0  0  0  0  0  0  0  0  0  0  0  0
   39.6320   22.9780   36.6890 N   0  0  0  0  0  0  0  0  0  0  0  0
   38.7710   23.3450   37.6890 C   0  0  0  0  0  0  0  0  0  0  0  0
   37.8320   24.2780   37.4870 N   0  0  0  0  0  0  0  0  0  0  0  0
   38.7940   22.7840   38.9900 N   0  0  0  0  0  0  0  0  0  0  0  0
   38.4790   25.1620   33.9410 N   0  0  0  0  0  0  0  0  0  0  0  0
   39.1090   26.3710   33.9090 C   0  0  0  0  0  0  0  0  0  0  0  0
   39.1420   27.1330   32.7500 C   0  0  0  0  0  0  0  0  0  0  0  0
   38.5210   26.6440   31.6160 C   0  0  0  0  0  0  0  0  0  0  0  0
   38.5280   27.3060   30.5430 O   0  0  0  0  0  0  0  0  0  0  0  0
   37.9160   25.4530   31.6990 N   0  0  0  0  0  0  0  0  0  0  0  0
   37.8840   24.7150   32.8210 C   0  0  0  0  0  0  0  0  0  0  0  0
   37.3360   23.5960   32.9610 O   0  0  0  0  0  0  0  0  0  0  0  0
   40.0861   23.3740   33.4030 H   0  0  0  0  0  0  0  0  0  0  0  0
   40.6756   22.0581   34.4632 H   0  0  0  0  0  0  0  0  0  0  0  0
   45.6296   25.2148   34.2535 H   0  0  0  0  0  0  0  0  0  0  0  0
   46.7341   24.2536   35.2381 H   0  0  0  0  0  0  0  0  0  0  0  0
   47.3969   26.7305   35.2426 H   0  0  0  0  0  0  0  0  0  0  0  0
   45.8149   27.1701   35.8988 H   0  0  0  0  0  0  0  0  0  0  0  0
   46.2035   25.8496   39.0184 H   0  0  0  0  0  0  0  0  0  0  0  0
   45.2574   26.8161   37.8416 H   0  0  0  0  0  0  0  0  0  0  0  0
   44.1684   24.6815   38.1125 H   0  0  0  0  0  0  0  0  0  0  0  0
   45.7115   23.8056   37.8395 H   0  0  0  0  0  0  0  0  0  0  0  0
   36.9466   25.6404   36.1411 H   0  0  0  0  0  0  0  0  0  0  0  0
   38.1192   23.1023   39.7001 H   0  0  0  0  0  0  0  0  0  0  0  0
   39.4856   22.0580   39.2256 H   0  0  0  0  0  0  0  0  0  0  0  0
   39.5997   26.7488   34.8181 H   0  0  0  0  0  0  0  0  0  0  0  0
   39.6524   28.1073   32.7339 H   0  0  0  0  0  0  0  0  0  0  0  0
   37.4504   25.0828   30.8582 H   0  0  0  0  0  0  0  0  0  0  0  0
  1  2  1  0
  1 15  1  0
  2  6  1  0
  3  4  1  0
  3  2  2  0
  4  5  1  0
  5  6  2  0
  5  7  1  0
  7 12  1  0
  8  9  1  0
  8  7  1  0
  9 10  1  0
 10 11  1  0
 12 11  1  0
 13 18  2  0
 14 15  2  0
 14 13  1  0
 15 16  1  0
 16 17  2  0
 17 19  1  0
 18 17  1  0
 20 14  1  0
 21 20  1  0
 22 21  2  0
 23 25  1  0
 23 22  1  0
 24 23  2  0
 25 26  1  0
 26 27  2  0
 26 20  1  0
  1 28  1  0
  1 29  1  0
  8 30  1  0
  8 31  1  0
  9 32  1  0
  9 33  1  0
 11 34  1  0
 11 35  1  0
 12 36  1  0
 12 37  1  0
 13 38  1  0
 19 39  1  0
 19 40  1  0
 21 41  1  0
 22 42  1  0
 25 43  1  0
M  ISO  8  28   8  29   8  30  13  31  13  32  13  33  13  34  13  35  13
M  ISO  6  36  13  37  13  38  14  41  14  42  14  43   9
M  END
>  <minimizedAffinity>  (1) 
-5.53129101

>  <minimizedRMSD>  (1) 
3.15679693

$$$$
