
     RDKit          3D

 39 42  0  0  0  0  0  0  0  0999 V2000
   41.2610   25.3300   34.0370 C   0  0  0  0  0  0  0  0  0  0  0  0
   41.2980   26.6850   34.0610 N   0  0  0  0  0  0  0  0  0  0  0  0
   42.5640   27.0290   34.1010 O   0  0  0  0  0  0  0  0  0  0  0  0
   43.3160   25.9410   34.1030 C   0  0  0  0  0  0  0  0  0  0  0  0
   42.5480   24.8420   34.0630 N   0  0  0  0  0  0  0  0  0  0  0  0
   44.7330   26.2220   34.1450 N   0  0  0  0  0  0  0  0  0  0  0  0
   45.1260   27.3870   33.3860 C   0  0  0  0  0  0  0  0  0  0  0  0
   45.9900   28.2410   34.3410 C   0  0  0  0  0  0  0  0  0  0  0  0
   47.0960   27.4410   34.6740 O   0  0  0  0  0  0  0  0  0  0  0  0
   46.6540   26.4590   35.5560 C   0  0  0  0  0  0  0  0  0  0  0  0
   45.7650   25.4930   34.8380 C   0  0  0  0  0  0  0  0  0  0  0  0
   40.1030   24.3930   33.9900 C   0  0  0  0  0  0  0  0  0  0  0  0
   38.4930   24.2300   37.4200 C   0  0  0  0  0  0  0  0  0  0  0  0
   38.7560   24.6810   36.1130 C   0  0  0  0  0  0  0  0  0  0  0  0
   39.7290   24.0160   35.3810 C   0  0  0  0  0  0  0  0  0  0  0  0
   40.4050   22.9420   35.9440 N   0  0  0  0  0  0  0  0  0  0  0  0
   40.1010   22.5550   37.2150 C   0  0  0  0  0  0  0  0  0  0  0  0
   39.1510   23.2000   37.9420 N   0  0  0  0  0  0  0  0  0  0  0  0
   40.7350   21.4730   37.8750 N   0  0  0  0  0  0  0  0  0  0  0  0
   38.0780   25.7670   35.5350 N   0  0  0  0  0  0  0  0  0  0  0  0
   38.3800   26.9780   36.0870 C   0  0  0  0  0  0  0  0  0  0  0  0
   37.6680   27.9370   35.4480 N   0  0  0  0  0  0  0  0  0  0  0  0
   36.9300   27.2890   34.4990 C   0  0  0  0  0  0  0  0  0  0  0  0
   37.1950   25.9780   34.5720 N   0  0  0  0  0  0  0  0  0  0  0  0
   45.7110   27.0894   32.5033 H   0  0  0  0  0  0  0  0  0  0  0  0
   44.2517   27.9466   33.0221 H   0  0  0  0  0  0  0  0  0  0  0  0
   46.3207   29.1619   33.8384 H   0  0  0  0  0  0  0  0  0  0  0  0
   45.4259   28.5450   35.2351 H   0  0  0  0  0  0  0  0  0  0  0  0
   47.5209   25.9208   35.9670 H   0  0  0  0  0  0  0  0  0  0  0  0
   46.0895   26.9329   36.3726 H   0  0  0  0  0  0  0  0  0  0  0  0
   45.3057   24.8063   35.5643 H   0  0  0  0  0  0  0  0  0  0  0  0
   46.3575   24.9141   34.1142 H   0  0  0  0  0  0  0  0  0  0  0  0
   39.2502   24.8846   33.4990 H   0  0  0  0  0  0  0  0  0  0  0  0
   40.3762   23.4921   33.4210 H   0  0  0  0  0  0  0  0  0  0  0  0
   37.7269   24.7406   38.0220 H   0  0  0  0  0  0  0  0  0  0  0  0
   40.4632   21.2263   38.8374 H   0  0  0  0  0  0  0  0  0  0  0  0
   41.4676   20.9333   37.3923 H   0  0  0  0  0  0  0  0  0  0  0  0
   39.0851   27.1474   36.9141 H   0  0  0  0  0  0  0  0  0  0  0  0
   36.2339   27.7645   33.7924 H   0  0  0  0  0  0  0  0  0  0  0  0
  1  2  2  0
  1  5  1  0
  2  3  1  0
  3  4  1  0
  4  6  1  0
  5  4  2  0
  6 11  1  0
  7  6  1  0
  7  8  1  0
  8  9  1  0
  9 10  1  0
 11 10  1  0
 12  1  1  0
 12 15  1  0
 13 18  2  0
 14 13  1  0
 15 16  1  0
 15 14  2  0
 16 17  2  0
 17 19  1  0
 17 18  1  0
 20 21  1  0
 20 14  1  0
 22 21  2  0
 23 24  2  0
 23 22  1  0
 24 20  1  0
  7 25  1  0
  7 26  1  0
  8 27  1  0
  8 28  1  0
 10 29  1  0
 10 30  1  0
 11 31  1  0
 11 32  1  0
 12 33  1  0
 12 34  1  0
 13 35  1  0
 19 36  1  0
 19 37  1  0
 21 38  1  0
 23 39  1  0
M  ISO  8  25  13  26  13  27  13  28  13  29  13  30  13  31  13  32  13
M  ISO  5  33   8  34   8  35  14  38  14  39  14
M  END
>  <minimizedAffinity>  (1) 
-5.2853055

>  <minimizedRMSD>  (1) 
1.13581669

$$$$
