
     RDKit          3D

 48 51  0  0  0  0  0  0  0  0999 V2000
   40.5030   23.8740   34.0860 C   0  0  0  0  0  0  0  0  0  0  0  0
   41.8380   24.4700   34.4000 C   0  0  0  0  0  0  0  0  0  0  0  0
   42.4990   25.4930   33.7750 N   0  0  0  0  0  0  0  0  0  0  0  0
   43.6250   25.6580   34.4020 O   0  0  0  0  0  0  0  0  0  0  0  0
   43.7000   24.7770   35.4000 C   0  0  0  0  0  0  0  0  0  0  0  0
   42.6010   24.0020   35.4470 N   0  0  0  0  0  0  0  0  0  0  0  0
   44.9220   24.8800   36.1640 N   0  0  0  0  0  0  0  0  0  0  0  0
   46.0930   25.1720   35.3790 C   0  0  0  0  0  0  0  0  0  0  0  0
   46.7740   26.3690   36.0940 C   0  0  0  0  0  0  0  0  0  0  0  0
   47.1230   25.9070   37.3650 O   0  0  0  0  0  0  0  0  0  0  0  0
   45.9440   25.8440   38.1200 C   0  0  0  0  0  0  0  0  0  0  0  0
   45.0940   24.7240   37.5970 C   0  0  0  0  0  0  0  0  0  0  0  0
   37.8350   25.2310   36.3850 C   0  0  0  0  0  0  0  0  0  0  0  0
   38.6310   25.0910   35.2440 C   0  0  0  0  0  0  0  0  0  0  0  0
   39.6060   24.1040   35.2470 C   0  0  0  0  0  0  0  0  0  0  0  0
   39.7510   23.3110   36.3530 N   0  0  0  0  0  0  0  0  0  0  0  0
   38.9460   23.4910   37.4360 C   0  0  0  0  0  0  0  0  0  0  0  0
   37.9940   24.4440   37.4560 N   0  0  0  0  0  0  0  0  0  0  0  0
   39.0220   22.7190   38.6290 N   0  0  0  0  0  0  0  0  0  0  0  0
   38.4540   25.9250   34.1200 N   0  0  0  0  0  0  0  0  0  0  0  0
   39.1380   27.0830   33.5740 C   0  0  0  0  0  0  0  0  0  0  0  0
   39.7420   26.7780   32.2130 C   0  0  0  0  0  0  0  0  0  0  0  0
   39.1680   25.5200   31.6010 C   0  0  0  0  0  0  0  0  0  0  0  0
   37.6660   25.6080   31.7980 C   0  0  0  0  0  0  0  0  0  0  0  0
   37.3210   25.5920   33.2520 C   0  0  0  0  0  0  0  0  0  0  0  0
   40.0826   24.3541   33.1901 H   0  0  0  0  0  0  0  0  0  0  0  0
   40.6048   22.7959   33.8929 H   0  0  0  0  0  0  0  0  0  0  0  0
   45.8103   25.4463   34.3519 H   0  0  0  0  0  0  0  0  0  0  0  0
   46.7636   24.3034   35.3022 H   0  0  0  0  0  0  0  0  0  0  0  0
   47.6715   26.6844   35.5417 H   0  0  0  0  0  0  0  0  0  0  0  0
   46.1045   27.2399   36.1505 H   0  0  0  0  0  0  0  0  0  0  0  0
   46.1907   25.6589   39.1759 H   0  0  0  0  0  0  0  0  0  0  0  0
   45.3982   26.7957   38.0407 H   0  0  0  0  0  0  0  0  0  0  0  0
   44.1108   24.7481   38.0897 H   0  0  0  0  0  0  0  0  0  0  0  0
   45.5837   23.7615   37.8064 H   0  0  0  0  0  0  0  0  0  0  0  0
   37.0573   26.0087   36.4030 H   0  0  0  0  0  0  0  0  0  0  0  0
   38.3785   22.9126   39.4096 H   0  0  0  0  0  0  0  0  0  0  0  0
   39.7206   21.9666   38.7119 H   0  0  0  0  0  0  0  0  0  0  0  0
   38.4179   27.9080   33.4695 H   0  0  0  0  0  0  0  0  0  0  0  0
   39.9517   27.3606   34.2602 H   0  0  0  0  0  0  0  0  0  0  0  0
   39.5406   27.6235   31.5388 H   0  0  0  0  0  0  0  0  0  0  0  0
   40.8224   26.6234   32.3505 H   0  0  0  0  0  0  0  0  0  0  0  0
   39.5688   24.6304   32.1089 H   0  0  0  0  0  0  0  0  0  0  0  0
   39.4307   25.4332   30.5364 H   0  0  0  0  0  0  0  0  0  0  0  0
   37.2974   26.5425   31.3499 H   0  0  0  0  0  0  0  0  0  0  0  0
   37.1948   24.7400   31.3136 H   0  0  0  0  0  0  0  0  0  0  0  0
   36.5189   26.3237   33.4287 H   0  0  0  0  0  0  0  0  0  0  0  0
   37.0092   24.5671   33.5018 H   0  0  0  0  0  0  0  0  0  0  0  0
  1  2  1  0
  1 15  1  0
  2  6  1  0
  3  2  2  0
  3  4  1  0
  4  5  1  0
  5  6  2  0
  5  7  1  0
  7 12  1  0
  8  9  1  0
  8  7  1  0
  9 10  1  0
 10 11  1  0
 12 11  1  0
 13 18  2  0
 14 15  2  0
 14 13  1  0
 15 16  1  0
 16 17  2  0
 17 18  1  0
 17 19  1  0
 20 14  1  0
 21 20  1  0
 22 21  1  0
 23 24  1  0
 23 22  1  0
 24 25  1  0
 25 20  1  0
  1 26  1  0
  1 27  1  0
  8 28  1  0
  8 29  1  0
  9 30  1  0
  9 31  1  0
 11 32  1  0
 11 33  1  0
 12 34  1  0
 12 35  1  0
 13 36  1  0
 19 37  1  0
 19 38  1  0
 21 39  1  0
 21 40  1  0
 22 41  1  0
 22 42  1  0
 23 43  1  0
 23 44  1  0
 24 45  1  0
 24 46  1  0
 25 47  1  0
 25 48  1  0
M  ISO  8  26   8  27   8  28  13  29  13  30  13  31  13  32  13  33  13
M  ISO  8  34  13  35  13  36  14  39  13  40  13  41  13  42  13  43  13
M  ISO  5  44  13  45  13  46  13  47  13  48  13
M  END
>  <minimizedAffinity>  (1) 
-5.25130701

>  <minimizedRMSD>  (1) 
2.58944488

$$$$
