
     RDKit          3D

 47 51  0  0  0  0  0  0  0  0999 V2000
   39.5910   23.7160   33.9450 C   0  0  0  0  0  0  0  0  0  0  0  0
   41.0290   23.4450   34.1980 C   0  0  0  0  0  0  0  0  0  0  0  0
   41.9650   22.8780   33.3810 N   0  0  0  0  0  0  0  0  0  0  0  0
   43.0890   22.8480   34.0360 O   0  0  0  0  0  0  0  0  0  0  0  0
   42.8950   23.3740   35.2330 C   0  0  0  0  0  0  0  0  0  0  0  0
   41.6070   23.7660   35.3840 N   0  0  0  0  0  0  0  0  0  0  0  0
   44.0870   23.3970   36.0650 N   0  0  0  0  0  0  0  0  0  0  0  0
   44.9350   22.2380   35.9050 C   0  0  0  0  0  0  0  0  0  0  0  0
   46.3540   22.8140   35.6620 C   0  0  0  0  0  0  0  0  0  0  0  0
   46.6810   23.5240   36.8250 O   0  0  0  0  0  0  0  0  0  0  0  0
   45.9550   24.7090   36.7940 C   0  0  0  0  0  0  0  0  0  0  0  0
   44.5080   24.4110   37.0010 C   0  0  0  0  0  0  0  0  0  0  0  0
   38.4950   26.7770   35.8690 C   0  0  0  0  0  0  0  0  0  0  0  0
   38.9940   26.0080   34.7920 C   0  0  0  0  0  0  0  0  0  0  0  0
   39.0830   24.6390   35.0020 C   0  0  0  0  0  0  0  0  0  0  0  0
   38.7000   24.0930   36.1960 N   0  0  0  0  0  0  0  0  0  0  0  0
   38.2240   24.8930   37.2010 C   0  0  0  0  0  0  0  0  0  0  0  0
   38.1270   26.2250   37.0250 N   0  0  0  0  0  0  0  0  0  0  0  0
   37.8020   24.4280   38.4650 N   0  0  0  0  0  0  0  0  0  0  0  0
   39.4090   26.6000   33.5340 C   0  0  0  0  0  0  0  0  0  0  0  0
   40.7270   26.8400   33.2550 N   0  0  0  0  0  0  0  0  0  0  0  0
   41.1190   27.3930   32.0750 C   0  0  0  0  0  0  0  0  0  0  0  0
   40.1970   27.7260   31.1290 N   0  0  0  0  0  0  0  0  0  0  0  0
   38.8860   27.5170   31.3380 C   0  0  0  0  0  0  0  0  0  0  0  0
   37.9540   27.8430   30.3900 C   0  0  0  0  0  0  0  0  0  0  0  0
   36.6070   27.5970   30.6600 C   0  0  0  0  0  0  0  0  0  0  0  0
   36.2000   27.0370   31.8520 C   0  0  0  0  0  0  0  0  0  0  0  0
   37.1790   26.7190   32.7890 C   0  0  0  0  0  0  0  0  0  0  0  0
   38.5070   26.9510   32.5470 C   0  0  0  0  0  0  0  0  0  0  0  0
   39.4711   24.1839   32.9567 H   0  0  0  0  0  0  0  0  0  0  0  0
   39.0234   22.7740   33.9667 H   0  0  0  0  0  0  0  0  0  0  0  0
   44.9191   21.6181   36.8136 H   0  0  0  0  0  0  0  0  0  0  0  0
   44.6027   21.5920   35.0790 H   0  0  0  0  0  0  0  0  0  0  0  0
   47.0746   21.9999   35.4946 H   0  0  0  0  0  0  0  0  0  0  0  0
   46.3825   23.4593   34.7717 H   0  0  0  0  0  0  0  0  0  0  0  0
   46.3096   25.3773   37.5925 H   0  0  0  0  0  0  0  0  0  0  0  0
   46.0928   25.1981   35.8184 H   0  0  0  0  0  0  0  0  0  0  0  0
   43.9186   25.3258   36.8403 H   0  0  0  0  0  0  0  0  0  0  0  0
   44.3514   24.0496   38.0281 H   0  0  0  0  0  0  0  0  0  0  0  0
   38.4077   27.8669   35.7486 H   0  0  0  0  0  0  0  0  0  0  0  0
   37.4556   25.0946   39.1696 H   0  0  0  0  0  0  0  0  0  0  0  0
   37.8405   23.4220   38.6828 H   0  0  0  0  0  0  0  0  0  0  0  0
   42.1873   27.5723   31.8838 H   0  0  0  0  0  0  0  0  0  0  0  0
   38.2610   28.2905   29.4332 H   0  0  0  0  0  0  0  0  0  0  0  0
   35.8519   27.8563   29.9033 H   0  0  0  0  0  0  0  0  0  0  0  0
   35.1358   26.8475   32.0562 H   0  0  0  0  0  0  0  0  0  0  0  0
   36.8787   26.2703   33.7474 H   0  0  0  0  0  0  0  0  0  0  0  0
  1  2  1  0
  1 15  1  0
  2  6  1  0
  3  4  1  0
  3  2  2  0
  4  5  1  0
  5  6  2  0
  5  7  1  0
  7 12  1  0
  8  7  1  0
  9  8  1  0
  9 10  1  0
 11 10  1  0
 11 12  1  0
 13 18  2  0
 14 15  2  0
 14 13  1  0
 15 16  1  0
 16 17  2  0
 17 19  1  0
 18 17  1  0
 20 14  1  0
 21 20  2  0
 22 21  1  0
 23 24  1  0
 23 22  2  0
 24 29  2  0
 25 26  2  0
 25 24  1  0
 26 27  1  0
 27 28  2  0
 29 28  1  0
 29 20  1  0
  1 30  1  0
  1 31  1  0
  8 32  1  0
  8 33  1  0
  9 34  1  0
  9 35  1  0
 11 36  1  0
 11 37  1  0
 12 38  1  0
 12 39  1  0
 13 40  1  0
 19 41  1  0
 19 42  1  0
 22 43  1  0
 25 44  1  0
 26 45  1  0
 27 46  1  0
 28 47  1  0
M  ISO  8  30   8  31   8  32  13  33  13  34  13  35  13  36  13  37  13
M  ISO  8  38  13  39  13  40  14  43  14  44  14  45  14  46  14  47  14
M  END
>  <minimizedAffinity>  (1) 
-5.17324829

>  <minimizedRMSD>  (1) 
4.43554688

$$$$
