
     RDKit          3D

 39 41  0  0  0  0  0  0  0  0999 V2000
   40.9580   25.4920   34.0300 C   0  0  0  0  0  0  0  0  0  0  0  0
   41.0610   26.8400   33.9900 N   0  0  0  0  0  0  0  0  0  0  0  0
   42.3400   27.1280   34.0610 O   0  0  0  0  0  0  0  0  0  0  0  0
   43.0330   25.9930   34.1440 C   0  0  0  0  0  0  0  0  0  0  0  0
   42.2010   24.9340   34.1280 N   0  0  0  0  0  0  0  0  0  0  0  0
   44.4550   26.2000   34.2270 N   0  0  0  0  0  0  0  0  0  0  0  0
   44.9540   27.3010   33.4460 C   0  0  0  0  0  0  0  0  0  0  0  0
   45.8270   28.1330   34.4130 C   0  0  0  0  0  0  0  0  0  0  0  0
   46.8680   27.2910   34.8030 O   0  0  0  0  0  0  0  0  0  0  0  0
   46.3370   26.3770   35.7160 C   0  0  0  0  0  0  0  0  0  0  0  0
   45.4190   25.4310   34.9960 C   0  0  0  0  0  0  0  0  0  0  0  0
   39.7260   24.6560   33.9820 C   0  0  0  0  0  0  0  0  0  0  0  0
   38.0810   24.4880   37.3790 C   0  0  0  0  0  0  0  0  0  0  0  0
   38.3530   24.9230   36.0680 C   0  0  0  0  0  0  0  0  0  0  0  0
   39.3660   24.2660   35.3750 C   0  0  0  0  0  0  0  0  0  0  0  0
   40.0390   23.2480   35.9870 N   0  0  0  0  0  0  0  0  0  0  0  0
   39.7450   22.8620   37.2490 C   0  0  0  0  0  0  0  0  0  0  0  0
   38.7610   23.4880   37.9440 N   0  0  0  0  0  0  0  0  0  0  0  0
   40.3910   21.8250   37.9460 N   0  0  0  0  0  0  0  0  0  0  0  0
   37.6070   26.0220   35.4490 C   0  0  0  0  0  0  0  0  0  0  0  0
   38.1730   27.3370   35.9460 C   0  0  0  0  0  0  0  0  0  0  0  0
   45.5580   26.9321   32.6039 H   0  0  0  0  0  0  0  0  0  0  0  0
   44.1370   27.8997   33.0171 H   0  0  0  0  0  0  0  0  0  0  0  0
   46.2243   29.0223   33.9018 H   0  0  0  0  0  0  0  0  0  0  0  0
   45.2478   28.4889   35.2778 H   0  0  0  0  0  0  0  0  0  0  0  0
   47.1543   25.8098   36.1854 H   0  0  0  0  0  0  0  0  0  0  0  0
   45.7744   26.9166   36.4921 H   0  0  0  0  0  0  0  0  0  0  0  0
   44.8900   24.8023   35.7273 H   0  0  0  0  0  0  0  0  0  0  0  0
   46.0032   24.7873   34.3220 H   0  0  0  0  0  0  0  0  0  0  0  0
   38.9034   25.2324   33.5335 H   0  0  0  0  0  0  0  0  0  0  0  0
   39.9030   23.7577   33.3723 H   0  0  0  0  0  0  0  0  0  0  0  0
   37.2861   24.9860   37.9536 H   0  0  0  0  0  0  0  0  0  0  0  0
   40.1043   21.5945   38.9081 H   0  0  0  0  0  0  0  0  0  0  0  0
   41.1507   21.2961   37.4943 H   0  0  0  0  0  0  0  0  0  0  0  0
   36.5446   25.9490   35.7245 H   0  0  0  0  0  0  0  0  0  0  0  0
   37.6981   25.9657   34.3542 H   0  0  0  0  0  0  0  0  0  0  0  0
   38.1755   27.3428   37.0460 H   0  0  0  0  0  0  0  0  0  0  0  0
   39.2022   27.4563   35.5764 H   0  0  0  0  0  0  0  0  0  0  0  0
   37.5522   28.1665   35.5764 H   0  0  0  0  0  0  0  0  0  0  0  0
  1  5  1  0
  2  1  2  0
  2  3  1  0
  3  4  1  0
  4  6  1  0
  5  4  2  0
  6 11  1  0
  7  6  1  0
  7  8  1  0
  8  9  1  0
  9 10  1  0
 11 10  1  0
 12  1  1  0
 12 15  1  0
 13 18  2  0
 14 13  1  0
 15 16  1  0
 15 14  2  0
 16 17  2  0
 17 18  1  0
 17 19  1  0
 20 21  1  0
 20 14  1  0
  7 22  1  0
  7 23  1  0
  8 24  1  0
  8 25  1  0
 10 26  1  0
 10 27  1  0
 11 28  1  0
 11 29  1  0
 12 30  1  0
 12 31  1  0
 13 32  1  0
 19 33  1  0
 19 34  1  0
 20 35  1  0
 20 36  1  0
 21 37  1  0
 21 38  1  0
 21 39  1  0
M  ISO  8  22  13  23  13  24  13  25  13  26  13  27  13  28  13  29  13
M  ISO  8  30   8  31   8  32  14  35   8  36   8  37   8  38   8  39   8
M  END
>  <minimizedAffinity>  (1) 
-5.10544634

>  <minimizedRMSD>  (1) 
0.767446101

$$$$
