
     RDKit          3D

 45 47  0  0  0  0  0  0  0  0999 V2000
   42.6100   24.9810   34.5050 C   0  0  0  0  0  0  0  0  0  0  0  0
   43.0460   26.2580   34.5870 N   0  0  0  0  0  0  0  0  0  0  0  0
   44.2630   26.2160   35.0510 O   0  0  0  0  0  0  0  0  0  0  0  0
   44.5970   24.9550   35.2600 C   0  0  0  0  0  0  0  0  0  0  0  0
   43.5850   24.1350   34.9310 N   0  0  0  0  0  0  0  0  0  0  0  0
   45.9360   24.7920   35.7780 N   0  0  0  0  0  0  0  0  0  0  0  0
   46.8970   25.7290   35.2480 C   0  0  0  0  0  0  0  0  0  0  0  0
   47.6050   26.3290   36.4910 C   0  0  0  0  0  0  0  0  0  0  0  0
   48.2400   25.2580   37.1310 O   0  0  0  0  0  0  0  0  0  0  0  0
   47.2540   24.5090   37.7750 C   0  0  0  0  0  0  0  0  0  0  0  0
   46.4070   23.8220   36.7420 C   0  0  0  0  0  0  0  0  0  0  0  0
   41.2920   24.4490   34.0420 C   0  0  0  0  0  0  0  0  0  0  0  0
   38.6040   24.2540   36.6880 C   0  0  0  0  0  0  0  0  0  0  0  0
   39.2780   24.7260   35.5360 C   0  0  0  0  0  0  0  0  0  0  0  0
   40.4630   24.0880   35.2160 C   0  0  0  0  0  0  0  0  0  0  0  0
   40.9270   23.0610   35.9920 N   0  0  0  0  0  0  0  0  0  0  0  0
   40.2300   22.6520   37.0920 C   0  0  0  0  0  0  0  0  0  0  0  0
   39.0760   23.2460   37.4340 N   0  0  0  0  0  0  0  0  0  0  0  0
   40.6280   21.6020   37.9520 N   0  0  0  0  0  0  0  0  0  0  0  0
   38.7710   25.8350   34.7110 C   0  0  0  0  0  0  0  0  0  0  0  0
   39.5900   27.0900   34.7660 C   0  0  0  0  0  0  0  0  0  0  0  0
   37.3890   26.1890   35.2830 C   0  0  0  0  0  0  0  0  0  0  0  0
   38.5120   25.3840   33.2790 C   0  0  0  0  0  0  0  0  0  0  0  0
   47.6227   25.2137   34.6016 H   0  0  0  0  0  0  0  0  0  0  0  0
   46.4193   26.5047   34.6315 H   0  0  0  0  0  0  0  0  0  0  0  0
   48.3449   27.0822   36.1824 H   0  0  0  0  0  0  0  0  0  0  0  0
   46.8884   26.8287   37.1594 H   0  0  0  0  0  0  0  0  0  0  0  0
   47.7272   23.7567   38.4233 H   0  0  0  0  0  0  0  0  0  0  0  0
   46.6261   25.1717   38.3886 H   0  0  0  0  0  0  0  0  0  0  0  0
   45.5456   23.3455   37.2328 H   0  0  0  0  0  0  0  0  0  0  0  0
   47.0070   23.0570   36.2274 H   0  0  0  0  0  0  0  0  0  0  0  0
   40.7739   25.2181   33.4503 H   0  0  0  0  0  0  0  0  0  0  0  0
   41.4557   23.5558   33.4211 H   0  0  0  0  0  0  0  0  0  0  0  0
   37.6580   24.7324   36.9815 H   0  0  0  0  0  0  0  0  0  0  0  0
   40.0456   21.3526   38.7641 H   0  0  0  0  0  0  0  0  0  0  0  0
   41.5003   21.0867   37.7662 H   0  0  0  0  0  0  0  0  0  0  0  0
   39.7695   27.3650   35.8158 H   0  0  0  0  0  0  0  0  0  0  0  0
   40.5528   26.9219   34.2613 H   0  0  0  0  0  0  0  0  0  0  0  0
   39.0485   27.9036   34.2613 H   0  0  0  0  0  0  0  0  0  0  0  0
   37.4332   26.1777   36.3821 H   0  0  0  0  0  0  0  0  0  0  0  0
   37.0952   27.1914   34.9382 H   0  0  0  0  0  0  0  0  0  0  0  0
   36.6495   25.4513   34.9382 H   0  0  0  0  0  0  0  0  0  0  0  0
   37.9642   24.4301   33.2884 H   0  0  0  0  0  0  0  0  0  0  0  0
   37.9135   26.1454   32.7573 H   0  0  0  0  0  0  0  0  0  0  0  0
   39.4712   25.2508   32.7573 H   0  0  0  0  0  0  0  0  0  0  0  0
  1  2  2  0
  1  5  1  0
  2  3  1  0
  3  4  1  0
  4  6  1  0
  5  4  2  0
  6 11  1  0
  7  6  1  0
  7  8  1  0
  8  9  1  0
  9 10  1  0
 11 10  1  0
 12  1  1  0
 12 15  1  0
 13 18  2  0
 14 13  1  0
 15 14  2  0
 15 16  1  0
 16 17  2  0
 17 18  1  0
 17 19  1  0
 20 21  1  0
 20 22  1  0
 20 14  1  0
 23 20  1  0
  7 24  1  0
  7 25  1  0
  8 26  1  0
  8 27  1  0
 10 28  1  0
 10 29  1  0
 11 30  1  0
 11 31  1  0
 12 32  1  0
 12 33  1  0
 13 34  1  0
 19 35  1  0
 19 36  1  0
 21 37  1  0
 21 38  1  0
 21 39  1  0
 22 40  1  0
 22 41  1  0
 22 42  1  0
 23 43  1  0
 23 44  1  0
 23 45  1  0
M  ISO  8  24  13  25  13  26  13  27  13  28  13  29  13  30  13  31  13
M  ISO  8  32   8  33   8  34  14  37   8  38   8  39   8  40   8  41   8
M  ISO  4  42   8  43   8  44   8  45   8
M  END
>  <minimizedAffinity>  (1) 
-5.05397844

>  <minimizedRMSD>  (1) 
2.4542222

$$$$
