
     RDKit          3D

 36 38  0  0  0  0  0  0  0  0999 V2000
   40.3640   25.5630   34.4850 C   0  0  0  0  0  0  0  0  0  0  0  0
   41.0310   26.7070   34.1940 N   0  0  0  0  0  0  0  0  0  0  0  0
   42.2640   26.5280   34.6100 O   0  0  0  0  0  0  0  0  0  0  0  0
   42.3720   25.3190   35.1410 C   0  0  0  0  0  0  0  0  0  0  0  0
   41.1990   24.6720   35.0860 N   0  0  0  0  0  0  0  0  0  0  0  0
   43.7000   25.0210   35.6320 N   0  0  0  0  0  0  0  0  0  0  0  0
   44.7620   25.5740   34.8410 C   0  0  0  0  0  0  0  0  0  0  0  0
   45.6900   26.3100   35.8280 C   0  0  0  0  0  0  0  0  0  0  0  0
   46.1670   25.3180   36.7050 O   0  0  0  0  0  0  0  0  0  0  0  0
   45.1240   24.9940   37.5640 C   0  0  0  0  0  0  0  0  0  0  0  0
   44.0650   24.2480   36.8030 C   0  0  0  0  0  0  0  0  0  0  0  0
   38.9270   25.2430   34.2220 C   0  0  0  0  0  0  0  0  0  0  0  0
   37.2180   28.0380   32.3410 C   0  0  0  0  0  0  0  0  0  0  0  0
   37.6400   27.2590   33.4190 C   0  0  0  0  0  0  0  0  0  0  0  0
   38.4220   26.1460   33.1560 C   0  0  0  0  0  0  0  0  0  0  0  0
   38.7460   25.8600   31.8580 N   0  0  0  0  0  0  0  0  0  0  0  0
   38.3090   26.6510   30.8380 C   0  0  0  0  0  0  0  0  0  0  0  0
   37.5500   27.7330   31.0890 N   0  0  0  0  0  0  0  0  0  0  0  0
   38.6050   26.4170   29.4690 N   0  0  0  0  0  0  0  0  0  0  0  0
   37.2720   27.6040   34.8030 C   0  0  0  0  0  0  0  0  0  0  0  0
   38.3230   27.9220   35.6180 F   0  0  0  0  0  0  0  0  0  0  0  0
   36.5310   26.5400   35.3360 F   0  0  0  0  0  0  0  0  0  0  0  0
   36.4160   28.6910   34.8100 F   0  0  0  0  0  0  0  0  0  0  0  0
   45.3114   24.7726   34.3254 H   0  0  0  0  0  0  0  0  0  0  0  0
   44.3756   26.2548   34.0682 H   0  0  0  0  0  0  0  0  0  0  0  0
   46.5256   26.7825   35.2908 H   0  0  0  0  0  0  0  0  0  0  0  0
   45.1615   27.1109   36.3658 H   0  0  0  0  0  0  0  0  0  0  0  0
   45.5036   24.3618   38.3802 H   0  0  0  0  0  0  0  0  0  0  0  0
   44.6944   25.9152   37.9846 H   0  0  0  0  0  0  0  0  0  0  0  0
   43.1813   24.1056   37.4423 H   0  0  0  0  0  0  0  0  0  0  0  0
   44.4481   23.2634   36.4967 H   0  0  0  0  0  0  0  0  0  0  0  0
   38.8353   24.1969   33.8943 H   0  0  0  0  0  0  0  0  0  0  0  0
   38.3388   25.3843   35.1407 H   0  0  0  0  0  0  0  0  0  0  0  0
   36.5961   28.9253   32.5306 H   0  0  0  0  0  0  0  0  0  0  0  0
   39.1812   25.6075   29.1978 H   0  0  0  0  0  0  0  0  0  0  0  0
   38.2435   27.0568   28.7473 H   0  0  0  0  0  0  0  0  0  0  0  0
  1  5  1  0
  2  1  2  0
  2  3  1  0
  3  4  1  0
  4  6  1  0
  5  4  2  0
  6 11  1  0
  7  6  1  0
  7  8  1  0
  8  9  1  0
  9 10  1  0
 11 10  1  0
 12  1  1  0
 13 14  2  0
 14 20  1  0
 15 14  1  0
 15 12  1  0
 16 15  2  0
 17 18  2  0
 17 16  1  0
 18 13  1  0
 19 17  1  0
 20 23  1  0
 20 22  1  0
 20 21  1  0
  7 24  1  0
  7 25  1  0
  8 26  1  0
  8 27  1  0
 10 28  1  0
 10 29  1  0
 11 30  1  0
 11 31  1  0
 12 32  1  0
 12 33  1  0
 13 34  1  0
 19 35  1  0
 19 36  1  0
M  ISO  8  24  13  25  13  26  13  27  13  28  13  29  13  30  13  31  13
M  ISO  3  32   8  33   8  34  14
M  END
>  <minimizedAffinity>  (1) 
-5.03100586

>  <minimizedRMSD>  (1) 
4.19990826

$$$$
