
     RDKit          3D

 32 34  0  0  0  0  0  0  0  0999 V2000
   38.8560   26.5040   35.0720 C   0  0  0  0  0  0  0  0  0  0  0  0
   38.0330   27.2340   34.0810 C   0  0  0  0  0  0  0  0  0  0  0  0
   36.8430   27.8040   34.4760 C   0  0  0  0  0  0  0  0  0  0  0  0
   35.9940   28.5130   33.6230 C   0  0  0  0  0  0  0  0  0  0  0  0
   36.3990   28.6300   32.3220 N   0  0  0  0  0  0  0  0  0  0  0  0
   37.5650   28.0760   31.9180 C   0  0  0  0  0  0  0  0  0  0  0  0
   38.3540   27.3950   32.7960 N   0  0  0  0  0  0  0  0  0  0  0  0
   37.9510   28.2300   30.5180 C   0  0  0  0  0  0  0  0  0  0  0  0
   37.3260   29.1550   29.7090 C   0  0  0  0  0  0  0  0  0  0  0  0
   37.7760   29.2110   28.4000 C   0  0  0  0  0  0  0  0  0  0  0  0
   38.7630   28.4020   27.9690 N   0  0  0  0  0  0  0  0  0  0  0  0
   39.3570   27.5090   28.7740 C   0  0  0  0  0  0  0  0  0  0  0  0
   38.9350   27.4300   30.0690 N   0  0  0  0  0  0  0  0  0  0  0  0
   38.7860   25.0050   34.9070 C   0  0  0  0  0  0  0  0  0  0  0  0
   39.7400   22.8050   37.7720 C   0  0  0  0  0  0  0  0  0  0  0  0
   38.8570   23.2380   38.7680 C   0  0  0  0  0  0  0  0  0  0  0  0
   37.9610   24.2660   38.4430 C   0  0  0  0  0  0  0  0  0  0  0  0
   37.9760   24.8000   37.1930 N   0  0  0  0  0  0  0  0  0  0  0  0
   38.8560   24.3450   36.2520 C   0  0  0  0  0  0  0  0  0  0  0  0
   39.7170   23.3690   36.5390 N   0  0  0  0  0  0  0  0  0  0  0  0
   39.9034   26.8206   34.9591 H   0  0  0  0  0  0  0  0  0  0  0  0
   38.4598   26.7441   36.0697 H   0  0  0  0  0  0  0  0  0  0  0  0
   36.5426   27.6941   35.5285 H   0  0  0  0  0  0  0  0  0  0  0  0
   35.0507   28.9534   33.9784 H   0  0  0  0  0  0  0  0  0  0  0  0
   36.5212   29.8071   30.0793 H   0  0  0  0  0  0  0  0  0  0  0  0
   37.3199   29.9277   27.7012 H   0  0  0  0  0  0  0  0  0  0  0  0
   40.1618   26.8586   28.4008 H   0  0  0  0  0  0  0  0  0  0  0  0
   37.8395   24.7349   34.4159 H   0  0  0  0  0  0  0  0  0  0  0  0
   39.6316   24.6663   34.2904 H   0  0  0  0  0  0  0  0  0  0  0  0
   40.4581   22.0011   37.9911 H   0  0  0  0  0  0  0  0  0  0  0  0
   38.8658   22.7871   39.7713 H   0  0  0  0  0  0  0  0  0  0  0  0
   37.2499   24.6384   39.1951 H   0  0  0  0  0  0  0  0  0  0  0  0
  2  3  2  0
  2  1  1  0
  4  3  1  0
  5  4  2  0
  6  5  1  0
  6  7  2  0
  7  2  1  0
  8  6  1  0
  9  8  2  0
 10  9  1  0
 11 10  2  0
 11 12  1  0
 12 13  2  0
 13  8  1  0
 14  1  1  0
 14 19  1  0
 15 16  2  0
 17 16  1  0
 18 17  2  0
 19 20  2  0
 19 18  1  0
 20 15  1  0
  1 21  1  0
  1 22  1  0
  3 23  1  0
  4 24  1  0
  9 25  1  0
 10 26  1  0
 12 27  1  0
 14 28  1  0
 14 29  1  0
 15 30  1  0
 16 31  1  0
 17 32  1  0
M  ISO  8  21   8  22   8  23  14  24  14  25  14  26  14  27  14  28   8
M  ISO  4  29   8  30  14  31  14  32  14
M  END
>  <minimizedAffinity>  (1) 
-4.83575678

>  <minimizedRMSD>  (1) 
0.813193202

$$$$
