
     RDKit          3D

 34 36  0  0  0  0  0  0  0  0999 V2000
   40.7460   25.5250   34.2030 C   0  0  0  0  0  0  0  0  0  0  0  0
   40.8700   26.8810   34.1300 N   0  0  0  0  0  0  0  0  0  0  0  0
   42.1580   27.1280   34.1680 O   0  0  0  0  0  0  0  0  0  0  0  0
   42.8210   25.9960   34.2590 C   0  0  0  0  0  0  0  0  0  0  0  0
   41.9770   24.9490   34.2850 N   0  0  0  0  0  0  0  0  0  0  0  0
   44.2590   26.1640   34.3090 N   0  0  0  0  0  0  0  0  0  0  0  0
   44.7490   27.2500   33.4840 C   0  0  0  0  0  0  0  0  0  0  0  0
   45.6700   28.0770   34.4020 C   0  0  0  0  0  0  0  0  0  0  0  0
   46.7090   27.2160   34.7710 O   0  0  0  0  0  0  0  0  0  0  0  0
   46.1890   26.3290   35.7260 C   0  0  0  0  0  0  0  0  0  0  0  0
   45.2290   25.4020   35.0540 C   0  0  0  0  0  0  0  0  0  0  0  0
   39.5100   24.6950   34.2000 C   0  0  0  0  0  0  0  0  0  0  0  0
   38.0750   24.3040   37.6790 C   0  0  0  0  0  0  0  0  0  0  0  0
   38.2340   24.8200   36.3830 C   0  0  0  0  0  0  0  0  0  0  0  0
   39.2400   24.2370   35.5960 C   0  0  0  0  0  0  0  0  0  0  0  0
   40.0110   23.2150   36.1010 N   0  0  0  0  0  0  0  0  0  0  0  0
   39.7920   22.7730   37.3690 C   0  0  0  0  0  0  0  0  0  0  0  0
   38.8300   23.3170   38.1500 N   0  0  0  0  0  0  0  0  0  0  0  0
   40.5380   21.7250   37.9700 N   0  0  0  0  0  0  0  0  0  0  0  0
   37.4700   25.8490   35.8530 O   0  0  0  0  0  0  0  0  0  0  0  0
   45.3134   26.8569   32.6256 H   0  0  0  0  0  0  0  0  0  0  0  0
   43.9273   27.8563   33.0750 H   0  0  0  0  0  0  0  0  0  0  0  0
   46.0678   28.9485   33.8615 H   0  0  0  0  0  0  0  0  0  0  0  0
   45.1296   28.4607   35.2799 H   0  0  0  0  0  0  0  0  0  0  0  0
   47.0083   25.7493   36.1761 H   0  0  0  0  0  0  0  0  0  0  0  0
   45.6712   26.8933   36.5156 H   0  0  0  0  0  0  0  0  0  0  0  0
   44.7131   24.7963   35.8136 H   0  0  0  0  0  0  0  0  0  0  0  0
   45.7796   24.7424   34.3672 H   0  0  0  0  0  0  0  0  0  0  0  0
   38.6622   25.2940   33.8360 H   0  0  0  0  0  0  0  0  0  0  0  0
   39.6424   23.8262   33.5385 H   0  0  0  0  0  0  0  0  0  0  0  0
   37.2971   24.7323   38.3282 H   0  0  0  0  0  0  0  0  0  0  0  0
   40.3283   21.4312   38.9347 H   0  0  0  0  0  0  0  0  0  0  0  0
   41.2888   21.2585   37.4413 H   0  0  0  0  0  0  0  0  0  0  0  0
   37.6366   26.1641   34.9294 H   0  0  0  0  0  0  0  0  0  0  0  0
  1  5  1  0
  2  3  1  0
  2  1  2  0
  3  4  1  0
  4  5  2  0
  4  6  1  0
  6 11  1  0
  7  6  1  0
  7  8  1  0
  8  9  1  0
  9 10  1  0
 11 10  1  0
 12  1  1  0
 12 15  1  0
 13 18  2  0
 14 13  1  0
 15 16  1  0
 15 14  2  0
 16 17  2  0
 17 19  1  0
 17 18  1  0
 20 14  1  0
  7 21  1  0
  7 22  1  0
  8 23  1  0
  8 24  1  0
 10 25  1  0
 10 26  1  0
 11 27  1  0
 11 28  1  0
 12 29  1  0
 12 30  1  0
 13 31  1  0
 19 32  1  0
 19 33  1  0
 20 34  1  0
M  ISO  8  21  13  22  13  23  13  24  13  25  13  26  13  27  13  28  13
M  ISO  4  29   8  30   8  31  14  34   3
M  END
>  <minimizedAffinity>  (1) 
-4.8911171

>  <minimizedRMSD>  (1) 
0.495178938

$$$$
