
     RDKit          3D

 12 12  0  0  0  0  0  0  0  0999 V2000
   38.1850   22.5050   36.0600 C   0  0  0  0  0  0  0  0  0  0  0  0
   39.5560   22.2840   36.3350 C   0  0  0  0  0  0  0  0  0  0  0  0
   40.0340   22.6840   37.5910 C   0  0  0  0  0  0  0  0  0  0  0  0
   39.1590   23.2570   38.4630 N   0  0  0  0  0  0  0  0  0  0  0  0
   37.8620   23.4470   38.1560 C   0  0  0  0  0  0  0  0  0  0  0  0
   37.3760   23.0740   36.9630 N   0  0  0  0  0  0  0  0  0  0  0  0
   37.7070   22.0950   34.7790 N   0  0  0  0  0  0  0  0  0  0  0  0
   40.2200   21.8170   35.5927 H   0  0  0  0  0  0  0  0  0  0  0  0
   41.0893   22.5386   37.8651 H   0  0  0  0  0  0  0  0  0  0  0  0
   37.1924   23.9142   38.8931 H   0  0  0  0  0  0  0  0  0  0  0  0
   36.7172   22.2338   34.5300 H   0  0  0  0  0  0  0  0  0  0  0  0
   38.3519   21.6603   34.1036 H   0  0  0  0  0  0  0  0  0  0  0  0
  1  2  2  0
  1  6  1  0
  2  3  1  0
  3  4  2  0
  5  4  1  0
  6  5  2  0
  7  1  1  0
  2  8  1  0
  3  9  1  0
  5 10  1  0
  7 11  1  0
  7 12  1  0
M  ISO  3   8  14   9  14  10  14
M  END
>  <minimizedAffinity>  (1) 
-2.65491819

>  <minimizedRMSD>  (1) 
3.00144243

$$$$
