
     RDKit          3D

 23 24  0  0  0  0  0  0  0  0999 V2000
   39.6320   22.8790   37.5800 C   0  0  0  0  0  0  0  0  0  0  0  0
   38.8200   23.2860   38.6590 C   0  0  0  0  0  0  0  0  0  0  0  0
   37.9290   24.3410   38.4460 C   0  0  0  0  0  0  0  0  0  0  0  0
   37.8880   24.9200   37.2240 N   0  0  0  0  0  0  0  0  0  0  0  0
   38.6770   24.5080   36.2120 C   0  0  0  0  0  0  0  0  0  0  0  0
   39.5420   23.4970   36.3850 N   0  0  0  0  0  0  0  0  0  0  0  0
   38.6790   25.0770   34.9070 N   0  0  0  0  0  0  0  0  0  0  0  0
   38.3470   24.2800   33.8540 C   0  0  0  0  0  0  0  0  0  0  0  0
   38.3280   24.7720   32.5480 C   0  0  0  0  0  0  0  0  0  0  0  0
   38.6640   26.1040   32.3920 C   0  0  0  0  0  0  0  0  0  0  0  0
   38.6480   26.6140   31.0600 N   0  0  0  0  0  0  0  0  0  0  0  0
   38.9890   26.8760   33.4450 N   0  0  0  0  0  0  0  0  0  0  0  0
   39.0030   26.3850   34.7010 C   0  0  0  0  0  0  0  0  0  0  0  0
   39.3010   27.0740   35.7170 O   0  0  0  0  0  0  0  0  0  0  0  0
   40.5410   21.8070   37.7860 N   0  0  0  0  0  0  0  0  0  0  0  0
   38.8861   22.7883   39.6378 H   0  0  0  0  0  0  0  0  0  0  0  0
   37.2737   24.6939   39.2560 H   0  0  0  0  0  0  0  0  0  0  0  0
   38.0884   23.2265   34.0365 H   0  0  0  0  0  0  0  0  0  0  0  0
   38.0608   24.1359   31.6913 H   0  0  0  0  0  0  0  0  0  0  0  0
   38.8896   27.5995   30.8829 H   0  0  0  0  0  0  0  0  0  0  0  0
   38.3949   25.9968   30.2752 H   0  0  0  0  0  0  0  0  0  0  0  0
   41.1459   21.4894   37.0152 H   0  0  0  0  0  0  0  0  0  0  0  0
   40.5952   21.3473   38.7061 H   0  0  0  0  0  0  0  0  0  0  0  0
  1 15  1  0
  1  2  2  0
  3  2  1  0
  4  3  2  0
  5  6  2  0
  5  4  1  0
  6  1  1  0
  7  5  1  0
  8  7  1  0
  9  8  2  0
 10  9  1  0
 10 12  2  0
 11 10  1  0
 12 13  1  0
 13  7  1  0
 13 14  2  0
  2 16  1  0
  3 17  1  0
  8 18  1  0
  9 19  1  0
 11 20  1  0
 11 21  1  0
 15 22  1  0
 15 23  1  0
M  ISO  4  16  14  17  14  18  14  19  14
M  END
>  <minimizedAffinity>  (1) 
-4.99349499

>  <minimizedRMSD>  (1) 
5.76502943

$$$$
