
     RDKit          3D

 21 22  0  0  0  0  0  0  0  0999 V2000
   39.4700   22.4580   36.2630 C   0  0  0  0  0  0  0  0  0  0  0  0
   39.7360   23.8470   36.1710 C   0  0  0  0  0  0  0  0  0  0  0  0
   39.0350   24.5850   35.2040 C   0  0  0  0  0  0  0  0  0  0  0  0
   38.1440   23.9130   34.4150 N   0  0  0  0  0  0  0  0  0  0  0  0
   37.9240   22.5990   34.5350 C   0  0  0  0  0  0  0  0  0  0  0  0
   38.5840   21.8750   35.4560 N   0  0  0  0  0  0  0  0  0  0  0  0
   36.9450   21.9640   33.6410 C   0  0  0  0  0  0  0  0  0  0  0  0
   36.2340   20.8750   34.1000 C   0  0  0  0  0  0  0  0  0  0  0  0
   35.3260   20.3060   33.2350 C   0  0  0  0  0  0  0  0  0  0  0  0
   35.1850   20.8620   31.9640 C   0  0  0  0  0  0  0  0  0  0  0  0
   35.9010   21.9520   31.5140 C   0  0  0  0  0  0  0  0  0  0  0  0
   36.7880   22.4810   32.4070 N   0  0  0  0  0  0  0  0  0  0  0  0
   40.1890   21.7330   37.2480 N   0  0  0  0  0  0  0  0  0  0  0  0
   40.4674   24.3308   36.8351 H   0  0  0  0  0  0  0  0  0  0  0  0
   39.1972   25.6665   35.0855 H   0  0  0  0  0  0  0  0  0  0  0  0
   36.3858   20.4776   35.1144 H   0  0  0  0  0  0  0  0  0  0  0  0
   34.7271   19.4349   33.5390 H   0  0  0  0  0  0  0  0  0  0  0  0
   34.4580   20.4032   31.2778 H   0  0  0  0  0  0  0  0  0  0  0  0
   35.7664   22.3668   30.5041 H   0  0  0  0  0  0  0  0  0  0  0  0
   40.0341   20.7206   37.3577 H   0  0  0  0  0  0  0  0  0  0  0  0
   40.8659   22.2190   37.8534 H   0  0  0  0  0  0  0  0  0  0  0  0
  1 13  1  0
  2  1  2  0
  3  2  1  0
  4  5  1  0
  4  3  2  0
  5  6  2  0
  6  1  1  0
  7  8  2  0
  7  5  1  0
  9  8  1  0
 10  9  2  0
 11 10  1  0
 11 12  2  0
 12  7  1  0
  2 14  1  0
  3 15  1  0
  8 16  1  0
  9 17  1  0
 10 18  1  0
 11 19  1  0
 13 20  1  0
 13 21  1  0
M  ISO  6  14  14  15  14  16  14  17  14  18  14  19  14
M  END
>  <minimizedAffinity>  (1) 
-3.92435741

>  <minimizedRMSD>  (1) 
5.95304537

$$$$
