
     RDKit          3D

 19 20  0  0  0  0  0  0  0  0999 V2000
   42.5500   20.6710   37.1490 C   0  0  0  0  0  0  0  0  0  0  0  0
   43.5660   21.3540   36.4210 C   0  0  0  0  0  0  0  0  0  0  0  0
   43.2620   22.6440   35.9470 C   0  0  0  0  0  0  0  0  0  0  0  0
   42.0300   23.1530   36.2080 N   0  0  0  0  0  0  0  0  0  0  0  0
   41.1110   22.4620   36.9000 C   0  0  0  0  0  0  0  0  0  0  0  0
   41.3600   21.2390   37.3660 N   0  0  0  0  0  0  0  0  0  0  0  0
   39.8250   23.0840   37.1300 C   0  0  0  0  0  0  0  0  0  0  0  0
   39.1510   23.2120   38.3870 C   0  0  0  0  0  0  0  0  0  0  0  0
   37.9350   23.8470   38.3400 C   0  0  0  0  0  0  0  0  0  0  0  0
   37.4510   24.3020   37.1580 C   0  0  0  0  0  0  0  0  0  0  0  0
   38.7740   23.8340   35.9360 S   0  0  0  0  0  0  0  0  0  0  0  0
   42.8730   19.3720   37.6210 N   0  0  0  0  0  0  0  0  0  0  0  0
   44.5474   20.8925   36.2369 H   0  0  0  0  0  0  0  0  0  0  0  0
   44.0035   23.2254   35.3794 H   0  0  0  0  0  0  0  0  0  0  0  0
   39.5781   22.8281   39.3252 H   0  0  0  0  0  0  0  0  0  0  0  0
   37.3524   23.9869   39.2625 H   0  0  0  0  0  0  0  0  0  0  0  0
   36.5017   24.8238   36.9668 H   0  0  0  0  0  0  0  0  0  0  0  0
   43.8028   18.9716   37.4313 H   0  0  0  0  0  0  0  0  0  0  0  0
   42.1776   18.8298   38.1532 H   0  0  0  0  0  0  0  0  0  0  0  0
  1  6  2  0
  1 12  1  0
  2  1  1  0
  3  4  1  0
  3  2  2  0
  4  5  2  0
  5  7  1  0
  5  6  1  0
  7  8  2  0
  9  8  1  0
 10  9  2  0
 11  7  1  0
 11 10  1  0
  2 13  1  0
  3 14  1  0
  8 15  1  0
  9 16  1  0
 10 17  1  0
 12 18  1  0
 12 19  1  0
M  ISO  5  13  14  14  14  15  14  16  14  17  14
M  END
>  <minimizedAffinity>  (1) 
-3.90777206

>  <minimizedRMSD>  (1) 
4.33050203

$$$$
