
     RDKit          3D

 19 20  0  0  0  0  0  0  0  0999 V2000
   40.2390   23.0270   36.5740 C   0  0  0  0  0  0  0  0  0  0  0  0
   39.7820   22.6520   37.8560 C   0  0  0  0  0  0  0  0  0  0  0  0
   38.7060   23.3640   38.3820 C   0  0  0  0  0  0  0  0  0  0  0  0
   38.1580   24.3730   37.6420 N   0  0  0  0  0  0  0  0  0  0  0  0
   38.6220   24.6970   36.4250 C   0  0  0  0  0  0  0  0  0  0  0  0
   39.6530   24.0320   35.8930 N   0  0  0  0  0  0  0  0  0  0  0  0
   38.0390   25.7740   35.6310 C   0  0  0  0  0  0  0  0  0  0  0  0
   38.2740   27.0790   36.0660 C   0  0  0  0  0  0  0  0  0  0  0  0
   37.6270   27.9290   35.1630 C   0  0  0  0  0  0  0  0  0  0  0  0
   37.0400   27.0740   34.2350 C   0  0  0  0  0  0  0  0  0  0  0  0
   37.2970   25.8220   34.5330 O   0  0  0  0  0  0  0  0  0  0  0  0
   41.3340   22.3090   36.0240 N   0  0  0  0  0  0  0  0  0  0  0  0
   40.2555   21.8322   38.4161 H   0  0  0  0  0  0  0  0  0  0  0  0
   38.3047   23.1178   39.3761 H   0  0  0  0  0  0  0  0  0  0  0  0
   38.8561   27.3811   36.9491 H   0  0  0  0  0  0  0  0  0  0  0  0
   37.5903   29.0282   35.1821 H   0  0  0  0  0  0  0  0  0  0  0  0
   36.4432   27.4022   33.3712 H   0  0  0  0  0  0  0  0  0  0  0  0
   41.6944   22.5547   35.0909 H   0  0  0  0  0  0  0  0  0  0  0  0
   41.7677   21.5425   36.5582 H   0  0  0  0  0  0  0  0  0  0  0  0
  1  2  2  0
  2  3  1  0
  4  3  2  0
  5  4  1  0
  6  5  2  0
  6  1  1  0
  7  8  2  0
  7  5  1  0
  9  8  1  0
 10 11  1  0
 10  9  2  0
 11  7  1  0
 12  1  1  0
  2 13  1  0
  3 14  1  0
  8 15  1  0
  9 16  1  0
 10 17  1  0
 12 18  1  0
 12 19  1  0
M  ISO  5  13  14  14  14  15  14  16  14  17  14
M  END
>  <minimizedAffinity>  (1) 
-3.89224696

>  <minimizedRMSD>  (1) 
3.94464588

$$$$
