
     RDKit          3D

 24 24  0  0  0  0  0  0  0  0999 V2000
   38.5920   23.4420   37.3860 C   0  0  0  0  0  0  0  0  0  0  0  0
   39.7270   22.6610   37.0460 C   0  0  0  0  0  0  0  0  0  0  0  0
   40.5620   23.1370   36.0130 C   0  0  0  0  0  0  0  0  0  0  0  0
   40.2280   24.3090   35.4100 N   0  0  0  0  0  0  0  0  0  0  0  0
   39.1400   25.0130   35.7680 C   0  0  0  0  0  0  0  0  0  0  0  0
   38.3350   24.5840   36.7430 N   0  0  0  0  0  0  0  0  0  0  0  0
   38.7730   26.2940   35.1110 C   0  0  0  0  0  0  0  0  0  0  0  0
   39.9870   26.8720   34.4000 C   0  0  0  0  0  0  0  0  0  0  0  0
   37.6950   26.0910   34.0850 C   0  0  0  0  0  0  0  0  0  0  0  0
   38.3140   27.3140   36.1080 C   0  0  0  0  0  0  0  0  0  0  0  0
   37.7610   22.9520   38.4270 N   0  0  0  0  0  0  0  0  0  0  0  0
   39.9478   21.7187   37.5688 H   0  0  0  0  0  0  0  0  0  0  0  0
   41.4568   22.5764   35.7046 H   0  0  0  0  0  0  0  0  0  0  0  0
   40.7174   27.2197   35.1454 H   0  0  0  0  0  0  0  0  0  0  0  0
   40.4469   26.0962   33.7702 H   0  0  0  0  0  0  0  0  0  0  0  0
   39.6747   27.7181   33.7702 H   0  0  0  0  0  0  0  0  0  0  0  0
   36.7356   25.9103   34.5920 H   0  0  0  0  0  0  0  0  0  0  0  0
   37.6137   26.9896   33.4558 H   0  0  0  0  0  0  0  0  0  0  0  0
   37.9461   25.2244   33.4558 H   0  0  0  0  0  0  0  0  0  0  0  0
   38.4849   26.9343   37.1262 H   0  0  0  0  0  0  0  0  0  0  0  0
   38.8791   28.2468   35.9649 H   0  0  0  0  0  0  0  0  0  0  0  0
   37.2410   27.5097   35.9649 H   0  0  0  0  0  0  0  0  0  0  0  0
   36.9249   23.4821   38.7112 H   0  0  0  0  0  0  0  0  0  0  0  0
   37.9941   22.0663   38.8983 H   0  0  0  0  0  0  0  0  0  0  0  0
  1 11  1  0
  2  1  2  0
  3  2  1  0
  4  5  1  0
  4  3  2  0
  5  6  2  0
  6  1  1  0
  7  5  1  0
  7 10  1  0
  8  7  1  0
  9  7  1  0
  2 12  1  0
  3 13  1  0
  8 14  1  0
  8 15  1  0
  8 16  1  0
  9 17  1  0
  9 18  1  0
  9 19  1  0
 10 20  1  0
 10 21  1  0
 10 22  1  0
 11 23  1  0
 11 24  1  0
M  ISO  8  12  14  13  14  14   8  15   8  16   8  17   8  18   8  19   8
M  ISO  3  20   8  21   8  22   8
M  END
>  <minimizedAffinity>  (1) 
-3.88021994

>  <minimizedRMSD>  (1) 
3.93717456

$$$$
