
     RDKit          3D

 15 15  0  0  0  0  0  0  0  0999 V2000
   39.6400   22.7970   37.5560 C   0  0  0  0  0  0  0  0  0  0  0  0
   38.8840   23.2990   38.6300 C   0  0  0  0  0  0  0  0  0  0  0  0
   37.9500   24.2960   38.3490 C   0  0  0  0  0  0  0  0  0  0  0  0
   37.8300   24.7200   37.0560 N   0  0  0  0  0  0  0  0  0  0  0  0
   38.5820   24.2050   36.0570 C   0  0  0  0  0  0  0  0  0  0  0  0
   39.4780   23.2510   36.3150 N   0  0  0  0  0  0  0  0  0  0  0  0
   40.5950   21.7710   37.8670 N   0  0  0  0  0  0  0  0  0  0  0  0
   38.4220   24.6880   34.6840 C   0  0  0  0  0  0  0  0  0  0  0  0
   37.5770   25.6070   34.4220 O   0  0  0  0  0  0  0  0  0  0  0  0
   39.1370   24.2080   33.6200 O   0  0  0  0  0  0  0  0  0  0  0  0
   39.0239   22.9198   39.6531 H   0  0  0  0  0  0  0  0  0  0  0  0
   37.3276   24.7287   39.1461 H   0  0  0  0  0  0  0  0  0  0  0  0
   41.1771   21.3657   37.1201 H   0  0  0  0  0  0  0  0  0  0  0  0
   40.6980   21.4403   38.8370 H   0  0  0  0  0  0  0  0  0  0  0  0
   38.9832   24.5759   32.7139 H   0  0  0  0  0  0  0  0  0  0  0  0
  1  7  1  0
  1  2  2  0
  3  2  1  0
  4  3  2  0
  5  6  2  0
  5  4  1  0
  6  1  1  0
  8  5  1  0
  9  8  2  0
 10  8  1  0
  2 11  1  0
  3 12  1  0
  7 13  1  0
  7 14  1  0
 10 15  1  0
M  ISO  3  11  14  12  14  15   3
M  END
>  <minimizedAffinity>  (1) 
-3.72220397

>  <minimizedRMSD>  (1) 
3.85901237

$$$$
