
     RDKit          3D

 21 21  0  0  0  0  0  0  0  0999 V2000
   38.6810   23.4010   37.3990 C   0  0  0  0  0  0  0  0  0  0  0  0
   39.8100   22.5990   37.1430 C   0  0  0  0  0  0  0  0  0  0  0  0
   40.6880   23.0330   36.1390 C   0  0  0  0  0  0  0  0  0  0  0  0
   40.4040   24.1830   35.4810 N   0  0  0  0  0  0  0  0  0  0  0  0
   39.3110   24.9140   35.7640 C   0  0  0  0  0  0  0  0  0  0  0  0
   38.4500   24.5300   36.7160 N   0  0  0  0  0  0  0  0  0  0  0  0
   37.8000   22.9520   38.4170 N   0  0  0  0  0  0  0  0  0  0  0  0
   38.9810   26.1810   35.0530 C   0  0  0  0  0  0  0  0  0  0  0  0
   40.1850   26.8410   34.4510 C   0  0  0  0  0  0  0  0  0  0  0  0
   38.2740   27.1520   36.0090 C   0  0  0  0  0  0  0  0  0  0  0  0
   39.9952   21.6724   37.7061 H   0  0  0  0  0  0  0  0  0  0  0  0
   41.5884   22.4519   35.8909 H   0  0  0  0  0  0  0  0  0  0  0  0
   36.9579   23.4986   38.6473 H   0  0  0  0  0  0  0  0  0  0  0  0
   38.0027   22.0796   38.9256 H   0  0  0  0  0  0  0  0  0  0  0  0
   38.3102   25.9166   34.2223 H   0  0  0  0  0  0  0  0  0  0  0  0
   40.8446   27.2026   35.2536 H   0  0  0  0  0  0  0  0  0  0  0  0
   40.7286   26.1148   33.8289 H   0  0  0  0  0  0  0  0  0  0  0  0
   39.8652   27.6899   33.8289 H   0  0  0  0  0  0  0  0  0  0  0  0
   38.4853   26.8618   37.0488 H   0  0  0  0  0  0  0  0  0  0  0  0
   38.6411   28.1736   35.8316 H   0  0  0  0  0  0  0  0  0  0  0  0
   37.1890   27.1163   35.8316 H   0  0  0  0  0  0  0  0  0  0  0  0
  1  7  1  0
  2  1  2  0
  3  2  1  0
  4  5  1  0
  4  3  2  0
  5  6  2  0
  6  1  1  0
  8  5  1  0
  8 10  1  0
  9  8  1  0
  2 11  1  0
  3 12  1  0
  7 13  1  0
  7 14  1  0
  8 15  1  0
  9 16  1  0
  9 17  1  0
  9 18  1  0
 10 19  1  0
 10 20  1  0
 10 21  1  0
M  ISO  8  11  14  12  14  15   8  16   8  17   8  18   8  19   8  20   8
M  ISO  1  21   8
M  END
>  <minimizedAffinity>  (1) 
-3.6089828

>  <minimizedRMSD>  (1) 
3.85247588

$$$$
