
     RDKit          3D

 24 25  0  0  0  0  0  0  0  0999 V2000
   41.8740   21.2940   35.0320 C   0  0  0  0  0  0  0  0  0  0  0  0
   42.6690   20.6380   36.0130 C   0  0  0  0  0  0  0  0  0  0  0  0
   42.3570   20.8770   37.3600 C   0  0  0  0  0  0  0  0  0  0  0  0
   41.3250   21.7110   37.6420 N   0  0  0  0  0  0  0  0  0  0  0  0
   40.6040   22.3070   36.6800 C   0  0  0  0  0  0  0  0  0  0  0  0
   40.8640   22.1100   35.3860 N   0  0  0  0  0  0  0  0  0  0  0  0
   39.5350   23.1720   37.0520 N   0  0  0  0  0  0  0  0  0  0  0  0
   39.0840   24.3270   36.2610 C   0  0  0  0  0  0  0  0  0  0  0  0
   37.6600   24.5520   36.7810 C   0  0  0  0  0  0  0  0  0  0  0  0
   37.9220   24.3510   38.2650 C   0  0  0  0  0  0  0  0  0  0  0  0
   38.7120   23.0770   38.2470 C   0  0  0  0  0  0  0  0  0  0  0  0
   42.1980   21.0480   33.6690 N   0  0  0  0  0  0  0  0  0  0  0  0
   43.4950   19.9703   35.7269 H   0  0  0  0  0  0  0  0  0  0  0  0
   42.9341   20.4006   38.1662 H   0  0  0  0  0  0  0  0  0  0  0  0
   39.0822   24.0956   35.1856 H   0  0  0  0  0  0  0  0  0  0  0  0
   39.7327   25.2092   36.3655 H   0  0  0  0  0  0  0  0  0  0  0  0
   37.2939   25.5653   36.5591 H   0  0  0  0  0  0  0  0  0  0  0  0
   36.8857   23.9052   36.3427 H   0  0  0  0  0  0  0  0  0  0  0  0
   38.5054   25.1820   38.6882 H   0  0  0  0  0  0  0  0  0  0  0  0
   37.0137   24.3122   38.8843 H   0  0  0  0  0  0  0  0  0  0  0  0
   38.0427   22.2059   38.1892 H   0  0  0  0  0  0  0  0  0  0  0  0
   39.3139   22.9467   39.1585 H   0  0  0  0  0  0  0  0  0  0  0  0
   42.9772   20.4180   33.4305 H   0  0  0  0  0  0  0  0  0  0  0  0
   41.6534   21.4998   32.9205 H   0  0  0  0  0  0  0  0  0  0  0  0
  1  6  2  0
  1  2  1  0
  2  3  2  0
  3  4  1  0
  5  7  1  0
  5  4  2  0
  6  5  1  0
  7 11  1  0
  8  9  1  0
  8  7  1  0
  9 10  1  0
 11 10  1  0
 12  1  1  0
  2 13  1  0
  3 14  1  0
  8 15  1  0
  8 16  1  0
  9 17  1  0
  9 18  1  0
 10 19  1  0
 10 20  1  0
 11 21  1  0
 11 22  1  0
 12 23  1  0
 12 24  1  0
M  ISO  8  13  14  14  14  15  13  16  13  17  13  18  13  19  13  20  13
M  ISO  2  21  13  22  13
M  END
>  <minimizedAffinity>  (1) 
-3.50637817

>  <minimizedRMSD>  (1) 
3.66055322

$$$$
