
     RDKit          3D

 15 15  0  0  0  0  0  0  0  0999 V2000
   39.1860   22.3920   35.6360 C   0  0  0  0  0  0  0  0  0  0  0  0
   40.3990   21.8770   36.1410 C   0  0  0  0  0  0  0  0  0  0  0  0
   40.7430   22.1840   37.4570 C   0  0  0  0  0  0  0  0  0  0  0  0
   39.8950   22.9570   38.1730 N   0  0  0  0  0  0  0  0  0  0  0  0
   38.7480   23.4320   37.6600 C   0  0  0  0  0  0  0  0  0  0  0  0
   38.3800   23.1620   36.4030 N   0  0  0  0  0  0  0  0  0  0  0  0
   38.8430   22.0740   34.2930 N   0  0  0  0  0  0  0  0  0  0  0  0
   37.8690   24.2840   38.5330 C   0  0  0  0  0  0  0  0  0  0  0  0
   41.0534   21.2522   35.5153 H   0  0  0  0  0  0  0  0  0  0  0  0
   41.6771   21.8083   37.9000 H   0  0  0  0  0  0  0  0  0  0  0  0
   37.9660   22.4306   33.8872 H   0  0  0  0  0  0  0  0  0  0  0  0
   39.4715   21.4871   33.7261 H   0  0  0  0  0  0  0  0  0  0  0  0
   38.0870   24.0727   39.5903 H   0  0  0  0  0  0  0  0  0  0  0  0
   38.0636   25.3462   38.3237 H   0  0  0  0  0  0  0  0  0  0  0  0
   36.8133   24.0564   38.3237 H   0  0  0  0  0  0  0  0  0  0  0  0
  1  2  2  0
  1  6  1  0
  2  3  1  0
  3  4  2  0
  5  4  1  0
  5  8  1  0
  6  5  2  0
  7  1  1  0
  2  9  1  0
  3 10  1  0
  7 11  1  0
  7 12  1  0
  8 13  1  0
  8 14  1  0
  8 15  1  0
M  ISO  5   9  14  10  14  13   8  14   8  15   8
M  END
>  <minimizedAffinity>  (1) 
-2.87663269

>  <minimizedRMSD>  (1) 
1.04527891

$$$$
