
     RDKit          3D

 19 20  0  0  0  0  0  0  0  0999 V2000
   39.6450   22.7850   37.5720 C   0  0  0  0  0  0  0  0  0  0  0  0
   38.8950   23.2970   38.6510 C   0  0  0  0  0  0  0  0  0  0  0  0
   37.9600   24.2970   38.3670 C   0  0  0  0  0  0  0  0  0  0  0  0
   37.8270   24.7140   37.0760 N   0  0  0  0  0  0  0  0  0  0  0  0
   38.5640   24.1980   36.0810 C   0  0  0  0  0  0  0  0  0  0  0  0
   39.4760   23.2310   36.3280 N   0  0  0  0  0  0  0  0  0  0  0  0
   40.5990   21.7650   37.8750 N   0  0  0  0  0  0  0  0  0  0  0  0
   38.3970   24.6770   34.6750 C   0  0  0  0  0  0  0  0  0  0  0  0
   39.3520   25.7840   34.2280 C   0  0  0  0  0  0  0  0  0  0  0  0
   39.4670   24.4180   33.6790 C   0  0  0  0  0  0  0  0  0  0  0  0
   39.0399   22.9243   39.6757 H   0  0  0  0  0  0  0  0  0  0  0  0
   37.3460   24.7370   39.1667 H   0  0  0  0  0  0  0  0  0  0  0  0
   41.1729   21.3569   37.1233 H   0  0  0  0  0  0  0  0  0  0  0  0
   40.7127   21.4379   38.8451 H   0  0  0  0  0  0  0  0  0  0  0  0
   37.3105   24.5061   34.6919 H   0  0  0  0  0  0  0  0  0  0  0  0
   38.9872   26.6053   33.5936 H   0  0  0  0  0  0  0  0  0  0  0  0
   40.0324   26.4831   34.7362 H   0  0  0  0  0  0  0  0  0  0  0  0
   39.1987   24.2294   32.6290 H   0  0  0  0  0  0  0  0  0  0  0  0
   40.2870   23.6881   33.6097 H   0  0  0  0  0  0  0  0  0  0  0  0
  1  7  1  0
  1  2  2  0
  3  2  1  0
  4  3  2  0
  5  6  2  0
  5  4  1  0
  6  1  1  0
  8  5  1  0
  9  8  1  0
 10  9  1  0
 10  8  1  0
  2 11  1  0
  3 12  1  0
  7 13  1  0
  7 14  1  0
  8 15  1  0
  9 16  1  0
  9 17  1  0
 10 18  1  0
 10 19  1  0
M  ISO  7  11  14  12  14  15  13  16  13  17  13  18  13  19  13
M  END
>  <minimizedAffinity>  (1) 
-3.67950368

>  <minimizedRMSD>  (1) 
3.97614002

$$$$
