
     RDKit          3D

 33 36  0  0  1  0  0  0  0  0999 V2000
   38.5700   25.6800   35.2950 C   0  0  1  0  0  0  0  0  0  0  0  0
   38.8930   27.1640   35.5510 C   0  0  0  0  0  0  0  0  0  0  0  0
   39.8000   26.2840   34.7730 C   0  0  2  0  0  0  0  0  0  0  0  0
   40.0070   26.4990   33.3590 N   0  0  0  0  0  0  0  0  0  0  0  0
   40.9940   27.2630   32.8220 C   0  0  0  0  0  0  0  0  0  0  0  0
   40.8620   27.2220   31.4670 N   0  0  0  0  0  0  0  0  0  0  0  0
   39.7990   26.4360   31.1870 C   0  0  0  0  0  0  0  0  0  0  0  0
   39.2460   26.0740   29.9570 C   0  0  0  0  0  0  0  0  0  0  0  0
   39.6960   26.4590   28.8530 O   0  0  0  0  0  0  0  0  0  0  0  0
   38.1570   25.2570   29.9340 N   0  0  0  0  0  0  0  0  0  0  0  0
   37.6490   24.8250   31.1120 C   0  0  0  0  0  0  0  0  0  0  0  0
   36.5140   23.9750   31.0760 N   0  0  0  0  0  0  0  0  0  0  0  0
   38.1800   25.1730   32.3060 N   0  0  0  0  0  0  0  0  0  0  0  0
   39.2620   25.9840   32.3670 C   0  0  0  0  0  0  0  0  0  0  0  0
   39.5370   22.9630   37.5690 C   0  0  0  0  0  0  0  0  0  0  0  0
   38.7260   23.1680   38.6930 C   0  0  0  0  0  0  0  0  0  0  0  0
   37.8590   24.2530   38.6560 C   0  0  0  0  0  0  0  0  0  0  0  0
   37.8350   25.0460   37.5620 N   0  0  0  0  0  0  0  0  0  0  0  0
   38.6310   24.8110   36.5070 C   0  0  0  0  0  0  0  0  0  0  0  0
   39.4920   23.7560   36.5130 N   0  0  0  0  0  0  0  0  0  0  0  0
   40.4220   21.8290   37.6110 N   0  0  0  0  0  0  0  0  0  0  0  0
   37.7627   25.0922   34.8339 H   0  0  0  0  0  0  0  0  0  0  0  0
   38.3166   27.9531   35.0460 H   0  0  0  0  0  0  0  0  0  0  0  0
   38.9874   27.8102   36.4362 H   0  0  0  0  0  0  0  0  0  0  0  0
   40.8637   26.0155   34.8529 H   0  0  0  0  0  0  0  0  0  0  0  0
   41.7626   27.8160   33.3818 H   0  0  0  0  0  0  0  0  0  0  0  0
   37.7295   24.9741   29.0406 H   0  0  0  0  0  0  0  0  0  0  0  0
   36.1023   23.6282   31.9541 H   0  0  0  0  0  0  0  0  0  0  0  0
   36.1016   23.7046   30.1717 H   0  0  0  0  0  0  0  0  0  0  0  0
   38.7736   22.4999   39.5656 H   0  0  0  0  0  0  0  0  0  0  0  0
   37.1981   24.4646   39.5095 H   0  0  0  0  0  0  0  0  0  0  0  0
   41.0414   21.6293   36.8127 H   0  0  0  0  0  0  0  0  0  0  0  0
   40.4360   21.2171   38.4394 H   0  0  0  0  0  0  0  0  0  0  0  0
  1  2  1  0
  1 19  1  0
  3  1  1  0
  3  2  1  0
  4  3  1  0
  5  4  1  0
  6  5  2  0
  7  6  1  0
  7 14  2  0
  8  7  1  0
  9  8  2  0
 10  8  1  0
 10 11  1  0
 11 13  2  0
 12 11  1  0
 13 14  1  0
 14  4  1  0
 15 21  1  0
 15 16  2  0
 17 16  1  0
 18 17  2  0
 19 20  2  0
 19 18  1  0
 20 15  1  0
  1 22  1  6
  2 23  1  0
  2 24  1  0
  3 25  1  1
  5 26  1  0
 10 27  1  0
 12 28  1  0
 12 29  1  0
 16 30  1  0
 17 31  1  0
 21 32  1  0
 21 33  1  0
M  ISO  8  22  13  23  13  24  13  25  13  26  14  27   9  30  14  31  14
M  END
>  <minimizedAffinity>  (1) 
-5.53325796

>  <minimizedRMSD>  (1) 
2.92911053

$$$$
