
     RDKit          3D

 30 33  0  0  1  0  0  0  0  0999 V2000
   38.9800   24.9880   34.6710 C   0  0  1  0  0  0  0  0  0  0  0  0
   38.9860   23.9760   33.5120 C   0  0  0  0  0  0  0  0  0  0  0  0
   37.8280   24.8710   33.7720 C   0  0  2  0  0  0  0  0  0  0  0  0
   37.5510   25.9710   32.8540 N   0  0  0  0  0  0  0  0  0  0  0  0
   37.8310   25.9860   31.5500 C   0  0  0  0  0  0  0  0  0  0  0  0
   37.4430   27.1550   31.0030 N   0  0  0  0  0  0  0  0  0  0  0  0
   36.9060   27.9010   31.9730 C   0  0  0  0  0  0  0  0  0  0  0  0
   36.3320   29.1620   32.0900 C   0  0  0  0  0  0  0  0  0  0  0  0
   35.8690   29.6390   33.2560 N   0  0  0  0  0  0  0  0  0  0  0  0
   35.9580   28.8830   34.3490 C   0  0  0  0  0  0  0  0  0  0  0  0
   36.5010   27.6450   34.3230 N   0  0  0  0  0  0  0  0  0  0  0  0
   36.9710   27.1540   33.1520 C   0  0  0  0  0  0  0  0  0  0  0  0
   39.7470   22.8370   37.5380 C   0  0  0  0  0  0  0  0  0  0  0  0
   38.8290   23.2620   38.5260 C   0  0  0  0  0  0  0  0  0  0  0  0
   37.9540   24.3100   38.1820 C   0  0  0  0  0  0  0  0  0  0  0  0
   38.0380   24.8430   36.9430 N   0  0  0  0  0  0  0  0  0  0  0  0
   38.9310   24.3990   36.0420 C   0  0  0  0  0  0  0  0  0  0  0  0
   39.7870   23.4050   36.3230 N   0  0  0  0  0  0  0  0  0  0  0  0
   40.6040   21.7710   37.9120 N   0  0  0  0  0  0  0  0  0  0  0  0
   39.5918   25.8380   35.0075 H   0  0  0  0  0  0  0  0  0  0  0  0
   38.9115   22.8976   33.7156 H   0  0  0  0  0  0  0  0  0  0  0  0
   39.6410   23.7609   32.6548 H   0  0  0  0  0  0  0  0  0  0  0  0
   36.7533   24.6900   33.9211 H   0  0  0  0  0  0  0  0  0  0  0  0
   38.3099   25.1625   31.0000 H   0  0  0  0  0  0  0  0  0  0  0  0
   36.2544   29.7930   31.1923 H   0  0  0  0  0  0  0  0  0  0  0  0
   35.5779   29.2782   35.3026 H   0  0  0  0  0  0  0  0  0  0  0  0
   38.7997   22.7938   39.5209 H   0  0  0  0  0  0  0  0  0  0  0  0
   37.2173   24.6871   38.9067 H   0  0  0  0  0  0  0  0  0  0  0  0
   41.2983   21.4093   37.2427 H   0  0  0  0  0  0  0  0  0  0  0  0
   40.5322   21.3584   38.8530 H   0  0  0  0  0  0  0  0  0  0  0  0
  1 17  1  0
  2  3  1  0
  2  1  1  0
  3  1  1  0
  4 12  1  0
  4  3  1  0
  5  4  1  0
  6  5  2  0
  6  7  1  0
  7  8  2  0
  7 12  1  0
  8  9  1  0
  9 10  2  0
 11 10  1  0
 12 11  2  0
 13 19  1  0
 13 14  2  0
 15 14  1  0
 16 15  2  0
 17 18  2  0
 17 16  1  0
 18 13  1  0
  1 20  1  1
  2 21  1  0
  2 22  1  0
  3 23  1  1
  5 24  1  0
  8 25  1  0
 10 26  1  0
 14 27  1  0
 15 28  1  0
 19 29  1  0
 19 30  1  0
M  ISO  8  20  13  21  13  22  13  23  13  24  14  25  14  26  14  27  14
M  ISO  1  28  14
M  END
>  <minimizedAffinity>  (1) 
-5.40648413

>  <minimizedRMSD>  (1) 
2.82211304

$$$$
