
     RDKit          3D

 32 34  0  0  1  0  0  0  0  0999 V2000
   38.0790   26.0380   35.4660 C   0  0  1  0  0  0  0  0  0  0  0  0
   38.4320   27.4930   35.8480 C   0  0  0  0  0  0  0  0  0  0  0  0
   39.1990   26.7390   34.8260 C   0  0  2  0  0  0  0  0  0  0  0  0
   39.3420   23.0290   37.1420 C   0  0  0  0  0  0  0  0  0  0  0  0
   38.8210   23.1270   38.4590 C   0  0  0  0  0  0  0  0  0  0  0  0
   38.0380   24.2590   38.7380 C   0  0  0  0  0  0  0  0  0  0  0  0
   37.8310   25.1710   37.7590 N   0  0  0  0  0  0  0  0  0  0  0  0
   38.3480   25.0290   36.5350 C   0  0  0  0  0  0  0  0  0  0  0  0
   39.1160   23.9540   36.1980 N   0  0  0  0  0  0  0  0  0  0  0  0
   40.1310   21.8680   36.8420 N   0  0  0  0  0  0  0  0  0  0  0  0
   38.9520   27.6920   30.6740 C   0  0  0  0  0  0  0  0  0  0  0  0
   37.8150   27.7180   31.4440 C   0  0  0  0  0  0  0  0  0  0  0  0
   37.9190   27.4050   32.7900 C   0  0  0  0  0  0  0  0  0  0  0  0
   39.1290   27.0680   33.3810 C   0  0  0  0  0  0  0  0  0  0  0  0
   40.2810   27.0390   32.6130 C   0  0  0  0  0  0  0  0  0  0  0  0
   40.1690   27.3550   31.2580 C   0  0  0  0  0  0  0  0  0  0  0  0
   38.7570   28.0920   29.0010 S   0  0  0  0  0  0  0  0  0  0  0  0
   37.4250   28.7740   28.7360 O   0  0  0  0  0  0  0  0  0  0  0  0
   39.8240   29.0370   28.5140 O   0  0  0  0  0  0  0  0  0  0  0  0
   37.2109   25.4866   35.0757 H   0  0  0  0  0  0  0  0  0  0  0  0
   37.7731   28.3214   35.5489 H   0  0  0  0  0  0  0  0  0  0  0  0
   38.6711   28.0294   36.7781 H   0  0  0  0  0  0  0  0  0  0  0  0
   40.2729   26.5347   34.7040 H   0  0  0  0  0  0  0  0  0  0  0  0
   39.0199   22.3578   39.2198 H   0  0  0  0  0  0  0  0  0  0  0  0
   37.5996   24.4025   39.7366 H   0  0  0  0  0  0  0  0  0  0  0  0
   40.5329   21.7475   35.9013 H   0  0  0  0  0  0  0  0  0  0  0  0
   40.2953   21.1555   37.5674 H   0  0  0  0  0  0  0  0  0  0  0  0
   36.8429   27.9816   31.0019 H   0  0  0  0  0  0  0  0  0  0  0  0
   37.0115   27.4243   33.4114 H   0  0  0  0  0  0  0  0  0  0  0  0
   41.2526   26.7755   33.0563 H   0  0  0  0  0  0  0  0  0  0  0  0
   41.0728   27.3370   30.6312 H   0  0  0  0  0  0  0  0  0  0  0  0
   38.8355   26.8959   28.3376 H   0  0  0  0  0  0  0  0  0  0  0  0
  1  2  1  0
  1  8  1  0
  3  1  1  0
  3  2  1  0
  4  5  2  0
  5  6  1  0
  7  6  2  0
  8  7  1  0
  9  8  2  0
  9  4  1  0
 10  4  1  0
 11 16  2  0
 11 12  1  0
 12 13  2  0
 13 14  1  0
 14  3  1  0
 15 14  2  0
 16 15  1  0
 17 11  1  0
 18 17  2  0
 19 17  2  0
  1 20  1  6
  2 21  1  0
  2 22  1  0
  3 23  1  1
  5 24  1  0
  6 25  1  0
 10 26  1  0
 10 27  1  0
 12 28  1  0
 13 29  1  0
 15 30  1  0
 16 31  1  0
 17 32  1  0
M  ISO  8  20  13  21  13  22  13  23  13  24  14  25  14  28  14  29  14
M  ISO  3  30  14  31  14  32  11
M  END
>  <minimizedAffinity>  (1) 
-5.28105497

>  <minimizedRMSD>  (1) 
3.44039202

$$$$
