
     RDKit          3D

 34 36  0  0  1  0  0  0  0  0999 V2000
   38.1460   24.5760   34.8170 C   0  0  1  0  0  0  0  0  0  0  0  0
   39.3130   25.2530   34.0680 C   0  0  0  0  0  0  0  0  0  0  0  0
   38.8080   23.9240   33.6820 C   0  0  2  0  0  0  0  0  0  0  0  0
   39.6510   22.7580   37.6210 C   0  0  0  0  0  0  0  0  0  0  0  0
   38.9980   23.2890   38.7530 C   0  0  0  0  0  0  0  0  0  0  0  0
   38.0380   24.2930   38.5300 C   0  0  0  0  0  0  0  0  0  0  0  0
   37.8050   24.6830   37.2490 N   0  0  0  0  0  0  0  0  0  0  0  0
   38.4520   24.1470   36.2160 C   0  0  0  0  0  0  0  0  0  0  0  0
   39.3910   23.1740   36.3700 N   0  0  0  0  0  0  0  0  0  0  0  0
   40.6170   21.7270   37.8540 N   0  0  0  0  0  0  0  0  0  0  0  0
   38.0100   23.6610   32.5270 N   0  0  0  0  0  0  0  0  0  0  0  0
   37.0120   24.6520   32.2370 C   0  0  0  0  0  0  0  0  0  0  0  0
   36.2100   24.1940   31.0470 C   0  0  0  0  0  0  0  0  0  0  0  0
   35.5880   22.8410   31.2540 C   0  0  0  0  0  0  0  0  0  0  0  0
   36.6830   21.8440   31.5210 C   0  0  0  0  0  0  0  0  0  0  0  0
   37.4580   22.3370   32.7030 C   0  0  0  0  0  0  0  0  0  0  0  0
   37.0950   24.7939   35.0576 H   0  0  0  0  0  0  0  0  0  0  0  0
   39.1277   26.1256   33.4244 H   0  0  0  0  0  0  0  0  0  0  0  0
   40.2898   25.6750   34.3468 H   0  0  0  0  0  0  0  0  0  0  0  0
   39.3479   22.9834   33.4982 H   0  0  0  0  0  0  0  0  0  0  0  0
   39.2297   22.9330   39.7677 H   0  0  0  0  0  0  0  0  0  0  0  0
   37.4915   24.7494   39.3685 H   0  0  0  0  0  0  0  0  0  0  0  0
   41.1220   21.3057   37.0613 H   0  0  0  0  0  0  0  0  0  0  0  0
   40.8069   21.4067   38.8143 H   0  0  0  0  0  0  0  0  0  0  0  0
   36.3485   24.7748   33.1057 H   0  0  0  0  0  0  0  0  0  0  0  0
   37.4934   25.6162   32.0166 H   0  0  0  0  0  0  0  0  0  0  0  0
   36.8747   24.1458   30.1718 H   0  0  0  0  0  0  0  0  0  0  0  0
   35.3938   24.9162   30.8979 H   0  0  0  0  0  0  0  0  0  0  0  0
   34.9017   22.8763   32.1129 H   0  0  0  0  0  0  0  0  0  0  0  0
   35.0226   22.5466   30.3575 H   0  0  0  0  0  0  0  0  0  0  0  0
   36.2482   20.8578   31.7411 H   0  0  0  0  0  0  0  0  0  0  0  0
   37.3373   21.7409   30.6428 H   0  0  0  0  0  0  0  0  0  0  0  0
   38.2863   21.6380   32.8908 H   0  0  0  0  0  0  0  0  0  0  0  0
   36.7547   22.3925   33.5470 H   0  0  0  0  0  0  0  0  0  0  0  0
  1  8  1  0
  2  1  1  0
  3  2  1  0
  3  1  1  0
  4 10  1  0
  4  5  2  0
  6  5  1  0
  7  6  2  0
  8  9  2  0
  8  7  1  0
  9  4  1  0
 11 16  1  0
 11  3  1  0
 12 11  1  0
 13 14  1  0
 13 12  1  0
 14 15  1  0
 15 16  1  0
  1 17  1  6
  2 18  1  0
  2 19  1  0
  3 20  1  1
  5 21  1  0
  6 22  1  0
 10 23  1  0
 10 24  1  0
 12 25  1  0
 12 26  1  0
 13 27  1  0
 13 28  1  0
 14 29  1  0
 14 30  1  0
 15 31  1  0
 15 32  1  0
 16 33  1  0
 16 34  1  0
M  ISO  8  17  13  18  13  19  13  20  13  21  14  22  14  25  13  26  13
M  ISO  8  27  13  28  13  29  13  30  13  31  13  32  13  33  13  34  13
M  END
>  <minimizedAffinity>  (1) 
-5.03073978

>  <minimizedRMSD>  (1) 
1.18447101

$$$$
