
     RDKit          3D

 32 34  0  0  1  0  0  0  0  0999 V2000
   38.4730   25.6300   35.3150 C   0  0  1  0  0  0  0  0  0  0  0  0
   38.8210   27.1230   35.5030 C   0  0  0  0  0  0  0  0  0  0  0  0
   39.6780   26.2170   34.7170 C   0  0  2  0  0  0  0  0  0  0  0  0
   39.7270   26.2060   33.2770 N   0  0  0  0  0  0  0  0  0  0  0  0
   38.8030   25.3740   32.7290 C   0  0  0  0  0  0  0  0  0  0  0  0
   38.7090   25.2400   31.3420 C   0  0  0  0  0  0  0  0  0  0  0  0
   37.6970   24.3290   30.7200 C   0  0  0  0  0  0  0  0  0  0  0  0
   39.5790   25.9730   30.5340 C   0  0  0  0  0  0  0  0  0  0  0  0
   39.4990   25.8540   29.2680 O   0  0  0  0  0  0  0  0  0  0  0  0
   40.4840   26.7890   31.1330 N   0  0  0  0  0  0  0  0  0  0  0  0
   40.5320   26.8820   32.4680 C   0  0  0  0  0  0  0  0  0  0  0  0
   41.3620   27.6310   33.0420 O   0  0  0  0  0  0  0  0  0  0  0  0
   39.5400   22.9630   37.5950 C   0  0  0  0  0  0  0  0  0  0  0  0
   38.7690   23.1870   38.7590 C   0  0  0  0  0  0  0  0  0  0  0  0
   37.8910   24.2780   38.7340 C   0  0  0  0  0  0  0  0  0  0  0  0
   37.8290   25.0420   37.6200 N   0  0  0  0  0  0  0  0  0  0  0  0
   38.5810   24.7870   36.5450 C   0  0  0  0  0  0  0  0  0  0  0  0
   39.4550   23.7440   36.5050 N   0  0  0  0  0  0  0  0  0  0  0  0
   40.4290   21.8380   37.6130 N   0  0  0  0  0  0  0  0  0  0  0  0
   37.6404   25.0325   34.9153 H   0  0  0  0  0  0  0  0  0  0  0  0
   38.2257   27.8993   35.0001 H   0  0  0  0  0  0  0  0  0  0  0  0
   38.9637   27.7977   36.3600 H   0  0  0  0  0  0  0  0  0  0  0  0
   40.7646   26.0526   34.7637 H   0  0  0  0  0  0  0  0  0  0  0  0
   38.1256   24.8031   33.3811 H   0  0  0  0  0  0  0  0  0  0  0  0
   37.1289   23.8176   31.5110 H   0  0  0  0  0  0  0  0  0  0  0  0
   37.0084   24.9175   30.0960 H   0  0  0  0  0  0  0  0  0  0  0  0
   38.2102   23.5825   30.0960 H   0  0  0  0  0  0  0  0  0  0  0  0
   41.1371   27.3395   30.5574 H   0  0  0  0  0  0  0  0  0  0  0  0
   38.8546   22.5359   39.6415 H   0  0  0  0  0  0  0  0  0  0  0  0
   37.2622   24.5096   39.6063 H   0  0  0  0  0  0  0  0  0  0  0  0
   41.0133   21.6301   36.7906 H   0  0  0  0  0  0  0  0  0  0  0  0
   40.4832   21.2378   38.4483 H   0  0  0  0  0  0  0  0  0  0  0  0
  1  2  1  0
  1 17  1  0
  3  1  1  0
  3  2  1  0
  4  3  1  0
  5  4  1  0
  6  5  2  0
  7  6  1  0
  8 10  1  0
  8  6  1  0
  9  8  2  0
 10 11  1  0
 11 12  2  0
 11  4  1  0
 13 19  1  0
 13 14  2  0
 15 14  1  0
 16 15  2  0
 17 16  1  0
 18 17  2  0
 18 13  1  0
  1 20  1  6
  2 21  1  0
  2 22  1  0
  3 23  1  1
  5 24  1  0
  7 25  1  0
  7 26  1  0
  7 27  1  0
 10 28  1  0
 14 29  1  0
 15 30  1  0
 19 31  1  0
 19 32  1  0
M  ISO  8  20  13  21  13  22  13  23  13  24  14  25   8  26   8  27   8
M  ISO  3  28   9  29  14  30  14
M  END
>  <minimizedAffinity>  (1) 
-4.95379877

>  <minimizedRMSD>  (1) 
2.47193789

$$$$
