
     RDKit          3D

 32 34  0  0  1  0  0  0  0  0999 V2000
   38.1140   24.6390   34.7430 C   0  0  1  0  0  0  0  0  0  0  0  0
   39.3610   24.9720   33.8970 C   0  0  0  0  0  0  0  0  0  0  0  0
   38.5060   23.7950   33.6070 C   0  0  2  0  0  0  0  0  0  0  0  0
   39.5960   22.7870   37.5410 C   0  0  0  0  0  0  0  0  0  0  0  0
   38.9410   23.3090   38.6610 C   0  0  0  0  0  0  0  0  0  0  0  0
   37.9810   24.3200   38.4550 C   0  0  0  0  0  0  0  0  0  0  0  0
   37.7530   24.7240   37.1840 N   0  0  0  0  0  0  0  0  0  0  0  0
   38.4080   24.1920   36.1440 C   0  0  0  0  0  0  0  0  0  0  0  0
   39.3350   23.2200   36.3040 N   0  0  0  0  0  0  0  0  0  0  0  0
   40.5400   21.7580   37.8030 N   0  0  0  0  0  0  0  0  0  0  0  0
   37.7100   23.6970   32.3380 C   0  0  0  0  0  0  0  0  0  0  0  0
   36.7520   24.8890   32.2120 C   0  0  0  0  0  0  0  0  0  0  0  0
   35.7280   24.4810   31.1900 C   0  0  0  0  0  0  0  0  0  0  0  0
   35.7240   22.9690   31.2710 C   0  0  0  0  0  0  0  0  0  0  0  0
   36.6580   22.5860   32.4040 C   0  0  0  0  0  0  0  0  0  0  0  0
   37.1708   25.1266   35.0306 H   0  0  0  0  0  0  0  0  0  0  0  0
   39.3584   25.8403   33.2217 H   0  0  0  0  0  0  0  0  0  0  0  0
   40.4291   25.1413   34.0982 H   0  0  0  0  0  0  0  0  0  0  0  0
   38.6890   22.7152   33.5044 H   0  0  0  0  0  0  0  0  0  0  0  0
   39.1683   22.9414   39.6725 H   0  0  0  0  0  0  0  0  0  0  0  0
   37.4352   24.7659   39.2995 H   0  0  0  0  0  0  0  0  0  0  0  0
   41.0605   21.3266   37.0259 H   0  0  0  0  0  0  0  0  0  0  0  0
   40.7039   21.4435   38.7700 H   0  0  0  0  0  0  0  0  0  0  0  0
   38.4712   23.5833   31.5521 H   0  0  0  0  0  0  0  0  0  0  0  0
   36.2684   25.0963   33.1780 H   0  0  0  0  0  0  0  0  0  0  0  0
   37.2814   25.8057   31.9130 H   0  0  0  0  0  0  0  0  0  0  0  0
   36.0202   24.8194   30.1850 H   0  0  0  0  0  0  0  0  0  0  0  0
   34.7377   24.9210   31.3791 H   0  0  0  0  0  0  0  0  0  0  0  0
   34.7074   22.6040   31.4790 H   0  0  0  0  0  0  0  0  0  0  0  0
   36.0535   22.5229   30.3211 H   0  0  0  0  0  0  0  0  0  0  0  0
   37.1093   21.5975   32.2332 H   0  0  0  0  0  0  0  0  0  0  0  0
   36.1598   22.5041   33.3813 H   0  0  0  0  0  0  0  0  0  0  0  0
  1  8  1  0
  2  1  1  0
  3  2  1  0
  3  1  1  0
  4 10  1  0
  4  5  2  0
  6  5  1  0
  7  6  2  0
  8  9  2  0
  8  7  1  0
  9  4  1  0
 11 15  1  0
 11  3  1  0
 12 11  1  0
 13 14  1  0
 13 12  1  0
 14 15  1  0
  1 16  1  1
  2 17  1  0
  2 18  1  0
  3 19  1  1
  5 20  1  0
  6 21  1  0
 10 22  1  0
 10 23  1  0
 11 24  1  0
 12 25  1  0
 12 26  1  0
 13 27  1  0
 13 28  1  0
 14 29  1  0
 14 30  1  0
 15 31  1  0
 15 32  1  0
M  ISO  8  16  13  17  13  18  13  19  13  20  14  21  14  24  13  25  13
M  ISO  7  26  13  27  13  28  13  29  13  30  13  31  13  32  13
M  END
>  <minimizedAffinity>  (1) 
-4.93898821

>  <minimizedRMSD>  (1) 
1.66120279

$$$$
