
     RDKit          3D

 27 29  0  0  1  0  0  0  0  0999 V2000
   38.2340   24.5360   34.7200 C   0  0  1  0  0  0  0  0  0  0  0  0
   38.5300   26.0160   34.4030 C   0  0  0  0  0  0  0  0  0  0  0  0
   39.3390   24.9320   33.8340 C   0  0  1  0  0  0  0  0  0  0  0  0
   39.6360   22.7510   37.5960 C   0  0  0  0  0  0  0  0  0  0  0  0
   38.9610   23.3250   38.7020 C   0  0  0  0  0  0  0  0  0  0  0  0
   38.0200   24.3390   38.4290 C   0  0  0  0  0  0  0  0  0  0  0  0
   37.8160   24.7040   37.1410 N   0  0  0  0  0  0  0  0  0  0  0  0
   38.4730   24.1380   36.1290 C   0  0  0  0  0  0  0  0  0  0  0  0
   39.3700   23.1730   36.3650 N   0  0  0  0  0  0  0  0  0  0  0  0
   40.5830   21.7290   37.8680 N   0  0  0  0  0  0  0  0  0  0  0  0
   40.7740   24.7860   34.1850 C   0  0  0  0  0  0  0  0  0  0  0  0
   41.5770   25.6980   34.8810 C   0  0  0  0  0  0  0  0  0  0  0  0
   42.8970   25.4310   35.1480 C   0  0  0  0  0  0  0  0  0  0  0  0
   43.4740   24.3020   34.7610 N   0  0  0  0  0  0  0  0  0  0  0  0
   42.7220   23.4210   34.0940 C   0  0  0  0  0  0  0  0  0  0  0  0
   41.4280   23.6450   33.8140 N   0  0  0  0  0  0  0  0  0  0  0  0
   37.4079   23.8174   34.6139 H   0  0  0  0  0  0  0  0  0  0  0  0
   37.8470   26.5929   33.7622 H   0  0  0  0  0  0  0  0  0  0  0  0
   38.7319   26.9220   34.9933 H   0  0  0  0  0  0  0  0  0  0  0  0
   39.6180   24.6239   32.8156 H   0  0  0  0  0  0  0  0  0  0  0  0
   39.1629   22.9931   39.7311 H   0  0  0  0  0  0  0  0  0  0  0  0
   37.4634   24.8233   39.2449 H   0  0  0  0  0  0  0  0  0  0  0  0
   41.0969   21.2839   37.0942 H   0  0  0  0  0  0  0  0  0  0  0  0
   40.7562   21.4326   38.8391 H   0  0  0  0  0  0  0  0  0  0  0  0
   41.1408   26.6488   35.2211 H   0  0  0  0  0  0  0  0  0  0  0  0
   43.4923   26.1745   35.6983 H   0  0  0  0  0  0  0  0  0  0  0  0
   43.1801   22.4776   33.7622 H   0  0  0  0  0  0  0  0  0  0  0  0
  1  8  1  0
  2  1  1  0
  3 11  1  0
  3  2  1  0
  3  1  1  0
  4 10  1  0
  4  5  2  0
  6  5  1  0
  7  6  2  0
  8  9  2  0
  8  7  1  0
  9  4  1  0
 11 12  2  0
 12 13  1  0
 14 13  2  0
 15 14  1  0
 16 15  2  0
 16 11  1  0
  1 17  1  6
  2 18  1  0
  2 19  1  0
  3 20  1  6
  5 21  1  0
  6 22  1  0
 10 23  1  0
 10 24  1  0
 12 25  1  0
 13 26  1  0
 15 27  1  0
M  ISO  8  17  13  18  13  19  13  20  13  21  14  22  14  25  14  26  14
M  ISO  1  27  14
M  END
>  <minimizedAffinity>  (1) 
-4.41700697

>  <minimizedRMSD>  (1) 
1.34905994

$$$$
