
     RDKit          3D

 26 28  0  0  1  0  0  0  0  0999 V2000
   38.1160   24.7550   34.9560 C   0  0  1  0  0  0  0  0  0  0  0  0
   39.2990   25.4830   34.2750 C   0  0  0  0  0  0  0  0  0  0  0  0
   38.7970   24.1710   33.7950 C   0  0  2  0  0  0  0  0  0  0  0  0
   39.6620   22.7760   37.6490 C   0  0  0  0  0  0  0  0  0  0  0  0
   39.0260   23.2720   38.7940 C   0  0  0  0  0  0  0  0  0  0  0  0
   38.0750   24.2820   38.6610 C   0  0  0  0  0  0  0  0  0  0  0  0
   37.8160   24.7360   37.4140 N   0  0  0  0  0  0  0  0  0  0  0  0
   38.4360   24.2480   36.3350 C   0  0  0  0  0  0  0  0  0  0  0  0
   39.3680   23.2600   36.4540 N   0  0  0  0  0  0  0  0  0  0  0  0
   40.6110   21.7360   37.8380 N   0  0  0  0  0  0  0  0  0  0  0  0
   38.2220   24.1480   32.4860 N   0  0  0  0  0  0  0  0  0  0  0  0
   38.8530   23.8040   31.3510 N   0  0  0  0  0  0  0  0  0  0  0  0
   38.0200   23.8940   30.3200 C   0  0  0  0  0  0  0  0  0  0  0  0
   36.8010   24.3120   30.8030 C   0  0  0  0  0  0  0  0  0  0  0  0
   36.9500   24.4680   32.1850 C   0  0  0  0  0  0  0  0  0  0  0  0
   37.0581   24.9492   35.1867 H   0  0  0  0  0  0  0  0  0  0  0  0
   39.1250   26.3946   33.6845 H   0  0  0  0  0  0  0  0  0  0  0  0
   40.2695   25.8876   34.5982 H   0  0  0  0  0  0  0  0  0  0  0  0
   39.2162   23.1664   33.6369 H   0  0  0  0  0  0  0  0  0  0  0  0
   39.2743   22.8690   39.7869 H   0  0  0  0  0  0  0  0  0  0  0  0
   37.5545   24.6945   39.5379 H   0  0  0  0  0  0  0  0  0  0  0  0
   41.1061   21.3371   37.0277 H   0  0  0  0  0  0  0  0  0  0  0  0
   40.8040   21.3808   38.7854 H   0  0  0  0  0  0  0  0  0  0  0  0
   38.2612   23.6740   29.2695 H   0  0  0  0  0  0  0  0  0  0  0  0
   35.8874   24.4890   30.2165 H   0  0  0  0  0  0  0  0  0  0  0  0
   36.1730   24.7916   32.8932 H   0  0  0  0  0  0  0  0  0  0  0  0
  1  8  1  0
  2  1  1  0
  3  2  1  0
  3  1  1  0
  4 10  1  0
  4  5  2  0
  6  5  1  0
  7  6  2  0
  8  9  2  0
  8  7  1  0
  9  4  1  0
 11  3  1  0
 12 11  1  0
 13 14  1  0
 13 12  2  0
 14 15  2  0
 15 11  1  0
  1 16  1  6
  2 17  1  0
  2 18  1  0
  3 19  1  1
  5 20  1  0
  6 21  1  0
 10 22  1  0
 10 23  1  0
 13 24  1  0
 14 25  1  0
 15 26  1  0
M  ISO  8  16  13  17  13  18  13  19  13  20  14  21  14  24  14  25  14
M  ISO  1  26  14
M  END
>  <minimizedAffinity>  (1) 
-4.41094398

>  <minimizedRMSD>  (1) 
0.84741199

$$$$
