
     RDKit          3D

 25 26  0  0  1  0  0  0  0  0999 V2000
   39.5580   22.9600   37.5680 C   0  0  0  0  0  0  0  0  0  0  0  0
   38.7110   23.1730   38.6850 C   0  0  0  0  0  0  0  0  0  0  0  0
   37.8470   24.2860   38.6290 C   0  0  0  0  0  0  0  0  0  0  0  0
   37.8680   25.0800   37.5330 N   0  0  0  0  0  0  0  0  0  0  0  0
   38.6850   24.8410   36.5010 C   0  0  0  0  0  0  0  0  0  0  0  0
   39.5390   23.7780   36.5090 N   0  0  0  0  0  0  0  0  0  0  0  0
   38.6740   25.7140   35.2910 C   0  0  1  0  0  0  0  0  0  0  0  0
   38.5700   27.2220   35.5810 C   0  0  0  0  0  0  0  0  0  0  0  0
   39.8090   26.6120   35.0380 C   0  0  2  0  0  0  0  0  0  0  0  0
   40.3370   26.9000   33.6660 C   0  0  0  0  0  0  0  0  0  0  0  0
   41.8430   27.1650   33.8020 C   0  0  0  0  0  0  0  0  0  0  0  0
   40.4250   21.8340   37.6080 N   0  0  0  0  0  0  0  0  0  0  0  0
   38.7272   22.5007   39.5555 H   0  0  0  0  0  0  0  0  0  0  0  0
   37.1656   24.5058   39.4641 H   0  0  0  0  0  0  0  0  0  0  0  0
   38.1461   24.9686   34.6780 H   0  0  0  0  0  0  0  0  0  0  0  0
   37.9449   27.8675   34.9465 H   0  0  0  0  0  0  0  0  0  0  0  0
   38.3125   27.8416   36.4527 H   0  0  0  0  0  0  0  0  0  0  0  0
   40.8623   26.6186   35.3550 H   0  0  0  0  0  0  0  0  0  0  0  0
   39.8354   27.7852   33.2479 H   0  0  0  0  0  0  0  0  0  0  0  0
   40.1505   26.0515   32.9912 H   0  0  0  0  0  0  0  0  0  0  0  0
   42.1122   27.2124   34.8675 H   0  0  0  0  0  0  0  0  0  0  0  0
   42.4036   26.3517   33.3180 H   0  0  0  0  0  0  0  0  0  0  0  0
   42.0923   28.1208   33.3180 H   0  0  0  0  0  0  0  0  0  0  0  0
   41.0569   21.6422   36.8175 H   0  0  0  0  0  0  0  0  0  0  0  0
   40.4213   21.2100   38.4275 H   0  0  0  0  0  0  0  0  0  0  0  0
  1 12  1  0
  1  2  2  0
  3  2  1  0
  4  3  2  0
  5  6  2  0
  5  4  1  0
  6  1  1  0
  7  8  1  0
  7  5  1  0
  9  7  1  0
  9  8  1  0
 10 11  1  0
 10  9  1  0
  2 13  1  0
  3 14  1  0
  7 15  1  6
  8 16  1  0
  8 17  1  0
  9 18  1  1
 10 19  1  0
 10 20  1  0
 11 21  1  0
 11 22  1  0
 11 23  1  0
 12 24  1  0
 12 25  1  0
M  ISO  8  13  14  14  14  15  13  16  13  17  13  18  13  19   8  20   8
M  ISO  3  21   8  22   8  23   8
M  END
>  <minimizedAffinity>  (1) 
-4.40350485

>  <minimizedRMSD>  (1) 
1.82623279

$$$$
