
     RDKit          3D

 27 28  0  0  0  0  0  0  0  0999 V2000
   39.1210   26.1920   34.7160 C   0  0  0  0  0  0  0  0  0  0  0  0
   38.0170   26.9640   34.0900 C   0  0  0  0  0  0  0  0  0  0  0  0
   37.1870   27.7450   34.8680 C   0  0  0  0  0  0  0  0  0  0  0  0
   36.1300   28.5030   34.3800 C   0  0  0  0  0  0  0  0  0  0  0  0
   35.9170   28.4560   33.0300 N   0  0  0  0  0  0  0  0  0  0  0  0
   36.7240   27.6930   32.2520 C   0  0  0  0  0  0  0  0  0  0  0  0
   37.7450   26.9730   32.7920 N   0  0  0  0  0  0  0  0  0  0  0  0
   36.5370   27.6060   30.7830 C   0  0  0  0  0  0  0  0  0  0  0  0
   37.7170   27.2900   30.1370 F   0  0  0  0  0  0  0  0  0  0  0  0
   35.6280   26.5950   30.5430 F   0  0  0  0  0  0  0  0  0  0  0  0
   36.0840   28.8270   30.2950 F   0  0  0  0  0  0  0  0  0  0  0  0
   38.8530   24.7020   34.7040 C   0  0  0  0  0  0  0  0  0  0  0  0
   39.7690   22.8300   37.8120 C   0  0  0  0  0  0  0  0  0  0  0  0
   38.8390   23.3360   38.7270 C   0  0  0  0  0  0  0  0  0  0  0  0
   37.9230   24.3020   38.2660 C   0  0  0  0  0  0  0  0  0  0  0  0
   37.9830   24.6930   36.9710 N   0  0  0  0  0  0  0  0  0  0  0  0
   38.8990   24.1790   36.1130 C   0  0  0  0  0  0  0  0  0  0  0  0
   39.7690   23.2710   36.5230 N   0  0  0  0  0  0  0  0  0  0  0  0
   40.0505   26.3896   34.1619 H   0  0  0  0  0  0  0  0  0  0  0  0
   39.2056   26.5122   35.7649 H   0  0  0  0  0  0  0  0  0  0  0  0
   37.3757   27.7691   35.9514 H   0  0  0  0  0  0  0  0  0  0  0  0
   35.4974   29.1094   35.0449 H   0  0  0  0  0  0  0  0  0  0  0  0
   37.8592   24.5106   34.2730 H   0  0  0  0  0  0  0  0  0  0  0  0
   39.6169   24.1944   34.0967 H   0  0  0  0  0  0  0  0  0  0  0  0
   40.5012   22.0749   38.1340 H   0  0  0  0  0  0  0  0  0  0  0  0
   38.8237   22.9910   39.7714 H   0  0  0  0  0  0  0  0  0  0  0  0
   37.1723   24.7310   38.9460 H   0  0  0  0  0  0  0  0  0  0  0  0
  2  1  1  0
  2  3  2  0
  4  3  1  0
  5  4  2  0
  6  7  2  0
  6  5  1  0
  7  2  1  0
  8  6  1  0
  9  8  1  0
 10  8  1  0
 11  8  1  0
 12  1  1  0
 12 17  1  0
 13 14  2  0
 15 14  1  0
 16 15  2  0
 17 18  2  0
 17 16  1  0
 18 13  1  0
  1 19  1  0
  1 20  1  0
  3 21  1  0
  4 22  1  0
 12 23  1  0
 12 24  1  0
 13 25  1  0
 14 26  1  0
 15 27  1  0
M  ISO  8  19   8  20   8  21  14  22  14  23   8  24   8  25  14  26  14
M  ISO  1  27  14
M  END
>  <minimizedAffinity>  (1) 
-4.57632303

>  <minimizedRMSD>  (1) 
0.613016129

$$$$
