
     RDKit          3D

 25 27  0  0  1  0  0  0  0  0999 V2000
   38.1960   24.5520   34.7240 C   0  0  1  0  0  0  0  0  0  0  0  0
   38.5570   26.0110   34.3800 C   0  0  0  0  0  0  0  0  0  0  0  0
   39.3020   24.8810   33.8130 C   0  0  1  0  0  0  0  0  0  0  0  0
   39.6300   22.7610   37.5820 C   0  0  0  0  0  0  0  0  0  0  0  0
   38.9890   23.3350   38.6850 C   0  0  0  0  0  0  0  0  0  0  0  0
   38.0610   24.3480   38.4610 C   0  0  0  0  0  0  0  0  0  0  0  0
   37.8390   24.7170   37.1770 N   0  0  0  0  0  0  0  0  0  0  0  0
   38.4640   24.1530   36.1480 C   0  0  0  0  0  0  0  0  0  0  0  0
   39.3560   23.1810   36.3580 N   0  0  0  0  0  0  0  0  0  0  0  0
   40.5570   21.7230   37.8640 N   0  0  0  0  0  0  0  0  0  0  0  0
   40.7390   24.7220   34.1810 C   0  0  0  0  0  0  0  0  0  0  0  0
   41.3000   25.8890   34.7910 C   0  0  0  0  0  0  0  0  0  0  0  0
   43.0190   25.3590   35.1400 S   0  0  0  0  0  0  0  0  0  0  0  0
   42.7130   23.6570   34.4140 C   0  0  0  0  0  0  0  0  0  0  0  0
   41.3820   23.5830   33.9650 N   0  0  0  0  0  0  0  0  0  0  0  0
   37.3294   23.8790   34.6461 H   0  0  0  0  0  0  0  0  0  0  0  0
   37.8909   26.6114   33.7429 H   0  0  0  0  0  0  0  0  0  0  0  0
   38.8132   26.9143   34.9530 H   0  0  0  0  0  0  0  0  0  0  0  0
   39.5420   24.5255   32.8001 H   0  0  0  0  0  0  0  0  0  0  0  0
   39.2133   22.9935   39.7063 H   0  0  0  0  0  0  0  0  0  0  0  0
   37.5288   24.8300   39.2943 H   0  0  0  0  0  0  0  0  0  0  0  0
   41.0616   21.2601   37.0946 H   0  0  0  0  0  0  0  0  0  0  0  0
   40.7248   21.4329   38.8380 H   0  0  0  0  0  0  0  0  0  0  0  0
   40.8211   26.8575   34.9977 H   0  0  0  0  0  0  0  0  0  0  0  0
   43.4547   22.8472   34.3497 H   0  0  0  0  0  0  0  0  0  0  0  0
  1  8  1  0
  2  1  1  0
  3 11  1  0
  3  2  1  0
  3  1  1  0
  4 10  1  0
  4  5  2  0
  6  5  1  0
  7  6  2  0
  8  9  2  0
  8  7  1  0
  9  4  1  0
 11 12  2  0
 12 13  1  0
 14 13  1  0
 15 11  1  0
 15 14  2  0
  1 16  1  6
  2 17  1  0
  2 18  1  0
  3 19  1  6
  5 20  1  0
  6 21  1  0
 10 22  1  0
 10 23  1  0
 12 24  1  0
 14 25  1  0
M  ISO  8  16  13  17  13  18  13  19  13  20  14  21  14  24  14  25  14
M  END
>  <minimizedAffinity>  (1) 
-4.24634457

>  <minimizedRMSD>  (1) 
1.02515578

$$$$
