
     RDKit          3D

 20 21  0  0  1  0  0  0  0  0999 V2000
   39.6600   22.8730   37.5840 C   0  0  0  0  0  0  0  0  0  0  0  0
   38.8180   23.2330   38.6440 C   0  0  0  0  0  0  0  0  0  0  0  0
   37.9300   24.3080   38.4420 C   0  0  0  0  0  0  0  0  0  0  0  0
   37.9470   24.9240   37.2390 N   0  0  0  0  0  0  0  0  0  0  0  0
   38.7720   24.5440   36.2560 C   0  0  0  0  0  0  0  0  0  0  0  0
   39.6350   23.5200   36.4110 N   0  0  0  0  0  0  0  0  0  0  0  0
   38.7450   25.2310   34.9260 C   0  0  1  0  0  0  0  0  0  0  0  0
   39.6150   26.5020   34.8290 C   0  0  0  0  0  0  0  0  0  0  0  0
   39.9420   25.2580   34.0800 C   0  0  2  0  0  0  0  0  0  0  0  0
   39.6660   25.1960   32.2870 S   0  0  0  0  0  0  0  0  0  0  0  0
   40.5280   21.7750   37.8200 N   0  0  0  0  0  0  0  0  0  0  0  0
   38.8491   22.6942   39.6025 H   0  0  0  0  0  0  0  0  0  0  0  0
   37.2448   24.6355   39.2378 H   0  0  0  0  0  0  0  0  0  0  0  0
   37.6993   24.9445   34.7402 H   0  0  0  0  0  0  0  0  0  0  0  0
   39.2442   27.3903   34.2966 H   0  0  0  0  0  0  0  0  0  0  0  0
   40.1391   27.1574   35.5402 H   0  0  0  0  0  0  0  0  0  0  0  0
   40.8585   24.6539   34.0087 H   0  0  0  0  0  0  0  0  0  0  0  0
   38.3517   24.9008   32.0372 H   0  0  0  0  0  0  0  0  0  0  0  0
   41.1725   21.4599   37.0809 H   0  0  0  0  0  0  0  0  0  0  0  0
   40.5134   21.2933   38.7303 H   0  0  0  0  0  0  0  0  0  0  0  0
  1 11  1  0
  1  2  2  0
  3  2  1  0
  4  3  2  0
  5  6  2  0
  5  4  1  0
  6  1  1  0
  7  5  1  0
  8  7  1  0
  9  8  1  0
  9  7  1  0
 10  9  1  0
  2 12  1  0
  3 13  1  0
  7 14  1  6
  8 15  1  0
  8 16  1  0
  9 17  1  1
 10 18  1  0
 11 19  1  0
 11 20  1  0
M  ISO  7  12  14  13  14  14  13  15  13  16  13  17  13  18  11
M  END
>  <minimizedAffinity>  (1) 
-3.95150542

>  <minimizedRMSD>  (1) 
0.667328596

$$$$
