
     RDKit          3D

 43 46  0  0  1  0  0  0  0  0999 V2000
   39.0550   24.9550   34.6600 C   0  0  1  0  0  0  0  0  0  0  0  0
   39.7160   26.3490   34.4890 C   0  0  0  0  0  0  0  0  0  0  0  0
   40.3170   25.1360   33.9140 C   0  0  1  0  0  0  0  0  0  0  0  0
   39.7790   22.8050   37.5150 C   0  0  0  0  0  0  0  0  0  0  0  0
   38.9420   23.3120   38.5370 C   0  0  0  0  0  0  0  0  0  0  0  0
   38.1250   24.4200   38.2200 C   0  0  0  0  0  0  0  0  0  0  0  0
   38.2080   24.9140   36.9530 N   0  0  0  0  0  0  0  0  0  0  0  0
   39.0050   24.4080   36.0330 C   0  0  0  0  0  0  0  0  0  0  0  0
   39.7930   23.3670   36.2780 N   0  0  0  0  0  0  0  0  0  0  0  0
   40.5840   21.6920   37.8510 N   0  0  0  0  0  0  0  0  0  0  0  0
   41.5840   24.7270   34.5590 C   0  0  0  0  0  0  0  0  0  0  0  0
   41.9510   23.4270   34.3100 C   0  0  0  0  0  0  0  0  0  0  0  0
   43.1220   22.8430   34.8000 C   0  0  0  0  0  0  0  0  0  0  0  0
   43.9450   23.5840   35.5580 N   0  0  0  0  0  0  0  0  0  0  0  0
   43.5860   24.8720   35.8070 C   0  0  0  0  0  0  0  0  0  0  0  0
   42.4570   25.3900   35.3190 N   0  0  0  0  0  0  0  0  0  0  0  0
   44.4490   25.7500   36.6400 C   0  0  0  0  0  0  0  0  0  0  0  0
   45.6990   26.0580   35.8680 C   0  0  0  0  0  0  0  0  0  0  0  0
   46.9410   25.4270   36.4160 C   0  0  0  0  0  0  0  0  0  0  0  0
   47.0650   25.8770   37.8540 C   0  0  0  0  0  0  0  0  0  0  0  0
   45.9210   25.4080   38.6750 C   0  0  0  0  0  0  0  0  0  0  0  0
   44.6940   25.0160   37.9220 C   0  0  0  0  0  0  0  0  0  0  0  0
   38.1032   24.4581   34.4208 H   0  0  0  0  0  0  0  0  0  0  0  0
   39.2564   27.1038   33.8341 H   0  0  0  0  0  0  0  0  0  0  0  0
   40.0518   27.1490   35.1652 H   0  0  0  0  0  0  0  0  0  0  0  0
   40.6241   24.8144   32.9079 H   0  0  0  0  0  0  0  0  0  0  0  0
   38.9280   22.8606   39.5400 H   0  0  0  0  0  0  0  0  0  0  0  0
   37.4497   24.8655   38.9653 H   0  0  0  0  0  0  0  0  0  0  0  0
   41.2132   21.2803   37.1471 H   0  0  0  0  0  0  0  0  0  0  0  0
   40.5411   21.2930   38.7996 H   0  0  0  0  0  0  0  0  0  0  0  0
   41.2847   22.8102   33.6891 H   0  0  0  0  0  0  0  0  0  0  0  0
   43.3648   21.7953   34.5687 H   0  0  0  0  0  0  0  0  0  0  0  0
   43.9888   26.7194   36.8819 H   0  0  0  0  0  0  0  0  0  0  0  0
   45.8407   27.1488   35.8654 H   0  0  0  0  0  0  0  0  0  0  0  0
   45.5547   25.6394   34.8610 H   0  0  0  0  0  0  0  0  0  0  0  0
   46.8611   24.3309   36.3683 H   0  0  0  0  0  0  0  0  0  0  0  0
   47.8245   25.7256   35.8326 H   0  0  0  0  0  0  0  0  0  0  0  0
   47.9966   25.4716   38.2756 H   0  0  0  0  0  0  0  0  0  0  0  0
   47.0716   26.9769   37.8704 H   0  0  0  0  0  0  0  0  0  0  0  0
   46.2564   24.5331   39.2512 H   0  0  0  0  0  0  0  0  0  0  0  0
   45.6273   26.2685   39.2942 H   0  0  0  0  0  0  0  0  0  0  0  0
   43.8276   25.1859   38.5781 H   0  0  0  0  0  0  0  0  0  0  0  0
   44.8434   23.9639   37.6379 H   0  0  0  0  0  0  0  0  0  0  0  0
  1  8  1  0
  2  1  1  0
  3  2  1  0
  3 11  1  0
  3  1  1  0
  4 10  1  0
  4  5  2  0
  6  5  1  0
  7  6  2  0
  8  9  2  0
  8  7  1  0
  9  4  1  0
 11 16  1  0
 12 11  2  0
 12 13  1  0
 13 14  2  0
 14 15  1  0
 15 17  1  0
 16 15  2  0
 17 22  1  0
 18 19  1  0
 18 17  1  0
 19 20  1  0
 20 21  1  0
 22 21  1  0
  1 23  1  6
  2 24  1  0
  2 25  1  0
  3 26  1  6
  5 27  1  0
  6 28  1  0
 10 29  1  0
 10 30  1  0
 12 31  1  0
 13 32  1  0
 17 33  1  0
 18 34  1  0
 18 35  1  0
 19 36  1  0
 19 37  1  0
 20 38  1  0
 20 39  1  0
 21 40  1  0
 21 41  1  0
 22 42  1  0
 22 43  1  0
M  ISO  8  23  13  24  13  25  13  26  13  27  14  28  14  31  14  32  14
M  ISO  8  33  13  34  13  35  13  36  13  37  13  38  13  39  13  40  13
M  ISO  3  41  13  42  13  43  13
M  END
>  <minimizedAffinity>  (1) 
-5.89795876

>  <minimizedRMSD>  (1) 
1.39022648

$$$$
