
     RDKit          3D

 33 34  0  0  0  0  0  0  0  0999 V2000
   39.3140   26.4100   34.9050 C   0  0  0  0  0  0  0  0  0  0  0  0
   38.2370   27.1510   34.2040 C   0  0  0  0  0  0  0  0  0  0  0  0
   37.2320   27.7370   34.9330 C   0  0  0  0  0  0  0  0  0  0  0  0
   36.1770   28.4560   34.3510 C   0  0  0  0  0  0  0  0  0  0  0  0
   36.1770   28.5610   32.9920 N   0  0  0  0  0  0  0  0  0  0  0  0
   37.1620   27.9860   32.2690 C   0  0  0  0  0  0  0  0  0  0  0  0
   38.1590   27.3020   32.8860 N   0  0  0  0  0  0  0  0  0  0  0  0
   37.2720   28.0290   30.7870 C   0  0  0  0  0  0  0  0  0  0  0  0
   36.6280   29.2900   30.2970 C   0  0  0  0  0  0  0  0  0  0  0  0
   38.7750   28.0090   30.4980 C   0  0  0  0  0  0  0  0  0  0  0  0
   39.1800   24.9150   34.7610 C   0  0  0  0  0  0  0  0  0  0  0  0
   39.7820   22.7930   37.7790 C   0  0  0  0  0  0  0  0  0  0  0  0
   38.7850   23.2860   38.6560 C   0  0  0  0  0  0  0  0  0  0  0  0
   37.9460   24.3140   38.2030 C   0  0  0  0  0  0  0  0  0  0  0  0
   38.1220   24.7930   36.9490 N   0  0  0  0  0  0  0  0  0  0  0  0
   39.0930   24.2960   36.1270 C   0  0  0  0  0  0  0  0  0  0  0  0
   39.8950   23.3190   36.5470 N   0  0  0  0  0  0  0  0  0  0  0  0
   40.2834   26.7184   34.4865 H   0  0  0  0  0  0  0  0  0  0  0  0
   39.2391   26.6489   35.9761 H   0  0  0  0  0  0  0  0  0  0  0  0
   37.2550   27.6379   36.0283 H   0  0  0  0  0  0  0  0  0  0  0  0
   35.3862   28.9139   34.9633 H   0  0  0  0  0  0  0  0  0  0  0  0
   36.7704   27.1901   30.2824 H   0  0  0  0  0  0  0  0  0  0  0  0
   36.3161   29.9006   31.1572 H   0  0  0  0  0  0  0  0  0  0  0  0
   37.3474   29.8561   29.6871 H   0  0  0  0  0  0  0  0  0  0  0  0
   35.7477   29.0391   29.6871 H   0  0  0  0  0  0  0  0  0  0  0  0
   39.3308   28.0016   31.4472 H   0  0  0  0  0  0  0  0  0  0  0  0
   39.0252   27.1074   29.9196 H   0  0  0  0  0  0  0  0  0  0  0  0
   39.0491   28.9036   29.9196 H   0  0  0  0  0  0  0  0  0  0  0  0
   38.2689   24.6799   34.1913 H   0  0  0  0  0  0  0  0  0  0  0  0
   40.0542   24.5140   34.2272 H   0  0  0  0  0  0  0  0  0  0  0  0
   40.4574   21.9874   38.1029 H   0  0  0  0  0  0  0  0  0  0  0  0
   38.6716   22.8721   39.6688 H   0  0  0  0  0  0  0  0  0  0  0  0
   37.1597   24.7236   38.8541 H   0  0  0  0  0  0  0  0  0  0  0  0
  2  1  1  0
  2  3  2  0
  4  3  1  0
  5  4  2  0
  6  7  2  0
  6  5  1  0
  7  2  1  0
  8  6  1  0
  9  8  1  0
 10  8  1  0
 11  1  1  0
 11 16  1  0
 12 13  2  0
 14 13  1  0
 15 14  2  0
 16 17  2  0
 16 15  1  0
 17 12  1  0
  1 18  1  0
  1 19  1  0
  3 20  1  0
  4 21  1  0
  8 22  1  0
  9 23  1  0
  9 24  1  0
  9 25  1  0
 10 26  1  0
 10 27  1  0
 10 28  1  0
 11 29  1  0
 11 30  1  0
 12 31  1  0
 13 32  1  0
 14 33  1  0
M  ISO  8  18   8  19   8  20  14  21  14  22   8  23   8  24   8  25   8
M  ISO  8  26   8  27   8  28   8  29   8  30   8  31  14  32  14  33  14
M  END
>  <minimizedAffinity>  (1) 
-4.48776817

>  <minimizedRMSD>  (1) 
0.405948788

$$$$
