
     RDKit          3D

 40 43  0  0  1  0  0  0  0  0999 V2000
   38.1610   24.4070   34.6920 C   0  0  1  0  0  0  0  0  0  0  0  0
   38.7190   25.7500   34.1700 C   0  0  0  0  0  0  0  0  0  0  0  0
   39.2060   24.4650   33.6520 C   0  0  1  0  0  0  0  0  0  0  0  0
   39.6140   22.7250   37.5810 C   0  0  0  0  0  0  0  0  0  0  0  0
   38.9960   23.3600   38.6840 C   0  0  0  0  0  0  0  0  0  0  0  0
   38.0710   24.3880   38.4080 C   0  0  0  0  0  0  0  0  0  0  0  0
   37.8390   24.6940   37.1020 N   0  0  0  0  0  0  0  0  0  0  0  0
   38.4460   24.0670   36.1020 C   0  0  0  0  0  0  0  0  0  0  0  0
   39.3250   23.0930   36.3070 N   0  0  0  0  0  0  0  0  0  0  0  0
   40.5360   21.6910   37.8770 N   0  0  0  0  0  0  0  0  0  0  0  0
   40.6010   24.1500   34.0360 C   0  0  0  0  0  0  0  0  0  0  0  0
   41.0800   22.9820   33.4940 C   0  0  0  0  0  0  0  0  0  0  0  0
   42.3810   22.5080   33.7100 C   0  0  0  0  0  0  0  0  0  0  0  0
   43.2110   23.2130   34.4790 N   0  0  0  0  0  0  0  0  0  0  0  0
   42.7460   24.3670   35.0170 C   0  0  0  0  0  0  0  0  0  0  0  0
   41.4980   24.7970   34.7950 N   0  0  0  0  0  0  0  0  0  0  0  0
   43.5990   25.2140   35.8820 C   0  0  0  0  0  0  0  0  0  0  0  0
   44.8160   25.7510   35.2050 C   0  0  0  0  0  0  0  0  0  0  0  0
   45.7670   26.0750   36.3310 C   0  0  0  0  0  0  0  0  0  0  0  0
   45.1220   25.5450   37.5970 C   0  0  0  0  0  0  0  0  0  0  0  0
   44.1940   24.4470   37.0560 C   0  0  0  0  0  0  0  0  0  0  0  0
   37.1940   23.8872   34.7600 H   0  0  0  0  0  0  0  0  0  0  0  0
   38.0958   26.4011   33.5394 H   0  0  0  0  0  0  0  0  0  0  0  0
   39.1793   26.6398   34.6242 H   0  0  0  0  0  0  0  0  0  0  0  0
   39.2797   23.9957   32.6599 H   0  0  0  0  0  0  0  0  0  0  0  0
   39.2282   23.0631   39.7174 H   0  0  0  0  0  0  0  0  0  0  0  0
   37.5554   24.9234   39.2189 H   0  0  0  0  0  0  0  0  0  0  0  0
   41.0155   21.1942   37.1127 H   0  0  0  0  0  0  0  0  0  0  0  0
   40.7268   21.4360   38.8565 H   0  0  0  0  0  0  0  0  0  0  0  0
   40.4075   22.3881   32.8575 H   0  0  0  0  0  0  0  0  0  0  0  0
   42.7134   21.5655   33.2505 H   0  0  0  0  0  0  0  0  0  0  0  0
   42.8991   26.0091   36.1786 H   0  0  0  0  0  0  0  0  0  0  0  0
   45.2518   24.9963   34.5338 H   0  0  0  0  0  0  0  0  0  0  0  0
   44.5930   26.6296   34.5818 H   0  0  0  0  0  0  0  0  0  0  0  0
   46.7372   25.5845   36.1635 H   0  0  0  0  0  0  0  0  0  0  0  0
   45.9529   27.1570   36.3992 H   0  0  0  0  0  0  0  0  0  0  0  0
   45.8742   25.1286   38.2832 H   0  0  0  0  0  0  0  0  0  0  0  0
   44.5984   26.3163   38.1810 H   0  0  0  0  0  0  0  0  0  0  0  0
   43.4289   24.1523   37.7893 H   0  0  0  0  0  0  0  0  0  0  0  0
   44.6786   23.4915   36.8065 H   0  0  0  0  0  0  0  0  0  0  0  0
  1  8  1  0
  2  1  1  0
  3 11  1  0
  3  2  1  0
  3  1  1  0
  4 10  1  0
  4  5  2  0
  6  5  1  0
  7  6  2  0
  8  9  2  0
  8  7  1  0
  9  4  1  0
 11 16  2  0
 12 13  2  0
 12 11  1  0
 13 14  1  0
 14 15  2  0
 15 17  1  0
 16 15  1  0
 17 21  1  0
 18 17  1  0
 18 19  1  0
 19 20  1  0
 21 20  1  0
  1 22  1  6
  2 23  1  0
  2 24  1  0
  3 25  1  6
  5 26  1  0
  6 27  1  0
 10 28  1  0
 10 29  1  0
 12 30  1  0
 13 31  1  0
 17 32  1  0
 18 33  1  0
 18 34  1  0
 19 35  1  0
 19 36  1  0
 20 37  1  0
 20 38  1  0
 21 39  1  0
 21 40  1  0
M  ISO  8  22  13  23  13  24  13  25  13  26  14  27  14  30  14  31  14
M  ISO  8  32  13  33  13  34  13  35  13  36  13  37  13  38  13  39  13
M  ISO  1  40  13
M  END
>  <minimizedAffinity>  (1) 
-5.37181187

>  <minimizedRMSD>  (1) 
1.09812152

$$$$
