
     RDKit          3D

 34 37  0  0  1  0  0  0  0  0999 V2000
   39.0800   25.1920   34.7970 C   0  0  1  0  0  0  0  0  0  0  0  0
   39.8740   26.5260   34.7380 C   0  0  0  0  0  0  0  0  0  0  0  0
   40.3550   25.3170   34.0620 C   0  0  1  0  0  0  0  0  0  0  0  0
   39.7060   22.8380   37.5090 C   0  0  0  0  0  0  0  0  0  0  0  0
   38.8280   23.2640   38.5350 C   0  0  0  0  0  0  0  0  0  0  0  0
   38.0210   24.3890   38.2690 C   0  0  0  0  0  0  0  0  0  0  0  0
   38.1400   24.9830   37.0540 N   0  0  0  0  0  0  0  0  0  0  0  0
   38.9790   24.5450   36.1240 C   0  0  0  0  0  0  0  0  0  0  0  0
   39.7680   23.4860   36.3170 N   0  0  0  0  0  0  0  0  0  0  0  0
   40.5050   21.7020   37.7870 N   0  0  0  0  0  0  0  0  0  0  0  0
   41.5750   24.7330   34.6580 C   0  0  0  0  0  0  0  0  0  0  0  0
   41.9180   23.5010   34.1530 C   0  0  0  0  0  0  0  0  0  0  0  0
   43.0450   22.7800   34.5560 C   0  0  0  0  0  0  0  0  0  0  0  0
   43.8470   23.3060   35.4850 N   0  0  0  0  0  0  0  0  0  0  0  0
   43.5170   24.5280   35.9940 C   0  0  0  0  0  0  0  0  0  0  0  0
   42.4310   25.1850   35.5840 N   0  0  0  0  0  0  0  0  0  0  0  0
   44.3610   25.1560   37.0190 C   0  0  0  0  0  0  0  0  0  0  0  0
   45.5590   25.9490   36.5630 C   0  0  0  0  0  0  0  0  0  0  0  0
   45.7050   24.7140   37.3750 C   0  0  0  0  0  0  0  0  0  0  0  0
   38.0868   24.8071   34.5224 H   0  0  0  0  0  0  0  0  0  0  0  0
   39.4905   27.3737   34.1512 H   0  0  0  0  0  0  0  0  0  0  0  0
   40.2844   27.2305   35.4764 H   0  0  0  0  0  0  0  0  0  0  0  0
   40.6322   25.0557   33.0301 H   0  0  0  0  0  0  0  0  0  0  0  0
   38.7776   22.7386   39.5001 H   0  0  0  0  0  0  0  0  0  0  0  0
   37.3172   24.7733   39.0220 H   0  0  0  0  0  0  0  0  0  0  0  0
   41.1617   21.3480   37.0769 H   0  0  0  0  0  0  0  0  0  0  0  0
   40.4293   21.2299   38.6993 H   0  0  0  0  0  0  0  0  0  0  0  0
   41.2665   23.0566   33.3862 H   0  0  0  0  0  0  0  0  0  0  0  0
   43.2675   21.7968   34.1159 H   0  0  0  0  0  0  0  0  0  0  0  0
   43.4541   25.3184   37.6200 H   0  0  0  0  0  0  0  0  0  0  0  0
   45.8504   25.9529   35.5023 H   0  0  0  0  0  0  0  0  0  0  0  0
   45.8920   26.9936   36.6517 H   0  0  0  0  0  0  0  0  0  0  0  0
   46.0438   24.7845   38.4191 H   0  0  0  0  0  0  0  0  0  0  0  0
   46.2629   23.7742   37.2507 H   0  0  0  0  0  0  0  0  0  0  0  0
  1  8  1  0
  2  1  1  0
  3 11  1  0
  3  2  1  0
  3  1  1  0
  4 10  1  0
  4  5  2  0
  6  5  1  0
  7  6  2  0
  8  9  2  0
  8  7  1  0
  9  4  1  0
 11 16  2  0
 12 13  2  0
 12 11  1  0
 13 14  1  0
 14 15  2  0
 15 17  1  0
 16 15  1  0
 17 19  1  0
 18 17  1  0
 18 19  1  0
  1 20  1  6
  2 21  1  0
  2 22  1  0
  3 23  1  6
  5 24  1  0
  6 25  1  0
 10 26  1  0
 10 27  1  0
 12 28  1  0
 13 29  1  0
 17 30  1  0
 18 31  1  0
 18 32  1  0
 19 33  1  0
 19 34  1  0
M  ISO  8  20  13  21  13  22  13  23  13  24  14  25  14  28  14  29  14
M  ISO  5  30  13  31  13  32  13  33  13  34  13
M  END
>  <minimizedAffinity>  (1) 
-5.12939167

>  <minimizedRMSD>  (1) 
1.53940928

$$$$
