
     RDKit          3D

 37 40  0  0  1  0  0  0  0  0999 V2000
   36.7130   21.1150   32.4280 C   0  0  1  0  0  0  0  0  0  0  0  0
   35.3220   21.7900   32.2850 C   0  0  0  0  0  0  0  0  0  0  0  0
   36.3840   22.0040   31.2970 C   0  0  1  0  0  0  0  0  0  0  0  0
   39.6640   22.0550   34.3520 C   0  0  0  0  0  0  0  0  0  0  0  0
   39.1530   22.3120   35.6470 C   0  0  0  0  0  0  0  0  0  0  0  0
   37.7610   22.1600   35.8390 C   0  0  0  0  0  0  0  0  0  0  0  0
   37.0130   21.7790   34.7680 N   0  0  0  0  0  0  0  0  0  0  0  0
   37.5440   21.5490   33.5720 C   0  0  0  0  0  0  0  0  0  0  0  0
   38.8410   21.6780   33.3400 N   0  0  0  0  0  0  0  0  0  0  0  0
   41.0610   22.2050   34.1840 N   0  0  0  0  0  0  0  0  0  0  0  0
   36.9400   23.3780   31.2870 C   0  0  0  0  0  0  0  0  0  0  0  0
   37.9870   23.5540   30.4140 C   0  0  0  0  0  0  0  0  0  0  0  0
   38.6400   24.7830   30.2380 C   0  0  0  0  0  0  0  0  0  0  0  0
   38.2300   25.8460   30.9500 N   0  0  0  0  0  0  0  0  0  0  0  0
   37.2040   25.6710   31.8030 C   0  0  0  0  0  0  0  0  0  0  0  0
   36.5990   24.4890   31.9530 N   0  0  0  0  0  0  0  0  0  0  0  0
   36.7360   26.7830   32.5830 C   0  0  0  0  0  0  0  0  0  0  0  0
   37.1020   26.9770   33.9000 C   0  0  0  0  0  0  0  0  0  0  0  0
   36.6030   28.0750   34.5760 C   0  0  0  0  0  0  0  0  0  0  0  0
   35.7530   29.0110   34.0260 C   0  0  0  0  0  0  0  0  0  0  0  0
   35.4280   28.7580   32.7100 C   0  0  0  0  0  0  0  0  0  0  0  0
   35.8740   27.6920   31.9560 C   0  0  0  0  0  0  0  0  0  0  0  0
   37.1370   20.1021   32.4927 H   0  0  0  0  0  0  0  0  0  0  0  0
   34.4379   21.1885   32.0270 H   0  0  0  0  0  0  0  0  0  0  0  0
   34.6918   22.4349   32.9151 H   0  0  0  0  0  0  0  0  0  0  0  0
   36.4798   21.8685   30.2096 H   0  0  0  0  0  0  0  0  0  0  0  0
   39.8136   22.6181   36.4716 H   0  0  0  0  0  0  0  0  0  0  0  0
   37.2984   22.3433   36.8200 H   0  0  0  0  0  0  0  0  0  0  0  0
   41.4906   22.0316   33.2641 H   0  0  0  0  0  0  0  0  0  0  0  0
   41.6482   22.4876   34.9816 H   0  0  0  0  0  0  0  0  0  0  0  0
   38.3291   22.6900   29.8254 H   0  0  0  0  0  0  0  0  0  0  0  0
   39.4750   24.8750   29.5279 H   0  0  0  0  0  0  0  0  0  0  0  0
   37.7788   26.2704   34.4027 H   0  0  0  0  0  0  0  0  0  0  0  0
   36.9049   28.2112   35.6249 H   0  0  0  0  0  0  0  0  0  0  0  0
   35.3702   29.8779   34.5844 H   0  0  0  0  0  0  0  0  0  0  0  0
   34.7514   29.4711   32.2163 H   0  0  0  0  0  0  0  0  0  0  0  0
   35.5661   27.5616   30.9081 H   0  0  0  0  0  0  0  0  0  0  0  0
  1  8  1  0
  2  1  1  0
  3  2  1  0
  3  1  1  0
  4  5  2  0
  5  6  1  0
  7  6  2  0
  8  7  1  0
  9  8  2  0
  9  4  1  0
 10  4  1  0
 11  3  1  0
 11 16  1  0
 12 11  2  0
 13 12  1  0
 13 14  2  0
 14 15  1  0
 15 16  2  0
 15 17  1  0
 17 18  2  0
 18 19  1  0
 20 19  2  0
 21 20  1  0
 22 17  1  0
 22 21  2  0
  1 23  1  6
  2 24  1  0
  2 25  1  0
  3 26  1  6
  5 27  1  0
  6 28  1  0
 10 29  1  0
 10 30  1  0
 12 31  1  0
 13 32  1  0
 18 33  1  0
 19 34  1  0
 20 35  1  0
 21 36  1  0
 22 37  1  0
M  ISO  8  23  13  24  13  25  13  26  13  27  14  28  14  31  14  32  14
M  ISO  5  33  14  34  14  35  14  36  14  37  14
M  END
>  <minimizedAffinity>  (1) 
-5.11925554

>  <minimizedRMSD>  (1) 
5.83145809

$$$$
