
     RDKit          3D

 39 41  0  0  1  0  0  0  0  0999 V2000
   38.6300   24.5260   36.9720 C   0  0  1  0  0  0  0  0  0  0  0  0
   37.4230   23.6050   37.2890 C   0  0  0  0  0  0  0  0  0  0  0  0
   38.7170   23.0580   36.8450 C   0  0  1  0  0  0  0  0  0  0  0  0
   39.5590   26.7250   34.2160 C   0  0  0  0  0  0  0  0  0  0  0  0
   38.3190   27.1440   33.6890 C   0  0  0  0  0  0  0  0  0  0  0  0
   37.1480   26.6430   34.3000 C   0  0  0  0  0  0  0  0  0  0  0  0
   37.3030   25.7930   35.3540 N   0  0  0  0  0  0  0  0  0  0  0  0
   38.4880   25.4310   35.8110 C   0  0  0  0  0  0  0  0  0  0  0  0
   39.6250   25.8760   35.2670 N   0  0  0  0  0  0  0  0  0  0  0  0
   40.7220   27.2470   33.5950 N   0  0  0  0  0  0  0  0  0  0  0  0
   38.6710   22.4660   35.4870 C   0  0  0  0  0  0  0  0  0  0  0  0
   39.9000   22.3360   34.8860 C   0  0  0  0  0  0  0  0  0  0  0  0
   40.0870   21.7840   33.6130 C   0  0  0  0  0  0  0  0  0  0  0  0
   39.0120   21.3510   32.9330 N   0  0  0  0  0  0  0  0  0  0  0  0
   37.8070   21.4780   33.5220 C   0  0  0  0  0  0  0  0  0  0  0  0
   37.6510   22.0080   34.7360 N   0  0  0  0  0  0  0  0  0  0  0  0
   36.5250   21.0410   32.8820 C   0  0  0  0  0  0  0  0  0  0  0  0
   36.8110   19.9040   31.9500 C   0  0  0  0  0  0  0  0  0  0  0  0
   35.5410   20.6080   33.9180 C   0  0  0  0  0  0  0  0  0  0  0  0
   35.9380   22.2410   32.1300 C   0  0  0  0  0  0  0  0  0  0  0  0
   39.2545   25.2739   37.4826 H   0  0  0  0  0  0  0  0  0  0  0  0
   37.0894   23.4660   38.3279 H   0  0  0  0  0  0  0  0  0  0  0  0
   36.3790   23.5308   36.9505 H   0  0  0  0  0  0  0  0  0  0  0  0
   39.4432   22.3332   37.2416 H   0  0  0  0  0  0  0  0  0  0  0  0
   38.2661   27.8348   32.8346 H   0  0  0  0  0  0  0  0  0  0  0  0
   36.1489   26.9281   33.9388 H   0  0  0  0  0  0  0  0  0  0  0  0
   40.6342   27.8915   32.7964 H   0  0  0  0  0  0  0  0  0  0  0  0
   41.6546   26.9817   33.9425 H   0  0  0  0  0  0  0  0  0  0  0  0
   40.7864   22.6852   35.4359 H   0  0  0  0  0  0  0  0  0  0  0  0
   41.0943   21.7063   33.1780 H   0  0  0  0  0  0  0  0  0  0  0  0
   37.0384   18.9998   32.5337 H   0  0  0  0  0  0  0  0  0  0  0  0
   35.9313   19.7195   31.3159 H   0  0  0  0  0  0  0  0  0  0  0  0
   37.6733   20.1577   31.3159 H   0  0  0  0  0  0  0  0  0  0  0  0
   35.9580   20.7915   34.9192 H   0  0  0  0  0  0  0  0  0  0  0  0
   34.6082   21.1788   33.7990 H   0  0  0  0  0  0  0  0  0  0  0  0
   35.3317   19.5347   33.7990 H   0  0  0  0  0  0  0  0  0  0  0  0
   35.5741   22.9850   32.8539 H   0  0  0  0  0  0  0  0  0  0  0  0
   36.7162   22.6942   31.4983 H   0  0  0  0  0  0  0  0  0  0  0  0
   35.1026   21.9049   31.4983 H   0  0  0  0  0  0  0  0  0  0  0  0
  1  2  1  0
  3  1  1  0
  3  2  1  0
  4  9  2  0
  5  4  1  0
  5  6  2  0
  6  7  1  0
  7  8  2  0
  8  1  1  0
  9  8  1  0
 10  4  1  0
 11  3  1  0
 12 11  2  0
 13 12  1  0
 14 15  1  0
 14 13  2  0
 15 16  2  0
 16 11  1  0
 17 15  1  0
 17 19  1  0
 18 17  1  0
 20 17  1  0
  1 21  1  1
  2 22  1  0
  2 23  1  0
  3 24  1  1
  5 25  1  0
  6 26  1  0
 10 27  1  0
 10 28  1  0
 12 29  1  0
 13 30  1  0
 18 31  1  0
 18 32  1  0
 18 33  1  0
 19 34  1  0
 19 35  1  0
 19 36  1  0
 20 37  1  0
 20 38  1  0
 20 39  1  0
M  ISO  8  21  13  22  13  23  13  24  13  25  14  26  14  29  14  30  14
M  ISO  8  31   8  32   8  33   8  34   8  35   8  36   8  37   8  38   8
M  ISO  1  39   8
M  END
>  <minimizedAffinity>  (1) 
-4.8258667

>  <minimizedRMSD>  (1) 
5.94927502

$$$$
