
     RDKit          3D

 30 32  0  0  1  0  0  0  0  0999 V2000
   38.8220   25.1250   34.8540 C   0  0  1  0  0  0  0  0  0  0  0  0
   39.5900   26.4640   34.6970 C   0  0  0  0  0  0  0  0  0  0  0  0
   40.0300   25.2380   34.0140 C   0  0  1  0  0  0  0  0  0  0  0  0
   39.6730   22.8350   37.5600 C   0  0  0  0  0  0  0  0  0  0  0  0
   38.8800   23.2830   38.6400 C   0  0  0  0  0  0  0  0  0  0  0  0
   38.0490   24.4010   38.4170 C   0  0  0  0  0  0  0  0  0  0  0  0
   38.0750   24.9630   37.1760 N   0  0  0  0  0  0  0  0  0  0  0  0
   38.8330   24.5090   36.1980 C   0  0  0  0  0  0  0  0  0  0  0  0
   39.6340   23.4610   36.3550 N   0  0  0  0  0  0  0  0  0  0  0  0
   40.4950   21.7060   37.7990 N   0  0  0  0  0  0  0  0  0  0  0  0
   41.3050   24.6850   34.5300 C   0  0  0  0  0  0  0  0  0  0  0  0
   41.6270   23.4500   34.0230 C   0  0  0  0  0  0  0  0  0  0  0  0
   42.7980   22.7580   34.3580 C   0  0  0  0  0  0  0  0  0  0  0  0
   43.6580   23.3190   35.2170 N   0  0  0  0  0  0  0  0  0  0  0  0
   43.3440   24.5460   35.7250 C   0  0  0  0  0  0  0  0  0  0  0  0
   42.2210   25.1770   35.3850 N   0  0  0  0  0  0  0  0  0  0  0  0
   44.2480   25.2060   36.6680 C   0  0  0  0  0  0  0  0  0  0  0  0
   37.8133   24.7257   34.6718 H   0  0  0  0  0  0  0  0  0  0  0  0
   39.1496   27.2916   34.1216 H   0  0  0  0  0  0  0  0  0  0  0  0
   40.0500   27.1925   35.3808 H   0  0  0  0  0  0  0  0  0  0  0  0
   40.2246   24.9481   32.9709 H   0  0  0  0  0  0  0  0  0  0  0  0
   38.9094   22.7793   39.6175 H   0  0  0  0  0  0  0  0  0  0  0  0
   37.4056   24.8031   39.2134 H   0  0  0  0  0  0  0  0  0  0  0  0
   41.0939   21.3365   37.0469 H   0  0  0  0  0  0  0  0  0  0  0  0
   40.4936   21.2547   38.7249 H   0  0  0  0  0  0  0  0  0  0  0  0
   40.9281   22.9790   33.3161 H   0  0  0  0  0  0  0  0  0  0  0  0
   43.0074   21.7699   33.9224 H   0  0  0  0  0  0  0  0  0  0  0  0
   43.9348   24.9773   37.6974 H   0  0  0  0  0  0  0  0  0  0  0  0
   45.2739   24.8430   36.5077 H   0  0  0  0  0  0  0  0  0  0  0  0
   44.2147   26.2937   36.5077 H   0  0  0  0  0  0  0  0  0  0  0  0
  1  8  1  0
  2  1  1  0
  3 11  1  0
  3  2  1  0
  3  1  1  0
  4 10  1  0
  4  5  2  0
  6  5  1  0
  7  6  2  0
  8  9  2  0
  8  7  1  0
  9  4  1  0
 11 16  2  0
 12 13  2  0
 12 11  1  0
 13 14  1  0
 14 15  2  0
 15 17  1  0
 16 15  1  0
  1 18  1  6
  2 19  1  0
  2 20  1  0
  3 21  1  6
  5 22  1  0
  6 23  1  0
 10 24  1  0
 10 25  1  0
 12 26  1  0
 13 27  1  0
 17 28  1  0
 17 29  1  0
 17 30  1  0
M  ISO  8  18  13  19  13  20  13  21  13  22  14  23  14  26  14  27  14
M  ISO  3  28   8  29   8  30   8
M  END
>  <minimizedAffinity>  (1) 
-4.7417841

>  <minimizedRMSD>  (1) 
1.02634835

$$$$
