
     RDKit          3D

 28 30  0  0  1  0  0  0  0  0999 V2000
   38.1630   24.3870   34.6830 C   0  0  1  0  0  0  0  0  0  0  0  0
   38.5280   25.8170   34.2050 C   0  0  0  0  0  0  0  0  0  0  0  0
   39.2230   24.6370   33.6860 C   0  0  1  0  0  0  0  0  0  0  0  0
   39.6270   22.7380   37.5850 C   0  0  0  0  0  0  0  0  0  0  0  0
   39.0060   23.3760   38.6830 C   0  0  0  0  0  0  0  0  0  0  0  0
   38.0750   24.3980   38.3990 C   0  0  0  0  0  0  0  0  0  0  0  0
   37.8410   24.6940   37.0910 N   0  0  0  0  0  0  0  0  0  0  0  0
   38.4520   24.0630   36.0960 C   0  0  0  0  0  0  0  0  0  0  0  0
   39.3350   23.0970   36.3080 N   0  0  0  0  0  0  0  0  0  0  0  0
   40.5530   21.7110   37.8880 N   0  0  0  0  0  0  0  0  0  0  0  0
   40.6400   24.5280   34.1150 C   0  0  0  0  0  0  0  0  0  0  0  0
   41.2530   23.3590   33.7330 C   0  0  0  0  0  0  0  0  0  0  0  0
   42.5910   23.0610   34.0150 C   0  0  0  0  0  0  0  0  0  0  0  0
   43.3230   23.9510   34.6910 N   0  0  0  0  0  0  0  0  0  0  0  0
   42.7210   25.1090   35.0710 C   0  0  0  0  0  0  0  0  0  0  0  0
   41.4430   25.3620   34.7860 N   0  0  0  0  0  0  0  0  0  0  0  0
   43.4250   26.0560   35.7670 O   0  0  0  0  0  0  0  0  0  0  0  0
   37.2870   23.7221   34.7039 H   0  0  0  0  0  0  0  0  0  0  0  0
   37.8356   26.3797   33.5617 H   0  0  0  0  0  0  0  0  0  0  0  0
   38.8293   26.7560   34.6924 H   0  0  0  0  0  0  0  0  0  0  0  0
   39.4031   24.2109   32.6880 H   0  0  0  0  0  0  0  0  0  0  0  0
   39.2393   23.0872   39.7184 H   0  0  0  0  0  0  0  0  0  0  0  0
   37.5567   24.9364   39.2061 H   0  0  0  0  0  0  0  0  0  0  0  0
   41.0355   21.2117   37.1272 H   0  0  0  0  0  0  0  0  0  0  0  0
   40.7443   21.4631   38.8692 H   0  0  0  0  0  0  0  0  0  0  0  0
   40.6606   22.6182   33.1760 H   0  0  0  0  0  0  0  0  0  0  0  0
   43.0329   22.1092   33.6853 H   0  0  0  0  0  0  0  0  0  0  0  0
   42.9833   26.8982   36.0421 H   0  0  0  0  0  0  0  0  0  0  0  0
  1  8  1  0
  2  1  1  0
  3 11  1  0
  3  2  1  0
  3  1  1  0
  4 10  1  0
  4  5  2  0
  6  5  1  0
  7  6  2  0
  8  9  2  0
  8  7  1  0
  9  4  1  0
 11 16  2  0
 12 13  2  0
 12 11  1  0
 13 14  1  0
 14 15  2  0
 15 17  1  0
 16 15  1  0
  1 18  1  6
  2 19  1  0
  2 20  1  0
  3 21  1  6
  5 22  1  0
  6 23  1  0
 10 24  1  0
 10 25  1  0
 12 26  1  0
 13 27  1  0
 17 28  1  0
M  ISO  8  18  13  19  13  20  13  21  13  22  14  23  14  26  14  27  14
M  ISO  1  28   3
M  END
>  <minimizedAffinity>  (1) 
-4.66078377

>  <minimizedRMSD>  (1) 
0.336413205

$$$$
