
     RDKit          3D

 29 31  0  0  1  0  0  0  0  0999 V2000
   38.2040   24.2690   34.5810 C   0  0  1  0  0  0  0  0  0  0  0  0
   38.6050   25.6770   34.0630 C   0  0  0  0  0  0  0  0  0  0  0  0
   39.2830   24.4610   33.5920 C   0  0  1  0  0  0  0  0  0  0  0  0
   40.6890   24.3450   34.0500 C   0  0  0  0  0  0  0  0  0  0  0  0
   41.2870   23.1490   33.7290 C   0  0  0  0  0  0  0  0  0  0  0  0
   42.6190   22.8450   34.0460 C   0  0  0  0  0  0  0  0  0  0  0  0
   43.3550   23.7520   34.6930 N   0  0  0  0  0  0  0  0  0  0  0  0
   42.7700   24.9420   35.0160 C   0  0  0  0  0  0  0  0  0  0  0  0
   41.5030   25.2010   34.7000 N   0  0  0  0  0  0  0  0  0  0  0  0
   43.4700   25.9740   35.7050 N   0  0  0  0  0  0  0  0  0  0  0  0
   39.6240   22.7230   37.5630 C   0  0  0  0  0  0  0  0  0  0  0  0
   38.9700   23.3850   38.6280 C   0  0  0  0  0  0  0  0  0  0  0  0
   38.0330   24.3860   38.2930 C   0  0  0  0  0  0  0  0  0  0  0  0
   37.8310   24.6340   36.9700 N   0  0  0  0  0  0  0  0  0  0  0  0
   38.4650   23.9900   36.0100 C   0  0  0  0  0  0  0  0  0  0  0  0
   39.3550   23.0420   36.2700 N   0  0  0  0  0  0  0  0  0  0  0  0
   40.5540   21.7180   37.9190 N   0  0  0  0  0  0  0  0  0  0  0  0
   37.3148   23.6220   34.6096 H   0  0  0  0  0  0  0  0  0  0  0  0
   37.9337   26.2328   33.3918 H   0  0  0  0  0  0  0  0  0  0  0  0
   38.9192   26.6252   34.5237 H   0  0  0  0  0  0  0  0  0  0  0  0
   39.4671   23.9945   32.6130 H   0  0  0  0  0  0  0  0  0  0  0  0
   40.6909   22.3929   33.1970 H   0  0  0  0  0  0  0  0  0  0  0  0
   43.0512   21.8731   33.7656 H   0  0  0  0  0  0  0  0  0  0  0  0
   42.9925   26.8583   35.9305 H   0  0  0  0  0  0  0  0  0  0  0  0
   44.4536   25.8358   35.9776 H   0  0  0  0  0  0  0  0  0  0  0  0
   39.1833   23.1297   39.6765 H   0  0  0  0  0  0  0  0  0  0  0  0
   37.4882   24.9430   39.0695 H   0  0  0  0  0  0  0  0  0  0  0  0
   41.0607   21.2020   37.1855 H   0  0  0  0  0  0  0  0  0  0  0  0
   40.7244   21.5023   38.9116 H   0  0  0  0  0  0  0  0  0  0  0  0
  1 15  1  0
  2  1  1  0
  3  4  1  0
  3  2  1  0
  3  1  1  0
  4  9  2  0
  5  6  2  0
  5  4  1  0
  6  7  1  0
  7  8  2  0
  8 10  1  0
  9  8  1  0
 11 17  1  0
 11 12  2  0
 13 12  1  0
 14 13  2  0
 15 16  2  0
 15 14  1  0
 16 11  1  0
  1 18  1  6
  2 19  1  0
  2 20  1  0
  3 21  1  6
  5 22  1  0
  6 23  1  0
 10 24  1  0
 10 25  1  0
 12 26  1  0
 13 27  1  0
 17 28  1  0
 17 29  1  0
M  ISO  8  18  13  19  13  20  13  21  13  22  14  23  14  26  14  27  14
M  END
>  <minimizedAffinity>  (1) 
-4.6095047

>  <minimizedRMSD>  (1) 
0.437755495

$$$$
