
     RDKit          3D

 31 33  0  0  0  0  0  0  0  0999 V2000
   39.0330   26.1700   34.6460 C   0  0  0  0  0  0  0  0  0  0  0  0
   38.0130   27.0430   34.0340 C   0  0  0  0  0  0  0  0  0  0  0  0
   37.1170   27.7030   34.8360 C   0  0  0  0  0  0  0  0  0  0  0  0
   36.1050   28.5570   34.3760 C   0  0  0  0  0  0  0  0  0  0  0  0
   36.0350   28.7180   33.0290 N   0  0  0  0  0  0  0  0  0  0  0  0
   36.9130   28.0720   32.2110 C   0  0  0  0  0  0  0  0  0  0  0  0
   37.8530   27.2710   32.7450 N   0  0  0  0  0  0  0  0  0  0  0  0
   36.8800   28.2140   30.7240 C   0  0  0  0  0  0  0  0  0  0  0  0
   37.4620   29.5140   30.1690 C   0  0  0  0  0  0  0  0  0  0  0  0
   38.1470   28.2200   29.9550 C   0  0  0  0  0  0  0  0  0  0  0  0
   38.6300   24.7200   34.6570 C   0  0  0  0  0  0  0  0  0  0  0  0
   39.7210   22.8240   37.6880 C   0  0  0  0  0  0  0  0  0  0  0  0
   38.8580   23.3380   38.6610 C   0  0  0  0  0  0  0  0  0  0  0  0
   37.9190   24.3160   38.2840 C   0  0  0  0  0  0  0  0  0  0  0  0
   37.9000   24.7150   36.9770 N   0  0  0  0  0  0  0  0  0  0  0  0
   38.7600   24.1880   36.0670 C   0  0  0  0  0  0  0  0  0  0  0  0
   39.6500   23.2610   36.4180 N   0  0  0  0  0  0  0  0  0  0  0  0
   39.1983   26.4966   35.6833 H   0  0  0  0  0  0  0  0  0  0  0  0
   39.9474   26.2547   34.0405 H   0  0  0  0  0  0  0  0  0  0  0  0
   37.1988   27.5506   35.9223 H   0  0  0  0  0  0  0  0  0  0  0  0
   35.4114   29.0647   35.0624 H   0  0  0  0  0  0  0  0  0  0  0  0
   35.9411   27.6471   30.6394 H   0  0  0  0  0  0  0  0  0  0  0  0
   36.9705   30.0249   29.3280 H   0  0  0  0  0  0  0  0  0  0  0  0
   37.7442   30.4895   30.5917 H   0  0  0  0  0  0  0  0  0  0  0  0
   38.1740   27.7789   28.9477 H   0  0  0  0  0  0  0  0  0  0  0  0
   39.1640   27.8508   30.1534 H   0  0  0  0  0  0  0  0  0  0  0  0
   37.5872   24.6236   34.3203 H   0  0  0  0  0  0  0  0  0  0  0  0
   39.2802   24.1465   33.9800 H   0  0  0  0  0  0  0  0  0  0  0  0
   40.4616   22.0585   37.9627 H   0  0  0  0  0  0  0  0  0  0  0  0
   38.9121   22.9845   39.7013 H   0  0  0  0  0  0  0  0  0  0  0  0
   37.2220   24.7459   39.0184 H   0  0  0  0  0  0  0  0  0  0  0  0
  1 11  1  0
  2  1  1  0
  2  3  2  0
  4  3  1  0
  5  4  2  0
  6  7  2  0
  6  5  1  0
  7  2  1  0
  8  6  1  0
  9  8  1  0
 10  9  1  0
 10  8  1  0
 11 16  1  0
 12 13  2  0
 14 13  1  0
 15 14  2  0
 16 17  2  0
 16 15  1  0
 17 12  1  0
  1 18  1  0
  1 19  1  0
  3 20  1  0
  4 21  1  0
  8 22  1  0
  9 23  1  0
  9 24  1  0
 10 25  1  0
 10 26  1  0
 11 27  1  0
 11 28  1  0
 12 29  1  0
 13 30  1  0
 14 31  1  0
M  ISO  8  18   8  19   8  20  14  21  14  22  13  23  13  24  13  25  13
M  ISO  6  26  13  27   8  28   8  29  14  30  14  31  14
M  END
>  <minimizedAffinity>  (1) 
-4.39409637

>  <minimizedRMSD>  (1) 
0.577712893

$$$$
