
     RDKit          3D

 41 45  0  0  1  0  0  0  0  0999 V2000
   41.6840   24.7620   34.7550 C   0  0  0  0  0  0  0  0  0  0  0  0
   41.8170   23.4500   34.4020 C   0  0  0  0  0  0  0  0  0  0  0  0
   42.8740   22.6420   34.8420 C   0  0  0  0  0  0  0  0  0  0  0  0
   43.8050   23.1630   35.6460 N   0  0  0  0  0  0  0  0  0  0  0  0
   43.6780   24.4700   36.0020 C   0  0  0  0  0  0  0  0  0  0  0  0
   42.6660   25.2180   35.5720 N   0  0  0  0  0  0  0  0  0  0  0  0
   42.9800   21.2770   34.4540 N   0  0  0  0  0  0  0  0  0  0  0  0
   43.0010   20.8420   33.1720 C   0  0  0  0  0  0  0  0  0  0  0  0
   43.1090   19.5110   33.1100 N   0  0  0  0  0  0  0  0  0  0  0  0
   43.1550   19.0960   34.3880 C   0  0  0  0  0  0  0  0  0  0  0  0
   43.2600   17.8740   35.0210 C   0  0  0  0  0  0  0  0  0  0  0  0
   43.2880   17.7020   36.3540 N   0  0  0  0  0  0  0  0  0  0  0  0
   43.2080   18.8030   37.1500 C   0  0  0  0  0  0  0  0  0  0  0  0
   43.1020   20.0360   36.5790 N   0  0  0  0  0  0  0  0  0  0  0  0
   43.0770   20.1810   35.2380 C   0  0  0  0  0  0  0  0  0  0  0  0
   39.2090   25.3440   34.8820 C   0  0  1  0  0  0  0  0  0  0  0  0
   40.0880   26.6410   34.8840 C   0  0  0  0  0  0  0  0  0  0  0  0
   40.5000   25.4520   34.1570 C   0  0  1  0  0  0  0  0  0  0  0  0
   39.6940   22.8600   37.4940 C   0  0  0  0  0  0  0  0  0  0  0  0
   38.7680   23.2410   38.4910 C   0  0  0  0  0  0  0  0  0  0  0  0
   37.9760   24.3900   38.2390 C   0  0  0  0  0  0  0  0  0  0  0  0
   38.1640   25.0470   37.0520 N   0  0  0  0  0  0  0  0  0  0  0  0
   39.0440   24.6440   36.1600 C   0  0  0  0  0  0  0  0  0  0  0  0
   39.8160   23.5720   36.3440 N   0  0  0  0  0  0  0  0  0  0  0  0
   40.4590   21.7090   37.7570 N   0  0  0  0  0  0  0  0  0  0  0  0
   44.6700   25.1410   36.8880 C   0  0  0  0  0  0  0  0  0  0  0  0
   44.1780   25.2780   38.1440 F   0  0  0  0  0  0  0  0  0  0  0  0
   45.0900   26.3260   36.3180 F   0  0  0  0  0  0  0  0  0  0  0  0
   45.7720   24.2640   36.9310 F   0  0  0  0  0  0  0  0  0  0  0  0
   41.0584   23.0060   33.7407 H   0  0  0  0  0  0  0  0  0  0  0  0
   42.9373   21.5003   32.2930 H   0  0  0  0  0  0  0  0  0  0  0  0
   43.3255   16.9760   34.3891 H   0  0  0  0  0  0  0  0  0  0  0  0
   43.2287   18.6986   38.2448 H   0  0  0  0  0  0  0  0  0  0  0  0
   38.1998   25.0200   34.5877 H   0  0  0  0  0  0  0  0  0  0  0  0
   39.7551   27.5360   34.3379 H   0  0  0  0  0  0  0  0  0  0  0  0
   40.5364   27.2844   35.6554 H   0  0  0  0  0  0  0  0  0  0  0  0
   40.7717   25.2385   33.1127 H   0  0  0  0  0  0  0  0  0  0  0  0
   38.6656   22.6693   39.4251 H   0  0  0  0  0  0  0  0  0  0  0  0
   37.2354   24.7419   38.9723 H   0  0  0  0  0  0  0  0  0  0  0  0
   41.1508   21.3818   37.0676 H   0  0  0  0  0  0  0  0  0  0  0  0
   40.3273   21.1935   38.6390 H   0  0  0  0  0  0  0  0  0  0  0  0
  1  6  1  0
  2  1  2  0
  2  3  1  0
  3  4  2  0
  4  5  1  0
  5 26  1  0
  6  5  2  0
  7  3  1  0
  7 15  1  0
  8  7  1  0
  9  8  2  0
  9 10  1  0
 10 11  2  0
 10 15  1  0
 11 12  1  0
 12 13  2  0
 14 13  1  0
 15 14  2  0
 16 17  1  0
 16 23  1  0
 18  1  1  0
 18 16  1  0
 18 17  1  0
 19 25  1  0
 19 20  2  0
 21 20  1  0
 22 21  2  0
 23 24  2  0
 23 22  1  0
 24 19  1  0
 26 29  1  0
 26 27  1  0
 28 26  1  0
  2 30  1  0
  8 31  1  0
 11 32  1  0
 13 33  1  0
 16 34  1  6
 17 35  1  0
 17 36  1  0
 18 37  1  6
 20 38  1  0
 21 39  1  0
 25 40  1  0
 25 41  1  0
M  ISO  8  30  14  31  14  32  14  33  14  34  13  35  13  36  13  37  13
M  ISO  2  38  14  39  14
M  END
>  <minimizedAffinity>  (1) 
-6.24892807

>  <minimizedRMSD>  (1) 
0.616032958

$$$$
