
     RDKit          3D

 40 43  0  0  1  0  0  0  0  0999 V2000
   42.1260   24.5630   34.9660 C   0  0  0  0  0  0  0  0  0  0  0  0
   42.2360   23.2040   34.9140 C   0  0  0  0  0  0  0  0  0  0  0  0
   43.1900   22.4860   35.6440 C   0  0  0  0  0  0  0  0  0  0  0  0
   44.0460   23.1540   36.4350 N   0  0  0  0  0  0  0  0  0  0  0  0
   43.9400   24.5080   36.4900 C   0  0  0  0  0  0  0  0  0  0  0  0
   43.0230   25.1630   35.7860 N   0  0  0  0  0  0  0  0  0  0  0  0
   43.2720   21.0670   35.5620 N   0  0  0  0  0  0  0  0  0  0  0  0
   43.4930   20.1990   36.5690 C   0  0  0  0  0  0  0  0  0  0  0  0
   43.5370   18.8430   36.2850 C   0  0  0  0  0  0  0  0  0  0  0  0
   43.3580   18.3960   34.9930 C   0  0  0  0  0  0  0  0  0  0  0  0
   43.4050   17.1390   34.7680 O   0  0  0  0  0  0  0  0  0  0  0  0
   43.1350   19.2910   33.9900 N   0  0  0  0  0  0  0  0  0  0  0  0
   43.1000   20.5780   34.2990 C   0  0  0  0  0  0  0  0  0  0  0  0
   42.8850   21.3420   33.2970 O   0  0  0  0  0  0  0  0  0  0  0  0
   39.6670   25.0810   34.5960 C   0  0  1  0  0  0  0  0  0  0  0  0
   40.5120   26.3990   34.5870 C   0  0  0  0  0  0  0  0  0  0  0  0
   41.0550   25.1430   34.0970 C   0  0  1  0  0  0  0  0  0  0  0  0
   39.6410   22.8820   37.4930 C   0  0  0  0  0  0  0  0  0  0  0  0
   38.6130   23.4150   38.3020 C   0  0  0  0  0  0  0  0  0  0  0  0
   37.9320   24.5660   37.8240 C   0  0  0  0  0  0  0  0  0  0  0  0
   38.3170   25.0790   36.6150 N   0  0  0  0  0  0  0  0  0  0  0  0
   39.2830   24.5400   35.9040 C   0  0  0  0  0  0  0  0  0  0  0  0
   39.9600   23.4540   36.3070 N   0  0  0  0  0  0  0  0  0  0  0  0
   40.2970   21.7330   37.9750 N   0  0  0  0  0  0  0  0  0  0  0  0
   44.8520   25.3210   37.3360 C   0  0  0  0  0  0  0  0  0  0  0  0
   44.2570   25.6320   38.5180 F   0  0  0  0  0  0  0  0  0  0  0  0
   45.2980   26.4150   36.6250 F   0  0  0  0  0  0  0  0  0  0  0  0
   45.9550   24.4930   37.6010 F   0  0  0  0  0  0  0  0  0  0  0  0
   41.5421   22.6464   34.2678 H   0  0  0  0  0  0  0  0  0  0  0  0
   43.6359   20.5603   37.5981 H   0  0  0  0  0  0  0  0  0  0  0  0
   43.7156   18.1199   37.0944 H   0  0  0  0  0  0  0  0  0  0  0  0
   42.9976   18.9754   33.0192 H   0  0  0  0  0  0  0  0  0  0  0  0
   38.7310   24.6853   34.1749 H   0  0  0  0  0  0  0  0  0  0  0  0
   40.2679   27.2092   33.8841 H   0  0  0  0  0  0  0  0  0  0  0  0
   40.8114   27.1471   35.3358 H   0  0  0  0  0  0  0  0  0  0  0  0
   41.5064   24.8150   33.1490 H   0  0  0  0  0  0  0  0  0  0  0  0
   38.3497   22.9557   39.2662 H   0  0  0  0  0  0  0  0  0  0  0  0
   37.1220   25.0297   38.4061 H   0  0  0  0  0  0  0  0  0  0  0  0
   41.0543   21.3034   37.4247 H   0  0  0  0  0  0  0  0  0  0  0  0
   40.0196   21.3222   38.8779 H   0  0  0  0  0  0  0  0  0  0  0  0
  1  6  1  0
  2  1  2  0
  2  3  1  0
  3  4  2  0
  4  5  1  0
  5 25  1  0
  6  5  2  0
  7  3  1  0
  7  8  1  0
  9  8  2  0
 10  9  1  0
 11 10  2  0
 12 13  1  0
 12 10  1  0
 13  7  1  0
 14 13  2  0
 15 22  1  0
 16 15  1  0
 17 16  1  0
 17 15  1  0
 17  1  1  0
 18 24  1  0
 18 19  2  0
 20 19  1  0
 21 20  2  0
 22 23  2  0
 22 21  1  0
 23 18  1  0
 25 28  1  0
 25 26  1  0
 27 25  1  0
  2 29  1  0
  8 30  1  0
  9 31  1  0
 12 32  1  0
 15 33  1  6
 16 34  1  0
 16 35  1  0
 17 36  1  6
 19 37  1  0
 20 38  1  0
 24 39  1  0
 24 40  1  0
M  ISO  8  29  14  30  14  31  14  32   9  33  13  34  13  35  13  36  13
M  ISO  2  37  14  38  14
M  END
>  <minimizedAffinity>  (1) 
-6.19112444

>  <minimizedRMSD>  (1) 
0.564959407

$$$$
