
     RDKit          3D

 45 48  0  0  1  0  0  0  0  0999 V2000
   39.6730   25.0280   34.5930 C   0  0  1  0  0  0  0  0  0  0  0  0
   40.4980   26.3600   34.5770 C   0  0  0  0  0  0  0  0  0  0  0  0
   41.0460   25.1160   34.0630 C   0  0  1  0  0  0  0  0  0  0  0  0
   42.1450   24.5470   34.9040 C   0  0  0  0  0  0  0  0  0  0  0  0
   42.3240   23.1990   34.7800 C   0  0  0  0  0  0  0  0  0  0  0  0
   43.3210   22.4990   35.4760 C   0  0  0  0  0  0  0  0  0  0  0  0
   44.1380   23.1520   36.2930 N   0  0  0  0  0  0  0  0  0  0  0  0
   43.9650   24.4930   36.4210 C   0  0  0  0  0  0  0  0  0  0  0  0
   43.0140   25.1450   35.7560 N   0  0  0  0  0  0  0  0  0  0  0  0
   43.4450   21.0950   35.2940 N   0  0  0  0  0  0  0  0  0  0  0  0
   42.8130   20.3900   34.1960 C   0  0  0  0  0  0  0  0  0  0  0  0
   43.4900   19.0270   34.0050 C   0  0  0  0  0  0  0  0  0  0  0  0
   43.3260   18.2300   35.2680 C   0  0  0  0  0  0  0  0  0  0  0  0
   43.6330   18.9840   36.5200 C   0  0  0  0  0  0  0  0  0  0  0  0
   44.2310   20.3230   36.2350 C   0  0  0  0  0  0  0  0  0  0  0  0
   44.8350   25.3130   37.3110 C   0  0  0  0  0  0  0  0  0  0  0  0
   44.1950   25.6090   38.4740 F   0  0  0  0  0  0  0  0  0  0  0  0
   45.2980   26.4200   36.6300 F   0  0  0  0  0  0  0  0  0  0  0  0
   45.9380   24.4900   37.6050 F   0  0  0  0  0  0  0  0  0  0  0  0
   39.7630   22.8310   37.4920 C   0  0  0  0  0  0  0  0  0  0  0  0
   38.7360   23.3290   38.3180 C   0  0  0  0  0  0  0  0  0  0  0  0
   38.0150   24.4550   37.8530 C   0  0  0  0  0  0  0  0  0  0  0  0
   38.3610   24.9770   36.6430 N   0  0  0  0  0  0  0  0  0  0  0  0
   39.3300   24.4740   35.9080 C   0  0  0  0  0  0  0  0  0  0  0  0
   40.0470   23.4090   36.3000 N   0  0  0  0  0  0  0  0  0  0  0  0
   40.4650   21.7010   37.9580 N   0  0  0  0  0  0  0  0  0  0  0  0
   38.7346   24.6199   34.1895 H   0  0  0  0  0  0  0  0  0  0  0  0
   40.2257   27.1728   33.8877 H   0  0  0  0  0  0  0  0  0  0  0  0
   40.8042   27.1059   35.3252 H   0  0  0  0  0  0  0  0  0  0  0  0
   41.4786   24.8023   33.1015 H   0  0  0  0  0  0  0  0  0  0  0  0
   41.6589   22.6386   34.1065 H   0  0  0  0  0  0  0  0  0  0  0  0
   41.7467   20.2412   34.4214 H   0  0  0  0  0  0  0  0  0  0  0  0
   42.9143   20.9816   33.2742 H   0  0  0  0  0  0  0  0  0  0  0  0
   43.0191   18.4935   33.1662 H   0  0  0  0  0  0  0  0  0  0  0  0
   44.5586   19.1655   33.7838 H   0  0  0  0  0  0  0  0  0  0  0  0
   42.2835   17.8832   35.3226 H   0  0  0  0  0  0  0  0  0  0  0  0
   44.0513   17.4048   35.2138 H   0  0  0  0  0  0  0  0  0  0  0  0
   42.7011   19.1248   37.0872 H   0  0  0  0  0  0  0  0  0  0  0  0
   44.3658   18.4006   37.0967 H   0  0  0  0  0  0  0  0  0  0  0  0
   45.2380   20.1774   35.8170 H   0  0  0  0  0  0  0  0  0  0  0  0
   44.2618   20.8826   37.1815 H   0  0  0  0  0  0  0  0  0  0  0  0
   38.5036   22.8613   39.2861 H   0  0  0  0  0  0  0  0  0  0  0  0
   37.2017   24.8943   38.4493 H   0  0  0  0  0  0  0  0  0  0  0  0
   41.2252   21.2975   37.3921 H   0  0  0  0  0  0  0  0  0  0  0  0
   40.2178   21.2788   38.8644 H   0  0  0  0  0  0  0  0  0  0  0  0
  1 24  1  0
  2  1  1  0
  3  2  1  0
  3  1  1  0
  3  4  1  0
  4  9  1  0
  5  4  2  0
  5  6  1  0
  6  7  2  0
  7  8  1  0
  8 16  1  0
  9  8  2  0
 10  6  1  0
 10 15  1  0
 11 10  1  0
 12 11  1  0
 12 13  1  0
 13 14  1  0
 15 14  1  0
 16 19  1  0
 16 17  1  0
 18 16  1  0
 20 26  1  0
 20 21  2  0
 22 21  1  0
 23 22  2  0
 24 25  2  0
 24 23  1  0
 25 20  1  0
  1 27  1  6
  2 28  1  0
  2 29  1  0
  3 30  1  6
  5 31  1  0
 11 32  1  0
 11 33  1  0
 12 34  1  0
 12 35  1  0
 13 36  1  0
 13 37  1  0
 14 38  1  0
 14 39  1  0
 15 40  1  0
 15 41  1  0
 21 42  1  0
 22 43  1  0
 26 44  1  0
 26 45  1  0
M  ISO  8  27  13  28  13  29  13  30  13  31  14  32  13  33  13  34  13
M  ISO  8  35  13  36  13  37  13  38  13  39  13  40  13  41  13  42  14
M  ISO  1  43  14
M  END
>  <minimizedAffinity>  (1) 
-6.07278872

>  <minimizedRMSD>  (1) 
0.300562382

$$$$
