
     RDKit          3D

 42 45  0  0  1  0  0  0  0  0999 V2000
   40.0030   24.9120   34.4740 C   0  0  1  0  0  0  0  0  0  0  0  0
   40.7860   26.2680   34.4810 C   0  0  0  0  0  0  0  0  0  0  0  0
   41.4200   25.0330   34.0530 C   0  0  1  0  0  0  0  0  0  0  0  0
   42.4640   24.5290   34.9990 C   0  0  0  0  0  0  0  0  0  0  0  0
   42.7060   23.1880   34.9230 C   0  0  0  0  0  0  0  0  0  0  0  0
   43.6690   22.5460   35.7210 C   0  0  0  0  0  0  0  0  0  0  0  0
   44.3840   23.2530   36.5900 N   0  0  0  0  0  0  0  0  0  0  0  0
   44.1450   24.5840   36.6670 C   0  0  0  0  0  0  0  0  0  0  0  0
   43.2310   25.1810   35.9070 N   0  0  0  0  0  0  0  0  0  0  0  0
   43.8700   21.1640   35.5960 N   0  0  0  0  0  0  0  0  0  0  0  0
   45.1060   20.4430   35.8190 C   0  0  0  0  0  0  0  0  0  0  0  0
   44.6280   19.3340   36.7320 C   0  0  0  0  0  0  0  0  0  0  0  0
   43.3450   18.9060   36.0800 C   0  0  0  0  0  0  0  0  0  0  0  0
   42.9570   20.1000   35.2270 C   0  0  0  0  0  0  0  0  0  0  0  0
   44.9020   25.4610   37.6060 C   0  0  0  0  0  0  0  0  0  0  0  0
   44.1390   25.7890   38.6820 F   0  0  0  0  0  0  0  0  0  0  0  0
   45.4120   26.5510   36.9310 F   0  0  0  0  0  0  0  0  0  0  0  0
   45.9840   24.6790   38.0490 F   0  0  0  0  0  0  0  0  0  0  0  0
   39.9000   22.7630   37.4070 C   0  0  0  0  0  0  0  0  0  0  0  0
   38.8210   23.2790   38.1590 C   0  0  0  0  0  0  0  0  0  0  0  0
   38.1340   24.4010   37.6250 C   0  0  0  0  0  0  0  0  0  0  0  0
   38.5640   24.9000   36.4270 N   0  0  0  0  0  0  0  0  0  0  0  0
   39.5770   24.3770   35.7710 C   0  0  0  0  0  0  0  0  0  0  0  0
   40.2580   23.3240   36.2270 N   0  0  0  0  0  0  0  0  0  0  0  0
   40.5580   21.6410   37.9470 N   0  0  0  0  0  0  0  0  0  0  0  0
   39.1108   24.4657   34.0105 H   0  0  0  0  0  0  0  0  0  0  0  0
   40.5450   27.0501   33.7460 H   0  0  0  0  0  0  0  0  0  0  0  0
   41.0045   27.0448   35.2286 H   0  0  0  0  0  0  0  0  0  0  0  0
   41.9427   24.7079   33.1413 H   0  0  0  0  0  0  0  0  0  0  0  0
   42.1247   22.5858   34.2093 H   0  0  0  0  0  0  0  0  0  0  0  0
   45.5173   20.0448   34.8797 H   0  0  0  0  0  0  0  0  0  0  0  0
   45.9209   21.0544   36.2338 H   0  0  0  0  0  0  0  0  0  0  0  0
   45.3522   18.5067   36.7653 H   0  0  0  0  0  0  0  0  0  0  0  0
   44.5038   19.6504   37.7782 H   0  0  0  0  0  0  0  0  0  0  0  0
   43.5009   18.0131   35.4567 H   0  0  0  0  0  0  0  0  0  0  0  0
   42.5676   18.6331   36.8088 H   0  0  0  0  0  0  0  0  0  0  0  0
   41.9185   20.3975   35.4346 H   0  0  0  0  0  0  0  0  0  0  0  0
   43.0197   19.8676   34.1537 H   0  0  0  0  0  0  0  0  0  0  0  0
   38.5253   22.8300   39.1187 H   0  0  0  0  0  0  0  0  0  0  0  0
   37.2844   24.8535   38.1573 H   0  0  0  0  0  0  0  0  0  0  0  0
   41.3525   21.2190   37.4453 H   0  0  0  0  0  0  0  0  0  0  0  0
   40.2448   21.2424   38.8436 H   0  0  0  0  0  0  0  0  0  0  0  0
  1  2  1  0
  1 23  1  0
  3  1  1  0
  3  2  1  0
  3  4  1  0
  4  9  1  0
  5  4  2  0
  5  6  1  0
  6  7  2  0
  7  8  1  0
  8 15  1  0
  9  8  2  0
 10  6  1  0
 10 11  1  0
 11 12  1  0
 13 12  1  0
 14 10  1  0
 14 13  1  0
 15 18  1  0
 15 16  1  0
 17 15  1  0
 19 25  1  0
 19 20  2  0
 21 20  1  0
 22 21  2  0
 23 24  2  0
 23 22  1  0
 24 19  1  0
  1 26  1  6
  2 27  1  0
  2 28  1  0
  3 29  1  6
  5 30  1  0
 11 31  1  0
 11 32  1  0
 12 33  1  0
 12 34  1  0
 13 35  1  0
 13 36  1  0
 14 37  1  0
 14 38  1  0
 20 39  1  0
 21 40  1  0
 25 41  1  0
 25 42  1  0
M  ISO  8  26  13  27  13  28  13  29  13  30  14  31  13  32  13  33  13
M  ISO  7  34  13  35  13  36  13  37  13  38  13  39  14  40  14
M  END
>  <minimizedAffinity>  (1) 
-5.97388649

>  <minimizedRMSD>  (1) 
0.526477754

$$$$
