
     RDKit          3D

 43 46  0  0  1  0  0  0  0  0999 V2000
   39.9590   24.9150   34.4840 C   0  0  1  0  0  0  0  0  0  0  0  0
   40.7410   26.2720   34.4750 C   0  0  0  0  0  0  0  0  0  0  0  0
   41.3580   25.0310   34.0340 C   0  0  1  0  0  0  0  0  0  0  0  0
   42.4250   24.5190   34.9520 C   0  0  0  0  0  0  0  0  0  0  0  0
   42.7090   23.1870   34.8360 C   0  0  0  0  0  0  0  0  0  0  0  0
   43.6850   22.5530   35.5990 C   0  0  0  0  0  0  0  0  0  0  0  0
   44.3860   23.2500   36.4850 N   0  0  0  0  0  0  0  0  0  0  0  0
   44.1150   24.5650   36.6060 C   0  0  0  0  0  0  0  0  0  0  0  0
   43.1790   25.1640   35.8740 N   0  0  0  0  0  0  0  0  0  0  0  0
   43.9500   21.1670   35.4510 N   0  0  0  0  0  0  0  0  0  0  0  0
   45.1860   20.5330   35.0500 C   0  0  0  0  0  0  0  0  0  0  0  0
   45.6310   19.7930   36.3200 C   0  0  0  0  0  0  0  0  0  0  0  0
   44.7250   18.7500   36.4630 O   0  0  0  0  0  0  0  0  0  0  0  0
   43.4260   19.1300   36.6640 C   0  0  0  0  0  0  0  0  0  0  0  0
   42.9120   20.1890   35.7140 C   0  0  0  0  0  0  0  0  0  0  0  0
   44.8560   25.4260   37.5720 C   0  0  0  0  0  0  0  0  0  0  0  0
   44.0710   25.7300   38.6510 F   0  0  0  0  0  0  0  0  0  0  0  0
   45.3590   26.5420   36.9290 F   0  0  0  0  0  0  0  0  0  0  0  0
   45.9330   24.6500   38.0190 F   0  0  0  0  0  0  0  0  0  0  0  0
   39.9100   22.7710   37.4230 C   0  0  0  0  0  0  0  0  0  0  0  0
   38.8520   23.2850   38.1940 C   0  0  0  0  0  0  0  0  0  0  0  0
   38.1540   24.4090   37.6740 C   0  0  0  0  0  0  0  0  0  0  0  0
   38.5590   24.9080   36.4670 N   0  0  0  0  0  0  0  0  0  0  0  0
   39.5570   24.3840   35.7910 C   0  0  0  0  0  0  0  0  0  0  0  0
   40.2460   23.3280   36.2350 N   0  0  0  0  0  0  0  0  0  0  0  0
   40.5850   21.6420   37.9500 N   0  0  0  0  0  0  0  0  0  0  0  0
   39.0580   24.4676   34.0390 H   0  0  0  0  0  0  0  0  0  0  0  0
   40.4857   27.0545   33.7452 H   0  0  0  0  0  0  0  0  0  0  0  0
   40.9779   27.0496   35.2161 H   0  0  0  0  0  0  0  0  0  0  0  0
   41.8578   24.7037   33.1103 H   0  0  0  0  0  0  0  0  0  0  0  0
   42.1410   22.5899   34.1074 H   0  0  0  0  0  0  0  0  0  0  0  0
   45.0172   19.8287   34.2221 H   0  0  0  0  0  0  0  0  0  0  0  0
   45.9371   21.2476   34.6824 H   0  0  0  0  0  0  0  0  0  0  0  0
   46.6533   19.4041   36.2030 H   0  0  0  0  0  0  0  0  0  0  0  0
   45.6445   20.4528   37.2000 H   0  0  0  0  0  0  0  0  0  0  0  0
   42.7900   18.2389   36.5571 H   0  0  0  0  0  0  0  0  0  0  0  0
   43.3898   19.5766   37.6686 H   0  0  0  0  0  0  0  0  0  0  0  0
   42.0437   20.6919   36.1647 H   0  0  0  0  0  0  0  0  0  0  0  0
   42.6178   19.7121   34.7674 H   0  0  0  0  0  0  0  0  0  0  0  0
   38.5760   22.8359   39.1595 H   0  0  0  0  0  0  0  0  0  0  0  0
   37.3162   24.8621   38.2242 H   0  0  0  0  0  0  0  0  0  0  0  0
   41.3684   21.2213   37.4301 H   0  0  0  0  0  0  0  0  0  0  0  0
   40.2923   21.2421   38.8529 H   0  0  0  0  0  0  0  0  0  0  0  0
  1 24  1  0
  2  1  1  0
  3  2  1  0
  3  1  1  0
  3  4  1  0
  4  9  1  0
  5  4  2  0
  5  6  1  0
  6  7  2  0
  7  8  1  0
  8 16  1  0
  9  8  2  0
 10  6  1  0
 10 15  1  0
 11 10  1  0
 11 12  1  0
 12 13  1  0
 13 14  1  0
 15 14  1  0
 16 19  1  0
 16 17  1  0
 18 16  1  0
 20 26  1  0
 20 21  2  0
 22 21  1  0
 23 22  2  0
 24 25  2  0
 24 23  1  0
 25 20  1  0
  1 27  1  6
  2 28  1  0
  2 29  1  0
  3 30  1  6
  5 31  1  0
 11 32  1  0
 11 33  1  0
 12 34  1  0
 12 35  1  0
 14 36  1  0
 14 37  1  0
 15 38  1  0
 15 39  1  0
 21 40  1  0
 22 41  1  0
 26 42  1  0
 26 43  1  0
M  ISO  8  27  13  28  13  29  13  30  13  31  14  32  13  33  13  34  13
M  ISO  7  35  13  36  13  37  13  38  13  39  13  40  14  41  14
M  END
>  <minimizedAffinity>  (1) 
-5.96038055

>  <minimizedRMSD>  (1) 
0.464363098

$$$$
