
     RDKit          3D

 40 43  0  0  1  0  0  0  0  0999 V2000
   42.2180   24.5630   35.0160 C   0  0  0  0  0  0  0  0  0  0  0  0
   42.3560   23.2060   34.9730 C   0  0  0  0  0  0  0  0  0  0  0  0
   43.2870   22.5000   35.7250 C   0  0  0  0  0  0  0  0  0  0  0  0
   44.1100   23.1780   36.5480 N   0  0  0  0  0  0  0  0  0  0  0  0
   43.9790   24.5120   36.5950 C   0  0  0  0  0  0  0  0  0  0  0  0
   43.0800   25.1700   35.8670 N   0  0  0  0  0  0  0  0  0  0  0  0
   43.4190   21.0520   35.6650 C   0  0  0  0  0  0  0  0  0  0  0  0
   43.7110   20.3080   34.5460 C   0  0  0  0  0  0  0  0  0  0  0  0
   43.8260   18.9350   34.5390 C   0  0  0  0  0  0  0  0  0  0  0  0
   43.6430   18.2280   35.7100 C   0  0  0  0  0  0  0  0  0  0  0  0
   43.3490   18.9390   36.8540 C   0  0  0  0  0  0  0  0  0  0  0  0
   43.2470   20.3000   36.8050 C   0  0  0  0  0  0  0  0  0  0  0  0
   39.7730   25.0670   34.5630 C   0  0  1  0  0  0  0  0  0  0  0  0
   40.6120   26.3880   34.5670 C   0  0  0  0  0  0  0  0  0  0  0  0
   41.1710   25.1280   34.1080 C   0  0  1  0  0  0  0  0  0  0  0  0
   39.6390   22.8920   37.4740 C   0  0  0  0  0  0  0  0  0  0  0  0
   38.6090   23.4460   38.2570 C   0  0  0  0  0  0  0  0  0  0  0  0
   37.9620   24.6040   37.7580 C   0  0  0  0  0  0  0  0  0  0  0  0
   38.3840   25.0990   36.5530 N   0  0  0  0  0  0  0  0  0  0  0  0
   39.3550   24.5370   35.8640 C   0  0  0  0  0  0  0  0  0  0  0  0
   39.9960   23.4450   36.2920 N   0  0  0  0  0  0  0  0  0  0  0  0
   40.2660   21.7290   37.9820 N   0  0  0  0  0  0  0  0  0  0  0  0
   44.8530   25.3430   37.4740 C   0  0  0  0  0  0  0  0  0  0  0  0
   44.2030   25.6750   38.6300 F   0  0  0  0  0  0  0  0  0  0  0  0
   45.3270   26.4390   36.7800 F   0  0  0  0  0  0  0  0  0  0  0  0
   45.9430   24.5230   37.7980 F   0  0  0  0  0  0  0  0  0  0  0  0
   41.6920   22.6384   34.3045 H   0  0  0  0  0  0  0  0  0  0  0  0
   43.8623   20.8427   33.5967 H   0  0  0  0  0  0  0  0  0  0  0  0
   44.0625   18.4050   33.6046 H   0  0  0  0  0  0  0  0  0  0  0  0
   43.7290   17.1316   35.7300 H   0  0  0  0  0  0  0  0  0  0  0  0
   43.1966   18.4100   37.8063 H   0  0  0  0  0  0  0  0  0  0  0  0
   43.0116   20.8309   37.7392 H   0  0  0  0  0  0  0  0  0  0  0  0
   38.8513   24.6649   34.1171 H   0  0  0  0  0  0  0  0  0  0  0  0
   40.3876   27.1900   33.8484 H   0  0  0  0  0  0  0  0  0  0  0  0
   40.8860   27.1453   35.3162 H   0  0  0  0  0  0  0  0  0  0  0  0
   41.6507   24.7895   33.1778 H   0  0  0  0  0  0  0  0  0  0  0  0
   38.3176   22.9978   39.2184 H   0  0  0  0  0  0  0  0  0  0  0  0
   37.1492   25.0883   38.3191 H   0  0  0  0  0  0  0  0  0  0  0  0
   41.0263   21.2803   37.4514 H   0  0  0  0  0  0  0  0  0  0  0  0
   39.9619   21.3315   38.8822 H   0  0  0  0  0  0  0  0  0  0  0  0
  1  6  1  0
  2  1  2  0
  2  3  1  0
  3  4  2  0
  4  5  1  0
  5 23  1  0
  6  5  2  0
  7  3  1  0
  7 12  1  0
  8  7  2  0
  9  8  1  0
  9 10  2  0
 10 11  1  0
 12 11  2  0
 13 14  1  0
 13 20  1  0
 15 13  1  0
 15 14  1  0
 15  1  1  0
 16 22  1  0
 16 17  2  0
 18 17  1  0
 19 18  2  0
 20 21  2  0
 20 19  1  0
 21 16  1  0
 23 26  1  0
 23 24  1  0
 25 23  1  0
  2 27  1  0
  8 28  1  0
  9 29  1  0
 10 30  1  0
 11 31  1  0
 12 32  1  0
 13 33  1  6
 14 34  1  0
 14 35  1  0
 15 36  1  6
 17 37  1  0
 18 38  1  0
 22 39  1  0
 22 40  1  0
M  ISO  8  27  14  28  14  29  14  30  14  31  14  32  14  33  13  34  13
M  ISO  4  35  13  36  13  37  14  38  14
M  END
>  <minimizedAffinity>  (1) 
-5.92578697

>  <minimizedRMSD>  (1) 
0.588328958

$$$$
