
     RDKit          3D

 40 43  0  0  1  0  0  0  0  0999 V2000
   42.1380   24.5530   34.9830 C   0  0  0  0  0  0  0  0  0  0  0  0
   42.2490   23.1930   34.9470 C   0  0  0  0  0  0  0  0  0  0  0  0
   43.1880   22.4770   35.6810 C   0  0  0  0  0  0  0  0  0  0  0  0
   44.0440   23.1420   36.4730 N   0  0  0  0  0  0  0  0  0  0  0  0
   43.9430   24.4850   36.5140 C   0  0  0  0  0  0  0  0  0  0  0  0
   43.0350   25.1510   35.8040 N   0  0  0  0  0  0  0  0  0  0  0  0
   43.3090   21.0280   35.6450 C   0  0  0  0  0  0  0  0  0  0  0  0
   43.4320   20.4080   34.4300 C   0  0  0  0  0  0  0  0  0  0  0  0
   43.5510   19.0340   34.3110 C   0  0  0  0  0  0  0  0  0  0  0  0
   43.5510   18.2130   35.4180 C   0  0  0  0  0  0  0  0  0  0  0  0
   43.4290   18.8220   36.6490 C   0  0  0  0  0  0  0  0  0  0  0  0
   43.3110   20.1930   36.7390 C   0  0  0  0  0  0  0  0  0  0  0  0
   39.6910   25.0790   34.5830 C   0  0  1  0  0  0  0  0  0  0  0  0
   40.5410   26.3940   34.5740 C   0  0  0  0  0  0  0  0  0  0  0  0
   41.0770   25.1280   34.1000 C   0  0  1  0  0  0  0  0  0  0  0  0
   39.6130   22.9000   37.4940 C   0  0  0  0  0  0  0  0  0  0  0  0
   38.5850   23.4450   38.2880 C   0  0  0  0  0  0  0  0  0  0  0  0
   37.9260   24.5920   37.7980 C   0  0  0  0  0  0  0  0  0  0  0  0
   38.3240   25.0970   36.5910 N   0  0  0  0  0  0  0  0  0  0  0  0
   39.2920   24.5470   35.8890 C   0  0  0  0  0  0  0  0  0  0  0  0
   39.9540   23.4570   36.3060 N   0  0  0  0  0  0  0  0  0  0  0  0
   40.2620   21.7420   37.9840 N   0  0  0  0  0  0  0  0  0  0  0  0
   44.8550   25.3060   37.3610 C   0  0  0  0  0  0  0  0  0  0  0  0
   44.2520   25.6350   38.5410 F   0  0  0  0  0  0  0  0  0  0  0  0
   45.3150   26.3920   36.6500 F   0  0  0  0  0  0  0  0  0  0  0  0
   45.9520   24.4740   37.6390 F   0  0  0  0  0  0  0  0  0  0  0  0
   41.5571   22.6323   34.3014 H   0  0  0  0  0  0  0  0  0  0  0  0
   43.4364   21.0227   33.5178 H   0  0  0  0  0  0  0  0  0  0  0  0
   43.6477   18.5874   33.3104 H   0  0  0  0  0  0  0  0  0  0  0  0
   43.6441   17.1210   35.3237 H   0  0  0  0  0  0  0  0  0  0  0  0
   43.4258   18.2112   37.5638 H   0  0  0  0  0  0  0  0  0  0  0  0
   43.2133   20.6430   37.7380 H   0  0  0  0  0  0  0  0  0  0  0  0
   38.7568   24.6865   34.1549 H   0  0  0  0  0  0  0  0  0  0  0  0
   40.3092   27.2002   33.8624 H   0  0  0  0  0  0  0  0  0  0  0  0
   40.8375   27.1470   35.3190 H   0  0  0  0  0  0  0  0  0  0  0  0
   41.5325   24.7859   33.1590 H   0  0  0  0  0  0  0  0  0  0  0  0
   38.3071   22.9940   39.2520 H   0  0  0  0  0  0  0  0  0  0  0  0
   37.1153   25.0666   38.3703 H   0  0  0  0  0  0  0  0  0  0  0  0
   41.0200   21.3069   37.4390 H   0  0  0  0  0  0  0  0  0  0  0  0
   39.9764   21.3342   38.8857 H   0  0  0  0  0  0  0  0  0  0  0  0
  1  6  1  0
  2  1  2  0
  2  3  1  0
  3  4  2  0
  4  5  1  0
  5 23  1  0
  6  5  2  0
  7  3  1  0
  7 12  1  0
  8  7  2  0
  9  8  1  0
  9 10  2  0
 10 11  1  0
 11 12  2  0
 13 20  1  0
 14 13  1  0
 15 14  1  0
 15 13  1  0
 15  1  1  0
 16 22  1  0
 16 17  2  0
 18 17  1  0
 19 18  2  0
 20 21  2  0
 20 19  1  0
 21 16  1  0
 23 26  1  0
 23 24  1  0
 25 23  1  0
  2 27  1  0
  8 28  1  0
  9 29  1  0
 10 30  1  0
 11 31  1  0
 12 32  1  0
 13 33  1  6
 14 34  1  0
 14 35  1  0
 15 36  1  6
 17 37  1  0
 18 38  1  0
 22 39  1  0
 22 40  1  0
M  ISO  8  27  14  28  14  29  14  30  14  31  14  32  14  33  13  34  13
M  ISO  4  35  13  36  13  37  14  38  14
M  END
>  <minimizedAffinity>  (1) 
-5.91766548

>  <minimizedRMSD>  (1) 
0.549185157

$$$$
