
     RDKit          3D

 43 46  0  0  1  0  0  0  0  0999 V2000
   39.9030   24.8140   34.4810 C   0  0  1  0  0  0  0  0  0  0  0  0
   40.7090   26.1550   34.4030 C   0  0  0  0  0  0  0  0  0  0  0  0
   41.3050   24.8800   34.0380 C   0  0  1  0  0  0  0  0  0  0  0  0
   39.7750   22.8240   37.5240 C   0  0  0  0  0  0  0  0  0  0  0  0
   38.7280   23.4160   38.2610 C   0  0  0  0  0  0  0  0  0  0  0  0
   38.0710   24.5300   37.6840 C   0  0  0  0  0  0  0  0  0  0  0  0
   38.4910   24.9570   36.4560 N   0  0  0  0  0  0  0  0  0  0  0  0
   39.4750   24.3690   35.8100 C   0  0  0  0  0  0  0  0  0  0  0  0
   40.1300   23.3110   36.3120 N   0  0  0  0  0  0  0  0  0  0  0  0
   40.4110   21.7060   38.1070 N   0  0  0  0  0  0  0  0  0  0  0  0
   42.3520   24.4100   34.9980 C   0  0  0  0  0  0  0  0  0  0  0  0
   42.5830   23.0660   34.9720 C   0  0  0  0  0  0  0  0  0  0  0  0
   43.5420   22.4400   35.7800 C   0  0  0  0  0  0  0  0  0  0  0  0
   44.2740   23.1770   36.6210 N   0  0  0  0  0  0  0  0  0  0  0  0
   44.0460   24.5110   36.6490 C   0  0  0  0  0  0  0  0  0  0  0  0
   43.1310   25.0910   35.8740 N   0  0  0  0  0  0  0  0  0  0  0  0
   43.7430   20.9630   35.7020 C   0  0  0  0  0  0  0  0  0  0  0  0
   45.2360   20.6900   35.9290 C   0  0  0  0  0  0  0  0  0  0  0  0
   45.2890   19.3320   36.5610 C   0  0  0  0  0  0  0  0  0  0  0  0
   43.8620   18.8740   36.7530 C   0  0  0  0  0  0  0  0  0  0  0  0
   43.1360   20.2180   36.8570 C   0  0  0  0  0  0  0  0  0  0  0  0
   44.8160   25.4190   37.5510 C   0  0  0  0  0  0  0  0  0  0  0  0
   44.0810   25.7540   38.6440 F   0  0  0  0  0  0  0  0  0  0  0  0
   45.2880   26.5030   36.8390 F   0  0  0  0  0  0  0  0  0  0  0  0
   45.9230   24.6610   37.9720 F   0  0  0  0  0  0  0  0  0  0  0  0
   38.9995   24.3548   34.0534 H   0  0  0  0  0  0  0  0  0  0  0  0
   40.4737   26.8997   33.6283 H   0  0  0  0  0  0  0  0  0  0  0  0
   40.9545   26.9690   35.1010 H   0  0  0  0  0  0  0  0  0  0  0  0
   41.8042   24.4898   33.1388 H   0  0  0  0  0  0  0  0  0  0  0  0
   38.4330   23.0270   39.2467 H   0  0  0  0  0  0  0  0  0  0  0  0
   37.2473   25.0363   38.2087 H   0  0  0  0  0  0  0  0  0  0  0  0
   41.1818   21.2356   37.6115 H   0  0  0  0  0  0  0  0  0  0  0  0
   40.1041   21.3610   39.0277 H   0  0  0  0  0  0  0  0  0  0  0  0
   41.9893   22.4448   34.2853 H   0  0  0  0  0  0  0  0  0  0  0  0
   43.3118   20.6494   34.7398 H   0  0  0  0  0  0  0  0  0  0  0  0
   45.7796   20.6931   34.9727 H   0  0  0  0  0  0  0  0  0  0  0  0
   45.7058   21.4587   36.5602 H   0  0  0  0  0  0  0  0  0  0  0  0
   45.8249   18.6310   35.9042 H   0  0  0  0  0  0  0  0  0  0  0  0
   45.8206   19.3690   37.5233 H   0  0  0  0  0  0  0  0  0  0  0  0
   43.5064   18.2882   35.8926 H   0  0  0  0  0  0  0  0  0  0  0  0
   43.7112   18.2089   37.6161 H   0  0  0  0  0  0  0  0  0  0  0  0
   43.3457   20.7172   37.8145 H   0  0  0  0  0  0  0  0  0  0  0  0
   42.0390   20.1443   36.8223 H   0  0  0  0  0  0  0  0  0  0  0  0
  1  8  1  0
  2  1  1  0
  3  2  1  0
  3  1  1  0
  3 11  1  0
  4 10  1  0
  4  5  2  0
  6  5  1  0
  7  6  2  0
  8  9  2  0
  8  7  1  0
  9  4  1  0
 11 16  1  0
 12 11  2  0
 12 13  1  0
 13 14  2  0
 14 15  1  0
 15 22  1  0
 16 15  2  0
 17 13  1  0
 17 18  1  0
 17 21  1  0
 18 19  1  0
 19 20  1  0
 20 21  1  0
 22 25  1  0
 22 23  1  0
 24 22  1  0
  1 26  1  6
  2 27  1  0
  2 28  1  0
  3 29  1  6
  5 30  1  0
  6 31  1  0
 10 32  1  0
 10 33  1  0
 12 34  1  0
 17 35  1  0
 18 36  1  0
 18 37  1  0
 19 38  1  0
 19 39  1  0
 20 40  1  0
 20 41  1  0
 21 42  1  0
 21 43  1  0
M  ISO  8  26  13  27  13  28  13  29  13  30  14  31  14  34  14  35  13
M  ISO  8  36  13  37  13  38  13  39  13  40  13  41  13  42  13  43  13
M  END
>  <minimizedAffinity>  (1) 
-5.83591509

>  <minimizedRMSD>  (1) 
0.553790689

$$$$
