
     RDKit          3D

 38 41  0  0  1  0  0  0  0  0999 V2000
   39.8670   25.0080   34.5560 C   0  0  1  0  0  0  0  0  0  0  0  0
   40.6580   26.3580   34.5700 C   0  0  0  0  0  0  0  0  0  0  0  0
   41.2640   25.1170   34.1150 C   0  0  1  0  0  0  0  0  0  0  0  0
   39.7900   22.8220   37.4610 C   0  0  0  0  0  0  0  0  0  0  0  0
   38.7290   23.3290   38.2330 C   0  0  0  0  0  0  0  0  0  0  0  0
   38.0410   24.4560   37.7290 C   0  0  0  0  0  0  0  0  0  0  0  0
   38.4500   24.9780   36.5320 N   0  0  0  0  0  0  0  0  0  0  0  0
   39.4520   24.4610   35.8520 C   0  0  0  0  0  0  0  0  0  0  0  0
   40.1360   23.3950   36.2850 N   0  0  0  0  0  0  0  0  0  0  0  0
   40.4600   21.6830   37.9740 N   0  0  0  0  0  0  0  0  0  0  0  0
   42.3220   24.5920   35.0320 C   0  0  0  0  0  0  0  0  0  0  0  0
   42.4830   23.2370   35.0090 C   0  0  0  0  0  0  0  0  0  0  0  0
   43.4290   22.5570   35.7730 C   0  0  0  0  0  0  0  0  0  0  0  0
   44.2390   23.2700   36.5830 N   0  0  0  0  0  0  0  0  0  0  0  0
   44.0860   24.6030   36.6090 C   0  0  0  0  0  0  0  0  0  0  0  0
   43.1740   25.2300   35.8710 N   0  0  0  0  0  0  0  0  0  0  0  0
   43.5970   21.1180   35.7480 C   0  0  0  0  0  0  0  0  0  0  0  0
   44.3540   20.4320   34.8370 C   0  0  0  0  0  0  0  0  0  0  0  0
   44.4930   19.0490   34.8440 C   0  0  0  0  0  0  0  0  0  0  0  0
   43.8530   18.3180   35.7940 N   0  0  0  0  0  0  0  0  0  0  0  0
   43.1120   19.0010   36.6840 C   0  0  0  0  0  0  0  0  0  0  0  0
   42.9960   20.3400   36.6540 N   0  0  0  0  0  0  0  0  0  0  0  0
   44.9450   25.4640   37.4710 C   0  0  0  0  0  0  0  0  0  0  0  0
   44.2320   25.9560   38.5250 F   0  0  0  0  0  0  0  0  0  0  0  0
   45.5530   26.4460   36.7110 F   0  0  0  0  0  0  0  0  0  0  0  0
   45.9450   24.6110   37.9680 F   0  0  0  0  0  0  0  0  0  0  0  0
   38.9646   24.5743   34.1005 H   0  0  0  0  0  0  0  0  0  0  0  0
   40.4127   27.1527   33.8501 H   0  0  0  0  0  0  0  0  0  0  0  0
   40.8982   27.1237   35.3223 H   0  0  0  0  0  0  0  0  0  0  0  0
   41.7624   24.7938   33.1892 H   0  0  0  0  0  0  0  0  0  0  0  0
   38.4462   22.8669   39.1904 H   0  0  0  0  0  0  0  0  0  0  0  0
   37.2011   24.9007   38.2829 H   0  0  0  0  0  0  0  0  0  0  0  0
   41.2448   21.2683   37.4514 H   0  0  0  0  0  0  0  0  0  0  0  0
   40.1621   21.2700   38.8693 H   0  0  0  0  0  0  0  0  0  0  0  0
   41.8285   22.6481   34.3496 H   0  0  0  0  0  0  0  0  0  0  0  0
   44.8797   21.0049   34.0589 H   0  0  0  0  0  0  0  0  0  0  0  0
   45.1159   18.5504   34.0868 H   0  0  0  0  0  0  0  0  0  0  0  0
   42.5796   18.4421   37.4677 H   0  0  0  0  0  0  0  0  0  0  0  0
  1  2  1  0
  1  8  1  0
  3  1  1  0
  3  2  1  0
  3 11  1  0
  4 10  1  0
  4  5  2  0
  6  5  1  0
  7  6  2  0
  8  9  2  0
  8  7  1  0
  9  4  1  0
 11 16  1  0
 12 11  2  0
 12 13  1  0
 13 14  2  0
 14 15  1  0
 15 23  1  0
 16 15  2  0
 17 13  1  0
 17 22  2  0
 18 19  2  0
 18 17  1  0
 19 20  1  0
 20 21  2  0
 22 21  1  0
 23 26  1  0
 23 24  1  0
 25 23  1  0
  1 27  1  6
  2 28  1  0
  2 29  1  0
  3 30  1  6
  5 31  1  0
  6 32  1  0
 10 33  1  0
 10 34  1  0
 12 35  1  0
 18 36  1  0
 19 37  1  0
 21 38  1  0
M  ISO  8  27  13  28  13  29  13  30  13  31  14  32  14  35  14  36  14
M  ISO  2  37  14  38  14
M  END
>  <minimizedAffinity>  (1) 
-5.83273506

>  <minimizedRMSD>  (1) 
0.638198495

$$$$
