
     RDKit          3D

 38 41  0  0  1  0  0  0  0  0999 V2000
   39.8720   24.9990   34.5550 C   0  0  1  0  0  0  0  0  0  0  0  0
   40.6630   26.3500   34.5690 C   0  0  0  0  0  0  0  0  0  0  0  0
   41.2760   25.1130   34.1170 C   0  0  1  0  0  0  0  0  0  0  0  0
   39.7890   22.8200   37.4670 C   0  0  0  0  0  0  0  0  0  0  0  0
   38.7240   23.3330   38.2350 C   0  0  0  0  0  0  0  0  0  0  0  0
   38.0370   24.4650   37.7240 C   0  0  0  0  0  0  0  0  0  0  0  0
   38.4530   24.9750   36.5280 N   0  0  0  0  0  0  0  0  0  0  0  0
   39.4540   24.4550   35.8510 C   0  0  0  0  0  0  0  0  0  0  0  0
   40.1360   23.3900   36.2880 N   0  0  0  0  0  0  0  0  0  0  0  0
   40.4550   21.6850   37.9850 N   0  0  0  0  0  0  0  0  0  0  0  0
   42.3300   24.5830   35.0360 C   0  0  0  0  0  0  0  0  0  0  0  0
   42.4850   23.2280   35.0130 C   0  0  0  0  0  0  0  0  0  0  0  0
   43.4330   22.5530   35.7870 C   0  0  0  0  0  0  0  0  0  0  0  0
   44.2390   23.2680   36.5990 N   0  0  0  0  0  0  0  0  0  0  0  0
   44.0870   24.6010   36.6230 C   0  0  0  0  0  0  0  0  0  0  0  0
   43.1770   25.2260   35.8770 N   0  0  0  0  0  0  0  0  0  0  0  0
   43.6140   21.1130   35.7770 C   0  0  0  0  0  0  0  0  0  0  0  0
   44.4340   20.4400   34.8980 C   0  0  0  0  0  0  0  0  0  0  0  0
   44.6390   19.0830   34.8470 C   0  0  0  0  0  0  0  0  0  0  0  0
   43.9460   18.3580   35.7730 N   0  0  0  0  0  0  0  0  0  0  0  0
   43.1250   19.0030   36.6550 C   0  0  0  0  0  0  0  0  0  0  0  0
   42.9770   20.3370   36.6420 N   0  0  0  0  0  0  0  0  0  0  0  0
   44.9400   25.4660   37.4870 C   0  0  0  0  0  0  0  0  0  0  0  0
   44.2290   25.9440   38.5440 F   0  0  0  0  0  0  0  0  0  0  0  0
   45.5410   26.4520   36.7280 F   0  0  0  0  0  0  0  0  0  0  0  0
   45.9470   24.6190   37.9780 F   0  0  0  0  0  0  0  0  0  0  0  0
   38.9722   24.5619   34.0975 H   0  0  0  0  0  0  0  0  0  0  0  0
   40.4181   27.1434   33.8475 H   0  0  0  0  0  0  0  0  0  0  0  0
   40.8990   27.1163   35.3220 H   0  0  0  0  0  0  0  0  0  0  0  0
   41.7816   24.7957   33.1930 H   0  0  0  0  0  0  0  0  0  0  0  0
   38.4367   22.8741   39.1925 H   0  0  0  0  0  0  0  0  0  0  0  0
   37.1975   24.9162   38.2733 H   0  0  0  0  0  0  0  0  0  0  0  0
   41.2408   21.2676   37.4661 H   0  0  0  0  0  0  0  0  0  0  0  0
   40.1543   21.2758   38.8811 H   0  0  0  0  0  0  0  0  0  0  0  0
   41.8321   22.6378   34.3532 H   0  0  0  0  0  0  0  0  0  0  0  0
   44.9792   21.0508   34.1634 H   0  0  0  0  0  0  0  0  0  0  0  0
   45.3122   18.6147   34.1138 H   0  0  0  0  0  0  0  0  0  0  0  0
   42.5692   18.4115   37.3974 H   0  0  0  0  0  0  0  0  0  0  0  0
  1  2  1  0
  1  8  1  0
  3  1  1  0
  3  2  1  0
  3 11  1  0
  4 10  1  0
  4  5  2  0
  6  5  1  0
  7  6  2  0
  8  9  2  0
  8  7  1  0
  9  4  1  0
 11 16  1  0
 12 11  2  0
 12 13  1  0
 13 14  2  0
 14 15  1  0
 15 23  1  0
 16 15  2  0
 17 13  1  0
 17 22  1  0
 18 17  2  0
 19 18  1  0
 19 20  2  0
 20 21  1  0
 22 21  2  0
 23 26  1  0
 23 24  1  0
 25 23  1  0
  1 27  1  6
  2 28  1  0
  2 29  1  0
  3 30  1  6
  5 31  1  0
  6 32  1  0
 10 33  1  0
 10 34  1  0
 12 35  1  0
 18 36  1  0
 19 37  1  0
 21 38  1  0
M  ISO  8  27  13  28  13  29  13  30  13  31  14  32  14  35  14  36  14
M  ISO  2  37  14  38  14
M  END
>  <minimizedAffinity>  (1) 
-5.82891512

>  <minimizedRMSD>  (1) 
0.599783778

$$$$
