
     RDKit          3D

 35 38  0  0  1  0  0  0  0  0999 V2000
   39.8700   25.0080   34.5590 C   0  0  1  0  0  0  0  0  0  0  0  0
   40.6650   26.3560   34.5720 C   0  0  0  0  0  0  0  0  0  0  0  0
   41.2670   25.1150   34.1160 C   0  0  1  0  0  0  0  0  0  0  0  0
   39.7900   22.8240   37.4640 C   0  0  0  0  0  0  0  0  0  0  0  0
   38.7270   23.3320   38.2360 C   0  0  0  0  0  0  0  0  0  0  0  0
   38.0390   24.4620   37.7300 C   0  0  0  0  0  0  0  0  0  0  0  0
   38.4510   24.9810   36.5330 N   0  0  0  0  0  0  0  0  0  0  0  0
   39.4520   24.4640   35.8550 C   0  0  0  0  0  0  0  0  0  0  0  0
   40.1370   23.3960   36.2890 N   0  0  0  0  0  0  0  0  0  0  0  0
   40.4610   21.6840   37.9750 N   0  0  0  0  0  0  0  0  0  0  0  0
   42.3240   24.5810   35.0300 C   0  0  0  0  0  0  0  0  0  0  0  0
   42.4890   23.2280   34.9830 C   0  0  0  0  0  0  0  0  0  0  0  0
   43.4440   22.5470   35.7490 C   0  0  0  0  0  0  0  0  0  0  0  0
   44.2400   23.2410   36.5700 N   0  0  0  0  0  0  0  0  0  0  0  0
   44.0780   24.5850   36.6190 C   0  0  0  0  0  0  0  0  0  0  0  0
   43.1640   25.2150   35.8840 N   0  0  0  0  0  0  0  0  0  0  0  0
   43.5880   21.0920   35.6690 C   0  0  0  0  0  0  0  0  0  0  0  0
   44.2660   20.2880   34.8260 N   0  0  0  0  0  0  0  0  0  0  0  0
   44.0450   19.0670   35.2140 O   0  0  0  0  0  0  0  0  0  0  0  0
   43.2500   19.0610   36.2770 C   0  0  0  0  0  0  0  0  0  0  0  0
   42.9330   20.3440   36.6020 N   0  0  0  0  0  0  0  0  0  0  0  0
   44.9230   25.4450   37.5000 C   0  0  0  0  0  0  0  0  0  0  0  0
   44.2120   25.8860   38.5710 F   0  0  0  0  0  0  0  0  0  0  0  0
   45.5080   26.4500   36.7580 F   0  0  0  0  0  0  0  0  0  0  0  0
   45.9470   24.5970   37.9620 F   0  0  0  0  0  0  0  0  0  0  0  0
   38.9669   24.5746   34.1045 H   0  0  0  0  0  0  0  0  0  0  0  0
   40.4206   27.1515   33.8527 H   0  0  0  0  0  0  0  0  0  0  0  0
   40.9084   27.1208   35.3243 H   0  0  0  0  0  0  0  0  0  0  0  0
   41.7647   24.7941   33.1890 H   0  0  0  0  0  0  0  0  0  0  0  0
   38.4427   22.8700   39.1929 H   0  0  0  0  0  0  0  0  0  0  0  0
   37.1992   24.9086   38.2825 H   0  0  0  0  0  0  0  0  0  0  0  0
   41.2459   21.2707   37.4515 H   0  0  0  0  0  0  0  0  0  0  0  0
   40.1635   21.2693   38.8696 H   0  0  0  0  0  0  0  0  0  0  0  0
   41.8418   22.6440   34.3121 H   0  0  0  0  0  0  0  0  0  0  0  0
   42.9031   18.1632   36.8096 H   0  0  0  0  0  0  0  0  0  0  0  0
  1  2  1  0
  1  8  1  0
  3  1  1  0
  3  2  1  0
  3 11  1  0
  4 10  1  0
  4  5  2  0
  6  5  1  0
  7  6  2  0
  8  9  2  0
  8  7  1  0
  9  4  1  0
 11 16  1  0
 12 11  2  0
 12 13  1  0
 13 14  2  0
 14 15  1  0
 15 22  1  0
 16 15  2  0
 17 13  1  0
 17 21  1  0
 18 19  1  0
 18 17  2  0
 19 20  1  0
 20 21  2  0
 22 25  1  0
 22 23  1  0
 24 22  1  0
  1 26  1  6
  2 27  1  0
  2 28  1  0
  3 29  1  6
  5 30  1  0
  6 31  1  0
 10 32  1  0
 10 33  1  0
 12 34  1  0
 20 35  1  0
M  ISO  8  26  13  27  13  28  13  29  13  30  14  31  14  34  14  35  14
M  END
>  <minimizedAffinity>  (1) 
-5.70116997

>  <minimizedRMSD>  (1) 
0.503614008

$$$$
