
     RDKit          3D

 37 40  0  0  1  0  0  0  0  0999 V2000
   39.6980   25.0300   34.5790 C   0  0  1  0  0  0  0  0  0  0  0  0
   40.5320   26.3560   34.5620 C   0  0  0  0  0  0  0  0  0  0  0  0
   41.0860   25.1120   34.0570 C   0  0  1  0  0  0  0  0  0  0  0  0
   39.7620   22.8400   37.4780 C   0  0  0  0  0  0  0  0  0  0  0  0
   38.7350   23.3380   38.2990 C   0  0  0  0  0  0  0  0  0  0  0  0
   38.0170   24.4680   37.8280 C   0  0  0  0  0  0  0  0  0  0  0  0
   38.3760   24.9890   36.6120 N   0  0  0  0  0  0  0  0  0  0  0  0
   39.3490   24.4770   35.8900 C   0  0  0  0  0  0  0  0  0  0  0  0
   40.0570   23.4150   36.2870 N   0  0  0  0  0  0  0  0  0  0  0  0
   40.4550   21.7060   37.9590 N   0  0  0  0  0  0  0  0  0  0  0  0
   42.1780   24.5470   34.9120 C   0  0  0  0  0  0  0  0  0  0  0  0
   42.3570   23.2010   34.7920 C   0  0  0  0  0  0  0  0  0  0  0  0
   43.3430   22.4940   35.4950 C   0  0  0  0  0  0  0  0  0  0  0  0
   44.1560   23.1570   36.3270 N   0  0  0  0  0  0  0  0  0  0  0  0
   43.9800   24.4950   36.4480 C   0  0  0  0  0  0  0  0  0  0  0  0
   43.0380   25.1470   35.7710 N   0  0  0  0  0  0  0  0  0  0  0  0
   43.4740   21.0530   35.3140 C   0  0  0  0  0  0  0  0  0  0  0  0
   43.3660   20.0920   36.2990 C   0  0  0  0  0  0  0  0  0  0  0  0
   43.5580   18.8630   35.6890 C   0  0  0  0  0  0  0  0  0  0  0  0
   43.7750   19.1520   34.3460 C   0  0  0  0  0  0  0  0  0  0  0  0
   43.7160   20.4590   34.1720 O   0  0  0  0  0  0  0  0  0  0  0  0
   44.8420   25.3200   37.3440 C   0  0  0  0  0  0  0  0  0  0  0  0
   44.1890   25.6230   38.4960 F   0  0  0  0  0  0  0  0  0  0  0  0
   45.3130   26.4230   36.6620 F   0  0  0  0  0  0  0  0  0  0  0  0
   45.9400   24.4970   37.6550 F   0  0  0  0  0  0  0  0  0  0  0  0
   38.7581   24.6291   34.1717 H   0  0  0  0  0  0  0  0  0  0  0  0
   40.2682   27.1667   33.8669 H   0  0  0  0  0  0  0  0  0  0  0  0
   40.8341   27.1028   35.3110 H   0  0  0  0  0  0  0  0  0  0  0  0
   41.5275   24.7930   33.1014 H   0  0  0  0  0  0  0  0  0  0  0  0
   38.4978   22.8711   39.2664 H   0  0  0  0  0  0  0  0  0  0  0  0
   37.2009   24.9103   38.4182 H   0  0  0  0  0  0  0  0  0  0  0  0
   41.2180   21.2945   37.4028 H   0  0  0  0  0  0  0  0  0  0  0  0
   40.1970   21.2911   38.8657 H   0  0  0  0  0  0  0  0  0  0  0  0
   41.6968   22.6431   34.1116 H   0  0  0  0  0  0  0  0  0  0  0  0
   43.1655   20.2685   37.3661 H   0  0  0  0  0  0  0  0  0  0  0  0
   43.5422   17.8714   36.1648 H   0  0  0  0  0  0  0  0  0  0  0  0
   43.9652   18.4106   33.5560 H   0  0  0  0  0  0  0  0  0  0  0  0
  1  8  1  0
  2  1  1  0
  3  2  1  0
  3  1  1  0
  3 11  1  0
  4 10  1  0
  4  5  2  0
  6  5  1  0
  7  6  2  0
  8  9  2  0
  8  7  1  0
  9  4  1  0
 11 16  1  0
 12 11  2  0
 12 13  1  0
 13 14  2  0
 14 15  1  0
 15 22  1  0
 16 15  2  0
 17 13  1  0
 17 18  2  0
 19 18  1  0
 20 19  2  0
 21 20  1  0
 21 17  1  0
 22 25  1  0
 22 23  1  0
 24 22  1  0
  1 26  1  6
  2 27  1  0
  2 28  1  0
  3 29  1  6
  5 30  1  0
  6 31  1  0
 10 32  1  0
 10 33  1  0
 12 34  1  0
 18 35  1  0
 19 36  1  0
 20 37  1  0
M  ISO  8  26  13  27  13  28  13  29  13  30  14  31  14  34  14  35  14
M  ISO  2  36  14  37  14
M  END
>  <minimizedAffinity>  (1) 
-5.67657804

>  <minimizedRMSD>  (1) 
0.290154368

$$$$
