
     RDKit          3D

 39 41  0  0  1  0  0  0  0  0999 V2000
   39.6190   25.1250   34.6880 C   0  0  1  0  0  0  0  0  0  0  0  0
   40.4310   26.4640   34.6970 C   0  0  0  0  0  0  0  0  0  0  0  0
   40.9720   25.2470   34.1210 C   0  0  1  0  0  0  0  0  0  0  0  0
   39.8130   22.8140   37.4920 C   0  0  0  0  0  0  0  0  0  0  0  0
   38.8070   23.2730   38.3670 C   0  0  0  0  0  0  0  0  0  0  0  0
   38.0620   24.4090   37.9690 C   0  0  0  0  0  0  0  0  0  0  0  0
   38.3660   24.9860   36.7670 N   0  0  0  0  0  0  0  0  0  0  0  0
   39.3170   24.5170   35.9880 C   0  0  0  0  0  0  0  0  0  0  0  0
   40.0540   23.4460   36.3140 N   0  0  0  0  0  0  0  0  0  0  0  0
   40.5400   21.6720   37.8980 N   0  0  0  0  0  0  0  0  0  0  0  0
   42.1010   24.6560   34.9030 C   0  0  0  0  0  0  0  0  0  0  0  0
   42.3260   23.3310   34.6700 C   0  0  0  0  0  0  0  0  0  0  0  0
   43.3510   22.6070   35.2920 C   0  0  0  0  0  0  0  0  0  0  0  0
   44.1590   23.2270   36.1590 N   0  0  0  0  0  0  0  0  0  0  0  0
   43.9390   24.5460   36.3930 C   0  0  0  0  0  0  0  0  0  0  0  0
   42.9590   25.2160   35.7920 N   0  0  0  0  0  0  0  0  0  0  0  0
   44.7890   25.3280   37.3380 C   0  0  0  0  0  0  0  0  0  0  0  0
   44.1090   25.6160   38.4780 F   0  0  0  0  0  0  0  0  0  0  0  0
   45.3120   26.4320   36.6990 F   0  0  0  0  0  0  0  0  0  0  0  0
   45.8570   24.4680   37.6610 F   0  0  0  0  0  0  0  0  0  0  0  0
   43.5680   21.1630   35.0150 C   0  0  0  0  0  0  0  0  0  0  0  0
   42.4870   20.5960   34.1510 C   0  0  0  0  0  0  0  0  0  0  0  0
   43.6630   20.4510   36.3580 C   0  0  0  0  0  0  0  0  0  0  0  0
   38.6723   24.7227   34.2983 H   0  0  0  0  0  0  0  0  0  0  0  0
   40.1306   27.2994   34.0474 H   0  0  0  0  0  0  0  0  0  0  0  0
   40.7539   27.1845   35.4629 H   0  0  0  0  0  0  0  0  0  0  0  0
   41.3774   24.9747   33.1354 H   0  0  0  0  0  0  0  0  0  0  0  0
   38.6085   22.7671   39.3234 H   0  0  0  0  0  0  0  0  0  0  0  0
   37.2632   24.8151   38.6069 H   0  0  0  0  0  0  0  0  0  0  0  0
   41.2859   21.2954   37.2958 H   0  0  0  0  0  0  0  0  0  0  0  0
   40.3239   21.2164   38.7961 H   0  0  0  0  0  0  0  0  0  0  0  0
   41.6709   22.8058   33.9594 H   0  0  0  0  0  0  0  0  0  0  0  0
   44.4997   21.0186   34.4484 H   0  0  0  0  0  0  0  0  0  0  0  0
   41.6914   20.1787   34.7857 H   0  0  0  0  0  0  0  0  0  0  0  0
   42.0701   21.3915   33.5159 H   0  0  0  0  0  0  0  0  0  0  0  0
   42.9044   19.8008   33.5159 H   0  0  0  0  0  0  0  0  0  0  0  0
   43.5649   21.1861   37.1704 H   0  0  0  0  0  0  0  0  0  0  0  0
   42.8561   19.7076   36.4368 H   0  0  0  0  0  0  0  0  0  0  0  0
   44.6366   19.9451   36.4368 H   0  0  0  0  0  0  0  0  0  0  0  0
  1  2  1  0
  1  8  1  0
  3  1  1  0
  3  2  1  0
  3 11  1  0
  4 10  1  0
  4  5  2  0
  6  5  1  0
  7  6  2  0
  8  9  2  0
  8  7  1  0
  9  4  1  0
 11 16  1  0
 12 11  2  0
 12 13  1  0
 13 14  2  0
 14 15  1  0
 15 17  1  0
 16 15  2  0
 17 20  1  0
 17 18  1  0
 19 17  1  0
 21 13  1  0
 21 23  1  0
 22 21  1  0
  1 24  1  6
  2 25  1  0
  2 26  1  0
  3 27  1  6
  5 28  1  0
  6 29  1  0
 10 30  1  0
 10 31  1  0
 12 32  1  0
 21 33  1  0
 22 34  1  0
 22 35  1  0
 22 36  1  0
 23 37  1  0
 23 38  1  0
 23 39  1  0
M  ISO  8  24  13  25  13  26  13  27  13  28  14  29  14  32  14  33   8
M  ISO  6  34   8  35   8  36   8  37   8  38   8  39   8
M  END
>  <minimizedAffinity>  (1) 
-5.51221848

>  <minimizedRMSD>  (1) 
0.0753526315

$$$$
