
     RDKit          3D

 32 34  0  0  1  0  0  0  0  0999 V2000
   39.6950   25.1210   34.6690 C   0  0  1  0  0  0  0  0  0  0  0  0
   40.5120   26.4570   34.7050 C   0  0  0  0  0  0  0  0  0  0  0  0
   41.0670   25.2310   34.1530 C   0  0  1  0  0  0  0  0  0  0  0  0
   39.7800   22.8190   37.4850 C   0  0  0  0  0  0  0  0  0  0  0  0
   38.7420   23.2820   38.3220 C   0  0  0  0  0  0  0  0  0  0  0  0
   38.0170   24.4180   37.8930 C   0  0  0  0  0  0  0  0  0  0  0  0
   38.3660   24.9880   36.7040 N   0  0  0  0  0  0  0  0  0  0  0  0
   39.3440   24.5180   35.9590 C   0  0  0  0  0  0  0  0  0  0  0  0
   40.0640   23.4450   36.3170 N   0  0  0  0  0  0  0  0  0  0  0  0
   40.4890   21.6740   37.9200 N   0  0  0  0  0  0  0  0  0  0  0  0
   42.1660   24.6430   34.9800 C   0  0  0  0  0  0  0  0  0  0  0  0
   42.3270   23.2940   34.8400 C   0  0  0  0  0  0  0  0  0  0  0  0
   43.3150   22.5680   35.5160 C   0  0  0  0  0  0  0  0  0  0  0  0
   44.1530   23.2150   36.3470 N   0  0  0  0  0  0  0  0  0  0  0  0
   43.9920   24.5450   36.4840 C   0  0  0  0  0  0  0  0  0  0  0  0
   43.0470   25.2190   35.8330 N   0  0  0  0  0  0  0  0  0  0  0  0
   44.8780   25.3470   37.3790 C   0  0  0  0  0  0  0  0  0  0  0  0
   44.2360   25.6680   38.5360 F   0  0  0  0  0  0  0  0  0  0  0  0
   45.3820   26.4350   36.6990 F   0  0  0  0  0  0  0  0  0  0  0  0
   45.9510   24.4940   37.6920 F   0  0  0  0  0  0  0  0  0  0  0  0
   43.4170   21.1140   35.3040 C   0  0  0  0  0  0  0  0  0  0  0  0
   42.6870   20.3200   35.9540 O   0  0  0  0  0  0  0  0  0  0  0  0
   38.7608   24.7240   34.2451 H   0  0  0  0  0  0  0  0  0  0  0  0
   40.2409   27.2916   34.0418 H   0  0  0  0  0  0  0  0  0  0  0  0
   40.8098   27.1790   35.4797 H   0  0  0  0  0  0  0  0  0  0  0  0
   41.5049   24.9480   33.1844 H   0  0  0  0  0  0  0  0  0  0  0  0
   38.5061   22.7787   39.2712 H   0  0  0  0  0  0  0  0  0  0  0  0
   37.1968   24.8293   38.4997 H   0  0  0  0  0  0  0  0  0  0  0  0
   41.2560   21.2946   37.3467 H   0  0  0  0  0  0  0  0  0  0  0  0
   40.2380   21.2201   38.8098 H   0  0  0  0  0  0  0  0  0  0  0  0
   41.6486   22.7525   34.1644 H   0  0  0  0  0  0  0  0  0  0  0  0
   44.1366   20.7185   34.5720 H   0  0  0  0  0  0  0  0  0  0  0  0
  1  2  1  0
  1  8  1  0
  3  1  1  0
  3  2  1  0
  3 11  1  0
  4 10  1  0
  4  5  2  0
  6  5  1  0
  7  6  2  0
  8  9  2  0
  8  7  1  0
  9  4  1  0
 11 16  1  0
 12 11  2  0
 12 13  1  0
 13 14  2  0
 14 15  1  0
 15 17  1  0
 16 15  2  0
 17 20  1  0
 17 18  1  0
 19 17  1  0
 21 13  1  0
 21 22  2  0
  1 23  1  6
  2 24  1  0
  2 25  1  0
  3 26  1  6
  5 27  1  0
  6 28  1  0
 10 29  1  0
 10 30  1  0
 12 31  1  0
 21 32  1  0
M  ISO  8  23  13  24  13  25  13  26  13  27  14  28  14  31  14  32   6
M  END
>  <minimizedAffinity>  (1) 
-5.44583321

>  <minimizedRMSD>  (1) 
0.545492768

$$$$
