
     RDKit          3D

 25 26  0  0  0  0  0  0  0  0999 V2000
   39.3130   26.3270   34.8100 C   0  0  0  0  0  0  0  0  0  0  0  0
   38.2550   27.1130   34.1330 C   0  0  0  0  0  0  0  0  0  0  0  0
   37.2360   27.6900   34.8830 C   0  0  0  0  0  0  0  0  0  0  0  0
   36.2060   28.4430   34.3160 C   0  0  0  0  0  0  0  0  0  0  0  0
   36.2260   28.6030   32.9700 N   0  0  0  0  0  0  0  0  0  0  0  0
   37.2100   28.0480   32.2260 C   0  0  0  0  0  0  0  0  0  0  0  0
   38.1880   27.3250   32.8290 N   0  0  0  0  0  0  0  0  0  0  0  0
   37.3000   28.1680   30.8440 O   0  0  0  0  0  0  0  0  0  0  0  0
   39.0760   24.8500   34.7290 C   0  0  0  0  0  0  0  0  0  0  0  0
   39.7660   22.8110   37.7800 C   0  0  0  0  0  0  0  0  0  0  0  0
   38.8050   23.3100   38.6720 C   0  0  0  0  0  0  0  0  0  0  0  0
   37.9450   24.3250   38.2210 C   0  0  0  0  0  0  0  0  0  0  0  0
   38.0810   24.7760   36.9510 N   0  0  0  0  0  0  0  0  0  0  0  0
   39.0250   24.2660   36.1160 C   0  0  0  0  0  0  0  0  0  0  0  0
   39.8420   23.3070   36.5310 N   0  0  0  0  0  0  0  0  0  0  0  0
   40.2790   26.5551   34.3358 H   0  0  0  0  0  0  0  0  0  0  0  0
   39.3063   26.6071   35.8737 H   0  0  0  0  0  0  0  0  0  0  0  0
   37.2417   27.5465   35.9736 H   0  0  0  0  0  0  0  0  0  0  0  0
   35.4125   28.8873   34.9348 H   0  0  0  0  0  0  0  0  0  0  0  0
   36.6166   28.6831   30.3463 H   0  0  0  0  0  0  0  0  0  0  0  0
   38.1207   24.6607   34.2175 H   0  0  0  0  0  0  0  0  0  0  0  0
   39.8964   24.3803   34.1665 H   0  0  0  0  0  0  0  0  0  0  0  0
   40.4557   22.0163   38.1005 H   0  0  0  0  0  0  0  0  0  0  0  0
   38.7271   22.9172   39.6965 H   0  0  0  0  0  0  0  0  0  0  0  0
   37.1762   24.7453   38.8861 H   0  0  0  0  0  0  0  0  0  0  0  0
  2  1  1  0
  2  3  2  0
  4  3  1  0
  5  4  2  0
  6  7  2  0
  6  5  1  0
  7  2  1  0
  8  6  1  0
  9  1  1  0
  9 14  1  0
 10 11  2  0
 12 11  1  0
 13 12  2  0
 14 15  2  0
 14 13  1  0
 15 10  1  0
  1 16  1  0
  1 17  1  0
  3 18  1  0
  4 19  1  0
  8 20  1  0
  9 21  1  0
  9 22  1  0
 10 23  1  0
 11 24  1  0
 12 25  1  0
M  ISO  8  16   8  17   8  18  14  19  14  20   3  21   8  22   8  23  14
M  ISO  2  24  14  25  14
M  END
>  <minimizedAffinity>  (1) 
-4.11881495

>  <minimizedRMSD>  (1) 
0.0214925688

$$$$
