
     RDKit          3D

 36 39  0  0  1  0  0  0  0  0999 V2000
   39.8630   25.0100   34.5580 C   0  0  1  0  0  0  0  0  0  0  0  0
   40.6560   26.3610   34.5730 C   0  0  0  0  0  0  0  0  0  0  0  0
   41.2690   25.1250   34.1130 C   0  0  1  0  0  0  0  0  0  0  0  0
   39.7940   22.8180   37.4610 C   0  0  0  0  0  0  0  0  0  0  0  0
   38.7330   23.3250   38.2350 C   0  0  0  0  0  0  0  0  0  0  0  0
   38.0420   24.4550   37.7330 C   0  0  0  0  0  0  0  0  0  0  0  0
   38.4560   24.9710   36.5360 N   0  0  0  0  0  0  0  0  0  0  0  0
   39.4570   24.4560   35.8530 C   0  0  0  0  0  0  0  0  0  0  0  0
   40.1400   23.3930   36.2830 N   0  0  0  0  0  0  0  0  0  0  0  0
   40.4610   21.6850   37.9720 N   0  0  0  0  0  0  0  0  0  0  0  0
   42.3260   24.5980   35.0330 C   0  0  0  0  0  0  0  0  0  0  0  0
   42.4840   23.2430   35.0290 C   0  0  0  0  0  0  0  0  0  0  0  0
   43.4250   22.5580   35.7920 C   0  0  0  0  0  0  0  0  0  0  0  0
   44.2360   23.2810   36.5910 N   0  0  0  0  0  0  0  0  0  0  0  0
   44.0940   24.6160   36.6080 C   0  0  0  0  0  0  0  0  0  0  0  0
   43.1840   25.2360   35.8650 N   0  0  0  0  0  0  0  0  0  0  0  0
   43.5160   21.0800   35.7160 C   0  0  0  0  0  0  0  0  0  0  0  0
   44.0940   20.4210   34.6300 C   0  0  0  0  0  0  0  0  0  0  0  0
   43.9160   18.6410   35.1080 S   0  0  0  0  0  0  0  0  0  0  0  0
   43.0680   19.1330   36.7370 C   0  0  0  0  0  0  0  0  0  0  0  0
   43.0640   20.2970   36.6620 N   0  0  0  0  0  0  0  0  0  0  0  0
   44.9580   25.4790   37.4610 C   0  0  0  0  0  0  0  0  0  0  0  0
   44.2490   25.9930   38.4990 F   0  0  0  0  0  0  0  0  0  0  0  0
   45.5830   26.4400   36.6870 F   0  0  0  0  0  0  0  0  0  0  0  0
   45.9440   24.6280   37.9770 F   0  0  0  0  0  0  0  0  0  0  0  0
   38.9585   24.5790   34.1040 H   0  0  0  0  0  0  0  0  0  0  0  0
   40.4081   27.1571   33.8555 H   0  0  0  0  0  0  0  0  0  0  0  0
   40.8954   27.1242   35.3281 H   0  0  0  0  0  0  0  0  0  0  0  0
   41.7701   24.8089   33.1862 H   0  0  0  0  0  0  0  0  0  0  0  0
   38.4516   22.8617   39.1922 H   0  0  0  0  0  0  0  0  0  0  0  0
   37.2025   24.9015   38.2861 H   0  0  0  0  0  0  0  0  0  0  0  0
   41.2454   21.2698   37.4492 H   0  0  0  0  0  0  0  0  0  0  0  0
   40.1637   21.2729   38.8679 H   0  0  0  0  0  0  0  0  0  0  0  0
   41.8228   22.6517   34.3785 H   0  0  0  0  0  0  0  0  0  0  0  0
   44.5415   20.8499   33.7213 H   0  0  0  0  0  0  0  0  0  0  0  0
   42.6820   18.4883   37.5404 H   0  0  0  0  0  0  0  0  0  0  0  0
  1  2  1  0
  1  8  1  0
  3  1  1  0
  3  2  1  0
  3 11  1  0
  4 10  1  0
  4  5  2  0
  6  5  1  0
  7  6  2  0
  8  9  2  0
  8  7  1  0
  9  4  1  0
 11 16  1  0
 12 11  2  0
 12 13  1  0
 13 14  2  0
 14 15  1  0
 15 22  1  0
 16 15  2  0
 17 13  1  0
 17 21  1  0
 18 19  1  0
 18 17  2  0
 19 20  1  0
 21 20  2  0
 22 25  1  0
 22 23  1  0
 24 22  1  0
  1 26  1  6
  2 27  1  0
  2 28  1  0
  3 29  1  6
  5 30  1  0
  6 31  1  0
 10 32  1  0
 10 33  1  0
 12 34  1  0
 18 35  1  0
 20 36  1  0
M  ISO  8  26  13  27  13  28  13  29  13  30  14  31  14  34  14  35  14
M  ISO  1  36  14
M  END
>  <minimizedAffinity>  (1) 
-5.76445961

>  <minimizedRMSD>  (1) 
0.563921988

$$$$
