
     RDKit          3D

 46 50  0  0  1  0  0  0  0  0999 V2000
   42.1860   24.5210   34.8310 C   0  0  0  0  0  0  0  0  0  0  0  0
   42.4780   23.2200   34.6020 C   0  0  0  0  0  0  0  0  0  0  0  0
   43.5080   22.5300   35.2500 C   0  0  0  0  0  0  0  0  0  0  0  0
   44.2550   23.1860   36.1470 N   0  0  0  0  0  0  0  0  0  0  0  0
   43.9790   24.4780   36.3850 C   0  0  0  0  0  0  0  0  0  0  0  0
   42.9960   25.1100   35.7590 N   0  0  0  0  0  0  0  0  0  0  0  0
   43.7420   21.0930   34.9370 C   0  0  0  0  0  0  0  0  0  0  0  0
   44.0040   20.6420   33.6450 C   0  0  0  0  0  0  0  0  0  0  0  0
   44.1990   18.8210   33.8920 S   0  0  0  0  0  0  0  0  0  0  0  0
   43.8830   19.0090   35.7490 C   0  0  0  0  0  0  0  0  0  0  0  0
   43.7180   20.1600   35.8550 N   0  0  0  0  0  0  0  0  0  0  0  0
   43.8460   17.9820   36.8210 N   0  0  0  0  0  0  0  0  0  0  0  0
   42.7060   17.3070   37.0850 C   0  0  0  0  0  0  0  0  0  0  0  0
   42.7320   16.3700   38.0870 C   0  0  0  0  0  0  0  0  0  0  0  0
   43.8740   16.1190   38.8030 C   0  0  0  0  0  0  0  0  0  0  0  0
   43.9150   15.2590   39.7300 O   0  0  0  0  0  0  0  0  0  0  0  0
   44.9800   16.8180   38.5000 N   0  0  0  0  0  0  0  0  0  0  0  0
   44.9570   17.7330   37.5240 C   0  0  0  0  0  0  0  0  0  0  0  0
   45.9860   18.3950   37.2280 O   0  0  0  0  0  0  0  0  0  0  0  0
   39.7000   24.9640   34.6050 C   0  0  1  0  0  0  0  0  0  0  0  0
   40.5140   26.3170   34.5650 C   0  0  0  0  0  0  0  0  0  0  0  0
   41.0490   25.0960   34.0250 C   0  0  1  0  0  0  0  0  0  0  0  0
   39.9070   22.7410   37.4640 C   0  0  0  0  0  0  0  0  0  0  0  0
   38.8840   23.2000   38.3150 C   0  0  0  0  0  0  0  0  0  0  0  0
   38.1240   24.3130   37.8750 C   0  0  0  0  0  0  0  0  0  0  0  0
   38.4340   24.8660   36.6560 N   0  0  0  0  0  0  0  0  0  0  0  0
   39.3980   24.3940   35.9100 C   0  0  0  0  0  0  0  0  0  0  0  0
   40.1450   23.3460   36.2820 N   0  0  0  0  0  0  0  0  0  0  0  0
   40.6430   21.6230   37.9040 N   0  0  0  0  0  0  0  0  0  0  0  0
   44.7730   25.2820   37.3620 C   0  0  0  0  0  0  0  0  0  0  0  0
   44.0520   25.5400   38.4720 F   0  0  0  0  0  0  0  0  0  0  0  0
   45.2760   26.4160   36.7410 F   0  0  0  0  0  0  0  0  0  0  0  0
   45.8670   24.4690   37.7020 F   0  0  0  0  0  0  0  0  0  0  0  0
   41.8713   22.6739   33.8647 H   0  0  0  0  0  0  0  0  0  0  0  0
   44.0764   21.2229   32.7137 H   0  0  0  0  0  0  0  0  0  0  0  0
   41.7859   17.5024   36.5147 H   0  0  0  0  0  0  0  0  0  0  0  0
   41.8161   15.8076   38.3211 H   0  0  0  0  0  0  0  0  0  0  0  0
   45.8515   16.6487   39.0222 H   0  0  0  0  0  0  0  0  0  0  0  0
   38.7562   24.5360   34.2363 H   0  0  0  0  0  0  0  0  0  0  0  0
   40.2038   27.1314   33.8938 H   0  0  0  0  0  0  0  0  0  0  0  0
   40.8420   27.0613   35.3056 H   0  0  0  0  0  0  0  0  0  0  0  0
   41.4510   24.8108   33.0416 H   0  0  0  0  0  0  0  0  0  0  0  0
   38.6825   22.7151   39.2816 H   0  0  0  0  0  0  0  0  0  0  0  0
   37.3099   24.7219   38.4915 H   0  0  0  0  0  0  0  0  0  0  0  0
   41.4033   21.2450   37.3209 H   0  0  0  0  0  0  0  0  0  0  0  0
   40.4208   21.1837   38.8088 H   0  0  0  0  0  0  0  0  0  0  0  0
  1  6  1  0
  2  1  2  0
  2  3  1  0
  3  4  2  0
  4  5  1  0
  5 30  1  0
  6  5  2  0
  7  3  1  0
  7 11  1  0
  8  9  1  0
  8  7  2  0
  9 10  1  0
 10 11  2  0
 10 12  1  0
 12 13  1  0
 12 18  1  0
 13 14  2  0
 14 15  1  0
 15 16  2  0
 17 15  1  0
 18 17  1  0
 19 18  2  0
 20 27  1  0
 21 20  1  0
 22 21  1  0
 22 20  1  0
 22  1  1  0
 23 29  1  0
 23 24  2  0
 25 24  1  0
 26 25  2  0
 27 28  2  0
 27 26  1  0
 28 23  1  0
 30 33  1  0
 30 31  1  0
 32 30  1  0
  2 34  1  0
  8 35  1  0
 13 36  1  0
 14 37  1  0
 17 38  1  0
 20 39  1  6
 21 40  1  0
 21 41  1  0
 22 42  1  6
 24 43  1  0
 25 44  1  0
 29 45  1  0
 29 46  1  0
M  ISO  8  34  14  35  14  36  14  37  14  38   9  39  13  40  13  41  13
M  ISO  3  42  13  43  14  44  14
M  END
>  <minimizedAffinity>  (1) 
-6.61274481

>  <minimizedRMSD>  (1) 
1.21628761

$$$$
