
     RDKit          3D

 47 52  0  0  1  0  0  0  0  0999 V2000
   42.0740   24.6510   34.8910 C   0  0  0  0  0  0  0  0  0  0  0  0
   42.2940   23.3330   34.6670 C   0  0  0  0  0  0  0  0  0  0  0  0
   43.3140   22.5990   35.2810 C   0  0  0  0  0  0  0  0  0  0  0  0
   44.1270   23.2300   36.1440 N   0  0  0  0  0  0  0  0  0  0  0  0
   43.9220   24.5360   36.3760 C   0  0  0  0  0  0  0  0  0  0  0  0
   42.9470   25.2070   35.7800 N   0  0  0  0  0  0  0  0  0  0  0  0
   43.4680   21.1520   34.9770 C   0  0  0  0  0  0  0  0  0  0  0  0
   43.4820   20.6660   33.6740 C   0  0  0  0  0  0  0  0  0  0  0  0
   43.6960   18.8460   33.9340 S   0  0  0  0  0  0  0  0  0  0  0  0
   43.7290   19.0910   35.8110 C   0  0  0  0  0  0  0  0  0  0  0  0
   43.6010   20.2460   35.9170 N   0  0  0  0  0  0  0  0  0  0  0  0
   43.8790   18.0370   36.7870 N   0  0  0  0  0  0  0  0  0  0  0  0
   42.9130   17.3330   37.3800 C   0  0  0  0  0  0  0  0  0  0  0  0
   43.4370   16.4520   38.2190 N   0  0  0  0  0  0  0  0  0  0  0  0
   44.7570   16.5440   38.2090 C   0  0  0  0  0  0  0  0  0  0  0  0
   45.7900   15.8990   38.8600 C   0  0  0  0  0  0  0  0  0  0  0  0
   47.0800   16.2490   38.6120 N   0  0  0  0  0  0  0  0  0  0  0  0
   47.3320   17.2430   37.7140 C   0  0  0  0  0  0  0  0  0  0  0  0
   46.3320   17.8800   37.0720 N   0  0  0  0  0  0  0  0  0  0  0  0
   45.0440   17.5470   37.3040 C   0  0  0  0  0  0  0  0  0  0  0  0
   39.5930   25.1360   34.7140 C   0  0  1  0  0  0  0  0  0  0  0  0
   40.4250   26.4780   34.7110 C   0  0  0  0  0  0  0  0  0  0  0  0
   40.9340   25.2690   34.1220 C   0  0  1  0  0  0  0  0  0  0  0  0
   39.8070   22.8170   37.4950 C   0  0  0  0  0  0  0  0  0  0  0  0
   38.8000   23.2580   38.3720 C   0  0  0  0  0  0  0  0  0  0  0  0
   38.0490   24.3910   37.9780 C   0  0  0  0  0  0  0  0  0  0  0  0
   38.3510   24.9800   36.7770 N   0  0  0  0  0  0  0  0  0  0  0  0
   39.2990   24.5250   36.0020 C   0  0  0  0  0  0  0  0  0  0  0  0
   40.0370   23.4560   36.3330 N   0  0  0  0  0  0  0  0  0  0  0  0
   40.5360   21.6740   37.8960 N   0  0  0  0  0  0  0  0  0  0  0  0
   44.7890   25.3090   37.3120 C   0  0  0  0  0  0  0  0  0  0  0  0
   44.1350   25.5880   38.4560 F   0  0  0  0  0  0  0  0  0  0  0  0
   45.2990   26.4270   36.6680 F   0  0  0  0  0  0  0  0  0  0  0  0
   45.8720   24.4590   37.5950 F   0  0  0  0  0  0  0  0  0  0  0  0
   41.6320   22.8099   33.9613 H   0  0  0  0  0  0  0  0  0  0  0  0
   43.3894   21.2218   32.7293 H   0  0  0  0  0  0  0  0  0  0  0  0
   41.8362   17.4652   37.1983 H   0  0  0  0  0  0  0  0  0  0  0  0
   45.5683   15.0991   39.5818 H   0  0  0  0  0  0  0  0  0  0  0  0
   48.3734   17.5316   37.5087 H   0  0  0  0  0  0  0  0  0  0  0  0
   38.6387   24.7341   34.3428 H   0  0  0  0  0  0  0  0  0  0  0  0
   40.1182   27.3198   34.0728 H   0  0  0  0  0  0  0  0  0  0  0  0
   40.7733   27.1913   35.4725 H   0  0  0  0  0  0  0  0  0  0  0  0
   41.3182   25.0119   33.1239 H   0  0  0  0  0  0  0  0  0  0  0  0
   38.6042   22.7438   39.3245 H   0  0  0  0  0  0  0  0  0  0  0  0
   37.2461   24.7877   38.6168 H   0  0  0  0  0  0  0  0  0  0  0  0
   41.2860   21.3044   37.2946 H   0  0  0  0  0  0  0  0  0  0  0  0
   40.3171   21.2109   38.7896 H   0  0  0  0  0  0  0  0  0  0  0  0
  1  6  1  0
  2  1  2  0
  2  3  1  0
  3  4  2  0
  4  5  1  0
  5 31  1  0
  6  5  2  0
  7  3  1  0
  7 11  1  0
  8  9  1  0
  8  7  2  0
  9 10  1  0
 10 11  2  0
 10 12  1  0
 12 20  1  0
 12 13  1  0
 13 14  2  0
 15 14  1  0
 15 16  2  0
 17 16  1  0
 18 17  2  0
 19 20  2  0
 19 18  1  0
 20 15  1  0
 21 28  1  0
 22 21  1  0
 23 22  1  0
 23 21  1  0
 23  1  1  0
 24 30  1  0
 24 25  2  0
 26 25  1  0
 27 26  2  0
 28 29  2  0
 28 27  1  0
 29 24  1  0
 31 34  1  0
 31 32  1  0
 33 31  1  0
  2 35  1  0
  8 36  1  0
 13 37  1  0
 16 38  1  0
 18 39  1  0
 21 40  1  6
 22 41  1  0
 22 42  1  0
 23 43  1  6
 25 44  1  0
 26 45  1  0
 30 46  1  0
 30 47  1  0
M  ISO  8  35  14  36  14  37  14  38  14  39  14  40  13  41  13  42  13
M  ISO  3  43  13  44  14  45  14
M  END
>  <minimizedAffinity>  (1) 
-6.53901339

>  <minimizedRMSD>  (1) 
1.47883892

$$$$
