
     RDKit          3D

 46 50  0  0  1  0  0  0  0  0999 V2000
   42.0900   24.6170   34.9260 C   0  0  0  0  0  0  0  0  0  0  0  0
   42.2730   23.2850   34.7600 C   0  0  0  0  0  0  0  0  0  0  0  0
   43.2700   22.5480   35.4080 C   0  0  0  0  0  0  0  0  0  0  0  0
   44.1000   23.1910   36.2450 N   0  0  0  0  0  0  0  0  0  0  0  0
   43.9330   24.5120   36.4190 C   0  0  0  0  0  0  0  0  0  0  0  0
   42.9780   25.1840   35.7920 N   0  0  0  0  0  0  0  0  0  0  0  0
   39.6180   25.1200   34.6950 C   0  0  1  0  0  0  0  0  0  0  0  0
   40.4630   26.4550   34.6910 C   0  0  0  0  0  0  0  0  0  0  0  0
   40.9700   25.2330   34.1290 C   0  0  1  0  0  0  0  0  0  0  0  0
   39.7600   22.8390   37.5150 C   0  0  0  0  0  0  0  0  0  0  0  0
   38.7440   23.3010   38.3660 C   0  0  0  0  0  0  0  0  0  0  0  0
   38.0110   24.4350   37.9450 C   0  0  0  0  0  0  0  0  0  0  0  0
   38.3390   25.0010   36.7420 N   0  0  0  0  0  0  0  0  0  0  0  0
   39.2960   24.5300   35.9880 C   0  0  0  0  0  0  0  0  0  0  0  0
   40.0180   23.4590   36.3470 N   0  0  0  0  0  0  0  0  0  0  0  0
   40.4750   21.6950   37.9420 N   0  0  0  0  0  0  0  0  0  0  0  0
   43.3830   21.0820   35.1660 C   0  0  0  0  0  0  0  0  0  0  0  0
   43.2800   20.5360   33.8840 C   0  0  0  0  0  0  0  0  0  0  0  0
   43.4960   18.7240   34.2230 S   0  0  0  0  0  0  0  0  0  0  0  0
   43.6880   19.0650   36.0720 C   0  0  0  0  0  0  0  0  0  0  0  0
   43.5820   20.2200   36.1240 N   0  0  0  0  0  0  0  0  0  0  0  0
   43.9110   17.9530   37.0280 C   0  0  0  0  0  0  0  0  0  0  0  0
   45.1600   17.6680   37.5270 C   0  0  0  0  0  0  0  0  0  0  0  0
   45.2800   16.6170   38.4110 C   0  0  0  0  0  0  0  0  0  0  0  0
   44.1890   15.8670   38.7920 C   0  0  0  0  0  0  0  0  0  0  0  0
   42.9210   16.1220   38.3130 C   0  0  0  0  0  0  0  0  0  0  0  0
   42.8260   17.1780   37.4300 C   0  0  0  0  0  0  0  0  0  0  0  0
   44.8210   25.2990   37.3230 C   0  0  0  0  0  0  0  0  0  0  0  0
   44.1840   25.6090   38.4740 F   0  0  0  0  0  0  0  0  0  0  0  0
   45.3290   26.3970   36.6520 F   0  0  0  0  0  0  0  0  0  0  0  0
   45.9010   24.4480   37.6110 F   0  0  0  0  0  0  0  0  0  0  0  0
   41.5976   22.7513   34.0751 H   0  0  0  0  0  0  0  0  0  0  0  0
   38.6677   24.7217   34.3100 H   0  0  0  0  0  0  0  0  0  0  0  0
   40.1773   27.2910   34.0356 H   0  0  0  0  0  0  0  0  0  0  0  0
   40.8034   27.1755   35.4493 H   0  0  0  0  0  0  0  0  0  0  0  0
   41.3700   24.9575   33.1420 H   0  0  0  0  0  0  0  0  0  0  0  0
   38.5266   22.8014   39.3216 H   0  0  0  0  0  0  0  0  0  0  0  0
   37.2023   24.8495   38.5649 H   0  0  0  0  0  0  0  0  0  0  0  0
   41.2314   21.3124   37.3569 H   0  0  0  0  0  0  0  0  0  0  0  0
   40.2390   21.2449   38.8379 H   0  0  0  0  0  0  0  0  0  0  0  0
   43.1141   21.0469   32.9241 H   0  0  0  0  0  0  0  0  0  0  0  0
   46.0375   18.2610   37.2297 H   0  0  0  0  0  0  0  0  0  0  0  0
   46.2704   16.3714   38.8219 H   0  0  0  0  0  0  0  0  0  0  0  0
   44.3338   15.0384   39.5008 H   0  0  0  0  0  0  0  0  0  0  0  0
   42.0470   15.5255   38.6137 H   0  0  0  0  0  0  0  0  0  0  0  0
   41.8351   17.4220   37.0195 H   0  0  0  0  0  0  0  0  0  0  0  0
  1  6  1  0
  2  1  2  0
  2  3  1  0
  3  4  2  0
  4  5  1  0
  5 28  1  0
  6  5  2  0
  7 14  1  0
  8  7  1  0
  9  8  1  0
  9  7  1  0
  9  1  1  0
 10 16  1  0
 10 11  2  0
 12 11  1  0
 13 12  2  0
 14 15  2  0
 14 13  1  0
 15 10  1  0
 17  3  1  0
 17 21  1  0
 18 19  1  0
 18 17  2  0
 19 20  1  0
 20 21  2  0
 20 22  1  0
 22 27  1  0
 22 23  2  0
 23 24  1  0
 24 25  2  0
 26 25  1  0
 27 26  2  0
 28 31  1  0
 28 29  1  0
 30 28  1  0
  2 32  1  0
  7 33  1  6
  8 34  1  0
  8 35  1  0
  9 36  1  6
 11 37  1  0
 12 38  1  0
 16 39  1  0
 16 40  1  0
 18 41  1  0
 23 42  1  0
 24 43  1  0
 25 44  1  0
 26 45  1  0
 27 46  1  0
M  ISO  8  32  14  33  13  34  13  35  13  36  13  37  14  38  14  41  14
M  ISO  5  42  14  43  14  44  14  45  14  46  14
M  END
>  <minimizedAffinity>  (1) 
-6.29152584

>  <minimizedRMSD>  (1) 
1.06420374

$$$$
