
     RDKit          3D

 43 47  0  0  1  0  0  0  0  0999 V2000
   42.2030   24.5350   34.9120 C   0  0  0  0  0  0  0  0  0  0  0  0
   42.3890   23.1980   34.7960 C   0  0  0  0  0  0  0  0  0  0  0  0
   43.3610   22.4740   35.4960 C   0  0  0  0  0  0  0  0  0  0  0  0
   44.1690   23.1550   36.3430 N   0  0  0  0  0  0  0  0  0  0  0  0
   43.9970   24.4800   36.4680 C   0  0  0  0  0  0  0  0  0  0  0  0
   43.0630   25.1320   35.7890 N   0  0  0  0  0  0  0  0  0  0  0  0
   39.7380   25.0240   34.5870 C   0  0  1  0  0  0  0  0  0  0  0  0
   40.5790   26.3590   34.5670 C   0  0  0  0  0  0  0  0  0  0  0  0
   41.1080   25.1210   34.0610 C   0  0  1  0  0  0  0  0  0  0  0  0
   39.7820   22.8260   37.4730 C   0  0  0  0  0  0  0  0  0  0  0  0
   38.7430   23.3180   38.2800 C   0  0  0  0  0  0  0  0  0  0  0  0
   38.0290   24.4420   37.8030 C   0  0  0  0  0  0  0  0  0  0  0  0
   38.3970   24.9750   36.5920 N   0  0  0  0  0  0  0  0  0  0  0  0
   39.3730   24.4740   35.8860 C   0  0  0  0  0  0  0  0  0  0  0  0
   40.0790   23.4100   36.2970 N   0  0  0  0  0  0  0  0  0  0  0  0
   40.4760   21.6910   37.9550 N   0  0  0  0  0  0  0  0  0  0  0  0
   43.4830   21.0070   35.3100 C   0  0  0  0  0  0  0  0  0  0  0  0
   43.6120   20.4380   34.0490 C   0  0  0  0  0  0  0  0  0  0  0  0
   43.7190   18.6280   34.4590 S   0  0  0  0  0  0  0  0  0  0  0  0
   43.5620   19.0120   36.3000 C   0  0  0  0  0  0  0  0  0  0  0  0
   43.4740   20.1690   36.3220 N   0  0  0  0  0  0  0  0  0  0  0  0
   43.5840   17.8360   37.2320 C   0  0  0  0  0  0  0  0  0  0  0  0
   44.6320   17.0830   37.6510 C   0  0  0  0  0  0  0  0  0  0  0  0
   44.1020   16.1590   38.4760 N   0  0  0  0  0  0  0  0  0  0  0  0
   42.7590   16.3950   38.5150 C   0  0  0  0  0  0  0  0  0  0  0  0
   42.4160   17.4590   37.7280 N   0  0  0  0  0  0  0  0  0  0  0  0
   44.8560   25.2980   37.3720 C   0  0  0  0  0  0  0  0  0  0  0  0
   44.1950   25.6210   38.5030 F   0  0  0  0  0  0  0  0  0  0  0  0
   45.3590   26.3940   36.6840 F   0  0  0  0  0  0  0  0  0  0  0  0
   45.9430   24.4700   37.6970 F   0  0  0  0  0  0  0  0  0  0  0  0
   41.7334   22.6455   34.1068 H   0  0  0  0  0  0  0  0  0  0  0  0
   38.8010   24.6114   34.1847 H   0  0  0  0  0  0  0  0  0  0  0  0
   40.3127   27.1725   33.8761 H   0  0  0  0  0  0  0  0  0  0  0  0
   40.8928   27.1045   35.3125 H   0  0  0  0  0  0  0  0  0  0  0  0
   41.5405   24.8143   33.0972 H   0  0  0  0  0  0  0  0  0  0  0  0
   38.4948   22.8485   39.2433 H   0  0  0  0  0  0  0  0  0  0  0  0
   37.2030   24.8766   38.3851 H   0  0  0  0  0  0  0  0  0  0  0  0
   41.2474   21.2870   37.4049 H   0  0  0  0  0  0  0  0  0  0  0  0
   40.2098   21.2688   38.8560 H   0  0  0  0  0  0  0  0  0  0  0  0
   43.6428   20.9298   33.0655 H   0  0  0  0  0  0  0  0  0  0  0  0
   45.6903   17.2018   37.3755 H   0  0  0  0  0  0  0  0  0  0  0  0
   42.0428   15.8041   39.1049 H   0  0  0  0  0  0  0  0  0  0  0  0
   41.4839   17.8649   37.5627 H   0  0  0  0  0  0  0  0  0  0  0  0
  1  6  1  0
  2  1  2  0
  2  3  1  0
  3  4  2  0
  4  5  1  0
  5 27  1  0
  6  5  2  0
  7 14  1  0
  8  7  1  0
  9  8  1  0
  9  7  1  0
  9  1  1  0
 10 16  1  0
 10 11  2  0
 12 11  1  0
 13 12  2  0
 14 15  2  0
 14 13  1  0
 15 10  1  0
 17  3  1  0
 17 21  1  0
 18 19  1  0
 18 17  2  0
 19 20  1  0
 20 21  2  0
 20 22  1  0
 22 23  2  0
 22 26  1  0
 23 24  1  0
 24 25  2  0
 26 25  1  0
 27 30  1  0
 27 28  1  0
 29 27  1  0
  2 31  1  0
  7 32  1  6
  8 33  1  0
  8 34  1  0
  9 35  1  6
 11 36  1  0
 12 37  1  0
 16 38  1  0
 16 39  1  0
 18 40  1  0
 23 41  1  0
 25 42  1  0
 26 43  1  0
M  ISO  8  31  14  32  13  33  13  34  13  35  13  36  14  37  14  40  14
M  ISO  3  41  14  42  14  43   9
M  END
>  <minimizedAffinity>  (1) 
-6.28824186

>  <minimizedRMSD>  (1) 
0.634231865

$$$$
