
     RDKit          3D

 31 33  0  0  0  0  0  0  0  0999 V2000
   39.2860   26.4530   34.9550 C   0  0  0  0  0  0  0  0  0  0  0  0
   38.2960   27.1680   34.1080 C   0  0  0  0  0  0  0  0  0  0  0  0
   37.1580   27.7130   34.6920 C   0  0  0  0  0  0  0  0  0  0  0  0
   36.1670   28.4020   33.9960 C   0  0  0  0  0  0  0  0  0  0  0  0
   36.3560   28.5340   32.6480 N   0  0  0  0  0  0  0  0  0  0  0  0
   37.4610   28.0060   32.0730 C   0  0  0  0  0  0  0  0  0  0  0  0
   38.4000   27.3420   32.8010 N   0  0  0  0  0  0  0  0  0  0  0  0
   37.6860   28.1330   30.6380 C   0  0  0  0  0  0  0  0  0  0  0  0
   38.9400   27.8580   30.0990 C   0  0  0  0  0  0  0  0  0  0  0  0
   38.8800   28.0570   28.7170 C   0  0  0  0  0  0  0  0  0  0  0  0
   37.6000   28.4430   28.4720 N   0  0  0  0  0  0  0  0  0  0  0  0
   36.8830   28.4930   29.5960 N   0  0  0  0  0  0  0  0  0  0  0  0
   39.2000   24.9560   34.7990 C   0  0  0  0  0  0  0  0  0  0  0  0
   39.7570   22.7840   37.7890 C   0  0  0  0  0  0  0  0  0  0  0  0
   38.7620   23.2740   38.6620 C   0  0  0  0  0  0  0  0  0  0  0  0
   37.9300   24.3170   38.2330 C   0  0  0  0  0  0  0  0  0  0  0  0
   38.1250   24.8110   36.9800 N   0  0  0  0  0  0  0  0  0  0  0  0
   39.0960   24.3160   36.1590 C   0  0  0  0  0  0  0  0  0  0  0  0
   39.8960   23.3230   36.5540 N   0  0  0  0  0  0  0  0  0  0  0  0
   40.2967   26.7805   34.6701 H   0  0  0  0  0  0  0  0  0  0  0  0
   39.0656   26.6943   36.0053 H   0  0  0  0  0  0  0  0  0  0  0  0
   37.0314   27.5919   35.7780 H   0  0  0  0  0  0  0  0  0  0  0  0
   35.2826   28.8164   34.5021 H   0  0  0  0  0  0  0  0  0  0  0  0
   39.8274   27.5383   30.6650 H   0  0  0  0  0  0  0  0  0  0  0  0
   39.6922   27.9290   27.9863 H   0  0  0  0  0  0  0  0  0  0  0  0
   37.2305   28.6683   27.5373 H   0  0  0  0  0  0  0  0  0  0  0  0
   38.3112   24.6996   34.2038 H   0  0  0  0  0  0  0  0  0  0  0  0
   40.1016   24.5876   34.2877 H   0  0  0  0  0  0  0  0  0  0  0  0
   40.4183   21.9660   38.1109 H   0  0  0  0  0  0  0  0  0  0  0  0
   38.6411   22.8426   39.6666 H   0  0  0  0  0  0  0  0  0  0  0  0
   37.1449   24.7231   38.8877 H   0  0  0  0  0  0  0  0  0  0  0  0
  2  3  2  0
  2  1  1  0
  4  3  1  0
  5  4  2  0
  6  5  1  0
  6  7  2  0
  7  2  1  0
  8  6  1  0
  9  8  1  0
 10  9  2  0
 11 10  1  0
 11 12  1  0
 12  8  2  0
 13  1  1  0
 13 18  1  0
 14 15  2  0
 16 15  1  0
 17 16  2  0
 18 19  2  0
 18 17  1  0
 19 14  1  0
  1 20  1  0
  1 21  1  0
  3 22  1  0
  4 23  1  0
  9 24  1  0
 10 25  1  0
 11 26  1  0
 13 27  1  0
 13 28  1  0
 14 29  1  0
 15 30  1  0
 16 31  1  0
M  ISO  8  20   8  21   8  22  14  23  14  24  14  25  14  26   9  27   8
M  ISO  4  28   8  29  14  30  14  31  14
M  END
>  <minimizedAffinity>  (1) 
-4.97020531

>  <minimizedRMSD>  (1) 
0.582420349

$$$$
