
     RDKit          3D

 52 56  0  0  1  0  0  0  0  0999 V2000
   42.2260   24.4800   34.8760 C   0  0  0  0  0  0  0  0  0  0  0  0
   42.4610   23.1550   34.7300 C   0  0  0  0  0  0  0  0  0  0  0  0
   43.4490   22.4520   35.4220 C   0  0  0  0  0  0  0  0  0  0  0  0
   44.2230   23.1360   36.2940 N   0  0  0  0  0  0  0  0  0  0  0  0
   44.0020   24.4530   36.4510 C   0  0  0  0  0  0  0  0  0  0  0  0
   43.0530   25.0870   35.7770 N   0  0  0  0  0  0  0  0  0  0  0  0
   39.7520   24.9520   34.5680 C   0  0  1  0  0  0  0  0  0  0  0  0
   40.5890   26.2900   34.5190 C   0  0  0  0  0  0  0  0  0  0  0  0
   41.1230   25.0510   34.0210 C   0  0  1  0  0  0  0  0  0  0  0  0
   39.8350   22.7870   37.4760 C   0  0  0  0  0  0  0  0  0  0  0  0
   38.8010   23.2840   38.2890 C   0  0  0  0  0  0  0  0  0  0  0  0
   38.0760   24.4050   37.8070 C   0  0  0  0  0  0  0  0  0  0  0  0
   38.4320   24.9250   36.5860 N   0  0  0  0  0  0  0  0  0  0  0  0
   39.4040   24.4170   35.8760 C   0  0  0  0  0  0  0  0  0  0  0  0
   40.1170   23.3620   36.2870 N   0  0  0  0  0  0  0  0  0  0  0  0
   40.5310   21.6650   37.9590 N   0  0  0  0  0  0  0  0  0  0  0  0
   43.6280   20.9960   35.2040 C   0  0  0  0  0  0  0  0  0  0  0  0
   44.1020   20.4860   34.0020 C   0  0  0  0  0  0  0  0  0  0  0  0
   44.1050   18.6640   34.3330 S   0  0  0  0  0  0  0  0  0  0  0  0
   43.4400   18.9480   36.1030 C   0  0  0  0  0  0  0  0  0  0  0  0
   43.3540   20.1080   36.1220 N   0  0  0  0  0  0  0  0  0  0  0  0
   43.1870   17.8150   37.0100 C   0  0  0  0  0  0  0  0  0  0  0  0
   42.2740   16.7570   36.4230 C   0  0  0  0  0  0  0  0  0  0  0  0
   41.9650   15.7480   37.4880 C   0  0  0  0  0  0  0  0  0  0  0  0
   42.6540   16.0120   38.8030 C   0  0  0  0  0  0  0  0  0  0  0  0
   44.1250   16.1850   38.6000 C   0  0  0  0  0  0  0  0  0  0  0  0
   44.4620   17.1370   37.4860 C   0  0  0  0  0  0  0  0  0  0  0  0
   44.8210   25.2790   37.3860 C   0  0  0  0  0  0  0  0  0  0  0  0
   44.1300   25.5700   38.5060 F   0  0  0  0  0  0  0  0  0  0  0  0
   45.3130   26.3950   36.7240 F   0  0  0  0  0  0  0  0  0  0  0  0
   45.9210   24.4740   37.7210 F   0  0  0  0  0  0  0  0  0  0  0  0
   41.8331   22.5961   34.0205 H   0  0  0  0  0  0  0  0  0  0  0  0
   38.8118   24.5299   34.1835 H   0  0  0  0  0  0  0  0  0  0  0  0
   40.3095   27.0932   33.8213 H   0  0  0  0  0  0  0  0  0  0  0  0
   40.9077   27.0456   35.2521 H   0  0  0  0  0  0  0  0  0  0  0  0
   41.5490   24.7383   33.0563 H   0  0  0  0  0  0  0  0  0  0  0  0
   38.5636   22.8228   39.2590 H   0  0  0  0  0  0  0  0  0  0  0  0
   37.2547   24.8438   38.3927 H   0  0  0  0  0  0  0  0  0  0  0  0
   41.2985   21.2577   37.4059 H   0  0  0  0  0  0  0  0  0  0  0  0
   40.2734   21.2503   38.8660 H   0  0  0  0  0  0  0  0  0  0  0  0
   44.3987   21.0247   33.0900 H   0  0  0  0  0  0  0  0  0  0  0  0
   42.6798   18.2810   37.8677 H   0  0  0  0  0  0  0  0  0  0  0  0
   41.3416   17.2245   36.0736 H   0  0  0  0  0  0  0  0  0  0  0  0
   42.7670   16.2656   35.5712 H   0  0  0  0  0  0  0  0  0  0  0  0
   40.8786   15.7492   37.6606 H   0  0  0  0  0  0  0  0  0  0  0  0
   42.3356   14.7783   37.1241 H   0  0  0  0  0  0  0  0  0  0  0  0
   42.2405   16.9278   39.2505 H   0  0  0  0  0  0  0  0  0  0  0  0
   42.4863   15.1537   39.4702 H   0  0  0  0  0  0  0  0  0  0  0  0
   44.5637   16.5692   39.5327 H   0  0  0  0  0  0  0  0  0  0  0  0
   44.5345   15.2019   38.3246 H   0  0  0  0  0  0  0  0  0  0  0  0
   44.9179   16.5825   36.6525 H   0  0  0  0  0  0  0  0  0  0  0  0
   45.1726   17.8948   37.8476 H   0  0  0  0  0  0  0  0  0  0  0  0
  1  6  1  0
  2  1  2  0
  2  3  1  0
  3  4  2  0
  4  5  1  0
  5 28  1  0
  6  5  2  0
  7 14  1  0
  8  7  1  0
  9  8  1  0
  9  7  1  0
  9  1  1  0
 10 16  1  0
 10 11  2  0
 12 11  1  0
 13 12  2  0
 14 15  2  0
 14 13  1  0
 15 10  1  0
 17  3  1  0
 17 21  1  0
 18 19  1  0
 18 17  2  0
 19 20  1  0
 20 21  2  0
 20 22  1  0
 22 27  1  0
 23 22  1  0
 23 24  1  0
 24 25  1  0
 26 25  1  0
 27 26  1  0
 28 31  1  0
 28 29  1  0
 30 28  1  0
  2 32  1  0
  7 33  1  6
  8 34  1  0
  8 35  1  0
  9 36  1  6
 11 37  1  0
 12 38  1  0
 16 39  1  0
 16 40  1  0
 18 41  1  0
 22 42  1  0
 23 43  1  0
 23 44  1  0
 24 45  1  0
 24 46  1  0
 25 47  1  0
 25 48  1  0
 26 49  1  0
 26 50  1  0
 27 51  1  0
 27 52  1  0
M  ISO  8  32  14  33  13  34  13  35  13  36  13  37  14  38  14  41  14
M  ISO  8  42  13  43  13  44  13  45  13  46  13  47  13  48  13  49  13
M  ISO  3  50  13  51  13  52  13
M  END
>  <minimizedAffinity>  (1) 
-6.13724852

>  <minimizedRMSD>  (1) 
0.784311056

$$$$
