
     RDKit          3D

 51 55  0  0  1  0  0  0  0  0999 V2000
   42.0110   24.6820   34.8630 C   0  0  0  0  0  0  0  0  0  0  0  0
   42.2170   23.3720   34.5870 C   0  0  0  0  0  0  0  0  0  0  0  0
   43.2400   22.6140   35.1550 C   0  0  0  0  0  0  0  0  0  0  0  0
   44.0770   23.2130   36.0260 N   0  0  0  0  0  0  0  0  0  0  0  0
   43.8840   24.5160   36.3080 C   0  0  0  0  0  0  0  0  0  0  0  0
   42.9040   25.2060   35.7550 N   0  0  0  0  0  0  0  0  0  0  0  0
   43.3830   21.1680   34.8040 C   0  0  0  0  0  0  0  0  0  0  0  0
   43.4390   20.7250   33.4910 C   0  0  0  0  0  0  0  0  0  0  0  0
   43.6270   18.9070   33.6910 S   0  0  0  0  0  0  0  0  0  0  0  0
   43.5940   19.0790   35.5890 C   0  0  0  0  0  0  0  0  0  0  0  0
   43.4720   20.2330   35.7090 N   0  0  0  0  0  0  0  0  0  0  0  0
   43.7020   18.1010   36.7120 N   0  0  0  0  0  0  0  0  0  0  0  0
   42.7130   17.1190   37.1160 C   0  0  0  0  0  0  0  0  0  0  0  0
   43.3500   15.7440   37.0160 C   0  0  0  0  0  0  0  0  0  0  0  0
   44.8320   15.7730   36.8360 C   0  0  0  0  0  0  0  0  0  0  0  0
   45.5180   16.8110   37.6790 C   0  0  0  0  0  0  0  0  0  0  0  0
   44.9350   18.1730   37.4810 C   0  0  0  0  0  0  0  0  0  0  0  0
   39.5240   25.2000   34.7520 C   0  0  1  0  0  0  0  0  0  0  0  0
   40.3770   26.5300   34.7580 C   0  0  0  0  0  0  0  0  0  0  0  0
   40.8580   25.3260   34.1310 C   0  0  1  0  0  0  0  0  0  0  0  0
   39.7890   22.8270   37.4820 C   0  0  0  0  0  0  0  0  0  0  0  0
   38.7970   23.2440   38.3830 C   0  0  0  0  0  0  0  0  0  0  0  0
   38.0290   24.3880   38.0250 C   0  0  0  0  0  0  0  0  0  0  0  0
   38.3150   24.9950   36.8270 N   0  0  0  0  0  0  0  0  0  0  0  0
   39.2540   24.5580   36.0290 C   0  0  0  0  0  0  0  0  0  0  0  0
   40.0020   23.4850   36.3290 N   0  0  0  0  0  0  0  0  0  0  0  0
   40.5350   21.6790   37.8440 N   0  0  0  0  0  0  0  0  0  0  0  0
   44.7710   25.2530   37.2510 C   0  0  0  0  0  0  0  0  0  0  0  0
   44.1250   25.5210   38.4050 F   0  0  0  0  0  0  0  0  0  0  0  0
   45.2940   26.3750   36.6300 F   0  0  0  0  0  0  0  0  0  0  0  0
   45.8350   24.3840   37.5180 F   0  0  0  0  0  0  0  0  0  0  0  0
   41.5392   22.8786   33.8749 H   0  0  0  0  0  0  0  0  0  0  0  0
   43.3846   21.3134   32.5632 H   0  0  0  0  0  0  0  0  0  0  0  0
   42.3985   17.3104   38.1526 H   0  0  0  0  0  0  0  0  0  0  0  0
   41.8274   17.1784   36.4662 H   0  0  0  0  0  0  0  0  0  0  0  0
   43.1245   15.1903   37.9393 H   0  0  0  0  0  0  0  0  0  0  0  0
   42.9299   15.2630   36.1204 H   0  0  0  0  0  0  0  0  0  0  0  0
   45.2347   14.7851   37.1040 H   0  0  0  0  0  0  0  0  0  0  0  0
   45.0252   16.0309   35.7843 H   0  0  0  0  0  0  0  0  0  0  0  0
   45.4153   16.5320   38.7381 H   0  0  0  0  0  0  0  0  0  0  0  0
   46.5748   16.8482   37.3761 H   0  0  0  0  0  0  0  0  0  0  0  0
   45.6600   18.8006   36.9420 H   0  0  0  0  0  0  0  0  0  0  0  0
   44.7107   18.6070   38.4666 H   0  0  0  0  0  0  0  0  0  0  0  0
   38.5531   24.8250   34.3959 H   0  0  0  0  0  0  0  0  0  0  0  0
   40.0685   27.3895   34.1447 H   0  0  0  0  0  0  0  0  0  0  0  0
   40.7522   27.2215   35.5268 H   0  0  0  0  0  0  0  0  0  0  0  0
   41.2153   25.0815   33.1198 H   0  0  0  0  0  0  0  0  0  0  0  0
   38.6201   22.7086   39.3275 H   0  0  0  0  0  0  0  0  0  0  0  0
   37.2359   24.7715   38.6837 H   0  0  0  0  0  0  0  0  0  0  0  0
   41.2758   21.3283   37.2201 H   0  0  0  0  0  0  0  0  0  0  0  0
   40.3368   21.1947   38.7312 H   0  0  0  0  0  0  0  0  0  0  0  0
  1  6  1  0
  2  1  2  0
  2  3  1  0
  3  4  2  0
  4  5  1  0
  5 28  1  0
  6  5  2  0
  7  3  1  0
  7 11  1  0
  8  9  1  0
  8  7  2  0
  9 10  1  0
 10 11  2  0
 10 12  1  0
 12 13  1  0
 12 17  1  0
 14 13  1  0
 15 14  1  0
 15 16  1  0
 17 16  1  0
 18 19  1  0
 18 25  1  0
 20 18  1  0
 20 19  1  0
 20  1  1  0
 21 27  1  0
 21 22  2  0
 23 22  1  0
 24 23  2  0
 25 26  2  0
 25 24  1  0
 26 21  1  0
 28 31  1  0
 28 29  1  0
 30 28  1  0
  2 32  1  0
  8 33  1  0
 13 34  1  0
 13 35  1  0
 14 36  1  0
 14 37  1  0
 15 38  1  0
 15 39  1  0
 16 40  1  0
 16 41  1  0
 17 42  1  0
 17 43  1  0
 18 44  1  6
 19 45  1  0
 19 46  1  0
 20 47  1  6
 22 48  1  0
 23 49  1  0
 27 50  1  0
 27 51  1  0
M  ISO  8  32  14  33  14  34  13  35  13  36  13  37  13  38  13  39  13
M  ISO  8  40  13  41  13  42  13  43  13  44  13  45  13  46  13  47  13
M  ISO  2  48  14  49  14
M  END
>  <minimizedAffinity>  (1) 
-6.13394737

>  <minimizedRMSD>  (1) 
1.1447624

$$$$
