
     RDKit          3D

 42 46  0  0  1  0  0  0  0  0999 V2000
   42.1150   24.5980   34.9290 C   0  0  0  0  0  0  0  0  0  0  0  0
   42.3000   23.2650   34.7700 C   0  0  0  0  0  0  0  0  0  0  0  0
   43.2870   22.5240   35.4210 C   0  0  0  0  0  0  0  0  0  0  0  0
   44.1160   23.1800   36.2680 N   0  0  0  0  0  0  0  0  0  0  0  0
   43.9470   24.5020   36.4360 C   0  0  0  0  0  0  0  0  0  0  0  0
   42.9950   25.1700   35.8000 N   0  0  0  0  0  0  0  0  0  0  0  0
   39.6440   25.1030   34.6830 C   0  0  1  0  0  0  0  0  0  0  0  0
   40.4910   26.4360   34.6740 C   0  0  0  0  0  0  0  0  0  0  0  0
   40.9990   25.2080   34.1200 C   0  0  1  0  0  0  0  0  0  0  0  0
   39.7680   22.8350   37.5120 C   0  0  0  0  0  0  0  0  0  0  0  0
   38.7440   23.3020   38.3550 C   0  0  0  0  0  0  0  0  0  0  0  0
   38.0150   24.4330   37.9230 C   0  0  0  0  0  0  0  0  0  0  0  0
   38.3510   24.9960   36.7180 N   0  0  0  0  0  0  0  0  0  0  0  0
   39.3140   24.5180   35.9760 C   0  0  0  0  0  0  0  0  0  0  0  0
   40.0330   23.4490   36.3450 N   0  0  0  0  0  0  0  0  0  0  0  0
   40.4760   21.6930   37.9500 N   0  0  0  0  0  0  0  0  0  0  0  0
   43.4060   21.0620   35.1930 C   0  0  0  0  0  0  0  0  0  0  0  0
   43.2830   20.5010   33.9230 C   0  0  0  0  0  0  0  0  0  0  0  0
   43.5210   18.7020   34.2800 S   0  0  0  0  0  0  0  0  0  0  0  0
   43.7460   19.0590   36.1190 C   0  0  0  0  0  0  0  0  0  0  0  0
   43.6290   20.2180   36.1510 N   0  0  0  0  0  0  0  0  0  0  0  0
   43.9960   17.9290   37.0570 C   0  0  0  0  0  0  0  0  0  0  0  0
   42.8490   17.1130   37.3660 C   0  0  0  0  0  0  0  0  0  0  0  0
   43.6230   15.8770   38.5300 S   0  0  0  0  0  0  0  0  0  0  0  0
   45.3230   16.7020   38.3690 C   0  0  0  0  0  0  0  0  0  0  0  0
   45.1440   17.5740   37.6490 N   0  0  0  0  0  0  0  0  0  0  0  0
   44.8270   25.2950   37.3440 C   0  0  0  0  0  0  0  0  0  0  0  0
   44.1840   25.6080   38.4860 F   0  0  0  0  0  0  0  0  0  0  0  0
   45.3410   26.3890   36.6630 F   0  0  0  0  0  0  0  0  0  0  0  0
   45.9070   24.4440   37.6410 F   0  0  0  0  0  0  0  0  0  0  0  0
   41.6274   22.7317   34.0821 H   0  0  0  0  0  0  0  0  0  0  0  0
   38.6933   24.7061   34.2976 H   0  0  0  0  0  0  0  0  0  0  0  0
   40.2089   27.2686   34.0127 H   0  0  0  0  0  0  0  0  0  0  0  0
   40.8300   27.1603   35.4293 H   0  0  0  0  0  0  0  0  0  0  0  0
   41.4014   24.9238   33.1365 H   0  0  0  0  0  0  0  0  0  0  0  0
   38.5196   22.8073   39.3115 H   0  0  0  0  0  0  0  0  0  0  0  0
   37.2017   24.8498   38.5352 H   0  0  0  0  0  0  0  0  0  0  0  0
   41.2368   21.3062   37.3734 H   0  0  0  0  0  0  0  0  0  0  0  0
   40.2312   21.2475   38.8458 H   0  0  0  0  0  0  0  0  0  0  0  0
   43.0938   20.9982   32.9602 H   0  0  0  0  0  0  0  0  0  0  0  0
   41.8099   17.1956   37.0146 H   0  0  0  0  0  0  0  0  0  0  0  0
   46.2651   16.4097   38.8558 H   0  0  0  0  0  0  0  0  0  0  0  0
  1  6  1  0
  2  1  2  0
  2  3  1  0
  3  4  2  0
  4  5  1  0
  5 27  1  0
  6  5  2  0
  7 14  1  0
  8  7  1  0
  9  8  1  0
  9  7  1  0
  9  1  1  0
 10 16  1  0
 10 11  2  0
 12 11  1  0
 13 12  2  0
 14 15  2  0
 14 13  1  0
 15 10  1  0
 17  3  1  0
 17 21  1  0
 18 19  1  0
 18 17  2  0
 19 20  1  0
 20 21  2  0
 20 22  1  0
 22 23  2  0
 22 26  1  0
 23 24  1  0
 25 24  1  0
 26 25  2  0
 27 30  1  0
 27 28  1  0
 29 27  1  0
  2 31  1  0
  7 32  1  6
  8 33  1  0
  8 34  1  0
  9 35  1  6
 11 36  1  0
 12 37  1  0
 16 38  1  0
 16 39  1  0
 18 40  1  0
 23 41  1  0
 25 42  1  0
M  ISO  8  31  14  32  13  33  13  34  13  35  13  36  14  37  14  40  14
M  ISO  2  41  14  42  14
M  END
>  <minimizedAffinity>  (1) 
-6.07661295

>  <minimizedRMSD>  (1) 
1.00436103

$$$$
