
     RDKit          3D

 39 42  0  0  1  0  0  0  0  0999 V2000
   42.0820   24.6300   34.9380 C   0  0  0  0  0  0  0  0  0  0  0  0
   42.2590   23.2980   34.7750 C   0  0  0  0  0  0  0  0  0  0  0  0
   43.2570   22.5600   35.4200 C   0  0  0  0  0  0  0  0  0  0  0  0
   44.0920   23.2000   36.2480 N   0  0  0  0  0  0  0  0  0  0  0  0
   43.9330   24.5230   36.4220 C   0  0  0  0  0  0  0  0  0  0  0  0
   42.9770   25.1980   35.7990 N   0  0  0  0  0  0  0  0  0  0  0  0
   39.6080   25.1310   34.7130 C   0  0  1  0  0  0  0  0  0  0  0  0
   40.4520   26.4680   34.7150 C   0  0  0  0  0  0  0  0  0  0  0  0
   40.9630   25.2520   34.1430 C   0  0  1  0  0  0  0  0  0  0  0  0
   39.7570   22.8350   37.5180 C   0  0  0  0  0  0  0  0  0  0  0  0
   38.7390   23.2890   38.3720 C   0  0  0  0  0  0  0  0  0  0  0  0
   38.0040   24.4230   37.9580 C   0  0  0  0  0  0  0  0  0  0  0  0
   38.3290   25.0030   36.7550 N   0  0  0  0  0  0  0  0  0  0  0  0
   39.2880   24.5340   36.0020 C   0  0  0  0  0  0  0  0  0  0  0  0
   40.0130   23.4630   36.3520 N   0  0  0  0  0  0  0  0  0  0  0  0
   40.4710   21.6920   37.9400 N   0  0  0  0  0  0  0  0  0  0  0  0
   43.3630   21.0960   35.1820 C   0  0  0  0  0  0  0  0  0  0  0  0
   43.3920   20.5470   33.9050 C   0  0  0  0  0  0  0  0  0  0  0  0
   43.5300   18.7370   34.2500 S   0  0  0  0  0  0  0  0  0  0  0  0
   43.5220   19.0650   36.1220 C   0  0  0  0  0  0  0  0  0  0  0  0
   43.4370   20.2290   36.1580 N   0  0  0  0  0  0  0  0  0  0  0  0
   43.6070   18.0660   37.2370 C   0  0  0  0  0  0  0  0  0  0  0  0
   44.7000   17.4670   37.5010 O   0  0  0  0  0  0  0  0  0  0  0  0
   42.4810   17.8110   37.9670 O   0  0  0  0  0  0  0  0  0  0  0  0
   44.8300   25.3100   37.3190 C   0  0  0  0  0  0  0  0  0  0  0  0
   44.2070   25.6160   38.4760 F   0  0  0  0  0  0  0  0  0  0  0  0
   45.3280   26.4100   36.6420 F   0  0  0  0  0  0  0  0  0  0  0  0
   45.9150   24.4580   37.5900 F   0  0  0  0  0  0  0  0  0  0  0  0
   41.5781   22.7646   34.0954 H   0  0  0  0  0  0  0  0  0  0  0  0
   38.6581   24.7321   34.3277 H   0  0  0  0  0  0  0  0  0  0  0  0
   40.1627   27.3076   34.0659 H   0  0  0  0  0  0  0  0  0  0  0  0
   40.7924   27.1837   35.4778 H   0  0  0  0  0  0  0  0  0  0  0  0
   41.3639   24.9872   33.1535 H   0  0  0  0  0  0  0  0  0  0  0  0
   38.5224   22.7828   39.3243 H   0  0  0  0  0  0  0  0  0  0  0  0
   37.1942   24.8302   38.5813 H   0  0  0  0  0  0  0  0  0  0  0  0
   41.2291   21.3131   37.3546 H   0  0  0  0  0  0  0  0  0  0  0  0
   40.2337   21.2372   38.8332 H   0  0  0  0  0  0  0  0  0  0  0  0
   43.3447   21.0609   32.9336 H   0  0  0  0  0  0  0  0  0  0  0  0
   42.5097   17.1559   38.7087 H   0  0  0  0  0  0  0  0  0  0  0  0
  1  6  1  0
  2  1  2  0
  2  3  1  0
  3  4  2  0
  4  5  1  0
  5 25  1  0
  6  5  2  0
  7  8  1  0
  7 14  1  0
  9  7  1  0
  9  8  1  0
  9  1  1  0
 10 16  1  0
 10 11  2  0
 12 11  1  0
 13 12  2  0
 14 15  2  0
 14 13  1  0
 15 10  1  0
 17  3  1  0
 17 21  1  0
 18 19  1  0
 18 17  2  0
 19 20  1  0
 20 21  2  0
 20 22  1  0
 22 23  2  0
 22 24  1  0
 25 28  1  0
 25 26  1  0
 27 25  1  0
  2 29  1  0
  7 30  1  6
  8 31  1  0
  8 32  1  0
  9 33  1  6
 11 34  1  0
 12 35  1  0
 16 36  1  0
 16 37  1  0
 18 38  1  0
 24 39  1  0
M  ISO  8  29  14  30  13  31  13  32  13  33  13  34  14  35  14  38  14
M  ISO  1  39   3
M  END
>  <minimizedAffinity>  (1) 
-6.07005835

>  <minimizedRMSD>  (1) 
0.620478511

$$$$
