
     RDKit          3D

 25 26  0  0  0  0  0  0  0  0999 V2000
   41.2710   22.2140   36.9770 C   0  0  0  0  0  0  0  0  0  0  0  0
   41.8060   21.1830   37.4610 O   0  0  0  0  0  0  0  0  0  0  0  0
   39.8450   22.4980   36.9920 C   0  0  0  0  0  0  0  0  0  0  0  0
   39.3820   23.1720   38.1440 C   0  0  0  0  0  0  0  0  0  0  0  0
   38.0240   23.4650   38.2080 C   0  0  0  0  0  0  0  0  0  0  0  0
   37.2240   23.0880   37.1630 N   0  0  0  0  0  0  0  0  0  0  0  0
   37.7180   22.4430   36.0810 C   0  0  0  0  0  0  0  0  0  0  0  0
   39.0220   22.1530   36.0010 N   0  0  0  0  0  0  0  0  0  0  0  0
   43.7630   25.1380   35.0890 C   0  0  0  0  0  0  0  0  0  0  0  0
   42.4070   25.0210   34.7860 C   0  0  0  0  0  0  0  0  0  0  0  0
   41.6270   24.0830   35.3970 C   0  0  0  0  0  0  0  0  0  0  0  0
   42.1590   23.2100   36.3460 C   0  0  0  0  0  0  0  0  0  0  0  0
   43.4970   23.2970   36.6700 C   0  0  0  0  0  0  0  0  0  0  0  0
   44.2670   24.2550   36.0380 C   0  0  0  0  0  0  0  0  0  0  0  0
   44.7180   26.3460   34.2900 S   0  0  0  0  0  0  0  0  0  0  0  0
   43.7420   27.3270   33.6560 O   0  0  0  0  0  0  0  0  0  0  0  0
   45.5150   27.0980   35.2890 O   0  0  0  0  0  0  0  0  0  0  0  0
   40.0674   23.4535   38.9570 H   0  0  0  0  0  0  0  0  0  0  0  0
   37.6021   23.9880   39.0789 H   0  0  0  0  0  0  0  0  0  0  0  0
   37.0431   22.1550   35.2615 H   0  0  0  0  0  0  0  0  0  0  0  0
   41.9587   25.6960   34.0421 H   0  0  0  0  0  0  0  0  0  0  0  0
   40.5604   24.0140   35.1368 H   0  0  0  0  0  0  0  0  0  0  0  0
   43.9409   22.6195   37.4143 H   0  0  0  0  0  0  0  0  0  0  0  0
   45.3334   24.3226   36.2990 H   0  0  0  0  0  0  0  0  0  0  0  0
   45.5536   25.7644   33.3732 H   0  0  0  0  0  0  0  0  0  0  0  0
  1  3  1  0
  1  2  2  0
  3  4  2  0
  4  5  1  0
  6  5  2  0
  7  6  1  0
  8  7  2  0
  8  3  1  0
  9 14  2  0
 10  9  1  0
 10 11  2  0
 11 12  1  0
 12 13  2  0
 12  1  1  0
 14 13  1  0
 15  9  1  0
 15 17  2  0
 16 15  2  0
  4 18  1  0
  5 19  1  0
  7 20  1  0
 10 21  1  0
 11 22  1  0
 13 23  1  0
 14 24  1  0
 15 25  1  0
M  ISO  8  18  14  19  14  20  14  21  14  22  14  23  14  24  14  25  11
M  END
>  <minimizedAffinity>  (1) 
-4.44909382

>  <minimizedRMSD>  (1) 
1.08192849

$$$$
