
     RDKit          3D

 26 28  0  0  0  0  0  0  0  0999 V2000
   41.2490   22.2490   36.6500 C   0  0  0  0  0  0  0  0  0  0  0  0
   41.7880   21.1220   36.8250 O   0  0  0  0  0  0  0  0  0  0  0  0
   42.2500   23.2480   36.2600 C   0  0  0  0  0  0  0  0  0  0  0  0
   43.6150   23.3450   36.5410 C   0  0  0  0  0  0  0  0  0  0  0  0
   44.1100   24.4520   35.9550 N   0  0  0  0  0  0  0  0  0  0  0  0
   43.1530   25.1210   35.2870 C   0  0  0  0  0  0  0  0  0  0  0  0
   43.0490   26.2680   34.5250 C   0  0  0  0  0  0  0  0  0  0  0  0
   41.8520   26.6630   33.9720 C   0  0  0  0  0  0  0  0  0  0  0  0
   40.6760   25.9350   34.1430 C   0  0  0  0  0  0  0  0  0  0  0  0
   40.7990   24.7970   34.9040 C   0  0  0  0  0  0  0  0  0  0  0  0
   41.9970   24.3740   35.4750 C   0  0  0  0  0  0  0  0  0  0  0  0
   39.8410   22.5060   36.8120 C   0  0  0  0  0  0  0  0  0  0  0  0
   39.4720   23.1540   38.0050 C   0  0  0  0  0  0  0  0  0  0  0  0
   38.1220   23.4280   38.2160 C   0  0  0  0  0  0  0  0  0  0  0  0
   37.2210   23.0620   37.2700 N   0  0  0  0  0  0  0  0  0  0  0  0
   37.6080   22.4400   36.1340 C   0  0  0  0  0  0  0  0  0  0  0  0
   38.9000   22.1690   35.9130 N   0  0  0  0  0  0  0  0  0  0  0  0
   44.1937   22.6306   37.1450 H   0  0  0  0  0  0  0  0  0  0  0  0
   45.0949   24.7483   36.0111 H   0  0  0  0  0  0  0  0  0  0  0  0
   43.9459   26.8818   34.3556 H   0  0  0  0  0  0  0  0  0  0  0  0
   41.8226   27.5858   33.3740 H   0  0  0  0  0  0  0  0  0  0  0  0
   39.7187   26.2484   33.7010 H   0  0  0  0  0  0  0  0  0  0  0  0
   39.9001   24.1855   35.0716 H   0  0  0  0  0  0  0  0  0  0  0  0
   40.2289   23.4368   38.7514 H   0  0  0  0  0  0  0  0  0  0  0  0
   37.7919   23.9334   39.1356 H   0  0  0  0  0  0  0  0  0  0  0  0
   36.8549   22.1542   35.3849 H   0  0  0  0  0  0  0  0  0  0  0  0
  1 12  1  0
  1  2  2  0
  3  4  2  0
  3  1  1  0
  5  4  1  0
  6 11  2  0
  6  5  1  0
  7  6  1  0
  8  9  1  0
  8  7  2  0
  9 10  2  0
 10 11  1  0
 11  3  1  0
 12 13  2  0
 13 14  1  0
 15 14  2  0
 16 15  1  0
 17 16  2  0
 17 12  1  0
  4 18  1  0
  5 19  1  0
  7 20  1  0
  8 21  1  0
  9 22  1  0
 10 23  1  0
 13 24  1  0
 14 25  1  0
 16 26  1  0
M  ISO  8  18  14  19   9  20  14  21  14  22  14  23  14  24  14  25  14
M  ISO  1  26  14
M  END
>  <minimizedAffinity>  (1) 
-4.42222881

>  <minimizedRMSD>  (1) 
0.603806913

$$$$
