
     RDKit          3D

 27 28  0  0  0  0  0  0  0  0999 V2000
   39.8100   22.5830   36.9080 C   0  0  0  0  0  0  0  0  0  0  0  0
   39.3320   23.2060   38.0760 C   0  0  0  0  0  0  0  0  0  0  0  0
   37.9660   23.4180   38.2040 C   0  0  0  0  0  0  0  0  0  0  0  0
   37.1540   23.0150   37.1950 N   0  0  0  0  0  0  0  0  0  0  0  0
   37.6390   22.4220   36.0880 C   0  0  0  0  0  0  0  0  0  0  0  0
   38.9520   22.2040   35.9370 N   0  0  0  0  0  0  0  0  0  0  0  0
   41.2320   22.3980   36.8480 C   0  0  0  0  0  0  0  0  0  0  0  0
   41.8420   21.4130   37.3510 O   0  0  0  0  0  0  0  0  0  0  0  0
   42.1930   23.2550   36.2350 N   0  0  0  0  0  0  0  0  0  0  0  0
   41.6920   24.2400   35.3380 C   0  0  0  0  0  0  0  0  0  0  0  0
   42.6060   25.4020   35.1060 C   0  0  0  0  0  0  0  0  0  0  0  0
   44.0610   25.0320   35.1560 C   0  0  0  0  0  0  0  0  0  0  0  0
   44.2930   24.4430   36.5420 C   0  0  0  0  0  0  0  0  0  0  0  0
   43.5780   23.0960   36.5380 C   0  0  0  0  0  0  0  0  0  0  0  0
   40.0259   23.5182   38.8704 H   0  0  0  0  0  0  0  0  0  0  0  0
   37.5523   23.9009   39.1016 H   0  0  0  0  0  0  0  0  0  0  0  0
   36.9448   22.1110   35.2934 H   0  0  0  0  0  0  0  0  0  0  0  0
   41.5024   23.7552   34.3689 H   0  0  0  0  0  0  0  0  0  0  0  0
   40.7837   24.6494   35.8043 H   0  0  0  0  0  0  0  0  0  0  0  0
   42.4114   26.1593   35.8797 H   0  0  0  0  0  0  0  0  0  0  0  0
   42.4006   25.7814   34.0941 H   0  0  0  0  0  0  0  0  0  0  0  0
   44.2938   24.2880   34.3799 H   0  0  0  0  0  0  0  0  0  0  0  0
   44.7066   25.9038   34.9737 H   0  0  0  0  0  0  0  0  0  0  0  0
   45.3688   24.3065   36.7264 H   0  0  0  0  0  0  0  0  0  0  0  0
   43.9130   25.1040   37.3348 H   0  0  0  0  0  0  0  0  0  0  0  0
   43.6785   22.6321   37.5303 H   0  0  0  0  0  0  0  0  0  0  0  0
   44.0351   22.4581   35.7672 H   0  0  0  0  0  0  0  0  0  0  0  0
  1  2  2  0
  2  3  1  0
  4  3  2  0
  5  4  1  0
  6  5  2  0
  6  1  1  0
  7  1  1  0
  7  8  2  0
  9 14  1  0
  9  7  1  0
 10  9  1  0
 11 12  1  0
 11 10  1  0
 12 13  1  0
 14 13  1  0
  2 15  1  0
  3 16  1  0
  5 17  1  0
 10 18  1  0
 10 19  1  0
 11 20  1  0
 11 21  1  0
 12 22  1  0
 12 23  1  0
 13 24  1  0
 13 25  1  0
 14 26  1  0
 14 27  1  0
M  ISO  8  15  14  16  14  17  14  18  13  19  13  20  13  21  13  22  13
M  ISO  5  23  13  24  13  25  13  26  13  27  13
M  END
>  <minimizedAffinity>  (1) 
-4.18314505

>  <minimizedRMSD>  (1) 
0.739269555

$$$$
