
     RDKit          3D

 26 27  0  0  0  0  0  0  0  0999 V2000
   39.8720   22.5120   36.9880 C   0  0  0  0  0  0  0  0  0  0  0  0
   39.3780   23.1570   38.1220 C   0  0  0  0  0  0  0  0  0  0  0  0
   38.0200   23.4450   38.1960 C   0  0  0  0  0  0  0  0  0  0  0  0
   37.2240   23.0810   37.1510 N   0  0  0  0  0  0  0  0  0  0  0  0
   37.7460   22.4510   36.0580 C   0  0  0  0  0  0  0  0  0  0  0  0
   39.0470   22.1720   35.9770 N   0  0  0  0  0  0  0  0  0  0  0  0
   41.2880   22.2500   36.9850 C   0  0  0  0  0  0  0  0  0  0  0  0
   41.8400   21.2400   37.4620 O   0  0  0  0  0  0  0  0  0  0  0  0
   42.3010   23.1150   36.4280 N   0  0  0  0  0  0  0  0  0  0  0  0
   41.7110   24.1300   35.5500 C   0  0  0  0  0  0  0  0  0  0  0  0
   42.7720   24.6280   34.5890 C   0  0  0  0  0  0  0  0  0  0  0  0
   43.8640   25.2710   35.2850 N   0  0  0  0  0  0  0  0  0  0  0  0
   44.1050   24.6740   36.5860 C   0  0  0  0  0  0  0  0  0  0  0  0
   43.7560   23.1970   36.5460 C   0  0  0  0  0  0  0  0  0  0  0  0
   40.0529   23.4336   38.9454 H   0  0  0  0  0  0  0  0  0  0  0  0
   37.5985   23.9537   39.0755 H   0  0  0  0  0  0  0  0  0  0  0  0
   37.0807   22.1684   35.2289 H   0  0  0  0  0  0  0  0  0  0  0  0
   40.8781   23.6883   34.9832 H   0  0  0  0  0  0  0  0  0  0  0  0
   41.3327   24.9686   36.1530 H   0  0  0  0  0  0  0  0  0  0  0  0
   42.3153   25.3509   33.8970 H   0  0  0  0  0  0  0  0  0  0  0  0
   43.1752   23.7617   34.0441 H   0  0  0  0  0  0  0  0  0  0  0  0
   44.7181   25.1846   34.7159 H   0  0  0  0  0  0  0  0  0  0  0  0
   45.1661   24.7916   36.8510 H   0  0  0  0  0  0  0  0  0  0  0  0
   43.4778   25.1754   37.3378 H   0  0  0  0  0  0  0  0  0  0  0  0
   44.0904   22.7028   37.4701 H   0  0  0  0  0  0  0  0  0  0  0  0
   44.2515   22.6949   35.7020 H   0  0  0  0  0  0  0  0  0  0  0  0
  1  2  2  0
  2  3  1  0
  4  3  2  0
  5  4  1  0
  6  5  2  0
  6  1  1  0
  7  1  1  0
  7  8  2  0
  9 14  1  0
  9  7  1  0
 10  9  1  0
 11 12  1  0
 11 10  1  0
 12 13  1  0
 14 13  1  0
  2 15  1  0
  3 16  1  0
  5 17  1  0
 10 18  1  0
 10 19  1  0
 11 20  1  0
 11 21  1  0
 12 22  1  0
 13 23  1  0
 13 24  1  0
 14 25  1  0
 14 26  1  0
M  ISO  8  15  14  16  14  17  14  18  13  19  13  20  13  21  13  22   5
M  ISO  4  23  13  24  13  25  13  26  13
M  END
>  <minimizedAffinity>  (1) 
-4.01222754

>  <minimizedRMSD>  (1) 
0.527067065

$$$$
