
     RDKit          3D

 19 20  0  0  0  0  0  0  0  0999 V2000
   39.8590   22.5000   36.9640 C   0  0  0  0  0  0  0  0  0  0  0  0
   39.4280   23.1480   38.1170 C   0  0  0  0  0  0  0  0  0  0  0  0
   38.0510   23.4400   38.1980 C   0  0  0  0  0  0  0  0  0  0  0  0
   37.2370   23.0770   37.1540 N   0  0  0  0  0  0  0  0  0  0  0  0
   37.7340   22.4450   36.0580 C   0  0  0  0  0  0  0  0  0  0  0  0
   39.0440   22.1610   35.9680 N   0  0  0  0  0  0  0  0  0  0  0  0
   41.2700   22.2350   36.9430 C   0  0  0  0  0  0  0  0  0  0  0  0
   41.8970   21.2550   37.3630 O   0  0  0  0  0  0  0  0  0  0  0  0
   42.0980   23.2880   36.3290 C   0  0  0  0  0  0  0  0  0  0  0  0
   43.4470   23.5200   36.6190 C   0  0  0  0  0  0  0  0  0  0  0  0
   43.8960   24.5880   35.8550 C   0  0  0  0  0  0  0  0  0  0  0  0
   42.8450   24.9640   35.1450 N   0  0  0  0  0  0  0  0  0  0  0  0
   41.8070   24.2220   35.4120 N   0  0  0  0  0  0  0  0  0  0  0  0
   40.1252   23.4185   38.9236 H   0  0  0  0  0  0  0  0  0  0  0  0
   37.6369   23.9490   39.0809 H   0  0  0  0  0  0  0  0  0  0  0  0
   37.0576   22.1636   35.2375 H   0  0  0  0  0  0  0  0  0  0  0  0
   44.0537   22.9482   37.3366 H   0  0  0  0  0  0  0  0  0  0  0  0
   44.9050   25.0260   35.8425 H   0  0  0  0  0  0  0  0  0  0  0  0
   42.8466   25.7415   34.4694 H   0  0  0  0  0  0  0  0  0  0  0  0
  1  2  2  0
  2  3  1  0
  4  3  2  0
  5  4  1  0
  6  5  2  0
  6  1  1  0
  7  1  1  0
  7  8  2  0
  9 10  1  0
  9  7  1  0
 11 10  2  0
 12 13  1  0
 12 11  1  0
 13  9  2  0
  2 14  1  0
  3 15  1  0
  5 16  1  0
 10 17  1  0
 11 18  1  0
 12 19  1  0
M  ISO  6  14  14  15  14  16  14  17  14  18  14  19   9
M  END
>  <minimizedAffinity>  (1) 
-3.75677347

>  <minimizedRMSD>  (1) 
0.70134443

$$$$
