
     RDKit          3D

 19 20  0  0  0  0  0  0  0  0999 V2000
   39.8870   22.5010   37.0010 C   0  0  0  0  0  0  0  0  0  0  0  0
   39.3880   23.1610   38.1450 C   0  0  0  0  0  0  0  0  0  0  0  0
   38.0340   23.4600   38.2010 C   0  0  0  0  0  0  0  0  0  0  0  0
   37.2600   23.1000   37.1470 N   0  0  0  0  0  0  0  0  0  0  0  0
   37.7590   22.4720   36.0680 C   0  0  0  0  0  0  0  0  0  0  0  0
   39.0510   22.1750   35.9910 N   0  0  0  0  0  0  0  0  0  0  0  0
   41.2980   22.2240   37.0150 C   0  0  0  0  0  0  0  0  0  0  0  0
   41.8100   21.1870   37.5180 O   0  0  0  0  0  0  0  0  0  0  0  0
   42.2680   23.1470   36.4300 C   0  0  0  0  0  0  0  0  0  0  0  0
   42.0050   24.0920   35.4650 C   0  0  0  0  0  0  0  0  0  0  0  0
   43.1140   24.7960   35.1270 N   0  0  0  0  0  0  0  0  0  0  0  0
   44.0980   24.2830   35.8970 C   0  0  0  0  0  0  0  0  0  0  0  0
   43.5870   23.3030   36.6690 N   0  0  0  0  0  0  0  0  0  0  0  0
   40.0581   23.4324   38.9741 H   0  0  0  0  0  0  0  0  0  0  0  0
   37.6020   23.9729   39.0729 H   0  0  0  0  0  0  0  0  0  0  0  0
   37.0889   22.2009   35.2389 H   0  0  0  0  0  0  0  0  0  0  0  0
   41.0126   24.2570   35.0202 H   0  0  0  0  0  0  0  0  0  0  0  0
   45.1477   24.6120   35.8946 H   0  0  0  0  0  0  0  0  0  0  0  0
   44.1288   22.7494   37.3479 H   0  0  0  0  0  0  0  0  0  0  0  0
  1  7  1  0
  1  2  2  0
  2  3  1  0
  4  3  2  0
  5  4  1  0
  6  5  2  0
  6  1  1  0
  7  8  2  0
  9 13  1  0
  9  7  1  0
 10  9  2  0
 11 10  1  0
 11 12  2  0
 12 13  1  0
  2 14  1  0
  3 15  1  0
  5 16  1  0
 10 17  1  0
 12 18  1  0
 13 19  1  0
M  ISO  6  14  14  15  14  16  14  17  14  18  14  19   9
M  END
>  <minimizedAffinity>  (1) 
-3.65545559

>  <minimizedRMSD>  (1) 
0.687884748

$$$$
