
     RDKit          3D

 37 40  0  0  0  0  0  0  0  0999 V2000
   41.7100   23.7020   36.0070 C   0  0  0  0  0  0  0  0  0  0  0  0
   43.0570   23.9530   36.1990 C   0  0  0  0  0  0  0  0  0  0  0  0
   43.7210   24.9830   35.5400 C   0  0  0  0  0  0  0  0  0  0  0  0
   42.9790   25.7480   34.6830 C   0  0  0  0  0  0  0  0  0  0  0  0
   41.6450   25.4880   34.5040 C   0  0  0  0  0  0  0  0  0  0  0  0
   41.0320   24.4770   35.1610 N   0  0  0  0  0  0  0  0  0  0  0  0
   40.7400   26.1540   33.5850 C   0  0  0  0  0  0  0  0  0  0  0  0
   41.0900   26.2490   32.2270 C   0  0  0  0  0  0  0  0  0  0  0  0
   40.3410   26.8300   31.2290 C   0  0  0  0  0  0  0  0  0  0  0  0
   39.1280   27.3780   31.5670 C   0  0  0  0  0  0  0  0  0  0  0  0
   38.7130   27.3220   32.8790 C   0  0  0  0  0  0  0  0  0  0  0  0
   37.4790   27.8390   33.2050 C   0  0  0  0  0  0  0  0  0  0  0  0
   36.9720   27.7850   34.4920 C   0  0  0  0  0  0  0  0  0  0  0  0
   37.7930   27.1700   35.4450 C   0  0  0  0  0  0  0  0  0  0  0  0
   39.0180   26.6700   35.0720 C   0  0  0  0  0  0  0  0  0  0  0  0
   39.5150   26.7280   33.8030 C   0  0  0  0  0  0  0  0  0  0  0  0
   41.0810   22.5880   36.7480 C   0  0  0  0  0  0  0  0  0  0  0  0
   41.8690   21.7320   37.2160 O   0  0  0  0  0  0  0  0  0  0  0  0
   39.6490   22.5960   36.8560 C   0  0  0  0  0  0  0  0  0  0  0  0
   39.1940   23.2110   38.0420 C   0  0  0  0  0  0  0  0  0  0  0  0
   37.7950   23.2610   38.2210 C   0  0  0  0  0  0  0  0  0  0  0  0
   36.9830   22.7310   37.2710 N   0  0  0  0  0  0  0  0  0  0  0  0
   37.4910   22.1520   36.1490 C   0  0  0  0  0  0  0  0  0  0  0  0
   38.8120   22.0930   35.9590 N   0  0  0  0  0  0  0  0  0  0  0  0
   43.6221   23.3168   36.8961 H   0  0  0  0  0  0  0  0  0  0  0  0
   44.7925   25.1730   35.7008 H   0  0  0  0  0  0  0  0  0  0  0  0
   43.4544   26.5750   34.1353 H   0  0  0  0  0  0  0  0  0  0  0  0
   42.0577   25.8165   31.9329 H   0  0  0  0  0  0  0  0  0  0  0  0
   40.7035   26.8547   30.1908 H   0  0  0  0  0  0  0  0  0  0  0  0
   38.4976   27.8543   30.8017 H   0  0  0  0  0  0  0  0  0  0  0  0
   36.8755   28.3110   32.4157 H   0  0  0  0  0  0  0  0  0  0  0  0
   35.9861   28.1992   34.7498 H   0  0  0  0  0  0  0  0  0  0  0  0
   37.4586   27.0871   36.4896 H   0  0  0  0  0  0  0  0  0  0  0  0
   39.6368   26.1928   35.8461 H   0  0  0  0  0  0  0  0  0  0  0  0
   39.8903   23.6277   38.7847 H   0  0  0  0  0  0  0  0  0  0  0  0
   37.3667   23.7250   39.1217 H   0  0  0  0  0  0  0  0  0  0  0  0
   36.8103   21.7304   35.3947 H   0  0  0  0  0  0  0  0  0  0  0  0
  1  2  2  0
  1 17  1  0
  3  2  1  0
  4  3  2  0
  5  4  1  0
  5  6  2  0
  6  1  1  0
  7 16  1  0
  7  5  1  0
  8  7  2  0
  9 10  2  0
  9  8  1  0
 10 11  1  0
 11 12  1  0
 11 16  2  0
 12 13  2  0
 13 14  1  0
 15 14  2  0
 16 15  1  0
 17 19  1  0
 17 18  2  0
 19 20  2  0
 20 21  1  0
 22 21  2  0
 23 22  1  0
 24 23  2  0
 24 19  1  0
  2 25  1  0
  3 26  1  0
  4 27  1  0
  8 28  1  0
  9 29  1  0
 10 30  1  0
 12 31  1  0
 13 32  1  0
 14 33  1  0
 15 34  1  0
 20 35  1  0
 21 36  1  0
 23 37  1  0
M  ISO  8  25  14  26  14  27  14  28  14  29  14  30  14  31  14  32  14
M  ISO  5  33  14  34  14  35  14  36  14  37  14
M  END
>  <minimizedAffinity>  (1) 
-5.92379236

>  <minimizedRMSD>  (1) 
1.11281013

$$$$
