
     RDKit          3D

 32 35  0  0  0  0  0  0  0  0999 V2000
   42.1080   23.2450   36.3710 C   0  0  0  0  0  0  0  0  0  0  0  0
   43.4540   23.2420   36.7120 C   0  0  0  0  0  0  0  0  0  0  0  0
   44.3500   24.1790   36.1770 C   0  0  0  0  0  0  0  0  0  0  0  0
   43.8490   25.1140   35.2930 C   0  0  0  0  0  0  0  0  0  0  0  0
   42.4970   25.0670   34.9920 C   0  0  0  0  0  0  0  0  0  0  0  0
   41.6620   24.1650   35.5130 N   0  0  0  0  0  0  0  0  0  0  0  0
   41.9790   26.0310   34.0790 N   0  0  0  0  0  0  0  0  0  0  0  0
   42.5700   27.1270   33.5690 C   0  0  0  0  0  0  0  0  0  0  0  0
   41.7560   27.7930   32.7350 N   0  0  0  0  0  0  0  0  0  0  0  0
   40.6080   27.1390   32.6850 C   0  0  0  0  0  0  0  0  0  0  0  0
   39.3700   27.2430   32.0610 C   0  0  0  0  0  0  0  0  0  0  0  0
   38.3780   26.3480   32.2510 N   0  0  0  0  0  0  0  0  0  0  0  0
   38.5560   25.2920   33.0760 C   0  0  0  0  0  0  0  0  0  0  0  0
   39.7480   25.1580   33.7020 N   0  0  0  0  0  0  0  0  0  0  0  0
   40.7530   26.0510   33.5200 C   0  0  0  0  0  0  0  0  0  0  0  0
   41.2480   22.2240   36.9830 C   0  0  0  0  0  0  0  0  0  0  0  0
   41.8230   21.2190   37.4490 O   0  0  0  0  0  0  0  0  0  0  0  0
   39.8340   22.4860   36.9850 C   0  0  0  0  0  0  0  0  0  0  0  0
   39.3740   23.1320   38.1330 C   0  0  0  0  0  0  0  0  0  0  0  0
   37.9930   23.4150   38.1910 C   0  0  0  0  0  0  0  0  0  0  0  0
   37.1910   23.0600   37.1650 N   0  0  0  0  0  0  0  0  0  0  0  0
   37.6960   22.4350   36.0770 C   0  0  0  0  0  0  0  0  0  0  0  0
   39.0020   22.1540   35.9940 N   0  0  0  0  0  0  0  0  0  0  0  0
   43.8267   22.4862   37.4190 H   0  0  0  0  0  0  0  0  0  0  0  0
   45.4150   24.1694   36.4521 H   0  0  0  0  0  0  0  0  0  0  0  0
   44.5037   25.8737   34.8410 H   0  0  0  0  0  0  0  0  0  0  0  0
   43.5974   27.4398   33.8071 H   0  0  0  0  0  0  0  0  0  0  0  0
   39.1914   28.0910   31.3835 H   0  0  0  0  0  0  0  0  0  0  0  0
   37.7511   24.5592   33.2346 H   0  0  0  0  0  0  0  0  0  0  0  0
   40.0544   23.4071   38.9524 H   0  0  0  0  0  0  0  0  0  0  0  0
   37.5709   23.9237   39.0702 H   0  0  0  0  0  0  0  0  0  0  0  0
   37.0258   22.1545   35.2511 H   0  0  0  0  0  0  0  0  0  0  0  0
  1  2  2  0
  1 16  1  0
  3  2  1  0
  4  3  2  0
  5  4  1  0
  5  6  2  0
  6  1  1  0
  7  5  1  0
  8  7  1  0
  9  8  2  0
 10  9  1  0
 10 15  2  0
 11 12  2  0
 11 10  1  0
 12 13  1  0
 13 14  2  0
 15 14  1  0
 15  7  1  0
 16 18  1  0
 16 17  2  0
 18 19  2  0
 19 20  1  0
 21 20  2  0
 22 21  1  0
 23 22  2  0
 23 18  1  0
  2 24  1  0
  3 25  1  0
  4 26  1  0
  8 27  1  0
 11 28  1  0
 13 29  1  0
 19 30  1  0
 20 31  1  0
 22 32  1  0
M  ISO  8  24  14  25  14  26  14  27  14  28  14  29  14  30  14  31  14
M  ISO  1  32  14
M  END
>  <minimizedAffinity>  (1) 
-5.48720169

>  <minimizedRMSD>  (1) 
0.130393267

$$$$
