
     RDKit          3D

 34 37  0  0  0  0  0  0  0  0999 V2000
   42.0690   23.3360   36.3140 C   0  0  0  0  0  0  0  0  0  0  0  0
   43.3930   23.4370   36.7410 C   0  0  0  0  0  0  0  0  0  0  0  0
   44.2600   24.3950   36.2040 C   0  0  0  0  0  0  0  0  0  0  0  0
   43.7460   25.2360   35.2280 C   0  0  0  0  0  0  0  0  0  0  0  0
   42.4190   25.0890   34.8410 C   0  0  0  0  0  0  0  0  0  0  0  0
   41.5990   24.1730   35.3610 N   0  0  0  0  0  0  0  0  0  0  0  0
   42.0240   26.0100   33.8390 N   0  0  0  0  0  0  0  0  0  0  0  0
   42.6130   27.1610   33.4440 C   0  0  0  0  0  0  0  0  0  0  0  0
   41.9060   27.7480   32.4460 N   0  0  0  0  0  0  0  0  0  0  0  0
   40.8490   26.9930   32.1760 C   0  0  0  0  0  0  0  0  0  0  0  0
   39.8100   27.0950   31.2790 C   0  0  0  0  0  0  0  0  0  0  0  0
   38.8650   26.1310   31.2550 N   0  0  0  0  0  0  0  0  0  0  0  0
   38.9710   25.0860   32.1200 C   0  0  0  0  0  0  0  0  0  0  0  0
   39.9720   24.9680   32.9990 N   0  0  0  0  0  0  0  0  0  0  0  0
   40.9200   25.9090   33.0430 C   0  0  0  0  0  0  0  0  0  0  0  0
   39.6990   28.1830   30.3760 N   0  0  0  0  0  0  0  0  0  0  0  0
   41.2340   22.2950   36.9420 C   0  0  0  0  0  0  0  0  0  0  0  0
   41.8330   21.2990   37.4090 O   0  0  0  0  0  0  0  0  0  0  0  0
   39.8130   22.5170   36.9590 C   0  0  0  0  0  0  0  0  0  0  0  0
   39.3600   23.1690   38.1260 C   0  0  0  0  0  0  0  0  0  0  0  0
   37.9810   23.4150   38.2040 C   0  0  0  0  0  0  0  0  0  0  0  0
   37.1690   23.0320   37.1970 N   0  0  0  0  0  0  0  0  0  0  0  0
   37.6660   22.4060   36.0980 C   0  0  0  0  0  0  0  0  0  0  0  0
   38.9780   22.1610   36.0000 N   0  0  0  0  0  0  0  0  0  0  0  0
   43.7631   22.7494   37.5158 H   0  0  0  0  0  0  0  0  0  0  0  0
   45.3038   24.4776   36.5412 H   0  0  0  0  0  0  0  0  0  0  0  0
   44.3794   26.0082   34.7669 H   0  0  0  0  0  0  0  0  0  0  0  0
   43.5406   27.5669   33.8739 H   0  0  0  0  0  0  0  0  0  0  0  0
   38.1987   24.3031   32.0952 H   0  0  0  0  0  0  0  0  0  0  0  0
   38.9079   28.2274   29.7179 H   0  0  0  0  0  0  0  0  0  0  0  0
   40.4095   28.9287   30.3783 H   0  0  0  0  0  0  0  0  0  0  0  0
   40.0496   23.4675   38.9293 H   0  0  0  0  0  0  0  0  0  0  0  0
   37.5617   23.9203   39.0865 H   0  0  0  0  0  0  0  0  0  0  0  0
   36.9885   22.1000   35.2872 H   0  0  0  0  0  0  0  0  0  0  0  0
  1  2  2  0
  1 17  1  0
  3  2  1  0
  4  3  2  0
  5  4  1  0
  5  6  2  0
  6  1  1  0
  7  5  1  0
  8  7  1  0
  9  8  2  0
 10  9  1  0
 10 15  2  0
 11 10  1  0
 12 11  2  0
 12 13  1  0
 13 14  2  0
 14 15  1  0
 15  7  1  0
 16 11  1  0
 17 19  1  0
 17 18  2  0
 19 20  2  0
 20 21  1  0
 22 21  2  0
 23 22  1  0
 24 23  2  0
 24 19  1  0
  2 25  1  0
  3 26  1  0
  4 27  1  0
  8 28  1  0
 13 29  1  0
 16 30  1  0
 16 31  1  0
 20 32  1  0
 21 33  1  0
 23 34  1  0
M  ISO  8  25  14  26  14  27  14  28  14  29  14  32  14  33  14  34  14
M  END
>  <minimizedAffinity>  (1) 
-5.39623976

>  <minimizedRMSD>  (1) 
0.279325306

$$$$
