
     RDKit          3D

 28 29  0  0  0  0  0  0  0  0999 V2000
   42.2010   23.1790   36.3940 C   0  0  0  0  0  0  0  0  0  0  0  0
   43.5640   22.9800   36.5550 C   0  0  0  0  0  0  0  0  0  0  0  0
   44.4770   23.9070   36.0480 C   0  0  0  0  0  0  0  0  0  0  0  0
   43.9900   25.0060   35.3950 C   0  0  0  0  0  0  0  0  0  0  0  0
   42.6370   25.1590   35.2620 C   0  0  0  0  0  0  0  0  0  0  0  0
   41.7590   24.2590   35.7540 N   0  0  0  0  0  0  0  0  0  0  0  0
   42.0710   26.2850   34.6000 N   0  0  0  0  0  0  0  0  0  0  0  0
   42.8130   27.1900   33.7890 C   0  0  0  0  0  0  0  0  0  0  0  0
   43.9450   27.5900   34.3170 N   0  0  0  0  0  0  0  0  0  0  0  0
   42.2910   27.5870   32.5040 N   0  0  0  0  0  0  0  0  0  0  0  0
   44.5080   28.2440   33.7580 H   0  0  0  0  0  0  0  0  0  0  0  0
   41.2930   22.1520   36.9580 C   0  0  0  0  0  0  0  0  0  0  0  0
   41.8300   21.1160   37.3920 O   0  0  0  0  0  0  0  0  0  0  0  0
   39.8810   22.4530   36.9480 C   0  0  0  0  0  0  0  0  0  0  0  0
   39.4410   23.1040   38.1070 C   0  0  0  0  0  0  0  0  0  0  0  0
   38.0840   23.4340   38.1820 C   0  0  0  0  0  0  0  0  0  0  0  0
   37.2630   23.1120   37.1380 N   0  0  0  0  0  0  0  0  0  0  0  0
   37.7560   22.4780   36.0370 C   0  0  0  0  0  0  0  0  0  0  0  0
   39.0510   22.1540   35.9470 N   0  0  0  0  0  0  0  0  0  0  0  0
   43.9278   22.0873   37.0848 H   0  0  0  0  0  0  0  0  0  0  0  0
   45.5599   23.7574   36.1705 H   0  0  0  0  0  0  0  0  0  0  0  0
   44.6783   25.7580   34.9817 H   0  0  0  0  0  0  0  0  0  0  0  0
   41.0618   26.4557   34.7149 H   0  0  0  0  0  0  0  0  0  0  0  0
   41.3877   27.2148   32.1777 H   0  0  0  0  0  0  0  0  0  0  0  0
   42.8216   28.2427   31.9128 H   0  0  0  0  0  0  0  0  0  0  0  0
   40.1348   23.3461   38.9256 H   0  0  0  0  0  0  0  0  0  0  0  0
   37.6830   23.9458   39.0693 H   0  0  0  0  0  0  0  0  0  0  0  0
   37.0775   22.2283   35.2080 H   0  0  0  0  0  0  0  0  0  0  0  0
  1  2  2  0
  1 12  1  0
  3  2  1  0
  4  3  2  0
  5  4  1  0
  5  6  2  0
  6  1  1  0
  7  5  1  0
  8  9  2  0
  8  7  1  0
 10  8  1  0
 11  9  1  0
 12 13  2  0
 14 12  1  0
 14 15  2  0
 15 16  1  0
 17 16  2  0
 18 17  1  0
 19 18  2  0
 19 14  1  0
  2 20  1  0
  3 21  1  0
  4 22  1  0
  7 23  1  0
 10 24  1  0
 10 25  1  0
 15 26  1  0
 16 27  1  0
 18 28  1  0
M  ISO  6  20  14  21  14  22  14  26  14  27  14  28  14
M  END
>  <minimizedAffinity>  (1) 
-5.17719269

>  <minimizedRMSD>  (1) 
0.373401374

$$$$
