
     RDKit          3D

 34 36  0  0  0  0  0  0  0  0999 V2000
   42.1050   23.3010   36.3130 C   0  0  0  0  0  0  0  0  0  0  0  0
   43.4770   23.2280   36.5740 C   0  0  0  0  0  0  0  0  0  0  0  0
   44.3330   24.2080   36.0830 C   0  0  0  0  0  0  0  0  0  0  0  0
   43.8160   25.2410   35.3460 C   0  0  0  0  0  0  0  0  0  0  0  0
   42.4510   25.2550   35.1240 C   0  0  0  0  0  0  0  0  0  0  0  0
   41.6120   24.3200   35.5890 N   0  0  0  0  0  0  0  0  0  0  0  0
   41.8960   26.3780   34.3220 C   0  0  0  0  0  0  0  0  0  0  0  0
   41.7130   26.0000   32.8490 C   0  0  0  0  0  0  0  0  0  0  0  0
   40.8140   27.1720   32.4420 C   0  0  0  0  0  0  0  0  0  0  0  0
   39.7300   27.0840   33.4790 C   0  0  0  0  0  0  0  0  0  0  0  0
   40.4930   26.7590   34.7520 C   0  0  0  0  0  0  0  0  0  0  0  0
   41.2590   22.2130   36.8740 C   0  0  0  0  0  0  0  0  0  0  0  0
   41.8400   21.1900   37.2540 O   0  0  0  0  0  0  0  0  0  0  0  0
   39.8370   22.4720   36.9130 C   0  0  0  0  0  0  0  0  0  0  0  0
   39.4170   23.1180   38.0920 C   0  0  0  0  0  0  0  0  0  0  0  0
   38.0470   23.4010   38.1970 C   0  0  0  0  0  0  0  0  0  0  0  0
   37.2030   23.0510   37.1910 N   0  0  0  0  0  0  0  0  0  0  0  0
   37.6700   22.4280   36.0760 C   0  0  0  0  0  0  0  0  0  0  0  0
   38.9760   22.1510   35.9580 N   0  0  0  0  0  0  0  0  0  0  0  0
   43.8796   22.3945   37.1683 H   0  0  0  0  0  0  0  0  0  0  0  0
   45.4131   24.1544   36.2841 H   0  0  0  0  0  0  0  0  0  0  0  0
   44.4652   26.0329   34.9442 H   0  0  0  0  0  0  0  0  0  0  0  0
   42.6228   27.1899   34.4722 H   0  0  0  0  0  0  0  0  0  0  0  0
   42.6653   25.9938   32.2984 H   0  0  0  0  0  0  0  0  0  0  0  0
   41.3145   24.9936   32.6534 H   0  0  0  0  0  0  0  0  0  0  0  0
   41.3505   28.1305   32.5004 H   0  0  0  0  0  0  0  0  0  0  0  0
   40.4509   27.1228   31.4048 H   0  0  0  0  0  0  0  0  0  0  0  0
   39.1954   28.0407   33.5729 H   0  0  0  0  0  0  0  0  0  0  0  0
   38.9595   26.3377   33.2354 H   0  0  0  0  0  0  0  0  0  0  0  0
   40.0151   25.9199   35.2788 H   0  0  0  0  0  0  0  0  0  0  0  0
   40.5051   27.6166   35.4407 H   0  0  0  0  0  0  0  0  0  0  0  0
   40.1262   23.3866   38.8888 H   0  0  0  0  0  0  0  0  0  0  0  0
   37.6563   23.9058   39.0928 H   0  0  0  0  0  0  0  0  0  0  0  0
   36.9748   22.1510   35.2698 H   0  0  0  0  0  0  0  0  0  0  0  0
  1  2  2  0
  1 12  1  0
  3  2  1  0
  4  3  2  0
  5  4  1  0
  5  6  2  0
  6  1  1  0
  7 11  1  0
  7  5  1  0
  8  7  1  0
  9  8  1  0
  9 10  1  0
 10 11  1  0
 12 14  1  0
 12 13  2  0
 14 15  2  0
 15 16  1  0
 17 16  2  0
 18 17  1  0
 19 18  2  0
 19 14  1  0
  2 20  1  0
  3 21  1  0
  4 22  1  0
  7 23  1  0
  8 24  1  0
  8 25  1  0
  9 26  1  0
  9 27  1  0
 10 28  1  0
 10 29  1  0
 11 30  1  0
 11 31  1  0
 15 32  1  0
 16 33  1  0
 18 34  1  0
M  ISO  8  20  14  21  14  22  14  23  13  24  13  25  13  26  13  27  13
M  ISO  7  28  13  29  13  30  13  31  13  32  14  33  14  34  14
M  END
>  <minimizedAffinity>  (1) 
-5.01834917

>  <minimizedRMSD>  (1) 
0.520155489

$$$$
