
     RDKit          3D

 35 37  0  0  0  0  0  0  0  0999 V2000
   42.0810   23.2770   36.2890 C   0  0  0  0  0  0  0  0  0  0  0  0
   43.3970   23.4010   36.7360 C   0  0  0  0  0  0  0  0  0  0  0  0
   44.2550   24.3400   36.1720 C   0  0  0  0  0  0  0  0  0  0  0  0
   43.7850   25.1390   35.1700 C   0  0  0  0  0  0  0  0  0  0  0  0
   42.4720   24.9710   34.7690 C   0  0  0  0  0  0  0  0  0  0  0  0
   41.6430   24.0700   35.3060 N   0  0  0  0  0  0  0  0  0  0  0  0
   41.9220   25.7730   33.7280 N   0  0  0  0  0  0  0  0  0  0  0  0
   41.1130   25.2570   32.6400 C   0  0  0  0  0  0  0  0  0  0  0  0
   40.0650   26.2980   32.2610 C   0  0  0  0  0  0  0  0  0  0  0  0
   40.7750   27.3750   31.6150 N   0  0  0  0  0  0  0  0  0  0  0  0
   41.9400   27.7900   32.3270 C   0  0  0  0  0  0  0  0  0  0  0  0
   42.1320   27.2010   33.6770 C   0  0  0  0  0  0  0  0  0  0  0  0
   41.2390   22.2500   36.9470 C   0  0  0  0  0  0  0  0  0  0  0  0
   41.8280   21.2650   37.4170 O   0  0  0  0  0  0  0  0  0  0  0  0
   39.8230   22.5040   36.9700 C   0  0  0  0  0  0  0  0  0  0  0  0
   39.3770   23.1610   38.1120 C   0  0  0  0  0  0  0  0  0  0  0  0
   38.0020   23.4370   38.1940 C   0  0  0  0  0  0  0  0  0  0  0  0
   37.1910   23.0620   37.1860 N   0  0  0  0  0  0  0  0  0  0  0  0
   37.6620   22.4280   36.0980 C   0  0  0  0  0  0  0  0  0  0  0  0
   38.9720   22.1540   35.9970 N   0  0  0  0  0  0  0  0  0  0  0  0
   43.7604   22.7487   37.5438 H   0  0  0  0  0  0  0  0  0  0  0  0
   45.2918   24.4366   36.5266 H   0  0  0  0  0  0  0  0  0  0  0  0
   44.4305   25.8931   34.6961 H   0  0  0  0  0  0  0  0  0  0  0  0
   41.7544   25.0468   31.7715 H   0  0  0  0  0  0  0  0  0  0  0  0
   40.6157   24.3281   32.9559 H   0  0  0  0  0  0  0  0  0  0  0  0
   39.3272   25.8615   31.5717 H   0  0  0  0  0  0  0  0  0  0  0  0
   39.5194   26.6551   33.1469 H   0  0  0  0  0  0  0  0  0  0  0  0
   41.0599   27.0619   30.6760 H   0  0  0  0  0  0  0  0  0  0  0  0
   42.8169   27.5249   31.7181 H   0  0  0  0  0  0  0  0  0  0  0  0
   41.8120   28.8697   32.4940 H   0  0  0  0  0  0  0  0  0  0  0  0
   43.1611   27.4116   34.0035 H   0  0  0  0  0  0  0  0  0  0  0  0
   41.3782   27.6582   34.3348 H   0  0  0  0  0  0  0  0  0  0  0  0
   40.0701   23.4515   38.9152 H   0  0  0  0  0  0  0  0  0  0  0  0
   37.5913   23.9547   39.0734 H   0  0  0  0  0  0  0  0  0  0  0  0
   36.9743   22.1341   35.2913 H   0  0  0  0  0  0  0  0  0  0  0  0
  1  2  2  0
  1 13  1  0
  3  2  1  0
  4  3  2  0
  5  4  1  0
  5  6  2  0
  6  1  1  0
  7  5  1  0
  8  7  1  0
  9  8  1  0
 10  9  1  0
 10 11  1  0
 11 12  1  0
 12  7  1  0
 13 15  1  0
 13 14  2  0
 15 16  2  0
 16 17  1  0
 18 17  2  0
 19 18  1  0
 20 19  2  0
 20 15  1  0
  2 21  1  0
  3 22  1  0
  4 23  1  0
  8 24  1  0
  8 25  1  0
  9 26  1  0
  9 27  1  0
 10 28  1  0
 11 29  1  0
 11 30  1  0
 12 31  1  0
 12 32  1  0
 16 33  1  0
 17 34  1  0
 19 35  1  0
M  ISO  8  21  14  22  14  23  14  24  13  25  13  26  13  27  13  28   5
M  ISO  7  29  13  30  13  31  13  32  13  33  14  34  14  35  14
M  END
>  <minimizedAffinity>  (1) 
-4.85598516

>  <minimizedRMSD>  (1) 
0.360258937

$$$$
