
     RDKit          3D

 34 36  0  0  0  0  0  0  0  0999 V2000
   42.0810   23.2970   36.3130 C   0  0  0  0  0  0  0  0  0  0  0  0
   43.4140   23.3650   36.7050 C   0  0  0  0  0  0  0  0  0  0  0  0
   44.2890   24.3180   36.1950 C   0  0  0  0  0  0  0  0  0  0  0  0
   43.7770   25.2120   35.2670 C   0  0  0  0  0  0  0  0  0  0  0  0
   42.4490   25.1060   34.9090 C   0  0  0  0  0  0  0  0  0  0  0  0
   41.6250   24.1780   35.4170 N   0  0  0  0  0  0  0  0  0  0  0  0
   41.9230   26.0230   33.9580 N   0  0  0  0  0  0  0  0  0  0  0  0
   42.6200   27.2370   33.5970 C   0  0  0  0  0  0  0  0  0  0  0  0
   42.4680   27.4230   32.1080 C   0  0  0  0  0  0  0  0  0  0  0  0
   41.1470   27.5740   31.7230 O   0  0  0  0  0  0  0  0  0  0  0  0
   40.2330   27.0990   32.6240 C   0  0  0  0  0  0  0  0  0  0  0  0
   40.6560   25.8050   33.2880 C   0  0  0  0  0  0  0  0  0  0  0  0
   41.2470   22.2390   36.9260 C   0  0  0  0  0  0  0  0  0  0  0  0
   41.8340   21.2400   37.3560 O   0  0  0  0  0  0  0  0  0  0  0  0
   39.8320   22.4870   36.9550 C   0  0  0  0  0  0  0  0  0  0  0  0
   39.3770   23.1440   38.1090 C   0  0  0  0  0  0  0  0  0  0  0  0
   38.0120   23.4190   38.2070 C   0  0  0  0  0  0  0  0  0  0  0  0
   37.1860   23.0430   37.1920 N   0  0  0  0  0  0  0  0  0  0  0  0
   37.6690   22.4100   36.0970 C   0  0  0  0  0  0  0  0  0  0  0  0
   38.9780   22.1460   36.0010 N   0  0  0  0  0  0  0  0  0  0  0  0
   43.7885   22.6406   37.4432 H   0  0  0  0  0  0  0  0  0  0  0  0
   45.3409   24.3607   36.5138 H   0  0  0  0  0  0  0  0  0  0  0  0
   44.4169   25.9901   34.8252 H   0  0  0  0  0  0  0  0  0  0  0  0
   42.1813   28.0940   34.1290 H   0  0  0  0  0  0  0  0  0  0  0  0
   43.6829   27.1691   33.8719 H   0  0  0  0  0  0  0  0  0  0  0  0
   43.0279   28.3204   31.8060 H   0  0  0  0  0  0  0  0  0  0  0  0
   42.8569   26.5184   31.6176 H   0  0  0  0  0  0  0  0  0  0  0  0
   40.0863   27.8595   33.4051 H   0  0  0  0  0  0  0  0  0  0  0  0
   39.3079   26.8897   32.0669 H   0  0  0  0  0  0  0  0  0  0  0  0
   39.8961   25.4993   34.0222 H   0  0  0  0  0  0  0  0  0  0  0  0
   40.7610   25.0116   32.5334 H   0  0  0  0  0  0  0  0  0  0  0  0
   40.0734   23.4327   38.9100 H   0  0  0  0  0  0  0  0  0  0  0  0
   37.6091   23.9326   39.0924 H   0  0  0  0  0  0  0  0  0  0  0  0
   36.9866   22.1129   35.2870 H   0  0  0  0  0  0  0  0  0  0  0  0
  1  2  2  0
  1 13  1  0
  3  2  1  0
  4  3  2  0
  5  4  1  0
  5  6  2  0
  6  1  1  0
  7  5  1  0
  8  7  1  0
  9  8  1  0
 10  9  1  0
 10 11  1  0
 11 12  1  0
 12  7  1  0
 13 15  1  0
 13 14  2  0
 15 16  2  0
 16 17  1  0
 18 17  2  0
 19 18  1  0
 20 19  2  0
 20 15  1  0
  2 21  1  0
  3 22  1  0
  4 23  1  0
  8 24  1  0
  8 25  1  0
  9 26  1  0
  9 27  1  0
 11 28  1  0
 11 29  1  0
 12 30  1  0
 12 31  1  0
 16 32  1  0
 17 33  1  0
 19 34  1  0
M  ISO  8  21  14  22  14  23  14  24  13  25  13  26  13  27  13  28  13
M  ISO  6  29  13  30  13  31  13  32  14  33  14  34  14
M  END
>  <minimizedAffinity>  (1) 
-4.85067654

>  <minimizedRMSD>  (1) 
0.113226451

$$$$
