
     RDKit          3D

 31 33  0  0  0  0  0  0  0  0999 V2000
   42.1060   23.2890   36.3310 C   0  0  0  0  0  0  0  0  0  0  0  0
   43.4200   23.3950   36.7800 C   0  0  0  0  0  0  0  0  0  0  0  0
   44.2770   24.3420   36.2270 C   0  0  0  0  0  0  0  0  0  0  0  0
   43.7950   25.1590   35.2380 C   0  0  0  0  0  0  0  0  0  0  0  0
   42.4950   25.0130   34.8310 C   0  0  0  0  0  0  0  0  0  0  0  0
   41.6630   24.0950   35.3680 N   0  0  0  0  0  0  0  0  0  0  0  0
   41.9670   25.8690   33.7840 C   0  0  0  0  0  0  0  0  0  0  0  0
   42.5420   27.0440   33.3630 C   0  0  0  0  0  0  0  0  0  0  0  0
   42.0390   27.8520   32.3720 C   0  0  0  0  0  0  0  0  0  0  0  0
   40.8730   27.4810   31.7330 C   0  0  0  0  0  0  0  0  0  0  0  0
   40.2530   26.3300   32.1020 C   0  0  0  0  0  0  0  0  0  0  0  0
   40.7950   25.5520   33.1020 C   0  0  0  0  0  0  0  0  0  0  0  0
   41.2450   22.2580   36.9620 C   0  0  0  0  0  0  0  0  0  0  0  0
   41.8400   21.2620   37.4380 O   0  0  0  0  0  0  0  0  0  0  0  0
   39.8290   22.4990   36.9680 C   0  0  0  0  0  0  0  0  0  0  0  0
   39.3770   23.1590   38.1250 C   0  0  0  0  0  0  0  0  0  0  0  0
   38.0070   23.4320   38.2070 C   0  0  0  0  0  0  0  0  0  0  0  0
   37.1930   23.0550   37.1850 N   0  0  0  0  0  0  0  0  0  0  0  0
   37.6870   22.4170   36.0890 C   0  0  0  0  0  0  0  0  0  0  0  0
   38.9970   22.1540   36.0040 N   0  0  0  0  0  0  0  0  0  0  0  0
   43.7823   22.7271   37.5754 H   0  0  0  0  0  0  0  0  0  0  0  0
   45.3164   24.4325   36.5755 H   0  0  0  0  0  0  0  0  0  0  0  0
   44.4420   25.9204   34.7779 H   0  0  0  0  0  0  0  0  0  0  0  0
   43.4732   27.3609   33.8555 H   0  0  0  0  0  0  0  0  0  0  0  0
   42.5578   28.7807   32.0920 H   0  0  0  0  0  0  0  0  0  0  0  0
   40.4511   28.1096   30.9349 H   0  0  0  0  0  0  0  0  0  0  0  0
   39.3221   26.0202   31.6046 H   0  0  0  0  0  0  0  0  0  0  0  0
   40.2706   24.6253   33.3780 H   0  0  0  0  0  0  0  0  0  0  0  0
   40.0695   23.4476   38.9294 H   0  0  0  0  0  0  0  0  0  0  0  0
   37.5935   23.9454   39.0876 H   0  0  0  0  0  0  0  0  0  0  0  0
   37.0111   22.1179   35.2743 H   0  0  0  0  0  0  0  0  0  0  0  0
  1  2  2  0
  1 13  1  0
  3  2  1  0
  4  3  2  0
  5  4  1  0
  5  6  2  0
  6  1  1  0
  7  5  1  0
  8  7  2  0
  9  8  1  0
 10 11  1  0
 10  9  2  0
 11 12  2  0
 12  7  1  0
 13 15  1  0
 13 14  2  0
 15 16  2  0
 16 17  1  0
 18 17  2  0
 19 18  1  0
 20 19  2  0
 20 15  1  0
  2 21  1  0
  3 22  1  0
  4 23  1  0
  8 24  1  0
  9 25  1  0
 10 26  1  0
 11 27  1  0
 12 28  1  0
 16 29  1  0
 17 30  1  0
 19 31  1  0
M  ISO  8  21  14  22  14  23  14  24  14  25  14  26  14  27  14  28  14
M  ISO  3  29  14  30  14  31  14
M  END
>  <minimizedAffinity>  (1) 
-4.75607014

>  <minimizedRMSD>  (1) 
0.295625895

$$$$
