
     RDKit          3D

 26 28  0  0  0  0  0  0  0  0999 V2000
   42.2120   23.1400   36.4140 C   0  0  0  0  0  0  0  0  0  0  0  0
   43.5670   23.0410   36.6950 C   0  0  0  0  0  0  0  0  0  0  0  0
   44.4950   23.9610   36.2220 C   0  0  0  0  0  0  0  0  0  0  0  0
   44.0330   24.9940   35.4520 C   0  0  0  0  0  0  0  0  0  0  0  0
   42.6760   25.0600   35.1910 C   0  0  0  0  0  0  0  0  0  0  0  0
   41.7860   24.1720   35.6500 N   0  0  0  0  0  0  0  0  0  0  0  0
   42.0630   26.1150   34.3830 C   0  0  0  0  0  0  0  0  0  0  0  0
   42.4640   27.1480   33.6130 N   0  0  0  0  0  0  0  0  0  0  0  0
   41.3950   27.7420   33.1410 O   0  0  0  0  0  0  0  0  0  0  0  0
   40.3050   27.1620   33.5550 C   0  0  0  0  0  0  0  0  0  0  0  0
   40.7190   26.1380   34.3360 N   0  0  0  0  0  0  0  0  0  0  0  0
   41.3000   22.1190   36.9600 C   0  0  0  0  0  0  0  0  0  0  0  0
   41.8250   21.0820   37.3840 O   0  0  0  0  0  0  0  0  0  0  0  0
   39.8860   22.4330   36.9430 C   0  0  0  0  0  0  0  0  0  0  0  0
   39.4530   23.1020   38.1000 C   0  0  0  0  0  0  0  0  0  0  0  0
   38.0920   23.4440   38.1620 C   0  0  0  0  0  0  0  0  0  0  0  0
   37.2820   23.1150   37.1220 N   0  0  0  0  0  0  0  0  0  0  0  0
   37.7550   22.4730   36.0410 C   0  0  0  0  0  0  0  0  0  0  0  0
   39.0590   22.1350   35.9560 N   0  0  0  0  0  0  0  0  0  0  0  0
   43.9197   22.2036   37.3149 H   0  0  0  0  0  0  0  0  0  0  0  0
   45.5647   23.8624   36.4585 H   0  0  0  0  0  0  0  0  0  0  0  0
   44.7225   25.7517   35.0513 H   0  0  0  0  0  0  0  0  0  0  0  0
   39.2683   27.4446   33.3197 H   0  0  0  0  0  0  0  0  0  0  0  0
   40.1465   23.3463   38.9181 H   0  0  0  0  0  0  0  0  0  0  0  0
   37.6881   23.9703   39.0394 H   0  0  0  0  0  0  0  0  0  0  0  0
   37.0724   22.2201   35.2163 H   0  0  0  0  0  0  0  0  0  0  0  0
  1  2  2  0
  1 12  1  0
  3  2  1  0
  4  3  2  0
  5  4  1  0
  5  6  2  0
  6  1  1  0
  7  5  1  0
  8  7  2  0
  9 10  1  0
  9  8  1  0
 10 11  2  0
 11  7  1  0
 12 13  2  0
 14 12  1  0
 14 15  2  0
 15 16  1  0
 17 16  2  0
 18 17  1  0
 19 18  2  0
 19 14  1  0
  2 20  1  0
  3 21  1  0
  4 22  1  0
 10 23  1  0
 15 24  1  0
 16 25  1  0
 18 26  1  0
M  ISO  7  20  14  21  14  22  14  23  14  24  14  25  14  26  14
M  END
>  <minimizedAffinity>  (1) 
-4.75013685

>  <minimizedRMSD>  (1) 
0.477620333

$$$$
