
     RDKit          3D

 28 30  0  0  0  0  0  0  0  0999 V2000
   42.1520   23.2410   36.3740 C   0  0  0  0  0  0  0  0  0  0  0  0
   43.4950   23.2300   36.7450 C   0  0  0  0  0  0  0  0  0  0  0  0
   44.3930   24.1670   36.2480 C   0  0  0  0  0  0  0  0  0  0  0  0
   43.9130   25.1060   35.3760 C   0  0  0  0  0  0  0  0  0  0  0  0
   42.5640   25.0760   35.0350 C   0  0  0  0  0  0  0  0  0  0  0  0
   41.7040   24.1770   35.5120 N   0  0  0  0  0  0  0  0  0  0  0  0
   42.0890   26.0930   34.1010 C   0  0  0  0  0  0  0  0  0  0  0  0
   40.7910   26.3940   33.7450 C   0  0  0  0  0  0  0  0  0  0  0  0
   40.7600   27.4360   32.8200 C   0  0  0  0  0  0  0  0  0  0  0  0
   42.0910   27.7200   32.6610 C   0  0  0  0  0  0  0  0  0  0  0  0
   42.8450   26.9400   33.4030 O   0  0  0  0  0  0  0  0  0  0  0  0
   41.2740   22.2010   36.9580 C   0  0  0  0  0  0  0  0  0  0  0  0
   41.8380   21.1760   37.3960 O   0  0  0  0  0  0  0  0  0  0  0  0
   39.8600   22.4730   36.9650 C   0  0  0  0  0  0  0  0  0  0  0  0
   39.4200   23.1310   38.1120 C   0  0  0  0  0  0  0  0  0  0  0  0
   38.0470   23.4270   38.1850 C   0  0  0  0  0  0  0  0  0  0  0  0
   37.2310   23.0710   37.1620 N   0  0  0  0  0  0  0  0  0  0  0  0
   37.7240   22.4330   36.0730 C   0  0  0  0  0  0  0  0  0  0  0  0
   39.0300   22.1380   35.9770 N   0  0  0  0  0  0  0  0  0  0  0  0
   43.8525   22.4624   37.4471 H   0  0  0  0  0  0  0  0  0  0  0  0
   45.4521   24.1543   36.5450 H   0  0  0  0  0  0  0  0  0  0  0  0
   44.5810   25.8704   34.9524 H   0  0  0  0  0  0  0  0  0  0  0  0
   39.9008   25.8811   34.1379 H   0  0  0  0  0  0  0  0  0  0  0  0
   39.8903   27.9090   32.3406 H   0  0  0  0  0  0  0  0  0  0  0  0
   42.4803   28.5039   31.9947 H   0  0  0  0  0  0  0  0  0  0  0  0
   40.1129   23.4055   38.9210 H   0  0  0  0  0  0  0  0  0  0  0  0
   37.6379   23.9437   39.0657 H   0  0  0  0  0  0  0  0  0  0  0  0
   37.0438   22.1526   35.2553 H   0  0  0  0  0  0  0  0  0  0  0  0
  1  2  2  0
  1 12  1  0
  3  2  1  0
  4  3  2  0
  5  4  1  0
  5  6  2  0
  6  1  1  0
  7  5  1  0
  8  7  2  0
  9  8  1  0
 10  9  2  0
 10 11  1  0
 11  7  1  0
 12 14  1  0
 12 13  2  0
 14 15  2  0
 15 16  1  0
 17 16  2  0
 18 17  1  0
 19 18  2  0
 19 14  1  0
  2 20  1  0
  3 21  1  0
  4 22  1  0
  8 23  1  0
  9 24  1  0
 10 25  1  0
 15 26  1  0
 16 27  1  0
 18 28  1  0
M  ISO  8  20  14  21  14  22  14  23  14  24  14  25  14  26  14  27  14
M  ISO  1  28  14
M  END
>  <minimizedAffinity>  (1) 
-4.65646791

>  <minimizedRMSD>  (1) 
0.505169034

$$$$
