
     RDKit          3D

 28 30  0  0  0  0  0  0  0  0999 V2000
   42.1140   23.2420   36.3630 C   0  0  0  0  0  0  0  0  0  0  0  0
   43.4420   23.3180   36.7920 C   0  0  0  0  0  0  0  0  0  0  0  0
   44.3230   24.2590   36.2760 C   0  0  0  0  0  0  0  0  0  0  0  0
   43.8510   25.1370   35.3110 C   0  0  0  0  0  0  0  0  0  0  0  0
   42.5430   25.0070   34.9380 C   0  0  0  0  0  0  0  0  0  0  0  0
   41.6870   24.1140   35.4190 N   0  0  0  0  0  0  0  0  0  0  0  0
   42.0410   25.8950   33.9530 C   0  0  0  0  0  0  0  0  0  0  0  0
   42.4780   27.1990   33.5250 C   0  0  0  0  0  0  0  0  0  0  0  0
   41.7640   27.8050   32.5300 C   0  0  0  0  0  0  0  0  0  0  0  0
   40.6400   27.1890   31.9360 C   0  0  0  0  0  0  0  0  0  0  0  0
   40.5730   25.5380   32.8990 S   0  0  0  0  0  0  0  0  0  0  0  0
   41.2540   22.2160   36.9660 C   0  0  0  0  0  0  0  0  0  0  0  0
   41.8210   21.2080   37.4260 O   0  0  0  0  0  0  0  0  0  0  0  0
   39.8340   22.4770   36.9640 C   0  0  0  0  0  0  0  0  0  0  0  0
   39.3880   23.1470   38.1250 C   0  0  0  0  0  0  0  0  0  0  0  0
   38.0150   23.4420   38.2080 C   0  0  0  0  0  0  0  0  0  0  0  0
   37.2100   23.0670   37.1720 N   0  0  0  0  0  0  0  0  0  0  0  0
   37.6940   22.4310   36.0890 C   0  0  0  0  0  0  0  0  0  0  0  0
   39.0070   22.1390   35.9910 N   0  0  0  0  0  0  0  0  0  0  0  0
   43.7985   22.6140   37.5584 H   0  0  0  0  0  0  0  0  0  0  0  0
   45.3659   24.3070   36.6226 H   0  0  0  0  0  0  0  0  0  0  0  0
   44.5014   25.9042   34.8657 H   0  0  0  0  0  0  0  0  0  0  0  0
   43.3517   27.6876   33.9810 H   0  0  0  0  0  0  0  0  0  0  0  0
   42.0734   28.8014   32.1814 H   0  0  0  0  0  0  0  0  0  0  0  0
   39.9816   27.5588   31.1362 H   0  0  0  0  0  0  0  0  0  0  0  0
   40.0844   23.4260   38.9295 H   0  0  0  0  0  0  0  0  0  0  0  0
   37.6012   23.9613   39.0850 H   0  0  0  0  0  0  0  0  0  0  0  0
   37.0112   22.1463   35.2750 H   0  0  0  0  0  0  0  0  0  0  0  0
  1  2  2  0
  1 12  1  0
  3  2  1  0
  4  3  2  0
  5  4  1  0
  5  6  2  0
  6  1  1  0
  7  5  1  0
  8  7  2  0
  9  8  1  0
 10  9  2  0
 10 11  1  0
 11  7  1  0
 12 13  2  0
 14 12  1  0
 14 15  2  0
 15 16  1  0
 17 16  2  0
 18 17  1  0
 19 18  2  0
 19 14  1  0
  2 20  1  0
  3 21  1  0
  4 22  1  0
  8 23  1  0
  9 24  1  0
 10 25  1  0
 15 26  1  0
 16 27  1  0
 18 28  1  0
M  ISO  8  20  14  21  14  22  14  23  14  24  14  25  14  26  14  27  14
M  ISO  1  28  14
M  END
>  <minimizedAffinity>  (1) 
-4.62876463

>  <minimizedRMSD>  (1) 
0.462924838

$$$$
