
     RDKit          3D

 29 31  0  0  0  0  0  0  0  0999 V2000
   42.0880   23.2890   36.2980 C   0  0  0  0  0  0  0  0  0  0  0  0
   43.3930   23.4170   36.7580 C   0  0  0  0  0  0  0  0  0  0  0  0
   44.2580   24.3630   36.2040 C   0  0  0  0  0  0  0  0  0  0  0  0
   43.7790   25.1660   35.1900 C   0  0  0  0  0  0  0  0  0  0  0  0
   42.4790   24.9870   34.7830 C   0  0  0  0  0  0  0  0  0  0  0  0
   41.6490   24.0790   35.3160 N   0  0  0  0  0  0  0  0  0  0  0  0
   41.9790   25.8500   33.6990 C   0  0  0  0  0  0  0  0  0  0  0  0
   42.5610   27.0780   33.4520 C   0  0  0  0  0  0  0  0  0  0  0  0
   42.0680   27.8610   32.4280 C   0  0  0  0  0  0  0  0  0  0  0  0
   41.0350   27.4370   31.6810 N   0  0  0  0  0  0  0  0  0  0  0  0
   40.4760   26.2220   31.9420 C   0  0  0  0  0  0  0  0  0  0  0  0
   40.9460   25.4480   32.9360 N   0  0  0  0  0  0  0  0  0  0  0  0
   41.2450   22.2540   36.9520 C   0  0  0  0  0  0  0  0  0  0  0  0
   41.8360   21.2730   37.4230 O   0  0  0  0  0  0  0  0  0  0  0  0
   39.8310   22.4990   36.9670 C   0  0  0  0  0  0  0  0  0  0  0  0
   39.3780   23.1570   38.1100 C   0  0  0  0  0  0  0  0  0  0  0  0
   38.0040   23.4390   38.2110 C   0  0  0  0  0  0  0  0  0  0  0  0
   37.1880   23.0580   37.1900 N   0  0  0  0  0  0  0  0  0  0  0  0
   37.6720   22.4260   36.1070 C   0  0  0  0  0  0  0  0  0  0  0  0
   38.9860   22.1460   35.9920 N   0  0  0  0  0  0  0  0  0  0  0  0
   43.7492   22.7647   37.5690 H   0  0  0  0  0  0  0  0  0  0  0  0
   45.2918   24.4649   36.5659 H   0  0  0  0  0  0  0  0  0  0  0  0
   44.4192   25.9276   34.7208 H   0  0  0  0  0  0  0  0  0  0  0  0
   43.4062   27.4273   34.0633 H   0  0  0  0  0  0  0  0  0  0  0  0
   42.5246   28.8403   32.2218 H   0  0  0  0  0  0  0  0  0  0  0  0
   39.6305   25.8703   31.3325 H   0  0  0  0  0  0  0  0  0  0  0  0
   40.0754   23.4471   38.9097 H   0  0  0  0  0  0  0  0  0  0  0  0
   37.5983   23.9550   39.0937 H   0  0  0  0  0  0  0  0  0  0  0  0
   36.9842   22.1321   35.3004 H   0  0  0  0  0  0  0  0  0  0  0  0
  1  2  2  0
  1 13  1  0
  3  2  1  0
  4  3  2  0
  5  4  1  0
  5  6  2  0
  6  1  1  0
  7  5  1  0
  8  7  2  0
  9  8  1  0
 10 11  1  0
 10  9  2  0
 11 12  2  0
 12  7  1  0
 13 15  1  0
 13 14  2  0
 15 16  2  0
 16 17  1  0
 18 17  2  0
 19 18  1  0
 20 19  2  0
 20 15  1  0
  2 21  1  0
  3 22  1  0
  4 23  1  0
  8 24  1  0
  9 25  1  0
 11 26  1  0
 16 27  1  0
 17 28  1  0
 19 29  1  0
M  ISO  8  21  14  22  14  23  14  24  14  25  14  26  14  27  14  28  14
M  ISO  1  29  14
M  END
>  <minimizedAffinity>  (1) 
-4.58457375

>  <minimizedRMSD>  (1) 
0.421203911

$$$$
