
     RDKit          3D

 29 31  0  0  0  0  0  0  0  0999 V2000
   42.0950   23.2920   36.3020 C   0  0  0  0  0  0  0  0  0  0  0  0
   43.3990   23.4320   36.7720 C   0  0  0  0  0  0  0  0  0  0  0  0
   44.2680   24.3890   36.2180 C   0  0  0  0  0  0  0  0  0  0  0  0
   43.7780   25.1750   35.2000 C   0  0  0  0  0  0  0  0  0  0  0  0
   42.4860   24.9850   34.7860 C   0  0  0  0  0  0  0  0  0  0  0  0
   41.6520   24.0720   35.3130 N   0  0  0  0  0  0  0  0  0  0  0  0
   41.9710   25.8220   33.7070 C   0  0  0  0  0  0  0  0  0  0  0  0
   42.5150   27.0530   33.3990 C   0  0  0  0  0  0  0  0  0  0  0  0
   42.0840   27.8740   32.4110 C   0  0  0  0  0  0  0  0  0  0  0  0
   41.0400   27.4240   31.6910 N   0  0  0  0  0  0  0  0  0  0  0  0
   40.4470   26.2180   31.9360 C   0  0  0  0  0  0  0  0  0  0  0  0
   40.9310   25.4550   32.9350 N   0  0  0  0  0  0  0  0  0  0  0  0
   41.2480   22.2580   36.9420 C   0  0  0  0  0  0  0  0  0  0  0  0
   41.8430   21.2640   37.4140 O   0  0  0  0  0  0  0  0  0  0  0  0
   39.8310   22.5020   36.9570 C   0  0  0  0  0  0  0  0  0  0  0  0
   39.3870   23.1570   38.1040 C   0  0  0  0  0  0  0  0  0  0  0  0
   38.0080   23.4360   38.2040 C   0  0  0  0  0  0  0  0  0  0  0  0
   37.1920   23.0570   37.1870 N   0  0  0  0  0  0  0  0  0  0  0  0
   37.6790   22.4290   36.1050 C   0  0  0  0  0  0  0  0  0  0  0  0
   38.9900   22.1530   35.9900 N   0  0  0  0  0  0  0  0  0  0  0  0
   43.7539   22.7850   37.5878 H   0  0  0  0  0  0  0  0  0  0  0  0
   45.2989   24.5048   36.5840 H   0  0  0  0  0  0  0  0  0  0  0  0
   44.4113   25.9407   34.7281 H   0  0  0  0  0  0  0  0  0  0  0  0
   43.3672   27.3949   34.0047 H   0  0  0  0  0  0  0  0  0  0  0  0
   42.5574   28.8464   32.2103 H   0  0  0  0  0  0  0  0  0  0  0  0
   39.5936   25.8777   31.3312 H   0  0  0  0  0  0  0  0  0  0  0  0
   40.0864   23.4459   38.9023 H   0  0  0  0  0  0  0  0  0  0  0  0
   37.6020   23.9500   39.0877 H   0  0  0  0  0  0  0  0  0  0  0  0
   36.9927   22.1347   35.2973 H   0  0  0  0  0  0  0  0  0  0  0  0
  1  2  2  0
  1 13  1  0
  3  2  1  0
  4  3  2  0
  5  4  1  0
  5  6  2  0
  6  1  1  0
  7  5  1  0
  8  7  2  0
  9  8  1  0
 10 11  1  0
 10  9  2  0
 11 12  2  0
 12  7  1  0
 13 15  1  0
 13 14  2  0
 15 16  2  0
 16 17  1  0
 18 17  2  0
 19 18  1  0
 20 19  2  0
 20 15  1  0
  2 21  1  0
  3 22  1  0
  4 23  1  0
  8 24  1  0
  9 25  1  0
 11 26  1  0
 16 27  1  0
 17 28  1  0
 19 29  1  0
M  ISO  8  21  14  22  14  23  14  24  14  25  14  26  14  27  14  28  14
M  ISO  1  29  14
M  END
>  <minimizedAffinity>  (1) 
-4.57646513

>  <minimizedRMSD>  (1) 
0.48588261

$$$$
