
     RDKit          3D

 30 31  0  0  0  0  0  0  0  0999 V2000
   42.1030   23.3040   36.3130 C   0  0  0  0  0  0  0  0  0  0  0  0
   43.4320   23.3550   36.7090 C   0  0  0  0  0  0  0  0  0  0  0  0
   44.3130   24.3170   36.2170 C   0  0  0  0  0  0  0  0  0  0  0  0
   43.8190   25.2330   35.3100 C   0  0  0  0  0  0  0  0  0  0  0  0
   42.4800   25.1420   34.9430 C   0  0  0  0  0  0  0  0  0  0  0  0
   41.6420   24.1990   35.4330 N   0  0  0  0  0  0  0  0  0  0  0  0
   42.0290   26.1640   33.9630 C   0  0  0  0  0  0  0  0  0  0  0  0
   43.2230   27.0730   33.7240 C   0  0  0  0  0  0  0  0  0  0  0  0
   40.8020   26.9190   34.3430 C   0  0  0  0  0  0  0  0  0  0  0  0
   41.2610   22.2460   36.8940 C   0  0  0  0  0  0  0  0  0  0  0  0
   41.8520   21.2260   37.3040 O   0  0  0  0  0  0  0  0  0  0  0  0
   39.8480   22.4950   36.9300 C   0  0  0  0  0  0  0  0  0  0  0  0
   39.4100   23.1420   38.0910 C   0  0  0  0  0  0  0  0  0  0  0  0
   38.0400   23.4160   38.1910 C   0  0  0  0  0  0  0  0  0  0  0  0
   37.2060   23.0550   37.1910 N   0  0  0  0  0  0  0  0  0  0  0  0
   37.6780   22.4270   36.0810 C   0  0  0  0  0  0  0  0  0  0  0  0
   38.9910   22.1540   35.9640 N   0  0  0  0  0  0  0  0  0  0  0  0
   43.8016   22.6139   37.4330 H   0  0  0  0  0  0  0  0  0  0  0  0
   45.3641   24.3451   36.5400 H   0  0  0  0  0  0  0  0  0  0  0  0
   44.4675   26.0150   34.8881 H   0  0  0  0  0  0  0  0  0  0  0  0
   41.7058   25.6566   33.0421 H   0  0  0  0  0  0  0  0  0  0  0  0
   43.6409   27.3911   34.6905 H   0  0  0  0  0  0  0  0  0  0  0  0
   43.9903   26.5283   33.1542 H   0  0  0  0  0  0  0  0  0  0  0  0
   42.9022   27.9576   33.1542 H   0  0  0  0  0  0  0  0  0  0  0  0
   40.7253   26.9662   35.4393 H   0  0  0  0  0  0  0  0  0  0  0  0
   40.8581   27.9390   33.9351 H   0  0  0  0  0  0  0  0  0  0  0  0
   39.9167   26.4092   33.9351 H   0  0  0  0  0  0  0  0  0  0  0  0
   40.1113   23.4232   38.8905 H   0  0  0  0  0  0  0  0  0  0  0  0
   37.6436   23.9243   39.0823 H   0  0  0  0  0  0  0  0  0  0  0  0
   36.9847   22.1412   35.2762 H   0  0  0  0  0  0  0  0  0  0  0  0
  1  2  2  0
  1 10  1  0
  3  2  1  0
  4  3  2  0
  5  4  1  0
  5  6  2  0
  6  1  1  0
  7  9  1  0
  7  5  1  0
  8  7  1  0
 10 12  1  0
 10 11  2  0
 12 13  2  0
 13 14  1  0
 15 14  2  0
 16 15  1  0
 17 16  2  0
 17 12  1  0
  2 18  1  0
  3 19  1  0
  4 20  1  0
  7 21  1  0
  8 22  1  0
  8 23  1  0
  8 24  1  0
  9 25  1  0
  9 26  1  0
  9 27  1  0
 13 28  1  0
 14 29  1  0
 16 30  1  0
M  ISO  8  18  14  19  14  20  14  21   8  22   8  23   8  24   8  25   8
M  ISO  5  26   8  27   8  28  14  29  14  30  14
M  END
>  <minimizedAffinity>  (1) 
-4.54655218

>  <minimizedRMSD>  (1) 
0.0564573482

$$$$
