
     RDKit          3D

 28 30  0  0  0  0  0  0  0  0999 V2000
   42.0860   23.3450   36.2770 C   0  0  0  0  0  0  0  0  0  0  0  0
   43.4310   23.3460   36.6320 C   0  0  0  0  0  0  0  0  0  0  0  0
   44.3030   24.3410   36.1920 C   0  0  0  0  0  0  0  0  0  0  0  0
   43.7820   25.3360   35.3840 C   0  0  0  0  0  0  0  0  0  0  0  0
   42.4310   25.2800   35.0640 C   0  0  0  0  0  0  0  0  0  0  0  0
   41.6060   24.3220   35.4910 N   0  0  0  0  0  0  0  0  0  0  0  0
   41.9880   26.4040   34.1890 C   0  0  0  0  0  0  0  0  0  0  0  0
   41.0290   26.1470   33.0870 C   0  0  0  0  0  0  0  0  0  0  0  0
   40.6350   26.9610   34.2930 C   0  0  0  0  0  0  0  0  0  0  0  0
   41.2450   22.2480   36.7920 C   0  0  0  0  0  0  0  0  0  0  0  0
   41.8370   21.1950   37.1220 O   0  0  0  0  0  0  0  0  0  0  0  0
   39.8300   22.4920   36.8690 C   0  0  0  0  0  0  0  0  0  0  0  0
   39.4270   23.1270   38.0580 C   0  0  0  0  0  0  0  0  0  0  0  0
   38.0600   23.3950   38.1980 C   0  0  0  0  0  0  0  0  0  0  0  0
   37.2020   23.0470   37.2220 N   0  0  0  0  0  0  0  0  0  0  0  0
   37.6430   22.4340   36.0910 C   0  0  0  0  0  0  0  0  0  0  0  0
   38.9530   22.1630   35.9260 N   0  0  0  0  0  0  0  0  0  0  0  0
   43.8163   22.5417   37.2759 H   0  0  0  0  0  0  0  0  0  0  0  0
   45.3655   24.3352   36.4766 H   0  0  0  0  0  0  0  0  0  0  0  0
   44.4195   26.1486   35.0055 H   0  0  0  0  0  0  0  0  0  0  0  0
   42.9966   26.8378   34.2568 H   0  0  0  0  0  0  0  0  0  0  0  0
   41.1645   26.6346   32.1104 H   0  0  0  0  0  0  0  0  0  0  0  0
   40.6360   25.2530   32.5806 H   0  0  0  0  0  0  0  0  0  0  0  0
   39.9255   26.5504   35.0265 H   0  0  0  0  0  0  0  0  0  0  0  0
   40.2164   27.9658   34.4517 H   0  0  0  0  0  0  0  0  0  0  0  0
   40.1510   23.3998   38.8399 H   0  0  0  0  0  0  0  0  0  0  0  0
   37.6873   23.8904   39.1066 H   0  0  0  0  0  0  0  0  0  0  0  0
   36.9251   22.1572   35.3048 H   0  0  0  0  0  0  0  0  0  0  0  0
  1  2  2  0
  1 10  1  0
  3  2  1  0
  4  3  2  0
  5  4  1  0
  5  6  2  0
  6  1  1  0
  7  9  1  0
  7  5  1  0
  8  7  1  0
  8  9  1  0
 10 12  1  0
 10 11  2  0
 12 13  2  0
 13 14  1  0
 15 14  2  0
 16 15  1  0
 17 16  2  0
 17 12  1  0
  2 18  1  0
  3 19  1  0
  4 20  1  0
  7 21  1  0
  8 22  1  0
  8 23  1  0
  9 24  1  0
  9 25  1  0
 13 26  1  0
 14 27  1  0
 16 28  1  0
M  ISO  8  18  14  19  14  20  14  21  13  22  13  23  13  24  13  25  13
M  ISO  3  26  14  27  14  28  14
M  END
>  <minimizedAffinity>  (1) 
-4.53103447

>  <minimizedRMSD>  (1) 
0.382090479

$$$$
