
     RDKit          3D

 45 49  0  0  0  0  0  0  0  0999 V2000
   40.4730   26.9730   34.0600 C   0  0  0  0  0  0  0  0  0  0  0  0
   42.2350   24.0750   35.6230 C   0  0  0  0  0  0  0  0  0  0  0  0
   41.1430   23.2860   36.0070 C   0  0  0  0  0  0  0  0  0  0  0  0
   39.8470   23.7160   35.7480 C   0  0  0  0  0  0  0  0  0  0  0  0
   39.7170   24.9200   35.1170 N   0  0  0  0  0  0  0  0  0  0  0  0
   40.7920   25.6720   34.7520 C   0  0  0  0  0  0  0  0  0  0  0  0
   42.0250   25.2610   34.9980 N   0  0  0  0  0  0  0  0  0  0  0  0
   38.6580   23.0130   36.1270 C   0  0  0  0  0  0  0  0  0  0  0  0
   38.1990   23.0690   37.4420 C   0  0  0  0  0  0  0  0  0  0  0  0
   37.0560   22.3600   37.5840 N   0  0  0  0  0  0  0  0  0  0  0  0
   36.7290   21.8260   36.4050 C   0  0  0  0  0  0  0  0  0  0  0  0
   35.6800   21.0350   35.9750 C   0  0  0  0  0  0  0  0  0  0  0  0
   35.6120   20.6460   34.6510 C   0  0  0  0  0  0  0  0  0  0  0  0
   36.5960   21.0560   33.7760 C   0  0  0  0  0  0  0  0  0  0  0  0
   37.6150   21.8360   34.2440 C   0  0  0  0  0  0  0  0  0  0  0  0
   37.7110   22.2360   35.5440 C   0  0  0  0  0  0  0  0  0  0  0  0
   39.0320   27.3210   34.2640 C   0  0  0  0  0  0  0  0  0  0  0  0
   38.2210   27.1310   33.0300 C   0  0  0  0  0  0  0  0  0  0  0  0
   37.1070   26.3190   33.0680 C   0  0  0  0  0  0  0  0  0  0  0  0
   36.2770   26.0670   31.9840 C   0  0  0  0  0  0  0  0  0  0  0  0
   36.6020   26.6770   30.8050 N   0  0  0  0  0  0  0  0  0  0  0  0
   37.7010   27.4820   30.7610 C   0  0  0  0  0  0  0  0  0  0  0  0
   38.4770   27.6920   31.8540 N   0  0  0  0  0  0  0  0  0  0  0  0
   38.0700   28.1470   29.5240 C   0  0  0  0  0  0  0  0  0  0  0  0
   39.2540   27.7830   28.8690 C   0  0  0  0  0  0  0  0  0  0  0  0
   39.3460   28.5930   27.7160 C   0  0  0  0  0  0  0  0  0  0  0  0
   38.2510   29.3830   27.7270 N   0  0  0  0  0  0  0  0  0  0  0  0
   37.4960   29.1270   28.7860 N   0  0  0  0  0  0  0  0  0  0  0  0
   40.6745   26.8719   32.9833 H   0  0  0  0  0  0  0  0  0  0  0  0
   41.1007   27.7708   34.4836 H   0  0  0  0  0  0  0  0  0  0  0  0
   43.2605   23.7338   35.8277 H   0  0  0  0  0  0  0  0  0  0  0  0
   41.3115   22.3246   36.5143 H   0  0  0  0  0  0  0  0  0  0  0  0
   38.6990   23.6161   38.2548 H   0  0  0  0  0  0  0  0  0  0  0  0
   36.5244   22.2500   38.4593 H   0  0  0  0  0  0  0  0  0  0  0  0
   34.9021   20.7164   36.6845 H   0  0  0  0  0  0  0  0  0  0  0  0
   34.7820   20.0161   34.2986 H   0  0  0  0  0  0  0  0  0  0  0  0
   36.5608   20.7594   32.7173 H   0  0  0  0  0  0  0  0  0  0  0  0
   38.3955   22.1568   33.5384 H   0  0  0  0  0  0  0  0  0  0  0  0
   38.6227   26.6789   35.0578 H   0  0  0  0  0  0  0  0  0  0  0  0
   38.9800   28.3849   34.5385 H   0  0  0  0  0  0  0  0  0  0  0  0
   36.8584   25.8368   34.0249 H   0  0  0  0  0  0  0  0  0  0  0  0
   35.4003   25.4083   32.0699 H   0  0  0  0  0  0  0  0  0  0  0  0
   39.9727   27.0149   29.1907 H   0  0  0  0  0  0  0  0  0  0  0  0
   40.1469   28.5825   26.9621 H   0  0  0  0  0  0  0  0  0  0  0  0
   38.0320   30.0889   27.0096 H   0  0  0  0  0  0  0  0  0  0  0  0
  1 17  1  0
  1  6  1  0
  2  3  2  0
  4  3  1  0
  4  8  1  0
  5  4  2  0
  6  7  2  0
  6  5  1  0
  7  2  1  0
  8  9  2  0
  9 10  1  0
 11 10  1  0
 12 11  2  0
 13 12  1  0
 14 15  1  0
 14 13  2  0
 15 16  2  0
 16  8  1  0
 16 11  1  0
 18 19  2  0
 18 17  1  0
 20 19  1  0
 21 20  2  0
 22 21  1  0
 22 23  2  0
 23 18  1  0
 24 22  1  0
 25 24  1  0
 26 27  1  0
 26 25  2  0
 27 28  1  0
 28 24  2  0
  1 29  1  0
  1 30  1  0
  2 31  1  0
  3 32  1  0
  9 33  1  0
 10 34  1  0
 12 35  1  0
 13 36  1  0
 14 37  1  0
 15 38  1  0
 17 39  1  0
 17 40  1  0
 19 41  1  0
 20 42  1  0
 25 43  1  0
 26 44  1  0
 27 45  1  0
M  ISO  8  29   8  30   8  31  14  32  14  33  14  34   9  35  14  36  14
M  ISO  8  37  14  38  14  39   8  40   8  41  14  42  14  43  14  44  14
M  ISO  1  45   9
M  END
>  <minimizedAffinity>  (1) 
-6.14190149

>  <minimizedRMSD>  (1) 
3.9862833

$$$$
