
     RDKit          3D

 43 46  0  0  0  0  0  0  0  0999 V2000
   41.3840   22.2980   36.9640 C   0  0  0  0  0  0  0  0  0  0  0  0
   42.0070   21.3360   37.4360 O   0  0  0  0  0  0  0  0  0  0  0  0
   39.9610   22.4840   36.9520 C   0  0  0  0  0  0  0  0  0  0  0  0
   39.4670   23.1940   38.0340 C   0  0  0  0  0  0  0  0  0  0  0  0
   38.0800   23.4150   38.0860 C   0  0  0  0  0  0  0  0  0  0  0  0
   37.2870   22.9420   37.1050 N   0  0  0  0  0  0  0  0  0  0  0  0
   37.8260   22.2520   36.0660 C   0  0  0  0  0  0  0  0  0  0  0  0
   39.1380   22.0430   36.0170 N   0  0  0  0  0  0  0  0  0  0  0  0
   37.0860   21.7040   34.9730 N   0  0  0  0  0  0  0  0  0  0  0  0
   37.4450   21.9240   33.6940 C   0  0  0  0  0  0  0  0  0  0  0  0
   36.6760   21.3570   32.6930 C   0  0  0  0  0  0  0  0  0  0  0  0
   37.0250   21.5670   31.2650 C   0  0  0  0  0  0  0  0  0  0  0  0
   35.5830   20.5980   33.0550 C   0  0  0  0  0  0  0  0  0  0  0  0
   34.8440   20.0560   32.1820 O   0  0  0  0  0  0  0  0  0  0  0  0
   35.2160   20.3730   34.3330 N   0  0  0  0  0  0  0  0  0  0  0  0
   36.0060   20.9530   35.2810 C   0  0  0  0  0  0  0  0  0  0  0  0
   35.6540   20.7360   36.4830 O   0  0  0  0  0  0  0  0  0  0  0  0
   42.1840   23.3780   36.3430 C   0  0  0  0  0  0  0  0  0  0  0  0
   43.4750   23.5940   36.8450 C   0  0  0  0  0  0  0  0  0  0  0  0
   44.3070   24.5810   36.3350 C   0  0  0  0  0  0  0  0  0  0  0  0
   43.8200   25.3440   35.3150 C   0  0  0  0  0  0  0  0  0  0  0  0
   42.5510   25.1120   34.8430 C   0  0  0  0  0  0  0  0  0  0  0  0
   41.7350   24.1570   35.3300 N   0  0  0  0  0  0  0  0  0  0  0  0
   42.0760   25.9580   33.7480 C   0  0  0  0  0  0  0  0  0  0  0  0
   40.8140   26.4920   33.6990 C   0  0  0  0  0  0  0  0  0  0  0  0
   40.3760   27.2840   32.6700 C   0  0  0  0  0  0  0  0  0  0  0  0
   41.2870   27.5180   31.6730 C   0  0  0  0  0  0  0  0  0  0  0  0
   42.5820   27.0050   31.6650 C   0  0  0  0  0  0  0  0  0  0  0  0
   42.8850   26.2480   32.7240 N   0  0  0  0  0  0  0  0  0  0  0  0
   40.1350   23.5706   38.8227 H   0  0  0  0  0  0  0  0  0  0  0  0
   37.6425   23.9735   38.9266 H   0  0  0  0  0  0  0  0  0  0  0  0
   38.3253   22.5375   33.4516 H   0  0  0  0  0  0  0  0  0  0  0  0
   37.9657   22.1330   31.1969 H   0  0  0  0  0  0  0  0  0  0  0  0
   37.1470   20.5922   30.7702 H   0  0  0  0  0  0  0  0  0  0  0  0
   36.2208   22.1313   30.7702 H   0  0  0  0  0  0  0  0  0  0  0  0
   34.3944   19.8016   34.5766 H   0  0  0  0  0  0  0  0  0  0  0  0
   43.8397   22.9620   37.6682 H   0  0  0  0  0  0  0  0  0  0  0  0
   45.3182   24.7413   36.7373 H   0  0  0  0  0  0  0  0  0  0  0  0
   44.4387   26.1392   34.8736 H   0  0  0  0  0  0  0  0  0  0  0  0
   40.1205   26.2744   34.5246 H   0  0  0  0  0  0  0  0  0  0  0  0
   39.3598   27.7044   32.6457 H   0  0  0  0  0  0  0  0  0  0  0  0
   40.9765   28.1495   30.8275 H   0  0  0  0  0  0  0  0  0  0  0  0
   43.2968   27.2064   30.8535 H   0  0  0  0  0  0  0  0  0  0  0  0
  1  2  2  0
  3  1  1  0
  3  4  2  0
  4  5  1  0
  6  5  2  0
  7  6  1  0
  8  7  2  0
  8  3  1  0
  9 16  1  0
  9  7  1  0
 10  9  1  0
 11 13  1  0
 11 10  2  0
 12 11  1  0
 13 15  1  0
 14 13  2  0
 15 16  1  0
 16 17  2  0
 18 19  2  0
 18  1  1  0
 20 19  1  0
 21 20  2  0
 22 21  1  0
 22 23  2  0
 23 18  1  0
 24 22  1  0
 25 24  2  0
 26 25  1  0
 27 26  2  0
 28 27  1  0
 28 29  2  0
 29 24  1  0
  4 30  1  0
  5 31  1  0
 10 32  1  0
 12 33  1  0
 12 34  1  0
 12 35  1  0
 15 36  1  0
 19 37  1  0
 20 38  1  0
 21 39  1  0
 25 40  1  0
 26 41  1  0
 27 42  1  0
 28 43  1  0
M  ISO  8  30  14  31  14  32  14  33   8  34   8  35   8  36   9  37  14
M  ISO  6  38  14  39  14  40  14  41  14  42  14  43  14
M  END
>  <minimizedAffinity>  (1) 
-6.86944485

>  <minimizedRMSD>  (1) 
0.618832707

$$$$
