
     RDKit          3D

 41 44  0  0  0  0  0  0  0  0999 V2000
   41.3700   22.0880   37.1080 C   0  0  0  0  0  0  0  0  0  0  0  0
   41.9090   21.1070   37.6480 O   0  0  0  0  0  0  0  0  0  0  0  0
   39.9750   22.3610   37.0100 C   0  0  0  0  0  0  0  0  0  0  0  0
   39.4510   23.1200   38.0440 C   0  0  0  0  0  0  0  0  0  0  0  0
   38.0840   23.4340   38.0240 C   0  0  0  0  0  0  0  0  0  0  0  0
   37.3260   22.9910   37.0090 N   0  0  0  0  0  0  0  0  0  0  0  0
   37.8870   22.2460   36.0140 C   0  0  0  0  0  0  0  0  0  0  0  0
   39.1810   21.9440   36.0240 N   0  0  0  0  0  0  0  0  0  0  0  0
   37.1420   21.7330   34.8890 N   0  0  0  0  0  0  0  0  0  0  0  0
   37.6660   22.0120   33.6590 C   0  0  0  0  0  0  0  0  0  0  0  0
   36.9300   21.5070   32.5990 C   0  0  0  0  0  0  0  0  0  0  0  0
   35.7640   20.7800   32.7330 C   0  0  0  0  0  0  0  0  0  0  0  0
   35.0310   20.2760   31.6350 N   0  0  0  0  0  0  0  0  0  0  0  0
   35.3180   20.5510   33.9820 N   0  0  0  0  0  0  0  0  0  0  0  0
   35.9950   21.0180   35.0490 C   0  0  0  0  0  0  0  0  0  0  0  0
   35.6650   20.8600   36.2490 O   0  0  0  0  0  0  0  0  0  0  0  0
   42.2840   23.0970   36.4890 C   0  0  0  0  0  0  0  0  0  0  0  0
   43.6340   23.0170   36.8300 C   0  0  0  0  0  0  0  0  0  0  0  0
   44.5660   23.9170   36.3020 C   0  0  0  0  0  0  0  0  0  0  0  0
   44.0980   24.8740   35.4420 C   0  0  0  0  0  0  0  0  0  0  0  0
   42.7580   24.9080   35.1390 C   0  0  0  0  0  0  0  0  0  0  0  0
   41.8470   24.0440   35.6430 N   0  0  0  0  0  0  0  0  0  0  0  0
   42.3320   25.9540   34.2150 C   0  0  0  0  0  0  0  0  0  0  0  0
   41.0130   26.3740   34.1250 C   0  0  0  0  0  0  0  0  0  0  0  0
   40.6060   27.3510   33.2650 C   0  0  0  0  0  0  0  0  0  0  0  0
   41.6000   27.9020   32.4810 C   0  0  0  0  0  0  0  0  0  0  0  0
   42.9370   27.5190   32.5300 C   0  0  0  0  0  0  0  0  0  0  0  0
   43.1970   26.5600   33.4080 N   0  0  0  0  0  0  0  0  0  0  0  0
   40.0946   23.4696   38.8647 H   0  0  0  0  0  0  0  0  0  0  0  0
   37.6389   24.0358   38.8301 H   0  0  0  0  0  0  0  0  0  0  0  0
   38.5929   22.5882   33.5215 H   0  0  0  0  0  0  0  0  0  0  0  0
   37.3002   21.6985   31.5810 H   0  0  0  0  0  0  0  0  0  0  0  0
   34.1666   19.7395   31.7956 H   0  0  0  0  0  0  0  0  0  0  0  0
   35.3612   20.4452   30.6741 H   0  0  0  0  0  0  0  0  0  0  0  0
   43.9713   22.2340   37.5250 H   0  0  0  0  0  0  0  0  0  0  0  0
   45.6319   23.8581   36.5672 H   0  0  0  0  0  0  0  0  0  0  0  0
   44.7871   25.6077   34.9984 H   0  0  0  0  0  0  0  0  0  0  0  0
   40.2635   25.8988   34.7749 H   0  0  0  0  0  0  0  0  0  0  0  0
   39.5576   27.6777   33.2004 H   0  0  0  0  0  0  0  0  0  0  0  0
   41.3170   28.6943   31.7724 H   0  0  0  0  0  0  0  0  0  0  0  0
   43.7118   27.9730   31.8947 H   0  0  0  0  0  0  0  0  0  0  0  0
  1  2  2  0
  3  1  1  0
  3  4  2  0
  5  4  1  0
  6  5  2  0
  7  8  2  0
  7  6  1  0
  8  3  1  0
  9 15  1  0
  9  7  1  0
 10  9  1  0
 11 12  1  0
 11 10  2  0
 12 14  2  0
 13 12  1  0
 14 15  1  0
 15 16  2  0
 17 18  2  0
 17  1  1  0
 19 18  1  0
 20 19  2  0
 21 20  1  0
 21 22  2  0
 22 17  1  0
 23 21  1  0
 24 23  2  0
 25 24  1  0
 26 27  1  0
 26 25  2  0
 27 28  2  0
 28 23  1  0
  4 29  1  0
  5 30  1  0
 10 31  1  0
 11 32  1  0
 13 33  1  0
 13 34  1  0
 18 35  1  0
 19 36  1  0
 20 37  1  0
 24 38  1  0
 25 39  1  0
 26 40  1  0
 27 41  1  0
M  ISO  8  29  14  30  14  31  14  32  14  35  14  36  14  37  14  38  14
M  ISO  3  39  14  40  14  41  14
M  END
>  <minimizedAffinity>  (1) 
-6.53613186

>  <minimizedRMSD>  (1) 
0.325609773

$$$$
