
     RDKit          3D

 41 45  0  0  0  0  0  0  0  0999 V2000
   41.3610   22.0760   37.1060 C   0  0  0  0  0  0  0  0  0  0  0  0
   41.8910   21.0850   37.6420 O   0  0  0  0  0  0  0  0  0  0  0  0
   39.9510   22.3590   37.0130 C   0  0  0  0  0  0  0  0  0  0  0  0
   39.4580   23.1380   38.0540 C   0  0  0  0  0  0  0  0  0  0  0  0
   38.0990   23.4620   38.0440 C   0  0  0  0  0  0  0  0  0  0  0  0
   37.3160   23.0110   37.0320 N   0  0  0  0  0  0  0  0  0  0  0  0
   37.8560   22.2470   36.0330 C   0  0  0  0  0  0  0  0  0  0  0  0
   39.1590   21.9250   36.0250 N   0  0  0  0  0  0  0  0  0  0  0  0
   37.0830   21.7470   34.9480 N   0  0  0  0  0  0  0  0  0  0  0  0
   36.0380   20.9200   35.2240 C   0  0  0  0  0  0  0  0  0  0  0  0
   35.3910   20.5200   34.0950 N   0  0  0  0  0  0  0  0  0  0  0  0
   36.0500   21.1160   33.0780 C   0  0  0  0  0  0  0  0  0  0  0  0
   35.9480   21.1580   31.6870 C   0  0  0  0  0  0  0  0  0  0  0  0
   36.8270   21.8940   30.9890 N   0  0  0  0  0  0  0  0  0  0  0  0
   37.8210   22.6090   31.5600 C   0  0  0  0  0  0  0  0  0  0  0  0
   37.9660   22.6030   32.9160 N   0  0  0  0  0  0  0  0  0  0  0  0
   37.0790   21.8600   33.6160 C   0  0  0  0  0  0  0  0  0  0  0  0
   42.2760   23.0690   36.4970 C   0  0  0  0  0  0  0  0  0  0  0  0
   43.6180   22.9870   36.8300 C   0  0  0  0  0  0  0  0  0  0  0  0
   44.5620   23.8770   36.3100 C   0  0  0  0  0  0  0  0  0  0  0  0
   44.1060   24.8460   35.4500 C   0  0  0  0  0  0  0  0  0  0  0  0
   42.7510   24.8880   35.1470 C   0  0  0  0  0  0  0  0  0  0  0  0
   41.8480   24.0280   35.6510 N   0  0  0  0  0  0  0  0  0  0  0  0
   42.3200   25.9430   34.2220 C   0  0  0  0  0  0  0  0  0  0  0  0
   41.0140   26.3690   34.1270 C   0  0  0  0  0  0  0  0  0  0  0  0
   40.6090   27.3490   33.2680 C   0  0  0  0  0  0  0  0  0  0  0  0
   41.5970   27.8990   32.4890 C   0  0  0  0  0  0  0  0  0  0  0  0
   42.9490   27.5100   32.5380 C   0  0  0  0  0  0  0  0  0  0  0  0
   43.2060   26.5430   33.4190 N   0  0  0  0  0  0  0  0  0  0  0  0
   40.1181   23.4886   38.8611 H   0  0  0  0  0  0  0  0  0  0  0  0
   37.6683   24.0764   38.8484 H   0  0  0  0  0  0  0  0  0  0  0  0
   35.7501   20.6111   36.2397 H   0  0  0  0  0  0  0  0  0  0  0  0
   35.1574   20.5952   31.1691 H   0  0  0  0  0  0  0  0  0  0  0  0
   38.5107   23.1937   30.9336 H   0  0  0  0  0  0  0  0  0  0  0  0
   43.9500   22.1997   37.5228 H   0  0  0  0  0  0  0  0  0  0  0  0
   45.6263   23.8044   36.5785 H   0  0  0  0  0  0  0  0  0  0  0  0
   44.8012   25.5756   35.0092 H   0  0  0  0  0  0  0  0  0  0  0  0
   40.2609   25.8966   34.7748 H   0  0  0  0  0  0  0  0  0  0  0  0
   39.5609   27.6765   33.2039 H   0  0  0  0  0  0  0  0  0  0  0  0
   41.3143   28.6933   31.7824 H   0  0  0  0  0  0  0  0  0  0  0  0
   43.7254   27.9641   31.9048 H   0  0  0  0  0  0  0  0  0  0  0  0
  1  2  2  0
  3  1  1  0
  3  4  2  0
  5  4  1  0
  6  5  2  0
  7  6  1  0
  8  7  2  0
  8  3  1  0
  9 10  1  0
  9  7  1  0
 11 10  2  0
 12 17  2  0
 12 11  1  0
 13 12  1  0
 14 15  1  0
 14 13  2  0
 15 16  2  0
 16 17  1  0
 17  9  1  0
 18 19  2  0
 18  1  1  0
 20 19  1  0
 21 20  2  0
 22 21  1  0
 22 23  2  0
 23 18  1  0
 24 22  1  0
 25 24  2  0
 26 25  1  0
 27 28  1  0
 27 26  2  0
 28 29  2  0
 29 24  1  0
  4 30  1  0
  5 31  1  0
 10 32  1  0
 13 33  1  0
 15 34  1  0
 19 35  1  0
 20 36  1  0
 21 37  1  0
 25 38  1  0
 26 39  1  0
 27 40  1  0
 28 41  1  0
M  ISO  8  30  14  31  14  32  14  33  14  34  14  35  14  36  14  37  14
M  ISO  4  38  14  39  14  40  14  41  14
M  END
>  <minimizedAffinity>  (1) 
-6.4450016

>  <minimizedRMSD>  (1) 
0.345876157

$$$$
