
     RDKit          3D

 40 43  0  0  0  0  0  0  0  0999 V2000
   42.3000   23.0170   36.5050 C   0  0  0  0  0  0  0  0  0  0  0  0
   43.6500   22.8750   36.8110 C   0  0  0  0  0  0  0  0  0  0  0  0
   44.6200   23.7230   36.2760 C   0  0  0  0  0  0  0  0  0  0  0  0
   44.1870   24.7170   35.4240 C   0  0  0  0  0  0  0  0  0  0  0  0
   42.8270   24.8200   35.1470 C   0  0  0  0  0  0  0  0  0  0  0  0
   41.8990   23.9980   35.6670 N   0  0  0  0  0  0  0  0  0  0  0  0
   42.4350   25.8880   34.2430 C   0  0  0  0  0  0  0  0  0  0  0  0
   41.1350   26.3680   34.1760 C   0  0  0  0  0  0  0  0  0  0  0  0
   40.7560   27.3680   33.3320 C   0  0  0  0  0  0  0  0  0  0  0  0
   41.7520   27.8840   32.5360 C   0  0  0  0  0  0  0  0  0  0  0  0
   43.0870   27.4410   32.5570 C   0  0  0  0  0  0  0  0  0  0  0  0
   43.3260   26.4610   33.4250 N   0  0  0  0  0  0  0  0  0  0  0  0
   41.3590   22.0640   37.1280 C   0  0  0  0  0  0  0  0  0  0  0  0
   41.8650   21.0920   37.7290 O   0  0  0  0  0  0  0  0  0  0  0  0
   39.9680   22.3490   36.9790 C   0  0  0  0  0  0  0  0  0  0  0  0
   39.4240   23.0850   38.0200 C   0  0  0  0  0  0  0  0  0  0  0  0
   38.0590   23.4090   37.9520 C   0  0  0  0  0  0  0  0  0  0  0  0
   37.3330   23.0030   36.8990 N   0  0  0  0  0  0  0  0  0  0  0  0
   37.9110   22.2830   35.8990 C   0  0  0  0  0  0  0  0  0  0  0  0
   39.2070   21.9660   35.9480 N   0  0  0  0  0  0  0  0  0  0  0  0
   37.1500   21.8240   34.7340 C   0  0  0  0  0  0  0  0  0  0  0  0
   36.1250   20.8970   34.8970 C   0  0  0  0  0  0  0  0  0  0  0  0
   35.4280   20.4870   33.7810 C   0  0  0  0  0  0  0  0  0  0  0  0
   35.6650   20.9200   32.5140 C   0  0  0  0  0  0  0  0  0  0  0  0
   36.6770   21.8320   32.3740 C   0  0  0  0  0  0  0  0  0  0  0  0
   37.4150   22.2870   33.4450 C   0  0  0  0  0  0  0  0  0  0  0  0
   43.9613   22.0711   37.4943 H   0  0  0  0  0  0  0  0  0  0  0  0
   45.6852   23.6037   36.5234 H   0  0  0  0  0  0  0  0  0  0  0  0
   44.9045   25.4169   34.9708 H   0  0  0  0  0  0  0  0  0  0  0  0
   40.3757   25.9207   34.8344 H   0  0  0  0  0  0  0  0  0  0  0  0
   39.7211   27.7385   33.2899 H   0  0  0  0  0  0  0  0  0  0  0  0
   41.4882   28.6936   31.8396 H   0  0  0  0  0  0  0  0  0  0  0  0
   43.8675   27.8686   31.9105 H   0  0  0  0  0  0  0  0  0  0  0  0
   40.0416   23.4051   38.8721 H   0  0  0  0  0  0  0  0  0  0  0  0
   37.5879   23.9920   38.7571 H   0  0  0  0  0  0  0  0  0  0  0  0
   35.8770   20.5009   35.8928 H   0  0  0  0  0  0  0  0  0  0  0  0
   34.6198   19.7550   33.9260 H   0  0  0  0  0  0  0  0  0  0  0  0
   35.0801   20.5600   31.6547 H   0  0  0  0  0  0  0  0  0  0  0  0
   36.9093   22.2155   31.3695 H   0  0  0  0  0  0  0  0  0  0  0  0
   38.2186   23.0203   33.2825 H   0  0  0  0  0  0  0  0  0  0  0  0
  1  2  2  0
  1 13  1  0
  3  2  1  0
  4  3  2  0
  5  4  1  0
  5  6  2  0
  6  1  1  0
  7  5  1  0
  8  7  2  0
  9  8  1  0
 10 11  1  0
 10  9  2  0
 11 12  2  0
 12  7  1  0
 13 14  2  0
 15 13  1  0
 15 16  2  0
 17 16  1  0
 18 17  2  0
 19 20  2  0
 19 18  1  0
 20 15  1  0
 21 22  2  0
 21 19  1  0
 23 22  1  0
 24 23  2  0
 25 24  1  0
 25 26  2  0
 26 21  1  0
  2 27  1  0
  3 28  1  0
  4 29  1  0
  8 30  1  0
  9 31  1  0
 10 32  1  0
 11 33  1  0
 16 34  1  0
 17 35  1  0
 22 36  1  0
 23 37  1  0
 24 38  1  0
 25 39  1  0
 26 40  1  0
M  ISO  8  27  14  28  14  29  14  30  14  31  14  32  14  33  14  34  14
M  ISO  6  35  14  36  14  37  14  38  14  39  14  40  14
M  END
>  <minimizedAffinity>  (1) 
-5.96918154

>  <minimizedRMSD>  (1) 
0.282865226

$$$$
