
     RDKit          3D

 34 36  0  0  0  0  0  0  0  0999 V2000
   40.2410   26.5210   34.8640 C   0  0  0  0  0  0  0  0  0  0  0  0
   38.9920   27.0670   34.2520 C   0  0  0  0  0  0  0  0  0  0  0  0
   37.8990   27.3930   35.0590 C   0  0  0  0  0  0  0  0  0  0  0  0
   36.7050   27.9030   34.5800 C   0  0  0  0  0  0  0  0  0  0  0  0
   36.6140   28.0910   33.2300 N   0  0  0  0  0  0  0  0  0  0  0  0
   37.6710   27.7770   32.4390 C   0  0  0  0  0  0  0  0  0  0  0  0
   38.8220   27.2790   32.9570 N   0  0  0  0  0  0  0  0  0  0  0  0
   37.6050   27.9670   30.9900 C   0  0  0  0  0  0  0  0  0  0  0  0
   38.7620   28.1660   30.2640 C   0  0  0  0  0  0  0  0  0  0  0  0
   38.3980   28.3170   28.9130 C   0  0  0  0  0  0  0  0  0  0  0  0
   37.0390   28.1990   28.8970 N   0  0  0  0  0  0  0  0  0  0  0  0
   36.5610   27.9910   30.1220 N   0  0  0  0  0  0  0  0  0  0  0  0
   40.5230   25.1130   34.4100 C   0  0  0  0  0  0  0  0  0  0  0  0
   37.9430   22.4580   34.9240 C   0  0  0  0  0  0  0  0  0  0  0  0
   37.7110   22.5730   36.3070 C   0  0  0  0  0  0  0  0  0  0  0  0
   38.4230   23.5390   37.0490 C   0  0  0  0  0  0  0  0  0  0  0  0
   39.3080   24.3160   36.3660 N   0  0  0  0  0  0  0  0  0  0  0  0
   39.5100   24.1810   35.0280 C   0  0  0  0  0  0  0  0  0  0  0  0
   38.8410   23.2690   34.3120 N   0  0  0  0  0  0  0  0  0  0  0  0
   38.1950   23.6760   38.5040 C   0  0  0  0  0  0  0  0  0  0  0  0
   39.4200   23.3890   39.1090 F   0  0  0  0  0  0  0  0  0  0  0  0
   37.2680   22.7170   38.8950 F   0  0  0  0  0  0  0  0  0  0  0  0
   37.7150   24.8930   38.8900 F   0  0  0  0  0  0  0  0  0  0  0  0
   41.0870   27.1628   34.5770 H   0  0  0  0  0  0  0  0  0  0  0  0
   40.1057   26.5053   35.9555 H   0  0  0  0  0  0  0  0  0  0  0  0
   37.9935   27.2343   36.1434 H   0  0  0  0  0  0  0  0  0  0  0  0
   35.8698   28.1452   35.2536 H   0  0  0  0  0  0  0  0  0  0  0  0
   39.7843   28.2004   30.6685 H   0  0  0  0  0  0  0  0  0  0  0  0
   39.0647   28.4922   28.0558 H   0  0  0  0  0  0  0  0  0  0  0  0
   36.4588   28.2625   28.0484 H   0  0  0  0  0  0  0  0  0  0  0  0
   40.4523   25.0587   33.3136 H   0  0  0  0  0  0  0  0  0  0  0  0
   41.5356   24.8191   34.7235 H   0  0  0  0  0  0  0  0  0  0  0  0
   37.3937   21.7072   34.3369 H   0  0  0  0  0  0  0  0  0  0  0  0
   36.9820   21.9165   36.8046 H   0  0  0  0  0  0  0  0  0  0  0  0
  2  1  1  0
  2  3  2  0
  4  3  1  0
  5  4  2  0
  6  7  2  0
  6  5  1  0
  7  2  1  0
  8  6  1  0
  9  8  1  0
 10  9  2  0
 11 10  1  0
 11 12  1  0
 12  8  2  0
 13  1  1  0
 13 18  1  0
 14 15  2  0
 15 16  1  0
 16 20  1  0
 17 16  2  0
 18 17  1  0
 19 14  1  0
 19 18  2  0
 20 23  1  0
 20 22  1  0
 20 21  1  0
  1 24  1  0
  1 25  1  0
  3 26  1  0
  4 27  1  0
  9 28  1  0
 10 29  1  0
 11 30  1  0
 13 31  1  0
 13 32  1  0
 14 33  1  0
 15 34  1  0
M  ISO  8  24   8  25   8  26  14  27  14  28  14  29  14  30   9  31   8
M  ISO  3  32   8  33  14  34  14
M  END
>  <minimizedAffinity>  (1) 
-5.92952728

>  <minimizedRMSD>  (1) 
1.70800364

$$$$
