
     RDKit          3D

 36 39  0  0  0  0  0  0  0  0999 V2000
   42.3430   23.0510   36.4580 C   0  0  0  0  0  0  0  0  0  0  0  0
   43.6940   22.9520   36.8130 C   0  0  0  0  0  0  0  0  0  0  0  0
   44.6490   23.8240   36.3170 C   0  0  0  0  0  0  0  0  0  0  0  0
   44.2250   24.8070   35.4510 C   0  0  0  0  0  0  0  0  0  0  0  0
   42.8780   24.8710   35.1250 C   0  0  0  0  0  0  0  0  0  0  0  0
   41.9570   24.0170   35.6130 N   0  0  0  0  0  0  0  0  0  0  0  0
   42.4790   25.9280   34.2030 C   0  0  0  0  0  0  0  0  0  0  0  0
   41.1930   26.4150   34.1290 C   0  0  0  0  0  0  0  0  0  0  0  0
   40.8090   27.3980   33.2770 C   0  0  0  0  0  0  0  0  0  0  0  0
   41.8160   27.8990   32.4620 C   0  0  0  0  0  0  0  0  0  0  0  0
   43.1340   27.4510   32.4890 C   0  0  0  0  0  0  0  0  0  0  0  0
   43.3690   26.4830   33.3740 N   0  0  0  0  0  0  0  0  0  0  0  0
   41.4090   22.0610   37.0520 C   0  0  0  0  0  0  0  0  0  0  0  0
   41.9180   21.0980   37.6450 O   0  0  0  0  0  0  0  0  0  0  0  0
   40.0040   22.3310   36.8700 C   0  0  0  0  0  0  0  0  0  0  0  0
   39.4260   23.0270   37.9290 C   0  0  0  0  0  0  0  0  0  0  0  0
   38.0640   23.3400   37.8500 C   0  0  0  0  0  0  0  0  0  0  0  0
   37.3730   22.9570   36.7550 N   0  0  0  0  0  0  0  0  0  0  0  0
   37.9800   22.2830   35.7540 C   0  0  0  0  0  0  0  0  0  0  0  0
   39.2900   21.9750   35.8150 N   0  0  0  0  0  0  0  0  0  0  0  0
   37.2020   21.8720   34.5630 C   0  0  0  0  0  0  0  0  0  0  0  0
   37.4940   22.3910   33.2890 C   0  0  0  0  0  0  0  0  0  0  0  0
   36.2200   21.5240   32.2540 S   0  0  0  0  0  0  0  0  0  0  0  0
   35.5360   20.6170   33.7770 C   0  0  0  0  0  0  0  0  0  0  0  0
   36.1920   20.9920   34.6490 N   0  0  0  0  0  0  0  0  0  0  0  0
   44.0063   22.1576   37.5068 H   0  0  0  0  0  0  0  0  0  0  0  0
   45.7070   23.7346   36.6043 H   0  0  0  0  0  0  0  0  0  0  0  0
   44.9399   25.5271   35.0262 H   0  0  0  0  0  0  0  0  0  0  0  0
   40.4347   25.9826   34.7984 H   0  0  0  0  0  0  0  0  0  0  0  0
   39.7752   27.7713   33.2345 H   0  0  0  0  0  0  0  0  0  0  0  0
   41.5565   28.6982   31.7521 H   0  0  0  0  0  0  0  0  0  0  0  0
   43.9164   27.8621   31.8341 H   0  0  0  0  0  0  0  0  0  0  0  0
   40.0237   23.3227   38.8038 H   0  0  0  0  0  0  0  0  0  0  0  0
   37.5663   23.8873   38.6641 H   0  0  0  0  0  0  0  0  0  0  0  0
   38.2667   23.1137   32.9879 H   0  0  0  0  0  0  0  0  0  0  0  0
   34.7043   19.8983   33.8181 H   0  0  0  0  0  0  0  0  0  0  0  0
  1  2  2  0
  1 13  1  0
  3  2  1  0
  4  3  2  0
  5  4  1  0
  5  6  2  0
  6  1  1  0
  7  5  1  0
  8  7  2  0
  9  8  1  0
 10 11  1  0
 10  9  2  0
 11 12  2  0
 12  7  1  0
 13 14  2  0
 15 13  1  0
 15 16  2  0
 17 16  1  0
 18 17  2  0
 19 20  2  0
 19 18  1  0
 20 15  1  0
 21 25  1  0
 21 19  1  0
 22 21  2  0
 23 22  1  0
 23 24  1  0
 24 25  2  0
  2 26  1  0
  3 27  1  0
  4 28  1  0
  8 29  1  0
  9 30  1  0
 10 31  1  0
 11 32  1  0
 16 33  1  0
 17 34  1  0
 22 35  1  0
 24 36  1  0
M  ISO  8  26  14  27  14  28  14  29  14  30  14  31  14  32  14  33  14
M  ISO  3  34  14  35  14  36  14
M  END
>  <minimizedAffinity>  (1) 
-5.45065165

>  <minimizedRMSD>  (1) 
0.405697376

$$$$
