
     RDKit          3D

 37 40  0  0  0  0  0  0  0  0999 V2000
   42.3070   23.0390   36.5170 C   0  0  0  0  0  0  0  0  0  0  0  0
   43.6610   22.9250   36.8450 C   0  0  0  0  0  0  0  0  0  0  0  0
   44.6120   23.7920   36.3210 C   0  0  0  0  0  0  0  0  0  0  0  0
   44.1800   24.7740   35.4630 C   0  0  0  0  0  0  0  0  0  0  0  0
   42.8210   24.8470   35.1670 C   0  0  0  0  0  0  0  0  0  0  0  0
   41.9120   24.0090   35.6740 N   0  0  0  0  0  0  0  0  0  0  0  0
   42.4150   25.9080   34.2520 C   0  0  0  0  0  0  0  0  0  0  0  0
   41.1210   26.3840   34.1770 C   0  0  0  0  0  0  0  0  0  0  0  0
   40.7310   27.3700   33.3300 C   0  0  0  0  0  0  0  0  0  0  0  0
   41.7320   27.8780   32.5290 C   0  0  0  0  0  0  0  0  0  0  0  0
   43.0540   27.4450   32.5510 C   0  0  0  0  0  0  0  0  0  0  0  0
   43.2990   26.4730   33.4280 N   0  0  0  0  0  0  0  0  0  0  0  0
   41.3810   22.0600   37.1330 C   0  0  0  0  0  0  0  0  0  0  0  0
   41.8950   21.1090   37.7400 O   0  0  0  0  0  0  0  0  0  0  0  0
   39.9760   22.3230   36.9590 C   0  0  0  0  0  0  0  0  0  0  0  0
   39.4060   23.0870   37.9730 C   0  0  0  0  0  0  0  0  0  0  0  0
   38.0340   23.3820   37.8640 C   0  0  0  0  0  0  0  0  0  0  0  0
   37.3330   22.9160   36.7930 N   0  0  0  0  0  0  0  0  0  0  0  0
   37.9550   22.1820   35.8490 C   0  0  0  0  0  0  0  0  0  0  0  0
   39.2530   21.8850   35.9220 N   0  0  0  0  0  0  0  0  0  0  0  0
   37.1190   21.7310   34.7410 C   0  0  0  0  0  0  0  0  0  0  0  0
   37.2150   21.9790   33.3770 C   0  0  0  0  0  0  0  0  0  0  0  0
   36.2190   21.3550   32.7210 N   0  0  0  0  0  0  0  0  0  0  0  0
   35.4890   20.7120   33.6500 C   0  0  0  0  0  0  0  0  0  0  0  0
   36.0400   20.9480   34.8370 N   0  0  0  0  0  0  0  0  0  0  0  0
   43.9813   22.1299   37.5344 H   0  0  0  0  0  0  0  0  0  0  0  0
   45.6756   23.6952   36.5845 H   0  0  0  0  0  0  0  0  0  0  0  0
   44.8913   25.4865   35.0198 H   0  0  0  0  0  0  0  0  0  0  0  0
   40.3645   25.9395   34.8404 H   0  0  0  0  0  0  0  0  0  0  0  0
   39.6947   27.7363   33.2857 H   0  0  0  0  0  0  0  0  0  0  0  0
   41.4672   28.6803   31.8246 H   0  0  0  0  0  0  0  0  0  0  0  0
   43.8315   27.8697   31.8989 H   0  0  0  0  0  0  0  0  0  0  0  0
   40.0030   23.4455   38.8245 H   0  0  0  0  0  0  0  0  0  0  0  0
   37.5325   23.9833   38.6366 H   0  0  0  0  0  0  0  0  0  0  0  0
   37.9923   22.5958   32.9023 H   0  0  0  0  0  0  0  0  0  0  0  0
   34.5949   20.0996   33.4613 H   0  0  0  0  0  0  0  0  0  0  0  0
   35.6782   20.5720   35.7251 H   0  0  0  0  0  0  0  0  0  0  0  0
  1  2  2  0
  1 13  1  0
  3  2  1  0
  4  3  2  0
  5  4  1  0
  5  6  2  0
  6  1  1  0
  7  5  1  0
  8  7  2  0
  9  8  1  0
 10 11  1  0
 10  9  2  0
 11 12  2  0
 12  7  1  0
 13 14  2  0
 15 13  1  0
 15 16  2  0
 17 16  1  0
 18 17  2  0
 19 20  2  0
 19 18  1  0
 20 15  1  0
 21 25  1  0
 21 19  1  0
 22 21  2  0
 23 22  1  0
 23 24  2  0
 24 25  1  0
  2 26  1  0
  3 27  1  0
  4 28  1  0
  8 29  1  0
  9 30  1  0
 10 31  1  0
 11 32  1  0
 16 33  1  0
 17 34  1  0
 22 35  1  0
 24 36  1  0
 25 37  1  0
M  ISO  8  26  14  27  14  28  14  29  14  30  14  31  14  32  14  33  14
M  ISO  4  34  14  35  14  36  14  37   9
M  END
>  <minimizedAffinity>  (1) 
-5.43334246

>  <minimizedRMSD>  (1) 
0.40904057

$$$$
