
     RDKit          3D

 37 40  0  0  0  0  0  0  0  0999 V2000
   42.3560   23.0680   36.4510 C   0  0  0  0  0  0  0  0  0  0  0  0
   43.6980   22.9440   36.8240 C   0  0  0  0  0  0  0  0  0  0  0  0
   44.6790   23.8080   36.3270 C   0  0  0  0  0  0  0  0  0  0  0  0
   44.2630   24.7840   35.4540 C   0  0  0  0  0  0  0  0  0  0  0  0
   42.9240   24.8650   35.1160 C   0  0  0  0  0  0  0  0  0  0  0  0
   41.9940   24.0340   35.5970 N   0  0  0  0  0  0  0  0  0  0  0  0
   42.5560   25.9310   34.1800 C   0  0  0  0  0  0  0  0  0  0  0  0
   41.2810   26.4450   34.1110 C   0  0  0  0  0  0  0  0  0  0  0  0
   40.9260   27.4340   33.2470 C   0  0  0  0  0  0  0  0  0  0  0  0
   41.9330   27.9000   32.4310 C   0  0  0  0  0  0  0  0  0  0  0  0
   43.2340   27.4200   32.4570 C   0  0  0  0  0  0  0  0  0  0  0  0
   43.4570   26.4530   33.3450 N   0  0  0  0  0  0  0  0  0  0  0  0
   41.4000   22.0940   37.0420 C   0  0  0  0  0  0  0  0  0  0  0  0
   41.8860   21.1620   37.7020 O   0  0  0  0  0  0  0  0  0  0  0  0
   40.0120   22.3370   36.7860 C   0  0  0  0  0  0  0  0  0  0  0  0
   39.3670   23.0300   37.8030 C   0  0  0  0  0  0  0  0  0  0  0  0
   38.0030   23.3170   37.6480 C   0  0  0  0  0  0  0  0  0  0  0  0
   37.3810   22.9050   36.5120 N   0  0  0  0  0  0  0  0  0  0  0  0
   38.0620   22.2310   35.5550 C   0  0  0  0  0  0  0  0  0  0  0  0
   39.3610   21.9540   35.6940 N   0  0  0  0  0  0  0  0  0  0  0  0
   37.2760   21.8250   34.3450 C   0  0  0  0  0  0  0  0  0  0  0  0
   38.1660   21.4320   33.1760 C   0  0  0  0  0  0  0  0  0  0  0  0
   37.3040   22.6470   33.1220 C   0  0  0  0  0  0  0  0  0  0  0  0
   43.9890   22.1479   37.5251 H   0  0  0  0  0  0  0  0  0  0  0  0
   45.7344   23.7107   36.6213 H   0  0  0  0  0  0  0  0  0  0  0  0
   44.9874   25.4939   35.0281 H   0  0  0  0  0  0  0  0  0  0  0  0
   40.5137   26.0373   34.7856 H   0  0  0  0  0  0  0  0  0  0  0  0
   39.9026   27.8349   33.2030 H   0  0  0  0  0  0  0  0  0  0  0  0
   41.6910   28.7004   31.7163 H   0  0  0  0  0  0  0  0  0  0  0  0
   44.0216   27.8085   31.7946 H   0  0  0  0  0  0  0  0  0  0  0  0
   39.9115   23.3450   38.7054 H   0  0  0  0  0  0  0  0  0  0  0  0
   37.4500   23.8623   38.4270 H   0  0  0  0  0  0  0  0  0  0  0  0
   36.4437   21.4045   34.9285 H   0  0  0  0  0  0  0  0  0  0  0  0
   39.2587   21.5312   33.2540 H   0  0  0  0  0  0  0  0  0  0  0  0
   38.2973   20.5332   32.5555 H   0  0  0  0  0  0  0  0  0  0  0  0
   37.7662   23.6449   33.1463 H   0  0  0  0  0  0  0  0  0  0  0  0
   36.5354   23.0124   32.4251 H   0  0  0  0  0  0  0  0  0  0  0  0
  1  2  2  0
  1 13  1  0
  3  2  1  0
  4  3  2  0
  5  4  1  0
  5  6  2  0
  6  1  1  0
  7  5  1  0
  8  7  2  0
  9  8  1  0
 10 11  1  0
 10  9  2  0
 11 12  2  0
 12  7  1  0
 13 14  2  0
 15 13  1  0
 15 16  2  0
 17 16  1  0
 18 17  2  0
 19 20  2  0
 19 18  1  0
 20 15  1  0
 21 19  1  0
 22 21  1  0
 23 22  1  0
 23 21  1  0
  2 24  1  0
  3 25  1  0
  4 26  1  0
  8 27  1  0
  9 28  1  0
 10 29  1  0
 11 30  1  0
 16 31  1  0
 17 32  1  0
 21 33  1  0
 22 34  1  0
 22 35  1  0
 23 36  1  0
 23 37  1  0
M  ISO  8  24  14  25  14  26  14  27  14  28  14  29  14  30  14  31  14
M  ISO  6  32  14  33  13  34  13  35  13  36  13  37  13
M  END
>  <minimizedAffinity>  (1) 
-4.84548426

>  <minimizedRMSD>  (1) 
0.412845701

$$$$
