
     RDKit          3D

 31 33  0  0  0  0  0  0  0  0999 V2000
   42.4130   23.0550   36.4580 C   0  0  0  0  0  0  0  0  0  0  0  0
   43.7520   22.9450   36.8230 C   0  0  0  0  0  0  0  0  0  0  0  0
   44.7110   23.8180   36.3170 C   0  0  0  0  0  0  0  0  0  0  0  0
   44.2980   24.7960   35.4450 C   0  0  0  0  0  0  0  0  0  0  0  0
   42.9540   24.8630   35.1150 C   0  0  0  0  0  0  0  0  0  0  0  0
   42.0300   24.0190   35.6050 N   0  0  0  0  0  0  0  0  0  0  0  0
   42.5690   25.9160   34.1920 C   0  0  0  0  0  0  0  0  0  0  0  0
   41.2830   26.4250   34.1410 C   0  0  0  0  0  0  0  0  0  0  0  0
   40.9090   27.4230   33.2780 C   0  0  0  0  0  0  0  0  0  0  0  0
   41.9090   27.8940   32.4500 C   0  0  0  0  0  0  0  0  0  0  0  0
   43.2120   27.4150   32.4650 C   0  0  0  0  0  0  0  0  0  0  0  0
   43.4420   26.4510   33.3470 N   0  0  0  0  0  0  0  0  0  0  0  0
   41.4640   22.0710   37.0570 C   0  0  0  0  0  0  0  0  0  0  0  0
   41.9690   21.1190   37.6730 O   0  0  0  0  0  0  0  0  0  0  0  0
   40.0740   22.3350   36.8530 C   0  0  0  0  0  0  0  0  0  0  0  0
   39.4640   23.0220   37.9100 C   0  0  0  0  0  0  0  0  0  0  0  0
   38.0980   23.3240   37.7960 C   0  0  0  0  0  0  0  0  0  0  0  0
   37.4270   22.9410   36.6770 N   0  0  0  0  0  0  0  0  0  0  0  0
   38.0780   22.2800   35.6950 C   0  0  0  0  0  0  0  0  0  0  0  0
   39.3820   21.9790   35.7770 N   0  0  0  0  0  0  0  0  0  0  0  0
   37.1430   21.7980   34.2400 S   0  0  0  0  0  0  0  0  0  0  0  0
   44.0576   22.1541   37.5238 H   0  0  0  0  0  0  0  0  0  0  0  0
   45.7683   23.7275   36.6068 H   0  0  0  0  0  0  0  0  0  0  0  0
   45.0181   25.5098   35.0184 H   0  0  0  0  0  0  0  0  0  0  0  0
   40.5267   26.0103   34.8236 H   0  0  0  0  0  0  0  0  0  0  0  0
   39.8839   27.8207   33.2474 H   0  0  0  0  0  0  0  0  0  0  0  0
   41.6588   28.6943   31.7380 H   0  0  0  0  0  0  0  0  0  0  0  0
   43.9939   27.8049   31.7967 H   0  0  0  0  0  0  0  0  0  0  0  0
   40.0374   23.3157   38.8016 H   0  0  0  0  0  0  0  0  0  0  0  0
   37.5773   23.8632   38.6010 H   0  0  0  0  0  0  0  0  0  0  0  0
   35.9748   21.1958   34.6267 H   0  0  0  0  0  0  0  0  0  0  0  0
  1  2  2  0
  1 13  1  0
  3  2  1  0
  4  3  2  0
  5  4  1  0
  5  6  2  0
  6  1  1  0
  7  5  1  0
  8  7  2  0
  9  8  1  0
 10 11  1  0
 10  9  2  0
 11 12  2  0
 12  7  1  0
 13 14  2  0
 15 13  1  0
 15 16  2  0
 17 16  1  0
 18 17  2  0
 19 20  2  0
 19 18  1  0
 20 15  1  0
 21 19  1  0
  2 22  1  0
  3 23  1  0
  4 24  1  0
  8 25  1  0
  9 26  1  0
 10 27  1  0
 11 28  1  0
 16 29  1  0
 17 30  1  0
 21 31  1  0
M  ISO  8  22  14  23  14  24  14  25  14  26  14  27  14  28  14  29  14
M  ISO  2  30  14  31  11
M  END
>  <minimizedAffinity>  (1) 
-4.69413996

>  <minimizedRMSD>  (1) 
0.29975304

$$$$
