
     RDKit          3D

 27 29  0  0  0  0  0  0  0  0999 V2000
   38.0390   23.4500   33.6170 C   0  0  0  0  0  0  0  0  0  0  0  0
   37.4300   22.8080   32.5190 C   0  0  0  0  0  0  0  0  0  0  0  0
   36.8990   21.6550   33.0480 N   0  0  0  0  0  0  0  0  0  0  0  0
   37.1880   21.6400   34.3630 C   0  0  0  0  0  0  0  0  0  0  0  0
   37.8790   22.7170   34.7330 N   0  0  0  0  0  0  0  0  0  0  0  0
   38.6550   27.1260   33.5800 C   0  0  0  0  0  0  0  0  0  0  0  0
   38.0070   25.8880   33.6930 C   0  0  0  0  0  0  0  0  0  0  0  0
   38.7250   24.7200   33.4960 C   0  0  0  0  0  0  0  0  0  0  0  0
   40.0760   24.8280   33.1900 N   0  0  0  0  0  0  0  0  0  0  0  0
   40.6500   26.0360   33.0920 C   0  0  0  0  0  0  0  0  0  0  0  0
   39.9610   27.1810   33.2830 N   0  0  0  0  0  0  0  0  0  0  0  0
   38.3060   22.9240   36.0700 C   0  0  0  0  0  0  0  0  0  0  0  0
   39.5700   22.5330   36.5330 C   0  0  0  0  0  0  0  0  0  0  0  0
   39.9980   22.7370   37.8280 C   0  0  0  0  0  0  0  0  0  0  0  0
   39.1520   23.3540   38.7240 C   0  0  0  0  0  0  0  0  0  0  0  0
   37.8940   23.7640   38.3340 C   0  0  0  0  0  0  0  0  0  0  0  0
   37.5010   23.5450   37.0360 C   0  0  0  0  0  0  0  0  0  0  0  0
   37.3890   23.1519   31.4749 H   0  0  0  0  0  0  0  0  0  0  0  0
   36.8891   20.8344   35.0498 H   0  0  0  0  0  0  0  0  0  0  0  0
   38.0892   28.0564   33.7357 H   0  0  0  0  0  0  0  0  0  0  0  0
   36.9352   25.8445   33.9366 H   0  0  0  0  0  0  0  0  0  0  0  0
   41.7207   26.0960   32.8472 H   0  0  0  0  0  0  0  0  0  0  0  0
   40.2547   22.0387   35.8281 H   0  0  0  0  0  0  0  0  0  0  0  0
   41.0009   22.4117   38.1415 H   0  0  0  0  0  0  0  0  0  0  0  0
   39.4829   23.5211   39.7596 H   0  0  0  0  0  0  0  0  0  0  0  0
   37.2184   24.2569   39.0486 H   0  0  0  0  0  0  0  0  0  0  0  0
   36.4957   23.8762   36.7367 H   0  0  0  0  0  0  0  0  0  0  0  0
  1  5  1  0
  2  3  1  0
  2  1  2  0
  3  4  2  0
  4  5  1  0
  5 12  1  0
  6  7  2  0
  8  1  1  0
  8  7  1  0
  9  8  2  0
 10  9  1  0
 10 11  2  0
 11  6  1  0
 12 13  2  0
 12 17  1  0
 13 14  1  0
 14 15  2  0
 16 15  1  0
 17 16  2  0
  2 18  1  0
  4 19  1  0
  6 20  1  0
  7 21  1  0
 10 22  1  0
 13 23  1  0
 14 24  1  0
 15 25  1  0
 16 26  1  0
 17 27  1  0
M  ISO  8  18  14  19  14  20  14  21  14  22  14  23  14  24  14  25  14
M  ISO  2  26  14  27  14
M  END
>  <minimizedAffinity>  (1) 
-4.34448767

>  <minimizedRMSD>  (1) 
4.99658298

$$$$
