
     RDKit          3D

 41 44  0  0  0  0  0  0  0  0999 V2000
   36.7450   24.7550   30.9800 C   0  0  0  0  0  0  0  0  0  0  0  0
   40.3890   24.5760   31.7950 C   0  0  0  0  0  0  0  0  0  0  0  0
   40.3400   24.2750   33.1640 C   0  0  0  0  0  0  0  0  0  0  0  0
   39.0980   24.1400   33.7800 C   0  0  0  0  0  0  0  0  0  0  0  0
   37.9880   24.3050   33.0260 N   0  0  0  0  0  0  0  0  0  0  0  0
   38.0650   24.5980   31.6930 C   0  0  0  0  0  0  0  0  0  0  0  0
   39.2440   24.7300   31.0940 N   0  0  0  0  0  0  0  0  0  0  0  0
   38.8940   23.8380   35.1540 N   0  0  0  0  0  0  0  0  0  0  0  0
   38.1800   24.7750   35.8350 C   0  0  0  0  0  0  0  0  0  0  0  0
   37.9430   24.5440   37.1820 C   0  0  0  0  0  0  0  0  0  0  0  0
   38.4160   23.3950   37.8250 C   0  0  0  0  0  0  0  0  0  0  0  0
   38.2110   23.1710   39.0410 O   0  0  0  0  0  0  0  0  0  0  0  0
   39.1210   22.5040   37.0830 N   0  0  0  0  0  0  0  0  0  0  0  0
   39.3530   22.7180   35.7820 C   0  0  0  0  0  0  0  0  0  0  0  0
   39.9850   21.9820   34.9900 O   0  0  0  0  0  0  0  0  0  0  0  0
   35.8820   25.7140   31.7600 C   0  0  0  0  0  0  0  0  0  0  0  0
   36.0720   27.1300   31.3300 C   0  0  0  0  0  0  0  0  0  0  0  0
   35.4460   28.1540   32.0200 C   0  0  0  0  0  0  0  0  0  0  0  0
   35.5560   29.5020   31.7040 C   0  0  0  0  0  0  0  0  0  0  0  0
   36.3470   29.8070   30.6290 N   0  0  0  0  0  0  0  0  0  0  0  0
   36.9650   28.8120   29.9470 C   0  0  0  0  0  0  0  0  0  0  0  0
   36.8200   27.5040   30.3030 N   0  0  0  0  0  0  0  0  0  0  0  0
   37.8150   29.0970   28.7980 C   0  0  0  0  0  0  0  0  0  0  0  0
   38.8660   28.2540   28.4600 C   0  0  0  0  0  0  0  0  0  0  0  0
   39.4860   28.7830   27.3310 C   0  0  0  0  0  0  0  0  0  0  0  0
   38.8010   29.9210   27.0170 N   0  0  0  0  0  0  0  0  0  0  0  0
   37.8170   30.0990   27.8870 N   0  0  0  0  0  0  0  0  0  0  0  0
   36.9163   25.1510   29.9682 H   0  0  0  0  0  0  0  0  0  0  0  0
   36.2435   23.7790   30.9032 H   0  0  0  0  0  0  0  0  0  0  0  0
   41.3606   24.6868   31.2913 H   0  0  0  0  0  0  0  0  0  0  0  0
   41.2673   24.1476   33.7418 H   0  0  0  0  0  0  0  0  0  0  0  0
   37.8051   25.6810   35.3364 H   0  0  0  0  0  0  0  0  0  0  0  0
   37.3684   25.2832   37.7595 H   0  0  0  0  0  0  0  0  0  0  0  0
   39.4836   21.6489   37.5282 H   0  0  0  0  0  0  0  0  0  0  0  0
   34.8271   25.4390   31.6134 H   0  0  0  0  0  0  0  0  0  0  0  0
   36.1742   25.6431   32.8181 H   0  0  0  0  0  0  0  0  0  0  0  0
   34.8167   27.8806   32.8797 H   0  0  0  0  0  0  0  0  0  0  0  0
   35.0375   30.2797   32.2840 H   0  0  0  0  0  0  0  0  0  0  0  0
   39.1562   27.3342   28.9889 H   0  0  0  0  0  0  0  0  0  0  0  0
   40.3541   28.3670   26.7987 H   0  0  0  0  0  0  0  0  0  0  0  0
   39.0156   30.5450   26.2262 H   0  0  0  0  0  0  0  0  0  0  0  0
  1  6  1  0
  1 16  1  0
  2  3  2  0
  3  4  1  0
  4  8  1  0
  5  4  2  0
  6  5  1  0
  7  6  2  0
  7  2  1  0
  8 14  1  0
  8  9  1  0
  9 10  2  0
 10 11  1  0
 11 12  2  0
 13 11  1  0
 14 13  1  0
 15 14  2  0
 17 16  1  0
 17 18  2  0
 19 18  1  0
 20 19  2  0
 21 22  2  0
 21 20  1  0
 22 17  1  0
 23 21  1  0
 24 23  1  0
 25 24  2  0
 26 25  1  0
 26 27  1  0
 27 23  2  0
  1 28  1  0
  1 29  1  0
  2 30  1  0
  3 31  1  0
  9 32  1  0
 10 33  1  0
 13 34  1  0
 16 35  1  0
 16 36  1  0
 18 37  1  0
 19 38  1  0
 24 39  1  0
 25 40  1  0
 26 41  1  0
M  ISO  8  28   8  29   8  30  14  31  14  32  14  33  14  34   9  35   8
M  ISO  6  36   8  37  14  38  14  39  14  40  14  41   9
M  END
>  <minimizedAffinity>  (1) 
-5.69644547

>  <minimizedRMSD>  (1) 
4.25396347

$$$$
