
     RDKit          3D

 25 27  0  0  0  0  0  0  0  0999 V2000
   39.9430   23.8300   35.2930 C   0  0  0  0  0  0  0  0  0  0  0  0
   40.4430   25.1190   35.0070 C   0  0  0  0  0  0  0  0  0  0  0  0
   39.3590   25.8240   34.5600 N   0  0  0  0  0  0  0  0  0  0  0  0
   38.2920   24.9740   34.5910 C   0  0  0  0  0  0  0  0  0  0  0  0
   38.6100   23.7610   35.0290 N   0  0  0  0  0  0  0  0  0  0  0  0
   41.5260   21.3910   37.6320 C   0  0  0  0  0  0  0  0  0  0  0  0
   40.7180   22.4410   37.1530 C   0  0  0  0  0  0  0  0  0  0  0  0
   40.7710   22.7490   35.8030 C   0  0  0  0  0  0  0  0  0  0  0  0
   41.6150   22.0100   34.9820 N   0  0  0  0  0  0  0  0  0  0  0  0
   42.3700   21.0120   35.4870 C   0  0  0  0  0  0  0  0  0  0  0  0
   42.3340   20.6990   36.7910 N   0  0  0  0  0  0  0  0  0  0  0  0
   37.6720   22.7190   35.1360 C   0  0  0  0  0  0  0  0  0  0  0  0
   37.3490   22.1510   33.9010 C   0  0  0  0  0  0  0  0  0  0  0  0
   36.4400   21.1200   33.8080 C   0  0  0  0  0  0  0  0  0  0  0  0
   35.8610   20.6630   34.9440 N   0  0  0  0  0  0  0  0  0  0  0  0
   36.2030   21.2430   36.1280 C   0  0  0  0  0  0  0  0  0  0  0  0
   37.0820   22.2500   36.2750 N   0  0  0  0  0  0  0  0  0  0  0  0
   41.4768   25.4776   35.1190 H   0  0  0  0  0  0  0  0  0  0  0  0
   37.2755   25.2629   34.2854 H   0  0  0  0  0  0  0  0  0  0  0  0
   41.5012   21.1295   38.7002 H   0  0  0  0  0  0  0  0  0  0  0  0
   40.0613   23.0024   37.8338 H   0  0  0  0  0  0  0  0  0  0  0  0
   43.0291   20.4429   34.8149 H   0  0  0  0  0  0  0  0  0  0  0  0
   37.8285   22.5334   32.9878 H   0  0  0  0  0  0  0  0  0  0  0  0
   36.1899   20.6776   32.8325 H   0  0  0  0  0  0  0  0  0  0  0  0
   35.7210   20.8562   37.0380 H   0  0  0  0  0  0  0  0  0  0  0  0
  1  8  1  0
  2  1  2  0
  3  4  2  0
  3  2  1  0
  4  5  1  0
  5 12  1  0
  5  1  1  0
  7  6  2  0
  8  7  1  0
  9 10  1  0
  9  8  2  0
 10 11  2  0
 11  6  1  0
 12 17  1  0
 13 12  2  0
 14 13  1  0
 14 15  2  0
 15 16  1  0
 16 17  2  0
  2 18  1  0
  4 19  1  0
  6 20  1  0
  7 21  1  0
 10 22  1  0
 13 23  1  0
 14 24  1  0
 16 25  1  0
M  ISO  8  18  14  19  14  20  14  21  14  22  14  23  14  24  14  25  14
M  END
>  <minimizedAffinity>  (1) 
-3.48397064

>  <minimizedRMSD>  (1) 
4.27800179

$$$$
