
     RDKit          3D

 41 45  0  0  0  0  0  0  0  0999 V2000
   39.4510   22.4090   32.3440 C   0  0  0  0  0  0  0  0  0  0  0  0
   40.2470   21.5410   31.5670 C   0  0  0  0  0  0  0  0  0  0  0  0
   41.3290   20.8600   32.1030 C   0  0  0  0  0  0  0  0  0  0  0  0
   41.6620   21.0180   33.4370 C   0  0  0  0  0  0  0  0  0  0  0  0
   40.9130   21.8520   34.2170 C   0  0  0  0  0  0  0  0  0  0  0  0
   39.8290   22.5370   33.6880 C   0  0  0  0  0  0  0  0  0  0  0  0
   39.1630   23.3740   34.6740 C   0  0  0  0  0  0  0  0  0  0  0  0
   38.3200   22.7380   35.5910 C   0  0  0  0  0  0  0  0  0  0  0  0
   37.7820   23.6710   36.4260 N   0  0  0  0  0  0  0  0  0  0  0  0
   38.2430   24.8880   36.0850 C   0  0  0  0  0  0  0  0  0  0  0  0
   38.0970   26.1960   36.5100 C   0  0  0  0  0  0  0  0  0  0  0  0
   38.7780   27.2410   35.8740 C   0  0  0  0  0  0  0  0  0  0  0  0
   39.6250   27.0080   34.7910 C   0  0  0  0  0  0  0  0  0  0  0  0
   39.7820   25.7050   34.3520 C   0  0  0  0  0  0  0  0  0  0  0  0
   39.0920   24.7190   35.0110 C   0  0  0  0  0  0  0  0  0  0  0  0
   37.0470   22.7500   31.6830 C   0  0  0  0  0  0  0  0  0  0  0  0
   36.3070   23.7850   31.0740 C   0  0  0  0  0  0  0  0  0  0  0  0
   37.2450   24.7690   30.8470 N   0  0  0  0  0  0  0  0  0  0  0  0
   38.4330   24.3000   31.3060 C   0  0  0  0  0  0  0  0  0  0  0  0
   38.3480   23.1000   31.8100 N   0  0  0  0  0  0  0  0  0  0  0  0
   35.6340   19.3090   31.4740 C   0  0  0  0  0  0  0  0  0  0  0  0
   36.2270   20.5250   31.1080 C   0  0  0  0  0  0  0  0  0  0  0  0
   36.4290   21.4970   32.0860 C   0  0  0  0  0  0  0  0  0  0  0  0
   36.0350   21.2180   33.3730 N   0  0  0  0  0  0  0  0  0  0  0  0
   35.4680   20.0320   33.6770 C   0  0  0  0  0  0  0  0  0  0  0  0
   35.2690   19.0840   32.7340 N   0  0  0  0  0  0  0  0  0  0  0  0
   40.0016   21.4004   30.5040 H   0  0  0  0  0  0  0  0  0  0  0  0
   41.9255   20.1911   31.4652 H   0  0  0  0  0  0  0  0  0  0  0  0
   42.5200   20.4781   33.8640 H   0  0  0  0  0  0  0  0  0  0  0  0
   41.1725   21.9822   35.2780 H   0  0  0  0  0  0  0  0  0  0  0  0
   38.1226   21.6566   35.6318 H   0  0  0  0  0  0  0  0  0  0  0  0
   37.1264   23.4754   37.1960 H   0  0  0  0  0  0  0  0  0  0  0  0
   37.4359   26.4187   37.3605 H   0  0  0  0  0  0  0  0  0  0  0  0
   38.6417   28.2703   36.2373 H   0  0  0  0  0  0  0  0  0  0  0  0
   40.1540   27.8375   34.2990 H   0  0  0  0  0  0  0  0  0  0  0  0
   40.4388   25.4675   33.5022 H   0  0  0  0  0  0  0  0  0  0  0  0
   35.2332   23.8026   30.8361 H   0  0  0  0  0  0  0  0  0  0  0  0
   39.3708   24.8728   31.2579 H   0  0  0  0  0  0  0  0  0  0  0  0
   35.4686   18.5328   30.7123 H   0  0  0  0  0  0  0  0  0  0  0  0
   36.5280   20.7091   30.0661 H   0  0  0  0  0  0  0  0  0  0  0  0
   35.1611   19.8322   34.7143 H   0  0  0  0  0  0  0  0  0  0  0  0
  1  6  2  0
  2  3  2  0
  2  1  1  0
  3  4  1  0
  4  5  2  0
  6  5  1  0
  6  7  1  0
  7 15  1  0
  7  8  2  0
  8  9  1  0
 10  9  1  0
 10 11  2  0
 12 11  1  0
 13 12  2  0
 14 13  1  0
 14 15  2  0
 15 10  1  0
 16 20  1  0
 16 23  1  0
 17 16  2  0
 18 17  1  0
 18 19  2  0
 19 20  1  0
 20  1  1  0
 21 26  2  0
 22 21  1  0
 22 23  2  0
 23 24  1  0
 24 25  2  0
 26 25  1  0
  2 27  1  0
  3 28  1  0
  4 29  1  0
  5 30  1  0
  8 31  1  0
  9 32  1  0
 11 33  1  0
 12 34  1  0
 13 35  1  0
 14 36  1  0
 17 37  1  0
 19 38  1  0
 21 39  1  0
 22 40  1  0
 25 41  1  0
M  ISO  8  27  14  28  14  29  14  30  14  31  14  32   9  33  14  34  14
M  ISO  7  35  14  36  14  37  14  38  14  39  14  40  14  41  14
M  END
>  <minimizedAffinity>  (1) 
-5.48970175

>  <minimizedRMSD>  (1) 
5.40863132

$$$$
