
     RDKit          3D

 40 44  0  0  0  0  0  0  0  0999 V2000
   39.0760   23.5430   35.5240 C   0  0  0  0  0  0  0  0  0  0  0  0
   38.6300   22.8460   36.6660 C   0  0  0  0  0  0  0  0  0  0  0  0
   38.0070   23.4440   37.7330 C   0  0  0  0  0  0  0  0  0  0  0  0
   37.7970   24.8130   37.7030 C   0  0  0  0  0  0  0  0  0  0  0  0
   38.2100   25.5610   36.6120 C   0  0  0  0  0  0  0  0  0  0  0  0
   38.8310   24.9120   35.5650 C   0  0  0  0  0  0  0  0  0  0  0  0
   39.2270   25.7330   34.4830 N   0  0  0  0  0  0  0  0  0  0  0  0
   40.4020   26.3540   34.1800 C   0  0  0  0  0  0  0  0  0  0  0  0
   40.2400   27.0200   33.0160 N   0  0  0  0  0  0  0  0  0  0  0  0
   38.9860   26.8350   32.5710 C   0  0  0  0  0  0  0  0  0  0  0  0
   38.3960   27.3310   31.4280 C   0  0  0  0  0  0  0  0  0  0  0  0
   37.1070   26.9750   31.2360 N   0  0  0  0  0  0  0  0  0  0  0  0
   36.4780   26.1880   32.1270 C   0  0  0  0  0  0  0  0  0  0  0  0
   37.0510   25.7030   33.2440 N   0  0  0  0  0  0  0  0  0  0  0  0
   38.3370   26.0190   33.4980 C   0  0  0  0  0  0  0  0  0  0  0  0
   39.0890   28.1580   30.5110 N   0  0  0  0  0  0  0  0  0  0  0  0
   39.2100   22.2840   33.3510 C   0  0  0  0  0  0  0  0  0  0  0  0
   40.2590   21.8160   32.5380 C   0  0  0  0  0  0  0  0  0  0  0  0
   41.4020   22.2030   33.1980 N   0  0  0  0  0  0  0  0  0  0  0  0
   41.0200   22.8530   34.3210 C   0  0  0  0  0  0  0  0  0  0  0  0
   39.7150   22.9130   34.4350 N   0  0  0  0  0  0  0  0  0  0  0  0
   35.7080   21.0440   33.5070 C   0  0  0  0  0  0  0  0  0  0  0  0
   37.0580   21.2510   33.8210 C   0  0  0  0  0  0  0  0  0  0  0  0
   37.8210   22.0820   33.0140 C   0  0  0  0  0  0  0  0  0  0  0  0
   37.2060   22.6690   31.9310 N   0  0  0  0  0  0  0  0  0  0  0  0
   35.9050   22.4470   31.6620 C   0  0  0  0  0  0  0  0  0  0  0  0
   35.1640   21.6400   32.4450 N   0  0  0  0  0  0  0  0  0  0  0  0
   38.7909   21.7585   36.7040 H   0  0  0  0  0  0  0  0  0  0  0  0
   37.6802   22.8466   38.5969 H   0  0  0  0  0  0  0  0  0  0  0  0
   37.2998   25.3089   38.5497 H   0  0  0  0  0  0  0  0  0  0  0  0
   38.0463   26.6483   36.5815 H   0  0  0  0  0  0  0  0  0  0  0  0
   41.3233   26.3189   34.7799 H   0  0  0  0  0  0  0  0  0  0  0  0
   35.4284   25.9239   31.9302 H   0  0  0  0  0  0  0  0  0  0  0  0
   38.6100   28.5072   29.6687 H   0  0  0  0  0  0  0  0  0  0  0  0
   40.0721   28.4103   30.6863 H   0  0  0  0  0  0  0  0  0  0  0  0
   40.1822   21.2651   31.5890 H   0  0  0  0  0  0  0  0  0  0  0  0
   41.7214   23.2809   35.0524 H   0  0  0  0  0  0  0  0  0  0  0  0
   35.0937   20.3865   34.1397 H   0  0  0  0  0  0  0  0  0  0  0  0
   37.5072   20.7603   34.6970 H   0  0  0  0  0  0  0  0  0  0  0  0
   35.4412   22.9318   30.7903 H   0  0  0  0  0  0  0  0  0  0  0  0
  1  6  1  0
  1  2  2  0
  2  3  1  0
  4  3  2  0
  5  4  1  0
  6  5  2  0
  7  6  1  0
  8  7  1  0
  9  8  2  0
 10  9  1  0
 10 15  2  0
 11 10  1  0
 12 11  2  0
 12 13  1  0
 13 14  2  0
 14 15  1  0
 15  7  1  0
 16 11  1  0
 17 21  1  0
 18 19  1  0
 18 17  2  0
 19 20  2  0
 20 21  1  0
 21  1  1  0
 22 23  2  0
 24 17  1  0
 24 23  1  0
 25 24  2  0
 26 25  1  0
 26 27  2  0
 27 22  1  0
  2 28  1  0
  3 29  1  0
  4 30  1  0
  5 31  1  0
  8 32  1  0
 13 33  1  0
 16 34  1  0
 16 35  1  0
 18 36  1  0
 20 37  1  0
 22 38  1  0
 23 39  1  0
 26 40  1  0
M  ISO  8  28  14  29  14  30  14  31  14  32  14  33  14  36  14  37  14
M  ISO  3  38  14  39  14  40  14
M  END
>  <minimizedAffinity>  (1) 
-5.26160812

>  <minimizedRMSD>  (1) 
5.35375118

$$$$
