
     RDKit          3D

 37 40  0  0  0  0  0  0  0  0999 V2000
   39.1090   23.5190   35.4670 C   0  0  0  0  0  0  0  0  0  0  0  0
   39.0360   22.7330   36.6360 C   0  0  0  0  0  0  0  0  0  0  0  0
   38.4690   23.1950   37.8090 C   0  0  0  0  0  0  0  0  0  0  0  0
   37.9510   24.4600   37.8690 C   0  0  0  0  0  0  0  0  0  0  0  0
   37.9930   25.2830   36.7530 C   0  0  0  0  0  0  0  0  0  0  0  0
   38.5580   24.8050   35.6040 C   0  0  0  0  0  0  0  0  0  0  0  0
   38.5770   25.6880   34.4850 N   0  0  0  0  0  0  0  0  0  0  0  0
   37.4620   25.7040   33.6950 C   0  0  0  0  0  0  0  0  0  0  0  0
   37.3170   26.4940   32.5810 C   0  0  0  0  0  0  0  0  0  0  0  0
   38.4080   27.3040   32.2940 C   0  0  0  0  0  0  0  0  0  0  0  0
   38.3270   28.0500   31.2820 O   0  0  0  0  0  0  0  0  0  0  0  0
   39.5150   27.3030   33.0600 N   0  0  0  0  0  0  0  0  0  0  0  0
   39.6110   26.5120   34.1410 C   0  0  0  0  0  0  0  0  0  0  0  0
   40.6230   26.4700   34.8940 O   0  0  0  0  0  0  0  0  0  0  0  0
   39.1250   22.4800   33.1790 C   0  0  0  0  0  0  0  0  0  0  0  0
   40.1200   22.1980   32.2280 C   0  0  0  0  0  0  0  0  0  0  0  0
   41.2890   22.6410   32.8070 N   0  0  0  0  0  0  0  0  0  0  0  0
   40.9650   23.1450   34.0190 C   0  0  0  0  0  0  0  0  0  0  0  0
   39.6850   23.0600   34.2650 N   0  0  0  0  0  0  0  0  0  0  0  0
   35.7740   20.9400   33.5860 C   0  0  0  0  0  0  0  0  0  0  0  0
   37.1290   21.2450   33.8000 C   0  0  0  0  0  0  0  0  0  0  0  0
   37.7260   22.1650   32.9590 C   0  0  0  0  0  0  0  0  0  0  0  0
   36.9730   22.7450   31.9490 N   0  0  0  0  0  0  0  0  0  0  0  0
   35.6780   22.4140   31.7920 C   0  0  0  0  0  0  0  0  0  0  0  0
   35.0760   21.5260   32.5930 N   0  0  0  0  0  0  0  0  0  0  0  0
   39.4463   21.7126   36.6133 H   0  0  0  0  0  0  0  0  0  0  0  0
   38.4342   22.5447   38.6955 H   0  0  0  0  0  0  0  0  0  0  0  0
   37.5005   24.8250   38.8038 H   0  0  0  0  0  0  0  0  0  0  0  0
   37.5792   26.3015   36.7922 H   0  0  0  0  0  0  0  0  0  0  0  0
   36.6274   25.0419   33.9689 H   0  0  0  0  0  0  0  0  0  0  0  0
   36.4067   26.4858   31.9635 H   0  0  0  0  0  0  0  0  0  0  0  0
   40.3021   27.9197   32.8127 H   0  0  0  0  0  0  0  0  0  0  0  0
   39.9938   21.7283   31.2413 H   0  0  0  0  0  0  0  0  0  0  0  0
   41.6959   23.5773   34.7182 H   0  0  0  0  0  0  0  0  0  0  0  0
   35.2744   20.2104   34.2402 H   0  0  0  0  0  0  0  0  0  0  0  0
   37.6968   20.7664   34.6116 H   0  0  0  0  0  0  0  0  0  0  0  0
   35.0989   22.8854   30.9843 H   0  0  0  0  0  0  0  0  0  0  0  0
  1  6  1  0
  1  2  2  0
  2  3  1  0
  3  4  2  0
  5  4  1  0
  6  5  2  0
  7  6  1  0
  8  7  1  0
  9  8  2  0
 10  9  1  0
 10 12  1  0
 11 10  2  0
 12 13  1  0
 13  7  1  0
 13 14  2  0
 15 19  1  0
 16 17  1  0
 16 15  2  0
 17 18  2  0
 18 19  1  0
 19  1  1  0
 20 21  2  0
 22 15  1  0
 22 21  1  0
 23 22  2  0
 24 23  1  0
 24 25  2  0
 25 20  1  0
  2 26  1  0
  3 27  1  0
  4 28  1  0
  5 29  1  0
  8 30  1  0
  9 31  1  0
 12 32  1  0
 16 33  1  0
 18 34  1  0
 20 35  1  0
 21 36  1  0
 24 37  1  0
M  ISO  8  26  14  27  14  28  14  29  14  30  14  31  14  32   9  33  14
M  ISO  4  34  14  35  14  36  14  37  14
M  END
>  <minimizedAffinity>  (1) 
-5.22436571

>  <minimizedRMSD>  (1) 
4.3644805

$$$$
