
     RDKit          3D

 34 37  0  0  0  0  0  0  0  0999 V2000
   39.6110   23.9970   33.3030 C   0  0  0  0  0  0  0  0  0  0  0  0
   40.4990   24.4740   32.3210 C   0  0  0  0  0  0  0  0  0  0  0  0
   41.5300   25.0360   33.0520 N   0  0  0  0  0  0  0  0  0  0  0  0
   41.2320   24.8790   34.3600 C   0  0  0  0  0  0  0  0  0  0  0  0
   40.0830   24.2590   34.5410 N   0  0  0  0  0  0  0  0  0  0  0  0
   39.5570   23.9940   35.8210 C   0  0  0  0  0  0  0  0  0  0  0  0
   39.9950   22.8890   36.5950 C   0  0  0  0  0  0  0  0  0  0  0  0
   39.5100   22.6300   37.8570 C   0  0  0  0  0  0  0  0  0  0  0  0
   38.5690   23.4520   38.4100 C   0  0  0  0  0  0  0  0  0  0  0  0
   38.1120   24.5310   37.7050 C   0  0  0  0  0  0  0  0  0  0  0  0
   38.5870   24.8120   36.4280 C   0  0  0  0  0  0  0  0  0  0  0  0
   37.9700   25.9330   35.7290 C   0  0  0  0  0  0  0  0  0  0  0  0
   38.2810   27.2550   35.9610 C   0  0  0  0  0  0  0  0  0  0  0  0
   37.5600   28.1180   35.1700 C   0  0  0  0  0  0  0  0  0  0  0  0
   36.7900   27.2440   34.4420 C   0  0  0  0  0  0  0  0  0  0  0  0
   37.0720   26.0460   34.8060 O   0  0  0  0  0  0  0  0  0  0  0  0
   37.0650   21.2790   33.1130 C   0  0  0  0  0  0  0  0  0  0  0  0
   38.2240   21.9900   33.4120 C   0  0  0  0  0  0  0  0  0  0  0  0
   38.3930   23.3030   32.9680 C   0  0  0  0  0  0  0  0  0  0  0  0
   37.3710   23.8490   32.2320 N   0  0  0  0  0  0  0  0  0  0  0  0
   36.2560   23.1280   31.9610 C   0  0  0  0  0  0  0  0  0  0  0  0
   36.1030   21.8550   32.3950 N   0  0  0  0  0  0  0  0  0  0  0  0
   40.3970   24.4139   31.2274 H   0  0  0  0  0  0  0  0  0  0  0  0
   41.8752   25.2288   35.1810 H   0  0  0  0  0  0  0  0  0  0  0  0
   40.7516   22.2128   36.1703 H   0  0  0  0  0  0  0  0  0  0  0  0
   39.8802   21.7609   38.4205 H   0  0  0  0  0  0  0  0  0  0  0  0
   38.1805   23.2466   39.4184 H   0  0  0  0  0  0  0  0  0  0  0  0
   37.3547   25.1890   38.1561 H   0  0  0  0  0  0  0  0  0  0  0  0
   39.0262   27.5847   36.6999 H   0  0  0  0  0  0  0  0  0  0  0  0
   37.5914   29.2168   35.1306 H   0  0  0  0  0  0  0  0  0  0  0  0
   36.0538   27.5244   33.6743 H   0  0  0  0  0  0  0  0  0  0  0  0
   36.9445   20.2451   33.4687 H   0  0  0  0  0  0  0  0  0  0  0  0
   39.0167   21.5113   34.0056 H   0  0  0  0  0  0  0  0  0  0  0  0
   35.4514   23.5910   31.3708 H   0  0  0  0  0  0  0  0  0  0  0  0
  1  5  1  0
  2  3  1  0
  2  1  2  0
  3  4  2  0
  4  5  1  0
  5  6  1  0
  6 11  1  0
  6  7  2  0
  7  8  1  0
  8  9  2  0
 10  9  1  0
 11 10  2  0
 12 13  2  0
 12 11  1  0
 14 13  1  0
 15 16  1  0
 15 14  2  0
 16 12  1  0
 17 18  2  0
 19  1  1  0
 19 18  1  0
 20 19  2  0
 21 20  1  0
 21 22  2  0
 22 17  1  0
  2 23  1  0
  4 24  1  0
  7 25  1  0
  8 26  1  0
  9 27  1  0
 10 28  1  0
 13 29  1  0
 14 30  1  0
 15 31  1  0
 17 32  1  0
 18 33  1  0
 21 34  1  0
M  ISO  8  23  14  24  14  25  14  26  14  27  14  28  14  29  14  30  14
M  ISO  4  31  14  32  14  33  14  34  14
M  END
>  <minimizedAffinity>  (1) 
-5.22183466

>  <minimizedRMSD>  (1) 
4.15927839

$$$$
