
     RDKit          3D

 40 43  0  0  0  0  0  0  0  0999 V2000
   39.5940   24.0260   33.4470 C   0  0  0  0  0  0  0  0  0  0  0  0
   40.2600   24.7640   32.4550 C   0  0  0  0  0  0  0  0  0  0  0  0
   40.9210   25.7480   33.1610 N   0  0  0  0  0  0  0  0  0  0  0  0
   40.6300   25.5570   34.4680 C   0  0  0  0  0  0  0  0  0  0  0  0
   39.8380   24.5370   34.6760 N   0  0  0  0  0  0  0  0  0  0  0  0
   39.4050   24.1520   35.9580 C   0  0  0  0  0  0  0  0  0  0  0  0
   38.2230   24.6630   36.5340 C   0  0  0  0  0  0  0  0  0  0  0  0
   37.7940   24.2840   37.7950 C   0  0  0  0  0  0  0  0  0  0  0  0
   38.5320   23.3790   38.5320 C   0  0  0  0  0  0  0  0  0  0  0  0
   39.7010   22.8520   38.0070 C   0  0  0  0  0  0  0  0  0  0  0  0
   40.1230   23.2370   36.7420 C   0  0  0  0  0  0  0  0  0  0  0  0
   41.3600   22.5850   36.3170 C   0  0  0  0  0  0  0  0  0  0  0  0
   41.7010   21.2970   36.9840 C   0  0  0  0  0  0  0  0  0  0  0  0
   43.0430   21.0100   36.2910 C   0  0  0  0  0  0  0  0  0  0  0  0
   43.6470   22.3970   36.0270 C   0  0  0  0  0  0  0  0  0  0  0  0
   42.6250   23.3900   36.6120 C   0  0  0  0  0  0  0  0  0  0  0  0
   38.6680   20.5590   32.4420 C   0  0  0  0  0  0  0  0  0  0  0  0
   39.4110   21.6970   32.7510 C   0  0  0  0  0  0  0  0  0  0  0  0
   38.7680   22.8680   33.1310 C   0  0  0  0  0  0  0  0  0  0  0  0
   37.3950   22.8510   33.1870 N   0  0  0  0  0  0  0  0  0  0  0  0
   36.7080   21.7300   32.8800 C   0  0  0  0  0  0  0  0  0  0  0  0
   37.3380   20.5970   32.5120 N   0  0  0  0  0  0  0  0  0  0  0  0
   40.2557   24.5965   31.3678 H   0  0  0  0  0  0  0  0  0  0  0  0
   41.0200   26.1951   35.2747 H   0  0  0  0  0  0  0  0  0  0  0  0
   37.6224   25.3862   35.9628 H   0  0  0  0  0  0  0  0  0  0  0  0
   36.8656   24.7038   38.2095 H   0  0  0  0  0  0  0  0  0  0  0  0
   38.1925   23.0771   39.5338 H   0  0  0  0  0  0  0  0  0  0  0  0
   40.2924   22.1312   38.5906 H   0  0  0  0  0  0  0  0  0  0  0  0
   41.1194   22.4608   35.2508 H   0  0  0  0  0  0  0  0  0  0  0  0
   41.8161   21.4144   38.0716 H   0  0  0  0  0  0  0  0  0  0  0  0
   40.9442   20.5040   36.8927 H   0  0  0  0  0  0  0  0  0  0  0  0
   43.6997   20.4187   36.9461 H   0  0  0  0  0  0  0  0  0  0  0  0
   42.9189   20.4263   35.3670 H   0  0  0  0  0  0  0  0  0  0  0  0
   44.6189   22.4988   36.5321 H   0  0  0  0  0  0  0  0  0  0  0  0
   43.8305   22.5728   34.9567 H   0  0  0  0  0  0  0  0  0  0  0  0
   42.6358   24.3572   36.0881 H   0  0  0  0  0  0  0  0  0  0  0  0
   42.7795   23.6822   37.6612 H   0  0  0  0  0  0  0  0  0  0  0  0
   39.1782   19.6321   32.1412 H   0  0  0  0  0  0  0  0  0  0  0  0
   40.5091   21.6677   32.6938 H   0  0  0  0  0  0  0  0  0  0  0  0
   35.6093   21.7418   32.9314 H   0  0  0  0  0  0  0  0  0  0  0  0
  1  5  1  0
  2  3  1  0
  2  1  2  0
  3  4  2  0
  4  5  1  0
  5  6  1  0
  6  7  2  0
  6 11  1  0
  7  8  1  0
  8  9  2  0
 10  9  1  0
 11 10  2  0
 12 16  1  0
 12 11  1  0
 12 13  1  0
 14 13  1  0
 15 14  1  0
 15 16  1  0
 17 22  2  0
 17 18  1  0
 18 19  2  0
 19 20  1  0
 19  1  1  0
 21 20  2  0
 22 21  1  0
  2 23  1  0
  4 24  1  0
  7 25  1  0
  8 26  1  0
  9 27  1  0
 10 28  1  0
 12 29  1  0
 13 30  1  0
 13 31  1  0
 14 32  1  0
 14 33  1  0
 15 34  1  0
 15 35  1  0
 16 36  1  0
 16 37  1  0
 17 38  1  0
 18 39  1  0
 21 40  1  0
M  ISO  8  23  14  24  14  25  14  26  14  27  14  28  14  29  13  30  13
M  ISO  8  31  13  32  13  33  13  34  13  35  13  36  13  37  13  38  14
M  ISO  2  39  14  40  14
M  END
>  <minimizedAffinity>  (1) 
-5.15796852

>  <minimizedRMSD>  (1) 
4.50000906

$$$$
