
     RDKit          3D

 38 41  0  0  0  0  0  0  0  0999 V2000
   40.8010   24.6920   33.7910 C   0  0  0  0  0  0  0  0  0  0  0  0
   42.0070   24.6910   34.5140 C   0  0  0  0  0  0  0  0  0  0  0  0
   42.7830   25.8190   34.6680 C   0  0  0  0  0  0  0  0  0  0  0  0
   42.3830   27.0130   34.0980 C   0  0  0  0  0  0  0  0  0  0  0  0
   41.2100   27.0710   33.3790 C   0  0  0  0  0  0  0  0  0  0  0  0
   40.4520   25.9230   33.2400 C   0  0  0  0  0  0  0  0  0  0  0  0
   39.2520   26.0520   32.4860 N   0  0  0  0  0  0  0  0  0  0  0  0
   38.1600   26.2530   33.2300 C   0  0  0  0  0  0  0  0  0  0  0  0
   36.9210   26.3970   32.6510 C   0  0  0  0  0  0  0  0  0  0  0  0
   36.8960   26.3190   31.2590 C   0  0  0  0  0  0  0  0  0  0  0  0
   35.6740   26.4550   30.5720 N   0  0  0  0  0  0  0  0  0  0  0  0
   38.0300   26.1120   30.5260 N   0  0  0  0  0  0  0  0  0  0  0  0
   39.2230   25.9760   31.1410 C   0  0  0  0  0  0  0  0  0  0  0  0
   40.3220   25.7840   30.5670 O   0  0  0  0  0  0  0  0  0  0  0  0
   39.1730   22.9020   34.4820 C   0  0  0  0  0  0  0  0  0  0  0  0
   38.5910   21.7770   33.8510 C   0  0  0  0  0  0  0  0  0  0  0  0
   39.1270   21.7910   32.5830 N   0  0  0  0  0  0  0  0  0  0  0  0
   39.9610   22.8600   32.5030 C   0  0  0  0  0  0  0  0  0  0  0  0
   40.0050   23.5400   33.6300 N   0  0  0  0  0  0  0  0  0  0  0  0
   39.3660   23.0370   38.1940 C   0  0  0  0  0  0  0  0  0  0  0  0
   39.6500   22.6940   36.8570 C   0  0  0  0  0  0  0  0  0  0  0  0
   38.8730   23.2600   35.8560 C   0  0  0  0  0  0  0  0  0  0  0  0
   37.8580   24.1330   36.2120 N   0  0  0  0  0  0  0  0  0  0  0  0
   37.6260   24.4290   37.5070 C   0  0  0  0  0  0  0  0  0  0  0  0
   38.3780   23.8810   38.4890 N   0  0  0  0  0  0  0  0  0  0  0  0
   42.3447   23.7513   34.9755 H   0  0  0  0  0  0  0  0  0  0  0  0
   43.7191   25.7695   35.2435 H   0  0  0  0  0  0  0  0  0  0  0  0
   43.0006   27.9153   34.2185 H   0  0  0  0  0  0  0  0  0  0  0  0
   40.8811   28.0161   32.9223 H   0  0  0  0  0  0  0  0  0  0  0  0
   38.2540   26.3041   34.3248 H   0  0  0  0  0  0  0  0  0  0  0  0
   36.0108   26.5626   33.2460 H   0  0  0  0  0  0  0  0  0  0  0  0
   35.6521   26.3979   29.5438 H   0  0  0  0  0  0  0  0  0  0  0  0
   34.8023   26.6116   31.0978 H   0  0  0  0  0  0  0  0  0  0  0  0
   37.8755   21.0574   34.2756 H   0  0  0  0  0  0  0  0  0  0  0  0
   40.5330   23.1267   31.6020 H   0  0  0  0  0  0  0  0  0  0  0  0
   39.9682   22.6020   39.0053 H   0  0  0  0  0  0  0  0  0  0  0  0
   40.4652   21.9968   36.6134 H   0  0  0  0  0  0  0  0  0  0  0  0
   36.8151   25.1248   37.7682 H   0  0  0  0  0  0  0  0  0  0  0  0
  1  2  2  0
  2  3  1  0
  4  3  2  0
  5  4  1  0
  6  5  2  0
  6  1  1  0
  7  8  1  0
  7  6  1  0
  9  8  2  0
 10  9  1  0
 11 10  1  0
 12 13  1  0
 12 10  2  0
 13  7  1  0
 14 13  2  0
 15 22  1  0
 16 15  2  0
 17 16  1  0
 18 17  2  0
 18 19  1  0
 19  1  1  0
 19 15  1  0
 20 25  2  0
 21 20  1  0
 22 23  1  0
 22 21  2  0
 23 24  2  0
 24 25  1  0
  2 26  1  0
  3 27  1  0
  4 28  1  0
  5 29  1  0
  8 30  1  0
  9 31  1  0
 11 32  1  0
 11 33  1  0
 16 34  1  0
 18 35  1  0
 20 36  1  0
 21 37  1  0
 24 38  1  0
M  ISO  8  26  14  27  14  28  14  29  14  30  14  31  14  34  14  35  14
M  ISO  3  36  14  37  14  38  14
M  END
>  <minimizedAffinity>  (1) 
-5.00461006

>  <minimizedRMSD>  (1) 
4.25513172

$$$$
