
     RDKit          3D

 47 51  0  0  0  0  0  0  0  0999 V2000
   40.1730   27.0320   33.9290 C   0  0  0  0  0  0  0  0  0  0  0  0
   42.1660   24.0880   35.0620 C   0  0  0  0  0  0  0  0  0  0  0  0
   41.1730   23.3230   35.6830 C   0  0  0  0  0  0  0  0  0  0  0  0
   39.8510   23.7790   35.7240 C   0  0  0  0  0  0  0  0  0  0  0  0
   39.6260   24.9930   35.1290 N   0  0  0  0  0  0  0  0  0  0  0  0
   40.5980   25.7180   34.5350 C   0  0  0  0  0  0  0  0  0  0  0  0
   41.8410   25.2660   34.5070 N   0  0  0  0  0  0  0  0  0  0  0  0
   38.7230   23.1850   36.3640 C   0  0  0  0  0  0  0  0  0  0  0  0
   38.5550   23.4800   37.7110 C   0  0  0  0  0  0  0  0  0  0  0  0
   37.5320   23.0210   38.5050 C   0  0  0  0  0  0  0  0  0  0  0  0
   36.5820   22.2060   37.9660 C   0  0  0  0  0  0  0  0  0  0  0  0
   36.6800   21.8720   36.6360 C   0  0  0  0  0  0  0  0  0  0  0  0
   35.7200   21.0790   36.0520 C   0  0  0  0  0  0  0  0  0  0  0  0
   35.7650   20.7500   34.6970 C   0  0  0  0  0  0  0  0  0  0  0  0
   36.8220   21.2580   33.9650 C   0  0  0  0  0  0  0  0  0  0  0  0
   37.7520   22.0390   34.5900 C   0  0  0  0  0  0  0  0  0  0  0  0
   37.7230   22.3670   35.9140 C   0  0  0  0  0  0  0  0  0  0  0  0
   38.7140   27.2540   34.1750 C   0  0  0  0  0  0  0  0  0  0  0  0
   37.9310   27.4600   32.9290 C   0  0  0  0  0  0  0  0  0  0  0  0
   36.5520   27.4570   32.9820 C   0  0  0  0  0  0  0  0  0  0  0  0
   35.7230   27.6380   31.8800 C   0  0  0  0  0  0  0  0  0  0  0  0
   36.3370   27.8310   30.6750 N   0  0  0  0  0  0  0  0  0  0  0  0
   37.6990   27.8340   30.6210 C   0  0  0  0  0  0  0  0  0  0  0  0
   38.4650   27.6510   31.7290 N   0  0  0  0  0  0  0  0  0  0  0  0
   38.4010   28.0360   29.3570 C   0  0  0  0  0  0  0  0  0  0  0  0
   39.5620   27.3440   29.0750 C   0  0  0  0  0  0  0  0  0  0  0  0
   39.9940   27.7540   27.7990 C   0  0  0  0  0  0  0  0  0  0  0  0
   39.0790   28.6740   27.3650 N   0  0  0  0  0  0  0  0  0  0  0  0
   38.1380   28.8380   28.2890 N   0  0  0  0  0  0  0  0  0  0  0  0
   40.3621   27.0128   32.8455 H   0  0  0  0  0  0  0  0  0  0  0  0
   40.7480   27.8483   34.3907 H   0  0  0  0  0  0  0  0  0  0  0  0
   43.2046   23.7271   35.0288 H   0  0  0  0  0  0  0  0  0  0  0  0
   41.4330   22.3576   36.1416 H   0  0  0  0  0  0  0  0  0  0  0  0
   39.3030   24.1354   38.1809 H   0  0  0  0  0  0  0  0  0  0  0  0
   37.4803   23.3086   39.5655 H   0  0  0  0  0  0  0  0  0  0  0  0
   35.7546   21.8236   38.5818 H   0  0  0  0  0  0  0  0  0  0  0  0
   34.8951   20.6941   36.6695 H   0  0  0  0  0  0  0  0  0  0  0  0
   34.9953   20.1159   34.2327 H   0  0  0  0  0  0  0  0  0  0  0  0
   36.9130   21.0358   32.8915 H   0  0  0  0  0  0  0  0  0  0  0  0
   38.5821   22.4308   33.9838 H   0  0  0  0  0  0  0  0  0  0  0  0
   38.3109   26.3749   34.6990 H   0  0  0  0  0  0  0  0  0  0  0  0
   38.6212   28.1726   34.7729 H   0  0  0  0  0  0  0  0  0  0  0  0
   36.0765   27.3010   33.9616 H   0  0  0  0  0  0  0  0  0  0  0  0
   34.6271   27.6263   31.9741 H   0  0  0  0  0  0  0  0  0  0  0  0
   40.0575   26.6089   29.7262 H   0  0  0  0  0  0  0  0  0  0  0  0
   40.8870   27.4050   27.2599 H   0  0  0  0  0  0  0  0  0  0  0  0
   39.1141   29.1647   26.4601 H   0  0  0  0  0  0  0  0  0  0  0  0
  1 18  1  0
  1  6  1  0
  2  3  2  0
  3  4  1  0
  4  8  1  0
  5  4  2  0
  6  5  1  0
  7  6  2  0
  7  2  1  0
  8  9  2  0
  9 10  1  0
 11 10  2  0
 12 11  1  0
 13 12  2  0
 14 13  1  0
 15 16  1  0
 15 14  2  0
 16 17  2  0
 17  8  1  0
 17 12  1  0
 19 20  2  0
 19 18  1  0
 21 20  1  0
 22 21  2  0
 23 22  1  0
 23 24  2  0
 24 19  1  0
 25 23  1  0
 26 25  1  0
 27 26  2  0
 28 27  1  0
 28 29  1  0
 29 25  2  0
  1 30  1  0
  1 31  1  0
  2 32  1  0
  3 33  1  0
  9 34  1  0
 10 35  1  0
 11 36  1  0
 13 37  1  0
 14 38  1  0
 15 39  1  0
 16 40  1  0
 18 41  1  0
 18 42  1  0
 20 43  1  0
 21 44  1  0
 26 45  1  0
 27 46  1  0
 28 47  1  0
M  ISO  8  30   8  31   8  32  14  33  14  34  14  35  14  36  14  37  14
M  ISO  8  38  14  39  14  40  14  41   8  42   8  43  14  44  14  45  14
M  ISO  2  46  14  47   9
M  END
>  <minimizedAffinity>  (1) 
-5.62320089

>  <minimizedRMSD>  (1) 
3.73520827

$$$$
