
     RDKit          3D

 34 37  0  0  0  0  0  0  0  0999 V2000
   38.1670   23.9820   32.7150 C   0  0  0  0  0  0  0  0  0  0  0  0
   38.0660   22.5740   32.7010 C   0  0  0  0  0  0  0  0  0  0  0  0
   36.9370   21.9190   32.2540 C   0  0  0  0  0  0  0  0  0  0  0  0
   35.8520   22.6450   31.7970 C   0  0  0  0  0  0  0  0  0  0  0  0
   35.8980   24.0110   31.7900 C   0  0  0  0  0  0  0  0  0  0  0  0
   37.0300   24.6400   32.2390 C   0  0  0  0  0  0  0  0  0  0  0  0
   39.8330   24.8140   34.4040 C   0  0  0  0  0  0  0  0  0  0  0  0
   41.0050   25.5950   34.3450 C   0  0  0  0  0  0  0  0  0  0  0  0
   41.1440   25.8970   33.0150 N   0  0  0  0  0  0  0  0  0  0  0  0
   40.1100   25.3190   32.3580 C   0  0  0  0  0  0  0  0  0  0  0  0
   39.3140   24.6660   33.1690 N   0  0  0  0  0  0  0  0  0  0  0  0
   37.5790   24.2460   37.3120 C   0  0  0  0  0  0  0  0  0  0  0  0
   38.0970   24.7520   36.1140 C   0  0  0  0  0  0  0  0  0  0  0  0
   39.3120   24.2750   35.6520 C   0  0  0  0  0  0  0  0  0  0  0  0
   39.9660   23.3150   36.3940 N   0  0  0  0  0  0  0  0  0  0  0  0
   39.4330   22.8540   37.5430 C   0  0  0  0  0  0  0  0  0  0  0  0
   38.2510   23.3100   38.0030 N   0  0  0  0  0  0  0  0  0  0  0  0
   37.0120   26.0640   32.2040 N   0  0  0  0  0  0  0  0  0  0  0  0
   36.7570   26.5820   33.4080 N   0  0  0  0  0  0  0  0  0  0  0  0
   36.7440   27.9240   33.3540 C   0  0  0  0  0  0  0  0  0  0  0  0
   37.0030   28.2570   32.0520 C   0  0  0  0  0  0  0  0  0  0  0  0
   37.1710   27.0760   31.3320 C   0  0  0  0  0  0  0  0  0  0  0  0
   38.9180   21.9777   33.0594 H   0  0  0  0  0  0  0  0  0  0  0  0
   36.8997   20.8197   32.2610 H   0  0  0  0  0  0  0  0  0  0  0  0
   34.9522   22.1231   31.4392 H   0  0  0  0  0  0  0  0  0  0  0  0
   35.0395   24.5967   31.4295 H   0  0  0  0  0  0  0  0  0  0  0  0
   41.6594   25.8942   35.1771 H   0  0  0  0  0  0  0  0  0  0  0  0
   39.9564   25.3894   31.2711 H   0  0  0  0  0  0  0  0  0  0  0  0
   36.6151   24.6173   37.6903 H   0  0  0  0  0  0  0  0  0  0  0  0
   37.5466   25.5177   35.5477 H   0  0  0  0  0  0  0  0  0  0  0  0
   39.9747   22.0886   38.1181 H   0  0  0  0  0  0  0  0  0  0  0  0
   36.5617   28.6166   34.1889 H   0  0  0  0  0  0  0  0  0  0  0  0
   37.0672   29.2772   31.6456 H   0  0  0  0  0  0  0  0  0  0  0  0
   37.3912   26.9881   30.2578 H   0  0  0  0  0  0  0  0  0  0  0  0
  1 11  1  0
  2  1  2  0
  3  2  1  0
  4  3  2  0
  5  4  1  0
  5  6  2  0
  6  1  1  0
  7 14  1  0
  8  7  2  0
  9  8  1  0
 10  9  2  0
 10 11  1  0
 11  7  1  0
 12 17  2  0
 13 12  1  0
 14 13  2  0
 14 15  1  0
 15 16  2  0
 16 17  1  0
 18  6  1  0
 18 19  1  0
 20 19  2  0
 21 20  1  0
 22 21  2  0
 22 18  1  0
  2 23  1  0
  3 24  1  0
  4 25  1  0
  5 26  1  0
  8 27  1  0
 10 28  1  0
 12 29  1  0
 13 30  1  0
 16 31  1  0
 20 32  1  0
 21 33  1  0
 22 34  1  0
M  ISO  8  23  14  24  14  25  14  26  14  27  14  28  14  29  14  30  14
M  ISO  4  31  14  32  14  33  14  34  14
M  END
>  <minimizedAffinity>  (1) 
-4.81127691

>  <minimizedRMSD>  (1) 
5.0630374

$$$$
