
     RDKit          3D

 42 45  0  0  0  0  0  0  0  0999 V2000
   42.1790   23.5180   35.2440 C   0  0  0  0  0  0  0  0  0  0  0  0
   43.1030   22.8570   36.0790 C   0  0  0  0  0  0  0  0  0  0  0  0
   44.1820   23.5050   36.6580 C   0  0  0  0  0  0  0  0  0  0  0  0
   44.3830   24.8400   36.4260 C   0  0  0  0  0  0  0  0  0  0  0  0
   43.5120   25.5360   35.6190 C   0  0  0  0  0  0  0  0  0  0  0  0
   42.4480   24.8750   35.0540 C   0  0  0  0  0  0  0  0  0  0  0  0
   39.7940   22.7470   35.0490 C   0  0  0  0  0  0  0  0  0  0  0  0
   39.0680   21.9790   34.1040 C   0  0  0  0  0  0  0  0  0  0  0  0
   39.9980   21.6550   33.1390 N   0  0  0  0  0  0  0  0  0  0  0  0
   41.1780   22.2090   33.5230 C   0  0  0  0  0  0  0  0  0  0  0  0
   41.0800   22.8620   34.6540 N   0  0  0  0  0  0  0  0  0  0  0  0
   39.0260   23.3260   38.6440 C   0  0  0  0  0  0  0  0  0  0  0  0
   39.5990   22.8150   37.4730 C   0  0  0  0  0  0  0  0  0  0  0  0
   39.1840   23.2960   36.2410 C   0  0  0  0  0  0  0  0  0  0  0  0
   38.2110   24.2710   36.2260 N   0  0  0  0  0  0  0  0  0  0  0  0
   37.6830   24.7400   37.3710 C   0  0  0  0  0  0  0  0  0  0  0  0
   38.0790   24.2790   38.5670 N   0  0  0  0  0  0  0  0  0  0  0  0
   41.5820   25.6470   34.2300 N   0  0  0  0  0  0  0  0  0  0  0  0
   41.6020   25.7990   32.7790 C   0  0  0  0  0  0  0  0  0  0  0  0
   40.3520   25.1610   32.1890 C   0  0  0  0  0  0  0  0  0  0  0  0
   39.1460   25.8020   32.8060 C   0  0  0  0  0  0  0  0  0  0  0  0
   39.4830   26.8530   33.8400 C   0  0  0  0  0  0  0  0  0  0  0  0
   40.5110   26.4170   34.8340 C   0  0  0  0  0  0  0  0  0  0  0  0
   42.9616   21.7845   36.2786 H   0  0  0  0  0  0  0  0  0  0  0  0
   44.8768   22.9478   37.3036 H   0  0  0  0  0  0  0  0  0  0  0  0
   45.2399   25.3554   36.8843 H   0  0  0  0  0  0  0  0  0  0  0  0
   43.6658   26.6084   35.4286 H   0  0  0  0  0  0  0  0  0  0  0  0
   38.0034   21.7038   34.1339 H   0  0  0  0  0  0  0  0  0  0  0  0
   42.1114   22.1190   32.9480 H   0  0  0  0  0  0  0  0  0  0  0  0
   39.3495   22.9490   39.6254 H   0  0  0  0  0  0  0  0  0  0  0  0
   40.3739   22.0364   37.5304 H   0  0  0  0  0  0  0  0  0  0  0  0
   36.9084   25.5197   37.3255 H   0  0  0  0  0  0  0  0  0  0  0  0
   41.6251   26.8683   32.5218 H   0  0  0  0  0  0  0  0  0  0  0  0
   42.4959   25.3060   32.3691 H   0  0  0  0  0  0  0  0  0  0  0  0
   40.3366   25.3157   31.1000 H   0  0  0  0  0  0  0  0  0  0  0  0
   40.3494   24.0810   32.3976 H   0  0  0  0  0  0  0  0  0  0  0  0
   38.5568   26.2760   32.0072 H   0  0  0  0  0  0  0  0  0  0  0  0
   38.5866   25.0081   33.3225 H   0  0  0  0  0  0  0  0  0  0  0  0
   39.8622   27.7437   33.3177 H   0  0  0  0  0  0  0  0  0  0  0  0
   38.5598   27.0547   34.4030 H   0  0  0  0  0  0  0  0  0  0  0  0
   40.0203   25.7975   35.5991 H   0  0  0  0  0  0  0  0  0  0  0  0
   40.9576   27.3230   35.2695 H   0  0  0  0  0  0  0  0  0  0  0  0
  1  2  2  0
  2  3  1  0
  4  3  2  0
  5  4  1  0
  6  1  1  0
  6  5  2  0
  7 14  1  0
  8  7  2  0
  9 10  2  0
  9  8  1  0
 10 11  1  0
 11  7  1  0
 11  1  1  0
 13 12  2  0
 14 13  1  0
 15 14  2  0
 15 16  1  0
 16 17  2  0
 17 12  1  0
 18 23  1  0
 18  6  1  0
 19 18  1  0
 20 19  1  0
 20 21  1  0
 21 22  1  0
 22 23  1  0
  2 24  1  0
  3 25  1  0
  4 26  1  0
  5 27  1  0
  8 28  1  0
 10 29  1  0
 12 30  1  0
 13 31  1  0
 16 32  1  0
 19 33  1  0
 19 34  1  0
 20 35  1  0
 20 36  1  0
 21 37  1  0
 21 38  1  0
 22 39  1  0
 22 40  1  0
 23 41  1  0
 23 42  1  0
M  ISO  8  24  14  25  14  26  14  27  14  28  14  29  14  30  14  31  14
M  ISO  8  32  14  33  13  34  13  35  13  36  13  37  13  38  13  39  13
M  ISO  3  40  13  41  13  42  13
M  END
>  <minimizedAffinity>  (1) 
-4.78914928

>  <minimizedRMSD>  (1) 
2.56161523

$$$$
