
     RDKit          3D

 34 36  0  0  0  0  0  0  0  0999 V2000
   37.6350   26.2200   33.4560 C   0  0  0  0  0  0  0  0  0  0  0  0
   37.2530   26.3960   34.7950 C   0  0  0  0  0  0  0  0  0  0  0  0
   38.1270   26.8220   35.7670 C   0  0  0  0  0  0  0  0  0  0  0  0
   39.4430   27.0930   35.4290 C   0  0  0  0  0  0  0  0  0  0  0  0
   39.8590   26.9360   34.1390 C   0  0  0  0  0  0  0  0  0  0  0  0
   38.9850   26.5080   33.1520 C   0  0  0  0  0  0  0  0  0  0  0  0
   39.4180   26.4040   31.8140 N   0  0  0  0  0  0  0  0  0  0  0  0
   40.3210   25.4010   31.3680 C   0  0  0  0  0  0  0  0  0  0  0  0
   40.0890   24.1930   31.7230 N   0  0  0  0  0  0  0  0  0  0  0  0
   41.4620   25.6890   30.5270 N   0  0  0  0  0  0  0  0  0  0  0  0
   39.3030   23.8860   32.3040 H   0  0  0  0  0  0  0  0  0  0  0  0
   35.9790   26.4050   31.5620 C   0  0  0  0  0  0  0  0  0  0  0  0
   35.2300   25.4850   30.7990 C   0  0  0  0  0  0  0  0  0  0  0  0
   35.5710   24.2540   31.3040 N   0  0  0  0  0  0  0  0  0  0  0  0
   36.4660   24.4710   32.3020 C   0  0  0  0  0  0  0  0  0  0  0  0
   36.7220   25.7570   32.4700 N   0  0  0  0  0  0  0  0  0  0  0  0
   34.9720   29.9480   32.0260 C   0  0  0  0  0  0  0  0  0  0  0  0
   35.0670   28.5680   32.1950 C   0  0  0  0  0  0  0  0  0  0  0  0
   35.9040   27.8320   31.3590 C   0  0  0  0  0  0  0  0  0  0  0  0
   36.6070   28.5130   30.3940 N   0  0  0  0  0  0  0  0  0  0  0  0
   36.4840   29.8540   30.2650 C   0  0  0  0  0  0  0  0  0  0  0  0
   35.6730   30.5630   31.0760 N   0  0  0  0  0  0  0  0  0  0  0  0
   36.2114   26.1844   35.0784 H   0  0  0  0  0  0  0  0  0  0  0  0
   37.7842   26.9467   36.8048 H   0  0  0  0  0  0  0  0  0  0  0  0
   40.1509   27.4340   36.1989 H   0  0  0  0  0  0  0  0  0  0  0  0
   40.9054   27.1527   33.8780 H   0  0  0  0  0  0  0  0  0  0  0  0
   39.0637   27.0862   31.1284 H   0  0  0  0  0  0  0  0  0  0  0  0
   41.6562   26.6579   30.2366 H   0  0  0  0  0  0  0  0  0  0  0  0
   42.0803   24.9252   30.2185 H   0  0  0  0  0  0  0  0  0  0  0  0
   34.5283   25.7047   29.9809 H   0  0  0  0  0  0  0  0  0  0  0  0
   36.9244   23.6702   32.9007 H   0  0  0  0  0  0  0  0  0  0  0  0
   34.3124   30.5339   32.6830 H   0  0  0  0  0  0  0  0  0  0  0  0
   34.4862   28.0641   32.9816 H   0  0  0  0  0  0  0  0  0  0  0  0
   37.0563   30.3758   29.4839 H   0  0  0  0  0  0  0  0  0  0  0  0
  1  2  2  0
  2  3  1  0
  4  3  2  0
  5  4  1  0
  6  1  1  0
  6  5  2  0
  7  6  1  0
  8  9  2  0
  8  7  1  0
  9 11  1  0
 10  8  1  0
 12 16  1  0
 13 14  1  0
 13 12  2  0
 14 15  2  0
 15 16  1  0
 16  1  1  0
 17 18  2  0
 19 12  1  0
 19 18  1  0
 20 19  2  0
 21 20  1  0
 21 22  2  0
 22 17  1  0
  2 23  1  0
  3 24  1  0
  4 25  1  0
  5 26  1  0
  7 27  1  0
 10 28  1  0
 10 29  1  0
 13 30  1  0
 15 31  1  0
 17 32  1  0
 18 33  1  0
 21 34  1  0
M  ISO  8  23  14  24  14  25  14  26  14  30  14  31  14  32  14  33  14
M  ISO  1  34  14
M  END
>  <minimizedAffinity>  (1) 
-4.78489113

>  <minimizedRMSD>  (1) 
6.09409189

$$$$
