
     RDKit          3D

 34 37  0  0  0  0  0  0  0  0999 V2000
   39.7020   22.7530   35.0980 C   0  0  0  0  0  0  0  0  0  0  0  0
   38.9880   21.9180   34.2280 C   0  0  0  0  0  0  0  0  0  0  0  0
   39.9050   21.5480   33.2820 N   0  0  0  0  0  0  0  0  0  0  0  0
   41.0770   22.1440   33.6000 C   0  0  0  0  0  0  0  0  0  0  0  0
   40.9860   22.8780   34.6900 N   0  0  0  0  0  0  0  0  0  0  0  0
   42.0810   23.6000   35.2250 C   0  0  0  0  0  0  0  0  0  0  0  0
   42.9850   23.0410   36.1280 C   0  0  0  0  0  0  0  0  0  0  0  0
   44.0630   23.7100   36.6470 C   0  0  0  0  0  0  0  0  0  0  0  0
   44.2850   25.0200   36.2620 C   0  0  0  0  0  0  0  0  0  0  0  0
   43.4190   25.6280   35.3660 C   0  0  0  0  0  0  0  0  0  0  0  0
   42.3380   24.9180   34.8640 C   0  0  0  0  0  0  0  0  0  0  0  0
   41.5010   25.7260   33.9600 C   0  0  0  0  0  0  0  0  0  0  0  0
   41.7380   27.2180   33.8100 C   0  0  0  0  0  0  0  0  0  0  0  0
   40.6160   26.7060   34.6290 C   0  0  0  0  0  0  0  0  0  0  0  0
   38.8180   23.3780   38.6660 C   0  0  0  0  0  0  0  0  0  0  0  0
   39.3750   22.8180   37.5130 C   0  0  0  0  0  0  0  0  0  0  0  0
   39.0990   23.3690   36.2690 C   0  0  0  0  0  0  0  0  0  0  0  0
   38.2720   24.4660   36.2240 N   0  0  0  0  0  0  0  0  0  0  0  0
   37.7510   24.9810   37.3570 C   0  0  0  0  0  0  0  0  0  0  0  0
   38.0220   24.4420   38.5680 N   0  0  0  0  0  0  0  0  0  0  0  0
   37.9294   21.6259   34.2912 H   0  0  0  0  0  0  0  0  0  0  0  0
   42.0012   22.0288   33.0147 H   0  0  0  0  0  0  0  0  0  0  0  0
   42.8230   21.9996   36.4430 H   0  0  0  0  0  0  0  0  0  0  0  0
   44.7401   23.2135   37.3577 H   0  0  0  0  0  0  0  0  0  0  0  0
   45.1442   25.5765   36.6646 H   0  0  0  0  0  0  0  0  0  0  0  0
   43.5884   26.6693   35.0544 H   0  0  0  0  0  0  0  0  0  0  0  0
   41.4063   24.9040   33.2352 H   0  0  0  0  0  0  0  0  0  0  0  0
   42.6048   27.6911   34.2947 H   0  0  0  0  0  0  0  0  0  0  0  0
   41.8356   27.9139   32.9637 H   0  0  0  0  0  0  0  0  0  0  0  0
   39.5815   26.8350   34.2780 H   0  0  0  0  0  0  0  0  0  0  0  0
   40.2902   26.8621   35.6680 H   0  0  0  0  0  0  0  0  0  0  0  0
   39.0362   22.9415   39.6518 H   0  0  0  0  0  0  0  0  0  0  0  0
   40.0327   21.9398   37.5913 H   0  0  0  0  0  0  0  0  0  0  0  0
   37.0911   25.8588   37.2947 H   0  0  0  0  0  0  0  0  0  0  0  0
  1 17  1  0
  2  1  2  0
  3  4  2  0
  3  2  1  0
  4  5  1  0
  5  1  1  0
  5  6  1  0
  6  7  2  0
  7  8  1  0
  9  8  2  0
 10  9  1  0
 11  6  1  0
 11 10  2  0
 12 14  1  0
 12 11  1  0
 13 12  1  0
 13 14  1  0
 16 15  2  0
 17 16  1  0
 18 17  2  0
 18 19  1  0
 19 20  2  0
 20 15  1  0
  2 21  1  0
  4 22  1  0
  7 23  1  0
  8 24  1  0
  9 25  1  0
 10 26  1  0
 12 27  1  0
 13 28  1  0
 13 29  1  0
 14 30  1  0
 14 31  1  0
 15 32  1  0
 16 33  1  0
 19 34  1  0
M  ISO  8  21  14  22  14  23  14  24  14  25  14  26  14  27  13  28  13
M  ISO  6  29  13  30  13  31  13  32  14  33  14  34  14
M  END
>  <minimizedAffinity>  (1) 
-4.72319746

>  <minimizedRMSD>  (1) 
2.16875148

$$$$
