
     RDKit          3D

 32 35  0  0  0  0  0  0  0  0999 V2000
   39.3750   24.3420   33.4270 C   0  0  0  0  0  0  0  0  0  0  0  0
   39.9360   25.1850   32.4470 C   0  0  0  0  0  0  0  0  0  0  0  0
   40.5780   26.1660   33.1840 N   0  0  0  0  0  0  0  0  0  0  0  0
   40.3830   25.8810   34.4930 C   0  0  0  0  0  0  0  0  0  0  0  0
   39.6670   24.7990   34.6670 N   0  0  0  0  0  0  0  0  0  0  0  0
   39.3300   24.3140   35.9460 C   0  0  0  0  0  0  0  0  0  0  0  0
   38.1570   24.7400   36.6210 C   0  0  0  0  0  0  0  0  0  0  0  0
   37.7900   24.2580   37.8550 C   0  0  0  0  0  0  0  0  0  0  0  0
   38.5700   23.3280   38.4800 C   0  0  0  0  0  0  0  0  0  0  0  0
   39.7130   22.8790   37.8790 C   0  0  0  0  0  0  0  0  0  0  0  0
   40.1040   23.3570   36.6300 C   0  0  0  0  0  0  0  0  0  0  0  0
   41.3800   22.8520   36.1150 C   0  0  0  0  0  0  0  0  0  0  0  0
   42.6090   23.3700   35.9850 N   0  0  0  0  0  0  0  0  0  0  0  0
   43.4240   22.5150   35.4540 O   0  0  0  0  0  0  0  0  0  0  0  0
   42.7970   21.4170   35.2120 C   0  0  0  0  0  0  0  0  0  0  0  0
   41.5460   21.6200   35.6150 N   0  0  0  0  0  0  0  0  0  0  0  0
   38.6670   20.7950   32.5280 C   0  0  0  0  0  0  0  0  0  0  0  0
   39.3390   21.9700   32.8480 C   0  0  0  0  0  0  0  0  0  0  0  0
   38.6360   23.1540   33.0870 C   0  0  0  0  0  0  0  0  0  0  0  0
   37.2710   23.0990   32.9910 N   0  0  0  0  0  0  0  0  0  0  0  0
   36.6490   21.9370   32.6780 C   0  0  0  0  0  0  0  0  0  0  0  0
   37.3370   20.7930   32.4470 N   0  0  0  0  0  0  0  0  0  0  0  0
   39.8776   25.0868   31.3529 H   0  0  0  0  0  0  0  0  0  0  0  0
   40.7814   26.4902   35.3177 H   0  0  0  0  0  0  0  0  0  0  0  0
   37.5133   25.4885   36.1358 H   0  0  0  0  0  0  0  0  0  0  0  0
   36.8704   24.6206   38.3375 H   0  0  0  0  0  0  0  0  0  0  0  0
   38.2788   22.9399   39.4672 H   0  0  0  0  0  0  0  0  0  0  0  0
   40.3339   22.1283   38.3897 H   0  0  0  0  0  0  0  0  0  0  0  0
   43.2103   20.5010   34.7647 H   0  0  0  0  0  0  0  0  0  0  0  0
   39.2321   19.8697   32.3423 H   0  0  0  0  0  0  0  0  0  0  0  0
   40.4370   21.9673   32.9138 H   0  0  0  0  0  0  0  0  0  0  0  0
   35.5513   21.9218   32.6093 H   0  0  0  0  0  0  0  0  0  0  0  0
  1  5  1  0
  2  3  1  0
  2  1  2  0
  3  4  2  0
  4  5  1  0
  5  6  1  0
  6  7  2  0
  6 11  1  0
  7  8  1  0
  8  9  2  0
 10  9  1  0
 11 10  2  0
 12 11  1  0
 13 12  2  0
 14 13  1  0
 15 14  1  0
 15 16  2  0
 16 12  1  0
 17 18  2  0
 18 19  1  0
 19  1  1  0
 20 19  2  0
 21 20  1  0
 22 17  1  0
 22 21  2  0
  2 23  1  0
  4 24  1  0
  7 25  1  0
  8 26  1  0
  9 27  1  0
 10 28  1  0
 15 29  1  0
 17 30  1  0
 18 31  1  0
 21 32  1  0
M  ISO  8  23  14  24  14  25  14  26  14  27  14  28  14  29  14  30  14
M  ISO  2  31  14  32  14
M  END
>  <minimizedAffinity>  (1) 
-4.52231693

>  <minimizedRMSD>  (1) 
4.36455536

$$$$
