
     RDKit          3D

 40 43  0  0  0  0  0  0  0  0999 V2000
   41.5260   25.0150   34.9720 C   0  0  0  0  0  0  0  0  0  0  0  0
   42.8080   25.4790   35.3130 C   0  0  0  0  0  0  0  0  0  0  0  0
   43.7890   24.6800   35.8480 C   0  0  0  0  0  0  0  0  0  0  0  0
   43.5200   23.3370   36.0720 C   0  0  0  0  0  0  0  0  0  0  0  0
   42.2720   22.8190   35.7550 C   0  0  0  0  0  0  0  0  0  0  0  0
   41.3210   23.6610   35.2200 C   0  0  0  0  0  0  0  0  0  0  0  0
   40.1830   26.1330   33.1580 C   0  0  0  0  0  0  0  0  0  0  0  0
   39.1130   27.0520   33.1260 C   0  0  0  0  0  0  0  0  0  0  0  0
   38.8510   27.3060   34.4500 N   0  0  0  0  0  0  0  0  0  0  0  0
   39.7240   26.5690   35.1930 C   0  0  0  0  0  0  0  0  0  0  0  0
   40.5350   25.8550   34.4310 N   0  0  0  0  0  0  0  0  0  0  0  0
   42.6960   25.4720   30.4920 C   0  0  0  0  0  0  0  0  0  0  0  0
   42.0880   25.9730   31.6450 C   0  0  0  0  0  0  0  0  0  0  0  0
   40.7850   25.5930   31.9490 C   0  0  0  0  0  0  0  0  0  0  0  0
   40.1430   24.7290   31.0910 N   0  0  0  0  0  0  0  0  0  0  0  0
   40.7730   24.2690   29.9850 C   0  0  0  0  0  0  0  0  0  0  0  0
   42.0340   24.6350   29.6860 N   0  0  0  0  0  0  0  0  0  0  0  0
   37.7170   21.7180   33.9860 C   0  0  0  0  0  0  0  0  0  0  0  0
   37.7720   22.3510   35.2030 C   0  0  0  0  0  0  0  0  0  0  0  0
   38.9010   23.0000   35.6680 C   0  0  0  0  0  0  0  0  0  0  0  0
   40.0420   23.0370   34.9050 C   0  0  0  0  0  0  0  0  0  0  0  0
   39.9810   22.3900   33.6650 C   0  0  0  0  0  0  0  0  0  0  0  0
   38.8540   21.7440   33.2060 C   0  0  0  0  0  0  0  0  0  0  0  0
   36.2540   20.9220   33.4760 S   0  0  0  0  0  0  0  0  0  0  0  0
   35.3930   20.5530   34.6600 O   0  0  0  0  0  0  0  0  0  0  0  0
   35.4650   21.8060   32.5380 O   0  0  0  0  0  0  0  0  0  0  0  0
   43.0387   26.5409   35.1420 H   0  0  0  0  0  0  0  0  0  0  0  0
   44.7753   25.0993   36.0957 H   0  0  0  0  0  0  0  0  0  0  0  0
   44.2948   22.6840   36.5002 H   0  0  0  0  0  0  0  0  0  0  0  0
   42.0461   21.7564   35.9275 H   0  0  0  0  0  0  0  0  0  0  0  0
   38.6054   27.4691   32.2437 H   0  0  0  0  0  0  0  0  0  0  0  0
   39.7507   26.5683   36.2927 H   0  0  0  0  0  0  0  0  0  0  0  0
   43.7263   25.7678   30.2451 H   0  0  0  0  0  0  0  0  0  0  0  0
   42.6343   26.6615   32.3064 H   0  0  0  0  0  0  0  0  0  0  0  0
   40.2416   23.5787   29.3134 H   0  0  0  0  0  0  0  0  0  0  0  0
   36.8745   22.3414   35.8390 H   0  0  0  0  0  0  0  0  0  0  0  0
   38.8850   23.4887   36.6533 H   0  0  0  0  0  0  0  0  0  0  0  0
   40.8764   22.3978   33.0261 H   0  0  0  0  0  0  0  0  0  0  0  0
   38.8611   21.2515   32.2224 H   0  0  0  0  0  0  0  0  0  0  0  0
   36.6170   19.7754   32.8199 H   0  0  0  0  0  0  0  0  0  0  0  0
  1  6  1  0
  1  2  2  0
  2  3  1  0
  3  4  2  0
  5  4  1  0
  6  5  2  0
  7 11  1  0
  8  7  2  0
  8  9  1  0
  9 10  2  0
 11  1  1  0
 11 10  1  0
 12 13  2  0
 13 14  1  0
 14  7  1  0
 15 14  2  0
 16 15  1  0
 17 16  2  0
 17 12  1  0
 18 19  2  0
 19 20  1  0
 21  6  1  0
 21 20  2  0
 22 21  1  0
 23 22  2  0
 23 18  1  0
 24 18  1  0
 24 25  2  0
 26 24  2  0
  2 27  1  0
  3 28  1  0
  4 29  1  0
  5 30  1  0
  8 31  1  0
 10 32  1  0
 12 33  1  0
 13 34  1  0
 16 35  1  0
 19 36  1  0
 20 37  1  0
 22 38  1  0
 23 39  1  0
 24 40  1  0
M  ISO  8  27  14  28  14  29  14  30  14  31  14  32  14  33  14  34  14
M  ISO  6  35  14  36  14  37  14  38  14  39  14  40  11
M  END
>  <minimizedAffinity>  (1) 
-4.35219431

>  <minimizedRMSD>  (1) 
6.60485601

$$$$
