
     RDKit          3D

 36 38  0  0  0  0  0  0  0  0999 V2000
   39.6900   23.5090   33.9980 C   0  0  0  0  0  0  0  0  0  0  0  0
   39.0780   23.1390   32.7850 C   0  0  0  0  0  0  0  0  0  0  0  0
   40.1410   22.9870   31.9160 N   0  0  0  0  0  0  0  0  0  0  0  0
   41.2730   23.2570   32.6090 C   0  0  0  0  0  0  0  0  0  0  0  0
   41.0340   23.5710   33.8530 N   0  0  0  0  0  0  0  0  0  0  0  0
   42.0560   23.8910   34.7610 C   0  0  0  0  0  0  0  0  0  0  0  0
   42.7490   25.1200   34.7310 C   0  0  0  0  0  0  0  0  0  0  0  0
   43.7550   25.4550   35.6010 C   0  0  0  0  0  0  0  0  0  0  0  0
   44.1330   24.5440   36.5810 C   0  0  0  0  0  0  0  0  0  0  0  0
   43.4880   23.3180   36.6610 C   0  0  0  0  0  0  0  0  0  0  0  0
   42.4820   23.0270   35.7640 C   0  0  0  0  0  0  0  0  0  0  0  0
   41.8980   21.6840   35.9990 C   0  0  0  0  0  0  0  0  0  0  0  0
   41.2540   21.6840   37.3780 C   0  0  0  0  0  0  0  0  0  0  0  0
   43.0160   20.6390   35.9440 C   0  0  0  0  0  0  0  0  0  0  0  0
   37.4550   22.8940   36.9140 C   0  0  0  0  0  0  0  0  0  0  0  0
   38.2040   22.7030   35.7560 C   0  0  0  0  0  0  0  0  0  0  0  0
   38.9230   23.7590   35.1990 C   0  0  0  0  0  0  0  0  0  0  0  0
   38.8550   24.9750   35.8370 N   0  0  0  0  0  0  0  0  0  0  0  0
   38.1200   25.1270   36.9580 C   0  0  0  0  0  0  0  0  0  0  0  0
   37.4250   24.0950   37.4920 N   0  0  0  0  0  0  0  0  0  0  0  0
   38.0062   23.0031   32.5782 H   0  0  0  0  0  0  0  0  0  0  0  0
   42.2816   23.2162   32.1719 H   0  0  0  0  0  0  0  0  0  0  0  0
   42.4649   25.8543   33.9628 H   0  0  0  0  0  0  0  0  0  0  0  0
   44.2560   26.4313   35.5245 H   0  0  0  0  0  0  0  0  0  0  0  0
   44.9379   24.7934   37.2881 H   0  0  0  0  0  0  0  0  0  0  0  0
   43.7758   22.5869   37.4309 H   0  0  0  0  0  0  0  0  0  0  0  0
   41.1448   21.4442   35.2340 H   0  0  0  0  0  0  0  0  0  0  0  0
   41.0989   20.6469   37.7102 H   0  0  0  0  0  0  0  0  0  0  0  0
   41.9126   22.2025   38.0903 H   0  0  0  0  0  0  0  0  0  0  0  0
   40.2851   22.2025   37.3302 H   0  0  0  0  0  0  0  0  0  0  0  0
   43.3109   20.3633   36.9673 H   0  0  0  0  0  0  0  0  0  0  0  0
   42.6568   19.7454   35.4126 H   0  0  0  0  0  0  0  0  0  0  0  0
   43.8834   21.0576   35.4126 H   0  0  0  0  0  0  0  0  0  0  0  0
   36.8901   22.0571   37.3504 H   0  0  0  0  0  0  0  0  0  0  0  0
   38.2284   21.7127   35.2778 H   0  0  0  0  0  0  0  0  0  0  0  0
   38.0846   26.1108   37.4489 H   0  0  0  0  0  0  0  0  0  0  0  0
  1 17  1  0
  2  1  2  0
  3  4  2  0
  3  2  1  0
  4  5  1  0
  5  1  1  0
  5  6  1  0
  6 11  1  0
  7  6  2  0
  7  8  1  0
  8  9  2  0
  9 10  1  0
 11 12  1  0
 11 10  2  0
 12 13  1  0
 14 12  1  0
 15 20  2  0
 16 15  1  0
 17 16  2  0
 17 18  1  0
 18 19  2  0
 19 20  1  0
  2 21  1  0
  4 22  1  0
  7 23  1  0
  8 24  1  0
  9 25  1  0
 10 26  1  0
 12 27  1  0
 13 28  1  0
 13 29  1  0
 13 30  1  0
 14 31  1  0
 14 32  1  0
 14 33  1  0
 15 34  1  0
 16 35  1  0
 19 36  1  0
M  ISO  8  21  14  22  14  23  14  24  14  25  14  26  14  27   8  28   8
M  ISO  8  29   8  30   8  31   8  32   8  33   8  34  14  35  14  36  14
M  END
>  <minimizedAffinity>  (1) 
-4.21347952

>  <minimizedRMSD>  (1) 
2.84832883

$$$$
