
     RDKit          3D

 38 41  0  0  0  0  0  0  0  0999 V2000
   40.5500   26.6020   34.7620 C   0  0  0  0  0  0  0  0  0  0  0  0
   39.2420   27.0360   34.2110 C   0  0  0  0  0  0  0  0  0  0  0  0
   38.1610   27.2180   35.0630 C   0  0  0  0  0  0  0  0  0  0  0  0
   36.8910   27.6220   34.6550 C   0  0  0  0  0  0  0  0  0  0  0  0
   36.7360   27.8450   33.3200 N   0  0  0  0  0  0  0  0  0  0  0  0
   37.7800   27.6720   32.4790 C   0  0  0  0  0  0  0  0  0  0  0  0
   39.0020   27.2750   32.9320 N   0  0  0  0  0  0  0  0  0  0  0  0
   37.6500   27.9020   31.0420 C   0  0  0  0  0  0  0  0  0  0  0  0
   38.7750   28.1870   30.2660 C   0  0  0  0  0  0  0  0  0  0  0  0
   38.3090   28.3510   28.9480 C   0  0  0  0  0  0  0  0  0  0  0  0
   36.9550   28.1650   28.9760 N   0  0  0  0  0  0  0  0  0  0  0  0
   36.5700   27.9000   30.2140 N   0  0  0  0  0  0  0  0  0  0  0  0
   41.0460   25.3150   34.1320 C   0  0  0  0  0  0  0  0  0  0  0  0
   41.0570   22.7450   36.8440 C   0  0  0  0  0  0  0  0  0  0  0  0
   39.8610   22.0610   36.5880 C   0  0  0  0  0  0  0  0  0  0  0  0
   39.0790   22.4750   35.5150 C   0  0  0  0  0  0  0  0  0  0  0  0
   39.5070   23.5170   34.7700 N   0  0  0  0  0  0  0  0  0  0  0  0
   40.6660   24.1650   35.0320 C   0  0  0  0  0  0  0  0  0  0  0  0
   41.4230   23.7750   36.0590 N   0  0  0  0  0  0  0  0  0  0  0  0
   37.8470   21.8850   35.1320 C   0  0  0  0  0  0  0  0  0  0  0  0
   36.7810   21.4660   35.9370 C   0  0  0  0  0  0  0  0  0  0  0  0
   35.6680   20.9160   35.3740 C   0  0  0  0  0  0  0  0  0  0  0  0
   35.6610   20.7980   33.9300 C   0  0  0  0  0  0  0  0  0  0  0  0
   37.3090   21.5050   33.4320 S   0  0  0  0  0  0  0  0  0  0  0  0
   41.2910   27.3938   34.5774 H   0  0  0  0  0  0  0  0  0  0  0  0
   40.4154   26.4177   35.8381 H   0  0  0  0  0  0  0  0  0  0  0  0
   38.3179   27.0301   36.1354 H   0  0  0  0  0  0  0  0  0  0  0  0
   36.0636   27.7529   35.3680 H   0  0  0  0  0  0  0  0  0  0  0  0
   39.8153   28.2672   30.6142 H   0  0  0  0  0  0  0  0  0  0  0  0
   38.9189   28.5846   28.0629 H   0  0  0  0  0  0  0  0  0  0  0  0
   36.3304   28.2223   28.1590 H   0  0  0  0  0  0  0  0  0  0  0  0
   40.5813   25.1823   33.1438 H   0  0  0  0  0  0  0  0  0  0  0  0
   42.1384   25.3521   34.0081 H   0  0  0  0  0  0  0  0  0  0  0  0
   41.6961   22.4403   37.6859 H   0  0  0  0  0  0  0  0  0  0  0  0
   39.5483   21.2171   37.2204 H   0  0  0  0  0  0  0  0  0  0  0  0
   36.8418   21.5812   37.0293 H   0  0  0  0  0  0  0  0  0  0  0  0
   34.8179   20.5787   35.9853 H   0  0  0  0  0  0  0  0  0  0  0  0
   34.8711   20.3887   33.2831 H   0  0  0  0  0  0  0  0  0  0  0  0
  2  1  1  0
  2  3  2  0
  4  3  1  0
  5  4  2  0
  6  7  2  0
  6  5  1  0
  7  2  1  0
  8  6  1  0
  9  8  1  0
 10 11  1  0
 10  9  2  0
 11 12  1  0
 12  8  2  0
 13  1  1  0
 13 18  1  0
 15 14  2  0
 16 15  1  0
 17 18  1  0
 17 16  2  0
 18 19  2  0
 19 14  1  0
 20 16  1  0
 20 21  2  0
 22 21  1  0
 23 22  2  0
 24 23  1  0
 24 20  1  0
  1 25  1  0
  1 26  1  0
  3 27  1  0
  4 28  1  0
  9 29  1  0
 10 30  1  0
 11 31  1  0
 13 32  1  0
 13 33  1  0
 14 34  1  0
 15 35  1  0
 21 36  1  0
 22 37  1  0
 23 38  1  0
M  ISO  8  25   8  26   8  27  14  28  14  29  14  30  14  31   9  32   8
M  ISO  6  33   8  34  14  35  14  36  14  37  14  38  14
M  END
>  <minimizedAffinity>  (1) 
-5.44952869

>  <minimizedRMSD>  (1) 
3.42648029

$$$$
