
     RDKit          3D

 39 42  0  0  0  0  0  0  0  0999 V2000
   37.6160   23.2530   33.5020 C   0  0  0  0  0  0  0  0  0  0  0  0
   37.0180   22.5470   32.4500 C   0  0  0  0  0  0  0  0  0  0  0  0
   36.7290   21.3220   32.9770 N   0  0  0  0  0  0  0  0  0  0  0  0
   37.1490   21.3390   34.2730 C   0  0  0  0  0  0  0  0  0  0  0  0
   37.6850   22.4910   34.6090 N   0  0  0  0  0  0  0  0  0  0  0  0
   39.8970   26.1650   33.0520 C   0  0  0  0  0  0  0  0  0  0  0  0
   39.4330   24.8550   33.2020 C   0  0  0  0  0  0  0  0  0  0  0  0
   38.0780   24.6240   33.3480 C   0  0  0  0  0  0  0  0  0  0  0  0
   37.2280   25.7200   33.3400 N   0  0  0  0  0  0  0  0  0  0  0  0
   37.7220   26.9700   33.1920 C   0  0  0  0  0  0  0  0  0  0  0  0
   39.0410   27.1780   33.0510 N   0  0  0  0  0  0  0  0  0  0  0  0
   36.8340   28.0790   33.1870 N   0  0  0  0  0  0  0  0  0  0  0  0
   36.1800   28.5350   34.2710 C   0  0  0  0  0  0  0  0  0  0  0  0
   35.3350   29.6410   34.1130 C   0  0  0  0  0  0  0  0  0  0  0  0
   35.1970   30.2310   32.8520 C   0  0  0  0  0  0  0  0  0  0  0  0
   34.3970   31.2010   32.9320 O   0  0  0  0  0  0  0  0  0  0  0  0
   35.8760   29.7340   31.8030 N   0  0  0  0  0  0  0  0  0  0  0  0
   36.6800   28.6700   31.9870 C   0  0  0  0  0  0  0  0  0  0  0  0
   37.2540   28.3120   30.9080 O   0  0  0  0  0  0  0  0  0  0  0  0
   38.1880   22.7460   35.8920 C   0  0  0  0  0  0  0  0  0  0  0  0
   37.3830   23.2390   36.9410 C   0  0  0  0  0  0  0  0  0  0  0  0
   37.8760   23.4910   38.2060 C   0  0  0  0  0  0  0  0  0  0  0  0
   39.1990   23.2670   38.4940 C   0  0  0  0  0  0  0  0  0  0  0  0
   40.0160   22.7910   37.5090 C   0  0  0  0  0  0  0  0  0  0  0  0
   39.5050   22.5470   36.2620 C   0  0  0  0  0  0  0  0  0  0  0  0
   40.4170   22.0510   35.2860 N   0  0  0  0  0  0  0  0  0  0  0  0
   36.8245   22.9014   31.4268 H   0  0  0  0  0  0  0  0  0  0  0  0
   37.0507   20.4856   34.9600 H   0  0  0  0  0  0  0  0  0  0  0  0
   40.9739   26.3560   32.9346 H   0  0  0  0  0  0  0  0  0  0  0  0
   40.1415   24.0135   33.2038 H   0  0  0  0  0  0  0  0  0  0  0  0
   36.3052   28.0535   35.2521 H   0  0  0  0  0  0  0  0  0  0  0  0
   34.7832   30.0433   34.9754 H   0  0  0  0  0  0  0  0  0  0  0  0
   35.7821   30.1619   30.8708 H   0  0  0  0  0  0  0  0  0  0  0  0
   36.3181   23.4306   36.7427 H   0  0  0  0  0  0  0  0  0  0  0  0
   37.2038   23.8738   38.9881 H   0  0  0  0  0  0  0  0  0  0  0  0
   39.5943   23.4674   39.5008 H   0  0  0  0  0  0  0  0  0  0  0  0
   41.0801   22.6043   37.7161 H   0  0  0  0  0  0  0  0  0  0  0  0
   41.4038   21.8940   35.5360 H   0  0  0  0  0  0  0  0  0  0  0  0
   40.0895   21.8495   34.3305 H   0  0  0  0  0  0  0  0  0  0  0  0
  1  5  1  0
  2  3  1  0
  2  1  2  0
  3  4  2  0
  4  5  1  0
  5 20  1  0
  6  7  2  0
  7  8  1  0
  8  1  1  0
  9  8  2  0
 10  9  1  0
 11  6  1  0
 11 10  2  0
 12 10  1  0
 12 13  1  0
 14 13  2  0
 15 16  2  0
 15 14  1  0
 17 18  1  0
 17 15  1  0
 18 12  1  0
 19 18  2  0
 20 25  1  0
 20 21  2  0
 21 22  1  0
 22 23  2  0
 24 23  1  0
 25 24  2  0
 26 25  1  0
  2 27  1  0
  4 28  1  0
  6 29  1  0
  7 30  1  0
 13 31  1  0
 14 32  1  0
 17 33  1  0
 21 34  1  0
 22 35  1  0
 23 36  1  0
 24 37  1  0
 26 38  1  0
 26 39  1  0
M  ISO  8  27  14  28  14  29  14  30  14  31  14  32  14  33   9  34  14
M  ISO  3  35  14  36  14  37  14
M  END
>  <minimizedAffinity>  (1) 
-6.07424784

>  <minimizedRMSD>  (1) 
5.73083305

$$$$
