
     RDKit          3D

 38 41  0  0  0  0  0  0  0  0999 V2000
   38.0560   26.0210   34.0830 C   0  0  0  0  0  0  0  0  0  0  0  0
   37.4470   27.2800   34.2470 C   0  0  0  0  0  0  0  0  0  0  0  0
   37.8430   27.7080   35.4850 N   0  0  0  0  0  0  0  0  0  0  0  0
   38.6410   26.7340   36.0000 C   0  0  0  0  0  0  0  0  0  0  0  0
   38.7790   25.7220   35.1800 N   0  0  0  0  0  0  0  0  0  0  0  0
   39.5620   24.5980   35.5040 C   0  0  0  0  0  0  0  0  0  0  0  0
   40.9660   24.5650   35.3240 C   0  0  0  0  0  0  0  0  0  0  0  0
   41.7290   23.4660   35.6410 C   0  0  0  0  0  0  0  0  0  0  0  0
   41.1450   22.3380   36.1540 C   0  0  0  0  0  0  0  0  0  0  0  0
   39.7910   22.3210   36.3470 C   0  0  0  0  0  0  0  0  0  0  0  0
   39.0440   23.4180   36.0280 C   0  0  0  0  0  0  0  0  0  0  0  0
   37.6420   23.3360   36.2520 N   0  0  0  0  0  0  0  0  0  0  0  0
   38.2640   24.9690   30.5260 C   0  0  0  0  0  0  0  0  0  0  0  0
   38.4070   25.7280   31.6980 C   0  0  0  0  0  0  0  0  0  0  0  0
   37.8920   25.2130   32.8900 C   0  0  0  0  0  0  0  0  0  0  0  0
   37.2720   23.9930   32.8590 N   0  0  0  0  0  0  0  0  0  0  0  0
   37.1610   23.3040   31.7080 C   0  0  0  0  0  0  0  0  0  0  0  0
   37.6530   23.7910   30.5580 N   0  0  0  0  0  0  0  0  0  0  0  0
   36.5000   22.0040   31.6800 C   0  0  0  0  0  0  0  0  0  0  0  0
   36.9990   20.9760   30.8870 C   0  0  0  0  0  0  0  0  0  0  0  0
   36.3340   19.7450   30.8890 C   0  0  0  0  0  0  0  0  0  0  0  0
   35.1980   19.5210   31.6560 C   0  0  0  0  0  0  0  0  0  0  0  0
   34.7590   20.5670   32.4110 C   0  0  0  0  0  0  0  0  0  0  0  0
   35.3990   21.7510   32.4070 N   0  0  0  0  0  0  0  0  0  0  0  0
   36.7944   27.8056   33.5344 H   0  0  0  0  0  0  0  0  0  0  0  0
   39.1156   26.7899   36.9908 H   0  0  0  0  0  0  0  0  0  0  0  0
   41.4666   25.4546   34.9140 H   0  0  0  0  0  0  0  0  0  0  0  0
   42.8170   23.4927   35.4814 H   0  0  0  0  0  0  0  0  0  0  0  0
   41.7559   21.4589   36.4070 H   0  0  0  0  0  0  0  0  0  0  0  0
   39.3047   21.4244   36.7588 H   0  0  0  0  0  0  0  0  0  0  0  0
   37.2319   22.4741   36.6391 H   0  0  0  0  0  0  0  0  0  0  0  0
   37.0367   24.1385   36.0271 H   0  0  0  0  0  0  0  0  0  0  0  0
   38.6609   25.3529   29.5746 H   0  0  0  0  0  0  0  0  0  0  0  0
   38.9124   26.7048   31.6783 H   0  0  0  0  0  0  0  0  0  0  0  0
   37.8977   21.1277   30.2711 H   0  0  0  0  0  0  0  0  0  0  0  0
   36.7233   18.9285   30.2631 H   0  0  0  0  0  0  0  0  0  0  0  0
   34.6801   18.5506   31.6541 H   0  0  0  0  0  0  0  0  0  0  0  0
   33.8631   20.4411   33.0367 H   0  0  0  0  0  0  0  0  0  0  0  0
  1  2  2  0
  1  5  1  0
  2  3  1  0
  3  4  2  0
  5  6  1  0
  5  4  1  0
  6 11  1  0
  7  6  2  0
  7  8  1  0
  8  9  2  0
  9 10  1  0
 11 12  1  0
 11 10  2  0
 13 18  2  0
 13 14  1  0
 14 15  2  0
 15  1  1  0
 16 15  1  0
 17 16  2  0
 18 17  1  0
 19 17  1  0
 19 24  2  0
 20 21  2  0
 20 19  1  0
 21 22  1  0
 22 23  2  0
 24 23  1  0
  2 25  1  0
  4 26  1  0
  7 27  1  0
  8 28  1  0
  9 29  1  0
 10 30  1  0
 12 31  1  0
 12 32  1  0
 13 33  1  0
 14 34  1  0
 20 35  1  0
 21 36  1  0
 22 37  1  0
 23 38  1  0
M  ISO  8  25  14  26  14  27  14  28  14  29  14  30  14  33  14  34  14
M  ISO  4  35  14  36  14  37  14  38  14
M  END
>  <minimizedAffinity>  (1) 
-5.42937183

>  <minimizedRMSD>  (1) 
6.27477551

$$$$
