
     RDKit          3D

 36 39  0  0  0  0  0  0  0  0999 V2000
   37.8200   23.3620   33.6710 C   0  0  0  0  0  0  0  0  0  0  0  0
   37.2820   22.6400   32.5890 C   0  0  0  0  0  0  0  0  0  0  0  0
   36.9480   21.4210   33.1310 N   0  0  0  0  0  0  0  0  0  0  0  0
   37.2850   21.4680   34.4490 C   0  0  0  0  0  0  0  0  0  0  0  0
   37.8070   22.6190   34.7910 N   0  0  0  0  0  0  0  0  0  0  0  0
   38.2330   22.9020   36.1050 C   0  0  0  0  0  0  0  0  0  0  0  0
   37.3990   23.4970   37.0740 C   0  0  0  0  0  0  0  0  0  0  0  0
   37.8170   23.7710   38.3510 C   0  0  0  0  0  0  0  0  0  0  0  0
   39.1070   23.4640   38.7390 C   0  0  0  0  0  0  0  0  0  0  0  0
   39.9580   22.8860   37.8410 C   0  0  0  0  0  0  0  0  0  0  0  0
   39.5130   22.6250   36.5760 C   0  0  0  0  0  0  0  0  0  0  0  0
   40.4580   22.0220   35.6920 N   0  0  0  0  0  0  0  0  0  0  0  0
   40.1330   26.2630   33.4890 C   0  0  0  0  0  0  0  0  0  0  0  0
   39.6640   24.9540   33.6350 C   0  0  0  0  0  0  0  0  0  0  0  0
   38.3030   24.7240   33.5180 C   0  0  0  0  0  0  0  0  0  0  0  0
   37.4800   25.8110   33.2630 N   0  0  0  0  0  0  0  0  0  0  0  0
   37.9790   27.0460   33.1320 C   0  0  0  0  0  0  0  0  0  0  0  0
   39.3040   27.2780   33.2450 N   0  0  0  0  0  0  0  0  0  0  0  0
   36.9530   28.0850   32.8630 C   0  0  0  0  0  0  0  0  0  0  0  0
   36.6520   28.6670   31.6350 C   0  0  0  0  0  0  0  0  0  0  0  0
   35.6700   29.5980   31.6330 C   0  0  0  0  0  0  0  0  0  0  0  0
   35.0360   29.9140   32.8090 C   0  0  0  0  0  0  0  0  0  0  0  0
   35.8640   28.8320   34.0270 S   0  0  0  0  0  0  0  0  0  0  0  0
   37.1573   22.9742   31.5484 H   0  0  0  0  0  0  0  0  0  0  0  0
   37.1355   20.6324   35.1486 H   0  0  0  0  0  0  0  0  0  0  0  0
   36.3668   23.7528   36.7929 H   0  0  0  0  0  0  0  0  0  0  0  0
   37.1241   24.2360   39.0677 H   0  0  0  0  0  0  0  0  0  0  0  0
   39.4456   23.6833   39.7624 H   0  0  0  0  0  0  0  0  0  0  0  0
   40.9883   22.6339   38.1324 H   0  0  0  0  0  0  0  0  0  0  0  0
   41.4100   21.8097   36.0229 H   0  0  0  0  0  0  0  0  0  0  0  0
   40.1878   21.7993   34.7234 H   0  0  0  0  0  0  0  0  0  0  0  0
   41.2116   26.4600   33.5776 H   0  0  0  0  0  0  0  0  0  0  0  0
   40.3594   24.1262   33.8380 H   0  0  0  0  0  0  0  0  0  0  0  0
   37.1843   28.3850   30.7146 H   0  0  0  0  0  0  0  0  0  0  0  0
   35.3819   30.0978   30.6964 H   0  0  0  0  0  0  0  0  0  0  0  0
   34.2275   30.6407   32.9770 H   0  0  0  0  0  0  0  0  0  0  0  0
  1  5  1  0
  2  3  1  0
  2  1  2  0
  3  4  2  0
  4  5  1  0
  5  6  1  0
  6 11  1  0
  6  7  2  0
  7  8  1  0
  8  9  2  0
 10  9  1  0
 11 10  2  0
 12 11  1  0
 13 14  2  0
 15 14  1  0
 15  1  1  0
 16 15  2  0
 17 18  2  0
 17 16  1  0
 18 13  1  0
 19 17  1  0
 19 23  1  0
 20 19  2  0
 21 20  1  0
 21 22  2  0
 22 23  1  0
  2 24  1  0
  4 25  1  0
  7 26  1  0
  8 27  1  0
  9 28  1  0
 10 29  1  0
 12 30  1  0
 12 31  1  0
 13 32  1  0
 14 33  1  0
 20 34  1  0
 21 35  1  0
 22 36  1  0
M  ISO  8  24  14  25  14  26  14  27  14  28  14  29  14  32  14  33  14
M  ISO  3  34  14  35  14  36  14
M  END
>  <minimizedAffinity>  (1) 
-5.36033583

>  <minimizedRMSD>  (1) 
5.22899914

$$$$
