
     RDKit          3D

 37 40  0  0  0  0  0  0  0  0999 V2000
   37.1590   26.3440   32.4080 C   0  0  0  0  0  0  0  0  0  0  0  0
   36.3850   27.5170   32.3750 C   0  0  0  0  0  0  0  0  0  0  0  0
   35.3180   27.2070   31.5710 N   0  0  0  0  0  0  0  0  0  0  0  0
   35.4890   25.9180   31.1730 C   0  0  0  0  0  0  0  0  0  0  0  0
   36.5800   25.3950   31.6640 N   0  0  0  0  0  0  0  0  0  0  0  0
   36.9630   24.0670   31.3870 C   0  0  0  0  0  0  0  0  0  0  0  0
   36.3800   22.9480   32.0180 C   0  0  0  0  0  0  0  0  0  0  0  0
   36.7520   21.6550   31.7510 C   0  0  0  0  0  0  0  0  0  0  0  0
   37.7380   21.3920   30.8250 C   0  0  0  0  0  0  0  0  0  0  0  0
   38.3340   22.4340   30.1860 C   0  0  0  0  0  0  0  0  0  0  0  0
   37.9410   23.7140   30.4760 C   0  0  0  0  0  0  0  0  0  0  0  0
   38.6130   24.7470   29.7650 N   0  0  0  0  0  0  0  0  0  0  0  0
   40.6130   27.0950   33.5780 C   0  0  0  0  0  0  0  0  0  0  0  0
   39.4070   27.1580   32.8750 C   0  0  0  0  0  0  0  0  0  0  0  0
   38.3960   26.2470   33.1600 C   0  0  0  0  0  0  0  0  0  0  0  0
   38.6420   25.3160   34.1380 N   0  0  0  0  0  0  0  0  0  0  0  0
   39.8070   25.2830   34.7940 C   0  0  0  0  0  0  0  0  0  0  0  0
   40.7820   26.1570   34.5230 N   0  0  0  0  0  0  0  0  0  0  0  0
   39.9730   24.2560   35.8170 C   0  0  0  0  0  0  0  0  0  0  0  0
   38.9940   23.9100   36.7240 C   0  0  0  0  0  0  0  0  0  0  0  0
   39.1650   22.9490   37.6720 C   0  0  0  0  0  0  0  0  0  0  0  0
   40.3420   22.3000   37.7370 N   0  0  0  0  0  0  0  0  0  0  0  0
   41.3140   22.6310   36.8500 C   0  0  0  0  0  0  0  0  0  0  0  0
   41.1390   23.5900   35.9060 N   0  0  0  0  0  0  0  0  0  0  0  0
   36.5897   28.4717   32.8816 H   0  0  0  0  0  0  0  0  0  0  0  0
   34.7908   25.3796   30.5152 H   0  0  0  0  0  0  0  0  0  0  0  0
   35.5876   23.1210   32.7611 H   0  0  0  0  0  0  0  0  0  0  0  0
   36.2609   20.8241   32.2786 H   0  0  0  0  0  0  0  0  0  0  0  0
   38.0380   20.3565   30.6063 H   0  0  0  0  0  0  0  0  0  0  0  0
   39.1243   22.2508   29.4431 H   0  0  0  0  0  0  0  0  0  0  0  0
   38.3670   25.7328   29.9342 H   0  0  0  0  0  0  0  0  0  0  0  0
   39.3455   24.5091   29.0811 H   0  0  0  0  0  0  0  0  0  0  0  0
   41.4194   27.8102   33.3581 H   0  0  0  0  0  0  0  0  0  0  0  0
   39.2582   27.9244   32.1001 H   0  0  0  0  0  0  0  0  0  0  0  0
   38.0288   24.4358   36.6791 H   0  0  0  0  0  0  0  0  0  0  0  0
   38.3538   22.7064   38.3742 H   0  0  0  0  0  0  0  0  0  0  0  0
   42.2780   22.1033   36.8978 H   0  0  0  0  0  0  0  0  0  0  0  0
  1 15  1  0
  2  1  2  0
  3  2  1  0
  4  3  2  0
  4  5  1  0
  5  1  1  0
  6  5  1  0
  6  7  2  0
  8  7  1  0
  9  8  2  0
 10 11  2  0
 10  9  1  0
 11  6  1  0
 12 11  1  0
 13 18  2  0
 14 15  2  0
 14 13  1  0
 15 16  1  0
 16 17  2  0
 17 19  1  0
 18 17  1  0
 19 24  1  0
 19 20  2  0
 20 21  1  0
 21 22  2  0
 23 22  1  0
 24 23  2  0
  2 25  1  0
  4 26  1  0
  7 27  1  0
  8 28  1  0
  9 29  1  0
 10 30  1  0
 12 31  1  0
 12 32  1  0
 13 33  1  0
 14 34  1  0
 20 35  1  0
 21 36  1  0
 23 37  1  0
M  ISO  8  25  14  26  14  27  14  28  14  29  14  30  14  33  14  34  14
M  ISO  3  35  14  36  14  37  14
M  END
>  <minimizedAffinity>  (1) 
-5.32786942

>  <minimizedRMSD>  (1) 
5.77917337

$$$$
