
     RDKit          3D

 36 39  0  0  0  0  0  0  0  0999 V2000
   39.0090   23.9410   33.7100 C   0  0  0  0  0  0  0  0  0  0  0  0
   38.5120   23.4940   32.4720 C   0  0  0  0  0  0  0  0  0  0  0  0
   37.5890   22.5370   32.8040 N   0  0  0  0  0  0  0  0  0  0  0  0
   37.5650   22.4470   34.1610 C   0  0  0  0  0  0  0  0  0  0  0  0
   38.4110   23.2830   34.7220 N   0  0  0  0  0  0  0  0  0  0  0  0
   40.6620   27.2730   33.4570 C   0  0  0  0  0  0  0  0  0  0  0  0
   39.7010   26.2480   33.3760 C   0  0  0  0  0  0  0  0  0  0  0  0
   40.0310   24.9790   33.8090 C   0  0  0  0  0  0  0  0  0  0  0  0
   41.2940   24.7780   34.3020 N   0  0  0  0  0  0  0  0  0  0  0  0
   42.1850   25.7720   34.3660 C   0  0  0  0  0  0  0  0  0  0  0  0
   41.8760   27.0050   33.9490 N   0  0  0  0  0  0  0  0  0  0  0  0
   43.4350   25.3550   34.9080 N   0  0  0  0  0  0  0  0  0  0  0  0
   44.7460   25.4700   34.6340 C   0  0  0  0  0  0  0  0  0  0  0  0
   45.4270   24.7770   35.6410 C   0  0  0  0  0  0  0  0  0  0  0  0
   44.5120   24.2610   36.4980 N   0  0  0  0  0  0  0  0  0  0  0  0
   43.2980   24.6200   36.0420 C   0  0  0  0  0  0  0  0  0  0  0  0
   38.5700   23.3780   36.1200 C   0  0  0  0  0  0  0  0  0  0  0  0
   37.6750   24.0930   36.9410 C   0  0  0  0  0  0  0  0  0  0  0  0
   37.8200   24.1920   38.3060 C   0  0  0  0  0  0  0  0  0  0  0  0
   38.8810   23.5740   38.9330 C   0  0  0  0  0  0  0  0  0  0  0  0
   39.7730   22.8710   38.1830 C   0  0  0  0  0  0  0  0  0  0  0  0
   39.6080   22.7850   36.8220 C   0  0  0  0  0  0  0  0  0  0  0  0
   40.5760   22.0360   36.1030 N   0  0  0  0  0  0  0  0  0  0  0  0
   38.7990   23.8351   31.4664 H   0  0  0  0  0  0  0  0  0  0  0  0
   36.9162   21.7580   34.7216 H   0  0  0  0  0  0  0  0  0  0  0  0
   40.4155   28.2897   33.1172 H   0  0  0  0  0  0  0  0  0  0  0  0
   38.6989   26.4553   32.9725 H   0  0  0  0  0  0  0  0  0  0  0  0
   45.1956   26.0045   33.7842 H   0  0  0  0  0  0  0  0  0  0  0  0
   46.5186   24.6693   35.7232 H   0  0  0  0  0  0  0  0  0  0  0  0
   42.3403   24.3581   36.5155 H   0  0  0  0  0  0  0  0  0  0  0  0
   36.8190   24.5964   36.4678 H   0  0  0  0  0  0  0  0  0  0  0  0
   37.0894   24.7642   38.8967 H   0  0  0  0  0  0  0  0  0  0  0  0
   39.0048   23.6480   40.0235 H   0  0  0  0  0  0  0  0  0  0  0  0
   40.6257   22.3719   38.6665 H   0  0  0  0  0  0  0  0  0  0  0  0
   41.3558   21.5868   36.6040 H   0  0  0  0  0  0  0  0  0  0  0  0
   40.4986   21.9418   35.0802 H   0  0  0  0  0  0  0  0  0  0  0  0
  1  8  1  0
  1  5  1  0
  2  3  1  0
  2  1  2  0
  3  4  2  0
  4  5  1  0
  5 17  1  0
  6 11  2  0
  7  6  1  0
  7  8  2  0
  8  9  1  0
  9 10  2  0
 10 12  1  0
 11 10  1  0
 12 16  1  0
 13 12  1  0
 13 14  2  0
 14 15  1  0
 16 15  2  0
 17 22  1  0
 17 18  2  0
 18 19  1  0
 19 20  2  0
 21 20  1  0
 22 21  2  0
 23 22  1  0
  2 24  1  0
  4 25  1  0
  6 26  1  0
  7 27  1  0
 13 28  1  0
 14 29  1  0
 16 30  1  0
 18 31  1  0
 19 32  1  0
 20 33  1  0
 21 34  1  0
 23 35  1  0
 23 36  1  0
M  ISO  8  24  14  25  14  26  14  27  14  28  14  29  14  30  14  31  14
M  ISO  3  32  14  33  14  34  14
M  END
>  <minimizedAffinity>  (1) 
-5.31213236

>  <minimizedRMSD>  (1) 
5.24686193

$$$$
