
     RDKit          3D

 39 42  0  0  0  0  0  0  0  0999 V2000
   41.7320   25.2420   32.1840 C   0  0  0  0  0  0  0  0  0  0  0  0
   41.8390   25.6130   30.8340 C   0  0  0  0  0  0  0  0  0  0  0  0
   43.1870   25.5760   30.5710 N   0  0  0  0  0  0  0  0  0  0  0  0
   43.8100   25.1990   31.7200 C   0  0  0  0  0  0  0  0  0  0  0  0
   42.9470   24.9960   32.6960 N   0  0  0  0  0  0  0  0  0  0  0  0
   43.3560   24.5990   33.9870 C   0  0  0  0  0  0  0  0  0  0  0  0
   43.4760   23.2480   34.3730 C   0  0  0  0  0  0  0  0  0  0  0  0
   43.8740   22.8610   35.6250 C   0  0  0  0  0  0  0  0  0  0  0  0
   44.1770   23.8080   36.5760 C   0  0  0  0  0  0  0  0  0  0  0  0
   44.0780   25.1270   36.2530 C   0  0  0  0  0  0  0  0  0  0  0  0
   43.6820   25.5000   35.0040 C   0  0  0  0  0  0  0  0  0  0  0  0
   43.6020   26.8920   34.7440 N   0  0  0  0  0  0  0  0  0  0  0  0
   38.0630   25.4430   32.7980 C   0  0  0  0  0  0  0  0  0  0  0  0
   39.3090   25.5180   32.1610 C   0  0  0  0  0  0  0  0  0  0  0  0
   40.4490   25.1560   32.8690 C   0  0  0  0  0  0  0  0  0  0  0  0
   40.3030   24.7380   34.1670 N   0  0  0  0  0  0  0  0  0  0  0  0
   39.0870   24.6780   34.7530 C   0  0  0  0  0  0  0  0  0  0  0  0
   37.9850   25.0310   34.0600 N   0  0  0  0  0  0  0  0  0  0  0  0
   38.9570   24.2310   36.1380 C   0  0  0  0  0  0  0  0  0  0  0  0
   39.8250   23.2730   36.6250 C   0  0  0  0  0  0  0  0  0  0  0  0
   39.7540   22.8090   37.9220 C   0  0  0  0  0  0  0  0  0  0  0  0
   38.7620   23.3570   38.7100 C   0  0  0  0  0  0  0  0  0  0  0  0
   37.8720   24.3200   38.2540 C   0  0  0  0  0  0  0  0  0  0  0  0
   37.9650   24.7680   36.9510 C   0  0  0  0  0  0  0  0  0  0  0  0
   41.0253   25.8748   30.1416 H   0  0  0  0  0  0  0  0  0  0  0  0
   44.8986   25.0785   31.8222 H   0  0  0  0  0  0  0  0  0  0  0  0
   43.2388   22.4685   33.6339 H   0  0  0  0  0  0  0  0  0  0  0  0
   43.9515   21.7916   35.8706 H   0  0  0  0  0  0  0  0  0  0  0  0
   44.4951   23.5035   37.5840 H   0  0  0  0  0  0  0  0  0  0  0  0
   44.3187   25.8944   37.0034 H   0  0  0  0  0  0  0  0  0  0  0  0
   43.8391   27.5685   35.4836 H   0  0  0  0  0  0  0  0  0  0  0  0
   43.3068   27.2264   33.8156 H   0  0  0  0  0  0  0  0  0  0  0  0
   37.1494   25.7249   32.2541 H   0  0  0  0  0  0  0  0  0  0  0  0
   39.3836   25.8579   31.1175 H   0  0  0  0  0  0  0  0  0  0  0  0
   40.5983   22.8668   35.9564 H   0  0  0  0  0  0  0  0  0  0  0  0
   40.4476   22.0465   38.3061 H   0  0  0  0  0  0  0  0  0  0  0  0
   38.6722   23.0136   39.7511 H   0  0  0  0  0  0  0  0  0  0  0  0
   37.0991   24.7229   38.9251 H   0  0  0  0  0  0  0  0  0  0  0  0
   37.2718   25.5304   36.5660 H   0  0  0  0  0  0  0  0  0  0  0  0
  1  5  1  0
  1 15  1  0
  2  1  2  0
  3  2  1  0
  3  4  2  0
  4  5  1  0
  5  6  1  0
  6  7  2  0
  6 11  1  0
  7  8  1  0
  8  9  2  0
 10  9  1  0
 11 10  2  0
 12 11  1  0
 13 18  2  0
 14 13  1  0
 14 15  2  0
 15 16  1  0
 16 17  2  0
 17 19  1  0
 18 17  1  0
 19 20  2  0
 19 24  1  0
 20 21  1  0
 21 22  2  0
 23 22  1  0
 24 23  2  0
  2 25  1  0
  4 26  1  0
  7 27  1  0
  8 28  1  0
  9 29  1  0
 10 30  1  0
 12 31  1  0
 12 32  1  0
 13 33  1  0
 14 34  1  0
 20 35  1  0
 21 36  1  0
 22 37  1  0
 23 38  1  0
 24 39  1  0
M  ISO  8  25  14  26  14  27  14  28  14  29  14  30  14  33  14  34  14
M  ISO  5  35  14  36  14  37  14  38  14  39  14
M  END
>  <minimizedAffinity>  (1) 
-5.21669006

>  <minimizedRMSD>  (1) 
3.06683064

$$$$
