
     RDKit          3D

 32 34  0  0  0  0  0  0  0  0999 V2000
   37.4780   22.9400   33.4630 C   0  0  0  0  0  0  0  0  0  0  0  0
   36.7480   22.2090   32.4940 C   0  0  0  0  0  0  0  0  0  0  0  0
   36.3270   21.0930   33.1630 N   0  0  0  0  0  0  0  0  0  0  0  0
   36.7970   21.1900   34.4360 C   0  0  0  0  0  0  0  0  0  0  0  0
   37.4870   22.2890   34.6280 N   0  0  0  0  0  0  0  0  0  0  0  0
   38.0720   22.6090   35.8680 C   0  0  0  0  0  0  0  0  0  0  0  0
   37.3280   23.0950   36.9630 C   0  0  0  0  0  0  0  0  0  0  0  0
   37.8870   23.4080   38.1740 C   0  0  0  0  0  0  0  0  0  0  0  0
   39.2430   23.2530   38.3680 C   0  0  0  0  0  0  0  0  0  0  0  0
   40.0110   22.7870   37.3440 C   0  0  0  0  0  0  0  0  0  0  0  0
   39.4280   22.4800   36.1430 C   0  0  0  0  0  0  0  0  0  0  0  0
   40.2860   22.0020   35.1300 N   0  0  0  0  0  0  0  0  0  0  0  0
   38.3960   26.0490   31.6170 C   0  0  0  0  0  0  0  0  0  0  0  0
   37.8010   24.8170   31.9380 C   0  0  0  0  0  0  0  0  0  0  0  0
   38.1020   24.2130   33.1490 C   0  0  0  0  0  0  0  0  0  0  0  0
   38.9870   24.8590   34.0000 N   0  0  0  0  0  0  0  0  0  0  0  0
   39.5300   26.0370   33.6470 C   0  0  0  0  0  0  0  0  0  0  0  0
   39.2410   26.6240   32.4770 N   0  0  0  0  0  0  0  0  0  0  0  0
   40.4730   26.6580   34.6310 C   0  0  0  0  0  0  0  0  0  0  0  0
   39.7620   27.2660   35.6450 F   0  0  0  0  0  0  0  0  0  0  0  0
   41.3230   27.5740   34.0320 F   0  0  0  0  0  0  0  0  0  0  0  0
   41.2610   25.6370   35.1420 F   0  0  0  0  0  0  0  0  0  0  0  0
   36.5622   22.4775   31.4436 H   0  0  0  0  0  0  0  0  0  0  0  0
   36.6189   20.4338   35.2147 H   0  0  0  0  0  0  0  0  0  0  0  0
   36.2434   23.2297   36.8384 H   0  0  0  0  0  0  0  0  0  0  0  0
   37.2538   23.7830   38.9916 H   0  0  0  0  0  0  0  0  0  0  0  0
   39.6991   23.5025   39.3374 H   0  0  0  0  0  0  0  0  0  0  0  0
   41.0948   22.6578   37.4809 H   0  0  0  0  0  0  0  0  0  0  0  0
   41.2941   21.8996   35.3149 H   0  0  0  0  0  0  0  0  0  0  0  0
   39.9043   21.7555   34.2057 H   0  0  0  0  0  0  0  0  0  0  0  0
   38.1663   26.5389   30.6593 H   0  0  0  0  0  0  0  0  0  0  0  0
   37.1037   24.3369   31.2357 H   0  0  0  0  0  0  0  0  0  0  0  0
  1  5  1  0
  2  3  1  0
  2  1  2  0
  3  4  2  0
  4  5  1  0
  5  6  1  0
  6 11  1  0
  6  7  2  0
  7  8  1  0
  8  9  2  0
 10  9  1  0
 11 10  2  0
 12 11  1  0
 13 14  2  0
 13 18  1  0
 14 15  1  0
 15  1  1  0
 15 16  2  0
 17 16  1  0
 17 19  1  0
 18 17  2  0
 19 22  1  0
 19 20  1  0
 21 19  1  0
  2 23  1  0
  4 24  1  0
  7 25  1  0
  8 26  1  0
  9 27  1  0
 10 28  1  0
 12 29  1  0
 12 30  1  0
 13 31  1  0
 14 32  1  0
M  ISO  8  23  14  24  14  25  14  26  14  27  14  28  14  31  14  32  14
M  END
>  <minimizedAffinity>  (1) 
-5.21628428

>  <minimizedRMSD>  (1) 
4.66198444

$$$$
