
     RDKit          3D

 36 39  0  0  0  0  0  0  0  0999 V2000
   39.2460   24.2260   33.6820 C   0  0  0  0  0  0  0  0  0  0  0  0
   38.7620   23.8990   32.3960 C   0  0  0  0  0  0  0  0  0  0  0  0
   37.7280   23.0200   32.6340 N   0  0  0  0  0  0  0  0  0  0  0  0
   37.6430   22.8670   33.9790 C   0  0  0  0  0  0  0  0  0  0  0  0
   38.5340   23.5720   34.6220 N   0  0  0  0  0  0  0  0  0  0  0  0
   38.6380   23.5730   36.0290 C   0  0  0  0  0  0  0  0  0  0  0  0
   37.7670   24.3250   36.8510 C   0  0  0  0  0  0  0  0  0  0  0  0
   37.8740   24.3220   38.2200 C   0  0  0  0  0  0  0  0  0  0  0  0
   38.8400   23.5830   38.8530 C   0  0  0  0  0  0  0  0  0  0  0  0
   39.7010   22.8420   38.0920 C   0  0  0  0  0  0  0  0  0  0  0  0
   39.5890   22.8510   36.7340 C   0  0  0  0  0  0  0  0  0  0  0  0
   40.5170   22.0600   36.0030 N   0  0  0  0  0  0  0  0  0  0  0  0
   41.3260   27.3030   33.4850 C   0  0  0  0  0  0  0  0  0  0  0  0
   40.2580   26.4030   33.3040 C   0  0  0  0  0  0  0  0  0  0  0  0
   40.3560   25.1430   33.8800 C   0  0  0  0  0  0  0  0  0  0  0  0
   41.4880   24.8320   34.5990 N   0  0  0  0  0  0  0  0  0  0  0  0
   42.4780   25.7280   34.7410 C   0  0  0  0  0  0  0  0  0  0  0  0
   42.4040   26.9460   34.1950 N   0  0  0  0  0  0  0  0  0  0  0  0
   43.6760   25.3900   35.5050 C   0  0  0  0  0  0  0  0  0  0  0  0
   44.9160   26.0200   35.4800 C   0  0  0  0  0  0  0  0  0  0  0  0
   45.7530   25.4010   36.3320 N   0  0  0  0  0  0  0  0  0  0  0  0
   45.0850   24.3810   36.9140 C   0  0  0  0  0  0  0  0  0  0  0  0
   43.8420   24.3980   36.3990 N   0  0  0  0  0  0  0  0  0  0  0  0
   39.1277   24.2635   31.4247 H   0  0  0  0  0  0  0  0  0  0  0  0
   36.9041   22.2197   34.4739 H   0  0  0  0  0  0  0  0  0  0  0  0
   36.9795   24.9310   36.3792 H   0  0  0  0  0  0  0  0  0  0  0  0
   37.1732   24.9224   38.8187 H   0  0  0  0  0  0  0  0  0  0  0  0
   38.9206   23.5862   39.9500 H   0  0  0  0  0  0  0  0  0  0  0  0
   40.4836   22.2390   38.5757 H   0  0  0  0  0  0  0  0  0  0  0  0
   41.2337   21.5139   36.5021 H   0  0  0  0  0  0  0  0  0  0  0  0
   40.4726   22.0330   34.9743 H   0  0  0  0  0  0  0  0  0  0  0  0
   41.2743   28.3074   33.0396 H   0  0  0  0  0  0  0  0  0  0  0  0
   39.3699   26.6903   32.7220 H   0  0  0  0  0  0  0  0  0  0  0  0
   45.1727   26.8908   34.8588 H   0  0  0  0  0  0  0  0  0  0  0  0
   45.4792   23.6762   37.6609 H   0  0  0  0  0  0  0  0  0  0  0  0
   43.1031   23.7292   36.6590 H   0  0  0  0  0  0  0  0  0  0  0  0
  1 15  1  0
  1  5  1  0
  2  3  1  0
  2  1  2  0
  3  4  2  0
  4  5  1  0
  5  6  1  0
  6 11  1  0
  6  7  2  0
  7  8  1  0
  8  9  2  0
 10  9  1  0
 11 10  2  0
 12 11  1  0
 13 18  2  0
 14 13  1  0
 14 15  2  0
 15 16  1  0
 16 17  2  0
 17 19  1  0
 18 17  1  0
 19 23  1  0
 20 19  2  0
 20 21  1  0
 21 22  2  0
 23 22  1  0
  2 24  1  0
  4 25  1  0
  7 26  1  0
  8 27  1  0
  9 28  1  0
 10 29  1  0
 12 30  1  0
 12 31  1  0
 13 32  1  0
 14 33  1  0
 20 34  1  0
 22 35  1  0
 23 36  1  0
M  ISO  8  24  14  25  14  26  14  27  14  28  14  29  14  32  14  33  14
M  ISO  3  34  14  35  14  36   9
M  END
>  <minimizedAffinity>  (1) 
-5.19932747

>  <minimizedRMSD>  (1) 
5.43975925

$$$$
