
     RDKit          3D

 36 39  0  0  0  0  0  0  0  0999 V2000
   38.0600   23.4860   33.6530 C   0  0  0  0  0  0  0  0  0  0  0  0
   37.4520   22.8670   32.5360 C   0  0  0  0  0  0  0  0  0  0  0  0
   36.9020   21.7140   33.0360 N   0  0  0  0  0  0  0  0  0  0  0  0
   37.1830   21.6790   34.3630 C   0  0  0  0  0  0  0  0  0  0  0  0
   37.8740   22.7300   34.7460 N   0  0  0  0  0  0  0  0  0  0  0  0
   38.2830   22.9140   36.0830 C   0  0  0  0  0  0  0  0  0  0  0  0
   37.4370   23.4170   37.0920 C   0  0  0  0  0  0  0  0  0  0  0  0
   37.8420   23.5930   38.3850 C   0  0  0  0  0  0  0  0  0  0  0  0
   39.1290   23.2780   38.7700 C   0  0  0  0  0  0  0  0  0  0  0  0
   39.9930   22.7880   37.8390 C   0  0  0  0  0  0  0  0  0  0  0  0
   39.5680   22.6180   36.5500 C   0  0  0  0  0  0  0  0  0  0  0  0
   40.5220   22.1040   35.6360 N   0  0  0  0  0  0  0  0  0  0  0  0
   38.7070   27.0940   33.0160 C   0  0  0  0  0  0  0  0  0  0  0  0
   38.0510   25.8620   33.1180 C   0  0  0  0  0  0  0  0  0  0  0  0
   38.7670   24.7550   33.5560 C   0  0  0  0  0  0  0  0  0  0  0  0
   40.0960   24.9160   33.8720 N   0  0  0  0  0  0  0  0  0  0  0  0
   40.6830   26.1310   33.7560 C   0  0  0  0  0  0  0  0  0  0  0  0
   39.9870   27.2060   33.3310 N   0  0  0  0  0  0  0  0  0  0  0  0
   42.0950   26.2450   34.1050 C   0  0  0  0  0  0  0  0  0  0  0  0
   42.5930   25.3210   35.0190 C   0  0  0  0  0  0  0  0  0  0  0  0
   43.9450   25.6170   35.1990 C   0  0  0  0  0  0  0  0  0  0  0  0
   44.1790   26.7180   34.3720 C   0  0  0  0  0  0  0  0  0  0  0  0
   43.0750   27.0540   33.7500 O   0  0  0  0  0  0  0  0  0  0  0  0
   37.4260   23.2294   31.4977 H   0  0  0  0  0  0  0  0  0  0  0  0
   36.8702   20.8684   35.0376 H   0  0  0  0  0  0  0  0  0  0  0  0
   36.4026   23.6801   36.8261 H   0  0  0  0  0  0  0  0  0  0  0  0
   37.1341   23.9903   39.1273 H   0  0  0  0  0  0  0  0  0  0  0  0
   39.4516   23.4204   39.8119 H   0  0  0  0  0  0  0  0  0  0  0  0
   41.0247   22.5308   38.1211 H   0  0  0  0  0  0  0  0  0  0  0  0
   41.4742   21.8790   35.9577 H   0  0  0  0  0  0  0  0  0  0  0  0
   40.2629   21.9556   34.6502 H   0  0  0  0  0  0  0  0  0  0  0  0
   38.1524   27.9787   32.6702 H   0  0  0  0  0  0  0  0  0  0  0  0
   36.9865   25.7717   32.8558 H   0  0  0  0  0  0  0  0  0  0  0  0
   42.0289   24.5121   35.5063 H   0  0  0  0  0  0  0  0  0  0  0  0
   44.6661   25.0984   35.8480 H   0  0  0  0  0  0  0  0  0  0  0  0
   45.1471   27.2280   34.2592 H   0  0  0  0  0  0  0  0  0  0  0  0
  1  5  1  0
  2  3  1  0
  2  1  2  0
  3  4  2  0
  4  5  1  0
  5  6  1  0
  6 11  1  0
  6  7  2  0
  7  8  1  0
  8  9  2  0
 10  9  1  0
 11 10  2  0
 12 11  1  0
 13 14  2  0
 13 18  1  0
 14 15  1  0
 15  1  1  0
 15 16  2  0
 17 16  1  0
 17 19  1  0
 18 17  2  0
 19 20  2  0
 20 21  1  0
 22 21  2  0
 23 19  1  0
 23 22  1  0
  2 24  1  0
  4 25  1  0
  7 26  1  0
  8 27  1  0
  9 28  1  0
 10 29  1  0
 12 30  1  0
 12 31  1  0
 13 32  1  0
 14 33  1  0
 20 34  1  0
 21 35  1  0
 22 36  1  0
M  ISO  8  24  14  25  14  26  14  27  14  28  14  29  14  32  14  33  14
M  ISO  3  34  14  35  14  36  14
M  END
>  <minimizedAffinity>  (1) 
-5.18234587

>  <minimizedRMSD>  (1) 
5.19707775

$$$$
