
     RDKit          3D

 45 48  0  0  0  0  0  0  0  0999 V2000
   41.3570   23.6070   33.4010 C   0  0  0  0  0  0  0  0  0  0  0  0
   42.6650   23.1030   33.2230 C   0  0  0  0  0  0  0  0  0  0  0  0
   43.3900   23.6570   34.2460 N   0  0  0  0  0  0  0  0  0  0  0  0
   42.5350   24.4360   34.9660 C   0  0  0  0  0  0  0  0  0  0  0  0
   41.3180   24.4110   34.4690 N   0  0  0  0  0  0  0  0  0  0  0  0
   40.2560   25.1390   35.0420 C   0  0  0  0  0  0  0  0  0  0  0  0
   39.2880   24.5500   35.8870 C   0  0  0  0  0  0  0  0  0  0  0  0
   38.2540   25.2700   36.4420 C   0  0  0  0  0  0  0  0  0  0  0  0
   38.1180   26.6170   36.1940 C   0  0  0  0  0  0  0  0  0  0  0  0
   39.0280   27.2320   35.3840 C   0  0  0  0  0  0  0  0  0  0  0  0
   40.0540   26.5080   34.8350 C   0  0  0  0  0  0  0  0  0  0  0  0
   40.9560   27.2100   34.0090 N   0  0  0  0  0  0  0  0  0  0  0  0
   39.0990   23.6180   30.4450 C   0  0  0  0  0  0  0  0  0  0  0  0
   40.1520   23.9510   31.3190 C   0  0  0  0  0  0  0  0  0  0  0  0
   40.2650   23.2530   32.5080 C   0  0  0  0  0  0  0  0  0  0  0  0
   39.3400   22.2590   32.7800 N   0  0  0  0  0  0  0  0  0  0  0  0
   38.3600   21.9830   31.9150 C   0  0  0  0  0  0  0  0  0  0  0  0
   38.2300   22.6460   30.7620 N   0  0  0  0  0  0  0  0  0  0  0  0
   37.3830   20.9220   32.2240 C   0  0  0  0  0  0  0  0  0  0  0  0
   36.6210   21.1280   33.4990 C   0  0  0  0  0  0  0  0  0  0  0  0
   35.3130   20.3940   33.3580 C   0  0  0  0  0  0  0  0  0  0  0  0
   35.4190   19.1440   32.5110 C   0  0  0  0  0  0  0  0  0  0  0  0
   35.8390   19.4420   31.1010 C   0  0  0  0  0  0  0  0  0  0  0  0
   36.3520   20.8770   31.1050 C   0  0  0  0  0  0  0  0  0  0  0  0
   43.0217   22.4190   32.4388 H   0  0  0  0  0  0  0  0  0  0  0  0
   42.8271   25.0150   35.8545 H   0  0  0  0  0  0  0  0  0  0  0  0
   39.3637   23.4754   36.1097 H   0  0  0  0  0  0  0  0  0  0  0  0
   37.5268   24.7619   37.0924 H   0  0  0  0  0  0  0  0  0  0  0  0
   37.2905   27.1877   36.6408 H   0  0  0  0  0  0  0  0  0  0  0  0
   38.9381   28.3076   35.1720 H   0  0  0  0  0  0  0  0  0  0  0  0
   40.8252   28.2182   33.8437 H   0  0  0  0  0  0  0  0  0  0  0  0
   41.7457   26.7145   33.5710 H   0  0  0  0  0  0  0  0  0  0  0  0
   38.9880   24.1596   29.4940 H   0  0  0  0  0  0  0  0  0  0  0  0
   40.8670   24.7466   31.0625 H   0  0  0  0  0  0  0  0  0  0  0  0
   37.9682   19.9966   32.3296 H   0  0  0  0  0  0  0  0  0  0  0  0
   37.1908   20.7234   34.3485 H   0  0  0  0  0  0  0  0  0  0  0  0
   36.4506   22.1988   33.6841 H   0  0  0  0  0  0  0  0  0  0  0  0
   34.9626   20.1082   34.3608 H   0  0  0  0  0  0  0  0  0  0  0  0
   34.6101   21.0727   32.8526 H   0  0  0  0  0  0  0  0  0  0  0  0
   36.1608   18.4710   32.9658 H   0  0  0  0  0  0  0  0  0  0  0  0
   34.4228   18.6792   32.4730 H   0  0  0  0  0  0  0  0  0  0  0  0
   34.9813   19.3455   30.4191 H   0  0  0  0  0  0  0  0  0  0  0  0
   36.6129   18.7404   30.7563 H   0  0  0  0  0  0  0  0  0  0  0  0
   36.8178   21.1240   30.1396 H   0  0  0  0  0  0  0  0  0  0  0  0
   35.5423   21.6055   31.2588 H   0  0  0  0  0  0  0  0  0  0  0  0
  1  5  1  0
  2  1  2  0
  2  3  1  0
  3  4  2  0
  5  4  1  0
  5  6  1  0
  6  7  2  0
  7  8  1  0
  9  8  2  0
 10  9  1  0
 11  6  1  0
 11 10  2  0
 12 11  1  0
 13 18  2  0
 13 14  1  0
 14 15  2  0
 15 16  1  0
 15  1  1  0
 17 19  1  0
 17 16  2  0
 18 17  1  0
 19 20  1  0
 21 20  1  0
 22 21  1  0
 23 24  1  0
 23 22  1  0
 24 19  1  0
  2 25  1  0
  4 26  1  0
  7 27  1  0
  8 28  1  0
  9 29  1  0
 10 30  1  0
 12 31  1  0
 12 32  1  0
 13 33  1  0
 14 34  1  0
 19 35  1  0
 20 36  1  0
 20 37  1  0
 21 38  1  0
 21 39  1  0
 22 40  1  0
 22 41  1  0
 23 42  1  0
 23 43  1  0
 24 44  1  0
 24 45  1  0
M  ISO  8  25  14  26  14  27  14  28  14  29  14  30  14  33  14  34  14
M  ISO  8  35  13  36  13  37  13  38  13  39  13  40  13  41  13  42  13
M  ISO  3  43  13  44  13  45  13
M  END
>  <minimizedAffinity>  (1) 
-5.11414289

>  <minimizedRMSD>  (1) 
6.04524231

$$$$
