
     RDKit          3D

 45 49  0  0  0  0  0  0  0  0999 V2000
   40.2780   22.9030   30.9240 C   0  0  0  0  0  0  0  0  0  0  0  0
   40.5490   22.5420   29.5830 C   0  0  0  0  0  0  0  0  0  0  0  0
   41.7840   21.9610   29.6200 N   0  0  0  0  0  0  0  0  0  0  0  0
   42.1890   21.9930   30.9210 C   0  0  0  0  0  0  0  0  0  0  0  0
   41.3000   22.5530   31.7110 N   0  0  0  0  0  0  0  0  0  0  0  0
   41.4950   22.7000   33.0970 C   0  0  0  0  0  0  0  0  0  0  0  0
   41.3740   21.6430   34.0050 C   0  0  0  0  0  0  0  0  0  0  0  0
   41.5700   21.8010   35.3600 C   0  0  0  0  0  0  0  0  0  0  0  0
   41.9010   23.0310   35.8820 C   0  0  0  0  0  0  0  0  0  0  0  0
   42.0320   24.1040   35.0270 C   0  0  0  0  0  0  0  0  0  0  0  0
   41.8310   23.9230   33.6800 C   0  0  0  0  0  0  0  0  0  0  0  0
   41.9880   25.0740   32.8660 N   0  0  0  0  0  0  0  0  0  0  0  0
   36.7710   24.1220   30.8380 C   0  0  0  0  0  0  0  0  0  0  0  0
   37.9530   23.4830   30.4560 C   0  0  0  0  0  0  0  0  0  0  0  0
   39.0320   23.5570   31.3050 C   0  0  0  0  0  0  0  0  0  0  0  0
   38.8620   24.2540   32.4650 N   0  0  0  0  0  0  0  0  0  0  0  0
   37.7250   24.8620   32.8220 C   0  0  0  0  0  0  0  0  0  0  0  0
   36.6920   24.7790   31.9840 N   0  0  0  0  0  0  0  0  0  0  0  0
   37.8760   25.5190   34.1180 C   0  0  0  0  0  0  0  0  0  0  0  0
   37.8760   26.8870   34.2630 C   0  0  0  0  0  0  0  0  0  0  0  0
   38.0160   27.5310   35.4630 C   0  0  0  0  0  0  0  0  0  0  0  0
   38.1690   26.8230   36.6280 C   0  0  0  0  0  0  0  0  0  0  0  0
   38.1760   25.4480   36.5480 C   0  0  0  0  0  0  0  0  0  0  0  0
   38.3310   24.7450   37.7230 C   0  0  0  0  0  0  0  0  0  0  0  0
   38.3490   23.3700   37.7160 C   0  0  0  0  0  0  0  0  0  0  0  0
   38.2050   22.7390   36.4800 C   0  0  0  0  0  0  0  0  0  0  0  0
   38.0540   23.4870   35.3330 C   0  0  0  0  0  0  0  0  0  0  0  0
   38.0320   24.8600   35.3140 C   0  0  0  0  0  0  0  0  0  0  0  0
   39.9060   22.6957   28.7038 H   0  0  0  0  0  0  0  0  0  0  0  0
   43.1527   21.5945   31.2710 H   0  0  0  0  0  0  0  0  0  0  0  0
   41.1119   20.6456   33.6222 H   0  0  0  0  0  0  0  0  0  0  0  0
   41.4609   20.9360   36.0307 H   0  0  0  0  0  0  0  0  0  0  0  0
   42.0583   23.1554   36.9636 H   0  0  0  0  0  0  0  0  0  0  0  0
   42.2953   25.0971   35.4198 H   0  0  0  0  0  0  0  0  0  0  0  0
   42.2359   25.9775   33.2939 H   0  0  0  0  0  0  0  0  0  0  0  0
   41.8541   25.0063   31.8470 H   0  0  0  0  0  0  0  0  0  0  0  0
   35.8931   24.0784   30.1766 H   0  0  0  0  0  0  0  0  0  0  0  0
   38.0186   22.9365   29.5036 H   0  0  0  0  0  0  0  0  0  0  0  0
   37.7561   27.5016   33.3586 H   0  0  0  0  0  0  0  0  0  0  0  0
   38.0057   28.6305   35.4934 H   0  0  0  0  0  0  0  0  0  0  0  0
   38.2824   27.3365   37.5942 H   0  0  0  0  0  0  0  0  0  0  0  0
   38.4411   25.2877   38.6735 H   0  0  0  0  0  0  0  0  0  0  0  0
   38.4716   22.7928   38.6443 H   0  0  0  0  0  0  0  0  0  0  0  0
   38.2121   21.6406   36.4212 H   0  0  0  0  0  0  0  0  0  0  0  0
   37.9447   22.9537   34.3772 H   0  0  0  0  0  0  0  0  0  0  0  0
  1 15  1  0
  1  5  1  0
  2  3  1  0
  2  1  2  0
  3  4  2  0
  4  5  1  0
  5  6  1  0
  6 11  1  0
  6  7  2  0
  7  8  1  0
  8  9  2  0
 10  9  1  0
 11 10  2  0
 12 11  1  0
 13 18  2  0
 14 13  1  0
 14 15  2  0
 15 16  1  0
 16 17  2  0
 17 19  1  0
 18 17  1  0
 19 20  2  0
 19 28  1  0
 20 21  1  0
 21 22  2  0
 23 22  1  0
 23 24  2  0
 25 24  1  0
 26 25  2  0
 27 26  1  0
 28 27  2  0
 28 23  1  0
  2 29  1  0
  4 30  1  0
  7 31  1  0
  8 32  1  0
  9 33  1  0
 10 34  1  0
 12 35  1  0
 12 36  1  0
 13 37  1  0
 14 38  1  0
 20 39  1  0
 21 40  1  0
 22 41  1  0
 24 42  1  0
 25 43  1  0
 26 44  1  0
 27 45  1  0
M  ISO  8  29  14  30  14  31  14  32  14  33  14  34  14  37  14  38  14
M  ISO  7  39  14  40  14  41  14  42  14  43  14  44  14  45  14
M  END
>  <minimizedAffinity>  (1) 
-5.08821678

>  <minimizedRMSD>  (1) 
3.75011492

$$$$
