
     RDKit          3D

 36 39  0  0  0  0  0  0  0  0999 V2000
   40.1300   22.5350   34.1130 C   0  0  0  0  0  0  0  0  0  0  0  0
   41.1470   21.5640   34.0830 C   0  0  0  0  0  0  0  0  0  0  0  0
   42.0710   22.0110   34.9870 N   0  0  0  0  0  0  0  0  0  0  0  0
   41.5930   23.1810   35.5010 C   0  0  0  0  0  0  0  0  0  0  0  0
   40.4350   23.5010   34.9850 N   0  0  0  0  0  0  0  0  0  0  0  0
   39.7430   24.6680   35.3610 C   0  0  0  0  0  0  0  0  0  0  0  0
   38.6850   24.6780   36.2980 C   0  0  0  0  0  0  0  0  0  0  0  0
   38.0100   25.8210   36.6630 C   0  0  0  0  0  0  0  0  0  0  0  0
   38.3510   27.0230   36.1170 C   0  0  0  0  0  0  0  0  0  0  0  0
   39.3740   27.0810   35.1980 C   0  0  0  0  0  0  0  0  0  0  0  0
   40.0300   25.9310   34.8490 C   0  0  0  0  0  0  0  0  0  0  0  0
   41.0700   26.0670   33.8990 N   0  0  0  0  0  0  0  0  0  0  0  0
   37.3360   21.0330   32.1490 C   0  0  0  0  0  0  0  0  0  0  0  0
   38.4820   21.1680   32.9490 C   0  0  0  0  0  0  0  0  0  0  0  0
   38.9390   22.4330   33.2810 C   0  0  0  0  0  0  0  0  0  0  0  0
   38.2320   23.5240   32.7990 N   0  0  0  0  0  0  0  0  0  0  0  0
   37.1480   23.3390   32.0420 C   0  0  0  0  0  0  0  0  0  0  0  0
   36.7010   22.1190   31.7180 N   0  0  0  0  0  0  0  0  0  0  0  0
   36.4080   24.4850   31.5380 C   0  0  0  0  0  0  0  0  0  0  0  0
   36.6530   25.8120   31.8170 C   0  0  0  0  0  0  0  0  0  0  0  0
   35.7330   26.5930   31.1480 C   0  0  0  0  0  0  0  0  0  0  0  0
   34.9360   25.7350   30.4670 N   0  0  0  0  0  0  0  0  0  0  0  0
   35.3490   24.5120   30.7090 N   0  0  0  0  0  0  0  0  0  0  0  0
   41.1897   20.6511   33.4707 H   0  0  0  0  0  0  0  0  0  0  0  0
   42.1182   23.7822   36.2578 H   0  0  0  0  0  0  0  0  0  0  0  0
   38.3859   23.7249   36.7586 H   0  0  0  0  0  0  0  0  0  0  0  0
   37.1930   25.7644   37.3974 H   0  0  0  0  0  0  0  0  0  0  0  0
   37.8137   27.9376   36.4082 H   0  0  0  0  0  0  0  0  0  0  0  0
   39.6619   28.0426   34.7480 H   0  0  0  0  0  0  0  0  0  0  0  0
   41.6016   25.2387   33.5952 H   0  0  0  0  0  0  0  0  0  0  0  0
   41.2954   26.9943   33.5113 H   0  0  0  0  0  0  0  0  0  0  0  0
   36.9650   20.0330   31.8799 H   0  0  0  0  0  0  0  0  0  0  0  0
   39.0135   20.2751   33.3098 H   0  0  0  0  0  0  0  0  0  0  0  0
   37.4546   26.1888   32.4693 H   0  0  0  0  0  0  0  0  0  0  0  0
   35.6612   27.6905   31.1643 H   0  0  0  0  0  0  0  0  0  0  0  0
   34.1432   25.9966   29.8637 H   0  0  0  0  0  0  0  0  0  0  0  0
  1  5  1  0
  2  1  2  0
  2  3  1  0
  3  4  2  0
  5  6  1  0
  5  4  1  0
  6  7  2  0
  7  8  1  0
  9  8  2  0
 10  9  1  0
 11 10  2  0
 11  6  1  0
 12 11  1  0
 13 14  2  0
 14 15  1  0
 15  1  1  0
 16 15  2  0
 17 16  1  0
 18 17  2  0
 18 13  1  0
 19 20  1  0
 19 17  1  0
 21 20  2  0
 22 23  1  0
 22 21  1  0
 23 19  2  0
  2 24  1  0
  4 25  1  0
  7 26  1  0
  8 27  1  0
  9 28  1  0
 10 29  1  0
 12 30  1  0
 12 31  1  0
 13 32  1  0
 14 33  1  0
 20 34  1  0
 21 35  1  0
 22 36  1  0
M  ISO  8  24  14  25  14  26  14  27  14  28  14  29  14  32  14  33  14
M  ISO  3  34  14  35  14  36   9
M  END
>  <minimizedAffinity>  (1) 
-5.01967669

>  <minimizedRMSD>  (1) 
5.27085018

$$$$
