
     RDKit          3D

 38 40  0  0  0  0  0  0  0  0999 V2000
   36.7640   22.5070   32.0330 C   0  0  0  0  0  0  0  0  0  0  0  0
   36.3050   21.5430   31.1120 C   0  0  0  0  0  0  0  0  0  0  0  0
   36.8130   20.3620   31.5670 N   0  0  0  0  0  0  0  0  0  0  0  0
   37.5280   20.6400   32.6930 C   0  0  0  0  0  0  0  0  0  0  0  0
   37.5080   21.9230   32.9840 N   0  0  0  0  0  0  0  0  0  0  0  0
   38.1740   22.4580   34.1040 C   0  0  0  0  0  0  0  0  0  0  0  0
   37.6840   22.3590   35.4110 C   0  0  0  0  0  0  0  0  0  0  0  0
   38.3380   22.8830   36.4970 C   0  0  0  0  0  0  0  0  0  0  0  0
   39.5350   23.5450   36.3450 C   0  0  0  0  0  0  0  0  0  0  0  0
   40.0560   23.6690   35.0940 C   0  0  0  0  0  0  0  0  0  0  0  0
   39.3860   23.1370   34.0200 C   0  0  0  0  0  0  0  0  0  0  0  0
   39.9980   23.3100   32.7420 N   0  0  0  0  0  0  0  0  0  0  0  0
   35.0410   25.6170   30.9380 C   0  0  0  0  0  0  0  0  0  0  0  0
   35.3710   24.2580   31.0740 C   0  0  0  0  0  0  0  0  0  0  0  0
   36.4370   23.9190   31.9020 C   0  0  0  0  0  0  0  0  0  0  0  0
   37.1110   24.9300   32.5480 N   0  0  0  0  0  0  0  0  0  0  0  0
   36.7570   26.2120   32.3840 C   0  0  0  0  0  0  0  0  0  0  0  0
   35.7380   26.5610   31.5930 N   0  0  0  0  0  0  0  0  0  0  0  0
   37.4990   27.2960   33.0900 C   0  0  0  0  0  0  0  0  0  0  0  0
   36.8100   27.7580   34.3530 C   0  0  0  0  0  0  0  0  0  0  0  0
   38.9050   26.8860   33.4680 C   0  0  0  0  0  0  0  0  0  0  0  0
   35.6769   21.7071   30.2240 H   0  0  0  0  0  0  0  0  0  0  0  0
   38.0587   19.8821   33.2879 H   0  0  0  0  0  0  0  0  0  0  0  0
   36.7300   21.8367   35.5752 H   0  0  0  0  0  0  0  0  0  0  0  0
   37.9009   22.7729   37.5004 H   0  0  0  0  0  0  0  0  0  0  0  0
   40.0593   23.9649   37.2161 H   0  0  0  0  0  0  0  0  0  0  0  0
   41.0110   24.1938   34.9436 H   0  0  0  0  0  0  0  0  0  0  0  0
   40.8949   23.8103   32.6640 H   0  0  0  0  0  0  0  0  0  0  0  0
   39.5426   22.9345   31.8979 H   0  0  0  0  0  0  0  0  0  0  0  0
   34.2034   25.9113   30.2886 H   0  0  0  0  0  0  0  0  0  0  0  0
   34.8019   23.4826   30.5402 H   0  0  0  0  0  0  0  0  0  0  0  0
   37.5275   28.1196   32.3614 H   0  0  0  0  0  0  0  0  0  0  0  0
   37.3628   27.3873   35.2288 H   0  0  0  0  0  0  0  0  0  0  0  0
   36.7830   28.8575   34.3748 H   0  0  0  0  0  0  0  0  0  0  0  0
   35.7826   27.3655   34.3748 H   0  0  0  0  0  0  0  0  0  0  0  0
   38.9970   26.8592   34.5638 H   0  0  0  0  0  0  0  0  0  0  0  0
   39.1188   25.8881   33.0575 H   0  0  0  0  0  0  0  0  0  0  0  0
   39.6217   27.6126   33.0575 H   0  0  0  0  0  0  0  0  0  0  0  0
  1  5  1  0
  2  3  1  0
  2  1  2  0
  3  4  2  0
  4  5  1  0
  5  6  1  0
  6  7  2  0
  7  8  1  0
  9  8  2  0
 10  9  1  0
 11  6  1  0
 11 10  2  0
 12 11  1  0
 13 14  2  0
 13 18  1  0
 14 15  1  0
 15  1  1  0
 15 16  2  0
 17 16  1  0
 17 19  1  0
 18 17  2  0
 19 21  1  0
 19 20  1  0
  2 22  1  0
  4 23  1  0
  7 24  1  0
  8 25  1  0
  9 26  1  0
 10 27  1  0
 12 28  1  0
 12 29  1  0
 13 30  1  0
 14 31  1  0
 19 32  1  0
 20 33  1  0
 20 34  1  0
 20 35  1  0
 21 36  1  0
 21 37  1  0
 21 38  1  0
M  ISO  8  22  14  23  14  24  14  25  14  26  14  27  14  30  14  31  14
M  ISO  7  32   8  33   8  34   8  35   8  36   8  37   8  38   8
M  END
>  <minimizedAffinity>  (1) 
-4.9127512

>  <minimizedRMSD>  (1) 
4.95943832

$$$$
