
     RDKit          3D

 35 38  0  0  0  0  0  0  0  0999 V2000
   38.3010   25.7310   34.9420 C   0  0  0  0  0  0  0  0  0  0  0  0
   37.1500   26.5410   35.0600 C   0  0  0  0  0  0  0  0  0  0  0  0
   37.1650   27.3200   33.9290 N   0  0  0  0  0  0  0  0  0  0  0  0
   38.2650   26.9650   33.2160 C   0  0  0  0  0  0  0  0  0  0  0  0
   38.9560   26.0180   33.8050 N   0  0  0  0  0  0  0  0  0  0  0  0
   40.1370   25.4870   33.2520 C   0  0  0  0  0  0  0  0  0  0  0  0
   40.1430   24.4660   32.2700 C   0  0  0  0  0  0  0  0  0  0  0  0
   41.3060   23.9580   31.7380 C   0  0  0  0  0  0  0  0  0  0  0  0
   42.5220   24.4230   32.1420 C   0  0  0  0  0  0  0  0  0  0  0  0
   42.5760   25.4120   33.0910 C   0  0  0  0  0  0  0  0  0  0  0  0
   41.4170   25.9030   33.6060 C   0  0  0  0  0  0  0  0  0  0  0  0
   41.5520   26.9290   34.5880 N   0  0  0  0  0  0  0  0  0  0  0  0
   38.2730   23.8090   38.1390 C   0  0  0  0  0  0  0  0  0  0  0  0
   37.9560   24.7380   37.1440 C   0  0  0  0  0  0  0  0  0  0  0  0
   38.6670   24.7430   35.9500 C   0  0  0  0  0  0  0  0  0  0  0  0
   39.6680   23.8140   35.8000 N   0  0  0  0  0  0  0  0  0  0  0  0
   39.9420   22.9340   36.7840 C   0  0  0  0  0  0  0  0  0  0  0  0
   39.2560   22.9320   37.9320 N   0  0  0  0  0  0  0  0  0  0  0  0
   41.0480   22.0020   36.4620 C   0  0  0  0  0  0  0  0  0  0  0  0
   41.5660   21.3160   37.5660 C   0  0  0  0  0  0  0  0  0  0  0  0
   42.8970   20.2640   36.8280 S   0  0  0  0  0  0  0  0  0  0  0  0
   42.4910   20.9740   35.1030 C   0  0  0  0  0  0  0  0  0  0  0  0
   41.6520   21.6840   35.3290 N   0  0  0  0  0  0  0  0  0  0  0  0
   36.4094   26.5466   35.8734 H   0  0  0  0  0  0  0  0  0  0  0  0
   38.5447   27.4197   32.2542 H   0  0  0  0  0  0  0  0  0  0  0  0
   39.1811   24.0638   31.9193 H   0  0  0  0  0  0  0  0  0  0  0  0
   41.2537   23.1660   30.9764 H   0  0  0  0  0  0  0  0  0  0  0  0
   43.4472   24.0108   31.7129 H   0  0  0  0  0  0  0  0  0  0  0  0
   43.5459   25.8036   33.4316 H   0  0  0  0  0  0  0  0  0  0  0  0
   42.4884   27.2545   34.8673 H   0  0  0  0  0  0  0  0  0  0  0  0
   40.7130   27.3443   35.0177 H   0  0  0  0  0  0  0  0  0  0  0  0
   37.7151   23.8013   39.0870 H   0  0  0  0  0  0  0  0  0  0  0  0
   37.1453   25.4637   37.3057 H   0  0  0  0  0  0  0  0  0  0  0  0
   41.2564   21.3855   38.6192 H   0  0  0  0  0  0  0  0  0  0  0  0
   42.9599   20.7454   34.1346 H   0  0  0  0  0  0  0  0  0  0  0  0
  1  2  2  0
  1 15  1  0
  3  2  1  0
  4  5  1  0
  4  3  2  0
  5  1  1  0
  6 11  1  0
  6  5  1  0
  7  6  2  0
  8  9  2  0
  8  7  1  0
  9 10  1  0
 10 11  2  0
 11 12  1  0
 14 13  2  0
 15 14  1  0
 16 15  2  0
 16 17  1  0
 17 18  2  0
 18 13  1  0
 19 17  1  0
 19 20  2  0
 21 20  1  0
 22 23  2  0
 22 21  1  0
 23 19  1  0
  2 24  1  0
  4 25  1  0
  7 26  1  0
  8 27  1  0
  9 28  1  0
 10 29  1  0
 12 30  1  0
 12 31  1  0
 13 32  1  0
 14 33  1  0
 20 34  1  0
 22 35  1  0
M  ISO  8  24  14  25  14  26  14  27  14  28  14  29  14  32  14  33  14
M  ISO  2  34  14  35  14
M  END
>  <minimizedAffinity>  (1) 
-4.72048044

>  <minimizedRMSD>  (1) 
4.50720119

$$$$
