
     RDKit          3D

 32 34  0  0  0  0  0  0  0  0999 V2000
   39.4810   24.1140   33.7690 C   0  0  0  0  0  0  0  0  0  0  0  0
   38.8400   24.5110   32.5690 C   0  0  0  0  0  0  0  0  0  0  0  0
   39.8670   24.8620   31.7410 N   0  0  0  0  0  0  0  0  0  0  0  0
   41.0250   24.6720   32.4370 C   0  0  0  0  0  0  0  0  0  0  0  0
   40.8060   24.2250   33.6510 N   0  0  0  0  0  0  0  0  0  0  0  0
   41.8520   23.9520   34.5600 C   0  0  0  0  0  0  0  0  0  0  0  0
   42.2860   22.6510   34.8540 C   0  0  0  0  0  0  0  0  0  0  0  0
   43.3070   22.3820   35.7420 C   0  0  0  0  0  0  0  0  0  0  0  0
   43.9420   23.4070   36.3800 C   0  0  0  0  0  0  0  0  0  0  0  0
   43.5630   24.7010   36.1360 C   0  0  0  0  0  0  0  0  0  0  0  0
   42.5450   24.9410   35.2480 C   0  0  0  0  0  0  0  0  0  0  0  0
   42.2000   26.2920   35.0380 N   0  0  0  0  0  0  0  0  0  0  0  0
   37.2590   22.0070   35.8930 C   0  0  0  0  0  0  0  0  0  0  0  0
   37.9930   22.4740   34.8050 C   0  0  0  0  0  0  0  0  0  0  0  0
   38.7270   23.6570   34.9290 C   0  0  0  0  0  0  0  0  0  0  0  0
   38.6880   24.3070   36.1380 N   0  0  0  0  0  0  0  0  0  0  0  0
   37.9700   23.8270   37.1660 C   0  0  0  0  0  0  0  0  0  0  0  0
   37.2630   22.6900   37.0480 N   0  0  0  0  0  0  0  0  0  0  0  0
   37.9390   24.5410   38.4620 C   0  0  0  0  0  0  0  0  0  0  0  0
   37.7614   24.5316   32.3539 H   0  0  0  0  0  0  0  0  0  0  0  0
   42.0265   24.8706   32.0277 H   0  0  0  0  0  0  0  0  0  0  0  0
   41.7896   21.8065   34.3536 H   0  0  0  0  0  0  0  0  0  0  0  0
   43.6087   21.3420   35.9354 H   0  0  0  0  0  0  0  0  0  0  0  0
   44.7563   23.1953   37.0886 H   0  0  0  0  0  0  0  0  0  0  0  0
   44.0677   25.5355   36.6448 H   0  0  0  0  0  0  0  0  0  0  0  0
   42.7043   27.0364   35.5404 H   0  0  0  0  0  0  0  0  0  0  0  0
   41.4437   26.5344   34.3822 H   0  0  0  0  0  0  0  0  0  0  0  0
   36.6761   21.0783   35.8053 H   0  0  0  0  0  0  0  0  0  0  0  0
   37.9949   21.9167   33.8567 H   0  0  0  0  0  0  0  0  0  0  0  0
   37.9707   23.8106   39.2839 H   0  0  0  0  0  0  0  0  0  0  0  0
   38.8089   25.2105   38.5327 H   0  0  0  0  0  0  0  0  0  0  0  0
   37.0143   25.1326   38.5327 H   0  0  0  0  0  0  0  0  0  0  0  0
  1 15  1  0
  2  1  2  0
  3  4  2  0
  3  2  1  0
  4  5  1  0
  5  1  1  0
  5  6  1  0
  6  7  2  0
  6 11  1  0
  7  8  1  0
  8  9  2  0
 10  9  1  0
 11 10  2  0
 12 11  1  0
 13 18  2  0
 14 15  2  0
 14 13  1  0
 15 16  1  0
 16 17  2  0
 17 19  1  0
 18 17  1  0
  2 20  1  0
  4 21  1  0
  7 22  1  0
  8 23  1  0
  9 24  1  0
 10 25  1  0
 12 26  1  0
 12 27  1  0
 13 28  1  0
 14 29  1  0
 19 30  1  0
 19 31  1  0
 19 32  1  0
M  ISO  8  20  14  21  14  22  14  23  14  24  14  25  14  28  14  29  14
M  ISO  3  30   8  31   8  32   8
M  END
>  <minimizedAffinity>  (1) 
-4.38939524

>  <minimizedRMSD>  (1) 
0.556923985

$$$$
