
     RDKit          3D

 37 40  0  0  0  0  0  0  0  0999 V2000
   39.9630   22.7960   34.1780 C   0  0  0  0  0  0  0  0  0  0  0  0
   39.4540   21.7310   33.4180 C   0  0  0  0  0  0  0  0  0  0  0  0
   40.5530   20.9990   33.0590 N   0  0  0  0  0  0  0  0  0  0  0  0
   41.6350   21.6260   33.5950 C   0  0  0  0  0  0  0  0  0  0  0  0
   41.3050   22.6960   34.2640 N   0  0  0  0  0  0  0  0  0  0  0  0
   42.2570   23.5120   34.9110 C   0  0  0  0  0  0  0  0  0  0  0  0
   42.8370   23.1860   36.1440 C   0  0  0  0  0  0  0  0  0  0  0  0
   43.7640   23.9840   36.7710 C   0  0  0  0  0  0  0  0  0  0  0  0
   44.1690   25.1580   36.2020 C   0  0  0  0  0  0  0  0  0  0  0  0
   43.6390   25.5270   35.0050 C   0  0  0  0  0  0  0  0  0  0  0  0
   42.7140   24.7190   34.3910 C   0  0  0  0  0  0  0  0  0  0  0  0
   42.2100   25.1710   33.1470 N   0  0  0  0  0  0  0  0  0  0  0  0
   38.1280   24.7950   36.7260 C   0  0  0  0  0  0  0  0  0  0  0  0
   38.9470   23.8160   36.1320 C   0  0  0  0  0  0  0  0  0  0  0  0
   39.1140   23.8180   34.7580 C   0  0  0  0  0  0  0  0  0  0  0  0
   38.4640   24.7920   34.0310 N   0  0  0  0  0  0  0  0  0  0  0  0
   37.6930   25.7070   34.6260 C   0  0  0  0  0  0  0  0  0  0  0  0
   37.5250   25.7110   35.9720 N   0  0  0  0  0  0  0  0  0  0  0  0
   37.0090   26.7340   33.8430 C   0  0  0  0  0  0  0  0  0  0  0  0
   36.6500   27.9300   34.4280 C   0  0  0  0  0  0  0  0  0  0  0  0
   36.0090   28.8370   33.6070 C   0  0  0  0  0  0  0  0  0  0  0  0
   35.7110   28.6480   32.3030 N   0  0  0  0  0  0  0  0  0  0  0  0
   36.0870   27.4580   31.7820 C   0  0  0  0  0  0  0  0  0  0  0  0
   36.7140   26.5430   32.5440 N   0  0  0  0  0  0  0  0  0  0  0  0
   38.4024   21.5292   33.1663 H   0  0  0  0  0  0  0  0  0  0  0  0
   42.6696   21.2712   33.4776 H   0  0  0  0  0  0  0  0  0  0  0  0
   42.5365   22.2477   36.6331 H   0  0  0  0  0  0  0  0  0  0  0  0
   44.1835   23.6745   37.7396 H   0  0  0  0  0  0  0  0  0  0  0  0
   44.9121   25.7950   36.7040 H   0  0  0  0  0  0  0  0  0  0  0  0
   43.9502   26.4693   34.5305 H   0  0  0  0  0  0  0  0  0  0  0  0
   42.5400   26.0627   32.7510 H   0  0  0  0  0  0  0  0  0  0  0  0
   41.5135   24.6080   32.6383 H   0  0  0  0  0  0  0  0  0  0  0  0
   37.9860   24.8028   37.8168 H   0  0  0  0  0  0  0  0  0  0  0  0
   39.4482   23.0585   36.7525 H   0  0  0  0  0  0  0  0  0  0  0  0
   36.8615   28.1486   35.4851 H   0  0  0  0  0  0  0  0  0  0  0  0
   35.7152   29.7980   34.0544 H   0  0  0  0  0  0  0  0  0  0  0  0
   35.8783   27.2358   30.7251 H   0  0  0  0  0  0  0  0  0  0  0  0
  1  5  1  0
  1 15  1  0
  2  1  2  0
  3  2  1  0
  3  4  2  0
  4  5  1  0
  5  6  1  0
  6  7  2  0
  7  8  1  0
  9  8  2  0
 10  9  1  0
 11  6  1  0
 11 10  2  0
 12 11  1  0
 14 13  2  0
 15 14  1  0
 16 17  1  0
 16 15  2  0
 17 18  2  0
 18 13  1  0
 19 20  2  0
 19 17  1  0
 21 20  1  0
 22 21  2  0
 23 22  1  0
 23 24  2  0
 24 19  1  0
  2 25  1  0
  4 26  1  0
  7 27  1  0
  8 28  1  0
  9 29  1  0
 10 30  1  0
 12 31  1  0
 12 32  1  0
 13 33  1  0
 14 34  1  0
 20 35  1  0
 21 36  1  0
 23 37  1  0
M  ISO  8  25  14  26  14  27  14  28  14  29  14  30  14  33  14  34  14
M  ISO  3  35  14  36  14  37  14
M  END
>  <minimizedAffinity>  (1) 
-4.84677744

>  <minimizedRMSD>  (1) 
3.71008515

$$$$
