
     RDKit          3D

 45 49  0  0  0  0  0  0  0  0999 V2000
   38.1790   24.7690   36.7500 C   0  0  0  0  0  0  0  0  0  0  0  0
   39.0250   23.7980   36.1800 C   0  0  0  0  0  0  0  0  0  0  0  0
   39.3420   23.8850   34.8370 C   0  0  0  0  0  0  0  0  0  0  0  0
   38.8080   24.9320   34.1110 N   0  0  0  0  0  0  0  0  0  0  0  0
   38.0110   25.8330   34.6830 C   0  0  0  0  0  0  0  0  0  0  0  0
   37.6950   25.7550   36.0000 N   0  0  0  0  0  0  0  0  0  0  0  0
   37.4520   26.9360   33.9080 C   0  0  0  0  0  0  0  0  0  0  0  0
   36.5220   27.7890   34.4670 C   0  0  0  0  0  0  0  0  0  0  0  0
   36.0570   28.7950   33.6570 C   0  0  0  0  0  0  0  0  0  0  0  0
   36.4340   29.0140   32.3680 N   0  0  0  0  0  0  0  0  0  0  0  0
   37.3410   28.1590   31.8690 C   0  0  0  0  0  0  0  0  0  0  0  0
   37.8260   27.1550   32.6320 N   0  0  0  0  0  0  0  0  0  0  0  0
   37.7970   28.3270   30.4930 C   0  0  0  0  0  0  0  0  0  0  0  0
   37.2580   29.2860   29.6700 C   0  0  0  0  0  0  0  0  0  0  0  0
   37.7760   29.3460   28.3870 C   0  0  0  0  0  0  0  0  0  0  0  0
   38.7480   28.4990   28.0050 N   0  0  0  0  0  0  0  0  0  0  0  0
   39.2670   27.5690   28.8100 C   0  0  0  0  0  0  0  0  0  0  0  0
   38.7700   27.4940   30.0800 N   0  0  0  0  0  0  0  0  0  0  0  0
   40.2160   22.8650   34.2850 C   0  0  0  0  0  0  0  0  0  0  0  0
   39.7230   21.7820   33.5420 C   0  0  0  0  0  0  0  0  0  0  0  0
   40.8360   21.0610   33.2040 N   0  0  0  0  0  0  0  0  0  0  0  0
   41.9050   21.7160   33.7390 C   0  0  0  0  0  0  0  0  0  0  0  0
   41.5530   22.7910   34.3850 N   0  0  0  0  0  0  0  0  0  0  0  0
   42.4850   23.6350   35.0260 C   0  0  0  0  0  0  0  0  0  0  0  0
   43.0500   23.3440   36.2790 C   0  0  0  0  0  0  0  0  0  0  0  0
   43.9530   24.1660   36.8960 C   0  0  0  0  0  0  0  0  0  0  0  0
   44.3530   25.3260   36.3150 C   0  0  0  0  0  0  0  0  0  0  0  0
   43.8390   25.6630   35.0990 C   0  0  0  0  0  0  0  0  0  0  0  0
   42.9350   24.8320   34.4880 C   0  0  0  0  0  0  0  0  0  0  0  0
   42.4460   25.2450   33.2290 N   0  0  0  0  0  0  0  0  0  0  0  0
   37.9181   24.7118   37.8171 H   0  0  0  0  0  0  0  0  0  0  0  0
   39.4285   22.9806   36.7956 H   0  0  0  0  0  0  0  0  0  0  0  0
   36.1731   27.6694   35.5033 H   0  0  0  0  0  0  0  0  0  0  0  0
   35.3152   29.4839   34.0873 H   0  0  0  0  0  0  0  0  0  0  0  0
   36.4626   29.9656   30.0098 H   0  0  0  0  0  0  0  0  0  0  0  0
   37.3899   30.0912   27.6760 H   0  0  0  0  0  0  0  0  0  0  0  0
   40.0618   26.8914   28.4649 H   0  0  0  0  0  0  0  0  0  0  0  0
   38.6757   21.5616   33.2878 H   0  0  0  0  0  0  0  0  0  0  0  0
   42.9460   21.3757   33.6369 H   0  0  0  0  0  0  0  0  0  0  0  0
   42.7532   22.4142   36.7864 H   0  0  0  0  0  0  0  0  0  0  0  0
   44.3610   23.8828   37.8775 H   0  0  0  0  0  0  0  0  0  0  0  0
   45.0792   25.9822   36.8171 H   0  0  0  0  0  0  0  0  0  0  0  0
   44.1479   26.5982   34.6091 H   0  0  0  0  0  0  0  0  0  0  0  0
   42.7703   26.1311   32.8160 H   0  0  0  0  0  0  0  0  0  0  0  0
   41.7651   24.6601   32.7239 H   0  0  0  0  0  0  0  0  0  0  0  0
  2  1  2  0
  3  2  1  0
  4  5  1  0
  4  3  2  0
  5  6  2  0
  6  1  1  0
  7  8  2  0
  7  5  1  0
  9  8  1  0
 10  9  2  0
 11 10  1  0
 11 12  2  0
 12  7  1  0
 13 11  1  0
 14 13  2  0
 15 14  1  0
 16 15  2  0
 16 17  1  0
 17 18  2  0
 18 13  1  0
 19 23  1  0
 19  3  1  0
 20 19  2  0
 21 20  1  0
 21 22  2  0
 22 23  1  0
 23 24  1  0
 24 25  2  0
 25 26  1  0
 27 26  2  0
 28 27  1  0
 29 24  1  0
 29 28  2  0
 30 29  1  0
  1 31  1  0
  2 32  1  0
  8 33  1  0
  9 34  1  0
 14 35  1  0
 15 36  1  0
 17 37  1  0
 20 38  1  0
 22 39  1  0
 25 40  1  0
 26 41  1  0
 27 42  1  0
 28 43  1  0
 30 44  1  0
 30 45  1  0
M  ISO  8  31  14  32  14  33  14  34  14  35  14  36  14  37  14  38  14
M  ISO  5  39  14  40  14  41  14  42  14  43  14
M  END
>  <minimizedAffinity>  (1) 
-5.65095472

>  <minimizedRMSD>  (1) 
1.54120743

$$$$
