
     RDKit          3D

 40 43  0  0  0  0  0  0  0  0999 V2000
   40.7840   22.5480   34.4450 C   0  0  0  0  0  0  0  0  0  0  0  0
   40.4420   21.4340   33.6800 C   0  0  0  0  0  0  0  0  0  0  0  0
   41.6430   20.9030   33.2840 N   0  0  0  0  0  0  0  0  0  0  0  0
   42.6140   21.6910   33.8070 C   0  0  0  0  0  0  0  0  0  0  0  0
   42.1240   22.6780   34.5030 N   0  0  0  0  0  0  0  0  0  0  0  0
   42.9440   23.6390   35.1510 C   0  0  0  0  0  0  0  0  0  0  0  0
   43.4950   23.4100   36.4270 C   0  0  0  0  0  0  0  0  0  0  0  0
   44.2930   24.3430   37.0600 C   0  0  0  0  0  0  0  0  0  0  0  0
   44.5790   25.5400   36.4580 C   0  0  0  0  0  0  0  0  0  0  0  0
   44.0640   25.7920   35.2260 C   0  0  0  0  0  0  0  0  0  0  0  0
   43.2720   24.8630   34.6020 C   0  0  0  0  0  0  0  0  0  0  0  0
   42.7730   25.1970   33.3240 N   0  0  0  0  0  0  0  0  0  0  0  0
   38.5770   24.0620   37.0450 C   0  0  0  0  0  0  0  0  0  0  0  0
   39.5380   23.2410   36.4130 C   0  0  0  0  0  0  0  0  0  0  0  0
   39.7920   23.4070   35.0640 C   0  0  0  0  0  0  0  0  0  0  0  0
   39.0820   24.3800   34.4050 N   0  0  0  0  0  0  0  0  0  0  0  0
   38.1810   25.1440   35.0170 C   0  0  0  0  0  0  0  0  0  0  0  0
   37.9300   24.9820   36.3430 N   0  0  0  0  0  0  0  0  0  0  0  0
   37.4380   26.1720   34.2940 C   0  0  0  0  0  0  0  0  0  0  0  0
   37.1410   27.3760   34.8990 C   0  0  0  0  0  0  0  0  0  0  0  0
   36.4390   28.2880   34.1470 C   0  0  0  0  0  0  0  0  0  0  0  0
   36.0230   28.0930   32.8700 N   0  0  0  0  0  0  0  0  0  0  0  0
   36.3430   26.8960   32.3300 C   0  0  0  0  0  0  0  0  0  0  0  0
   37.0260   25.9770   33.0280 N   0  0  0  0  0  0  0  0  0  0  0  0
   35.9010   26.6710   30.9540 C   0  0  0  0  0  0  0  0  0  0  0  0
   35.1640   25.7040   30.7020 O   0  0  0  0  0  0  0  0  0  0  0  0
   36.3280   27.5630   29.9650 O   0  0  0  0  0  0  0  0  0  0  0  0
   39.4332   21.0632   33.4460 H   0  0  0  0  0  0  0  0  0  0  0  0
   43.6904   21.5176   33.6610 H   0  0  0  0  0  0  0  0  0  0  0  0
   43.2830   22.4579   36.9355 H   0  0  0  0  0  0  0  0  0  0  0  0
   44.7027   24.1229   38.0568 H   0  0  0  0  0  0  0  0  0  0  0  0
   45.2137   26.2833   36.9626 H   0  0  0  0  0  0  0  0  0  0  0  0
   44.2839   26.7470   34.7264 H   0  0  0  0  0  0  0  0  0  0  0  0
   43.0084   26.1060   32.9006 H   0  0  0  0  0  0  0  0  0  0  0  0
   42.1736   24.5317   32.8151 H   0  0  0  0  0  0  0  0  0  0  0  0
   38.3661   23.9380   38.1175 H   0  0  0  0  0  0  0  0  0  0  0  0
   40.0794   22.4763   36.9894 H   0  0  0  0  0  0  0  0  0  0  0  0
   37.4505   27.5952   35.9316 H   0  0  0  0  0  0  0  0  0  0  0  0
   36.1952   29.2519   34.6175 H   0  0  0  0  0  0  0  0  0  0  0  0
   36.0435   27.4338   29.0256 H   0  0  0  0  0  0  0  0  0  0  0  0
  1  5  1  0
  1 15  1  0
  2  1  2  0
  3  2  1  0
  3  4  2  0
  4  5  1  0
  5  6  1  0
  6  7  2  0
  7  8  1  0
  9  8  2  0
 10  9  1  0
 11  6  1  0
 11 10  2  0
 12 11  1  0
 14 13  2  0
 15 14  1  0
 16 17  1  0
 16 15  2  0
 17 18  2  0
 18 13  1  0
 19 20  2  0
 19 17  1  0
 21 20  1  0
 22 21  2  0
 23 22  1  0
 23 24  2  0
 24 19  1  0
 25 23  1  0
 26 25  2  0
 27 25  1  0
  2 28  1  0
  4 29  1  0
  7 30  1  0
  8 31  1  0
  9 32  1  0
 10 33  1  0
 12 34  1  0
 12 35  1  0
 13 36  1  0
 14 37  1  0
 20 38  1  0
 21 39  1  0
 27 40  1  0
M  ISO  8  28  14  29  14  30  14  31  14  32  14  33  14  36  14  37  14
M  ISO  3  38  14  39  14  40   3
M  END
>  <minimizedAffinity>  (1) 
-5.63150549

>  <minimizedRMSD>  (1) 
0.847252727

$$$$
