
     RDKit          3D

 44 48  0  0  0  0  0  0  0  0999 V2000
   38.1640   24.7920   36.7220 C   0  0  0  0  0  0  0  0  0  0  0  0
   39.0000   23.8220   36.1410 C   0  0  0  0  0  0  0  0  0  0  0  0
   39.3020   23.9110   34.7940 C   0  0  0  0  0  0  0  0  0  0  0  0
   38.7640   24.9570   34.0790 N   0  0  0  0  0  0  0  0  0  0  0  0
   37.9750   25.8620   34.6560 C   0  0  0  0  0  0  0  0  0  0  0  0
   37.6710   25.7830   35.9830 N   0  0  0  0  0  0  0  0  0  0  0  0
   37.4070   26.9720   33.8880 C   0  0  0  0  0  0  0  0  0  0  0  0
   36.5170   27.8500   34.4790 C   0  0  0  0  0  0  0  0  0  0  0  0
   36.0410   28.8580   33.6720 C   0  0  0  0  0  0  0  0  0  0  0  0
   36.3640   29.0550   32.3830 N   0  0  0  0  0  0  0  0  0  0  0  0
   37.2340   28.1770   31.8510 C   0  0  0  0  0  0  0  0  0  0  0  0
   37.7340   27.1670   32.5950 N   0  0  0  0  0  0  0  0  0  0  0  0
   37.6460   28.3080   30.4560 C   0  0  0  0  0  0  0  0  0  0  0  0
   37.2870   29.3290   29.6000 C   0  0  0  0  0  0  0  0  0  0  0  0
   37.8170   29.1880   28.3710 N   0  0  0  0  0  0  0  0  0  0  0  0
   38.5360   28.0370   28.4550 C   0  0  0  0  0  0  0  0  0  0  0  0
   38.4370   27.5040   29.7070 N   0  0  0  0  0  0  0  0  0  0  0  0
   40.1640   22.8980   34.2240 C   0  0  0  0  0  0  0  0  0  0  0  0
   39.6830   21.8290   33.4550 C   0  0  0  0  0  0  0  0  0  0  0  0
   40.7990   21.1110   33.1110 N   0  0  0  0  0  0  0  0  0  0  0  0
   41.8650   21.7440   33.6590 C   0  0  0  0  0  0  0  0  0  0  0  0
   41.5150   22.8150   34.3290 N   0  0  0  0  0  0  0  0  0  0  0  0
   42.4480   23.6380   34.9880 C   0  0  0  0  0  0  0  0  0  0  0  0
   43.0110   23.3190   36.2330 C   0  0  0  0  0  0  0  0  0  0  0  0
   43.9200   24.1300   36.8650 C   0  0  0  0  0  0  0  0  0  0  0  0
   44.3240   25.3030   36.3060 C   0  0  0  0  0  0  0  0  0  0  0  0
   43.8090   25.6630   35.0990 C   0  0  0  0  0  0  0  0  0  0  0  0
   42.9030   24.8500   34.4700 C   0  0  0  0  0  0  0  0  0  0  0  0
   42.4120   25.2900   33.2170 N   0  0  0  0  0  0  0  0  0  0  0  0
   37.9164   24.7314   37.7921 H   0  0  0  0  0  0  0  0  0  0  0  0
   39.4088   23.0024   36.7502 H   0  0  0  0  0  0  0  0  0  0  0  0
   36.2084   27.7489   35.5300 H   0  0  0  0  0  0  0  0  0  0  0  0
   35.3314   29.5670   34.1236 H   0  0  0  0  0  0  0  0  0  0  0  0
   36.6376   30.1678   29.8908 H   0  0  0  0  0  0  0  0  0  0  0  0
   39.1157   27.5976   27.6299 H   0  0  0  0  0  0  0  0  0  0  0  0
   38.8883   26.6357   30.0284 H   0  0  0  0  0  0  0  0  0  0  0  0
   38.6383   21.6135   33.1863 H   0  0  0  0  0  0  0  0  0  0  0  0
   42.9041   21.3988   33.5536 H   0  0  0  0  0  0  0  0  0  0  0  0
   42.7115   22.3805   36.7225 H   0  0  0  0  0  0  0  0  0  0  0  0
   44.3290   23.8266   37.8400 H   0  0  0  0  0  0  0  0  0  0  0  0
   45.0525   25.9475   36.8197 H   0  0  0  0  0  0  0  0  0  0  0  0
   44.1202   26.6071   34.6280 H   0  0  0  0  0  0  0  0  0  0  0  0
   42.7383   26.1830   32.8208 H   0  0  0  0  0  0  0  0  0  0  0  0
   41.7285   24.7171   32.7017 H   0  0  0  0  0  0  0  0  0  0  0  0
  2  1  2  0
  3  2  1  0
  4  5  1  0
  4  3  2  0
  5  6  2  0
  6  1  1  0
  7  8  2  0
  7  5  1  0
  9  8  1  0
 10  9  2  0
 11 10  1  0
 11 12  2  0
 12  7  1  0
 13 11  1  0
 14 13  2  0
 15 16  2  0
 15 14  1  0
 16 17  1  0
 17 13  1  0
 18 22  1  0
 18  3  1  0
 19 18  2  0
 20 19  1  0
 20 21  2  0
 21 22  1  0
 22 23  1  0
 23 24  2  0
 24 25  1  0
 26 25  2  0
 27 26  1  0
 28 23  1  0
 28 27  2  0
 29 28  1  0
  1 30  1  0
  2 31  1  0
  8 32  1  0
  9 33  1  0
 14 34  1  0
 16 35  1  0
 17 36  1  0
 19 37  1  0
 21 38  1  0
 24 39  1  0
 25 40  1  0
 26 41  1  0
 27 42  1  0
 29 43  1  0
 29 44  1  0
M  ISO  8  30  14  31  14  32  14  33  14  34  14  35  14  36   9  37  14
M  ISO  5  38  14  39  14  40  14  41  14  42  14
M  END
>  <minimizedAffinity>  (1) 
-5.48442936

>  <minimizedRMSD>  (1) 
1.29536402

$$$$
