
     RDKit          3D

 40 42  0  0  0  0  0  0  0  0999 V2000
   40.6750   26.5770   34.6680 C   0  0  0  0  0  0  0  0  0  0  0  0
   39.3520   27.0150   34.1430 C   0  0  0  0  0  0  0  0  0  0  0  0
   38.2830   27.1960   35.0190 C   0  0  0  0  0  0  0  0  0  0  0  0
   37.0130   27.6010   34.6370 C   0  0  0  0  0  0  0  0  0  0  0  0
   36.8210   27.8330   33.2990 N   0  0  0  0  0  0  0  0  0  0  0  0
   37.8490   27.6610   32.4440 C   0  0  0  0  0  0  0  0  0  0  0  0
   39.0880   27.2590   32.8680 N   0  0  0  0  0  0  0  0  0  0  0  0
   37.6870   27.8970   31.0100 C   0  0  0  0  0  0  0  0  0  0  0  0
   38.7800   28.1850   30.2100 C   0  0  0  0  0  0  0  0  0  0  0  0
   38.3310   28.3610   28.8950 C   0  0  0  0  0  0  0  0  0  0  0  0
   36.9960   28.1740   28.9580 N   0  0  0  0  0  0  0  0  0  0  0  0
   36.5940   27.8990   30.1930 N   0  0  0  0  0  0  0  0  0  0  0  0
   41.0880   25.2240   34.1260 C   0  0  0  0  0  0  0  0  0  0  0  0
   42.0490   22.6000   36.6040 C   0  0  0  0  0  0  0  0  0  0  0  0
   40.8460   22.4430   37.3070 C   0  0  0  0  0  0  0  0  0  0  0  0
   39.7440   23.2130   36.9390 C   0  0  0  0  0  0  0  0  0  0  0  0
   39.8750   24.0870   35.9150 N   0  0  0  0  0  0  0  0  0  0  0  0
   41.0670   24.2170   35.2480 C   0  0  0  0  0  0  0  0  0  0  0  0
   42.1350   23.4890   35.5840 N   0  0  0  0  0  0  0  0  0  0  0  0
   38.4230   23.1200   37.6230 C   0  0  0  0  0  0  0  0  0  0  0  0
   37.4370   24.0250   36.9430 C   0  0  0  0  0  0  0  0  0  0  0  0
   38.6360   23.6700   39.0370 C   0  0  0  0  0  0  0  0  0  0  0  0
   41.4335   27.3200   34.3805 H   0  0  0  0  0  0  0  0  0  0  0  0
   40.5920   26.4910   35.7615 H   0  0  0  0  0  0  0  0  0  0  0  0
   38.4591   27.0042   36.0877 H   0  0  0  0  0  0  0  0  0  0  0  0
   36.2019   27.7295   35.3689 H   0  0  0  0  0  0  0  0  0  0  0  0
   39.8234   28.2624   30.5495 H   0  0  0  0  0  0  0  0  0  0  0  0
   38.9339   28.5992   28.0064 H   0  0  0  0  0  0  0  0  0  0  0  0
   36.3653   28.2370   28.1461 H   0  0  0  0  0  0  0  0  0  0  0  0
   40.3862   24.9127   33.3382 H   0  0  0  0  0  0  0  0  0  0  0  0
   42.1015   25.2873   33.7031 H   0  0  0  0  0  0  0  0  0  0  0  0
   42.9274   21.9988   36.8815 H   0  0  0  0  0  0  0  0  0  0  0  0
   40.7731   21.7235   38.1359 H   0  0  0  0  0  0  0  0  0  0  0  0
   38.0506   22.0850   37.6118 H   0  0  0  0  0  0  0  0  0  0  0  0
   36.8501   24.5637   37.7015 H   0  0  0  0  0  0  0  0  0  0  0  0
   37.9765   24.7489   36.3146 H   0  0  0  0  0  0  0  0  0  0  0  0
   36.7619   23.4255   36.3146 H   0  0  0  0  0  0  0  0  0  0  0  0
   38.3413   22.9091   39.7747 H   0  0  0  0  0  0  0  0  0  0  0  0
   39.6973   23.9236   39.1758 H   0  0  0  0  0  0  0  0  0  0  0  0
   38.0223   24.5723   39.1758 H   0  0  0  0  0  0  0  0  0  0  0  0
  2  1  1  0
  2  3  2  0
  4  3  1  0
  5  4  2  0
  6  7  2  0
  6  5  1  0
  7  2  1  0
  8  6  1  0
  9  8  1  0
 10 11  1  0
 10  9  2  0
 11 12  1  0
 12  8  2  0
 13  1  1  0
 13 18  1  0
 14 15  2  0
 16 15  1  0
 16 20  1  0
 17 16  2  0
 18 19  2  0
 18 17  1  0
 19 14  1  0
 20 22  1  0
 21 20  1  0
  1 23  1  0
  1 24  1  0
  3 25  1  0
  4 26  1  0
  9 27  1  0
 10 28  1  0
 11 29  1  0
 13 30  1  0
 13 31  1  0
 14 32  1  0
 15 33  1  0
 20 34  1  0
 21 35  1  0
 21 36  1  0
 21 37  1  0
 22 38  1  0
 22 39  1  0
 22 40  1  0
M  ISO  8  23   8  24   8  25  14  26  14  27  14  28  14  29   9  30   8
M  ISO  8  31   8  32  14  33  14  34   8  35   8  36   8  37   8  38   8
M  ISO  2  39   8  40   8
M  END
>  <minimizedAffinity>  (1) 
-5.36705542

>  <minimizedRMSD>  (1) 
1.82746911

$$$$
