
     RDKit          3D

 42 46  0  0  0  0  0  0  0  0999 V2000
   38.1700   24.7800   36.7520 C   0  0  0  0  0  0  0  0  0  0  0  0
   39.0110   23.8050   36.1730 C   0  0  0  0  0  0  0  0  0  0  0  0
   39.3190   23.8920   34.8260 C   0  0  0  0  0  0  0  0  0  0  0  0
   38.7880   24.9370   34.1000 N   0  0  0  0  0  0  0  0  0  0  0  0
   37.9890   25.8490   34.6840 C   0  0  0  0  0  0  0  0  0  0  0  0
   37.6840   25.7650   36.0110 N   0  0  0  0  0  0  0  0  0  0  0  0
   37.4330   26.9460   33.9140 C   0  0  0  0  0  0  0  0  0  0  0  0
   36.5250   27.8130   34.4790 C   0  0  0  0  0  0  0  0  0  0  0  0
   36.0460   28.8260   33.6820 C   0  0  0  0  0  0  0  0  0  0  0  0
   36.3950   29.0340   32.4000 N   0  0  0  0  0  0  0  0  0  0  0  0
   37.2910   28.1600   31.8850 C   0  0  0  0  0  0  0  0  0  0  0  0
   37.7850   27.1500   32.6380 N   0  0  0  0  0  0  0  0  0  0  0  0
   37.8070   28.1990   30.5200 C   0  0  0  0  0  0  0  0  0  0  0  0
   38.7700   27.5810   29.8130 N   0  0  0  0  0  0  0  0  0  0  0  0
   38.7660   28.0430   28.5910 O   0  0  0  0  0  0  0  0  0  0  0  0
   37.8220   28.9660   28.4490 C   0  0  0  0  0  0  0  0  0  0  0  0
   37.2220   29.0630   29.6540 N   0  0  0  0  0  0  0  0  0  0  0  0
   40.1830   22.8760   34.2680 C   0  0  0  0  0  0  0  0  0  0  0  0
   39.6960   21.7930   33.5240 C   0  0  0  0  0  0  0  0  0  0  0  0
   40.8140   21.0680   33.1790 N   0  0  0  0  0  0  0  0  0  0  0  0
   41.8880   21.7280   33.7160 C   0  0  0  0  0  0  0  0  0  0  0  0
   41.5330   22.7970   34.3610 N   0  0  0  0  0  0  0  0  0  0  0  0
   42.4670   23.6420   35.0010 C   0  0  0  0  0  0  0  0  0  0  0  0
   43.0370   23.3440   36.2510 C   0  0  0  0  0  0  0  0  0  0  0  0
   43.9450   24.1580   36.8800 C   0  0  0  0  0  0  0  0  0  0  0  0
   44.3400   25.3270   36.2930 C   0  0  0  0  0  0  0  0  0  0  0  0
   43.8220   25.6660   35.0820 C   0  0  0  0  0  0  0  0  0  0  0  0
   42.9160   24.8410   34.4700 C   0  0  0  0  0  0  0  0  0  0  0  0
   42.4140   25.2550   33.2080 N   0  0  0  0  0  0  0  0  0  0  0  0
   37.9176   24.7218   37.8211 H   0  0  0  0  0  0  0  0  0  0  0  0
   39.4168   22.9859   36.7849 H   0  0  0  0  0  0  0  0  0  0  0  0
   36.1969   27.7002   35.5229 H   0  0  0  0  0  0  0  0  0  0  0  0
   35.3198   29.5213   34.1284 H   0  0  0  0  0  0  0  0  0  0  0  0
   37.5794   29.5336   27.5385 H   0  0  0  0  0  0  0  0  0  0  0  0
   38.6488   21.5708   33.2709 H   0  0  0  0  0  0  0  0  0  0  0  0
   42.9300   21.3911   33.6125 H   0  0  0  0  0  0  0  0  0  0  0  0
   42.7398   22.4101   36.7506 H   0  0  0  0  0  0  0  0  0  0  0  0
   44.3557   23.8690   37.8587 H   0  0  0  0  0  0  0  0  0  0  0  0
   45.0666   25.9845   36.7928 H   0  0  0  0  0  0  0  0  0  0  0  0
   44.1306   26.6024   34.5942 H   0  0  0  0  0  0  0  0  0  0  0  0
   42.7326   26.1421   32.7928 H   0  0  0  0  0  0  0  0  0  0  0  0
   41.7312   24.6682   32.7077 H   0  0  0  0  0  0  0  0  0  0  0  0
  2  1  2  0
  3  2  1  0
  4  5  1  0
  4  3  2  0
  5  6  2  0
  6  1  1  0
  7  8  2  0
  7  5  1  0
  9  8  1  0
 10  9  2  0
 11 10  1  0
 11 12  2  0
 12  7  1  0
 13 11  1  0
 14 13  2  0
 15 14  1  0
 16 15  1  0
 16 17  2  0
 17 13  1  0
 18 22  1  0
 18  3  1  0
 19 18  2  0
 20 19  1  0
 20 21  2  0
 21 22  1  0
 22 23  1  0
 23 24  2  0
 24 25  1  0
 26 25  2  0
 27 26  1  0
 28 23  1  0
 28 27  2  0
 29 28  1  0
  1 30  1  0
  2 31  1  0
  8 32  1  0
  9 33  1  0
 16 34  1  0
 19 35  1  0
 21 36  1  0
 24 37  1  0
 25 38  1  0
 26 39  1  0
 27 40  1  0
 29 41  1  0
 29 42  1  0
M  ISO  8  30  14  31  14  32  14  33  14  34  14  35  14  36  14  37  14
M  ISO  3  38  14  39  14  40  14
M  END
>  <minimizedAffinity>  (1) 
-5.43674231

>  <minimizedRMSD>  (1) 
1.29058456

$$$$
