
     RDKit          3D

 43 47  0  0  0  0  0  0  0  0999 V2000
   38.1670   24.7860   36.7400 C   0  0  0  0  0  0  0  0  0  0  0  0
   39.0100   23.8120   36.1810 C   0  0  0  0  0  0  0  0  0  0  0  0
   39.3420   23.8820   34.8300 C   0  0  0  0  0  0  0  0  0  0  0  0
   38.8110   24.9270   34.1080 N   0  0  0  0  0  0  0  0  0  0  0  0
   38.0130   25.8380   34.6670 C   0  0  0  0  0  0  0  0  0  0  0  0
   37.6930   25.7670   35.9790 N   0  0  0  0  0  0  0  0  0  0  0  0
   37.4560   26.9460   33.8810 C   0  0  0  0  0  0  0  0  0  0  0  0
   36.5070   27.7780   34.4100 C   0  0  0  0  0  0  0  0  0  0  0  0
   36.0480   28.7860   33.5940 C   0  0  0  0  0  0  0  0  0  0  0  0
   36.4500   29.0170   32.3350 N   0  0  0  0  0  0  0  0  0  0  0  0
   37.3930   28.1640   31.8580 C   0  0  0  0  0  0  0  0  0  0  0  0
   37.8610   27.1720   32.6270 N   0  0  0  0  0  0  0  0  0  0  0  0
   37.8660   28.3840   30.4690 C   0  0  0  0  0  0  0  0  0  0  0  0
   38.8630   27.6290   29.6880 C   0  0  0  0  0  0  0  0  0  0  0  0
   38.7870   28.6020   28.1350 S   0  0  0  0  0  0  0  0  0  0  0  0
   37.5620   29.7450   28.7170 C   0  0  0  0  0  0  0  0  0  0  0  0
   37.2210   29.4470   29.9640 N   0  0  0  0  0  0  0  0  0  0  0  0
   40.2080   22.8670   34.2890 C   0  0  0  0  0  0  0  0  0  0  0  0
   39.7290   21.7800   33.5420 C   0  0  0  0  0  0  0  0  0  0  0  0
   40.8330   21.0530   33.2120 N   0  0  0  0  0  0  0  0  0  0  0  0
   41.9070   21.7100   33.7560 C   0  0  0  0  0  0  0  0  0  0  0  0
   41.5460   22.7810   34.3940 N   0  0  0  0  0  0  0  0  0  0  0  0
   42.4800   23.6250   35.0390 C   0  0  0  0  0  0  0  0  0  0  0  0
   43.0440   23.3430   36.2920 C   0  0  0  0  0  0  0  0  0  0  0  0
   43.9510   24.1730   36.9090 C   0  0  0  0  0  0  0  0  0  0  0  0
   44.3510   25.3270   36.3190 C   0  0  0  0  0  0  0  0  0  0  0  0
   43.8430   25.6620   35.0990 C   0  0  0  0  0  0  0  0  0  0  0  0
   42.9400   24.8260   34.4970 C   0  0  0  0  0  0  0  0  0  0  0  0
   42.4500   25.2370   33.2240 N   0  0  0  0  0  0  0  0  0  0  0  0
   37.8994   24.7371   37.8058 H   0  0  0  0  0  0  0  0  0  0  0  0
   39.4060   22.9983   36.8064 H   0  0  0  0  0  0  0  0  0  0  0  0
   36.1304   27.6475   35.4353 H   0  0  0  0  0  0  0  0  0  0  0  0
   35.2854   29.4610   34.0097 H   0  0  0  0  0  0  0  0  0  0  0  0
   39.4680   26.7501   29.9553 H   0  0  0  0  0  0  0  0  0  0  0  0
   37.1464   30.5778   28.1307 H   0  0  0  0  0  0  0  0  0  0  0  0
   38.6836   21.5612   33.2786 H   0  0  0  0  0  0  0  0  0  0  0  0
   42.9490   21.3701   33.6628 H   0  0  0  0  0  0  0  0  0  0  0  0
   42.7475   22.4160   36.8045 H   0  0  0  0  0  0  0  0  0  0  0  0
   44.3571   23.8973   37.8934 H   0  0  0  0  0  0  0  0  0  0  0  0
   45.0769   25.9850   36.8191 H   0  0  0  0  0  0  0  0  0  0  0  0
   44.1548   26.5933   34.6035 H   0  0  0  0  0  0  0  0  0  0  0  0
   42.7772   26.1201   32.8068 H   0  0  0  0  0  0  0  0  0  0  0  0
   41.7686   24.6511   32.7208 H   0  0  0  0  0  0  0  0  0  0  0  0
  2  1  2  0
  3  2  1  0
  4  5  1  0
  4  3  2  0
  5  6  2  0
  6  1  1  0
  7  8  2  0
  7  5  1  0
  9  8  1  0
 10  9  2  0
 11 10  1  0
 11 12  2  0
 12  7  1  0
 13 11  1  0
 14 13  2  0
 15 16  1  0
 15 14  1  0
 16 17  2  0
 17 13  1  0
 18 22  1  0
 18  3  1  0
 19 18  2  0
 20 19  1  0
 20 21  2  0
 21 22  1  0
 22 23  1  0
 23 24  2  0
 24 25  1  0
 26 25  2  0
 27 26  1  0
 28 23  1  0
 28 27  2  0
 29 28  1  0
  1 30  1  0
  2 31  1  0
  8 32  1  0
  9 33  1  0
 14 34  1  0
 16 35  1  0
 19 36  1  0
 21 37  1  0
 24 38  1  0
 25 39  1  0
 26 40  1  0
 27 41  1  0
 29 42  1  0
 29 43  1  0
M  ISO  8  30  14  31  14  32  14  33  14  34  14  35  14  36  14  37  14
M  ISO  4  38  14  39  14  40  14  41  14
M  END
>  <minimizedAffinity>  (1) 
-5.4021697

>  <minimizedRMSD>  (1) 
1.37537098

$$$$
