
     RDKit          3D

 39 42  0  0  0  0  0  0  0  0999 V2000
   40.1200   22.7920   34.2110 C   0  0  0  0  0  0  0  0  0  0  0  0
   39.6520   21.7020   33.4610 C   0  0  0  0  0  0  0  0  0  0  0  0
   40.7710   20.9850   33.1420 N   0  0  0  0  0  0  0  0  0  0  0  0
   41.8210   21.6480   33.6930 C   0  0  0  0  0  0  0  0  0  0  0  0
   41.4700   22.7210   34.3320 N   0  0  0  0  0  0  0  0  0  0  0  0
   42.3890   23.5630   34.9800 C   0  0  0  0  0  0  0  0  0  0  0  0
   42.9550   23.2710   36.2220 C   0  0  0  0  0  0  0  0  0  0  0  0
   43.8530   24.0980   36.8490 C   0  0  0  0  0  0  0  0  0  0  0  0
   44.2440   25.2680   36.2800 C   0  0  0  0  0  0  0  0  0  0  0  0
   43.7240   25.6060   35.0660 C   0  0  0  0  0  0  0  0  0  0  0  0
   42.8330   24.7750   34.4540 C   0  0  0  0  0  0  0  0  0  0  0  0
   42.3300   25.1880   33.1900 N   0  0  0  0  0  0  0  0  0  0  0  0
   38.1750   24.7900   36.6820 C   0  0  0  0  0  0  0  0  0  0  0  0
   39.0240   23.8160   36.1190 C   0  0  0  0  0  0  0  0  0  0  0  0
   39.2370   23.8120   34.7520 C   0  0  0  0  0  0  0  0  0  0  0  0
   38.6070   24.7680   33.9980 N   0  0  0  0  0  0  0  0  0  0  0  0
   37.8060   25.6810   34.5570 C   0  0  0  0  0  0  0  0  0  0  0  0
   37.5880   25.6940   35.9010 N   0  0  0  0  0  0  0  0  0  0  0  0
   37.1420   26.6910   33.7370 C   0  0  0  0  0  0  0  0  0  0  0  0
   36.6530   27.8420   34.3250 C   0  0  0  0  0  0  0  0  0  0  0  0
   36.0420   28.7400   33.4830 C   0  0  0  0  0  0  0  0  0  0  0  0
   35.8850   28.5930   32.1560 N   0  0  0  0  0  0  0  0  0  0  0  0
   36.3820   27.4480   31.6340 C   0  0  0  0  0  0  0  0  0  0  0  0
   36.9870   26.5370   32.4070 N   0  0  0  0  0  0  0  0  0  0  0  0
   36.2230   27.2780   30.2300 N   0  0  0  0  0  0  0  0  0  0  0  0
   38.6108   21.4742   33.1890 H   0  0  0  0  0  0  0  0  0  0  0  0
   42.8639   21.3091   33.6060 H   0  0  0  0  0  0  0  0  0  0  0  0
   42.6678   22.3341   36.7217 H   0  0  0  0  0  0  0  0  0  0  0  0
   44.2628   23.8088   37.8280 H   0  0  0  0  0  0  0  0  0  0  0  0
   44.9636   25.9275   36.7872 H   0  0  0  0  0  0  0  0  0  0  0  0
   44.0226   26.5472   34.5812 H   0  0  0  0  0  0  0  0  0  0  0  0
   42.6413   26.0792   32.7781 H   0  0  0  0  0  0  0  0  0  0  0  0
   41.6543   24.5960   32.6862 H   0  0  0  0  0  0  0  0  0  0  0  0
   37.9974   24.8031   37.7675 H   0  0  0  0  0  0  0  0  0  0  0  0
   39.5121   23.0669   36.7597 H   0  0  0  0  0  0  0  0  0  0  0  0
   36.7474   28.0287   35.4049 H   0  0  0  0  0  0  0  0  0  0  0  0
   35.6461   29.6613   33.9352 H   0  0  0  0  0  0  0  0  0  0  0  0
   36.5794   26.4278   29.7705 H   0  0  0  0  0  0  0  0  0  0  0  0
   35.7515   28.0051   29.6733 H   0  0  0  0  0  0  0  0  0  0  0  0
  1  5  1  0
  1 15  1  0
  2  1  2  0
  3  2  1  0
  3  4  2  0
  4  5  1  0
  5  6  1  0
  6  7  2  0
  7  8  1  0
  9  8  2  0
 10  9  1  0
 11  6  1  0
 11 10  2  0
 12 11  1  0
 14 13  2  0
 15 14  1  0
 16 17  1  0
 16 15  2  0
 17 18  2  0
 18 13  1  0
 19 20  2  0
 19 17  1  0
 21 20  1  0
 22 21  2  0
 23 22  1  0
 23 24  2  0
 24 19  1  0
 25 23  1  0
  2 26  1  0
  4 27  1  0
  7 28  1  0
  8 29  1  0
  9 30  1  0
 10 31  1  0
 12 32  1  0
 12 33  1  0
 13 34  1  0
 14 35  1  0
 20 36  1  0
 21 37  1  0
 25 38  1  0
 25 39  1  0
M  ISO  8  26  14  27  14  28  14  29  14  30  14  31  14  34  14  35  14
M  ISO  2  36  14  37  14
M  END
>  <minimizedAffinity>  (1) 
-5.35878754

>  <minimizedRMSD>  (1) 
0.198050305

$$$$
