
     RDKit          3D

 43 46  0  0  0  0  0  0  0  0999 V2000
   40.7950   22.5090   34.4380 C   0  0  0  0  0  0  0  0  0  0  0  0
   40.4640   21.3940   33.6590 C   0  0  0  0  0  0  0  0  0  0  0  0
   41.6590   20.8800   33.2530 N   0  0  0  0  0  0  0  0  0  0  0  0
   42.6310   21.6770   33.7830 C   0  0  0  0  0  0  0  0  0  0  0  0
   42.1350   22.6520   34.4910 N   0  0  0  0  0  0  0  0  0  0  0  0
   42.9430   23.6090   35.1400 C   0  0  0  0  0  0  0  0  0  0  0  0
   43.4760   23.4120   36.4320 C   0  0  0  0  0  0  0  0  0  0  0  0
   44.2650   24.3580   37.0530 C   0  0  0  0  0  0  0  0  0  0  0  0
   44.5700   25.5400   36.4430 C   0  0  0  0  0  0  0  0  0  0  0  0
   44.0790   25.7720   35.1980 C   0  0  0  0  0  0  0  0  0  0  0  0
   43.2940   24.8370   34.5760 C   0  0  0  0  0  0  0  0  0  0  0  0
   42.8250   25.1540   33.2880 N   0  0  0  0  0  0  0  0  0  0  0  0
   38.5560   23.9440   37.0510 C   0  0  0  0  0  0  0  0  0  0  0  0
   39.5260   23.1410   36.4010 C   0  0  0  0  0  0  0  0  0  0  0  0
   39.7980   23.3480   35.0680 C   0  0  0  0  0  0  0  0  0  0  0  0
   39.0950   24.3460   34.4240 N   0  0  0  0  0  0  0  0  0  0  0  0
   38.1850   25.0860   35.0630 C   0  0  0  0  0  0  0  0  0  0  0  0
   37.9200   24.8840   36.3680 N   0  0  0  0  0  0  0  0  0  0  0  0
   37.4550   26.1360   34.3590 C   0  0  0  0  0  0  0  0  0  0  0  0
   37.1730   27.3270   34.9750 C   0  0  0  0  0  0  0  0  0  0  0  0
   36.4770   28.2630   34.2310 C   0  0  0  0  0  0  0  0  0  0  0  0
   36.0600   28.0980   32.9670 N   0  0  0  0  0  0  0  0  0  0  0  0
   36.3610   26.9030   32.3950 C   0  0  0  0  0  0  0  0  0  0  0  0
   37.0340   25.9680   33.0820 N   0  0  0  0  0  0  0  0  0  0  0  0
   35.9320   26.6330   30.9820 C   0  0  0  0  0  0  0  0  0  0  0  0
   35.0390   25.3980   30.9170 C   0  0  0  0  0  0  0  0  0  0  0  0
   39.4581   21.0151   33.4254 H   0  0  0  0  0  0  0  0  0  0  0  0
   43.7083   21.5154   33.6304 H   0  0  0  0  0  0  0  0  0  0  0  0
   43.2550   22.4733   36.9611 H   0  0  0  0  0  0  0  0  0  0  0  0
   44.6564   24.1553   38.0608 H   0  0  0  0  0  0  0  0  0  0  0  0
   45.1991   26.2878   36.9480 H   0  0  0  0  0  0  0  0  0  0  0  0
   44.3131   26.7168   34.6857 H   0  0  0  0  0  0  0  0  0  0  0  0
   43.0742   26.0555   32.8566 H   0  0  0  0  0  0  0  0  0  0  0  0
   42.2325   24.4846   32.7765 H   0  0  0  0  0  0  0  0  0  0  0  0
   38.3325   23.7876   38.1166 H   0  0  0  0  0  0  0  0  0  0  0  0
   40.0585   22.3566   36.9588 H   0  0  0  0  0  0  0  0  0  0  0  0
   37.4847   27.5290   36.0104 H   0  0  0  0  0  0  0  0  0  0  0  0
   36.2464   29.2226   34.7167 H   0  0  0  0  0  0  0  0  0  0  0  0
   35.3751   27.5019   30.6013 H   0  0  0  0  0  0  0  0  0  0  0  0
   36.8273   26.4551   30.3681 H   0  0  0  0  0  0  0  0  0  0  0  0
   34.7985   25.0653   31.9375 H   0  0  0  0  0  0  0  0  0  0  0  0
   34.1095   25.6453   30.3833 H   0  0  0  0  0  0  0  0  0  0  0  0
   35.5651   24.5928   30.3833 H   0  0  0  0  0  0  0  0  0  0  0  0
  1  5  1  0
  1 15  1  0
  2  1  2  0
  3  2  1  0
  3  4  2  0
  4  5  1  0
  5  6  1  0
  6  7  2  0
  7  8  1  0
  9  8  2  0
 10  9  1  0
 11  6  1  0
 11 10  2  0
 12 11  1  0
 14 13  2  0
 15 14  1  0
 16 17  1  0
 16 15  2  0
 17 18  2  0
 18 13  1  0
 19 20  2  0
 19 17  1  0
 21 20  1  0
 22 21  2  0
 23 22  1  0
 23 24  2  0
 24 19  1  0
 25 23  1  0
 26 25  1  0
  2 27  1  0
  4 28  1  0
  7 29  1  0
  8 30  1  0
  9 31  1  0
 10 32  1  0
 12 33  1  0
 12 34  1  0
 13 35  1  0
 14 36  1  0
 20 37  1  0
 21 38  1  0
 25 39  1  0
 25 40  1  0
 26 41  1  0
 26 42  1  0
 26 43  1  0
M  ISO  8  27  14  28  14  29  14  30  14  31  14  32  14  35  14  36  14
M  ISO  7  37  14  38  14  39   8  40   8  41   8  42   8  43   8
M  END
>  <minimizedAffinity>  (1) 
-5.23663616

>  <minimizedRMSD>  (1) 
0.876455247

$$$$
