
     RDKit          3D

 40 43  0  0  0  0  0  0  0  0999 V2000
   40.7570   22.5710   34.4020 C   0  0  0  0  0  0  0  0  0  0  0  0
   40.4100   21.4660   33.6020 C   0  0  0  0  0  0  0  0  0  0  0  0
   41.6060   20.9470   33.1800 N   0  0  0  0  0  0  0  0  0  0  0  0
   42.5870   21.7260   33.7180 C   0  0  0  0  0  0  0  0  0  0  0  0
   42.0990   22.6900   34.4430 N   0  0  0  0  0  0  0  0  0  0  0  0
   42.9180   23.6350   35.1090 C   0  0  0  0  0  0  0  0  0  0  0  0
   43.4680   23.4030   36.3820 C   0  0  0  0  0  0  0  0  0  0  0  0
   44.2610   24.3150   37.0270 C   0  0  0  0  0  0  0  0  0  0  0  0
   44.5540   25.5130   36.4490 C   0  0  0  0  0  0  0  0  0  0  0  0
   44.0460   25.7860   35.2160 C   0  0  0  0  0  0  0  0  0  0  0  0
   43.2520   24.8650   34.5760 C   0  0  0  0  0  0  0  0  0  0  0  0
   42.7640   25.2250   33.2990 N   0  0  0  0  0  0  0  0  0  0  0  0
   38.5440   23.9820   37.0310 C   0  0  0  0  0  0  0  0  0  0  0  0
   39.5070   23.1790   36.3790 C   0  0  0  0  0  0  0  0  0  0  0  0
   39.7660   23.4080   35.0500 C   0  0  0  0  0  0  0  0  0  0  0  0
   39.0740   24.4180   34.4040 N   0  0  0  0  0  0  0  0  0  0  0  0
   38.1740   25.1530   35.0580 C   0  0  0  0  0  0  0  0  0  0  0  0
   37.9000   24.9460   36.3660 N   0  0  0  0  0  0  0  0  0  0  0  0
   37.4470   26.2190   34.3640 C   0  0  0  0  0  0  0  0  0  0  0  0
   37.1180   27.3800   35.0270 C   0  0  0  0  0  0  0  0  0  0  0  0
   36.4380   28.3280   34.3060 C   0  0  0  0  0  0  0  0  0  0  0  0
   36.0690   28.2150   33.0140 N   0  0  0  0  0  0  0  0  0  0  0  0
   36.4140   27.0600   32.4080 C   0  0  0  0  0  0  0  0  0  0  0  0
   37.0800   26.1070   33.0800 N   0  0  0  0  0  0  0  0  0  0  0  0
   36.0920   26.7510   30.9770 C   0  0  0  0  0  0  0  0  0  0  0  0
   39.3999   21.0994   33.3670 H   0  0  0  0  0  0  0  0  0  0  0  0
   43.6625   21.5595   33.5583 H   0  0  0  0  0  0  0  0  0  0  0  0
   43.2521   22.4473   36.8819 H   0  0  0  0  0  0  0  0  0  0  0  0
   44.6653   24.0773   38.0220 H   0  0  0  0  0  0  0  0  0  0  0  0
   45.1889   26.2458   36.9686 H   0  0  0  0  0  0  0  0  0  0  0  0
   44.2718   26.7469   34.7304 H   0  0  0  0  0  0  0  0  0  0  0  0
   43.0078   26.1400   32.8936 H   0  0  0  0  0  0  0  0  0  0  0  0
   42.1646   24.5723   32.7739 H   0  0  0  0  0  0  0  0  0  0  0  0
   38.3226   23.8121   38.0950 H   0  0  0  0  0  0  0  0  0  0  0  0
   40.0387   22.3861   36.9254 H   0  0  0  0  0  0  0  0  0  0  0  0
   37.3870   27.5392   36.0817 H   0  0  0  0  0  0  0  0  0  0  0  0
   36.1709   29.2598   34.8260 H   0  0  0  0  0  0  0  0  0  0  0  0
   35.2989   25.9899   30.9357 H   0  0  0  0  0  0  0  0  0  0  0  0
   35.7485   27.6662   30.4726 H   0  0  0  0  0  0  0  0  0  0  0  0
   36.9923   26.3701   30.4726 H   0  0  0  0  0  0  0  0  0  0  0  0
  1  5  1  0
  1 15  1  0
  2  1  2  0
  3  2  1  0
  3  4  2  0
  4  5  1  0
  5  6  1  0
  6  7  2  0
  7  8  1  0
  9  8  2  0
 10  9  1  0
 11  6  1  0
 11 10  2  0
 12 11  1  0
 14 13  2  0
 15 14  1  0
 16 15  2  0
 16 17  1  0
 17 18  2  0
 18 13  1  0
 19 20  2  0
 19 17  1  0
 21 20  1  0
 22 21  2  0
 23 22  1  0
 23 24  2  0
 24 19  1  0
 25 23  1  0
  2 26  1  0
  4 27  1  0
  7 28  1  0
  8 29  1  0
  9 30  1  0
 10 31  1  0
 12 32  1  0
 12 33  1  0
 13 34  1  0
 14 35  1  0
 20 36  1  0
 21 37  1  0
 25 38  1  0
 25 39  1  0
 25 40  1  0
M  ISO  8  26  14  27  14  28  14  29  14  30  14  31  14  34  14  35  14
M  ISO  5  36  14  37  14  38   8  39   8  40   8
M  END
>  <minimizedAffinity>  (1) 
-5.04729271

>  <minimizedRMSD>  (1) 
0.823984861

$$$$
