
     RDKit          3D

 24 26  0  0  0  0  0  0  0  0999 V2000
   39.8250   22.8540   37.8620 C   0  0  0  0  0  0  0  0  0  0  0  0
   39.0030   23.4910   38.8190 C   0  0  0  0  0  0  0  0  0  0  0  0
   37.8250   24.0980   38.3430 C   0  0  0  0  0  0  0  0  0  0  0  0
   37.5350   24.0480   37.0160 N   0  0  0  0  0  0  0  0  0  0  0  0
   38.3580   23.4230   36.1330 C   0  0  0  0  0  0  0  0  0  0  0  0
   39.4860   22.8360   36.5610 N   0  0  0  0  0  0  0  0  0  0  0  0
   38.0860   23.3510   34.7380 N   0  0  0  0  0  0  0  0  0  0  0  0
   38.1380   22.1800   34.0740 C   0  0  0  0  0  0  0  0  0  0  0  0
   37.8340   22.4270   32.7680 N   0  0  0  0  0  0  0  0  0  0  0  0
   37.5920   23.7370   32.6100 C   0  0  0  0  0  0  0  0  0  0  0  0
   37.2420   24.6100   31.5770 C   0  0  0  0  0  0  0  0  0  0  0  0
   37.0910   24.1020   30.4360 O   0  0  0  0  0  0  0  0  0  0  0  0
   37.0810   25.9350   31.8330 N   0  0  0  0  0  0  0  0  0  0  0  0
   37.2470   26.4540   33.0590 C   0  0  0  0  0  0  0  0  0  0  0  0
   37.0350   27.8620   33.1260 N   0  0  0  0  0  0  0  0  0  0  0  0
   37.5890   25.6240   34.0860 N   0  0  0  0  0  0  0  0  0  0  0  0
   37.7520   24.3180   33.8580 C   0  0  0  0  0  0  0  0  0  0  0  0
   40.7558   22.3657   38.1863 H   0  0  0  0  0  0  0  0  0  0  0  0
   39.2709   23.5116   39.8857 H   0  0  0  0  0  0  0  0  0  0  0  0
   37.1444   24.6089   39.0400 H   0  0  0  0  0  0  0  0  0  0  0  0
   38.3822   21.1992   34.5081 H   0  0  0  0  0  0  0  0  0  0  0  0
   36.8224   26.5629   31.0585 H   0  0  0  0  0  0  0  0  0  0  0  0
   37.1383   28.3562   34.0238 H   0  0  0  0  0  0  0  0  0  0  0  0
   36.7785   28.3852   32.2766 H   0  0  0  0  0  0  0  0  0  0  0  0
  1  2  2  0
  3  2  1  0
  4  3  2  0
  5  6  2  0
  5  4  1  0
  6  1  1  0
  7  5  1  0
  8  7  1  0
  9  8  2  0
 10  9  1  0
 10 17  2  0
 11 13  1  0
 11 10  1  0
 12 11  2  0
 13 14  1  0
 14 15  1  0
 14 16  2  0
 17 16  1  0
 17  7  1  0
  1 18  1  0
  2 19  1  0
  3 20  1  0
  8 21  1  0
 13 22  1  0
 15 23  1  0
 15 24  1  0
M  ISO  5  18  14  19  14  20  14  21  14  22   9
M  END
>  <minimizedAffinity>  (1) 
-4.82221222

>  <minimizedRMSD>  (1) 
2.25582314

$$$$
