
     RDKit          3D

 38 42  0  0  0  0  0  0  0  0999 V2000
   39.9060   22.9960   37.4550 C   0  0  0  0  0  0  0  0  0  0  0  0
   39.0620   23.1360   38.5830 C   0  0  0  0  0  0  0  0  0  0  0  0
   37.8130   23.7490   38.3710 C   0  0  0  0  0  0  0  0  0  0  0  0
   37.4630   24.1780   37.1230 N   0  0  0  0  0  0  0  0  0  0  0  0
   38.3070   24.0200   36.0790 C   0  0  0  0  0  0  0  0  0  0  0  0
   39.5120   23.4350   36.2490 N   0  0  0  0  0  0  0  0  0  0  0  0
   38.0020   24.4490   34.7640 N   0  0  0  0  0  0  0  0  0  0  0  0
   38.1580   23.6260   33.7010 C   0  0  0  0  0  0  0  0  0  0  0  0
   37.7950   24.3200   32.5810 N   0  0  0  0  0  0  0  0  0  0  0  0
   37.4130   25.5710   32.9320 C   0  0  0  0  0  0  0  0  0  0  0  0
   36.9520   26.7280   32.3060 C   0  0  0  0  0  0  0  0  0  0  0  0
   36.8110   26.6420   31.0630 O   0  0  0  0  0  0  0  0  0  0  0  0
   36.6730   27.8210   33.0300 N   0  0  0  0  0  0  0  0  0  0  0  0
   36.8150   27.8400   34.3510 C   0  0  0  0  0  0  0  0  0  0  0  0
   36.4960   29.1030   34.9920 N   0  0  0  0  0  0  0  0  0  0  0  0
   37.2580   26.7290   34.9980 N   0  0  0  0  0  0  0  0  0  0  0  0
   37.5480   25.6360   34.3080 C   0  0  0  0  0  0  0  0  0  0  0  0
   35.9930   28.9790   32.5920 C   0  0  0  0  0  0  0  0  0  0  0  0
   36.0940   29.4940   31.3750 N   0  0  0  0  0  0  0  0  0  0  0  0
   35.4950   30.4670   30.7550 C   0  0  0  0  0  0  0  0  0  0  0  0
   34.5520   31.1520   31.4090 N   0  0  0  0  0  0  0  0  0  0  0  0
   34.2930   30.7580   32.6910 C   0  0  0  0  0  0  0  0  0  0  0  0
   33.2460   31.3920   33.2710 C   0  0  0  0  0  0  0  0  0  0  0  0
   32.7920   30.9720   34.5150 C   0  0  0  0  0  0  0  0  0  0  0  0
   33.4590   29.8890   35.1020 C   0  0  0  0  0  0  0  0  0  0  0  0
   34.4990   29.3700   34.3780 C   0  0  0  0  0  0  0  0  0  0  0  0
   35.0250   29.7140   33.1660 C   0  0  0  0  0  0  0  0  0  0  0  0
   40.8930   22.5235   37.5677 H   0  0  0  0  0  0  0  0  0  0  0  0
   39.3681   22.7822   39.5786 H   0  0  0  0  0  0  0  0  0  0  0  0
   37.1173   23.8828   39.2125 H   0  0  0  0  0  0  0  0  0  0  0  0
   38.5132   22.5854   33.7328 H   0  0  0  0  0  0  0  0  0  0  0  0
   36.5811   29.1978   36.0141 H   0  0  0  0  0  0  0  0  0  0  0  0
   36.1846   29.9043   34.4247 H   0  0  0  0  0  0  0  0  0  0  0  0
   35.7579   30.7204   29.7174 H   0  0  0  0  0  0  0  0  0  0  0  0
   32.7578   32.2349   32.7598 H   0  0  0  0  0  0  0  0  0  0  0  0
   31.9473   31.4673   35.0162 H   0  0  0  0  0  0  0  0  0  0  0  0
   33.1663   29.4819   36.0811 H   0  0  0  0  0  0  0  0  0  0  0  0
   35.0030   28.5202   34.8615 H   0  0  0  0  0  0  0  0  0  0  0  0
  1  2  2  0
  3  2  1  0
  4  3  2  0
  5  6  2  0
  5  4  1  0
  6  1  1  0
  7  5  1  0
  8  7  1  0
  9 10  1  0
  9  8  2  0
 10 17  2  0
 11 10  1  0
 11 13  1  0
 12 11  2  0
 13 14  1  0
 14 15  1  0
 14 16  2  0
 17  7  1  0
 17 16  1  0
 18 13  1  0
 18 27  1  0
 19 18  2  0
 20 19  1  0
 20 21  2  0
 21 22  1  0
 22 27  2  0
 22 23  1  0
 23 24  2  0
 24 25  1  0
 26 25  2  0
 27 26  1  0
  1 28  1  0
  2 29  1  0
  3 30  1  0
  8 31  1  0
 15 32  1  0
 15 33  1  0
 20 34  1  0
 23 35  1  0
 24 36  1  0
 25 37  1  0
 26 38  1  0
M  ISO  8  28  14  29  14  30  14  31  14  34  14  35  14  36  14  37  14
M  ISO  1  38  14
M  END
>  <minimizedAffinity>  (1) 
-6.93019485

>  <minimizedRMSD>  (1) 
2.24201918

$$$$
