
     RDKit          3D

 38 42  0  0  0  0  0  0  0  0999 V2000
   40.0410   22.9780   36.9680 C   0  0  0  0  0  0  0  0  0  0  0  0
   39.3570   23.1270   38.1830 C   0  0  0  0  0  0  0  0  0  0  0  0
   38.0980   23.7750   38.1240 C   0  0  0  0  0  0  0  0  0  0  0  0
   37.6200   24.2120   36.9290 N   0  0  0  0  0  0  0  0  0  0  0  0
   38.3340   24.0360   35.7800 C   0  0  0  0  0  0  0  0  0  0  0  0
   39.5340   23.4240   35.8090 N   0  0  0  0  0  0  0  0  0  0  0  0
   37.8720   24.4780   34.5090 N   0  0  0  0  0  0  0  0  0  0  0  0
   37.8790   23.6570   33.4370 C   0  0  0  0  0  0  0  0  0  0  0  0
   37.3840   24.3520   32.3730 N   0  0  0  0  0  0  0  0  0  0  0  0
   37.0680   25.6010   32.7700 C   0  0  0  0  0  0  0  0  0  0  0  0
   36.5450   26.7560   32.2060 C   0  0  0  0  0  0  0  0  0  0  0  0
   36.2540   26.7160   30.9820 O   0  0  0  0  0  0  0  0  0  0  0  0
   36.3660   27.8600   32.9650 N   0  0  0  0  0  0  0  0  0  0  0  0
   36.6810   27.8860   34.2690 C   0  0  0  0  0  0  0  0  0  0  0  0
   36.4290   29.1360   34.9280 N   0  0  0  0  0  0  0  0  0  0  0  0
   37.1990   26.7690   34.8590 N   0  0  0  0  0  0  0  0  0  0  0  0
   37.3800   25.6710   34.1190 C   0  0  0  0  0  0  0  0  0  0  0  0
   35.8200   28.9910   32.2800 C   0  0  0  0  0  0  0  0  0  0  0  0
   36.6340   29.7180   31.4710 C   0  0  0  0  0  0  0  0  0  0  0  0
   35.9100   30.7220   30.9400 N   0  0  0  0  0  0  0  0  0  0  0  0
   34.6350   30.6600   31.3920 C   0  0  0  0  0  0  0  0  0  0  0  0
   33.4820   31.3910   31.2040 C   0  0  0  0  0  0  0  0  0  0  0  0
   32.3200   31.0060   31.8660 C   0  0  0  0  0  0  0  0  0  0  0  0
   32.2870   29.9140   32.7050 C   0  0  0  0  0  0  0  0  0  0  0  0
   33.4430   29.1580   32.9100 C   0  0  0  0  0  0  0  0  0  0  0  0
   34.5690   29.5760   32.2360 C   0  0  0  0  0  0  0  0  0  0  0  0
   41.0222   22.4807   36.9653 H   0  0  0  0  0  0  0  0  0  0  0  0
   39.7756   22.7603   39.1319 H   0  0  0  0  0  0  0  0  0  0  0  0
   37.5100   23.9237   39.0417 H   0  0  0  0  0  0  0  0  0  0  0  0
   38.2231   22.6123   33.4241 H   0  0  0  0  0  0  0  0  0  0  0  0
   36.6424   29.2421   35.9300 H   0  0  0  0  0  0  0  0  0  0  0  0
   36.0347   29.9269   34.3988 H   0  0  0  0  0  0  0  0  0  0  0  0
   37.6996   29.5209   31.2823 H   0  0  0  0  0  0  0  0  0  0  0  0
   36.2723   31.4315   30.2871 H   0  0  0  0  0  0  0  0  0  0  0  0
   33.4802   32.2674   30.5393 H   0  0  0  0  0  0  0  0  0  0  0  0
   31.4008   31.5910   31.7148 H   0  0  0  0  0  0  0  0  0  0  0  0
   31.3512   29.6379   33.2129 H   0  0  0  0  0  0  0  0  0  0  0  0
   33.4537   28.2793   33.5716 H   0  0  0  0  0  0  0  0  0  0  0  0
  1  2  2  0
  3  2  1  0
  4  3  2  0
  5  6  2  0
  5  4  1  0
  6  1  1  0
  7  5  1  0
  8  7  1  0
  9 10  1  0
  9  8  2  0
 10 17  2  0
 11 10  1  0
 11 13  1  0
 12 11  2  0
 13 14  1  0
 14 16  2  0
 14 15  1  0
 17  7  1  0
 17 16  1  0
 18 13  1  0
 19 18  2  0
 20 21  1  0
 20 19  1  0
 21 26  2  0
 22 21  1  0
 22 23  2  0
 23 24  1  0
 24 25  2  0
 26 18  1  0
 26 25  1  0
  1 27  1  0
  2 28  1  0
  3 29  1  0
  8 30  1  0
 15 31  1  0
 15 32  1  0
 19 33  1  0
 20 34  1  0
 22 35  1  0
 23 36  1  0
 24 37  1  0
 25 38  1  0
M  ISO  8  27  14  28  14  29  14  30  14  33  14  34   9  35  14  36  14
M  ISO  2  37  14  38  14
M  END
>  <minimizedAffinity>  (1) 
-6.46016693

>  <minimizedRMSD>  (1) 
2.40251303

$$$$
