
     RDKit          3D

 31 34  0  0  0  0  0  0  0  0999 V2000
   39.9860   22.9880   37.3210 C   0  0  0  0  0  0  0  0  0  0  0  0
   39.2380   23.1460   38.4990 C   0  0  0  0  0  0  0  0  0  0  0  0
   38.0010   23.7850   38.3750 C   0  0  0  0  0  0  0  0  0  0  0  0
   37.5870   24.2140   37.1520 N   0  0  0  0  0  0  0  0  0  0  0  0
   38.3460   24.0410   36.0330 C   0  0  0  0  0  0  0  0  0  0  0  0
   39.5250   23.4330   36.1440 N   0  0  0  0  0  0  0  0  0  0  0  0
   37.9340   24.4790   34.7550 N   0  0  0  0  0  0  0  0  0  0  0  0
   37.9840   23.6430   33.6900 C   0  0  0  0  0  0  0  0  0  0  0  0
   37.5320   24.3240   32.6030 N   0  0  0  0  0  0  0  0  0  0  0  0
   37.2000   25.5780   32.9750 C   0  0  0  0  0  0  0  0  0  0  0  0
   36.6970   26.7340   32.3810 C   0  0  0  0  0  0  0  0  0  0  0  0
   36.4530   26.6830   31.1460 O   0  0  0  0  0  0  0  0  0  0  0  0
   36.4920   27.8380   33.1280 N   0  0  0  0  0  0  0  0  0  0  0  0
   36.7550   27.8860   34.4470 C   0  0  0  0  0  0  0  0  0  0  0  0
   36.4780   29.1380   35.0750 N   0  0  0  0  0  0  0  0  0  0  0  0
   37.2490   26.7690   35.0550 N   0  0  0  0  0  0  0  0  0  0  0  0
   37.4550   25.6720   34.3310 C   0  0  0  0  0  0  0  0  0  0  0  0
   35.9810   28.9450   32.4310 C   0  0  0  0  0  0  0  0  0  0  0  0
   36.5360   29.8630   31.6380 C   0  0  0  0  0  0  0  0  0  0  0  0
   35.8110   30.8650   31.0630 C   0  0  0  0  0  0  0  0  0  0  0  0
   34.3580   30.8320   31.4070 C   0  0  0  0  0  0  0  0  0  0  0  0
   34.2640   29.3210   32.5360 S   0  0  0  0  0  0  0  0  0  0  0  0
   40.9663   22.4909   37.3651 H   0  0  0  0  0  0  0  0  0  0  0  0
   39.6070   22.7851   39.4704 H   0  0  0  0  0  0  0  0  0  0  0  0
   37.3666   23.9400   39.2602 H   0  0  0  0  0  0  0  0  0  0  0  0
   38.3290   22.5986   33.7023 H   0  0  0  0  0  0  0  0  0  0  0  0
   36.6517   29.2581   36.0831 H   0  0  0  0  0  0  0  0  0  0  0  0
   36.1045   29.9211   34.5199 H   0  0  0  0  0  0  0  0  0  0  0  0
   37.6169   29.8100   31.4408 H   0  0  0  0  0  0  0  0  0  0  0  0
   36.2555   31.6273   30.4063 H   0  0  0  0  0  0  0  0  0  0  0  0
   33.5533   31.5102   31.0867 H   0  0  0  0  0  0  0  0  0  0  0  0
  1  2  2  0
  3  2  1  0
  4  3  2  0
  5  6  2  0
  5  4  1  0
  6  1  1  0
  7  5  1  0
  8  7  1  0
  9 10  1  0
  9  8  2  0
 10 17  2  0
 11 10  1  0
 11 13  1  0
 12 11  2  0
 13 14  1  0
 14 16  2  0
 14 15  1  0
 17  7  1  0
 17 16  1  0
 18 22  1  0
 18 13  1  0
 19 18  2  0
 20 21  2  0
 20 19  1  0
 21 22  1  0
  1 23  1  0
  2 24  1  0
  3 25  1  0
  8 26  1  0
 15 27  1  0
 15 28  1  0
 19 29  1  0
 20 30  1  0
 21 31  1  0
M  ISO  7  23  14  24  14  25  14  26  14  29  14  30  14  31  14
M  END
>  <minimizedAffinity>  (1) 
-5.65786839

>  <minimizedRMSD>  (1) 
2.1882391

$$$$
