
     RDKit          3D

 36 38  0  0  0  0  0  0  0  0999 V2000
   40.0330   23.1460   36.7540 C   0  0  0  0  0  0  0  0  0  0  0  0
   39.3260   23.1730   37.9700 C   0  0  0  0  0  0  0  0  0  0  0  0
   38.0430   23.7700   37.9360 C   0  0  0  0  0  0  0  0  0  0  0  0
   37.5700   24.2750   36.7670 N   0  0  0  0  0  0  0  0  0  0  0  0
   38.3090   24.2160   35.6160 C   0  0  0  0  0  0  0  0  0  0  0  0
   39.5190   23.6600   35.6190 N   0  0  0  0  0  0  0  0  0  0  0  0
   37.8300   24.7350   34.3900 N   0  0  0  0  0  0  0  0  0  0  0  0
   37.8670   23.9930   33.2610 C   0  0  0  0  0  0  0  0  0  0  0  0
   37.3410   24.7420   32.2490 N   0  0  0  0  0  0  0  0  0  0  0  0
   36.9740   25.9450   32.7310 C   0  0  0  0  0  0  0  0  0  0  0  0
   36.4020   27.1180   32.2570 C   0  0  0  0  0  0  0  0  0  0  0  0
   36.1150   27.1450   31.0340 O   0  0  0  0  0  0  0  0  0  0  0  0
   36.1800   28.1550   33.0990 N   0  0  0  0  0  0  0  0  0  0  0  0
   36.4960   28.1030   34.3870 C   0  0  0  0  0  0  0  0  0  0  0  0
   36.2210   29.2940   35.0970 N   0  0  0  0  0  0  0  0  0  0  0  0
   37.0590   26.9660   34.8800 N   0  0  0  0  0  0  0  0  0  0  0  0
   37.2870   25.9320   34.0820 C   0  0  0  0  0  0  0  0  0  0  0  0
   35.5640   29.3660   32.5410 C   0  0  0  0  0  0  0  0  0  0  0  0
   35.9130   29.6500   31.1210 C   0  0  0  0  0  0  0  0  0  0  0  0
   34.0360   29.1770   32.5450 C   0  0  0  0  0  0  0  0  0  0  0  0
   35.8650   30.5650   33.4030 C   0  0  0  0  0  0  0  0  0  0  0  0
   41.0347   22.6921   36.7288 H   0  0  0  0  0  0  0  0  0  0  0  0
   39.7468   22.7535   38.8957 H   0  0  0  0  0  0  0  0  0  0  0  0
   37.4332   23.8246   38.8499 H   0  0  0  0  0  0  0  0  0  0  0  0
   38.2529   22.9667   33.1734 H   0  0  0  0  0  0  0  0  0  0  0  0
   36.4310   29.3537   36.1036 H   0  0  0  0  0  0  0  0  0  0  0  0
   35.8106   30.1021   34.6077 H   0  0  0  0  0  0  0  0  0  0  0  0
   36.7657   30.3439   31.0847 H   0  0  0  0  0  0  0  0  0  0  0  0
   36.1824   28.7113   30.6148 H   0  0  0  0  0  0  0  0  0  0  0  0
   35.0486   30.1045   30.6148 H   0  0  0  0  0  0  0  0  0  0  0  0
   33.6748   29.1323   33.5830 H   0  0  0  0  0  0  0  0  0  0  0  0
   33.5605   30.0232   32.0274 H   0  0  0  0  0  0  0  0  0  0  0  0
   33.7810   28.2405   32.0274 H   0  0  0  0  0  0  0  0  0  0  0  0
   35.7938   30.2814   34.4634 H   0  0  0  0  0  0  0  0  0  0  0  0
   36.8816   30.9257   33.1874 H   0  0  0  0  0  0  0  0  0  0  0  0
   35.1393   31.3631   33.1874 H   0  0  0  0  0  0  0  0  0  0  0  0
  1  2  2  0
  3  2  1  0
  4  3  2  0
  5  6  2  0
  5  4  1  0
  6  1  1  0
  7  5  1  0
  8  7  1  0
  9 10  1  0
  9  8  2  0
 10 17  2  0
 11 10  1  0
 11 13  1  0
 12 11  2  0
 13 14  1  0
 14 16  2  0
 14 15  1  0
 17  7  1  0
 17 16  1  0
 18 20  1  0
 18 13  1  0
 18 21  1  0
 19 18  1  0
  1 22  1  0
  2 23  1  0
  3 24  1  0
  8 25  1  0
 15 26  1  0
 15 27  1  0
 19 28  1  0
 19 29  1  0
 19 30  1  0
 20 31  1  0
 20 32  1  0
 20 33  1  0
 21 34  1  0
 21 35  1  0
 21 36  1  0
M  ISO  8  22  14  23  14  24  14  25  14  28   8  29   8  30   8  31   8
M  ISO  5  32   8  33   8  34   8  35   8  36   8
M  END
>  <minimizedAffinity>  (1) 
-5.32112455

>  <minimizedRMSD>  (1) 
2.34080744

$$$$
