
     RDKit          3D

 39 42  0  0  0  0  0  0  0  0999 V2000
   39.1790   26.8670   35.3510 C   0  0  0  0  0  0  0  0  0  0  0  0
   38.1520   27.4370   34.4300 C   0  0  0  0  0  0  0  0  0  0  0  0
   36.9790   27.9430   34.9510 C   0  0  0  0  0  0  0  0  0  0  0  0
   35.9500   28.4990   34.1860 C   0  0  0  0  0  0  0  0  0  0  0  0
   36.1470   28.5310   32.8350 N   0  0  0  0  0  0  0  0  0  0  0  0
   37.2920   28.0370   32.3230 C   0  0  0  0  0  0  0  0  0  0  0  0
   38.2680   27.5040   33.1120 N   0  0  0  0  0  0  0  0  0  0  0  0
   37.5420   28.0510   30.8850 C   0  0  0  0  0  0  0  0  0  0  0  0
   38.8260   27.8150   30.3830 C   0  0  0  0  0  0  0  0  0  0  0  0
   38.7570   27.8920   28.9830 C   0  0  0  0  0  0  0  0  0  0  0  0
   37.4680   28.1650   28.6960 N   0  0  0  0  0  0  0  0  0  0  0  0
   36.7240   28.2650   29.8010 N   0  0  0  0  0  0  0  0  0  0  0  0
   40.2790   26.1570   34.5900 C   0  0  0  0  0  0  0  0  0  0  0  0
   41.4190   22.8770   35.9900 C   0  0  0  0  0  0  0  0  0  0  0  0
   40.2570   22.0960   35.8060 C   0  0  0  0  0  0  0  0  0  0  0  0
   39.1400   22.6870   35.2230 C   0  0  0  0  0  0  0  0  0  0  0  0
   39.2120   23.9850   34.8570 N   0  0  0  0  0  0  0  0  0  0  0  0
   40.3450   24.7250   35.0440 C   0  0  0  0  0  0  0  0  0  0  0  0
   41.4120   24.1660   35.5980 N   0  0  0  0  0  0  0  0  0  0  0  0
   37.8800   21.9960   34.9750 C   0  0  0  0  0  0  0  0  0  0  0  0
   37.4380   21.6490   33.7170 C   0  0  0  0  0  0  0  0  0  0  0  0
   36.2610   20.9990   33.4400 C   0  0  0  0  0  0  0  0  0  0  0  0
   35.4690   20.6730   34.4880 N   0  0  0  0  0  0  0  0  0  0  0  0
   35.8790   21.0030   35.7330 C   0  0  0  0  0  0  0  0  0  0  0  0
   37.0400   21.6400   35.9660 N   0  0  0  0  0  0  0  0  0  0  0  0
   39.6223   27.6833   35.9401 H   0  0  0  0  0  0  0  0  0  0  0  0
   38.6848   26.1334   36.0049 H   0  0  0  0  0  0  0  0  0  0  0  0
   36.8446   27.9063   36.0421 H   0  0  0  0  0  0  0  0  0  0  0  0
   35.0310   28.8898   34.6472 H   0  0  0  0  0  0  0  0  0  0  0  0
   39.7274   27.6066   30.9780 H   0  0  0  0  0  0  0  0  0  0  0  0
   39.5827   27.7576   28.2687 H   0  0  0  0  0  0  0  0  0  0  0  0
   37.1015   28.2822   27.7406 H   0  0  0  0  0  0  0  0  0  0  0  0
   41.2418   26.6510   34.7876 H   0  0  0  0  0  0  0  0  0  0  0  0
   40.0677   26.1947   33.5112 H   0  0  0  0  0  0  0  0  0  0  0  0
   42.3182   22.4387   36.4474 H   0  0  0  0  0  0  0  0  0  0  0  0
   40.2351   21.0412   36.1174 H   0  0  0  0  0  0  0  0  0  0  0  0
   38.0809   21.9145   32.8648 H   0  0  0  0  0  0  0  0  0  0  0  0
   35.9730   20.7529   32.4073 H   0  0  0  0  0  0  0  0  0  0  0  0
   35.2386   20.7405   36.5880 H   0  0  0  0  0  0  0  0  0  0  0  0
  2  3  2  0
  2  1  1  0
  4  3  1  0
  5  4  2  0
  6  5  1  0
  6  7  2  0
  7  2  1  0
  8  6  1  0
  9  8  1  0
 10  9  2  0
 11 10  1  0
 11 12  1  0
 12  8  2  0
 13 18  1  0
 13  1  1  0
 15 14  2  0
 16 15  1  0
 17 18  1  0
 17 16  2  0
 18 19  2  0
 19 14  1  0
 20 16  1  0
 20 25  1  0
 21 20  2  0
 22 21  1  0
 22 23  2  0
 23 24  1  0
 24 25  2  0
  1 26  1  0
  1 27  1  0
  3 28  1  0
  4 29  1  0
  9 30  1  0
 10 31  1  0
 11 32  1  0
 13 33  1  0
 13 34  1  0
 14 35  1  0
 15 36  1  0
 21 37  1  0
 22 38  1  0
 24 39  1  0
M  ISO  8  26   8  27   8  28  14  29  14  30  14  31  14  32   9  33   8
M  ISO  6  34   8  35  14  36  14  37  14  38  14  39  14
M  END
>  <minimizedAffinity>  (1) 
-5.30393171

>  <minimizedRMSD>  (1) 
3.65551829

$$$$
