
     RDKit          3D

 44 49  0  0  0  0  0  0  0  0999 V2000
   40.0340   23.0070   37.3560 C   0  0  0  0  0  0  0  0  0  0  0  0
   39.2210   23.1250   38.5010 C   0  0  0  0  0  0  0  0  0  0  0  0
   37.9550   23.6910   38.2990 C   0  0  0  0  0  0  0  0  0  0  0  0
   37.5670   24.0910   37.0620 N   0  0  0  0  0  0  0  0  0  0  0  0
   38.3960   23.9530   35.9870 C   0  0  0  0  0  0  0  0  0  0  0  0
   39.6150   23.4150   36.1420 N   0  0  0  0  0  0  0  0  0  0  0  0
   38.0180   24.3590   34.6900 N   0  0  0  0  0  0  0  0  0  0  0  0
   38.1450   23.5140   33.6360 C   0  0  0  0  0  0  0  0  0  0  0  0
   37.7060   24.1770   32.5250 N   0  0  0  0  0  0  0  0  0  0  0  0
   37.3100   25.4050   32.8650 C   0  0  0  0  0  0  0  0  0  0  0  0
   36.7790   26.5490   32.2510 C   0  0  0  0  0  0  0  0  0  0  0  0
   36.6000   26.4450   31.0130 O   0  0  0  0  0  0  0  0  0  0  0  0
   36.4960   27.6580   32.9760 N   0  0  0  0  0  0  0  0  0  0  0  0
   36.7090   27.7050   34.2900 C   0  0  0  0  0  0  0  0  0  0  0  0
   36.3520   28.9530   34.8900 N   0  0  0  0  0  0  0  0  0  0  0  0
   37.2200   26.6200   34.9200 N   0  0  0  0  0  0  0  0  0  0  0  0
   37.5060   25.5270   34.2380 C   0  0  0  0  0  0  0  0  0  0  0  0
   35.9480   28.8290   32.3000 C   0  0  0  0  0  0  0  0  0  0  0  0
   36.7480   29.6690   31.5170 C   0  0  0  0  0  0  0  0  0  0  0  0
   35.5270   30.9380   30.9450 S   0  0  0  0  0  0  0  0  0  0  0  0
   34.1330   30.0890   31.8840 C   0  0  0  0  0  0  0  0  0  0  0  0
   34.7100   29.2420   32.3250 N   0  0  0  0  0  0  0  0  0  0  0  0
   32.8030   30.7750   31.7440 C   0  0  0  0  0  0  0  0  0  0  0  0
   32.5190   31.6570   30.7910 N   0  0  0  0  0  0  0  0  0  0  0  0
   31.3350   32.2680   30.6650 C   0  0  0  0  0  0  0  0  0  0  0  0
   30.3610   31.9860   31.5460 N   0  0  0  0  0  0  0  0  0  0  0  0
   30.5800   31.1030   32.5330 C   0  0  0  0  0  0  0  0  0  0  0  0
   29.6000   30.7920   33.4540 C   0  0  0  0  0  0  0  0  0  0  0  0
   29.8120   29.8800   34.4830 C   0  0  0  0  0  0  0  0  0  0  0  0
   31.0830   29.2930   34.5320 C   0  0  0  0  0  0  0  0  0  0  0  0
   32.0620   29.5970   33.6210 C   0  0  0  0  0  0  0  0  0  0  0  0
   31.8090   30.4960   32.6300 C   0  0  0  0  0  0  0  0  0  0  0  0
   41.0384   22.5698   37.4560 H   0  0  0  0  0  0  0  0  0  0  0  0
   39.5597   22.7929   39.4935 H   0  0  0  0  0  0  0  0  0  0  0  0
   37.2698   23.8120   39.1509 H   0  0  0  0  0  0  0  0  0  0  0  0
   38.5306   22.4843   33.6698 H   0  0  0  0  0  0  0  0  0  0  0  0
   36.4780   29.0923   35.9027 H   0  0  0  0  0  0  0  0  0  0  0  0
   35.9689   29.7126   34.3094 H   0  0  0  0  0  0  0  0  0  0  0  0
   37.8234   29.5946   31.2981 H   0  0  0  0  0  0  0  0  0  0  0  0
   31.1622   32.9896   29.8530 H   0  0  0  0  0  0  0  0  0  0  0  0
   28.6185   31.2817   33.3716 H   0  0  0  0  0  0  0  0  0  0  0  0
   29.0282   29.6344   35.2146 H   0  0  0  0  0  0  0  0  0  0  0  0
   31.3028   28.5649   35.3267 H   0  0  0  0  0  0  0  0  0  0  0  0
   33.0488   29.1160   33.6906 H   0  0  0  0  0  0  0  0  0  0  0  0
  1  2  2  0
  3  2  1  0
  4  3  2  0
  5  6  2  0
  5  4  1  0
  6  1  1  0
  7  5  1  0
  8  7  1  0
  9 10  1  0
  9  8  2  0
 10 17  2  0
 11 10  1  0
 11 13  1  0
 12 11  2  0
 13 14  1  0
 14 15  1  0
 14 16  2  0
 17  7  1  0
 17 16  1  0
 18 22  1  0
 18 13  1  0
 19 18  2  0
 20 19  1  0
 20 21  1  0
 21 22  2  0
 23 21  1  0
 23 32  1  0
 24 23  2  0
 25 24  1  0
 25 26  2  0
 26 27  1  0
 27 32  2  0
 27 28  1  0
 28 29  2  0
 29 30  1  0
 31 30  2  0
 32 31  1  0
  1 33  1  0
  2 34  1  0
  3 35  1  0
  8 36  1  0
 15 37  1  0
 15 38  1  0
 19 39  1  0
 25 40  1  0
 28 41  1  0
 29 42  1  0
 30 43  1  0
 31 44  1  0
M  ISO  8  33  14  34  14  35  14  36  14  39  14  40  14  41  14  42  14
M  ISO  2  43  14  44  14
M  END
>  <minimizedAffinity>  (1) 
-7.05661106

>  <minimizedRMSD>  (1) 
0.261420965

$$$$
