
     RDKit          3D

 41 45  0  0  0  0  0  0  0  0999 V2000
   41.6940   21.6370   36.0070 C   0  0  0  0  0  0  0  0  0  0  0  0
   41.4520   21.7410   37.4080 C   0  0  0  0  0  0  0  0  0  0  0  0
   40.2840   22.4170   37.7990 C   0  0  0  0  0  0  0  0  0  0  0  0
   39.4570   22.9290   36.8540 N   0  0  0  0  0  0  0  0  0  0  0  0
   39.7340   22.8020   35.5210 C   0  0  0  0  0  0  0  0  0  0  0  0
   40.8440   22.1620   35.1130 N   0  0  0  0  0  0  0  0  0  0  0  0
   38.8850   23.3290   34.5180 N   0  0  0  0  0  0  0  0  0  0  0  0
   38.4780   22.5620   33.4850 C   0  0  0  0  0  0  0  0  0  0  0  0
   37.6820   23.3310   32.6950 N   0  0  0  0  0  0  0  0  0  0  0  0
   37.5870   24.5590   33.2120 C   0  0  0  0  0  0  0  0  0  0  0  0
   36.9600   25.7770   32.9190 C   0  0  0  0  0  0  0  0  0  0  0  0
   36.2640   25.7890   31.8710 O   0  0  0  0  0  0  0  0  0  0  0  0
   37.1210   26.8430   33.7390 N   0  0  0  0  0  0  0  0  0  0  0  0
   37.8650   26.7840   34.8330 C   0  0  0  0  0  0  0  0  0  0  0  0
   37.9140   28.0120   35.5710 N   0  0  0  0  0  0  0  0  0  0  0  0
   38.4870   25.6260   35.1530 N   0  0  0  0  0  0  0  0  0  0  0  0
   38.3480   24.5600   34.3670 C   0  0  0  0  0  0  0  0  0  0  0  0
   36.4530   28.1000   33.4030 C   0  0  0  0  0  0  0  0  0  0  0  0
   36.8360   28.8580   32.2810 C   0  0  0  0  0  0  0  0  0  0  0  0
   35.6870   30.2970   32.3450 S   0  0  0  0  0  0  0  0  0  0  0  0
   34.8680   29.6190   33.9040 C   0  0  0  0  0  0  0  0  0  0  0  0
   35.4520   28.6550   34.0800 N   0  0  0  0  0  0  0  0  0  0  0  0
   33.7730   30.1440   34.7160 N   0  0  0  0  0  0  0  0  0  0  0  0
   34.1240   30.9580   35.7210 C   0  0  0  0  0  0  0  0  0  0  0  0
   33.0300   31.4250   36.4570 C   0  0  0  0  0  0  0  0  0  0  0  0
   31.7350   31.0500   36.1360 C   0  0  0  0  0  0  0  0  0  0  0  0
   30.6360   31.5240   36.8820 N   0  0  0  0  0  0  0  0  0  0  0  0
   31.5350   30.2200   35.0920 N   0  0  0  0  0  0  0  0  0  0  0  0
   32.5630   29.7460   34.3550 C   0  0  0  0  0  0  0  0  0  0  0  0
   32.3710   28.9710   33.3810 O   0  0  0  0  0  0  0  0  0  0  0  0
   42.5956   21.1159   35.6526 H   0  0  0  0  0  0  0  0  0  0  0  0
   42.1457   21.3130   38.1467 H   0  0  0  0  0  0  0  0  0  0  0  0
   40.0417   22.5303   38.8660 H   0  0  0  0  0  0  0  0  0  0  0  0
   38.7418   21.5080   33.3135 H   0  0  0  0  0  0  0  0  0  0  0  0
   38.4665   28.0699   36.4384 H   0  0  0  0  0  0  0  0  0  0  0  0
   37.3967   28.8364   35.2339 H   0  0  0  0  0  0  0  0  0  0  0  0
   37.6266   28.6441   31.5466 H   0  0  0  0  0  0  0  0  0  0  0  0
   35.1659   31.2310   35.9443 H   0  0  0  0  0  0  0  0  0  0  0  0
   33.2008   32.1026   37.3065 H   0  0  0  0  0  0  0  0  0  0  0  0
   29.6798   31.2356   36.6302 H   0  0  0  0  0  0  0  0  0  0  0  0
   30.7896   32.1586   37.6786 H   0  0  0  0  0  0  0  0  0  0  0  0
  1  2  2  0
  2  3  1  0
  4  3  2  0
  5  4  1  0
  6  5  2  0
  6  1  1  0
  7  5  1  0
  8  7  1  0
  9 10  1  0
  9  8  2  0
 10 17  2  0
 11 10  1  0
 11 13  1  0
 12 11  2  0
 13 14  1  0
 14 16  2  0
 14 15  1  0
 17  7  1  0
 17 16  1  0
 18 13  1  0
 18 22  1  0
 19 20  1  0
 19 18  2  0
 20 21  1  0
 21 22  2  0
 21 23  1  0
 23 24  1  0
 24 25  2  0
 26 25  1  0
 26 27  1  0
 28 26  2  0
 29 23  1  0
 29 28  1  0
 30 29  2  0
  1 31  1  0
  2 32  1  0
  3 33  1  0
  8 34  1  0
 15 35  1  0
 15 36  1  0
 19 37  1  0
 24 38  1  0
 25 39  1  0
 27 40  1  0
 27 41  1  0
M  ISO  7  31  14  32  14  33  14  34  14  37  14  38  14  39  14
M  END
>  <minimizedAffinity>  (1) 
-7.0427165

>  <minimizedRMSD>  (1) 
2.40222812

$$$$
