
     RDKit          3D

 38 41  0  0  0  0  0  0  0  0999 V2000
   41.0990   26.8560   34.1300 C   0  0  0  0  0  0  0  0  0  0  0  0
   39.7840   27.1180   33.4820 C   0  0  0  0  0  0  0  0  0  0  0  0
   38.6280   27.1000   34.2390 C   0  0  0  0  0  0  0  0  0  0  0  0
   37.3550   27.3310   33.7310 C   0  0  0  0  0  0  0  0  0  0  0  0
   37.2730   27.5910   32.3950 N   0  0  0  0  0  0  0  0  0  0  0  0
   38.4040   27.6110   31.6410 C   0  0  0  0  0  0  0  0  0  0  0  0
   39.6340   27.3770   32.1850 N   0  0  0  0  0  0  0  0  0  0  0  0
   38.3540   27.8840   30.2140 C   0  0  0  0  0  0  0  0  0  0  0  0
   39.4540   27.6190   29.4000 C   0  0  0  0  0  0  0  0  0  0  0  0
   39.0810   27.9910   28.0950 C   0  0  0  0  0  0  0  0  0  0  0  0
   37.8110   28.4510   28.1650 N   0  0  0  0  0  0  0  0  0  0  0  0
   37.3750   28.3900   29.4140 N   0  0  0  0  0  0  0  0  0  0  0  0
   41.7430   25.5880   33.6180 C   0  0  0  0  0  0  0  0  0  0  0  0
   42.8760   23.0490   36.1140 C   0  0  0  0  0  0  0  0  0  0  0  0
   41.6640   22.7350   36.7450 C   0  0  0  0  0  0  0  0  0  0  0  0
   40.4950   23.3750   36.3260 C   0  0  0  0  0  0  0  0  0  0  0  0
   40.5890   24.2820   35.3160 N   0  0  0  0  0  0  0  0  0  0  0  0
   41.7810   24.5650   34.7240 C   0  0  0  0  0  0  0  0  0  0  0  0
   42.9020   23.9610   35.1150 N   0  0  0  0  0  0  0  0  0  0  0  0
   39.2080   23.1090   36.9240 C   0  0  0  0  0  0  0  0  0  0  0  0
   38.8640   23.3670   38.2360 C   0  0  0  0  0  0  0  0  0  0  0  0
   37.5590   22.9970   38.4880 C   0  0  0  0  0  0  0  0  0  0  0  0
   37.1290   22.5100   37.2870 N   0  0  0  0  0  0  0  0  0  0  0  0
   38.0910   22.5700   36.3550 N   0  0  0  0  0  0  0  0  0  0  0  0
   41.7705   27.7027   33.9246 H   0  0  0  0  0  0  0  0  0  0  0  0
   40.9265   26.7360   35.2097 H   0  0  0  0  0  0  0  0  0  0  0  0
   38.7214   26.8889   35.3145 H   0  0  0  0  0  0  0  0  0  0  0  0
   36.4617   27.3054   34.3723 H   0  0  0  0  0  0  0  0  0  0  0  0
   40.4218   27.2018   29.7152 H   0  0  0  0  0  0  0  0  0  0  0  0
   39.7034   27.9210   27.1907 H   0  0  0  0  0  0  0  0  0  0  0  0
   37.2634   28.7978   27.3645 H   0  0  0  0  0  0  0  0  0  0  0  0
   41.1582   25.1943   32.7736 H   0  0  0  0  0  0  0  0  0  0  0  0
   42.7679   25.8055   33.2828 H   0  0  0  0  0  0  0  0  0  0  0  0
   43.8057   22.5539   36.4311 H   0  0  0  0  0  0  0  0  0  0  0  0
   41.6340   21.9952   37.5585 H   0  0  0  0  0  0  0  0  0  0  0  0
   39.5410   23.8091   38.9818 H   0  0  0  0  0  0  0  0  0  0  0  0
   36.9987   23.0756   39.4313 H   0  0  0  0  0  0  0  0  0  0  0  0
   36.1820   22.1418   37.1178 H   0  0  0  0  0  0  0  0  0  0  0  0
  2  1  1  0
  2  3  2  0
  4  3  1  0
  5  4  2  0
  6  7  2  0
  6  5  1  0
  7  2  1  0
  8  6  1  0
  9  8  1  0
 10 11  1  0
 10  9  2  0
 11 12  1  0
 12  8  2  0
 13  1  1  0
 13 18  1  0
 14 15  2  0
 16 15  1  0
 16 20  1  0
 17 16  2  0
 18 19  2  0
 18 17  1  0
 19 14  1  0
 20 21  1  0
 21 22  2  0
 23 22  1  0
 24 20  2  0
 24 23  1  0
  1 25  1  0
  1 26  1  0
  3 27  1  0
  4 28  1  0
  9 29  1  0
 10 30  1  0
 11 31  1  0
 13 32  1  0
 13 33  1  0
 14 34  1  0
 15 35  1  0
 21 36  1  0
 22 37  1  0
 23 38  1  0
M  ISO  8  25   8  26   8  27  14  28  14  29  14  30  14  31   9  32   8
M  ISO  6  33   8  34  14  35  14  36  14  37  14  38   9
M  END
>  <minimizedAffinity>  (1) 
-5.2730875

>  <minimizedRMSD>  (1) 
2.71501112

$$$$
