
     RDKit          3D

 42 46  0  0  0  0  0  0  0  0999 V2000
   40.3890   26.9800   33.5700 C   0  0  0  0  0  0  0  0  0  0  0  0
   41.6370   23.4910   33.0810 C   0  0  0  0  0  0  0  0  0  0  0  0
   40.6260   22.7580   33.7200 C   0  0  0  0  0  0  0  0  0  0  0  0
   39.5540   23.4320   34.3000 C   0  0  0  0  0  0  0  0  0  0  0  0
   39.5230   24.7820   34.2250 N   0  0  0  0  0  0  0  0  0  0  0  0
   40.5280   25.4730   33.5910 C   0  0  0  0  0  0  0  0  0  0  0  0
   41.5530   24.8370   33.0370 N   0  0  0  0  0  0  0  0  0  0  0  0
   38.4740   22.8010   34.9720 N   0  0  0  0  0  0  0  0  0  0  0  0
   38.2220   22.9970   36.2930 C   0  0  0  0  0  0  0  0  0  0  0  0
   37.1290   22.2560   36.6280 N   0  0  0  0  0  0  0  0  0  0  0  0
   36.6840   21.5940   35.5510 C   0  0  0  0  0  0  0  0  0  0  0  0
   35.6540   20.7220   35.2790 C   0  0  0  0  0  0  0  0  0  0  0  0
   35.4940   20.2290   34.0270 N   0  0  0  0  0  0  0  0  0  0  0  0
   36.3400   20.5880   33.0410 C   0  0  0  0  0  0  0  0  0  0  0  0
   37.3600   21.4440   33.2840 N   0  0  0  0  0  0  0  0  0  0  0  0
   37.5330   21.9440   34.5230 C   0  0  0  0  0  0  0  0  0  0  0  0
   38.9560   27.3420   33.9130 C   0  0  0  0  0  0  0  0  0  0  0  0
   38.1020   27.4320   32.7060 C   0  0  0  0  0  0  0  0  0  0  0  0
   36.7600   27.0470   32.7840 C   0  0  0  0  0  0  0  0  0  0  0  0
   35.8600   27.0870   31.7160 C   0  0  0  0  0  0  0  0  0  0  0  0
   36.3550   27.5360   30.5300 N   0  0  0  0  0  0  0  0  0  0  0  0
   37.6450   27.9090   30.4400 C   0  0  0  0  0  0  0  0  0  0  0  0
   38.4790   27.8500   31.5140 N   0  0  0  0  0  0  0  0  0  0  0  0
   38.1980   28.3950   29.1800 C   0  0  0  0  0  0  0  0  0  0  0  0
   39.3210   27.7750   28.6250 C   0  0  0  0  0  0  0  0  0  0  0  0
   39.6250   28.4430   27.4300 C   0  0  0  0  0  0  0  0  0  0  0  0
   38.6970   29.4200   27.3090 N   0  0  0  0  0  0  0  0  0  0  0  0
   37.8510   29.3990   28.3350 N   0  0  0  0  0  0  0  0  0  0  0  0
   41.0703   27.4248   34.3103 H   0  0  0  0  0  0  0  0  0  0  0  0
   40.6440   27.3657   32.5719 H   0  0  0  0  0  0  0  0  0  0  0  0
   42.4908   22.9730   32.6198 H   0  0  0  0  0  0  0  0  0  0  0  0
   40.6794   21.6601   33.7627 H   0  0  0  0  0  0  0  0  0  0  0  0
   38.7994   23.6411   36.9726 H   0  0  0  0  0  0  0  0  0  0  0  0
   34.9600   20.4251   36.0791 H   0  0  0  0  0  0  0  0  0  0  0  0
   36.2001   20.1812   32.0286 H   0  0  0  0  0  0  0  0  0  0  0  0
   38.5454   26.5712   34.5818 H   0  0  0  0  0  0  0  0  0  0  0  0
   38.9620   28.3287   34.3992 H   0  0  0  0  0  0  0  0  0  0  0  0
   36.3867   26.6874   33.7542 H   0  0  0  0  0  0  0  0  0  0  0  0
   34.8115   26.7736   31.8272 H   0  0  0  0  0  0  0  0  0  0  0  0
   39.8669   26.9190   29.0484 H   0  0  0  0  0  0  0  0  0  0  0  0
   40.4476   28.2190   26.7350 H   0  0  0  0  0  0  0  0  0  0  0  0
   38.6518   30.0897   26.5277 H   0  0  0  0  0  0  0  0  0  0  0  0
  1  6  1  0
  1 17  1  0
  2  3  2  0
  3  4  1  0
  4  8  1  0
  5  4  2  0
  6  5  1  0
  7  2  1  0
  7  6  2  0
  8  9  1  0
  9 10  2  0
 11 10  1  0
 12 11  2  0
 13 12  1  0
 14 15  1  0
 14 13  2  0
 15 16  2  0
 16  8  1  0
 16 11  1  0
 18 19  2  0
 18 17  1  0
 20 19  1  0
 21 20  2  0
 22 21  1  0
 22 23  2  0
 23 18  1  0
 24 22  1  0
 25 24  1  0
 26 25  2  0
 27 26  1  0
 27 28  1  0
 28 24  2  0
  1 29  1  0
  1 30  1  0
  2 31  1  0
  3 32  1  0
  9 33  1  0
 12 34  1  0
 14 35  1  0
 17 36  1  0
 17 37  1  0
 19 38  1  0
 20 39  1  0
 25 40  1  0
 26 41  1  0
 27 42  1  0
M  ISO  8  29   8  30   8  31  14  32  14  33  14  34  14  35  14  36   8
M  ISO  6  37   8  38  14  39  14  40  14  41  14  42   9
M  END
>  <minimizedAffinity>  (1) 
-5.22800016

>  <minimizedRMSD>  (1) 
4.33231068

$$$$
