
     RDKit          3D

 43 47  0  0  0  0  0  0  0  0999 V2000
   39.9670   22.9790   37.2980 C   0  0  0  0  0  0  0  0  0  0  0  0
   39.1890   23.1400   38.4570 C   0  0  0  0  0  0  0  0  0  0  0  0
   37.9470   23.7520   38.3040 C   0  0  0  0  0  0  0  0  0  0  0  0
   37.5530   24.1570   37.0710 N   0  0  0  0  0  0  0  0  0  0  0  0
   38.3290   23.9850   35.9740 C   0  0  0  0  0  0  0  0  0  0  0  0
   39.5330   23.3970   36.0900 N   0  0  0  0  0  0  0  0  0  0  0  0
   37.9380   24.4000   34.6730 N   0  0  0  0  0  0  0  0  0  0  0  0
   38.0250   23.5610   33.6240 C   0  0  0  0  0  0  0  0  0  0  0  0
   37.5830   24.2380   32.5280 N   0  0  0  0  0  0  0  0  0  0  0  0
   37.2270   25.4730   32.8750 C   0  0  0  0  0  0  0  0  0  0  0  0
   36.7150   26.6270   32.2640 C   0  0  0  0  0  0  0  0  0  0  0  0
   36.5080   26.5370   31.0210 O   0  0  0  0  0  0  0  0  0  0  0  0
   36.4750   27.7360   32.9920 N   0  0  0  0  0  0  0  0  0  0  0  0
   36.7120   27.7780   34.3050 C   0  0  0  0  0  0  0  0  0  0  0  0
   36.3970   29.0360   34.9150 N   0  0  0  0  0  0  0  0  0  0  0  0
   37.2040   26.6910   34.9330 N   0  0  0  0  0  0  0  0  0  0  0  0
   37.4510   25.5780   34.2330 C   0  0  0  0  0  0  0  0  0  0  0  0
   35.9410   28.9290   32.3410 C   0  0  0  0  0  0  0  0  0  0  0  0
   36.7130   29.6430   31.3970 C   0  0  0  0  0  0  0  0  0  0  0  0
   35.5780   31.0220   30.9080 S   0  0  0  0  0  0  0  0  0  0  0  0
   34.2380   30.3710   32.0910 C   0  0  0  0  0  0  0  0  0  0  0  0
   34.7530   29.4600   32.5340 N   0  0  0  0  0  0  0  0  0  0  0  0
   32.9170   31.0220   32.2600 C   0  0  0  0  0  0  0  0  0  0  0  0
   31.8640   30.0680   32.7670 C   0  0  0  0  0  0  0  0  0  0  0  0
   30.6080   30.8880   32.5580 C   0  0  0  0  0  0  0  0  0  0  0  0
   30.8900   31.7760   31.3780 C   0  0  0  0  0  0  0  0  0  0  0  0
   32.3220   31.4680   30.9500 C   0  0  0  0  0  0  0  0  0  0  0  0
   40.9543   22.5004   37.3770 H   0  0  0  0  0  0  0  0  0  0  0  0
   39.5445   22.7983   39.4403 H   0  0  0  0  0  0  0  0  0  0  0  0
   37.2923   23.9053   39.1746 H   0  0  0  0  0  0  0  0  0  0  0  0
   38.3859   22.5221   33.6476 H   0  0  0  0  0  0  0  0  0  0  0  0
   36.5446   29.1696   35.9256 H   0  0  0  0  0  0  0  0  0  0  0  0
   36.0230   29.8065   34.3428 H   0  0  0  0  0  0  0  0  0  0  0  0
   37.7325   29.4324   31.0417 H   0  0  0  0  0  0  0  0  0  0  0  0
   33.1325   31.8499   32.9514 H   0  0  0  0  0  0  0  0  0  0  0  0
   31.8429   29.1392   32.1781 H   0  0  0  0  0  0  0  0  0  0  0  0
   32.0184   29.7301   33.8024 H   0  0  0  0  0  0  0  0  0  0  0  0
   29.7520   30.2303   32.3465 H   0  0  0  0  0  0  0  0  0  0  0  0
   30.3532   31.4736   33.4536 H   0  0  0  0  0  0  0  0  0  0  0  0
   30.1906   31.5553   30.5582 H   0  0  0  0  0  0  0  0  0  0  0  0
   30.7670   32.8383   31.6357 H   0  0  0  0  0  0  0  0  0  0  0  0
   32.3562   30.6676   30.1962 H   0  0  0  0  0  0  0  0  0  0  0  0
   32.8466   32.3096   30.4740 H   0  0  0  0  0  0  0  0  0  0  0  0
  1  2  2  0
  3  2  1  0
  4  3  2  0
  5  6  2  0
  5  4  1  0
  6  1  1  0
  7  5  1  0
  8  7  1  0
  9 10  1  0
  9  8  2  0
 10 17  2  0
 11 10  1  0
 11 13  1  0
 12 11  2  0
 13 14  1  0
 14 15  1  0
 14 16  2  0
 17  7  1  0
 17 16  1  0
 18 22  1  0
 18 13  1  0
 19 18  2  0
 20 19  1  0
 20 21  1  0
 21 23  1  0
 21 22  2  0
 23 24  1  0
 25 24  1  0
 26 25  1  0
 27 26  1  0
 27 23  1  0
  1 28  1  0
  2 29  1  0
  3 30  1  0
  8 31  1  0
 15 32  1  0
 15 33  1  0
 19 34  1  0
 23 35  1  0
 24 36  1  0
 24 37  1  0
 25 38  1  0
 25 39  1  0
 26 40  1  0
 26 41  1  0
 27 42  1  0
 27 43  1  0
M  ISO  8  28  14  29  14  30  14  31  14  34  14  35  13  36  13  37  13
M  ISO  6  38  13  39  13  40  13  41  13  42  13  43  13
M  END
>  <minimizedAffinity>  (1) 
-6.21802998

>  <minimizedRMSD>  (1) 
0.191462547

$$$$
