
     RDKit          3D

 33 36  0  0  0  0  0  0  0  0999 V2000
   39.9390   22.9720   37.3730 C   0  0  0  0  0  0  0  0  0  0  0  0
   39.1290   23.1410   38.5180 C   0  0  0  0  0  0  0  0  0  0  0  0
   37.8840   23.7460   38.3110 C   0  0  0  0  0  0  0  0  0  0  0  0
   37.5030   24.1390   37.0630 N   0  0  0  0  0  0  0  0  0  0  0  0
   38.3200   23.9520   36.0000 C   0  0  0  0  0  0  0  0  0  0  0  0
   39.5290   23.3710   36.1590 N   0  0  0  0  0  0  0  0  0  0  0  0
   37.9660   24.3440   34.6840 N   0  0  0  0  0  0  0  0  0  0  0  0
   38.0870   23.4820   33.6460 C   0  0  0  0  0  0  0  0  0  0  0  0
   37.6750   24.1380   32.5230 N   0  0  0  0  0  0  0  0  0  0  0  0
   37.3040   25.3770   32.8370 C   0  0  0  0  0  0  0  0  0  0  0  0
   36.8080   26.5220   32.2080 C   0  0  0  0  0  0  0  0  0  0  0  0
   36.6390   26.4050   30.9570 O   0  0  0  0  0  0  0  0  0  0  0  0
   36.5420   27.6460   32.9060 N   0  0  0  0  0  0  0  0  0  0  0  0
   36.7400   27.7040   34.2120 C   0  0  0  0  0  0  0  0  0  0  0  0
   36.4030   28.9780   34.7980 N   0  0  0  0  0  0  0  0  0  0  0  0
   37.2200   26.6240   34.8760 N   0  0  0  0  0  0  0  0  0  0  0  0
   37.4870   25.5120   34.2020 C   0  0  0  0  0  0  0  0  0  0  0  0
   36.0240   28.8200   32.2100 C   0  0  0  0  0  0  0  0  0  0  0  0
   36.8520   29.5680   31.3360 C   0  0  0  0  0  0  0  0  0  0  0  0
   35.6910   30.8950   30.7640 S   0  0  0  0  0  0  0  0  0  0  0  0
   34.2950   30.1880   31.8180 C   0  0  0  0  0  0  0  0  0  0  0  0
   34.8060   29.3070   32.2940 N   0  0  0  0  0  0  0  0  0  0  0  0
   33.0380   30.9430   31.7140 C   0  0  0  0  0  0  0  0  0  0  0  0
   32.2490   31.1340   32.6730 O   0  0  0  0  0  0  0  0  0  0  0  0
   32.7740   31.4460   30.4500 O   0  0  0  0  0  0  0  0  0  0  0  0
   40.9282   22.5027   37.4789 H   0  0  0  0  0  0  0  0  0  0  0  0
   39.4582   22.8155   39.5158 H   0  0  0  0  0  0  0  0  0  0  0  0
   37.2071   23.9057   39.1632 H   0  0  0  0  0  0  0  0  0  0  0  0
   38.4502   22.4450   33.6988 H   0  0  0  0  0  0  0  0  0  0  0  0
   36.5211   29.1266   35.8104 H   0  0  0  0  0  0  0  0  0  0  0  0
   36.0442   29.7393   34.2041 H   0  0  0  0  0  0  0  0  0  0  0  0
   37.9061   29.4042   31.0677 H   0  0  0  0  0  0  0  0  0  0  0  0
   31.9486   31.9679   30.2874 H   0  0  0  0  0  0  0  0  0  0  0  0
  1  2  2  0
  3  2  1  0
  4  3  2  0
  5  6  2  0
  5  4  1  0
  6  1  1  0
  7  5  1  0
  8  7  1  0
  9 10  1  0
  9  8  2  0
 10 17  2  0
 11 10  1  0
 11 13  1  0
 12 11  2  0
 13 14  1  0
 14 15  1  0
 14 16  2  0
 17  7  1  0
 17 16  1  0
 18 22  1  0
 18 13  1  0
 19 18  2  0
 20 19  1  0
 20 21  1  0
 21 22  2  0
 23 21  1  0
 23 24  2  0
 25 23  1  0
  1 26  1  0
  2 27  1  0
  3 28  1  0
  8 29  1  0
 15 30  1  0
 15 31  1  0
 19 32  1  0
 25 33  1  0
M  ISO  6  26  14  27  14  28  14  29  14  32  14  33   3
M  END
>  <minimizedAffinity>  (1) 
-5.98112679

>  <minimizedRMSD>  (1) 
0.31833306

$$$$
