
     RDKit          3D

 33 36  0  0  0  0  0  0  0  0999 V2000
   39.9780   23.0210   37.3120 C   0  0  0  0  0  0  0  0  0  0  0  0
   39.1780   23.1520   38.4600 C   0  0  0  0  0  0  0  0  0  0  0  0
   37.9120   23.7380   38.2800 C   0  0  0  0  0  0  0  0  0  0  0  0
   37.5250   24.1420   37.0440 N   0  0  0  0  0  0  0  0  0  0  0  0
   38.3450   23.9900   35.9590 C   0  0  0  0  0  0  0  0  0  0  0  0
   39.5590   23.4350   36.1000 N   0  0  0  0  0  0  0  0  0  0  0  0
   37.9580   24.4040   34.6700 N   0  0  0  0  0  0  0  0  0  0  0  0
   38.0660   23.5570   33.6110 C   0  0  0  0  0  0  0  0  0  0  0  0
   37.6240   24.2220   32.5130 N   0  0  0  0  0  0  0  0  0  0  0  0
   37.2420   25.4610   32.8480 C   0  0  0  0  0  0  0  0  0  0  0  0
   36.7190   26.6020   32.2350 C   0  0  0  0  0  0  0  0  0  0  0  0
   36.5230   26.5080   30.9930 O   0  0  0  0  0  0  0  0  0  0  0  0
   36.4560   27.7130   32.9640 N   0  0  0  0  0  0  0  0  0  0  0  0
   36.6820   27.7600   34.2780 C   0  0  0  0  0  0  0  0  0  0  0  0
   36.3430   29.0100   34.8720 N   0  0  0  0  0  0  0  0  0  0  0  0
   37.1870   26.6740   34.9080 N   0  0  0  0  0  0  0  0  0  0  0  0
   37.4570   25.5650   34.2100 C   0  0  0  0  0  0  0  0  0  0  0  0
   35.9100   28.8910   32.3010 C   0  0  0  0  0  0  0  0  0  0  0  0
   36.7130   29.6840   31.4470 C   0  0  0  0  0  0  0  0  0  0  0  0
   35.5330   30.9990   30.9030 S   0  0  0  0  0  0  0  0  0  0  0  0
   34.1520   30.2340   31.9380 C   0  0  0  0  0  0  0  0  0  0  0  0
   34.6770   29.3420   32.4020 N   0  0  0  0  0  0  0  0  0  0  0  0
   32.7780   30.8130   31.9950 C   0  0  0  0  0  0  0  0  0  0  0  0
   40.9756   22.5671   37.4056 H   0  0  0  0  0  0  0  0  0  0  0  0
   39.5239   22.8139   39.4479 H   0  0  0  0  0  0  0  0  0  0  0  0
   37.2375   23.8684   39.1391 H   0  0  0  0  0  0  0  0  0  0  0  0
   38.4421   22.5237   33.6391 H   0  0  0  0  0  0  0  0  0  0  0  0
   36.4784   29.1534   35.8829 H   0  0  0  0  0  0  0  0  0  0  0  0
   35.9626   29.7702   34.2904 H   0  0  0  0  0  0  0  0  0  0  0  0
   37.7708   29.5515   31.1758 H   0  0  0  0  0  0  0  0  0  0  0  0
   32.4769   30.9399   33.0453 H   0  0  0  0  0  0  0  0  0  0  0  0
   32.7709   31.7906   31.4908 H   0  0  0  0  0  0  0  0  0  0  0  0
   32.0733   30.1353   31.4908 H   0  0  0  0  0  0  0  0  0  0  0  0
  1  2  2  0
  3  2  1  0
  4  3  2  0
  5  6  2  0
  5  4  1  0
  6  1  1  0
  7  5  1  0
  8  7  1  0
  9 10  1  0
  9  8  2  0
 10 17  2  0
 11 10  1  0
 11 13  1  0
 12 11  2  0
 13 14  1  0
 14 15  1  0
 14 16  2  0
 17  7  1  0
 17 16  1  0
 18 22  1  0
 18 13  1  0
 19 18  2  0
 20 19  1  0
 20 21  1  0
 21 23  1  0
 21 22  2  0
  1 24  1  0
  2 25  1  0
  3 26  1  0
  8 27  1  0
 15 28  1  0
 15 29  1  0
 19 30  1  0
 23 31  1  0
 23 32  1  0
 23 33  1  0
M  ISO  8  24  14  25  14  26  14  27  14  30  14  31   8  32   8  33   8
M  END
>  <minimizedAffinity>  (1) 
-5.78914499

>  <minimizedRMSD>  (1) 
0.0185372159

$$$$
