
     RDKit          3D

 36 39  0  0  0  0  0  0  0  0999 V2000
   39.9650   22.9910   37.3320 C   0  0  0  0  0  0  0  0  0  0  0  0
   39.1610   23.1390   38.4860 C   0  0  0  0  0  0  0  0  0  0  0  0
   37.9110   23.7340   38.2940 C   0  0  0  0  0  0  0  0  0  0  0  0
   37.5180   24.1340   37.0530 N   0  0  0  0  0  0  0  0  0  0  0  0
   38.3250   23.9690   35.9780 C   0  0  0  0  0  0  0  0  0  0  0  0
   39.5320   23.4020   36.1320 N   0  0  0  0  0  0  0  0  0  0  0  0
   37.9570   24.3690   34.6800 N   0  0  0  0  0  0  0  0  0  0  0  0
   38.0670   23.5140   33.6270 C   0  0  0  0  0  0  0  0  0  0  0  0
   37.6390   24.1790   32.5140 N   0  0  0  0  0  0  0  0  0  0  0  0
   37.2650   25.4190   32.8410 C   0  0  0  0  0  0  0  0  0  0  0  0
   36.7580   26.5610   32.2230 C   0  0  0  0  0  0  0  0  0  0  0  0
   36.5730   26.4590   30.9830 O   0  0  0  0  0  0  0  0  0  0  0  0
   36.4940   27.6830   32.9410 N   0  0  0  0  0  0  0  0  0  0  0  0
   36.7100   27.7320   34.2550 C   0  0  0  0  0  0  0  0  0  0  0  0
   36.3750   28.9990   34.8520 N   0  0  0  0  0  0  0  0  0  0  0  0
   37.2010   26.6480   34.8960 N   0  0  0  0  0  0  0  0  0  0  0  0
   37.4660   25.5350   34.2070 C   0  0  0  0  0  0  0  0  0  0  0  0
   35.9650   28.8590   32.2650 C   0  0  0  0  0  0  0  0  0  0  0  0
   36.7700   29.6290   31.3970 C   0  0  0  0  0  0  0  0  0  0  0  0
   35.5990   30.9520   30.8500 S   0  0  0  0  0  0  0  0  0  0  0  0
   34.2180   30.2170   31.9060 C   0  0  0  0  0  0  0  0  0  0  0  0
   34.7390   29.3320   32.3680 N   0  0  0  0  0  0  0  0  0  0  0  0
   32.8960   30.8990   31.8890 C   0  0  0  0  0  0  0  0  0  0  0  0
   31.8700   30.2220   32.7360 C   0  0  0  0  0  0  0  0  0  0  0  0
   40.9606   22.5317   37.4206 H   0  0  0  0  0  0  0  0  0  0  0  0
   39.5000   22.8050   39.4777 H   0  0  0  0  0  0  0  0  0  0  0  0
   37.2390   23.8804   39.1525 H   0  0  0  0  0  0  0  0  0  0  0  0
   38.4334   22.4775   33.6655 H   0  0  0  0  0  0  0  0  0  0  0  0
   36.5047   29.1419   35.8638 H   0  0  0  0  0  0  0  0  0  0  0  0
   36.0057   29.7623   34.2672 H   0  0  0  0  0  0  0  0  0  0  0  0
   37.8235   29.4801   31.1178 H   0  0  0  0  0  0  0  0  0  0  0  0
   33.0290   31.9271   32.2569 H   0  0  0  0  0  0  0  0  0  0  0  0
   32.5301   30.8733   30.8520 H   0  0  0  0  0  0  0  0  0  0  0  0
   32.1091   30.3798   33.7980 H   0  0  0  0  0  0  0  0  0  0  0  0
   30.8778   30.6433   32.5171 H   0  0  0  0  0  0  0  0  0  0  0  0
   31.8671   29.1440   32.5171 H   0  0  0  0  0  0  0  0  0  0  0  0
  1  2  2  0
  3  2  1  0
  4  3  2  0
  5  6  2  0
  5  4  1  0
  6  1  1  0
  7  5  1  0
  8  7  1  0
  9 10  1  0
  9  8  2  0
 10 17  2  0
 11 10  1  0
 11 13  1  0
 12 11  2  0
 13 14  1  0
 14 15  1  0
 14 16  2  0
 17  7  1  0
 17 16  1  0
 18 22  1  0
 18 13  1  0
 19 18  2  0
 20 19  1  0
 20 21  1  0
 21 22  2  0
 23 21  1  0
 23 24  1  0
  1 25  1  0
  2 26  1  0
  3 27  1  0
  8 28  1  0
 15 29  1  0
 15 30  1  0
 19 31  1  0
 23 32  1  0
 23 33  1  0
 24 34  1  0
 24 35  1  0
 24 36  1  0
M  ISO  8  25  14  26  14  27  14  28  14  31  14  32   8  33   8  34   8
M  ISO  2  35   8  36   8
M  END
>  <minimizedAffinity>  (1) 
-5.69407511

>  <minimizedRMSD>  (1) 
0.139278725

$$$$
