
     RDKit          3D

 34 36  0  0  0  0  0  0  0  0999 V2000
   40.3490   26.4960   34.8080 C   0  0  0  0  0  0  0  0  0  0  0  0
   39.0760   27.0250   34.2310 C   0  0  0  0  0  0  0  0  0  0  0  0
   37.9930   27.3150   35.0590 C   0  0  0  0  0  0  0  0  0  0  0  0
   36.7790   27.8080   34.6090 C   0  0  0  0  0  0  0  0  0  0  0  0
   36.6570   28.0150   33.2690 N   0  0  0  0  0  0  0  0  0  0  0  0
   37.7100   27.7360   32.4490 C   0  0  0  0  0  0  0  0  0  0  0  0
   38.8770   27.2530   32.9490 N   0  0  0  0  0  0  0  0  0  0  0  0
   37.6180   27.9440   31.0120 C   0  0  0  0  0  0  0  0  0  0  0  0
   38.7650   28.1760   30.2600 C   0  0  0  0  0  0  0  0  0  0  0  0
   38.3530   28.3360   28.9240 C   0  0  0  0  0  0  0  0  0  0  0  0
   37.0120   28.1960   28.9240 N   0  0  0  0  0  0  0  0  0  0  0  0
   36.5680   27.9650   30.1520 N   0  0  0  0  0  0  0  0  0  0  0  0
   40.6410   25.0870   34.3450 C   0  0  0  0  0  0  0  0  0  0  0  0
   41.4210   22.5640   36.9900 C   0  0  0  0  0  0  0  0  0  0  0  0
   40.1980   22.5140   37.6830 C   0  0  0  0  0  0  0  0  0  0  0  0
   39.1360   23.3220   37.2570 C   0  0  0  0  0  0  0  0  0  0  0  0
   39.3460   24.1250   36.1780 N   0  0  0  0  0  0  0  0  0  0  0  0
   40.5460   24.1530   35.5240 C   0  0  0  0  0  0  0  0  0  0  0  0
   41.5620   23.3870   35.9220 N   0  0  0  0  0  0  0  0  0  0  0  0
   37.8190   23.3240   37.9370 C   0  0  0  0  0  0  0  0  0  0  0  0
   41.1775   27.1500   34.4983 H   0  0  0  0  0  0  0  0  0  0  0  0
   40.2428   26.4776   35.9027 H   0  0  0  0  0  0  0  0  0  0  0  0
   38.1096   27.1413   36.1389 H   0  0  0  0  0  0  0  0  0  0  0  0
   35.9522   28.0222   35.3022 H   0  0  0  0  0  0  0  0  0  0  0  0
   39.7970   28.2250   30.6376 H   0  0  0  0  0  0  0  0  0  0  0  0
   38.9961   28.5353   28.0541 H   0  0  0  0  0  0  0  0  0  0  0  0
   36.4155   28.2596   28.0867 H   0  0  0  0  0  0  0  0  0  0  0  0
   39.9081   24.7909   33.5801 H   0  0  0  0  0  0  0  0  0  0  0  0
   41.6520   25.0396   33.9141 H   0  0  0  0  0  0  0  0  0  0  0  0
   42.2631   21.9352   37.3147 H   0  0  0  0  0  0  0  0  0  0  0  0
   40.0769   21.8478   38.5499 H   0  0  0  0  0  0  0  0  0  0  0  0
   37.9690   23.3238   39.0267 H   0  0  0  0  0  0  0  0  0  0  0  0
   37.2567   24.2230   37.6445 H   0  0  0  0  0  0  0  0  0  0  0  0
   37.2539   22.4267   37.6445 H   0  0  0  0  0  0  0  0  0  0  0  0
  2  1  1  0
  2  3  2  0
  4  3  1  0
  5  4  2  0
  6  7  2  0
  6  5  1  0
  7  2  1  0
  8  6  1  0
  9  8  1  0
 10  9  2  0
 11 10  1  0
 11 12  1  0
 12  8  2  0
 13  1  1  0
 13 18  1  0
 14 15  2  0
 16 15  1  0
 16 20  1  0
 17 16  2  0
 18 19  2  0
 18 17  1  0
 19 14  1  0
  1 21  1  0
  1 22  1  0
  3 23  1  0
  4 24  1  0
  9 25  1  0
 10 26  1  0
 11 27  1  0
 13 28  1  0
 13 29  1  0
 14 30  1  0
 15 31  1  0
 20 32  1  0
 20 33  1  0
 20 34  1  0
M  ISO  8  21   8  22   8  23  14  24  14  25  14  26  14  27   9  28   8
M  ISO  6  29   8  30  14  31  14  32   8  33   8  34   8
M  END
>  <minimizedAffinity>  (1) 
-5.18161154

>  <minimizedRMSD>  (1) 
1.28657258

$$$$
