
     RDKit          3D

 44 49  0  0  1  0  0  0  0  0999 V2000
   40.1450   22.7550   37.3360 C   0  0  0  0  0  0  0  0  0  0  0  0
   39.4130   22.9770   38.5230 C   0  0  0  0  0  0  0  0  0  0  0  0
   38.1760   23.6260   38.3980 C   0  0  0  0  0  0  0  0  0  0  0  0
   37.7400   24.0060   37.1740 N   0  0  0  0  0  0  0  0  0  0  0  0
   38.4770   23.7740   36.0570 C   0  0  0  0  0  0  0  0  0  0  0  0
   39.6710   23.1520   36.1400 N   0  0  0  0  0  0  0  0  0  0  0  0
   38.0470   24.1600   34.7700 N   0  0  0  0  0  0  0  0  0  0  0  0
   38.0610   23.2750   33.7380 C   0  0  0  0  0  0  0  0  0  0  0  0
   37.5970   23.9320   32.6400 N   0  0  0  0  0  0  0  0  0  0  0  0
   37.2910   25.1910   32.9390 C   0  0  0  0  0  0  0  0  0  0  0  0
   36.7960   26.3510   32.3350 C   0  0  0  0  0  0  0  0  0  0  0  0
   36.5350   26.2160   31.0960 O   0  0  0  0  0  0  0  0  0  0  0  0
   36.6250   27.5020   33.0520 N   0  0  0  0  0  0  0  0  0  0  0  0
   36.9170   27.5660   34.3290 C   0  0  0  0  0  0  0  0  0  0  0  0
   36.6690   28.8530   34.8910 N   0  0  0  0  0  0  0  0  0  0  0  0
   37.4000   26.4690   34.9600 N   0  0  0  0  0  0  0  0  0  0  0  0
   37.5780   25.3230   34.2800 C   0  0  0  0  0  0  0  0  0  0  0  0
   36.1060   28.6740   32.3600 C   0  0  0  0  0  0  0  0  0  0  0  0
   36.8030   29.2800   31.3000 C   0  0  0  0  0  0  0  0  0  0  0  0
   35.6900   30.6830   30.8130 S   0  0  0  0  0  0  0  0  0  0  0  0
   34.4730   30.1910   32.1430 C   0  0  0  0  0  0  0  0  0  0  0  0
   34.9770   29.2960   32.6020 N   0  0  0  0  0  0  0  0  0  0  0  0
   33.1950   31.0400   32.2640 C   0  0  1  0  0  0  0  0  0  0  0  0
   32.3170   30.7800   33.4140 C   0  0  0  0  0  0  0  0  0  0  0  0
   33.2710   32.0140   33.3520 C   0  0  1  0  0  0  0  0  0  0  0  0
   34.2920   32.0330   34.3700 N   0  0  0  0  0  0  0  0  0  0  0  0
   33.7970   31.7130   35.5840 C   0  0  0  0  0  0  0  0  0  0  0  0
   34.8370   31.7420   36.5210 C   0  0  0  0  0  0  0  0  0  0  0  0
   35.9420   32.0830   35.8340 N   0  0  0  0  0  0  0  0  0  0  0  0
   35.6190   32.2580   34.5440 C   0  0  0  0  0  0  0  0  0  0  0  0
   41.1200   22.2486   37.3895 H   0  0  0  0  0  0  0  0  0  0  0  0
   39.7961   22.6551   39.5026 H   0  0  0  0  0  0  0  0  0  0  0  0
   37.5634   23.8252   39.2897 H   0  0  0  0  0  0  0  0  0  0  0  0
   38.3863   22.2251   33.7821 H   0  0  0  0  0  0  0  0  0  0  0  0
   36.8605   29.0251   35.8883 H   0  0  0  0  0  0  0  0  0  0  0  0
   36.2984   29.6105   34.2996 H   0  0  0  0  0  0  0  0  0  0  0  0
   37.7718   28.9926   30.8653 H   0  0  0  0  0  0  0  0  0  0  0  0
   32.9827   31.0865   31.1857 H   0  0  0  0  0  0  0  0  0  0  0  0
   31.2287   30.9128   33.3246 H   0  0  0  0  0  0  0  0  0  0  0  0
   32.1486   29.9436   34.1083 H   0  0  0  0  0  0  0  0  0  0  0  0
   33.2368   33.1135   33.3507 H   0  0  0  0  0  0  0  0  0  0  0  0
   32.7468   31.4690   35.8020 H   0  0  0  0  0  0  0  0  0  0  0  0
   34.7652   31.5295   37.5979 H   0  0  0  0  0  0  0  0  0  0  0  0
   36.3231   32.5410   33.7477 H   0  0  0  0  0  0  0  0  0  0  0  0
  1  2  2  0
  3  2  1  0
  4  3  2  0
  5  6  2  0
  5  4  1  0
  6  1  1  0
  7  5  1  0
  8  7  1  0
  9 10  1  0
  9  8  2  0
 10 17  2  0
 11 10  1  0
 11 13  1  0
 12 11  2  0
 13 14  1  0
 14 15  1  0
 14 16  2  0
 17  7  1  0
 17 16  1  0
 18 22  1  0
 18 13  1  0
 19 18  2  0
 20 19  1  0
 20 21  1  0
 21 23  1  0
 21 22  2  0
 23 25  1  0
 23 24  1  0
 25 24  1  0
 25 26  1  0
 26 30  1  0
 26 27  1  0
 27 28  2  0
 29 28  1  0
 30 29  2  0
  1 31  1  0
  2 32  1  0
  3 33  1  0
  8 34  1  0
 15 35  1  0
 15 36  1  0
 19 37  1  0
 23 38  1  6
 24 39  1  0
 24 40  1  0
 25 41  1  6
 27 42  1  0
 28 43  1  0
 30 44  1  0
M  ISO  8  31  14  32  14  33  14  34  14  37  14  38  13  39  13  40  13
M  ISO  4  41  13  42  14  43  14  44  14
M  END
>  <minimizedAffinity>  (1) 
-6.41040039

>  <minimizedRMSD>  (1) 
0.755421579

$$$$
