
     RDKit          3D

 47 52  0  0  1  0  0  0  0  0999 V2000
   41.1000   21.9890   36.2710 C   0  0  0  0  0  0  0  0  0  0  0  0
   40.6900   22.1900   37.6080 C   0  0  0  0  0  0  0  0  0  0  0  0
   39.4750   22.8680   37.7990 C   0  0  0  0  0  0  0  0  0  0  0  0
   38.7700   23.2870   36.7250 N   0  0  0  0  0  0  0  0  0  0  0  0
   39.2070   23.0690   35.4470 C   0  0  0  0  0  0  0  0  0  0  0  0
   40.3630   22.4260   35.2350 N   0  0  0  0  0  0  0  0  0  0  0  0
   38.4870   23.4980   34.3220 N   0  0  0  0  0  0  0  0  0  0  0  0
   38.2340   22.6390   33.2950 C   0  0  0  0  0  0  0  0  0  0  0  0
   37.5270   23.3300   32.3610 N   0  0  0  0  0  0  0  0  0  0  0  0
   37.3290   24.5840   32.7590 C   0  0  0  0  0  0  0  0  0  0  0  0
   36.7210   25.7640   32.3170 C   0  0  0  0  0  0  0  0  0  0  0  0
   36.1650   25.6600   31.1800 O   0  0  0  0  0  0  0  0  0  0  0  0
   36.7490   26.8980   33.0790 N   0  0  0  0  0  0  0  0  0  0  0  0
   37.3430   26.9280   34.2470 C   0  0  0  0  0  0  0  0  0  0  0  0
   37.2580   28.2040   34.8790 N   0  0  0  0  0  0  0  0  0  0  0  0
   37.9500   25.8110   34.7230 N   0  0  0  0  0  0  0  0  0  0  0  0
   37.9400   24.6860   34.0040 C   0  0  0  0  0  0  0  0  0  0  0  0
   36.0960   28.0970   32.5600 C   0  0  0  0  0  0  0  0  0  0  0  0
   36.6700   28.8550   31.5220 C   0  0  0  0  0  0  0  0  0  0  0  0
   35.4280   30.2140   31.2840 S   0  0  0  0  0  0  0  0  0  0  0  0
   34.3570   29.5020   32.6390 C   0  0  0  0  0  0  0  0  0  0  0  0
   34.9530   28.6010   32.9600 N   0  0  0  0  0  0  0  0  0  0  0  0
   33.0380   30.2420   32.9470 C   0  0  1  0  0  0  0  0  0  0  0  0
   31.8240   29.4210   33.0670 C   0  0  0  0  0  0  0  0  0  0  0  0
   32.5790   29.9910   34.3180 C   0  0  2  0  0  0  0  0  0  0  0  0
   31.7480   30.9370   35.0920 C   0  0  0  0  0  0  0  0  0  0  0  0
   32.1250   32.2800   35.1110 C   0  0  0  0  0  0  0  0  0  0  0  0
   31.3530   33.1930   35.8370 C   0  0  0  0  0  0  0  0  0  0  0  0
   30.2300   32.7910   36.5320 C   0  0  0  0  0  0  0  0  0  0  0  0
   29.8450   31.4480   36.5190 C   0  0  0  0  0  0  0  0  0  0  0  0
   30.6170   30.5430   35.7950 C   0  0  0  0  0  0  0  0  0  0  0  0
   42.0451   21.4622   36.0729 H   0  0  0  0  0  0  0  0  0  0  0  0
   41.2921   21.8334   38.4567 H   0  0  0  0  0  0  0  0  0  0  0  0
   39.0999   23.0566   38.8157 H   0  0  0  0  0  0  0  0  0  0  0  0
   38.5433   21.5852   33.2330 H   0  0  0  0  0  0  0  0  0  0  0  0
   37.6884   28.3506   35.8032 H   0  0  0  0  0  0  0  0  0  0  0  0
   36.7663   28.9787   34.4111 H   0  0  0  0  0  0  0  0  0  0  0  0
   37.6159   28.6849   30.9869 H   0  0  0  0  0  0  0  0  0  0  0  0
   33.2481   31.1368   32.3427 H   0  0  0  0  0  0  0  0  0  0  0  0
   30.8453   29.8289   32.7742 H   0  0  0  0  0  0  0  0  0  0  0  0
   31.5032   28.4273   32.7211 H   0  0  0  0  0  0  0  0  0  0  0  0
   33.1217   29.6586   35.2152 H   0  0  0  0  0  0  0  0  0  0  0  0
   33.0172   32.6164   34.5625 H   0  0  0  0  0  0  0  0  0  0  0  0
   31.6467   34.2529   35.8545 H   0  0  0  0  0  0  0  0  0  0  0  0
   29.6387   33.5276   37.0957 H   0  0  0  0  0  0  0  0  0  0  0  0
   28.9526   31.1132   37.0681 H   0  0  0  0  0  0  0  0  0  0  0  0
   30.3219   29.4834   35.7795 H   0  0  0  0  0  0  0  0  0  0  0  0
  1  2  2  0
  2  3  1  0
  4  3  2  0
  5  4  1  0
  6  5  2  0
  6  1  1  0
  7  5  1  0
  8  7  1  0
  9 10  1  0
  9  8  2  0
 10 17  2  0
 11 10  1  0
 11 13  1  0
 12 11  2  0
 13 14  1  0
 14 16  2  0
 14 15  1  0
 17  7  1  0
 17 16  1  0
 18 22  1  0
 18 13  1  0
 19 18  2  0
 20 19  1  0
 20 21  1  0
 21 23  1  0
 21 22  2  0
 23 24  1  0
 23 25  1  0
 24 25  1  0
 25 26  1  0
 26 27  2  0
 26 31  1  0
 27 28  1  0
 28 29  2  0
 30 29  1  0
 31 30  2  0
  1 32  1  0
  2 33  1  0
  3 34  1  0
  8 35  1  0
 15 36  1  0
 15 37  1  0
 19 38  1  0
 23 39  1  6
 24 40  1  0
 24 41  1  0
 25 42  1  1
 27 43  1  0
 28 44  1  0
 29 45  1  0
 30 46  1  0
 31 47  1  0
M  ISO  8  32  14  33  14  34  14  35  14  38  14  39  13  40  13  41  13
M  ISO  6  42  13  43  14  44  14  45  14  46  14  47  14
M  END
>  <minimizedAffinity>  (1) 
-6.20260382

>  <minimizedRMSD>  (1) 
1.75034857

$$$$
