
     RDKit          3D

 44 49  0  0  1  0  0  0  0  0999 V2000
   40.8940   22.3620   36.3740 C   0  0  0  0  0  0  0  0  0  0  0  0
   40.4120   22.5080   37.6930 C   0  0  0  0  0  0  0  0  0  0  0  0
   39.1590   23.1380   37.8360 C   0  0  0  0  0  0  0  0  0  0  0  0
   38.4960   23.5590   36.7370 N   0  0  0  0  0  0  0  0  0  0  0  0
   39.0040   23.3930   35.4900 C   0  0  0  0  0  0  0  0  0  0  0  0
   40.1930   22.7990   35.3190 N   0  0  0  0  0  0  0  0  0  0  0  0
   38.3300   23.8260   34.3180 N   0  0  0  0  0  0  0  0  0  0  0  0
   38.1670   23.0000   33.2620 C   0  0  0  0  0  0  0  0  0  0  0  0
   37.4940   23.6970   32.3120 N   0  0  0  0  0  0  0  0  0  0  0  0
   37.2290   24.9270   32.7280 C   0  0  0  0  0  0  0  0  0  0  0  0
   36.6090   26.1040   32.2940 C   0  0  0  0  0  0  0  0  0  0  0  0
   36.1250   26.0190   31.1220 O   0  0  0  0  0  0  0  0  0  0  0  0
   36.5550   27.2140   33.0900 N   0  0  0  0  0  0  0  0  0  0  0  0
   37.0800   27.2240   34.2920 C   0  0  0  0  0  0  0  0  0  0  0  0
   36.9130   28.4740   34.9560 N   0  0  0  0  0  0  0  0  0  0  0  0
   37.6930   26.1080   34.7630 N   0  0  0  0  0  0  0  0  0  0  0  0
   37.7610   25.0070   34.0050 C   0  0  0  0  0  0  0  0  0  0  0  0
   35.8940   28.4050   32.5680 C   0  0  0  0  0  0  0  0  0  0  0  0
   36.4300   29.1390   31.4920 C   0  0  0  0  0  0  0  0  0  0  0  0
   35.1950   30.5000   31.2670 S   0  0  0  0  0  0  0  0  0  0  0  0
   34.1710   29.8270   32.6770 C   0  0  0  0  0  0  0  0  0  0  0  0
   34.7720   28.9270   32.9980 N   0  0  0  0  0  0  0  0  0  0  0  0
   32.8720   30.5770   33.0160 C   0  0  1  0  0  0  0  0  0  0  0  0
   31.6230   29.8110   33.0270 C   0  0  0  0  0  0  0  0  0  0  0  0
   32.3630   30.2040   34.3470 C   0  0  2  0  0  0  0  0  0  0  0  0
   31.7810   31.2930   35.1360 C   0  0  0  0  0  0  0  0  0  0  0  0
   32.2230   32.6000   35.1390 C   0  0  0  0  0  0  0  0  0  0  0  0
   31.4030   33.2600   36.0050 N   0  0  0  0  0  0  0  0  0  0  0  0
   30.4930   32.4420   36.5300 C   0  0  0  0  0  0  0  0  0  0  0  0
   30.7230   31.2350   35.9980 N   0  0  0  0  0  0  0  0  0  0  0  0
   41.8679   21.8781   36.2086 H   0  0  0  0  0  0  0  0  0  0  0  0
   40.9833   22.1496   38.5620 H   0  0  0  0  0  0  0  0  0  0  0  0
   38.7242   23.2857   38.8356 H   0  0  0  0  0  0  0  0  0  0  0  0
   38.5142   21.9590   33.1863 H   0  0  0  0  0  0  0  0  0  0  0  0
   37.2836   28.6050   35.9080 H   0  0  0  0  0  0  0  0  0  0  0  0
   36.4217   29.2464   34.4838 H   0  0  0  0  0  0  0  0  0  0  0  0
   37.3538   28.9503   30.9255 H   0  0  0  0  0  0  0  0  0  0  0  0
   33.1341   31.5145   32.5037 H   0  0  0  0  0  0  0  0  0  0  0  0
   30.6725   30.2950   32.7582 H   0  0  0  0  0  0  0  0  0  0  0  0
   31.2673   28.8755   32.5706 H   0  0  0  0  0  0  0  0  0  0  0  0
   32.7443   29.6628   35.2255 H   0  0  0  0  0  0  0  0  0  0  0  0
   33.0608   33.0208   34.5636 H   0  0  0  0  0  0  0  0  0  0  0  0
   29.7092   32.7051   37.2555 H   0  0  0  0  0  0  0  0  0  0  0  0
   30.1803   30.3852   36.2084 H   0  0  0  0  0  0  0  0  0  0  0  0
  1  2  2  0
  2  3  1  0
  4  3  2  0
  5  4  1  0
  6  5  2  0
  6  1  1  0
  7  5  1  0
  8  7  1  0
  9 10  1  0
  9  8  2  0
 10 17  2  0
 11 10  1  0
 11 13  1  0
 12 11  2  0
 13 14  1  0
 14 16  2  0
 14 15  1  0
 17  7  1  0
 17 16  1  0
 18 22  1  0
 18 13  1  0
 19 18  2  0
 20 19  1  0
 20 21  1  0
 21 22  2  0
 21 23  1  0
 23 24  1  0
 23 25  1  0
 24 25  1  0
 25 26  1  0
 26 27  2  0
 26 30  1  0
 27 28  1  0
 28 29  2  0
 30 29  1  0
  1 31  1  0
  2 32  1  0
  3 33  1  0
  8 34  1  0
 15 35  1  0
 15 36  1  0
 19 37  1  0
 23 38  1  1
 24 39  1  0
 24 40  1  0
 25 41  1  1
 27 42  1  0
 29 43  1  0
 30 44  1  0
M  ISO  8  31  14  32  14  33  14  34  14  37  14  38  13  39  13  40  13
M  ISO  4  41  13  42  14  43  14  44   9
M  END
>  <minimizedAffinity>  (1) 
-5.99684334

>  <minimizedRMSD>  (1) 
1.6728996

$$$$
