
     RDKit          3D

 32 34  0  0  0  0  0  0  0  0999 V2000
   40.4110   26.4440   34.7630 C   0  0  0  0  0  0  0  0  0  0  0  0
   39.1530   26.9740   34.1910 C   0  0  0  0  0  0  0  0  0  0  0  0
   38.0870   27.2510   35.0360 C   0  0  0  0  0  0  0  0  0  0  0  0
   36.8540   27.7520   34.6180 C   0  0  0  0  0  0  0  0  0  0  0  0
   36.7130   27.9760   33.2740 N   0  0  0  0  0  0  0  0  0  0  0  0
   37.7580   27.7030   32.4460 C   0  0  0  0  0  0  0  0  0  0  0  0
   38.9450   27.2140   32.9080 N   0  0  0  0  0  0  0  0  0  0  0  0
   37.6450   27.9300   31.0080 C   0  0  0  0  0  0  0  0  0  0  0  0
   38.7700   28.1850   30.2410 C   0  0  0  0  0  0  0  0  0  0  0  0
   38.3440   28.3580   28.9120 C   0  0  0  0  0  0  0  0  0  0  0  0
   36.9990   28.2010   28.9260 N   0  0  0  0  0  0  0  0  0  0  0  0
   36.5810   27.9500   30.1600 N   0  0  0  0  0  0  0  0  0  0  0  0
   40.7270   25.0530   34.3000 C   0  0  0  0  0  0  0  0  0  0  0  0
   41.5960   22.4900   36.8700 C   0  0  0  0  0  0  0  0  0  0  0  0
   40.4020   22.4500   37.6250 C   0  0  0  0  0  0  0  0  0  0  0  0
   39.3280   23.2860   37.2550 C   0  0  0  0  0  0  0  0  0  0  0  0
   39.5070   24.0950   36.1750 N   0  0  0  0  0  0  0  0  0  0  0  0
   40.6650   24.1100   35.4720 C   0  0  0  0  0  0  0  0  0  0  0  0
   41.6920   23.3220   35.8120 N   0  0  0  0  0  0  0  0  0  0  0  0
   37.8060   23.2580   38.1880 S   0  0  0  0  0  0  0  0  0  0  0  0
   41.2370   27.1076   34.4674 H   0  0  0  0  0  0  0  0  0  0  0  0
   40.2845   26.4057   35.8550 H   0  0  0  0  0  0  0  0  0  0  0  0
   38.2242   27.0621   36.1109 H   0  0  0  0  0  0  0  0  0  0  0  0
   36.0396   27.9560   35.3287 H   0  0  0  0  0  0  0  0  0  0  0  0
   39.8065   28.2418   30.6048 H   0  0  0  0  0  0  0  0  0  0  0  0
   38.9754   28.5766   28.0382 H   0  0  0  0  0  0  0  0  0  0  0  0
   36.3890   28.2669   28.0987 H   0  0  0  0  0  0  0  0  0  0  0  0
   39.9938   24.7435   33.5406 H   0  0  0  0  0  0  0  0  0  0  0  0
   41.7366   25.0313   33.8638 H   0  0  0  0  0  0  0  0  0  0  0  0
   42.4441   21.8452   37.1438 H   0  0  0  0  0  0  0  0  0  0  0  0
   40.3115   21.7760   38.4896 H   0  0  0  0  0  0  0  0  0  0  0  0
   38.0916   23.2633   39.5279 H   0  0  0  0  0  0  0  0  0  0  0  0
  2  1  1  0
  2  3  2  0
  4  3  1  0
  5  4  2  0
  6  7  2  0
  6  5  1  0
  7  2  1  0
  8  6  1  0
  9  8  1  0
 10 11  1  0
 10  9  2  0
 11 12  1  0
 12  8  2  0
 13  1  1  0
 13 18  1  0
 14 15  2  0
 16 15  1  0
 16 20  1  0
 17 16  2  0
 18 19  2  0
 18 17  1  0
 19 14  1  0
  1 21  1  0
  1 22  1  0
  3 23  1  0
  4 24  1  0
  9 25  1  0
 10 26  1  0
 11 27  1  0
 13 28  1  0
 13 29  1  0
 14 30  1  0
 15 31  1  0
 20 32  1  0
M  ISO  8  21   8  22   8  23  14  24  14  25  14  26  14  27   9  28   8
M  ISO  4  29   8  30  14  31  14  32  11
M  END
>  <minimizedAffinity>  (1) 
-5.04094315

>  <minimizedRMSD>  (1) 
1.38820314

$$$$
