
     RDKit          3D

 40 44  0  0  1  0  0  0  0  0999 V2000
   40.0750   22.9400   37.1590 C   0  0  0  0  0  0  0  0  0  0  0  0
   39.3190   23.0820   38.3460 C   0  0  0  0  0  0  0  0  0  0  0  0
   38.0560   23.6870   38.2180 C   0  0  0  0  0  0  0  0  0  0  0  0
   37.6330   24.0940   36.9990 N   0  0  0  0  0  0  0  0  0  0  0  0
   38.3960   23.9360   35.8860 C   0  0  0  0  0  0  0  0  0  0  0  0
   39.6120   23.3610   35.9700 N   0  0  0  0  0  0  0  0  0  0  0  0
   37.9720   24.3540   34.6120 N   0  0  0  0  0  0  0  0  0  0  0  0
   38.0420   23.5110   33.5480 C   0  0  0  0  0  0  0  0  0  0  0  0
   37.5670   24.1910   32.4690 N   0  0  0  0  0  0  0  0  0  0  0  0
   37.2040   25.4150   32.8000 C   0  0  0  0  0  0  0  0  0  0  0  0
   36.6690   26.5820   32.2420 C   0  0  0  0  0  0  0  0  0  0  0  0
   36.4360   26.4810   30.9980 O   0  0  0  0  0  0  0  0  0  0  0  0
   36.4370   27.6980   32.9990 N   0  0  0  0  0  0  0  0  0  0  0  0
   36.7030   27.7260   34.2820 C   0  0  0  0  0  0  0  0  0  0  0  0
   36.3850   28.9790   34.8860 N   0  0  0  0  0  0  0  0  0  0  0  0
   37.2220   26.6270   34.8770 N   0  0  0  0  0  0  0  0  0  0  0  0
   37.4610   25.5220   34.1670 C   0  0  0  0  0  0  0  0  0  0  0  0
   35.8770   28.8750   32.3400 C   0  0  0  0  0  0  0  0  0  0  0  0
   36.6570   29.6630   31.4610 C   0  0  0  0  0  0  0  0  0  0  0  0
   35.4540   30.9750   30.9370 S   0  0  0  0  0  0  0  0  0  0  0  0
   34.1200   30.2140   32.0010 C   0  0  0  0  0  0  0  0  0  0  0  0
   34.6580   29.3330   32.4560 N   0  0  0  0  0  0  0  0  0  0  0  0
   32.7420   30.8950   31.9900 C   0  0  1  0  0  0  0  0  0  0  0  0
   31.6550   30.2390   32.7300 C   0  0  0  0  0  0  0  0  0  0  0  0
   32.4160   31.4910   33.2950 C   0  0  2  0  0  0  0  0  0  0  0  0
   31.6660   32.7810   33.3590 C   0  0  0  0  0  0  0  0  0  0  0  0
   41.0692   22.4721   37.2107 H   0  0  0  0  0  0  0  0  0  0  0  0
   39.6993   22.7371   39.3188 H   0  0  0  0  0  0  0  0  0  0  0  0
   37.4169   23.8282   39.1021 H   0  0  0  0  0  0  0  0  0  0  0  0
   38.4124   22.4753   33.5573 H   0  0  0  0  0  0  0  0  0  0  0  0
   36.5503   29.1222   35.8925 H   0  0  0  0  0  0  0  0  0  0  0  0
   35.9901   29.7403   34.3155 H   0  0  0  0  0  0  0  0  0  0  0  0
   37.7080   29.5315   31.1641 H   0  0  0  0  0  0  0  0  0  0  0  0
   32.7901   31.2548   30.9516 H   0  0  0  0  0  0  0  0  0  0  0  0
   30.6142   30.3296   32.3857 H   0  0  0  0  0  0  0  0  0  0  0  0
   31.4410   29.2188   33.0814 H   0  0  0  0  0  0  0  0  0  0  0  0
   32.9901   31.7451   34.1983 H   0  0  0  0  0  0  0  0  0  0  0  0
   31.5042   33.0593   34.4109 H   0  0  0  0  0  0  0  0  0  0  0  0
   32.2472   33.5683   32.8566 H   0  0  0  0  0  0  0  0  0  0  0  0
   30.6943   32.6655   32.8566 H   0  0  0  0  0  0  0  0  0  0  0  0
  1  2  2  0
  3  2  1  0
  4  3  2  0
  5  6  2  0
  5  4  1  0
  6  1  1  0
  7  5  1  0
  8  7  1  0
  9 10  1  0
  9  8  2  0
 10 17  2  0
 11 10  1  0
 11 13  1  0
 12 11  2  0
 13 14  1  0
 14 16  2  0
 14 15  1  0
 17  7  1  0
 17 16  1  0
 18 22  1  0
 18 13  1  0
 19 18  2  0
 20 19  1  0
 20 21  1  0
 21 22  2  0
 23 21  1  0
 23 24  1  0
 23 25  1  0
 24 25  1  0
 25 26  1  0
  1 27  1  0
  2 28  1  0
  3 29  1  0
  8 30  1  0
 15 31  1  0
 15 32  1  0
 19 33  1  0
 23 34  1  6
 24 35  1  0
 24 36  1  0
 25 37  1  1
 26 38  1  0
 26 39  1  0
 26 40  1  0
M  ISO  8  27  14  28  14  29  14  30  14  33  14  34  13  35  13  36  13
M  ISO  4  37  13  38   8  39   8  40   8
M  END
>  <minimizedAffinity>  (1) 
-5.87858009

>  <minimizedRMSD>  (1) 
0.10474892

$$$$
