
     RDKit          3D

 42 47  0  0  1  0  0  0  0  0999 V2000
   40.9320   22.4310   36.4460 C   0  0  0  0  0  0  0  0  0  0  0  0
   40.3930   22.5650   37.7530 C   0  0  0  0  0  0  0  0  0  0  0  0
   39.1290   23.1620   37.8610 C   0  0  0  0  0  0  0  0  0  0  0  0
   38.4910   23.5760   36.7430 N   0  0  0  0  0  0  0  0  0  0  0  0
   39.0460   23.4280   35.4980 C   0  0  0  0  0  0  0  0  0  0  0  0
   40.2550   22.8600   35.3620 N   0  0  0  0  0  0  0  0  0  0  0  0
   38.3940   23.8540   34.3290 N   0  0  0  0  0  0  0  0  0  0  0  0
   38.2730   23.0250   33.2650 C   0  0  0  0  0  0  0  0  0  0  0  0
   37.6050   23.7050   32.2950 N   0  0  0  0  0  0  0  0  0  0  0  0
   37.3050   24.9320   32.7200 C   0  0  0  0  0  0  0  0  0  0  0  0
   36.6660   26.0890   32.2630 C   0  0  0  0  0  0  0  0  0  0  0  0
   36.2080   25.9980   31.0780 O   0  0  0  0  0  0  0  0  0  0  0  0
   36.5660   27.1970   33.0580 N   0  0  0  0  0  0  0  0  0  0  0  0
   37.0630   27.2180   34.2700 C   0  0  0  0  0  0  0  0  0  0  0  0
   36.8520   28.4630   34.9370 N   0  0  0  0  0  0  0  0  0  0  0  0
   37.6920   26.1110   34.7490 N   0  0  0  0  0  0  0  0  0  0  0  0
   37.8060   25.0200   34.0030 C   0  0  0  0  0  0  0  0  0  0  0  0
   35.8890   28.3720   32.5240 C   0  0  0  0  0  0  0  0  0  0  0  0
   36.4980   29.2170   31.5840 C   0  0  0  0  0  0  0  0  0  0  0  0
   35.2030   30.4990   31.2650 S   0  0  0  0  0  0  0  0  0  0  0  0
   34.0500   29.6600   32.4720 C   0  0  0  0  0  0  0  0  0  0  0  0
   34.6790   28.7840   32.8170 N   0  0  0  0  0  0  0  0  0  0  0  0
   32.6590   30.2940   32.6700 C   0  0  1  0  0  0  0  0  0  0  0  0
   31.5690   29.3930   33.0670 C   0  0  0  0  0  0  0  0  0  0  0  0
   32.2820   30.3480   34.0880 C   0  0  2  0  0  0  0  0  0  0  0  0
   31.3740   31.4000   34.6110 C   0  0  0  0  0  0  0  0  0  0  0  0
   31.0640   32.5660   34.0320 N   0  0  0  0  0  0  0  0  0  0  0  0
   30.2270   33.2230   34.8090 O   0  0  0  0  0  0  0  0  0  0  0  0
   29.9770   32.5210   35.8850 C   0  0  0  0  0  0  0  0  0  0  0  0
   30.6870   31.3650   35.7880 N   0  0  0  0  0  0  0  0  0  0  0  0
   41.9213   21.9681   36.3156 H   0  0  0  0  0  0  0  0  0  0  0  0
   40.9421   22.2163   38.6401 H   0  0  0  0  0  0  0  0  0  0  0  0
   38.6600   23.2926   38.8474 H   0  0  0  0  0  0  0  0  0  0  0  0
   38.6461   21.9924   33.1978 H   0  0  0  0  0  0  0  0  0  0  0  0
   37.1992   28.5981   35.8972 H   0  0  0  0  0  0  0  0  0  0  0  0
   36.3526   29.2258   34.4578 H   0  0  0  0  0  0  0  0  0  0  0  0
   37.5026   29.1366   31.1433 H   0  0  0  0  0  0  0  0  0  0  0  0
   32.7303   31.0247   31.8508 H   0  0  0  0  0  0  0  0  0  0  0  0
   30.5364   29.5936   32.7454 H   0  0  0  0  0  0  0  0  0  0  0  0
   31.3709   28.3131   32.9994 H   0  0  0  0  0  0  0  0  0  0  0  0
   32.8745   30.3017   35.0137 H   0  0  0  0  0  0  0  0  0  0  0  0
   29.3153   32.8120   36.7141 H   0  0  0  0  0  0  0  0  0  0  0  0
  1  2  2  0
  2  3  1  0
  4  3  2  0
  5  4  1  0
  6  5  2  0
  6  1  1  0
  7  5  1  0
  8  7  1  0
  9 10  1  0
  9  8  2  0
 10 17  2  0
 11 10  1  0
 11 13  1  0
 12 11  2  0
 13 14  1  0
 14 16  2  0
 14 15  1  0
 17  7  1  0
 17 16  1  0
 18 22  1  0
 18 13  1  0
 19 18  2  0
 20 19  1  0
 20 21  1  0
 21 23  1  0
 21 22  2  0
 23 24  1  0
 23 25  1  0
 24 25  1  0
 25 26  1  0
 26 30  1  0
 27 26  2  0
 27 28  1  0
 28 29  1  0
 30 29  2  0
  1 31  1  0
  2 32  1  0
  3 33  1  0
  8 34  1  0
 15 35  1  0
 15 36  1  0
 19 37  1  0
 23 38  1  6
 24 39  1  0
 24 40  1  0
 25 41  1  1
 29 42  1  0
M  ISO  8  31  14  32  14  33  14  34  14  37  14  38  13  39  13  40  13
M  ISO  2  41  13  42  14
M  END
>  <minimizedAffinity>  (1) 
-5.85970497

>  <minimizedRMSD>  (1) 
1.31115663

$$$$
