
     RDKit          3D

 49 53  0  0  1  0  0  0  0  0999 V2000
   40.0110   22.9570   37.2910 C   0  0  0  0  0  0  0  0  0  0  0  0
   39.2180   23.1150   38.4570 C   0  0  0  0  0  0  0  0  0  0  0  0
   37.9660   23.7240   38.2930 C   0  0  0  0  0  0  0  0  0  0  0  0
   37.5750   24.1250   37.0610 N   0  0  0  0  0  0  0  0  0  0  0  0
   38.3710   23.9520   35.9630 C   0  0  0  0  0  0  0  0  0  0  0  0
   39.5680   23.3750   36.0960 N   0  0  0  0  0  0  0  0  0  0  0  0
   37.9810   24.3620   34.6750 N   0  0  0  0  0  0  0  0  0  0  0  0
   38.0790   23.5140   33.6230 C   0  0  0  0  0  0  0  0  0  0  0  0
   37.6340   24.1860   32.5260 N   0  0  0  0  0  0  0  0  0  0  0  0
   37.2620   25.4150   32.8440 C   0  0  0  0  0  0  0  0  0  0  0  0
   36.7420   26.5750   32.2600 C   0  0  0  0  0  0  0  0  0  0  0  0
   36.5420   26.4630   31.0090 O   0  0  0  0  0  0  0  0  0  0  0  0
   36.4890   27.6950   33.0010 N   0  0  0  0  0  0  0  0  0  0  0  0
   36.7220   27.7330   34.2910 C   0  0  0  0  0  0  0  0  0  0  0  0
   36.3890   28.9910   34.8760 N   0  0  0  0  0  0  0  0  0  0  0  0
   37.2260   26.6330   34.9090 N   0  0  0  0  0  0  0  0  0  0  0  0
   37.4840   25.5270   34.2160 C   0  0  0  0  0  0  0  0  0  0  0  0
   35.9490   28.8660   32.3190 C   0  0  0  0  0  0  0  0  0  0  0  0
   36.7250   29.6210   31.4220 C   0  0  0  0  0  0  0  0  0  0  0  0
   35.5370   30.9400   30.8770 S   0  0  0  0  0  0  0  0  0  0  0  0
   34.2020   30.2240   31.9700 C   0  0  0  0  0  0  0  0  0  0  0  0
   34.7320   29.3440   32.4390 N   0  0  0  0  0  0  0  0  0  0  0  0
   32.8330   30.9310   31.9530 C   0  0  1  0  0  0  0  0  0  0  0  0
   31.7340   30.2830   32.6840 C   0  0  0  0  0  0  0  0  0  0  0  0
   32.5070   31.5170   33.2640 C   0  0  2  0  0  0  0  0  0  0  0  0
   31.6710   32.7580   33.3790 C   0  0  0  0  0  0  0  0  0  0  0  0
   32.3050   33.6890   34.3800 C   0  0  0  0  0  0  0  0  0  0  0  0
   31.5820   33.4880   32.0580 C   0  0  0  0  0  0  0  0  0  0  0  0
   30.2540   32.4710   33.8280 C   0  0  0  0  0  0  0  0  0  0  0  0
   41.0019   22.4856   37.3681 H   0  0  0  0  0  0  0  0  0  0  0  0
   39.5690   22.7757   39.4428 H   0  0  0  0  0  0  0  0  0  0  0  0
   37.3059   23.8749   39.1599 H   0  0  0  0  0  0  0  0  0  0  0  0
   38.4484   22.4782   33.6502 H   0  0  0  0  0  0  0  0  0  0  0  0
   36.5282   29.1426   35.8852 H   0  0  0  0  0  0  0  0  0  0  0  0
   36.0094   29.7475   34.2891 H   0  0  0  0  0  0  0  0  0  0  0  0
   37.7716   29.4688   31.1195 H   0  0  0  0  0  0  0  0  0  0  0  0
   32.8924   31.3018   30.9191 H   0  0  0  0  0  0  0  0  0  0  0  0
   30.6959   30.3907   32.3366 H   0  0  0  0  0  0  0  0  0  0  0  0
   31.5055   29.2624   33.0249 H   0  0  0  0  0  0  0  0  0  0  0  0
   33.1194   31.7817   34.1386 H   0  0  0  0  0  0  0  0  0  0  0  0
   32.0715   33.3461   35.3988 H   0  0  0  0  0  0  0  0  0  0  0  0
   33.3955   33.6947   34.2360 H   0  0  0  0  0  0  0  0  0  0  0  0
   31.9108   34.7058   34.2360 H   0  0  0  0  0  0  0  0  0  0  0  0
   31.4508   34.5645   32.2421 H   0  0  0  0  0  0  0  0  0  0  0  0
   32.5068   33.3240   31.4854 H   0  0  0  0  0  0  0  0  0  0  0  0
   30.7237   33.1066   31.4854 H   0  0  0  0  0  0  0  0  0  0  0  0
   30.2123   32.4625   34.9272 H   0  0  0  0  0  0  0  0  0  0  0  0
   29.5818   33.2512   33.4415 H   0  0  0  0  0  0  0  0  0  0  0  0
   29.9384   31.4907   33.4415 H   0  0  0  0  0  0  0  0  0  0  0  0
  1  2  2  0
  3  2  1  0
  4  3  2  0
  5  6  2  0
  5  4  1  0
  6  1  1  0
  7  5  1  0
  8  7  1  0
  9 10  1  0
  9  8  2  0
 10 17  2  0
 11 10  1  0
 11 13  1  0
 12 11  2  0
 13 14  1  0
 14 15  1  0
 14 16  2  0
 17  7  1  0
 17 16  1  0
 18 22  1  0
 18 13  1  0
 19 18  2  0
 20 19  1  0
 20 21  1  0
 21 22  2  0
 23 21  1  0
 23 24  1  0
 23 25  1  0
 24 25  1  0
 25 26  1  0
 26 29  1  0
 26 27  1  0
 28 26  1  0
  1 30  1  0
  2 31  1  0
  3 32  1  0
  8 33  1  0
 15 34  1  0
 15 35  1  0
 19 36  1  0
 23 37  1  6
 24 38  1  0
 24 39  1  0
 25 40  1  1
 27 41  1  0
 27 42  1  0
 27 43  1  0
 28 44  1  0
 28 45  1  0
 28 46  1  0
 29 47  1  0
 29 48  1  0
 29 49  1  0
M  ISO  8  30  14  31  14  32  14  33  14  36  14  37  13  38  13  39  13
M  ISO  8  40  13  41   8  42   8  43   8  44   8  45   8  46   8  47   8
M  ISO  2  48   8  49   8
M  END
>  <minimizedAffinity>  (1) 
-5.82663345

>  <minimizedRMSD>  (1) 
0.0416408442

$$$$
