
     RDKit          3D

 40 44  0  0  1  0  0  0  0  0999 V2000
   40.0140   22.9750   37.2910 C   0  0  0  0  0  0  0  0  0  0  0  0
   39.2100   23.1180   38.4530 C   0  0  0  0  0  0  0  0  0  0  0  0
   37.9490   23.7090   38.2880 C   0  0  0  0  0  0  0  0  0  0  0  0
   37.5560   24.1120   37.0590 N   0  0  0  0  0  0  0  0  0  0  0  0
   38.3620   23.9550   35.9670 C   0  0  0  0  0  0  0  0  0  0  0  0
   39.5800   23.3910   36.0890 N   0  0  0  0  0  0  0  0  0  0  0  0
   37.9730   24.3660   34.6770 N   0  0  0  0  0  0  0  0  0  0  0  0
   38.0760   23.5170   33.6160 C   0  0  0  0  0  0  0  0  0  0  0  0
   37.6310   24.1870   32.5210 N   0  0  0  0  0  0  0  0  0  0  0  0
   37.2550   25.4180   32.8400 C   0  0  0  0  0  0  0  0  0  0  0  0
   36.7370   26.5740   32.2580 C   0  0  0  0  0  0  0  0  0  0  0  0
   36.5370   26.4710   31.0070 O   0  0  0  0  0  0  0  0  0  0  0  0
   36.4790   27.6940   32.9970 N   0  0  0  0  0  0  0  0  0  0  0  0
   36.7090   27.7300   34.2870 C   0  0  0  0  0  0  0  0  0  0  0  0
   36.3800   28.9850   34.8800 N   0  0  0  0  0  0  0  0  0  0  0  0
   37.2120   26.6410   34.9140 N   0  0  0  0  0  0  0  0  0  0  0  0
   37.4740   25.5270   34.2100 C   0  0  0  0  0  0  0  0  0  0  0  0
   35.9370   28.8670   32.3210 C   0  0  0  0  0  0  0  0  0  0  0  0
   36.7190   29.6270   31.4240 C   0  0  0  0  0  0  0  0  0  0  0  0
   35.5520   30.9500   30.8770 S   0  0  0  0  0  0  0  0  0  0  0  0
   34.2050   30.2390   31.9620 C   0  0  0  0  0  0  0  0  0  0  0  0
   34.7280   29.3500   32.4350 N   0  0  0  0  0  0  0  0  0  0  0  0
   32.8410   30.9540   31.9420 C   0  0  1  0  0  0  0  0  0  0  0  0
   31.7430   30.3050   32.6760 C   0  0  0  0  0  0  0  0  0  0  0  0
   32.5140   31.5440   33.2430 C   0  0  2  0  0  0  0  0  0  0  0  0
   31.6500   32.7380   33.3710 C   0  0  0  0  0  0  0  0  0  0  0  0
   31.5830   33.5970   32.4280 O   0  0  0  0  0  0  0  0  0  0  0  0
   30.8850   32.9780   34.5040 O   0  0  0  0  0  0  0  0  0  0  0  0
   41.0098   22.5155   37.3764 H   0  0  0  0  0  0  0  0  0  0  0  0
   39.5610   22.7800   39.4392 H   0  0  0  0  0  0  0  0  0  0  0  0
   37.2836   23.8438   39.1535 H   0  0  0  0  0  0  0  0  0  0  0  0
   38.4496   22.4827   33.6414 H   0  0  0  0  0  0  0  0  0  0  0  0
   36.5193   29.1295   35.8903 H   0  0  0  0  0  0  0  0  0  0  0  0
   36.0032   29.7466   34.2979 H   0  0  0  0  0  0  0  0  0  0  0  0
   37.7657   29.4698   31.1246 H   0  0  0  0  0  0  0  0  0  0  0  0
   32.9028   31.3252   30.9084 H   0  0  0  0  0  0  0  0  0  0  0  0
   30.7044   30.4072   32.3284 H   0  0  0  0  0  0  0  0  0  0  0  0
   31.5167   29.2863   33.0239 H   0  0  0  0  0  0  0  0  0  0  0  0
   33.1424   31.8289   34.0997 H   0  0  0  0  0  0  0  0  0  0  0  0
   30.3177   33.7877   34.5559 H   0  0  0  0  0  0  0  0  0  0  0  0
  1  2  2  0
  3  2  1  0
  4  3  2  0
  5  6  2  0
  5  4  1  0
  6  1  1  0
  7  5  1  0
  8  7  1  0
  9 10  1  0
  9  8  2  0
 10 17  2  0
 11 10  1  0
 11 13  1  0
 12 11  2  0
 13 14  1  0
 14 15  1  0
 14 16  2  0
 17  7  1  0
 17 16  1  0
 18 22  1  0
 18 13  1  0
 19 18  2  0
 20 19  1  0
 20 21  1  0
 21 22  2  0
 23 21  1  0
 23 24  1  0
 23 25  1  0
 24 25  1  0
 25 26  1  0
 26 28  1  0
 27 26  2  0
  1 29  1  0
  2 30  1  0
  3 31  1  0
  8 32  1  0
 15 33  1  0
 15 34  1  0
 19 35  1  0
 23 36  1  6
 24 37  1  0
 24 38  1  0
 25 39  1  1
 28 40  1  0
M  ISO  8  29  14  30  14  31  14  32  14  35  14  36  13  37  13  38  13
M  ISO  2  39  13  40   3
M  END
>  <minimizedAffinity>  (1) 
-5.71490955

>  <minimizedRMSD>  (1) 
0.0176792052

$$$$
