
     RDKit          3D

 34 36  0  0  0  0  0  0  0  0999 V2000
   38.9990   24.5480   36.2550 C   0  0  0  0  0  0  0  0  0  0  0  0
   38.3610   24.0970   37.4130 C   0  0  0  0  0  0  0  0  0  0  0  0
   39.0340   23.0810   38.0950 C   0  0  0  0  0  0  0  0  0  0  0  0
   40.2500   22.5840   37.6200 C   0  0  0  0  0  0  0  0  0  0  0  0
   40.8180   23.0940   36.4530 C   0  0  0  0  0  0  0  0  0  0  0  0
   40.1880   24.1010   35.7470 C   0  0  0  0  0  0  0  0  0  0  0  0
   38.3490   26.9130   36.0530 C   0  0  0  0  0  0  0  0  0  0  0  0
   38.3040   25.5840   35.5250 C   0  0  0  0  0  0  0  0  0  0  0  0
   37.5980   25.3640   34.3560 C   0  0  0  0  0  0  0  0  0  0  0  0
   36.9750   26.4160   33.7540 N   0  0  0  0  0  0  0  0  0  0  0  0
   37.0360   27.6850   34.2880 C   0  0  0  0  0  0  0  0  0  0  0  0
   37.7290   27.9330   35.4480 N   0  0  0  0  0  0  0  0  0  0  0  0
   40.9630   24.4860   34.6420 N   0  0  0  0  0  0  0  0  0  0  0  0
   41.0040   24.0970   33.2170 C   0  0  0  0  0  0  0  0  0  0  0  0
   40.9150   25.2880   32.3260 C   0  0  0  0  0  0  0  0  0  0  0  0
   40.6910   26.5240   33.0350 N   0  0  0  0  0  0  0  0  0  0  0  0
   41.6340   26.7710   34.1040 C   0  0  0  0  0  0  0  0  0  0  0  0
   41.9670   25.5380   34.8900 C   0  0  0  0  0  0  0  0  0  0  0  0
   37.4027   24.5102   37.7608 H   0  0  0  0  0  0  0  0  0  0  0  0
   38.6012   22.6670   39.0176 H   0  0  0  0  0  0  0  0  0  0  0  0
   40.7642   21.7831   38.1715 H   0  0  0  0  0  0  0  0  0  0  0  0
   41.7756   22.6913   36.0914 H   0  0  0  0  0  0  0  0  0  0  0  0
   38.9083   27.1014   36.9813 H   0  0  0  0  0  0  0  0  0  0  0  0
   37.5404   24.3561   33.9193 H   0  0  0  0  0  0  0  0  0  0  0  0
   36.5217   28.5124   33.7773 H   0  0  0  0  0  0  0  0  0  0  0  0
   41.9485   23.5700   33.0168 H   0  0  0  0  0  0  0  0  0  0  0  0
   40.1423   23.4451   33.0110 H   0  0  0  0  0  0  0  0  0  0  0  0
   40.0832   25.1348   31.6227 H   0  0  0  0  0  0  0  0  0  0  0  0
   41.8841   25.3809   31.8139 H   0  0  0  0  0  0  0  0  0  0  0  0
   40.7558   27.3000   32.3608 H   0  0  0  0  0  0  0  0  0  0  0  0
   42.5618   27.1694   33.6675 H   0  0  0  0  0  0  0  0  0  0  0  0
   41.1654   27.4855   34.7967 H   0  0  0  0  0  0  0  0  0  0  0  0
   41.9783   25.7832   35.9623 H   0  0  0  0  0  0  0  0  0  0  0  0
   42.9553   25.1703   34.5771 H   0  0  0  0  0  0  0  0  0  0  0  0
  1  2  2  0
  2  3  1  0
  4  3  2  0
  5  4  1  0
  6  1  1  0
  6  5  2  0
  8  7  2  0
  8  1  1  0
  9  8  1  0
 10 11  1  0
 10  9  2  0
 11 12  2  0
 12  7  1  0
 13 18  1  0
 13  6  1  0
 14 13  1  0
 15 16  1  0
 15 14  1  0
 16 17  1  0
 17 18  1  0
  2 19  1  0
  3 20  1  0
  4 21  1  0
  5 22  1  0
  7 23  1  0
  9 24  1  0
 11 25  1  0
 14 26  1  0
 14 27  1  0
 15 28  1  0
 15 29  1  0
 16 30  1  0
 17 31  1  0
 17 32  1  0
 18 33  1  0
 18 34  1  0
M  ISO  8  19  14  20  14  21  14  22  14  23  14  24  14  25  14  26  13
M  ISO  8  27  13  28  13  29  13  30   5  31  13  32  13  33  13  34  13
M  END
>  <minimizedAffinity>  (1) 
-4.5396018

>  <minimizedRMSD>  (1) 
6.59971523

$$$$
