
     RDKit          3D

 27 28  0  0  0  0  0  0  0  0999 V2000
   36.2610   21.0440   32.1710 C   0  0  0  0  0  0  0  0  0  0  0  0
   36.7140   20.4260   30.9990 C   0  0  0  0  0  0  0  0  0  0  0  0
   36.5970   19.0380   30.9490 C   0  0  0  0  0  0  0  0  0  0  0  0
   36.0490   18.3510   32.0380 C   0  0  0  0  0  0  0  0  0  0  0  0
   35.6210   19.0480   33.1670 C   0  0  0  0  0  0  0  0  0  0  0  0
   35.7040   20.4530   33.2950 C   0  0  0  0  0  0  0  0  0  0  0  0
   35.5080   23.3130   31.5400 C   0  0  0  0  0  0  0  0  0  0  0  0
   36.4650   22.4870   32.2100 C   0  0  0  0  0  0  0  0  0  0  0  0
   37.5610   23.0790   32.8740 C   0  0  0  0  0  0  0  0  0  0  0  0
   37.6640   24.4340   32.8540 N   0  0  0  0  0  0  0  0  0  0  0  0
   36.7300   25.2170   32.2030 C   0  0  0  0  0  0  0  0  0  0  0  0
   35.6570   24.6530   31.5480 N   0  0  0  0  0  0  0  0  0  0  0  0
   35.1220   21.0420   34.4070 N   0  0  0  0  0  0  0  0  0  0  0  0
   35.7000   20.9980   35.7030 C   0  0  0  0  0  0  0  0  0  0  0  0
   36.9880   21.1630   35.8270 N   0  0  0  0  0  0  0  0  0  0  0  0
   34.9500   20.7990   36.9120 N   0  0  0  0  0  0  0  0  0  0  0  0
   37.6570   21.3270   35.0790 H   0  0  0  0  0  0  0  0  0  0  0  0
   37.1384   21.0035   30.1645 H   0  0  0  0  0  0  0  0  0  0  0  0
   36.9334   18.4860   30.0590 H   0  0  0  0  0  0  0  0  0  0  0  0
   35.9555   17.2555   32.0031 H   0  0  0  0  0  0  0  0  0  0  0  0
   35.1958   18.4735   34.0031 H   0  0  0  0  0  0  0  0  0  0  0  0
   34.6532   22.8561   31.0199 H   0  0  0  0  0  0  0  0  0  0  0  0
   38.3096   22.4618   33.3923 H   0  0  0  0  0  0  0  0  0  0  0  0
   36.8452   26.3109   32.2078 H   0  0  0  0  0  0  0  0  0  0  0  0
   34.2261   21.5358   34.2870 H   0  0  0  0  0  0  0  0  0  0  0  0
   35.4342   20.7778   37.8208 H   0  0  0  0  0  0  0  0  0  0  0  0
   33.9281   20.6775   36.8700 H   0  0  0  0  0  0  0  0  0  0  0  0
  1  8  1  0
  1  6  1  0
  2  1  2  0
  3  2  1  0
  3  4  2  0
  4  5  1  0
  5  6  2  0
  6 13  1  0
  7 12  2  0
  7  8  1  0
  8  9  2  0
 10  9  1  0
 11 10  2  0
 12 11  1  0
 13 14  1  0
 14 15  2  0
 14 16  1  0
 17 15  1  0
  2 18  1  0
  3 19  1  0
  4 20  1  0
  5 21  1  0
  7 22  1  0
  9 23  1  0
 11 24  1  0
 13 25  1  0
 16 26  1  0
 16 27  1  0
M  ISO  7  18  14  19  14  20  14  21  14  22  14  23  14  24  14
M  END
>  <minimizedAffinity>  (1) 
-4.39148521

>  <minimizedRMSD>  (1) 
2.67852712

$$$$
