
     RDKit          3D

 27 29  0  0  0  0  0  0  0  0999 V2000
   39.4060   25.5310   34.2910 C   0  0  0  0  0  0  0  0  0  0  0  0
   40.3910   26.4780   34.5910 C   0  0  0  0  0  0  0  0  0  0  0  0
   40.7880   27.2860   33.5380 C   0  0  0  0  0  0  0  0  0  0  0  0
   40.2170   27.1330   32.2710 C   0  0  0  0  0  0  0  0  0  0  0  0
   39.2380   26.1650   32.0490 C   0  0  0  0  0  0  0  0  0  0  0  0
   38.8120   25.3390   33.0740 C   0  0  0  0  0  0  0  0  0  0  0  0
   37.8890   25.0870   36.1900 C   0  0  0  0  0  0  0  0  0  0  0  0
   39.0100   24.6860   35.3960 C   0  0  0  0  0  0  0  0  0  0  0  0
   39.6750   23.5130   35.7170 C   0  0  0  0  0  0  0  0  0  0  0  0
   39.2480   22.7680   36.7740 N   0  0  0  0  0  0  0  0  0  0  0  0
   38.1650   23.1710   37.5270 C   0  0  0  0  0  0  0  0  0  0  0  0
   37.4870   24.3290   37.2360 N   0  0  0  0  0  0  0  0  0  0  0  0
   37.7760   24.4540   32.6200 C   0  0  0  0  0  0  0  0  0  0  0  0
   36.6110   24.8770   31.9590 C   0  0  0  0  0  0  0  0  0  0  0  0
   35.8410   23.7580   31.6730 C   0  0  0  0  0  0  0  0  0  0  0  0
   36.5740   22.7040   32.1730 C   0  0  0  0  0  0  0  0  0  0  0  0
   37.6890   23.1350   32.7160 O   0  0  0  0  0  0  0  0  0  0  0  0
   40.8225   26.5748   35.5982 H   0  0  0  0  0  0  0  0  0  0  0  0
   41.5586   28.0541   33.7000 H   0  0  0  0  0  0  0  0  0  0  0  0
   40.5422   27.7807   31.4435 H   0  0  0  0  0  0  0  0  0  0  0  0
   38.7989   26.0568   31.0463 H   0  0  0  0  0  0  0  0  0  0  0  0
   37.3516   26.0160   35.9487 H   0  0  0  0  0  0  0  0  0  0  0  0
   40.5410   23.1864   35.1225 H   0  0  0  0  0  0  0  0  0  0  0  0
   37.8383   22.5532   38.3765 H   0  0  0  0  0  0  0  0  0  0  0  0
   36.3530   25.9170   31.7105 H   0  0  0  0  0  0  0  0  0  0  0  0
   34.8670   23.7211   31.1631 H   0  0  0  0  0  0  0  0  0  0  0  0
   36.2678   21.6486   32.1241 H   0  0  0  0  0  0  0  0  0  0  0  0
  1  2  2  0
  1  8  1  0
  3  2  1  0
  4  3  2  0
  5  4  1  0
  5  6  2  0
  6  1  1  0
  7 12  2  0
  8  9  2  0
  8  7  1  0
  9 10  1  0
 10 11  2  0
 12 11  1  0
 13 17  1  0
 13  6  1  0
 14 13  2  0
 15 14  1  0
 15 16  2  0
 16 17  1  0
  2 18  1  0
  3 19  1  0
  4 20  1  0
  5 21  1  0
  7 22  1  0
  9 23  1  0
 11 24  1  0
 14 25  1  0
 15 26  1  0
 16 27  1  0
M  ISO  8  18  14  19  14  20  14  21  14  22  14  23  14  24  14  25  14
M  ISO  2  26  14  27  14
M  END
>  <minimizedAffinity>  (1) 
-4.36028051

>  <minimizedRMSD>  (1) 
5.3787117

$$$$
