
     RDKit          3D

 26 28  0  0  0  0  0  0  0  0999 V2000
   38.5380   25.2970   35.2830 C   0  0  0  0  0  0  0  0  0  0  0  0
   38.3930   26.5270   35.9280 C   0  0  0  0  0  0  0  0  0  0  0  0
   37.6520   27.4840   35.2540 C   0  0  0  0  0  0  0  0  0  0  0  0
   37.0970   27.1920   34.0040 C   0  0  0  0  0  0  0  0  0  0  0  0
   37.2860   25.9350   33.4220 C   0  0  0  0  0  0  0  0  0  0  0  0
   38.0160   24.9590   34.0640 C   0  0  0  0  0  0  0  0  0  0  0  0
   38.7620   23.7000   37.1530 C   0  0  0  0  0  0  0  0  0  0  0  0
   39.3280   24.3140   35.9930 C   0  0  0  0  0  0  0  0  0  0  0  0
   40.6040   23.9500   35.5970 C   0  0  0  0  0  0  0  0  0  0  0  0
   41.2920   23.0200   36.3130 N   0  0  0  0  0  0  0  0  0  0  0  0
   40.7280   22.4390   37.4300 C   0  0  0  0  0  0  0  0  0  0  0  0
   39.4620   22.7840   37.8450 N   0  0  0  0  0  0  0  0  0  0  0  0
   38.0370   23.7430   33.3000 C   0  0  0  0  0  0  0  0  0  0  0  0
   37.4590   22.4640   33.7870 C   0  0  0  0  0  0  0  0  0  0  0  0
   37.8280   21.3780   32.4080 S   0  0  0  0  0  0  0  0  0  0  0  0
   38.6760   22.7520   31.4080 C   0  0  0  0  0  0  0  0  0  0  0  0
   38.6000   23.6690   32.0820 N   0  0  0  0  0  0  0  0  0  0  0  0
   38.8407   26.7244   36.9132 H   0  0  0  0  0  0  0  0  0  0  0  0
   37.4997   28.4764   35.7033 H   0  0  0  0  0  0  0  0  0  0  0  0
   36.5081   27.9561   33.4755 H   0  0  0  0  0  0  0  0  0  0  0  0
   36.8453   25.7222   32.4369 H   0  0  0  0  0  0  0  0  0  0  0  0
   37.7495   23.9780   37.4810 H   0  0  0  0  0  0  0  0  0  0  0  0
   41.0592   24.4106   34.7078 H   0  0  0  0  0  0  0  0  0  0  0  0
   41.2986   21.6889   37.9973 H   0  0  0  0  0  0  0  0  0  0  0  0
   36.9452   22.2433   34.7343 H   0  0  0  0  0  0  0  0  0  0  0  0
   39.1341   22.6801   30.4105 H   0  0  0  0  0  0  0  0  0  0  0  0
  1  2  2  0
  1  8  1  0
  3  2  1  0
  4  3  2  0
  5  4  1  0
  5  6  2  0
  6  1  1  0
  7 12  2  0
  8  7  1  0
  9  8  2  0
  9 10  1  0
 10 11  2  0
 11 12  1  0
 13 14  2  0
 13  6  1  0
 15 14  1  0
 16 17  2  0
 16 15  1  0
 17 13  1  0
  2 18  1  0
  3 19  1  0
  4 20  1  0
  5 21  1  0
  7 22  1  0
  9 23  1  0
 11 24  1  0
 14 25  1  0
 16 26  1  0
M  ISO  8  18  14  19  14  20  14  21  14  22  14  23  14  24  14  25  14
M  ISO  1  26  14
M  END
>  <minimizedAffinity>  (1) 
-4.32851219

>  <minimizedRMSD>  (1) 
5.21128273

$$$$
