
     RDKit          3D

 29 30  0  0  0  0  0  0  0  0999 V2000
   38.9970   24.5920   36.1840 C   0  0  0  0  0  0  0  0  0  0  0  0
   37.9470   24.9090   37.0520 C   0  0  0  0  0  0  0  0  0  0  0  0
   37.9000   24.1520   38.2230 C   0  0  0  0  0  0  0  0  0  0  0  0
   38.8500   23.1610   38.4700 C   0  0  0  0  0  0  0  0  0  0  0  0
   39.8670   22.9110   37.5490 C   0  0  0  0  0  0  0  0  0  0  0  0
   39.9710   23.6310   36.3630 C   0  0  0  0  0  0  0  0  0  0  0  0
   38.2420   24.9080   33.8600 C   0  0  0  0  0  0  0  0  0  0  0  0
   39.0300   25.3650   34.9660 C   0  0  0  0  0  0  0  0  0  0  0  0
   39.7770   26.5110   34.8130 C   0  0  0  0  0  0  0  0  0  0  0  0
   39.7650   27.1930   33.6430 N   0  0  0  0  0  0  0  0  0  0  0  0
   39.0000   26.7390   32.5870 C   0  0  0  0  0  0  0  0  0  0  0  0
   38.2390   25.5980   32.6960 N   0  0  0  0  0  0  0  0  0  0  0  0
   41.1330   23.1900   35.6050 C   0  0  0  0  0  0  0  0  0  0  0  0
   40.7200   22.0000   34.7260 C   0  0  0  0  0  0  0  0  0  0  0  0
   42.2200   22.6150   36.5640 C   0  0  0  0  0  0  0  0  0  0  0  0
   37.2127   25.6968   36.8280 H   0  0  0  0  0  0  0  0  0  0  0  0
   37.1048   24.3388   38.9597 H   0  0  0  0  0  0  0  0  0  0  0  0
   38.7967   22.5725   39.3978 H   0  0  0  0  0  0  0  0  0  0  0  0
   40.6054   22.1249   37.7657 H   0  0  0  0  0  0  0  0  0  0  0  0
   37.6379   23.9939   33.9574 H   0  0  0  0  0  0  0  0  0  0  0  0
   40.3902   26.8767   35.6498 H   0  0  0  0  0  0  0  0  0  0  0  0
   38.9990   27.3001   31.6409 H   0  0  0  0  0  0  0  0  0  0  0  0
   41.5108   24.0482   35.0298 H   0  0  0  0  0  0  0  0  0  0  0  0
   40.4268   21.1553   35.3667 H   0  0  0  0  0  0  0  0  0  0  0  0
   39.8702   22.2907   34.0909 H   0  0  0  0  0  0  0  0  0  0  0  0
   41.5672   21.7018   34.0909 H   0  0  0  0  0  0  0  0  0  0  0  0
   41.9118   22.7780   37.6073 H   0  0  0  0  0  0  0  0  0  0  0  0
   42.3375   21.5368   36.3806 H   0  0  0  0  0  0  0  0  0  0  0  0
   43.1774   23.1246   36.3806 H   0  0  0  0  0  0  0  0  0  0  0  0
  1  6  1  0
  1  2  2  0
  2  3  1  0
  3  4  2  0
  5  4  1  0
  6  5  2  0
  7  8  2  0
  8  1  1  0
  9  8  1  0
 10  9  2  0
 11 12  2  0
 11 10  1  0
 12  7  1  0
 13  6  1  0
 13 15  1  0
 14 13  1  0
  2 16  1  0
  3 17  1  0
  4 18  1  0
  5 19  1  0
  7 20  1  0
  9 21  1  0
 11 22  1  0
 13 23  1  0
 14 24  1  0
 14 25  1  0
 14 26  1  0
 15 27  1  0
 15 28  1  0
 15 29  1  0
M  ISO  8  16  14  17  14  18  14  19  14  20  14  21  14  22  14  23   8
M  ISO  6  24   8  25   8  26   8  27   8  28   8  29   8
M  END
>  <minimizedAffinity>  (1) 
-4.19460535

>  <minimizedRMSD>  (1) 
5.72217703

$$$$
