
     RDKit          3D

 27 29  0  0  0  0  0  0  0  0999 V2000
   37.8740   25.8490   34.6150 C   0  0  0  0  0  0  0  0  0  0  0  0
   37.6650   27.0170   35.3540 C   0  0  0  0  0  0  0  0  0  0  0  0
   36.9790   28.0380   34.6920 C   0  0  0  0  0  0  0  0  0  0  0  0
   36.5490   27.8580   33.3740 C   0  0  0  0  0  0  0  0  0  0  0  0
   36.7990   26.6580   32.7050 C   0  0  0  0  0  0  0  0  0  0  0  0
   37.4750   25.6210   33.3270 C   0  0  0  0  0  0  0  0  0  0  0  0
   37.8570   23.9300   36.1670 C   0  0  0  0  0  0  0  0  0  0  0  0
   38.5940   24.8060   35.3070 C   0  0  0  0  0  0  0  0  0  0  0  0
   39.9580   24.6140   35.1780 C   0  0  0  0  0  0  0  0  0  0  0  0
   40.5700   23.6120   35.8580 N   0  0  0  0  0  0  0  0  0  0  0  0
   39.8450   22.7790   36.6810 C   0  0  0  0  0  0  0  0  0  0  0  0
   38.4890   22.9390   36.8340 N   0  0  0  0  0  0  0  0  0  0  0  0
   37.5720   24.4860   32.4530 C   0  0  0  0  0  0  0  0  0  0  0  0
   36.4950   23.7230   31.9890 C   0  0  0  0  0  0  0  0  0  0  0  0
   36.9480   22.7370   31.2130 N   0  0  0  0  0  0  0  0  0  0  0  0
   38.2860   22.8120   31.1400 C   0  0  0  0  0  0  0  0  0  0  0  0
   38.6490   23.8600   31.8850 N   0  0  0  0  0  0  0  0  0  0  0  0
   38.0180   27.1252   36.3902 H   0  0  0  0  0  0  0  0  0  0  0  0
   36.7764   28.9872   35.2097 H   0  0  0  0  0  0  0  0  0  0  0  0
   36.0098   28.6675   32.8602 H   0  0  0  0  0  0  0  0  0  0  0  0
   36.4538   26.5342   31.6679 H   0  0  0  0  0  0  0  0  0  0  0  0
   36.7716   24.0642   36.2853 H   0  0  0  0  0  0  0  0  0  0  0  0
   40.5466   25.2740   34.5238 H   0  0  0  0  0  0  0  0  0  0  0  0
   40.3597   21.9729   37.2244 H   0  0  0  0  0  0  0  0  0  0  0  0
   35.4372   23.9078   32.2274 H   0  0  0  0  0  0  0  0  0  0  0  0
   38.9529   22.1422   30.5773 H   0  0  0  0  0  0  0  0  0  0  0  0
   39.6250   24.1617   32.0166 H   0  0  0  0  0  0  0  0  0  0  0  0
  1  8  1  0
  1  2  2  0
  3  2  1  0
  4  3  2  0
  5  6  2  0
  5  4  1  0
  6  1  1  0
  7 12  2  0
  8  7  1  0
  9  8  2  0
  9 10  1  0
 10 11  2  0
 11 12  1  0
 13  6  1  0
 14 13  2  0
 15 14  1  0
 16 15  2  0
 16 17  1  0
 17 13  1  0
  2 18  1  0
  3 19  1  0
  4 20  1  0
  5 21  1  0
  7 22  1  0
  9 23  1  0
 11 24  1  0
 14 25  1  0
 16 26  1  0
 17 27  1  0
M  ISO  8  18  14  19  14  20  14  21  14  22  14  23  14  24  14  25  14
M  ISO  2  26  14  27   9
M  END
>  <minimizedAffinity>  (1) 
-4.188797

>  <minimizedRMSD>  (1) 
5.42094994

$$$$
