
     RDKit          3D

 33 35  0  0  0  0  0  0  0  0999 V2000
   38.4360   24.4640   32.4690 C   0  0  0  0  0  0  0  0  0  0  0  0
   38.4260   23.9140   33.7520 C   0  0  0  0  0  0  0  0  0  0  0  0
   39.6640   23.5200   34.2600 C   0  0  0  0  0  0  0  0  0  0  0  0
   40.8190   23.6860   33.4930 C   0  0  0  0  0  0  0  0  0  0  0  0
   40.7460   24.2460   32.2180 C   0  0  0  0  0  0  0  0  0  0  0  0
   39.5320   24.6590   31.6600 C   0  0  0  0  0  0  0  0  0  0  0  0
   39.7280   25.2170   30.4020 N   0  0  0  0  0  0  0  0  0  0  0  0
   40.1470   26.4930   30.1180 C   0  0  0  0  0  0  0  0  0  0  0  0
   40.2820   26.9560   28.8260 C   0  0  0  0  0  0  0  0  0  0  0  0
   40.7440   28.3580   28.6010 C   0  0  0  0  0  0  0  0  0  0  0  0
   39.9860   26.1110   27.7790 C   0  0  0  0  0  0  0  0  0  0  0  0
   40.1000   26.5090   26.6070 O   0  0  0  0  0  0  0  0  0  0  0  0
   39.5760   24.8630   28.0410 N   0  0  0  0  0  0  0  0  0  0  0  0
   39.4540   24.4380   29.3080 C   0  0  0  0  0  0  0  0  0  0  0  0
   39.0620   23.2510   29.4400 O   0  0  0  0  0  0  0  0  0  0  0  0
   36.2710   23.8250   31.4860 C   0  0  0  0  0  0  0  0  0  0  0  0
   37.1460   24.8570   31.9520 C   0  0  0  0  0  0  0  0  0  0  0  0
   36.7100   26.1680   31.8810 C   0  0  0  0  0  0  0  0  0  0  0  0
   35.4790   26.4470   31.3780 N   0  0  0  0  0  0  0  0  0  0  0  0
   34.6560   25.4360   30.9360 C   0  0  0  0  0  0  0  0  0  0  0  0
   35.0510   24.1220   30.9890 N   0  0  0  0  0  0  0  0  0  0  0  0
   37.4964   23.7981   34.3286 H   0  0  0  0  0  0  0  0  0  0  0  0
   39.7304   23.0783   35.2653 H   0  0  0  0  0  0  0  0  0  0  0  0
   41.7929   23.3729   33.8973 H   0  0  0  0  0  0  0  0  0  0  0  0
   41.6704   24.3664   31.6340 H   0  0  0  0  0  0  0  0  0  0  0  0
   40.3837   27.1709   30.9513 H   0  0  0  0  0  0  0  0  0  0  0  0
   40.9064   28.8507   29.5710 H   0  0  0  0  0  0  0  0  0  0  0  0
   41.6860   28.3470   28.0331 H   0  0  0  0  0  0  0  0  0  0  0  0
   39.9800   28.9092   28.0331 H   0  0  0  0  0  0  0  0  0  0  0  0
   39.3527   24.2247   27.2641 H   0  0  0  0  0  0  0  0  0  0  0  0
   36.5966   22.7754   31.5333 H   0  0  0  0  0  0  0  0  0  0  0  0
   37.3593   26.9838   32.2314 H   0  0  0  0  0  0  0  0  0  0  0  0
   33.6634   25.6854   30.5328 H   0  0  0  0  0  0  0  0  0  0  0  0
  1  2  2  0
  2  3  1  0
  4  3  2  0
  5  4  1  0
  6  5  2  0
  6  1  1  0
  7  6  1  0
  8  7  1  0
  9  8  2  0
 10  9  1  0
 11 13  1  0
 11  9  1  0
 12 11  2  0
 13 14  1  0
 14 15  2  0
 14  7  1  0
 16 17  2  0
 17  1  1  0
 18 17  1  0
 19 18  2  0
 20 21  2  0
 20 19  1  0
 21 16  1  0
  2 22  1  0
  3 23  1  0
  4 24  1  0
  5 25  1  0
  8 26  1  0
 10 27  1  0
 10 28  1  0
 10 29  1  0
 13 30  1  0
 16 31  1  0
 18 32  1  0
 20 33  1  0
M  ISO  8  22  14  23  14  24  14  25  14  26  14  27   8  28   8  29   8
M  ISO  4  30   9  31  14  32  14  33  14
M  END
>  <minimizedAffinity>  (1) 
-3.74877048

>  <minimizedRMSD>  (1) 
8.62781334

$$$$
