
     RDKit          3D

 21 22  0  0  0  0  0  0  0  0999 V2000
   37.0940   21.8440   33.2630 C   0  0  0  0  0  0  0  0  0  0  0  0
   37.2360   21.9690   31.8780 C   0  0  0  0  0  0  0  0  0  0  0  0
   36.3160   21.2480   31.1040 C   0  0  0  0  0  0  0  0  0  0  0  0
   35.3360   20.4680   31.7260 C   0  0  0  0  0  0  0  0  0  0  0  0
   35.2600   20.3950   33.1200 C   0  0  0  0  0  0  0  0  0  0  0  0
   36.1520   21.0960   33.9200 C   0  0  0  0  0  0  0  0  0  0  0  0
   37.8680   23.9950   34.1790 C   0  0  0  0  0  0  0  0  0  0  0  0
   38.0520   22.5800   34.0600 C   0  0  0  0  0  0  0  0  0  0  0  0
   39.1280   21.9870   34.7060 C   0  0  0  0  0  0  0  0  0  0  0  0
   39.9760   22.7550   35.4330 N   0  0  0  0  0  0  0  0  0  0  0  0
   39.7800   24.1150   35.5350 C   0  0  0  0  0  0  0  0  0  0  0  0
   38.7250   24.7300   34.9060 N   0  0  0  0  0  0  0  0  0  0  0  0
   35.8290   20.8950   35.6410 S   0  0  0  0  0  0  0  0  0  0  0  0
   38.0198   22.5934   31.4243 H   0  0  0  0  0  0  0  0  0  0  0  0
   36.3650   21.2959   30.0061 H   0  0  0  0  0  0  0  0  0  0  0  0
   34.6172   19.9058   31.1118 H   0  0  0  0  0  0  0  0  0  0  0  0
   34.4829   19.7737   33.5893 H   0  0  0  0  0  0  0  0  0  0  0  0
   37.0213   24.4819   33.6729 H   0  0  0  0  0  0  0  0  0  0  0  0
   39.2913   20.9020   34.6286 H   0  0  0  0  0  0  0  0  0  0  0  0
   40.4806   24.7188   36.1305 H   0  0  0  0  0  0  0  0  0  0  0  0
   36.8161   21.5093   36.3657 H   0  0  0  0  0  0  0  0  0  0  0  0
  1  6  1  0
  1  8  1  0
  2  1  2  0
  3  4  2  0
  3  2  1  0
  4  5  1  0
  5  6  2  0
  6 13  1  0
  7 12  2  0
  8  7  1  0
  8  9  2  0
  9 10  1  0
 10 11  2  0
 12 11  1  0
  2 14  1  0
  3 15  1  0
  4 16  1  0
  5 17  1  0
  7 18  1  0
  9 19  1  0
 11 20  1  0
 13 21  1  0
M  ISO  8  14  14  15  14  16  14  17  14  18  14  19  14  20  14  21  11
M  END
>  <minimizedAffinity>  (1) 
-3.16980052

>  <minimizedRMSD>  (1) 
0.701029003

$$$$
