
     RDKit          3D

 42 45  0  0  0  0  0  0  0  0999 V2000
   39.3170   27.0750   32.4830 C   0  0  0  0  0  0  0  0  0  0  0  0
   39.1610   27.6650   31.2270 C   0  0  0  0  0  0  0  0  0  0  0  0
   37.9000   28.1770   30.9450 C   0  0  0  0  0  0  0  0  0  0  0  0
   36.8970   28.0790   31.8910 C   0  0  0  0  0  0  0  0  0  0  0  0
   37.1340   27.4830   33.1030 C   0  0  0  0  0  0  0  0  0  0  0  0
   38.3750   26.9500   33.4470 C   0  0  0  0  0  0  0  0  0  0  0  0
   41.5630   27.4350   33.4460 C   0  0  0  0  0  0  0  0  0  0  0  0
   40.6430   26.5540   32.7540 C   0  0  0  0  0  0  0  0  0  0  0  0
   41.0930   25.3240   32.4200 C   0  0  0  0  0  0  0  0  0  0  0  0
   42.3420   24.9200   32.7140 N   0  0  0  0  0  0  0  0  0  0  0  0
   43.1990   25.7720   33.3710 C   0  0  0  0  0  0  0  0  0  0  0  0
   42.8110   27.0290   33.7370 N   0  0  0  0  0  0  0  0  0  0  0  0
   38.3300   26.3650   34.7940 C   0  0  0  0  0  0  0  0  0  0  0  0
   38.0610   24.8720   34.7840 C   0  0  0  0  0  0  0  0  0  0  0  0
   38.4140   24.3240   36.1150 C   0  0  0  0  0  0  0  0  0  0  0  0
   37.7160   24.6780   37.2480 C   0  0  0  0  0  0  0  0  0  0  0  0
   37.9950   24.1900   38.5280 C   0  0  0  0  0  0  0  0  0  0  0  0
   39.0440   23.3000   38.6230 C   0  0  0  0  0  0  0  0  0  0  0  0
   39.7500   22.9390   37.4940 C   0  0  0  0  0  0  0  0  0  0  0  0
   40.8010   22.0410   37.6390 C   0  0  0  0  0  0  0  0  0  0  0  0
   41.5260   21.6650   36.5240 C   0  0  0  0  0  0  0  0  0  0  0  0
   41.2500   22.1500   35.2490 C   0  0  0  0  0  0  0  0  0  0  0  0
   40.1960   23.0400   35.1550 C   0  0  0  0  0  0  0  0  0  0  0  0
   39.4440   23.4430   36.2480 C   0  0  0  0  0  0  0  0  0  0  0  0
   39.9875   27.7212   30.5033 H   0  0  0  0  0  0  0  0  0  0  0  0
   37.7015   28.6570   29.9754 H   0  0  0  0  0  0  0  0  0  0  0  0
   35.8983   28.4833   31.6693 H   0  0  0  0  0  0  0  0  0  0  0  0
   36.3126   27.4232   33.8322 H   0  0  0  0  0  0  0  0  0  0  0  0
   41.2369   28.4449   33.7356 H   0  0  0  0  0  0  0  0  0  0  0  0
   40.4185   24.6335   31.8926 H   0  0  0  0  0  0  0  0  0  0  0  0
   44.2188   25.4335   33.6066 H   0  0  0  0  0  0  0  0  0  0  0  0
   39.2975   26.5434   35.2860 H   0  0  0  0  0  0  0  0  0  0  0  0
   37.5000   26.8449   35.3332 H   0  0  0  0  0  0  0  0  0  0  0  0
   36.9965   24.6877   34.5768 H   0  0  0  0  0  0  0  0  0  0  0  0
   38.6631   24.3848   34.0029 H   0  0  0  0  0  0  0  0  0  0  0  0
   36.8853   25.3908   37.1389 H   0  0  0  0  0  0  0  0  0  0  0  0
   37.4116   24.4981   39.4082 H   0  0  0  0  0  0  0  0  0  0  0  0
   39.3184   22.8771   39.6007 H   0  0  0  0  0  0  0  0  0  0  0  0
   41.0528   21.6343   38.6296 H   0  0  0  0  0  0  0  0  0  0  0  0
   42.3552   20.9532   36.6494 H   0  0  0  0  0  0  0  0  0  0  0  0
   41.8350   21.8438   34.3692 H   0  0  0  0  0  0  0  0  0  0  0  0
   39.9419   23.4479   34.1656 H   0  0  0  0  0  0  0  0  0  0  0  0
  1  8  1  0
  1  6  1  0
  2  1  2  0
  3  2  1  0
  3  4  2  0
  4  5  1  0
  5  6  2  0
  6 13  1  0
  7 12  2  0
  8  7  1  0
  9 10  1  0
  9  8  2  0
 10 11  2  0
 11 12  1  0
 14 13  1  0
 14 15  1  0
 15 24  1  0
 15 16  2  0
 16 17  1  0
 17 18  2  0
 19 20  2  0
 19 18  1  0
 21 20  1  0
 22 21  2  0
 23 22  1  0
 23 24  2  0
 24 19  1  0
  2 25  1  0
  3 26  1  0
  4 27  1  0
  5 28  1  0
  7 29  1  0
  9 30  1  0
 11 31  1  0
 13 32  1  0
 13 33  1  0
 14 34  1  0
 14 35  1  0
 16 36  1  0
 17 37  1  0
 18 38  1  0
 20 39  1  0
 21 40  1  0
 22 41  1  0
 23 42  1  0
M  ISO  8  25  14  26  14  27  14  28  14  29  14  30  14  31  14  32   8
M  ISO  8  33   8  34   8  35   8  36  14  37  14  38  14  39  14  40  14
M  ISO  2  41  14  42  14
M  END
>  <minimizedAffinity>  (1) 
-5.86543703

>  <minimizedRMSD>  (1) 
2.06879449

$$$$
