
     RDKit          3D

 39 42  0  0  0  0  0  0  0  0999 V2000
   38.0410   26.2120   33.4490 C   0  0  0  0  0  0  0  0  0  0  0  0
   37.0530   27.1890   33.4160 C   0  0  0  0  0  0  0  0  0  0  0  0
   36.9140   27.9730   34.5470 C   0  0  0  0  0  0  0  0  0  0  0  0
   37.7500   27.7420   35.6250 C   0  0  0  0  0  0  0  0  0  0  0  0
   38.7220   26.7400   35.5880 C   0  0  0  0  0  0  0  0  0  0  0  0
   38.8830   25.9430   34.4710 C   0  0  0  0  0  0  0  0  0  0  0  0
   39.3110   25.6920   31.3930 C   0  0  0  0  0  0  0  0  0  0  0  0
   38.1630   25.4250   32.2380 C   0  0  0  0  0  0  0  0  0  0  0  0
   37.3120   24.4620   31.8180 C   0  0  0  0  0  0  0  0  0  0  0  0
   37.5050   23.7730   30.6760 N   0  0  0  0  0  0  0  0  0  0  0  0
   38.6110   24.0550   29.8950 C   0  0  0  0  0  0  0  0  0  0  0  0
   39.5240   25.0210   30.2510 N   0  0  0  0  0  0  0  0  0  0  0  0
   39.9680   24.9740   34.7010 C   0  0  0  0  0  0  0  0  0  0  0  0
   39.5990   23.5490   34.3760 C   0  0  0  0  0  0  0  0  0  0  0  0
   38.6630   23.0780   35.3700 N   0  0  0  0  0  0  0  0  0  0  0  0
   38.5660   23.3220   36.7060 C   0  0  0  0  0  0  0  0  0  0  0  0
   37.5030   22.6330   37.1960 N   0  0  0  0  0  0  0  0  0  0  0  0
   36.9170   21.9530   36.2020 C   0  0  0  0  0  0  0  0  0  0  0  0
   35.8340   21.1060   36.0850 C   0  0  0  0  0  0  0  0  0  0  0  0
   35.4680   20.5470   34.9010 N   0  0  0  0  0  0  0  0  0  0  0  0
   36.1950   20.8330   33.7930 C   0  0  0  0  0  0  0  0  0  0  0  0
   37.2640   21.6640   33.8790 N   0  0  0  0  0  0  0  0  0  0  0  0
   37.6470   22.2300   35.0400 C   0  0  0  0  0  0  0  0  0  0  0  0
   35.0940   20.8270   37.2660 N   0  0  0  0  0  0  0  0  0  0  0  0
   36.4126   27.3318   32.5331 H   0  0  0  0  0  0  0  0  0  0  0  0
   36.1526   28.7658   34.5887 H   0  0  0  0  0  0  0  0  0  0  0  0
   37.6470   28.3599   36.5292 H   0  0  0  0  0  0  0  0  0  0  0  0
   39.3702   26.5827   36.4627 H   0  0  0  0  0  0  0  0  0  0  0  0
   40.0287   26.4680   31.6976 H   0  0  0  0  0  0  0  0  0  0  0  0
   36.4285   24.2322   32.4317 H   0  0  0  0  0  0  0  0  0  0  0  0
   38.7651   23.4913   28.9631 H   0  0  0  0  0  0  0  0  0  0  0  0
   40.8256   25.2604   34.0745 H   0  0  0  0  0  0  0  0  0  0  0  0
   40.1985   25.0049   35.7761 H   0  0  0  0  0  0  0  0  0  0  0  0
   39.1353   23.5042   33.3795 H   0  0  0  0  0  0  0  0  0  0  0  0
   40.4996   22.9174   34.3783 H   0  0  0  0  0  0  0  0  0  0  0  0
   39.2364   23.9690   37.2908 H   0  0  0  0  0  0  0  0  0  0  0  0
   35.9182   20.3913   32.8243 H   0  0  0  0  0  0  0  0  0  0  0  0
   34.2777   20.2001   37.2262 H   0  0  0  0  0  0  0  0  0  0  0  0
   35.3740   21.2517   38.1616 H   0  0  0  0  0  0  0  0  0  0  0  0
  1  6  1  0
  2  1  2  0
  2  3  1  0
  3  4  2  0
  5  4  1  0
  6 13  1  0
  6  5  2  0
  7  8  2  0
  8  1  1  0
  9  8  1  0
 10  9  2  0
 11 12  2  0
 11 10  1  0
 12  7  1  0
 14 13  1  0
 14 15  1  0
 15 16  1  0
 16 17  2  0
 18 17  1  0
 19 18  2  0
 19 24  1  0
 20 19  1  0
 21 22  1  0
 21 20  2  0
 22 23  2  0
 23 15  1  0
 23 18  1  0
  2 25  1  0
  3 26  1  0
  4 27  1  0
  5 28  1  0
  7 29  1  0
  9 30  1  0
 11 31  1  0
 13 32  1  0
 13 33  1  0
 14 34  1  0
 14 35  1  0
 16 36  1  0
 21 37  1  0
 24 38  1  0
 24 39  1  0
M  ISO  8  25  14  26  14  27  14  28  14  29  14  30  14  31  14  32   8
M  ISO  5  33   8  34   8  35   8  36  14  37  14
M  END
>  <minimizedAffinity>  (1) 
-5.79086924

>  <minimizedRMSD>  (1) 
4.80990553

$$$$
