
     RDKit          3D

 40 42  0  0  0  0  0  0  0  0999 V2000
   36.4110   23.3210   31.9950 C   0  0  0  0  0  0  0  0  0  0  0  0
   35.5890   24.1970   31.2850 C   0  0  0  0  0  0  0  0  0  0  0  0
   35.8590   25.5440   31.4430 C   0  0  0  0  0  0  0  0  0  0  0  0
   36.8920   25.9450   32.2650 C   0  0  0  0  0  0  0  0  0  0  0  0
   37.6570   25.0150   32.9310 C   0  0  0  0  0  0  0  0  0  0  0  0
   37.4410   23.6510   32.8180 C   0  0  0  0  0  0  0  0  0  0  0  0
   36.9240   21.1750   30.8800 C   0  0  0  0  0  0  0  0  0  0  0  0
   36.1070   21.9110   31.8080 C   0  0  0  0  0  0  0  0  0  0  0  0
   35.1240   21.2250   32.4360 C   0  0  0  0  0  0  0  0  0  0  0  0
   34.9020   19.9180   32.2160 N   0  0  0  0  0  0  0  0  0  0  0  0
   35.7060   19.2390   31.3150 C   0  0  0  0  0  0  0  0  0  0  0  0
   36.7060   19.8680   30.6560 N   0  0  0  0  0  0  0  0  0  0  0  0
   38.3870   22.9050   33.6600 C   0  0  0  0  0  0  0  0  0  0  0  0
   37.8180   22.5230   34.9990 C   0  0  0  0  0  0  0  0  0  0  0  0
   38.4700   22.9460   36.1550 N   0  0  0  0  0  0  0  0  0  0  0  0
   39.7360   22.3210   36.4080 C   0  0  0  0  0  0  0  0  0  0  0  0
   40.2080   22.7090   37.7850 C   0  0  0  0  0  0  0  0  0  0  0  0
   39.0250   22.6950   38.6620 N   0  0  0  0  0  0  0  0  0  0  0  0
   38.1960   23.8410   38.3520 C   0  0  0  0  0  0  0  0  0  0  0  0
   38.1200   24.0830   36.8620 C   0  0  0  0  0  0  0  0  0  0  0  0
   34.7750   23.8376   30.6383 H   0  0  0  0  0  0  0  0  0  0  0  0
   35.2518   26.2938   30.9147 H   0  0  0  0  0  0  0  0  0  0  0  0
   37.1058   27.0169   32.3890 H   0  0  0  0  0  0  0  0  0  0  0  0
   38.4726   25.3686   33.5790 H   0  0  0  0  0  0  0  0  0  0  0  0
   37.7376   21.6888   30.3470 H   0  0  0  0  0  0  0  0  0  0  0  0
   34.4824   21.7573   33.1537 H   0  0  0  0  0  0  0  0  0  0  0  0
   35.5280   18.1690   31.1322 H   0  0  0  0  0  0  0  0  0  0  0  0
   38.6776   21.9864   33.1292 H   0  0  0  0  0  0  0  0  0  0  0  0
   39.2469   23.5649   33.8475 H   0  0  0  0  0  0  0  0  0  0  0  0
   36.7947   22.9243   35.0408 H   0  0  0  0  0  0  0  0  0  0  0  0
   37.9177   21.4278   35.0254 H   0  0  0  0  0  0  0  0  0  0  0  0
   39.6258   21.2281   36.3502 H   0  0  0  0  0  0  0  0  0  0  0  0
   40.4696   22.6500   35.6572 H   0  0  0  0  0  0  0  0  0  0  0  0
   40.9553   21.9871   38.1462 H   0  0  0  0  0  0  0  0  0  0  0  0
   40.6788   23.7031   37.7745 H   0  0  0  0  0  0  0  0  0  0  0  0
   38.4896   21.8290   38.5062 H   0  0  0  0  0  0  0  0  0  0  0  0
   37.1812   23.6628   38.7374 H   0  0  0  0  0  0  0  0  0  0  0  0
   38.6437   24.7284   38.8233 H   0  0  0  0  0  0  0  0  0  0  0  0
   38.8081   24.8985   36.5947 H   0  0  0  0  0  0  0  0  0  0  0  0
   37.0849   24.3509   36.6035 H   0  0  0  0  0  0  0  0  0  0  0  0
  1  6  2  0
  2  3  2  0
  2  1  1  0
  3  4  1  0
  4  5  2  0
  6  5  1  0
  6 13  1  0
  7  8  2  0
  8  1  1  0
  8  9  1  0
 10  9  2  0
 11 10  1  0
 12  7  1  0
 12 11  2  0
 13 14  1  0
 14 15  1  0
 15 16  1  0
 15 20  1  0
 16 17  1  0
 17 18  1  0
 19 18  1  0
 20 19  1  0
  2 21  1  0
  3 22  1  0
  4 23  1  0
  5 24  1  0
  7 25  1  0
  9 26  1  0
 11 27  1  0
 13 28  1  0
 13 29  1  0
 14 30  1  0
 14 31  1  0
 16 32  1  0
 16 33  1  0
 17 34  1  0
 17 35  1  0
 18 36  1  0
 19 37  1  0
 19 38  1  0
 20 39  1  0
 20 40  1  0
M  ISO  8  21  14  22  14  23  14  24  14  25  14  26  14  27  14  28   8
M  ISO  8  29   8  30   8  31   8  32  13  33  13  34  13  35  13  36   5
M  ISO  4  37  13  38  13  39  13  40  13
M  END
>  <minimizedAffinity>  (1) 
-5.50035191

>  <minimizedRMSD>  (1) 
5.40819359

$$$$
