
     RDKit          3D

 36 38  0  0  0  0  0  0  0  0999 V2000
   39.1360   27.0790   32.9700 C   0  0  0  0  0  0  0  0  0  0  0  0
   38.8240   27.4460   31.6620 C   0  0  0  0  0  0  0  0  0  0  0  0
   37.5590   27.9700   31.4490 C   0  0  0  0  0  0  0  0  0  0  0  0
   36.6950   28.0950   32.5230 C   0  0  0  0  0  0  0  0  0  0  0  0
   37.0890   27.7050   33.7850 C   0  0  0  0  0  0  0  0  0  0  0  0
   38.3360   27.1770   34.0540 C   0  0  0  0  0  0  0  0  0  0  0  0
   41.5150   27.4720   33.5290 C   0  0  0  0  0  0  0  0  0  0  0  0
   40.4730   26.5430   33.1480 C   0  0  0  0  0  0  0  0  0  0  0  0
   40.8300   25.2470   32.9890 C   0  0  0  0  0  0  0  0  0  0  0  0
   42.1050   24.8370   33.1770 N   0  0  0  0  0  0  0  0  0  0  0  0
   43.0700   25.7320   33.5360 C   0  0  0  0  0  0  0  0  0  0  0  0
   42.7810   27.0640   33.7160 N   0  0  0  0  0  0  0  0  0  0  0  0
   38.4740   26.8480   35.4810 C   0  0  0  0  0  0  0  0  0  0  0  0
   37.5570   25.7450   35.9420 C   0  0  0  0  0  0  0  0  0  0  0  0
   38.3260   24.6910   36.6530 C   0  0  0  0  0  0  0  0  0  0  0  0
   39.3520   24.0620   36.0070 C   0  0  0  0  0  0  0  0  0  0  0  0
   40.1140   23.0700   36.5990 C   0  0  0  0  0  0  0  0  0  0  0  0
   39.8080   22.7160   37.9020 C   0  0  0  0  0  0  0  0  0  0  0  0
   38.7700   23.3640   38.5300 C   0  0  0  0  0  0  0  0  0  0  0  0
   38.0010   24.3540   37.9550 C   0  0  0  0  0  0  0  0  0  0  0  0
   39.5455   27.3257   30.8404 H   0  0  0  0  0  0  0  0  0  0  0  0
   37.2462   28.2819   30.4416 H   0  0  0  0  0  0  0  0  0  0  0  0
   35.6874   28.5083   32.3685 H   0  0  0  0  0  0  0  0  0  0  0  0
   36.3773   27.8197   34.6159 H   0  0  0  0  0  0  0  0  0  0  0  0
   41.2652   28.5342   33.6683 H   0  0  0  0  0  0  0  0  0  0  0  0
   40.0656   24.5105   32.7003 H   0  0  0  0  0  0  0  0  0  0  0  0
   44.1016   25.3803   33.6847 H   0  0  0  0  0  0  0  0  0  0  0  0
   39.5124   26.5358   35.6661 H   0  0  0  0  0  0  0  0  0  0  0  0
   38.1987   27.7507   36.0461 H   0  0  0  0  0  0  0  0  0  0  0  0
   36.8016   26.1635   36.6233 H   0  0  0  0  0  0  0  0  0  0  0  0
   37.0694   25.2976   35.0633 H   0  0  0  0  0  0  0  0  0  0  0  0
   39.5823   24.3564   34.9725 H   0  0  0  0  0  0  0  0  0  0  0  0
   40.9340   22.5800   36.0535 H   0  0  0  0  0  0  0  0  0  0  0  0
   40.3815   21.9350   38.4227 H   0  0  0  0  0  0  0  0  0  0  0  0
   38.5366   23.0718   39.5645 H   0  0  0  0  0  0  0  0  0  0  0  0
   37.1801   24.8453   38.4979 H   0  0  0  0  0  0  0  0  0  0  0  0
  1  8  1  0
  1  6  1  0
  2  1  2  0
  3  2  1  0
  3  4  2  0
  4  5  1  0
  5  6  2  0
  6 13  1  0
  7 12  2  0
  8  7  1  0
  9  8  2  0
  9 10  1  0
 10 11  2  0
 11 12  1  0
 13 14  1  0
 14 15  1  0
 15 20  2  0
 16 17  2  0
 16 15  1  0
 17 18  1  0
 18 19  2  0
 20 19  1  0
  2 21  1  0
  3 22  1  0
  4 23  1  0
  5 24  1  0
  7 25  1  0
  9 26  1  0
 11 27  1  0
 13 28  1  0
 13 29  1  0
 14 30  1  0
 14 31  1  0
 16 32  1  0
 17 33  1  0
 18 34  1  0
 19 35  1  0
 20 36  1  0
M  ISO  8  21  14  22  14  23  14  24  14  25  14  26  14  27  14  28   8
M  ISO  8  29   8  30   8  31   8  32  14  33  14  34  14  35  14  36  14
M  END
>  <minimizedAffinity>  (1) 
-5.22705889

>  <minimizedRMSD>  (1) 
1.62439394

$$$$
