
     RDKit          3D

 33 35  0  0  0  0  0  0  0  0999 V2000
   39.0460   26.9430   33.3620 C   0  0  0  0  0  0  0  0  0  0  0  0
   38.7790   27.4300   32.0800 C   0  0  0  0  0  0  0  0  0  0  0  0
   37.5360   28.0080   31.9020 C   0  0  0  0  0  0  0  0  0  0  0  0
   36.6420   28.0790   32.9520 C   0  0  0  0  0  0  0  0  0  0  0  0
   36.9920   27.5710   34.1850 C   0  0  0  0  0  0  0  0  0  0  0  0
   38.2260   26.9750   34.4350 C   0  0  0  0  0  0  0  0  0  0  0  0
   41.4630   27.2370   33.8310 C   0  0  0  0  0  0  0  0  0  0  0  0
   40.3620   26.3480   33.5250 C   0  0  0  0  0  0  0  0  0  0  0  0
   40.6490   25.0300   33.4200 C   0  0  0  0  0  0  0  0  0  0  0  0
   41.8940   24.5530   33.5890 N   0  0  0  0  0  0  0  0  0  0  0  0
   42.9260   25.4180   33.8790 C   0  0  0  0  0  0  0  0  0  0  0  0
   42.7070   26.7500   33.9990 N   0  0  0  0  0  0  0  0  0  0  0  0
   38.3030   26.5210   35.8320 C   0  0  0  0  0  0  0  0  0  0  0  0
   37.5190   25.2330   36.0730 C   0  0  0  0  0  0  0  0  0  0  0  0
   38.2500   24.3600   36.9930 N   0  0  0  0  0  0  0  0  0  0  0  0
   39.2730   23.5570   36.6800 C   0  0  0  0  0  0  0  0  0  0  0  0
   39.7250   22.8730   37.7960 C   0  0  0  0  0  0  0  0  0  0  0  0
   38.9310   23.2980   38.7950 N   0  0  0  0  0  0  0  0  0  0  0  0
   38.0480   24.1880   38.3120 C   0  0  0  0  0  0  0  0  0  0  0  0
   39.5122   27.3580   31.2632 H   0  0  0  0  0  0  0  0  0  0  0  0
   37.2574   28.4137   30.9182 H   0  0  0  0  0  0  0  0  0  0  0  0
   35.6538   28.5394   32.8052 H   0  0  0  0  0  0  0  0  0  0  0  0
   36.2648   27.6393   35.0075 H   0  0  0  0  0  0  0  0  0  0  0  0
   41.2820   28.3178   33.9269 H   0  0  0  0  0  0  0  0  0  0  0  0
   39.8364   24.3256   33.1887 H   0  0  0  0  0  0  0  0  0  0  0  0
   43.9431   25.0217   34.0152 H   0  0  0  0  0  0  0  0  0  0  0  0
   39.3582   26.3446   36.0878 H   0  0  0  0  0  0  0  0  0  0  0  0
   37.8591   27.3052   36.4629 H   0  0  0  0  0  0  0  0  0  0  0  0
   36.5393   25.4801   36.5080 H   0  0  0  0  0  0  0  0  0  0  0  0
   37.3838   24.7108   35.1143 H   0  0  0  0  0  0  0  0  0  0  0  0
   39.6984   23.4538   35.6709 H   0  0  0  0  0  0  0  0  0  0  0  0
   40.5483   22.1457   37.8527 H   0  0  0  0  0  0  0  0  0  0  0  0
   37.2759   24.6992   38.9057 H   0  0  0  0  0  0  0  0  0  0  0  0
  1  8  1  0
  1  6  1  0
  2  1  2  0
  3  2  1  0
  3  4  2  0
  4  5  1  0
  5  6  2  0
  6 13  1  0
  7 12  2  0
  8  7  1  0
  9  8  2  0
  9 10  1  0
 10 11  2  0
 11 12  1  0
 13 14  1  0
 14 15  1  0
 15 19  1  0
 16 15  1  0
 16 17  2  0
 17 18  1  0
 19 18  2  0
  2 20  1  0
  3 21  1  0
  4 22  1  0
  5 23  1  0
  7 24  1  0
  9 25  1  0
 11 26  1  0
 13 27  1  0
 13 28  1  0
 14 29  1  0
 14 30  1  0
 16 31  1  0
 17 32  1  0
 19 33  1  0
M  ISO  8  20  14  21  14  22  14  23  14  24  14  25  14  26  14  27   8
M  ISO  6  28   8  29   8  30   8  31  14  32  14  33  14
M  END
>  <minimizedAffinity>  (1) 
-4.59827614

>  <minimizedRMSD>  (1) 
1.1929636

$$$$
