
     RDKit          3D

 33 34  0  0  0  0  0  0  0  0999 V2000
   38.8290   27.0440   33.4950 C   0  0  0  0  0  0  0  0  0  0  0  0
   38.3280   27.4980   32.2740 C   0  0  0  0  0  0  0  0  0  0  0  0
   37.0630   28.0550   32.2910 C   0  0  0  0  0  0  0  0  0  0  0  0
   36.3770   28.1300   33.4880 C   0  0  0  0  0  0  0  0  0  0  0  0
   36.9430   27.6540   34.6670 C   0  0  0  0  0  0  0  0  0  0  0  0
   38.2030   27.0880   34.7070 C   0  0  0  0  0  0  0  0  0  0  0  0
   41.2640   27.3790   33.7540 C   0  0  0  0  0  0  0  0  0  0  0  0
   40.1640   26.4930   33.4360 C   0  0  0  0  0  0  0  0  0  0  0  0
   40.4780   25.2190   33.1140 C   0  0  0  0  0  0  0  0  0  0  0  0
   41.7620   24.7940   33.0920 N   0  0  0  0  0  0  0  0  0  0  0  0
   42.7810   25.6500   33.3970 C   0  0  0  0  0  0  0  0  0  0  0  0
   42.5400   26.9620   33.7330 N   0  0  0  0  0  0  0  0  0  0  0  0
   38.5440   26.6730   36.0620 C   0  0  0  0  0  0  0  0  0  0  0  0
   38.6940   25.1870   36.2280 C   0  0  0  0  0  0  0  0  0  0  0  0
   37.4420   24.5070   36.5620 N   0  0  0  0  0  0  0  0  0  0  0  0
   37.7570   23.1370   36.7460 C   0  0  0  0  0  0  0  0  0  0  0  0
   38.6860   22.3060   36.4540 N   0  0  0  0  0  0  0  0  0  0  0  0
   36.8770   22.2430   37.4600 N   0  0  0  0  0  0  0  0  0  0  0  0
   39.4880   22.7410   35.9010 H   0  0  0  0  0  0  0  0  0  0  0  0
   38.9107   27.4166   31.3446 H   0  0  0  0  0  0  0  0  0  0  0  0
   36.6084   28.4336   31.3636 H   0  0  0  0  0  0  0  0  0  0  0  0
   35.3699   28.5719   33.5094 H   0  0  0  0  0  0  0  0  0  0  0  0
   36.3666   27.7311   35.6007 H   0  0  0  0  0  0  0  0  0  0  0  0
   41.0480   28.4241   34.0205 H   0  0  0  0  0  0  0  0  0  0  0  0
   39.6726   24.5125   32.8645 H   0  0  0  0  0  0  0  0  0  0  0  0
   43.8175   25.2824   33.3735 H   0  0  0  0  0  0  0  0  0  0  0  0
   39.4955   27.1497   36.3404 H   0  0  0  0  0  0  0  0  0  0  0  0
   37.7094   26.9822   36.7084 H   0  0  0  0  0  0  0  0  0  0  0  0
   39.0767   24.7684   35.2855 H   0  0  0  0  0  0  0  0  0  0  0  0
   39.3847   25.0237   37.0684 H   0  0  0  0  0  0  0  0  0  0  0  0
   36.5114   24.9402   36.6470 H   0  0  0  0  0  0  0  0  0  0  0  0
   37.1337   21.2524   37.5772 H   0  0  0  0  0  0  0  0  0  0  0  0
   35.9923   22.5956   37.8523 H   0  0  0  0  0  0  0  0  0  0  0  0
  1  6  2  0
  2  3  2  0
  2  1  1  0
  3  4  1  0
  4  5  2  0
  5  6  1  0
  6 13  1  0
  8  1  1  0
  8  7  2  0
  9  8  1  0
 10  9  2  0
 10 11  1  0
 11 12  2  0
 12  7  1  0
 13 14  1  0
 14 15  1  0
 15 16  1  0
 16 18  1  0
 17 16  2  0
 19 17  1  0
  2 20  1  0
  3 21  1  0
  4 22  1  0
  5 23  1  0
  7 24  1  0
  9 25  1  0
 11 26  1  0
 13 27  1  0
 13 28  1  0
 14 29  1  0
 14 30  1  0
 15 31  1  0
 18 32  1  0
 18 33  1  0
M  ISO  8  20  14  21  14  22  14  23  14  24  14  25  14  26  14  27   8
M  ISO  3  28   8  29   8  30   8
M  END
>  <minimizedAffinity>  (1) 
-4.56450558

>  <minimizedRMSD>  (1) 
0.82207936

$$$$
