
     RDKit          3D

 39 41  0  0  0  0  0  0  0  0999 V2000
   38.8480   26.9810   33.1050 C   0  0  0  0  0  0  0  0  0  0  0  0
   38.3650   27.0230   31.7960 C   0  0  0  0  0  0  0  0  0  0  0  0
   37.0640   27.4640   31.6400 C   0  0  0  0  0  0  0  0  0  0  0  0
   36.3290   27.8300   32.7480 C   0  0  0  0  0  0  0  0  0  0  0  0
   36.8870   27.7590   34.0180 C   0  0  0  0  0  0  0  0  0  0  0  0
   38.1780   27.3260   34.2330 C   0  0  0  0  0  0  0  0  0  0  0  0
   41.2310   27.5250   33.5050 C   0  0  0  0  0  0  0  0  0  0  0  0
   40.2210   26.5230   33.2340 C   0  0  0  0  0  0  0  0  0  0  0  0
   40.6310   25.2400   33.1240 C   0  0  0  0  0  0  0  0  0  0  0  0
   41.9350   24.9060   33.2620 N   0  0  0  0  0  0  0  0  0  0  0  0
   42.8710   25.8660   33.5170 C   0  0  0  0  0  0  0  0  0  0  0  0
   42.5230   27.1690   33.6380 N   0  0  0  0  0  0  0  0  0  0  0  0
   38.5010   27.3350   35.6650 C   0  0  0  0  0  0  0  0  0  0  0  0
   38.9650   26.0180   36.2060 C   0  0  0  0  0  0  0  0  0  0  0  0
   37.9230   24.9780   36.4060 C   0  0  0  0  0  0  0  0  0  0  0  0
   37.9500   24.3790   37.7750 C   0  0  0  0  0  0  0  0  0  0  0  0
   38.8320   23.1740   37.6410 C   0  0  0  0  0  0  0  0  0  0  0  0
   38.3630   22.5980   36.3170 C   0  0  0  0  0  0  0  0  0  0  0  0
   38.1560   23.8310   35.4720 C   0  0  0  0  0  0  0  0  0  0  0  0
   38.9840   26.7225   30.9378 H   0  0  0  0  0  0  0  0  0  0  0  0
   36.6171   27.5227   30.6366 H   0  0  0  0  0  0  0  0  0  0  0  0
   35.2936   28.1806   32.6252 H   0  0  0  0  0  0  0  0  0  0  0  0
   36.2771   28.0589   34.8829 H   0  0  0  0  0  0  0  0  0  0  0  0
   40.9415   28.5817   33.6026 H   0  0  0  0  0  0  0  0  0  0  0  0
   39.8909   24.4526   32.9185 H   0  0  0  0  0  0  0  0  0  0  0  0
   43.9265   25.5762   33.6261 H   0  0  0  0  0  0  0  0  0  0  0  0
   39.2974   28.0750   35.8328 H   0  0  0  0  0  0  0  0  0  0  0  0
   37.5681   27.5790   36.1942 H   0  0  0  0  0  0  0  0  0  0  0  0
   39.7107   25.6134   35.5058 H   0  0  0  0  0  0  0  0  0  0  0  0
   39.3533   26.2374   37.2115 H   0  0  0  0  0  0  0  0  0  0  0  0
   36.9645   25.4893   36.2333 H   0  0  0  0  0  0  0  0  0  0  0  0
   38.3704   25.0895   38.5019 H   0  0  0  0  0  0  0  0  0  0  0  0
   36.9441   24.1224   38.1389 H   0  0  0  0  0  0  0  0  0  0  0  0
   39.8944   23.4565   37.6020 H   0  0  0  0  0  0  0  0  0  0  0  0
   38.7613   22.4717   38.4847 H   0  0  0  0  0  0  0  0  0  0  0  0
   39.1275   21.9402   35.8778 H   0  0  0  0  0  0  0  0  0  0  0  0
   37.4609   21.9751   36.4076 H   0  0  0  0  0  0  0  0  0  0  0  0
   39.0490   24.0209   34.8583 H   0  0  0  0  0  0  0  0  0  0  0  0
   37.2985   23.6997   34.7956 H   0  0  0  0  0  0  0  0  0  0  0  0
  1  8  1  0
  1  6  1  0
  2  1  2  0
  3  2  1  0
  3  4  2  0
  4  5  1  0
  5  6  2  0
  6 13  1  0
  7 12  2  0
  8  7  1  0
  9  8  2  0
  9 10  1  0
 10 11  2  0
 11 12  1  0
 13 14  1  0
 14 15  1  0
 15 16  1  0
 17 16  1  0
 18 17  1  0
 19 18  1  0
 19 15  1  0
  2 20  1  0
  3 21  1  0
  4 22  1  0
  5 23  1  0
  7 24  1  0
  9 25  1  0
 11 26  1  0
 13 27  1  0
 13 28  1  0
 14 29  1  0
 14 30  1  0
 15 31  1  0
 16 32  1  0
 16 33  1  0
 17 34  1  0
 17 35  1  0
 18 36  1  0
 18 37  1  0
 19 38  1  0
 19 39  1  0
M  ISO  8  20  14  21  14  22  14  23  14  24  14  25  14  26  14  27   8
M  ISO  8  28   8  29   8  30   8  31  13  32  13  33  13  34  13  35  13
M  ISO  4  36  13  37  13  38  13  39  13
M  END
>  <minimizedAffinity>  (1) 
-4.54865932

>  <minimizedRMSD>  (1) 
1.15310323

$$$$
