
     RDKit          3D

 38 40  0  0  0  0  0  0  0  0999 V2000
   38.9290   26.9920   33.4300 C   0  0  0  0  0  0  0  0  0  0  0  0
   38.5100   27.5060   32.2100 C   0  0  0  0  0  0  0  0  0  0  0  0
   37.2490   28.0640   32.1750 C   0  0  0  0  0  0  0  0  0  0  0  0
   36.4850   28.0780   33.3540 C   0  0  0  0  0  0  0  0  0  0  0  0
   36.9810   27.5430   34.5300 C   0  0  0  0  0  0  0  0  0  0  0  0
   38.2440   26.9740   34.5950 C   0  0  0  0  0  0  0  0  0  0  0  0
   41.3560   27.2690   33.8370 C   0  0  0  0  0  0  0  0  0  0  0  0
   40.2650   26.4210   33.4190 C   0  0  0  0  0  0  0  0  0  0  0  0
   40.5740   25.1420   33.0470 C   0  0  0  0  0  0  0  0  0  0  0  0
   41.8430   24.6890   33.0680 N   0  0  0  0  0  0  0  0  0  0  0  0
   42.8630   25.5250   33.4720 C   0  0  0  0  0  0  0  0  0  0  0  0
   42.6230   26.8220   33.8600 N   0  0  0  0  0  0  0  0  0  0  0  0
   38.4780   26.4930   35.9580 C   0  0  0  0  0  0  0  0  0  0  0  0
   37.6650   25.2520   36.3300 C   0  0  0  0  0  0  0  0  0  0  0  0
   38.4520   24.2880   37.0880 N   0  0  0  0  0  0  0  0  0  0  0  0
   39.5300   23.8170   36.2410 C   0  0  0  0  0  0  0  0  0  0  0  0
   39.0650   22.6290   35.4720 C   0  0  0  0  0  0  0  0  0  0  0  0
   37.6790   22.3730   36.0090 C   0  0  0  0  0  0  0  0  0  0  0  0
   37.6590   23.0960   37.3160 C   0  0  0  0  0  0  0  0  0  0  0  0
   39.1511   27.4700   31.3169 H   0  0  0  0  0  0  0  0  0  0  0  0
   36.8495   28.4895   31.2426 H   0  0  0  0  0  0  0  0  0  0  0  0
   35.4780   28.5206   33.3422 H   0  0  0  0  0  0  0  0  0  0  0  0
   36.3577   27.5698   35.4360 H   0  0  0  0  0  0  0  0  0  0  0  0
   41.1454   28.3042   34.1435 H   0  0  0  0  0  0  0  0  0  0  0  0
   39.7680   24.4672   32.7231 H   0  0  0  0  0  0  0  0  0  0  0  0
   43.8949   25.1443   33.4841 H   0  0  0  0  0  0  0  0  0  0  0  0
   39.5459   26.2498   36.0600 H   0  0  0  0  0  0  0  0  0  0  0  0
   38.1588   27.2970   36.6375 H   0  0  0  0  0  0  0  0  0  0  0  0
   36.8025   25.5622   36.9382 H   0  0  0  0  0  0  0  0  0  0  0  0
   37.3418   24.7667   35.3973 H   0  0  0  0  0  0  0  0  0  0  0  0
   39.8250   24.6146   35.5432 H   0  0  0  0  0  0  0  0  0  0  0  0
   40.3943   23.5400   36.8624 H   0  0  0  0  0  0  0  0  0  0  0  0
   39.7209   21.7644   35.6519 H   0  0  0  0  0  0  0  0  0  0  0  0
   39.0760   22.7950   34.3847 H   0  0  0  0  0  0  0  0  0  0  0  0
   36.9151   22.7757   35.3276 H   0  0  0  0  0  0  0  0  0  0  0  0
   37.4571   21.3008   36.1147 H   0  0  0  0  0  0  0  0  0  0  0  0
   38.1064   22.4779   38.1084 H   0  0  0  0  0  0  0  0  0  0  0  0
   36.6366   23.3325   37.6458 H   0  0  0  0  0  0  0  0  0  0  0  0
  1  6  1  0
  2  1  2  0
  3  2  1  0
  3  4  2  0
  4  5  1  0
  5  6  2  0
  6 13  1  0
  7 12  2  0
  8  1  1  0
  8  7  1  0
  9 10  1  0
  9  8  2  0
 10 11  2  0
 11 12  1  0
 13 14  1  0
 14 15  1  0
 15 19  1  0
 16 15  1  0
 17 18  1  0
 17 16  1  0
 18 19  1  0
  2 20  1  0
  3 21  1  0
  4 22  1  0
  5 23  1  0
  7 24  1  0
  9 25  1  0
 11 26  1  0
 13 27  1  0
 13 28  1  0
 14 29  1  0
 14 30  1  0
 16 31  1  0
 16 32  1  0
 17 33  1  0
 17 34  1  0
 18 35  1  0
 18 36  1  0
 19 37  1  0
 19 38  1  0
M  ISO  8  20  14  21  14  22  14  23  14  24  14  25  14  26  14  27   8
M  ISO  8  28   8  29   8  30   8  31  13  32  13  33  13  34  13  35  13
M  ISO  3  36  13  37  13  38  13
M  END
>  <minimizedAffinity>  (1) 
-4.3685174

>  <minimizedRMSD>  (1) 
1.38885808

$$$$
