
     RDKit          3D

 28 29  0  0  0  0  0  0  0  0999 V2000
   38.8230   27.0260   33.6180 C   0  0  0  0  0  0  0  0  0  0  0  0
   38.3720   27.3530   32.3340 C   0  0  0  0  0  0  0  0  0  0  0  0
   37.1280   27.9530   32.2630 C   0  0  0  0  0  0  0  0  0  0  0  0
   36.4090   28.1930   33.4170 C   0  0  0  0  0  0  0  0  0  0  0  0
   36.9260   27.8390   34.6460 C   0  0  0  0  0  0  0  0  0  0  0  0
   38.1760   27.2310   34.7860 C   0  0  0  0  0  0  0  0  0  0  0  0
   41.2700   27.2620   33.9210 C   0  0  0  0  0  0  0  0  0  0  0  0
   40.1340   26.4050   33.6610 C   0  0  0  0  0  0  0  0  0  0  0  0
   40.3740   25.0840   33.4790 C   0  0  0  0  0  0  0  0  0  0  0  0
   41.6260   24.5810   33.5360 N   0  0  0  0  0  0  0  0  0  0  0  0
   42.6860   25.4080   33.7830 C   0  0  0  0  0  0  0  0  0  0  0  0
   42.5130   26.7410   33.9750 N   0  0  0  0  0  0  0  0  0  0  0  0
   38.4610   26.9630   36.2030 C   0  0  0  0  0  0  0  0  0  0  0  0
   38.6180   25.4810   36.5080 C   0  0  0  0  0  0  0  0  0  0  0  0
   37.3930   24.7970   36.1250 N   0  0  0  0  0  0  0  0  0  0  0  0
   38.9711   27.1452   31.4352 H   0  0  0  0  0  0  0  0  0  0  0  0
   36.7110   28.2393   31.2862 H   0  0  0  0  0  0  0  0  0  0  0  0
   35.4191   28.6688   33.3561 H   0  0  0  0  0  0  0  0  0  0  0  0
   36.3321   28.0430   35.5491 H   0  0  0  0  0  0  0  0  0  0  0  0
   41.1199   28.3408   34.0750 H   0  0  0  0  0  0  0  0  0  0  0  0
   39.5306   24.4064   33.2805 H   0  0  0  0  0  0  0  0  0  0  0  0
   43.7004   24.9848   33.8271 H   0  0  0  0  0  0  0  0  0  0  0  0
   39.3939   27.4778   36.4763 H   0  0  0  0  0  0  0  0  0  0  0  0
   37.6034   27.3298   36.7861 H   0  0  0  0  0  0  0  0  0  0  0  0
   39.4648   25.0726   35.9368 H   0  0  0  0  0  0  0  0  0  0  0  0
   38.8099   25.3361   37.5814 H   0  0  0  0  0  0  0  0  0  0  0  0
   36.8805   24.5109   36.9714 H   0  0  0  0  0  0  0  0  0  0  0  0
   36.8055   25.4321   35.5662 H   0  0  0  0  0  0  0  0  0  0  0  0
  1  8  1  0
  1  6  1  0
  2  1  2  0
  3  2  1  0
  3  4  2  0
  4  5  1  0
  5  6  2  0
  6 13  1  0
  7 12  2  0
  8  7  1  0
  9 10  1  0
  9  8  2  0
 10 11  2  0
 11 12  1  0
 13 14  1  0
 15 14  1  0
  2 16  1  0
  3 17  1  0
  4 18  1  0
  5 19  1  0
  7 20  1  0
  9 21  1  0
 11 22  1  0
 13 23  1  0
 13 24  1  0
 14 25  1  0
 14 26  1  0
 15 27  1  0
 15 28  1  0
M  ISO  8  16  14  17  14  18  14  19  14  20  14  21  14  22  14  23   8
M  ISO  5  24   8  25   8  26   8  27   5  28   5
M  END
>  <minimizedAffinity>  (1) 
-3.53529119

>  <minimizedRMSD>  (1) 
0.305727392

$$$$
