
     RDKit          3D

 47 51  0  0  0  0  0  0  0  0999 V2000
   38.4540   22.8690   33.4560 C   0  0  0  0  0  0  0  0  0  0  0  0
   36.3470   23.1120   31.9800 C   0  0  0  0  0  0  0  0  0  0  0  0
   35.3970   23.9000   31.3340 C   0  0  0  0  0  0  0  0  0  0  0  0
   35.5330   25.2660   31.4570 C   0  0  0  0  0  0  0  0  0  0  0  0
   36.5800   25.7770   32.1990 C   0  0  0  0  0  0  0  0  0  0  0  0
   37.4620   24.9400   32.7970 C   0  0  0  0  0  0  0  0  0  0  0  0
   37.3800   23.5610   32.7100 C   0  0  0  0  0  0  0  0  0  0  0  0
   37.0630   21.0070   30.8840 C   0  0  0  0  0  0  0  0  0  0  0  0
   36.1650   21.6670   31.8200 C   0  0  0  0  0  0  0  0  0  0  0  0
   35.2410   20.9250   32.4650 C   0  0  0  0  0  0  0  0  0  0  0  0
   35.1450   19.6050   32.2560 N   0  0  0  0  0  0  0  0  0  0  0  0
   35.9950   18.9880   31.3720 C   0  0  0  0  0  0  0  0  0  0  0  0
   36.9490   19.6860   30.6900 N   0  0  0  0  0  0  0  0  0  0  0  0
   37.9130   21.9880   34.5690 C   0  0  0  0  0  0  0  0  0  0  0  0
   37.9900   22.6080   35.8480 N   0  0  0  0  0  0  0  0  0  0  0  0
   36.9950   22.6850   36.7040 N   0  0  0  0  0  0  0  0  0  0  0  0
   37.3540   23.3230   37.8250 C   0  0  0  0  0  0  0  0  0  0  0  0
   38.6660   23.6490   37.6160 C   0  0  0  0  0  0  0  0  0  0  0  0
   39.0900   23.1990   36.3510 C   0  0  0  0  0  0  0  0  0  0  0  0
   40.3630   23.3000   35.6560 C   0  0  0  0  0  0  0  0  0  0  0  0
   41.0410   22.1150   35.6230 N   0  0  0  0  0  0  0  0  0  0  0  0
   42.2410   21.9850   35.0270 C   0  0  0  0  0  0  0  0  0  0  0  0
   42.7980   23.0700   34.4380 N   0  0  0  0  0  0  0  0  0  0  0  0
   42.1860   24.2630   34.4320 C   0  0  0  0  0  0  0  0  0  0  0  0
   42.6820   25.4110   33.8500 C   0  0  0  0  0  0  0  0  0  0  0  0
   41.9530   26.5970   33.9020 C   0  0  0  0  0  0  0  0  0  0  0  0
   40.7090   26.6850   34.5310 C   0  0  0  0  0  0  0  0  0  0  0  0
   40.2260   25.5340   35.1070 C   0  0  0  0  0  0  0  0  0  0  0  0
   40.9630   24.3730   35.0450 C   0  0  0  0  0  0  0  0  0  0  0  0
   39.1211   23.6246   33.8966 H   0  0  0  0  0  0  0  0  0  0  0  0
   38.9902   22.2211   32.7469 H   0  0  0  0  0  0  0  0  0  0  0  0
   34.5769   23.4530   30.7530 H   0  0  0  0  0  0  0  0  0  0  0  0
   34.8153   25.9421   30.9694 H   0  0  0  0  0  0  0  0  0  0  0  0
   36.6980   26.8655   32.3047 H   0  0  0  0  0  0  0  0  0  0  0  0
   38.2846   25.3785   33.3810 H   0  0  0  0  0  0  0  0  0  0  0  0
   37.8260   21.5854   30.3424 H   0  0  0  0  0  0  0  0  0  0  0  0
   34.5552   21.4117   33.1741 H   0  0  0  0  0  0  0  0  0  0  0  0
   35.9049   17.9038   31.2093 H   0  0  0  0  0  0  0  0  0  0  0  0
   36.8596   21.7560   34.3534 H   0  0  0  0  0  0  0  0  0  0  0  0
   38.5315   21.0790   34.6031 H   0  0  0  0  0  0  0  0  0  0  0  0
   36.7364   23.5359   38.7100 H   0  0  0  0  0  0  0  0  0  0  0  0
   39.3007   24.1872   38.3353 H   0  0  0  0  0  0  0  0  0  0  0  0
   42.7598   21.0151   35.0185 H   0  0  0  0  0  0  0  0  0  0  0  0
   43.6577   25.3899   33.3425 H   0  0  0  0  0  0  0  0  0  0  0  0
   42.3727   27.4977   33.4301 H   0  0  0  0  0  0  0  0  0  0  0  0
   40.1440   27.6282   34.5638 H   0  0  0  0  0  0  0  0  0  0  0  0
   39.2514   25.5408   35.6170 H   0  0  0  0  0  0  0  0  0  0  0  0
  1 14  1  0
  2  7  2  0
  3  4  2  0
  3  2  1  0
  4  5  1  0
  5  6  2  0
  7  6  1  0
  7  1  1  0
  8  9  2  0
  9  2  1  0
  9 10  1  0
 11 10  2  0
 12 11  1  0
 13  8  1  0
 13 12  2  0
 14 15  1  0
 15 19  1  0
 15 16  1  0
 16 17  2  0
 18 17  1  0
 19 18  2  0
 20 19  1  0
 21 20  2  0
 22 21  1  0
 23 22  2  0
 24 23  1  0
 24 29  2  0
 25 26  2  0
 25 24  1  0
 26 27  1  0
 27 28  2  0
 29 28  1  0
 29 20  1  0
  1 30  1  0
  1 31  1  0
  3 32  1  0
  4 33  1  0
  5 34  1  0
  6 35  1  0
  8 36  1  0
 10 37  1  0
 12 38  1  0
 14 39  1  0
 14 40  1  0
 17 41  1  0
 18 42  1  0
 22 43  1  0
 25 44  1  0
 26 45  1  0
 27 46  1  0
 28 47  1  0
M  ISO  8  30   8  31   8  32  14  33  14  34  14  35  14  36  14  37  14
M  ISO  8  38  14  39   8  40   8  41  14  42  14  43  14  44  14  45  14
M  ISO  2  46  14  47  14
M  END
>  <minimizedAffinity>  (1) 
-5.97243834

>  <minimizedRMSD>  (1) 
1.60273552

$$$$
