
     RDKit          3D

 49 52  0  0  0  0  0  0  0  0999 V2000
   36.6420   23.3950   32.2300 C   0  0  0  0  0  0  0  0  0  0  0  0
   35.8990   24.3660   31.5590 C   0  0  0  0  0  0  0  0  0  0  0  0
   36.2010   25.6810   31.8370 C   0  0  0  0  0  0  0  0  0  0  0  0
   37.1940   25.9750   32.7380 C   0  0  0  0  0  0  0  0  0  0  0  0
   37.8720   24.9690   33.3490 C   0  0  0  0  0  0  0  0  0  0  0  0
   37.6210   23.6330   33.1180 C   0  0  0  0  0  0  0  0  0  0  0  0
   37.1360   21.3490   30.9200 C   0  0  0  0  0  0  0  0  0  0  0  0
   36.2920   22.0100   31.9060 C   0  0  0  0  0  0  0  0  0  0  0  0
   35.2630   21.3270   32.4500 C   0  0  0  0  0  0  0  0  0  0  0  0
   35.0020   20.0610   32.1050 N   0  0  0  0  0  0  0  0  0  0  0  0
   35.8030   19.4360   31.1700 C   0  0  0  0  0  0  0  0  0  0  0  0
   36.8760   20.0770   30.5720 N   0  0  0  0  0  0  0  0  0  0  0  0
   38.4940   22.7320   33.9130 C   0  0  0  0  0  0  0  0  0  0  0  0
   37.7810   22.0900   35.0760 C   0  0  0  0  0  0  0  0  0  0  0  0
   38.0860   22.6780   36.3350 N   0  0  0  0  0  0  0  0  0  0  0  0
   37.2530   23.2790   37.1620 N   0  0  0  0  0  0  0  0  0  0  0  0
   37.8810   23.7180   38.2560 C   0  0  0  0  0  0  0  0  0  0  0  0
   39.1890   23.3520   38.0700 C   0  0  0  0  0  0  0  0  0  0  0  0
   39.3160   22.6910   36.8480 C   0  0  0  0  0  0  0  0  0  0  0  0
   40.6220   22.1950   36.4180 C   0  0  0  0  0  0  0  0  0  0  0  0
   41.3790   21.5210   37.5700 C   0  0  0  0  0  0  0  0  0  0  0  0
   42.5180   20.7850   36.9130 C   0  0  0  0  0  0  0  0  0  0  0  0
   43.4690   21.7250   36.2170 C   0  0  0  0  0  0  0  0  0  0  0  0
   42.8290   22.8380   35.4680 C   0  0  0  0  0  0  0  0  0  0  0  0
   41.5280   23.3340   35.9940 C   0  0  0  0  0  0  0  0  0  0  0  0
   35.1098   24.0949   30.8423 H   0  0  0  0  0  0  0  0  0  0  0  0
   35.6489   26.4918   31.3392 H   0  0  0  0  0  0  0  0  0  0  0  0
   37.4401   27.0229   32.9647 H   0  0  0  0  0  0  0  0  0  0  0  0
   38.6630   25.2341   34.0659 H   0  0  0  0  0  0  0  0  0  0  0  0
   37.9800   21.8868   30.4635 H   0  0  0  0  0  0  0  0  0  0  0  0
   34.6235   21.8231   33.1949 H   0  0  0  0  0  0  0  0  0  0  0  0
   35.5821   18.3952   30.8907 H   0  0  0  0  0  0  0  0  0  0  0  0
   38.8710   21.9376   33.2521 H   0  0  0  0  0  0  0  0  0  0  0  0
   39.3079   23.3457   34.3264 H   0  0  0  0  0  0  0  0  0  0  0  0
   36.6973   22.1750   34.9075 H   0  0  0  0  0  0  0  0  0  0  0  0
   38.1207   21.0448   35.1211 H   0  0  0  0  0  0  0  0  0  0  0  0
   37.4464   24.2529   39.1134 H   0  0  0  0  0  0  0  0  0  0  0  0
   40.0105   23.5489   38.7746 H   0  0  0  0  0  0  0  0  0  0  0  0
   40.4099   21.4953   35.5961 H   0  0  0  0  0  0  0  0  0  0  0  0
   41.7612   22.2746   38.2743 H   0  0  0  0  0  0  0  0  0  0  0  0
   40.7319   20.8464   38.1498 H   0  0  0  0  0  0  0  0  0  0  0  0
   43.0705   20.2256   37.6823 H   0  0  0  0  0  0  0  0  0  0  0  0
   42.0945   20.1076   36.1568 H   0  0  0  0  0  0  0  0  0  0  0  0
   44.1305   22.1641   36.9783 H   0  0  0  0  0  0  0  0  0  0  0  0
   43.9998   21.1200   35.4672 H   0  0  0  0  0  0  0  0  0  0  0  0
   42.6625   22.4938   34.4366 H   0  0  0  0  0  0  0  0  0  0  0  0
   43.5222   23.6869   35.5616 H   0  0  0  0  0  0  0  0  0  0  0  0
   41.7184   23.9803   36.8635 H   0  0  0  0  0  0  0  0  0  0  0  0
   41.0241   23.8912   35.1905 H   0  0  0  0  0  0  0  0  0  0  0  0
  1  6  2  0
  2  3  2  0
  2  1  1  0
  3  4  1  0
  4  5  2  0
  6  5  1  0
  6 13  1  0
  7  8  2  0
  8  1  1  0
  8  9  1  0
 10  9  2  0
 11 10  1  0
 12  7  1  0
 12 11  2  0
 13 14  1  0
 14 15  1  0
 15 19  1  0
 15 16  1  0
 16 17  2  0
 18 17  1  0
 19 18  2  0
 20 19  1  0
 20 21  1  0
 22 21  1  0
 23 22  1  0
 24 25  1  0
 24 23  1  0
 25 20  1  0
  2 26  1  0
  3 27  1  0
  4 28  1  0
  5 29  1  0
  7 30  1  0
  9 31  1  0
 11 32  1  0
 13 33  1  0
 13 34  1  0
 14 35  1  0
 14 36  1  0
 17 37  1  0
 18 38  1  0
 20 39  1  0
 21 40  1  0
 21 41  1  0
 22 42  1  0
 22 43  1  0
 23 44  1  0
 23 45  1  0
 24 46  1  0
 24 47  1  0
 25 48  1  0
 25 49  1  0
M  ISO  8  26  14  27  14  28  14  29  14  30  14  31  14  32  14  33   8
M  ISO  8  34   8  35   8  36   8  37  14  38  14  39  13  40  13  41  13
M  ISO  8  42  13  43  13  44  13  45  13  46  13  47  13  48  13  49  13
M  END
>  <minimizedAffinity>  (1) 
-5.96881294

>  <minimizedRMSD>  (1) 
1.32088816

$$$$
