
     RDKit          3D

 40 42  0  0  0  0  0  0  0  0999 V2000
   38.4410   22.8380   33.9420 C   0  0  0  0  0  0  0  0  0  0  0  0
   36.6340   23.4530   32.2080 C   0  0  0  0  0  0  0  0  0  0  0  0
   35.9010   24.4140   31.4940 C   0  0  0  0  0  0  0  0  0  0  0  0
   36.1900   25.7320   31.7490 C   0  0  0  0  0  0  0  0  0  0  0  0
   37.1620   26.0440   32.6720 C   0  0  0  0  0  0  0  0  0  0  0  0
   37.8300   25.0570   33.3240 C   0  0  0  0  0  0  0  0  0  0  0  0
   37.5890   23.7140   33.1140 C   0  0  0  0  0  0  0  0  0  0  0  0
   37.1290   21.3880   30.9390 C   0  0  0  0  0  0  0  0  0  0  0  0
   36.2940   22.0630   31.9050 C   0  0  0  0  0  0  0  0  0  0  0  0
   35.2700   21.3840   32.4580 C   0  0  0  0  0  0  0  0  0  0  0  0
   35.0140   20.1090   32.1330 N   0  0  0  0  0  0  0  0  0  0  0  0
   35.8220   19.4780   31.2080 C   0  0  0  0  0  0  0  0  0  0  0  0
   36.8780   20.1170   30.6130 N   0  0  0  0  0  0  0  0  0  0  0  0
   37.7380   22.2780   35.1520 C   0  0  0  0  0  0  0  0  0  0  0  0
   38.0550   22.9540   36.3630 N   0  0  0  0  0  0  0  0  0  0  0  0
   37.4320   24.0200   36.8620 N   0  0  0  0  0  0  0  0  0  0  0  0
   38.0150   24.3820   38.0230 C   0  0  0  0  0  0  0  0  0  0  0  0
   39.0370   23.4810   38.2210 C   0  0  0  0  0  0  0  0  0  0  0  0
   39.0670   22.5680   37.1660 C   0  0  0  0  0  0  0  0  0  0  0  0
   40.0020   21.5010   37.0800 N   0  0  0  0  0  0  0  0  0  0  0  0
   41.4070   21.6550   37.3090 C   0  0  0  0  0  0  0  0  0  0  0  0
   41.9180   22.7760   36.9210 N   0  0  0  0  0  0  0  0  0  0  0  0
   42.1580   20.6100   37.9290 N   0  0  0  0  0  0  0  0  0  0  0  0
   42.9300   22.9130   37.0740 H   0  0  0  0  0  0  0  0  0  0  0  0
   39.3097   23.4202   34.2834 H   0  0  0  0  0  0  0  0  0  0  0  0
   38.7301   21.9828   33.3134 H   0  0  0  0  0  0  0  0  0  0  0  0
   35.1307   24.1246   30.7640 H   0  0  0  0  0  0  0  0  0  0  0  0
   35.6496   26.5311   31.2204 H   0  0  0  0  0  0  0  0  0  0  0  0
   37.3991   27.0973   32.8827 H   0  0  0  0  0  0  0  0  0  0  0  0
   38.6008   25.3419   34.0552 H   0  0  0  0  0  0  0  0  0  0  0  0
   37.9710   21.9200   30.4721 H   0  0  0  0  0  0  0  0  0  0  0  0
   34.6278   21.8887   33.1948 H   0  0  0  0  0  0  0  0  0  0  0  0
   35.6118   18.4318   30.9410 H   0  0  0  0  0  0  0  0  0  0  0  0
   36.6528   22.3511   34.9876 H   0  0  0  0  0  0  0  0  0  0  0  0
   38.0767   21.2378   35.2671 H   0  0  0  0  0  0  0  0  0  0  0  0
   37.7329   25.2216   38.6753 H   0  0  0  0  0  0  0  0  0  0  0  0
   39.7247   23.4808   39.0795 H   0  0  0  0  0  0  0  0  0  0  0  0
   39.6489   20.5638   36.8393 H   0  0  0  0  0  0  0  0  0  0  0  0
   43.1684   20.7280   38.0905 H   0  0  0  0  0  0  0  0  0  0  0  0
   41.6891   19.7385   38.2146 H   0  0  0  0  0  0  0  0  0  0  0  0
  1 14  1  0
  2  7  2  0
  3  4  2  0
  3  2  1  0
  4  5  1  0
  5  6  2  0
  7  6  1  0
  7  1  1  0
  8  9  2  0
  9  2  1  0
  9 10  1  0
 11 10  2  0
 12 11  1  0
 13  8  1  0
 13 12  2  0
 14 15  1  0
 15 16  1  0
 15 19  1  0
 16 17  2  0
 17 18  1  0
 19 18  2  0
 20 19  1  0
 20 21  1  0
 21 23  1  0
 22 24  1  0
 22 21  2  0
  1 25  1  0
  1 26  1  0
  3 27  1  0
  4 28  1  0
  5 29  1  0
  6 30  1  0
  8 31  1  0
 10 32  1  0
 12 33  1  0
 14 34  1  0
 14 35  1  0
 17 36  1  0
 18 37  1  0
 20 38  1  0
 23 39  1  0
 23 40  1  0
M  ISO  8  25   8  26   8  27  14  28  14  29  14  30  14  31  14  32  14
M  ISO  5  33  14  34   8  35   8  36  14  37  14
M  END
>  <minimizedAffinity>  (1) 
-5.75562906

>  <minimizedRMSD>  (1) 
0.898043156

$$$$
