
     RDKit          3D

 46 50  0  0  0  0  0  0  0  0999 V2000
   38.6600   22.6080   33.9010 C   0  0  0  0  0  0  0  0  0  0  0  0
   36.5940   22.6410   32.3540 C   0  0  0  0  0  0  0  0  0  0  0  0
   35.6470   23.3440   31.5990 C   0  0  0  0  0  0  0  0  0  0  0  0
   35.7570   24.7160   31.5810 C   0  0  0  0  0  0  0  0  0  0  0  0
   36.7630   25.3270   32.2870 C   0  0  0  0  0  0  0  0  0  0  0  0
   37.6480   24.5780   32.9990 C   0  0  0  0  0  0  0  0  0  0  0  0
   37.5920   23.2000   33.0580 C   0  0  0  0  0  0  0  0  0  0  0  0
   37.2980   20.4680   31.4070 C   0  0  0  0  0  0  0  0  0  0  0  0
   36.4410   21.1870   32.3420 C   0  0  0  0  0  0  0  0  0  0  0  0
   35.5860   20.4990   33.1150 C   0  0  0  0  0  0  0  0  0  0  0  0
   35.5160   19.1580   33.0310 N   0  0  0  0  0  0  0  0  0  0  0  0
   36.3280   18.4780   32.1440 C   0  0  0  0  0  0  0  0  0  0  0  0
   37.2170   19.1300   31.3330 N   0  0  0  0  0  0  0  0  0  0  0  0
   38.1220   21.8820   35.1120 C   0  0  0  0  0  0  0  0  0  0  0  0
   38.1690   22.6640   36.3060 N   0  0  0  0  0  0  0  0  0  0  0  0
   37.1270   23.2240   36.9030 N   0  0  0  0  0  0  0  0  0  0  0  0
   37.5210   23.8880   37.9990 C   0  0  0  0  0  0  0  0  0  0  0  0
   38.8970   23.7060   38.0550 C   0  0  0  0  0  0  0  0  0  0  0  0
   39.3040   22.9270   36.9740 C   0  0  0  0  0  0  0  0  0  0  0  0
   40.6560   22.5570   36.7400 N   0  0  0  0  0  0  0  0  0  0  0  0
   41.2760   21.4480   37.1870 C   0  0  0  0  0  0  0  0  0  0  0  0
   42.5390   21.4590   36.7590 N   0  0  0  0  0  0  0  0  0  0  0  0
   42.7580   22.5680   36.0310 C   0  0  0  0  0  0  0  0  0  0  0  0
   43.8870   23.0310   35.3820 C   0  0  0  0  0  0  0  0  0  0  0  0
   43.7820   24.2150   34.7180 N   0  0  0  0  0  0  0  0  0  0  0  0
   42.6040   24.8900   34.7130 C   0  0  0  0  0  0  0  0  0  0  0  0
   41.5150   24.4250   35.3500 N   0  0  0  0  0  0  0  0  0  0  0  0
   41.5610   23.2750   36.0150 C   0  0  0  0  0  0  0  0  0  0  0  0
   45.0830   22.2620   35.4350 N   0  0  0  0  0  0  0  0  0  0  0  0
   39.3246   23.4151   34.2428 H   0  0  0  0  0  0  0  0  0  0  0  0
   39.1940   21.8695   33.2850 H   0  0  0  0  0  0  0  0  0  0  0  0
   34.8515   22.8235   31.0456 H   0  0  0  0  0  0  0  0  0  0  0  0
   35.0418   25.3200   31.0034 H   0  0  0  0  0  0  0  0  0  0  0  0
   36.8538   26.4232   32.2772 H   0  0  0  0  0  0  0  0  0  0  0  0
   38.4453   25.0946   33.5535 H   0  0  0  0  0  0  0  0  0  0  0  0
   38.0049   21.0171   30.7677 H   0  0  0  0  0  0  0  0  0  0  0  0
   34.9374   21.0359   33.8228 H   0  0  0  0  0  0  0  0  0  0  0  0
   36.2581   17.3817   32.0880 H   0  0  0  0  0  0  0  0  0  0  0  0
   37.0754   21.6052   34.9168 H   0  0  0  0  0  0  0  0  0  0  0  0
   38.7603   21.0009   35.2741 H   0  0  0  0  0  0  0  0  0  0  0  0
   36.8914   24.4540   38.7013 H   0  0  0  0  0  0  0  0  0  0  0  0
   39.5614   24.1132   38.8314 H   0  0  0  0  0  0  0  0  0  0  0  0
   40.8160   20.6620   37.8040 H   0  0  0  0  0  0  0  0  0  0  0  0
   42.5386   25.8455   34.1719 H   0  0  0  0  0  0  0  0  0  0  0  0
   45.9314   22.5956   34.9557 H   0  0  0  0  0  0  0  0  0  0  0  0
   45.1003   21.3717   35.9527 H   0  0  0  0  0  0  0  0  0  0  0  0
  1 14  1  0
  2  7  1  0
  3  2  2  0
  4  3  1  0
  4  5  2  0
  5  6  1  0
  6  7  2  0
  7  1  1  0
  8  9  2  0
  9  2  1  0
  9 10  1  0
 11 10  2  0
 12 11  1  0
 13  8  1  0
 13 12  2  0
 14 15  1  0
 15 16  1  0
 15 19  1  0
 16 17  2  0
 17 18  1  0
 19 18  2  0
 20 19  1  0
 20 21  1  0
 22 21  2  0
 23 22  1  0
 24 29  1  0
 24 23  2  0
 25 24  1  0
 26 25  2  0
 26 27  1  0
 27 28  2  0
 28 23  1  0
 28 20  1  0
  1 30  1  0
  1 31  1  0
  3 32  1  0
  4 33  1  0
  5 34  1  0
  6 35  1  0
  8 36  1  0
 10 37  1  0
 12 38  1  0
 14 39  1  0
 14 40  1  0
 17 41  1  0
 18 42  1  0
 21 43  1  0
 26 44  1  0
 29 45  1  0
 29 46  1  0
M  ISO  8  30   8  31   8  32  14  33  14  34  14  35  14  36  14  37  14
M  ISO  7  38  14  39   8  40   8  41  14  42  14  43  14  44  14
M  END
>  <minimizedAffinity>  (1) 
-5.71918583

>  <minimizedRMSD>  (1) 
1.67516124

$$$$
