
     RDKit          3D

 37 40  0  0  0  0  0  0  0  0999 V2000
   40.5550   26.5970   34.7460 C   0  0  0  0  0  0  0  0  0  0  0  0
   39.2490   27.0400   34.1940 C   0  0  0  0  0  0  0  0  0  0  0  0
   38.1840   27.2300   35.0510 C   0  0  0  0  0  0  0  0  0  0  0  0
   36.9070   27.6460   34.6500 C   0  0  0  0  0  0  0  0  0  0  0  0
   36.7380   27.8700   33.3120 N   0  0  0  0  0  0  0  0  0  0  0  0
   37.7900   27.6820   32.4650 C   0  0  0  0  0  0  0  0  0  0  0  0
   39.0120   27.2760   32.9110 N   0  0  0  0  0  0  0  0  0  0  0  0
   37.6450   27.9120   31.0310 C   0  0  0  0  0  0  0  0  0  0  0  0
   38.7690   28.2160   30.2580 C   0  0  0  0  0  0  0  0  0  0  0  0
   38.2980   28.3790   28.9380 C   0  0  0  0  0  0  0  0  0  0  0  0
   36.9450   28.1720   28.9680 N   0  0  0  0  0  0  0  0  0  0  0  0
   36.5700   27.8970   30.2070 N   0  0  0  0  0  0  0  0  0  0  0  0
   41.0030   25.2840   34.1440 C   0  0  0  0  0  0  0  0  0  0  0  0
   40.8400   22.7100   36.8450 C   0  0  0  0  0  0  0  0  0  0  0  0
   39.6460   22.0570   36.5130 C   0  0  0  0  0  0  0  0  0  0  0  0
   38.9210   22.4850   35.3990 C   0  0  0  0  0  0  0  0  0  0  0  0
   39.4360   23.5320   34.6970 N   0  0  0  0  0  0  0  0  0  0  0  0
   40.5920   24.1500   35.0340 C   0  0  0  0  0  0  0  0  0  0  0  0
   41.2820   23.7470   36.0890 N   0  0  0  0  0  0  0  0  0  0  0  0
   37.6520   21.8460   34.9860 C   0  0  0  0  0  0  0  0  0  0  0  0
   37.3900   21.6110   33.6150 C   0  0  0  0  0  0  0  0  0  0  0  0
   35.7450   20.8300   33.6950 S   0  0  0  0  0  0  0  0  0  0  0  0
   35.6930   20.9550   35.5920 C   0  0  0  0  0  0  0  0  0  0  0  0
   36.7910   21.5080   35.9360 N   0  0  0  0  0  0  0  0  0  0  0  0
   41.3121   27.3649   34.5290 H   0  0  0  0  0  0  0  0  0  0  0  0
   40.4369   26.4534   35.8302 H   0  0  0  0  0  0  0  0  0  0  0  0
   38.3487   27.0421   36.1222 H   0  0  0  0  0  0  0  0  0  0  0  0
   36.0876   27.7843   35.3707 H   0  0  0  0  0  0  0  0  0  0  0  0
   39.8080   28.3091   30.6071 H   0  0  0  0  0  0  0  0  0  0  0  0
   38.9029   28.6255   28.0530 H   0  0  0  0  0  0  0  0  0  0  0  0
   36.3169   28.2224   28.1533 H   0  0  0  0  0  0  0  0  0  0  0  0
   40.5384   25.1586   33.1548 H   0  0  0  0  0  0  0  0  0  0  0  0
   42.0982   25.2866   34.0419 H   0  0  0  0  0  0  0  0  0  0  0  0
   41.4204   22.3818   37.7199 H   0  0  0  0  0  0  0  0  0  0  0  0
   39.2836   21.2165   37.1230 H   0  0  0  0  0  0  0  0  0  0  0  0
   38.0122   21.8386   32.7369 H   0  0  0  0  0  0  0  0  0  0  0  0
   34.8830   20.6196   36.2564 H   0  0  0  0  0  0  0  0  0  0  0  0
  2  1  1  0
  2  3  2  0
  4  3  1  0
  5  4  2  0
  6  7  2  0
  6  5  1  0
  7  2  1  0
  8  6  1  0
  9  8  1  0
 10 11  1  0
 10  9  2  0
 11 12  1  0
 12  8  2  0
 13  1  1  0
 13 18  1  0
 15 14  2  0
 16 15  1  0
 17 18  1  0
 17 16  2  0
 18 19  2  0
 19 14  1  0
 20 16  1  0
 20 24  1  0
 21 22  1  0
 21 20  2  0
 22 23  1  0
 23 24  2  0
  1 25  1  0
  1 26  1  0
  3 27  1  0
  4 28  1  0
  9 29  1  0
 10 30  1  0
 11 31  1  0
 13 32  1  0
 13 33  1  0
 14 34  1  0
 15 35  1  0
 21 36  1  0
 23 37  1  0
M  ISO  8  25   8  26   8  27  14  28  14  29  14  30  14  31   9  32   8
M  ISO  5  33   8  34  14  35  14  36  14  37  14
M  END
>  <minimizedAffinity>  (1) 
-5.3363781

>  <minimizedRMSD>  (1) 
3.37669826

$$$$
