
     RDKit          3D

 40 43  0  0  0  0  0  0  0  0999 V2000
   36.5970   23.4060   32.1980 C   0  0  0  0  0  0  0  0  0  0  0  0
   35.8260   24.3610   31.5260 C   0  0  0  0  0  0  0  0  0  0  0  0
   36.1220   25.6810   31.7850 C   0  0  0  0  0  0  0  0  0  0  0  0
   37.1310   25.9910   32.6660 C   0  0  0  0  0  0  0  0  0  0  0  0
   37.8350   25.0130   33.2790 C   0  0  0  0  0  0  0  0  0  0  0  0
   37.5890   23.6790   33.0650 C   0  0  0  0  0  0  0  0  0  0  0  0
   37.1120   21.3560   30.9110 C   0  0  0  0  0  0  0  0  0  0  0  0
   36.2620   22.0140   31.8920 C   0  0  0  0  0  0  0  0  0  0  0  0
   35.2490   21.3260   32.4460 C   0  0  0  0  0  0  0  0  0  0  0  0
   35.0120   20.0520   32.1090 N   0  0  0  0  0  0  0  0  0  0  0  0
   35.8110   19.4280   31.1850 C   0  0  0  0  0  0  0  0  0  0  0  0
   36.8710   20.0790   30.5760 N   0  0  0  0  0  0  0  0  0  0  0  0
   38.4910   22.7990   33.8480 C   0  0  0  0  0  0  0  0  0  0  0  0
   37.8390   22.1510   35.0380 C   0  0  0  0  0  0  0  0  0  0  0  0
   38.1190   22.7970   36.2790 N   0  0  0  0  0  0  0  0  0  0  0  0
   37.2770   23.5840   36.9600 N   0  0  0  0  0  0  0  0  0  0  0  0
   37.8650   24.0410   38.0790 C   0  0  0  0  0  0  0  0  0  0  0  0
   39.1170   23.4930   38.0490 C   0  0  0  0  0  0  0  0  0  0  0  0
   39.2880   22.6900   36.8950 C   0  0  0  0  0  0  0  0  0  0  0  0
   40.5500   22.0240   36.7130 C   0  0  0  0  0  0  0  0  0  0  0  0
   41.4160   21.4020   37.5640 C   0  0  0  0  0  0  0  0  0  0  0  0
   42.5210   20.9000   36.9570 C   0  0  0  0  0  0  0  0  0  0  0  0
   42.2900   21.2550   35.6420 C   0  0  0  0  0  0  0  0  0  0  0  0
   41.1690   21.8830   35.5650 O   0  0  0  0  0  0  0  0  0  0  0  0
   35.0261   24.0729   30.8280 H   0  0  0  0  0  0  0  0  0  0  0  0
   35.5544   26.4826   31.2898 H   0  0  0  0  0  0  0  0  0  0  0  0
   37.3678   27.0449   32.8741 H   0  0  0  0  0  0  0  0  0  0  0  0
   38.6365   25.2971   33.9768 H   0  0  0  0  0  0  0  0  0  0  0  0
   37.9467   21.9019   30.4470 H   0  0  0  0  0  0  0  0  0  0  0  0
   34.6038   21.8178   33.1888 H   0  0  0  0  0  0  0  0  0  0  0  0
   35.6040   18.3806   30.9201 H   0  0  0  0  0  0  0  0  0  0  0  0
   38.8615   22.0052   33.1828 H   0  0  0  0  0  0  0  0  0  0  0  0
   39.2966   23.4385   34.2380 H   0  0  0  0  0  0  0  0  0  0  0  0
   36.7501   22.1590   34.8823 H   0  0  0  0  0  0  0  0  0  0  0  0
   38.2503   21.1333   35.1101 H   0  0  0  0  0  0  0  0  0  0  0  0
   37.4364   24.7047   38.8444 H   0  0  0  0  0  0  0  0  0  0  0  0
   39.8875   23.6540   38.8174 H   0  0  0  0  0  0  0  0  0  0  0  0
   41.2348   21.3152   38.6455 H   0  0  0  0  0  0  0  0  0  0  0  0
   43.3716   20.3567   37.3943 H   0  0  0  0  0  0  0  0  0  0  0  0
   42.9576   21.0359   34.7957 H   0  0  0  0  0  0  0  0  0  0  0  0
  1  6  2  0
  2  3  2  0
  2  1  1  0
  3  4  1  0
  4  5  2  0
  6  5  1  0
  6 13  1  0
  7  8  2  0
  8  1  1  0
  8  9  1  0
 10  9  2  0
 11 10  1  0
 12  7  1  0
 12 11  2  0
 13 14  1  0
 14 15  1  0
 15 19  1  0
 15 16  1  0
 16 17  2  0
 18 17  1  0
 19 18  2  0
 20 19  1  0
 20 21  2  0
 22 21  1  0
 23 22  2  0
 24 23  1  0
 24 20  1  0
  2 25  1  0
  3 26  1  0
  4 27  1  0
  5 28  1  0
  7 29  1  0
  9 30  1  0
 11 31  1  0
 13 32  1  0
 13 33  1  0
 14 34  1  0
 14 35  1  0
 17 36  1  0
 18 37  1  0
 21 38  1  0
 22 39  1  0
 23 40  1  0
M  ISO  8  25  14  26  14  27  14  28  14  29  14  30  14  31  14  32   8
M  ISO  8  33   8  34   8  35   8  36  14  37  14  38  14  39  14  40  14
M  END
>  <minimizedAffinity>  (1) 
-5.59033585

>  <minimizedRMSD>  (1) 
0.892980456

$$$$
