
     RDKit          3D

 45 48  0  0  0  0  0  0  0  0999 V2000
   36.3240   23.0730   31.9830 C   0  0  0  0  0  0  0  0  0  0  0  0
   35.4220   23.8940   31.2940 C   0  0  0  0  0  0  0  0  0  0  0  0
   35.5980   25.2500   31.4200 C   0  0  0  0  0  0  0  0  0  0  0  0
   36.6200   25.7370   32.1960 C   0  0  0  0  0  0  0  0  0  0  0  0
   37.4650   24.8770   32.8440 C   0  0  0  0  0  0  0  0  0  0  0  0
   37.3370   23.4970   32.7530 C   0  0  0  0  0  0  0  0  0  0  0  0
   36.9650   20.9740   30.8690 C   0  0  0  0  0  0  0  0  0  0  0  0
   36.1060   21.6520   31.8200 C   0  0  0  0  0  0  0  0  0  0  0  0
   35.1850   20.9090   32.4750 C   0  0  0  0  0  0  0  0  0  0  0  0
   35.0480   19.5950   32.2700 N   0  0  0  0  0  0  0  0  0  0  0  0
   35.8680   18.9660   31.3680 C   0  0  0  0  0  0  0  0  0  0  0  0
   36.8350   19.6450   30.6570 N   0  0  0  0  0  0  0  0  0  0  0  0
   38.3680   22.7830   33.5470 C   0  0  0  0  0  0  0  0  0  0  0  0
   37.7950   22.0450   34.7360 C   0  0  0  0  0  0  0  0  0  0  0  0
   38.0710   22.6690   35.9880 N   0  0  0  0  0  0  0  0  0  0  0  0
   37.2270   23.3650   36.7340 N   0  0  0  0  0  0  0  0  0  0  0  0
   37.8350   23.8020   37.8470 C   0  0  0  0  0  0  0  0  0  0  0  0
   39.1200   23.3350   37.7490 C   0  0  0  0  0  0  0  0  0  0  0  0
   39.2620   22.6170   36.5670 C   0  0  0  0  0  0  0  0  0  0  0  0
   40.5310   22.0550   36.2900 N   0  0  0  0  0  0  0  0  0  0  0  0
   41.3440   21.8200   35.0860 C   0  0  0  0  0  0  0  0  0  0  0  0
   42.6800   21.3600   35.6340 C   0  0  0  0  0  0  0  0  0  0  0  0
   42.3660   20.7520   36.9610 C   0  0  0  0  0  0  0  0  0  0  0  0
   41.2320   21.5950   37.4720 C   0  0  0  0  0  0  0  0  0  0  0  0
   34.6114   23.4726   30.6813 H   0  0  0  0  0  0  0  0  0  0  0  0
   34.9215   25.9444   30.9002 H   0  0  0  0  0  0  0  0  0  0  0  0
   36.7606   26.8232   32.2976 H   0  0  0  0  0  0  0  0  0  0  0  0
   38.2755   25.2943   33.4596 H   0  0  0  0  0  0  0  0  0  0  0  0
   37.7267   21.5440   30.3169 H   0  0  0  0  0  0  0  0  0  0  0  0
   34.5248   21.4037   33.2026 H   0  0  0  0  0  0  0  0  0  0  0  0
   35.7503   17.8843   31.2065 H   0  0  0  0  0  0  0  0  0  0  0  0
   38.8720   22.0559   32.8933 H   0  0  0  0  0  0  0  0  0  0  0  0
   39.0652   23.5399   33.9356 H   0  0  0  0  0  0  0  0  0  0  0  0
   36.7037   21.9828   34.6126 H   0  0  0  0  0  0  0  0  0  0  0  0
   38.2731   21.0546   34.7593 H   0  0  0  0  0  0  0  0  0  0  0  0
   37.3988   24.4024   38.6589 H   0  0  0  0  0  0  0  0  0  0  0  0
   39.9152   23.5023   38.4903 H   0  0  0  0  0  0  0  0  0  0  0  0
   41.4576   22.7461   34.5033 H   0  0  0  0  0  0  0  0  0  0  0  0
   40.8898   21.0868   34.4032 H   0  0  0  0  0  0  0  0  0  0  0  0
   43.1359   20.6147   34.9656 H   0  0  0  0  0  0  0  0  0  0  0  0
   43.3985   22.1886   35.7193 H   0  0  0  0  0  0  0  0  0  0  0  0
   42.0567   19.7023   36.8495 H   0  0  0  0  0  0  0  0  0  0  0  0
   43.2302   20.7374   37.6414 H   0  0  0  0  0  0  0  0  0  0  0  0
   41.6169   22.4494   38.0480 H   0  0  0  0  0  0  0  0  0  0  0  0
   40.5715   21.0278   38.1444 H   0  0  0  0  0  0  0  0  0  0  0  0
  1  6  2  0
  2  3  2  0
  2  1  1  0
  3  4  1  0
  4  5  2  0
  6  5  1  0
  6 13  1  0
  7  8  2  0
  8  1  1  0
  8  9  1  0
 10  9  2  0
 11 10  1  0
 12  7  1  0
 12 11  2  0
 13 14  1  0
 14 15  1  0
 15 19  1  0
 15 16  1  0
 16 17  2  0
 18 17  1  0
 19 18  2  0
 20 19  1  0
 20 24  1  0
 21 22  1  0
 21 20  1  0
 22 23  1  0
 23 24  1  0
  2 25  1  0
  3 26  1  0
  4 27  1  0
  5 28  1  0
  7 29  1  0
  9 30  1  0
 11 31  1  0
 13 32  1  0
 13 33  1  0
 14 34  1  0
 14 35  1  0
 17 36  1  0
 18 37  1  0
 21 38  1  0
 21 39  1  0
 22 40  1  0
 22 41  1  0
 23 42  1  0
 23 43  1  0
 24 44  1  0
 24 45  1  0
M  ISO  8  25  14  26  14  27  14  28  14  29  14  30  14  31  14  32   8
M  ISO  8  33   8  34   8  35   8  36  14  37  14  38  13  39  13  40  13
M  ISO  5  41  13  42  13  43  13  44  13  45  13
M  END
>  <minimizedAffinity>  (1) 
-5.56190014

>  <minimizedRMSD>  (1) 
0.639603615

$$$$
