
     RDKit          3D

 44 47  0  0  0  0  0  0  0  0999 V2000
   38.6560   22.5060   33.7940 C   0  0  0  0  0  0  0  0  0  0  0  0
   36.5360   22.5350   32.3140 C   0  0  0  0  0  0  0  0  0  0  0  0
   35.5650   23.2280   31.5860 C   0  0  0  0  0  0  0  0  0  0  0  0
   35.6740   24.6040   31.5590 C   0  0  0  0  0  0  0  0  0  0  0  0
   36.7030   25.2100   32.2290 C   0  0  0  0  0  0  0  0  0  0  0  0
   37.6100   24.4690   32.9160 C   0  0  0  0  0  0  0  0  0  0  0  0
   37.5590   23.0890   32.9830 C   0  0  0  0  0  0  0  0  0  0  0  0
   37.2000   20.3520   31.3490 C   0  0  0  0  0  0  0  0  0  0  0  0
   36.3870   21.0780   32.3160 C   0  0  0  0  0  0  0  0  0  0  0  0
   35.5710   20.3850   33.1320 C   0  0  0  0  0  0  0  0  0  0  0  0
   35.4980   19.0450   33.0660 N   0  0  0  0  0  0  0  0  0  0  0  0
   36.2600   18.3650   32.1600 C   0  0  0  0  0  0  0  0  0  0  0  0
   37.1210   19.0120   31.2900 N   0  0  0  0  0  0  0  0  0  0  0  0
   38.1720   21.8730   35.0780 C   0  0  0  0  0  0  0  0  0  0  0  0
   38.2110   22.7800   36.1870 N   0  0  0  0  0  0  0  0  0  0  0  0
   37.1610   23.4120   36.7070 N   0  0  0  0  0  0  0  0  0  0  0  0
   37.5510   24.1810   37.7270 C   0  0  0  0  0  0  0  0  0  0  0  0
   38.9180   24.0030   37.8300 C   0  0  0  0  0  0  0  0  0  0  0  0
   39.3480   23.1030   36.8410 C   0  0  0  0  0  0  0  0  0  0  0  0
   40.6780   22.6600   36.6150 N   0  0  0  0  0  0  0  0  0  0  0  0
   41.1400   21.5120   37.1850 C   0  0  0  0  0  0  0  0  0  0  0  0
   42.4300   21.0460   36.9910 C   0  0  0  0  0  0  0  0  0  0  0  0
   43.2400   21.8100   36.1790 C   0  0  0  0  0  0  0  0  0  0  0  0
   44.5790   21.3980   35.9300 N   0  0  0  0  0  0  0  0  0  0  0  0
   42.8090   22.9500   35.6030 N   0  0  0  0  0  0  0  0  0  0  0  0
   41.5370   23.3650   35.8240 C   0  0  0  0  0  0  0  0  0  0  0  0
   41.0380   24.4290   35.3230 O   0  0  0  0  0  0  0  0  0  0  0  0
   39.3689   23.3053   34.0448 H   0  0  0  0  0  0  0  0  0  0  0  0
   39.1224   21.7120   33.1923 H   0  0  0  0  0  0  0  0  0  0  0  0
   34.7538   22.7030   31.0604 H   0  0  0  0  0  0  0  0  0  0  0  0
   34.9409   25.2080   31.0043 H   0  0  0  0  0  0  0  0  0  0  0  0
   36.7956   26.3059   32.2105 H   0  0  0  0  0  0  0  0  0  0  0  0
   38.4224   24.9905   33.4433 H   0  0  0  0  0  0  0  0  0  0  0  0
   37.8739   20.8973   30.6718 H   0  0  0  0  0  0  0  0  0  0  0  0
   34.9536   20.9248   33.8651 H   0  0  0  0  0  0  0  0  0  0  0  0
   36.1876   17.2681   32.1200 H   0  0  0  0  0  0  0  0  0  0  0  0
   37.1350   21.5349   34.9354 H   0  0  0  0  0  0  0  0  0  0  0  0
   38.8435   21.0332   35.3099 H   0  0  0  0  0  0  0  0  0  0  0  0
   36.9159   24.8230   38.3551 H   0  0  0  0  0  0  0  0  0  0  0  0
   39.5681   24.4905   38.5714 H   0  0  0  0  0  0  0  0  0  0  0  0
   40.4604   20.9311   37.8259 H   0  0  0  0  0  0  0  0  0  0  0  0
   42.7881   20.1173   37.4593 H   0  0  0  0  0  0  0  0  0  0  0  0
   45.1882   21.9657   35.3238 H   0  0  0  0  0  0  0  0  0  0  0  0
   44.9390   20.5321   36.3560 H   0  0  0  0  0  0  0  0  0  0  0  0
  1 14  1  0
  2  9  1  0
  2  7  1  0
  3  2  2  0
  4  3  1  0
  4  5  2  0
  5  6  1  0
  6  7  2  0
  7  1  1  0
  8  9  2  0
  9 10  1  0
 11 10  2  0
 12 11  1  0
 13  8  1  0
 13 12  2  0
 14 15  1  0
 15 16  1  0
 15 19  1  0
 16 17  2  0
 17 18  1  0
 19 18  2  0
 20 19  1  0
 20 21  1  0
 22 21  2  0
 23 22  1  0
 24 23  1  0
 25 26  1  0
 25 23  2  0
 26 20  1  0
 27 26  2  0
  1 28  1  0
  1 29  1  0
  3 30  1  0
  4 31  1  0
  5 32  1  0
  6 33  1  0
  8 34  1  0
 10 35  1  0
 12 36  1  0
 14 37  1  0
 14 38  1  0
 17 39  1  0
 18 40  1  0
 21 41  1  0
 22 42  1  0
 24 43  1  0
 24 44  1  0
M  ISO  8  28   8  29   8  30  14  31  14  32  14  33  14  34  14  35  14
M  ISO  7  36  14  37   8  38   8  39  14  40  14  41  14  42  14
M  END
>  <minimizedAffinity>  (1) 
-5.43941212

>  <minimizedRMSD>  (1) 
1.35650551

$$$$
