
     RDKit          3D

 46 49  0  0  0  0  0  0  0  0999 V2000
   36.2820   23.0610   31.9490 C   0  0  0  0  0  0  0  0  0  0  0  0
   35.3950   23.8640   31.2410 C   0  0  0  0  0  0  0  0  0  0  0  0
   35.5630   25.2240   31.3650 C   0  0  0  0  0  0  0  0  0  0  0  0
   36.5650   25.7200   32.1580 C   0  0  0  0  0  0  0  0  0  0  0  0
   37.3990   24.8670   32.8260 C   0  0  0  0  0  0  0  0  0  0  0  0
   37.2780   23.4980   32.7380 C   0  0  0  0  0  0  0  0  0  0  0  0
   36.9480   20.9410   30.8560 C   0  0  0  0  0  0  0  0  0  0  0  0
   36.0760   21.6260   31.7920 C   0  0  0  0  0  0  0  0  0  0  0  0
   35.1420   20.9010   32.4480 C   0  0  0  0  0  0  0  0  0  0  0  0
   35.0120   19.5770   32.2480 N   0  0  0  0  0  0  0  0  0  0  0  0
   35.8470   18.9440   31.3580 C   0  0  0  0  0  0  0  0  0  0  0  0
   36.8180   19.6200   30.6580 N   0  0  0  0  0  0  0  0  0  0  0  0
   38.2950   22.7880   33.5530 C   0  0  0  0  0  0  0  0  0  0  0  0
   37.7100   22.0600   34.7430 C   0  0  0  0  0  0  0  0  0  0  0  0
   38.0670   22.6330   35.9960 N   0  0  0  0  0  0  0  0  0  0  0  0
   37.2430   23.2980   36.8130 N   0  0  0  0  0  0  0  0  0  0  0  0
   37.9290   23.7210   37.8930 C   0  0  0  0  0  0  0  0  0  0  0  0
   39.2060   23.2910   37.7120 C   0  0  0  0  0  0  0  0  0  0  0  0
   39.3000   22.5890   36.4930 C   0  0  0  0  0  0  0  0  0  0  0  0
   40.5230   21.9920   36.1220 N   0  0  0  0  0  0  0  0  0  0  0  0
   40.9690   22.0000   34.7260 C   0  0  0  0  0  0  0  0  0  0  0  0
   42.3510   22.5910   34.5680 C   0  0  0  0  0  0  0  0  0  0  0  0
   43.2510   22.0430   35.4800 O   0  0  0  0  0  0  0  0  0  0  0  0
   42.8190   22.1810   36.7770 C   0  0  0  0  0  0  0  0  0  0  0  0
   41.5360   21.3440   36.9180 C   0  0  0  0  0  0  0  0  0  0  0  0
   34.5999   23.4342   30.6140 H   0  0  0  0  0  0  0  0  0  0  0  0
   34.8938   25.9126   30.8283 H   0  0  0  0  0  0  0  0  0  0  0  0
   36.6985   26.8074   32.2572 H   0  0  0  0  0  0  0  0  0  0  0  0
   38.1953   25.2894   33.4564 H   0  0  0  0  0  0  0  0  0  0  0  0
   37.7168   21.5054   30.3079 H   0  0  0  0  0  0  0  0  0  0  0  0
   34.4734   21.4051   33.1613 H   0  0  0  0  0  0  0  0  0  0  0  0
   35.7345   17.8611   31.2009 H   0  0  0  0  0  0  0  0  0  0  0  0
   38.8054   22.0542   32.9118 H   0  0  0  0  0  0  0  0  0  0  0  0
   38.9856   23.5490   33.9453 H   0  0  0  0  0  0  0  0  0  0  0  0
   36.6137   22.0743   34.6543 H   0  0  0  0  0  0  0  0  0  0  0  0
   38.1189   21.0389   34.7281 H   0  0  0  0  0  0  0  0  0  0  0  0
   37.5368   24.2956   38.7451 H   0  0  0  0  0  0  0  0  0  0  0  0
   40.0384   23.4643   38.4099 H   0  0  0  0  0  0  0  0  0  0  0  0
   40.9822   20.9652   34.3531 H   0  0  0  0  0  0  0  0  0  0  0  0
   40.2685   22.6251   34.1528 H   0  0  0  0  0  0  0  0  0  0  0  0
   42.7103   22.3908   33.5478 H   0  0  0  0  0  0  0  0  0  0  0  0
   42.2860   23.6728   34.7566 H   0  0  0  0  0  0  0  0  0  0  0  0
   43.5880   21.8128   37.4720 H   0  0  0  0  0  0  0  0  0  0  0  0
   42.6254   23.2374   37.0148 H   0  0  0  0  0  0  0  0  0  0  0  0
   41.2226   21.3068   37.9718 H   0  0  0  0  0  0  0  0  0  0  0  0
   41.7012   20.3105   36.5795 H   0  0  0  0  0  0  0  0  0  0  0  0
  1  6  2  0
  2  3  2  0
  2  1  1  0
  3  4  1  0
  4  5  2  0
  6  5  1  0
  6 13  1  0
  7  8  2  0
  8  1  1  0
  8  9  1  0
 10  9  2  0
 11 10  1  0
 12  7  1  0
 12 11  2  0
 13 14  1  0
 14 15  1  0
 15 19  1  0
 15 16  1  0
 16 17  2  0
 18 17  1  0
 19 18  2  0
 20 19  1  0
 20 25  1  0
 21 20  1  0
 22 21  1  0
 22 23  1  0
 23 24  1  0
 24 25  1  0
  2 26  1  0
  3 27  1  0
  4 28  1  0
  5 29  1  0
  7 30  1  0
  9 31  1  0
 11 32  1  0
 13 33  1  0
 13 34  1  0
 14 35  1  0
 14 36  1  0
 17 37  1  0
 18 38  1  0
 21 39  1  0
 21 40  1  0
 22 41  1  0
 22 42  1  0
 24 43  1  0
 24 44  1  0
 25 45  1  0
 25 46  1  0
M  ISO  8  26  14  27  14  28  14  29  14  30  14  31  14  32  14  33   8
M  ISO  8  34   8  35   8  36   8  37  14  38  14  39  13  40  13  41  13
M  ISO  5  42  13  43  13  44  13  45  13  46  13
M  END
>  <minimizedAffinity>  (1) 
-5.41541004

>  <minimizedRMSD>  (1) 
0.383628666

$$$$
