
     RDKit          3D

 40 43  0  0  0  0  0  0  0  0999 V2000
   36.5390   23.1280   32.1940 C   0  0  0  0  0  0  0  0  0  0  0  0
   35.7770   24.0650   31.4870 C   0  0  0  0  0  0  0  0  0  0  0  0
   36.0500   25.3940   31.7080 C   0  0  0  0  0  0  0  0  0  0  0  0
   37.0380   25.7390   32.5970 C   0  0  0  0  0  0  0  0  0  0  0  0
   37.7400   24.7750   33.2510 C   0  0  0  0  0  0  0  0  0  0  0  0
   37.5120   23.4200   33.0700 C   0  0  0  0  0  0  0  0  0  0  0  0
   37.0340   21.0630   30.9230 C   0  0  0  0  0  0  0  0  0  0  0  0
   36.2110   21.7300   31.9230 C   0  0  0  0  0  0  0  0  0  0  0  0
   35.2250   21.0420   32.5210 C   0  0  0  0  0  0  0  0  0  0  0  0
   34.9880   19.7590   32.2140 N   0  0  0  0  0  0  0  0  0  0  0  0
   35.7610   19.1270   31.2730 C   0  0  0  0  0  0  0  0  0  0  0  0
   36.7920   19.7790   30.6220 N   0  0  0  0  0  0  0  0  0  0  0  0
   38.4020   22.5680   33.8960 C   0  0  0  0  0  0  0  0  0  0  0  0
   37.7140   21.9750   35.0970 C   0  0  0  0  0  0  0  0  0  0  0  0
   38.0390   22.6210   36.3270 N   0  0  0  0  0  0  0  0  0  0  0  0
   37.2030   23.2140   37.1590 N   0  0  0  0  0  0  0  0  0  0  0  0
   37.8530   23.7180   38.2160 C   0  0  0  0  0  0  0  0  0  0  0  0
   39.1690   23.4020   37.9930 C   0  0  0  0  0  0  0  0  0  0  0  0
   39.2840   22.7070   36.7950 C   0  0  0  0  0  0  0  0  0  0  0  0
   40.6040   22.2240   36.2810 C   0  0  0  0  0  0  0  0  0  0  0  0
   41.4320   21.4410   37.3150 C   0  0  0  0  0  0  0  0  0  0  0  0
   41.8620   22.7750   36.8290 C   0  0  0  0  0  0  0  0  0  0  0  0
   34.9919   23.7510   30.7834 H   0  0  0  0  0  0  0  0  0  0  0  0
   35.4827   26.1733   31.1780 H   0  0  0  0  0  0  0  0  0  0  0  0
   37.2628   26.7999   32.7811 H   0  0  0  0  0  0  0  0  0  0  0  0
   38.5251   25.0852   33.9563 H   0  0  0  0  0  0  0  0  0  0  0  0
   37.8464   21.6076   30.4196 H   0  0  0  0  0  0  0  0  0  0  0  0
   34.6003   21.5405   33.2768 H   0  0  0  0  0  0  0  0  0  0  0  0
   35.5552   18.0741   31.0301 H   0  0  0  0  0  0  0  0  0  0  0  0
   38.7792   21.7466   33.2690 H   0  0  0  0  0  0  0  0  0  0  0  0
   39.2126   23.2107   34.2698 H   0  0  0  0  0  0  0  0  0  0  0  0
   36.6271   22.0475   34.9444 H   0  0  0  0  0  0  0  0  0  0  0  0
   38.0601   20.9343   35.1817 H   0  0  0  0  0  0  0  0  0  0  0  0
   37.4270   24.2631   39.0712 H   0  0  0  0  0  0  0  0  0  0  0  0
   40.0050   23.6592   38.6600 H   0  0  0  0  0  0  0  0  0  0  0  0
   40.2292   22.0861   35.2561 H   0  0  0  0  0  0  0  0  0  0  0  0
   41.0617   21.3191   38.3436 H   0  0  0  0  0  0  0  0  0  0  0  0
   41.8836   20.4392   37.3648 H   0  0  0  0  0  0  0  0  0  0  0  0
   42.7465   22.8570   36.1803 H   0  0  0  0  0  0  0  0  0  0  0  0
   42.1273   23.7188   37.3278 H   0  0  0  0  0  0  0  0  0  0  0  0
  1  6  2  0
  2  3  2  0
  2  1  1  0
  3  4  1  0
  4  5  2  0
  6  5  1  0
  6 13  1  0
  7  8  2  0
  8  1  1  0
  8  9  1  0
 10  9  2  0
 11 10  1  0
 12  7  1  0
 12 11  2  0
 13 14  1  0
 14 15  1  0
 15 19  1  0
 15 16  1  0
 16 17  2  0
 18 17  1  0
 19 18  2  0
 20 19  1  0
 20 22  1  0
 20 21  1  0
 22 21  1  0
  2 23  1  0
  3 24  1  0
  4 25  1  0
  5 26  1  0
  7 27  1  0
  9 28  1  0
 11 29  1  0
 13 30  1  0
 13 31  1  0
 14 32  1  0
 14 33  1  0
 17 34  1  0
 18 35  1  0
 20 36  1  0
 21 37  1  0
 21 38  1  0
 22 39  1  0
 22 40  1  0
M  ISO  8  23  14  24  14  25  14  26  14  27  14  28  14  29  14  30   8
M  ISO  8  31   8  32   8  33   8  34  14  35  14  36  13  37  13  38  13
M  ISO  2  39  13  40  13
M  END
>  <minimizedAffinity>  (1) 
-5.37804699

>  <minimizedRMSD>  (1) 
0.776772738

$$$$
