
     RDKit          3D

 34 36  0  0  0  0  0  0  0  0999 V2000
   36.6650   23.3370   32.2790 C   0  0  0  0  0  0  0  0  0  0  0  0
   35.9620   24.3220   31.5660 C   0  0  0  0  0  0  0  0  0  0  0  0
   36.2720   25.6300   31.8420 C   0  0  0  0  0  0  0  0  0  0  0  0
   37.2350   25.9180   32.7800 C   0  0  0  0  0  0  0  0  0  0  0  0
   37.8750   24.9090   33.4310 C   0  0  0  0  0  0  0  0  0  0  0  0
   37.6100   23.5770   33.2010 C   0  0  0  0  0  0  0  0  0  0  0  0
   37.1040   21.2940   30.9630 C   0  0  0  0  0  0  0  0  0  0  0  0
   36.3030   21.9580   31.9560 C   0  0  0  0  0  0  0  0  0  0  0  0
   35.2680   21.2900   32.5370 C   0  0  0  0  0  0  0  0  0  0  0  0
   34.9880   20.0250   32.1930 N   0  0  0  0  0  0  0  0  0  0  0  0
   35.7640   19.3950   31.2370 C   0  0  0  0  0  0  0  0  0  0  0  0
   36.8250   20.0300   30.6180 N   0  0  0  0  0  0  0  0  0  0  0  0
   38.4350   22.6680   34.0330 C   0  0  0  0  0  0  0  0  0  0  0  0
   37.6990   22.1510   35.2500 C   0  0  0  0  0  0  0  0  0  0  0  0
   38.0470   22.8350   36.4540 N   0  0  0  0  0  0  0  0  0  0  0  0
   37.3660   23.8400   36.9920 N   0  0  0  0  0  0  0  0  0  0  0  0
   37.9660   24.2530   38.1200 C   0  0  0  0  0  0  0  0  0  0  0  0
   39.0770   23.4380   38.2580 C   0  0  0  0  0  0  0  0  0  0  0  0
   39.1230   22.5360   37.1910 C   0  0  0  0  0  0  0  0  0  0  0  0
   40.0580   21.5350   36.9210 O   0  0  0  0  0  0  0  0  0  0  0  0
   35.1979   24.0570   30.8204 H   0  0  0  0  0  0  0  0  0  0  0  0
   35.7525   26.4441   31.3153 H   0  0  0  0  0  0  0  0  0  0  0  0
   37.4882   26.9647   33.0043 H   0  0  0  0  0  0  0  0  0  0  0  0
   38.6406   25.1695   34.1766 H   0  0  0  0  0  0  0  0  0  0  0  0
   37.9436   21.8227   30.4880 H   0  0  0  0  0  0  0  0  0  0  0  0
   34.6544   21.7947   33.2978 H   0  0  0  0  0  0  0  0  0  0  0  0
   35.5298   18.3564   30.9605 H   0  0  0  0  0  0  0  0  0  0  0  0
   38.7407   21.8094   33.4170 H   0  0  0  0  0  0  0  0  0  0  0  0
   39.3006   23.2443   34.3916 H   0  0  0  0  0  0  0  0  0  0  0  0
   36.6186   22.2696   35.0810 H   0  0  0  0  0  0  0  0  0  0  0  0
   37.9852   21.0969   35.3801 H   0  0  0  0  0  0  0  0  0  0  0  0
   37.6443   25.0639   38.7900 H   0  0  0  0  0  0  0  0  0  0  0  0
   39.8082   23.4919   39.0781 H   0  0  0  0  0  0  0  0  0  0  0  0
   40.8231   21.3942   37.5332 H   0  0  0  0  0  0  0  0  0  0  0  0
  1  6  2  0
  2  3  2  0
  2  1  1  0
  3  4  1  0
  4  5  2  0
  6  5  1  0
  6 13  1  0
  7  8  2  0
  8  1  1  0
  8  9  1  0
 10  9  2  0
 11 10  1  0
 12  7  1  0
 12 11  2  0
 13 14  1  0
 14 15  1  0
 15 16  1  0
 15 19  1  0
 16 17  2  0
 17 18  1  0
 19 18  2  0
 20 19  1  0
  2 21  1  0
  3 22  1  0
  4 23  1  0
  5 24  1  0
  7 25  1  0
  9 26  1  0
 11 27  1  0
 13 28  1  0
 13 29  1  0
 14 30  1  0
 14 31  1  0
 17 32  1  0
 18 33  1  0
 20 34  1  0
M  ISO  8  21  14  22  14  23  14  24  14  25  14  26  14  27  14  28   8
M  ISO  6  29   8  30   8  31   8  32  14  33  14  34   3
M  END
>  <minimizedAffinity>  (1) 
-5.05371714

>  <minimizedRMSD>  (1) 
0.709331334

$$$$
