
     RDKit          3D

 26 27  0  0  0  0  0  0  0  0999 V2000
   40.0510   22.7970   37.7240 C   0  0  0  0  0  0  0  0  0  0  0  0
   39.1250   23.2730   38.6650 C   0  0  0  0  0  0  0  0  0  0  0  0
   37.8200   23.5110   38.2070 C   0  0  0  0  0  0  0  0  0  0  0  0
   37.5110   23.2760   36.9030 N   0  0  0  0  0  0  0  0  0  0  0  0
   38.4370   22.8170   36.0340 C   0  0  0  0  0  0  0  0  0  0  0  0
   39.6840   22.5830   36.4470 N   0  0  0  0  0  0  0  0  0  0  0  0
   38.1590   22.5550   34.6570 N   0  0  0  0  0  0  0  0  0  0  0  0
   38.8620   23.0950   33.6290 C   0  0  0  0  0  0  0  0  0  0  0  0
   38.4780   22.7500   32.3480 C   0  0  0  0  0  0  0  0  0  0  0  0
   37.4220   21.8930   32.1590 C   0  0  0  0  0  0  0  0  0  0  0  0
   37.0770   21.5830   30.9850 O   0  0  0  0  0  0  0  0  0  0  0  0
   36.7180   21.3520   33.1540 N   0  0  0  0  0  0  0  0  0  0  0  0
   37.1290   21.7160   34.3980 C   0  0  0  0  0  0  0  0  0  0  0  0
   36.4670   21.2090   35.3580 O   0  0  0  0  0  0  0  0  0  0  0  0
   39.1970   23.2990   31.2010 C   0  0  0  0  0  0  0  0  0  0  0  0
   35.6000   20.4450   32.9780 C   0  0  0  0  0  0  0  0  0  0  0  0
   36.0020   19.3700   32.1740 F   0  0  0  0  0  0  0  0  0  0  0  0
   34.5200   21.0570   32.4190 F   0  0  0  0  0  0  0  0  0  0  0  0
   35.2760   19.9240   34.2380 F   0  0  0  0  0  0  0  0  0  0  0  0
   41.0874   22.5968   38.0334 H   0  0  0  0  0  0  0  0  0  0  0  0
   39.4089   23.4512   39.7127 H   0  0  0  0  0  0  0  0  0  0  0  0
   37.0510   23.8856   38.8986 H   0  0  0  0  0  0  0  0  0  0  0  0
   39.7037   23.7799   33.8090 H   0  0  0  0  0  0  0  0  0  0  0  0
   40.0247   23.9310   31.5553 H   0  0  0  0  0  0  0  0  0  0  0  0
   39.5989   22.4759   30.5920 H   0  0  0  0  0  0  0  0  0  0  0  0
   38.5088   23.9036   30.5920 H   0  0  0  0  0  0  0  0  0  0  0  0
  1  2  2  0
  3  2  1  0
  4  3  2  0
  5  6  2  0
  5  4  1  0
  6  1  1  0
  7  5  1  0
  8  7  1  0
  9  8  2  0
 10  9  1  0
 10 12  1  0
 11 10  2  0
 12 13  1  0
 13  7  1  0
 13 14  2  0
 15  9  1  0
 16 12  1  0
 16 19  1  0
 17 16  1  0
 18 16  1  0
  1 20  1  0
  2 21  1  0
  3 22  1  0
  8 23  1  0
 15 24  1  0
 15 25  1  0
 15 26  1  0
M  ISO  7  20  14  21  14  22  14  23  14  24   8  25   8  26   8
M  END
>  <minimizedAffinity>  (1) 
-5.28952456

>  <minimizedRMSD>  (1) 
2.0073123

$$$$
