
     RDKit          3D

 40 43  0  0  0  0  0  0  0  0999 V2000
   39.9540   22.8710   37.9330 C   0  0  0  0  0  0  0  0  0  0  0  0
   38.9880   23.3530   38.8290 C   0  0  0  0  0  0  0  0  0  0  0  0
   37.6900   23.5610   38.3230 C   0  0  0  0  0  0  0  0  0  0  0  0
   37.4570   23.2880   37.0180 N   0  0  0  0  0  0  0  0  0  0  0  0
   38.4030   22.8280   36.1880 C   0  0  0  0  0  0  0  0  0  0  0  0
   39.6290   22.6260   36.6470 N   0  0  0  0  0  0  0  0  0  0  0  0
   38.1660   22.5370   34.8150 N   0  0  0  0  0  0  0  0  0  0  0  0
   38.9030   23.0630   33.8020 C   0  0  0  0  0  0  0  0  0  0  0  0
   38.5740   22.7010   32.4990 C   0  0  0  0  0  0  0  0  0  0  0  0
   37.5230   21.8310   32.3010 C   0  0  0  0  0  0  0  0  0  0  0  0
   37.2220   21.5010   31.1280 O   0  0  0  0  0  0  0  0  0  0  0  0
   36.7940   21.3090   33.2760 N   0  0  0  0  0  0  0  0  0  0  0  0
   37.1550   21.6930   34.5280 C   0  0  0  0  0  0  0  0  0  0  0  0
   36.4640   21.1990   35.4750 O   0  0  0  0  0  0  0  0  0  0  0  0
   35.6870   20.3890   33.0780 C   0  0  0  0  0  0  0  0  0  0  0  0
   36.1320   19.3130   32.2810 F   0  0  0  0  0  0  0  0  0  0  0  0
   34.6180   20.9880   32.4900 F   0  0  0  0  0  0  0  0  0  0  0  0
   35.3500   19.8570   34.3300 F   0  0  0  0  0  0  0  0  0  0  0  0
   39.3310   23.2400   31.3830 C   0  0  0  0  0  0  0  0  0  0  0  0
   39.0570   24.6120   31.0320 N   0  0  0  0  0  0  0  0  0  0  0  0
   40.1130   25.4450   30.7870 C   0  0  0  0  0  0  0  0  0  0  0  0
   39.6920   26.6900   30.4830 N   0  0  0  0  0  0  0  0  0  0  0  0
   38.3540   26.7000   30.5220 C   0  0  0  0  0  0  0  0  0  0  0  0
   37.3180   27.5950   30.3220 C   0  0  0  0  0  0  0  0  0  0  0  0
   37.6240   28.7710   30.0130 O   0  0  0  0  0  0  0  0  0  0  0  0
   36.0410   27.1850   30.4620 N   0  0  0  0  0  0  0  0  0  0  0  0
   35.6960   25.9110   30.7960 C   0  0  0  0  0  0  0  0  0  0  0  0
   34.3230   25.5640   30.9220 N   0  0  0  0  0  0  0  0  0  0  0  0
   36.7190   25.0630   30.9850 N   0  0  0  0  0  0  0  0  0  0  0  0
   38.0050   25.4240   30.8580 C   0  0  0  0  0  0  0  0  0  0  0  0
   40.9820   22.6919   38.2811 H   0  0  0  0  0  0  0  0  0  0  0  0
   39.2336   23.5595   39.8811 H   0  0  0  0  0  0  0  0  0  0  0  0
   36.8854   23.9361   38.9726 H   0  0  0  0  0  0  0  0  0  0  0  0
   39.7344   23.7539   34.0055 H   0  0  0  0  0  0  0  0  0  0  0  0
   40.3993   23.1646   31.6343 H   0  0  0  0  0  0  0  0  0  0  0  0
   39.0291   22.6460   30.5078 H   0  0  0  0  0  0  0  0  0  0  0  0
   41.1688   25.1397   30.8319 H   0  0  0  0  0  0  0  0  0  0  0  0
   35.2880   27.8708   30.3084 H   0  0  0  0  0  0  0  0  0  0  0  0
   34.0561   24.6018   31.1744 H   0  0  0  0  0  0  0  0  0  0  0  0
   33.5953   26.2749   30.7608 H   0  0  0  0  0  0  0  0  0  0  0  0
  1  2  2  0
  3  2  1  0
  4  3  2  0
  5  6  2  0
  5  4  1  0
  6  1  1  0
  7  5  1  0
  8  7  1  0
  9  8  2  0
 10  9  1  0
 10 12  1  0
 11 10  2  0
 12 13  1  0
 13  7  1  0
 13 14  2  0
 15 12  1  0
 15 18  1  0
 16 15  1  0
 17 15  1  0
 19  9  1  0
 20 19  1  0
 21 20  1  0
 22 23  1  0
 22 21  2  0
 23 30  2  0
 24 26  1  0
 24 23  1  0
 25 24  2  0
 26 27  1  0
 27 28  1  0
 27 29  2  0
 30 29  1  0
 30 20  1  0
  1 31  1  0
  2 32  1  0
  3 33  1  0
  8 34  1  0
 19 35  1  0
 19 36  1  0
 21 37  1  0
 26 38  1  0
 28 39  1  0
 28 40  1  0
M  ISO  8  31  14  32  14  33  14  34  14  35   8  36   8  37  14  38   9
M  END
>  <minimizedAffinity>  (1) 
-6.84202051

>  <minimizedRMSD>  (1) 
1.13942254

$$$$
