
     RDKit          3D

 47 51  0  0  0  0  0  0  0  0999 V2000
   43.0740   23.6350   35.5570 C   0  0  0  0  0  0  0  0  0  0  0  0
   42.4730   22.5770   34.8650 C   0  0  0  0  0  0  0  0  0  0  0  0
   41.3550   22.8260   34.0810 C   0  0  0  0  0  0  0  0  0  0  0  0
   40.9060   24.1160   34.0390 N   0  0  0  0  0  0  0  0  0  0  0  0
   41.5060   25.1220   34.7180 C   0  0  0  0  0  0  0  0  0  0  0  0
   42.5730   24.8830   35.4640 N   0  0  0  0  0  0  0  0  0  0  0  0
   40.6540   21.7630   33.3130 C   0  0  0  0  0  0  0  0  0  0  0  0
   41.3870   20.7820   32.6250 C   0  0  0  0  0  0  0  0  0  0  0  0
   40.0350   19.7930   31.8810 S   0  0  0  0  0  0  0  0  0  0  0  0
   38.7100   20.9020   32.6480 C   0  0  0  0  0  0  0  0  0  0  0  0
   39.3420   21.7840   33.2970 N   0  0  0  0  0  0  0  0  0  0  0  0
   37.2690   20.6360   32.4220 C   0  0  0  0  0  0  0  0  0  0  0  0
   36.8010   19.3810   32.1300 C   0  0  0  0  0  0  0  0  0  0  0  0
   35.4440   19.2290   31.9360 C   0  0  0  0  0  0  0  0  0  0  0  0
   34.5750   20.2960   32.0300 C   0  0  0  0  0  0  0  0  0  0  0  0
   35.0230   21.5650   32.3230 C   0  0  0  0  0  0  0  0  0  0  0  0
   36.3660   21.6990   32.5130 C   0  0  0  0  0  0  0  0  0  0  0  0
   40.8780   26.4760   34.5540 C   0  0  0  0  0  0  0  0  0  0  0  0
   39.5400   26.5170   35.2450 C   0  0  0  0  0  0  0  0  0  0  0  0
   38.4860   27.1430   34.4050 C   0  0  0  0  0  0  0  0  0  0  0  0
   37.3400   27.6160   34.9910 C   0  0  0  0  0  0  0  0  0  0  0  0
   36.2810   28.2250   34.3080 C   0  0  0  0  0  0  0  0  0  0  0  0
   36.4370   28.3390   32.9540 N   0  0  0  0  0  0  0  0  0  0  0  0
   37.5830   27.8670   32.3650 C   0  0  0  0  0  0  0  0  0  0  0  0
   38.5780   27.2840   33.0900 N   0  0  0  0  0  0  0  0  0  0  0  0
   37.7810   27.9740   30.9230 C   0  0  0  0  0  0  0  0  0  0  0  0
   37.1470   28.9990   30.2100 C   0  0  0  0  0  0  0  0  0  0  0  0
   37.5360   28.8250   28.8650 C   0  0  0  0  0  0  0  0  0  0  0  0
   38.3650   27.7340   28.8210 N   0  0  0  0  0  0  0  0  0  0  0  0
   38.5040   27.2370   30.0440 N   0  0  0  0  0  0  0  0  0  0  0  0
   43.9605   23.4469   36.1805 H   0  0  0  0  0  0  0  0  0  0  0  0
   42.8824   21.5589   34.9417 H   0  0  0  0  0  0  0  0  0  0  0  0
   42.4760   20.6447   32.5525 H   0  0  0  0  0  0  0  0  0  0  0  0
   37.4854   18.5233   32.0529 H   0  0  0  0  0  0  0  0  0  0  0  0
   35.0446   18.2315   31.7003 H   0  0  0  0  0  0  0  0  0  0  0  0
   33.4999   20.1297   31.8673 H   0  0  0  0  0  0  0  0  0  0  0  0
   34.3365   22.4211   32.3993 H   0  0  0  0  0  0  0  0  0  0  0  0
   36.7606   22.6979   32.7508 H   0  0  0  0  0  0  0  0  0  0  0  0
   41.5377   27.2381   34.9944 H   0  0  0  0  0  0  0  0  0  0  0  0
   40.7343   26.6771   33.4821 H   0  0  0  0  0  0  0  0  0  0  0  0
   39.2350   25.4878   35.4851 H   0  0  0  0  0  0  0  0  0  0  0  0
   39.6508   27.1276   36.1532 H   0  0  0  0  0  0  0  0  0  0  0  0
   37.2458   27.5085   36.0817 H   0  0  0  0  0  0  0  0  0  0  0  0
   35.3815   28.5884   34.8266 H   0  0  0  0  0  0  0  0  0  0  0  0
   36.4837   29.7778   30.6144 H   0  0  0  0  0  0  0  0  0  0  0  0
   37.2311   29.4482   28.0113 H   0  0  0  0  0  0  0  0  0  0  0  0
   38.8104   27.3586   27.9716 H   0  0  0  0  0  0  0  0  0  0  0  0
  2  1  2  0
  3  2  1  0
  4  3  2  0
  4  5  1  0
  5  6  2  0
  6  1  1  0
  7  3  1  0
  8  7  2  0
  9  8  1  0
  9 10  1  0
 10 11  2  0
 11  7  1  0
 12 17  1  0
 12 10  1  0
 13 12  2  0
 14 15  2  0
 14 13  1  0
 15 16  1  0
 16 17  2  0
 18  5  1  0
 18 19  1  0
 20 21  2  0
 20 19  1  0
 22 21  1  0
 23 22  2  0
 24 23  1  0
 24 25  2  0
 25 20  1  0
 26 24  1  0
 27 26  1  0
 28 27  2  0
 29 28  1  0
 29 30  1  0
 30 26  2  0
  1 31  1  0
  2 32  1  0
  8 33  1  0
 13 34  1  0
 14 35  1  0
 15 36  1  0
 16 37  1  0
 17 38  1  0
 18 39  1  0
 18 40  1  0
 19 41  1  0
 19 42  1  0
 21 43  1  0
 22 44  1  0
 27 45  1  0
 28 46  1  0
 29 47  1  0
M  ISO  8  31  14  32  14  33  14  34  14  35  14  36  14  37  14  38  14
M  ISO  8  39   8  40   8  41   8  42   8  43  14  44  14  45  14  46  14
M  ISO  1  47   9
M  END
>  <minimizedAffinity>  (1) 
-5.64871883

>  <minimizedRMSD>  (1) 
3.30611181

$$$$
