
     RDKit          3D

 39 42  0  0  0  0  0  0  0  0999 V2000
   39.9630   22.9180   37.7030 C   0  0  0  0  0  0  0  0  0  0  0  0
   39.0370   23.2400   38.7120 C   0  0  0  0  0  0  0  0  0  0  0  0
   37.6920   23.3790   38.3070 C   0  0  0  0  0  0  0  0  0  0  0  0
   37.3580   23.2020   36.9990 N   0  0  0  0  0  0  0  0  0  0  0  0
   38.2730   22.8970   36.0730 C   0  0  0  0  0  0  0  0  0  0  0  0
   39.5600   22.7600   36.4320 N   0  0  0  0  0  0  0  0  0  0  0  0
   37.9660   22.7030   34.7020 N   0  0  0  0  0  0  0  0  0  0  0  0
   38.5670   23.3820   33.6850 C   0  0  0  0  0  0  0  0  0  0  0  0
   38.1690   23.0830   32.3960 C   0  0  0  0  0  0  0  0  0  0  0  0
   37.1970   22.1260   32.1890 C   0  0  0  0  0  0  0  0  0  0  0  0
   36.8420   21.8580   31.0010 O   0  0  0  0  0  0  0  0  0  0  0  0
   36.5960   21.4510   33.1680 N   0  0  0  0  0  0  0  0  0  0  0  0
   37.0250   21.7840   34.4190 C   0  0  0  0  0  0  0  0  0  0  0  0
   36.4530   21.1420   35.3690 O   0  0  0  0  0  0  0  0  0  0  0  0
   35.5610   20.4460   32.9660 C   0  0  0  0  0  0  0  0  0  0  0  0
   36.0560   19.4350   32.1570 F   0  0  0  0  0  0  0  0  0  0  0  0
   34.4410   20.9820   32.4130 F   0  0  0  0  0  0  0  0  0  0  0  0
   35.2760   19.8890   34.2180 F   0  0  0  0  0  0  0  0  0  0  0  0
   38.7710   23.7610   31.2670 C   0  0  0  0  0  0  0  0  0  0  0  0
   39.5460   24.9180   31.5050 N   0  0  0  0  0  0  0  0  0  0  0  0
   39.0090   26.1710   31.3680 C   0  0  0  0  0  0  0  0  0  0  0  0
   39.8900   27.1620   31.6460 N   0  0  0  0  0  0  0  0  0  0  0  0
   41.0700   26.5780   31.9840 C   0  0  0  0  0  0  0  0  0  0  0  0
   42.3510   26.9210   32.3710 C   0  0  0  0  0  0  0  0  0  0  0  0
   43.2770   26.0000   32.6310 N   0  0  0  0  0  0  0  0  0  0  0  0
   43.0030   24.6710   32.5270 C   0  0  0  0  0  0  0  0  0  0  0  0
   41.7510   24.2940   32.1500 N   0  0  0  0  0  0  0  0  0  0  0  0
   40.7980   25.2290   31.8800 C   0  0  0  0  0  0  0  0  0  0  0  0
   42.5700   28.3280   32.4620 N   0  0  0  0  0  0  0  0  0  0  0  0
   41.0260   22.7946   37.9575 H   0  0  0  0  0  0  0  0  0  0  0  0
   39.3444   23.3760   39.7594 H   0  0  0  0  0  0  0  0  0  0  0  0
   36.9163   23.6295   39.0456 H   0  0  0  0  0  0  0  0  0  0  0  0
   39.3398   24.1395   33.8826 H   0  0  0  0  0  0  0  0  0  0  0  0
   37.9537   24.0522   30.5908 H   0  0  0  0  0  0  0  0  0  0  0  0
   39.4938   23.0319   30.8720 H   0  0  0  0  0  0  0  0  0  0  0  0
   37.9680   26.3539   31.0632 H   0  0  0  0  0  0  0  0  0  0  0  0
   43.7760   23.9187   32.7428 H   0  0  0  0  0  0  0  0  0  0  0  0
   43.4931   28.6884   32.7430 H   0  0  0  0  0  0  0  0  0  0  0  0
   41.8050   28.9833   32.2467 H   0  0  0  0  0  0  0  0  0  0  0  0
  1  2  2  0
  3  2  1  0
  4  3  2  0
  5  6  2  0
  5  4  1  0
  6  1  1  0
  7  5  1  0
  8  7  1  0
  9  8  2  0
 10  9  1  0
 10 12  1  0
 11 10  2  0
 12 13  1  0
 13  7  1  0
 13 14  2  0
 15 12  1  0
 15 18  1  0
 16 15  1  0
 17 15  1  0
 19 20  1  0
 19  9  1  0
 20 28  1  0
 21 20  1  0
 21 22  2  0
 22 23  1  0
 23 24  2  0
 24 29  1  0
 24 25  1  0
 26 25  2  0
 27 26  1  0
 28 23  1  0
 28 27  2  0
  1 30  1  0
  2 31  1  0
  3 32  1  0
  8 33  1  0
 19 34  1  0
 19 35  1  0
 21 36  1  0
 26 37  1  0
 29 38  1  0
 29 39  1  0
M  ISO  8  30  14  31  14  32  14  33  14  34   8  35   8  36  14  37  14
M  END
>  <minimizedAffinity>  (1) 
-5.97041702

>  <minimizedRMSD>  (1) 
1.87057626

$$$$
