
     RDKit          3D

 37 39  0  0  0  0  0  0  0  0999 V2000
   39.9400   22.9280   37.7320 C   0  0  0  0  0  0  0  0  0  0  0  0
   39.0170   23.2270   38.7340 C   0  0  0  0  0  0  0  0  0  0  0  0
   37.6880   23.3560   38.3360 C   0  0  0  0  0  0  0  0  0  0  0  0
   37.3410   23.1920   37.0280 N   0  0  0  0  0  0  0  0  0  0  0  0
   38.2710   22.9030   36.0990 C   0  0  0  0  0  0  0  0  0  0  0  0
   39.5580   22.7730   36.4480 N   0  0  0  0  0  0  0  0  0  0  0  0
   37.9670   22.7200   34.7150 N   0  0  0  0  0  0  0  0  0  0  0  0
   38.5600   23.4100   33.7110 C   0  0  0  0  0  0  0  0  0  0  0  0
   38.1600   23.1220   32.4200 C   0  0  0  0  0  0  0  0  0  0  0  0
   37.1960   22.1700   32.2020 C   0  0  0  0  0  0  0  0  0  0  0  0
   36.8370   21.9140   31.0170 O   0  0  0  0  0  0  0  0  0  0  0  0
   36.6000   21.4810   33.1730 N   0  0  0  0  0  0  0  0  0  0  0  0
   37.0190   21.7920   34.4270 C   0  0  0  0  0  0  0  0  0  0  0  0
   36.4550   21.1380   35.3660 O   0  0  0  0  0  0  0  0  0  0  0  0
   35.5740   20.4660   32.9600 C   0  0  0  0  0  0  0  0  0  0  0  0
   36.0860   19.4610   32.1460 F   0  0  0  0  0  0  0  0  0  0  0  0
   34.4440   20.9960   32.4050 F   0  0  0  0  0  0  0  0  0  0  0  0
   35.2780   19.9000   34.2120 F   0  0  0  0  0  0  0  0  0  0  0  0
   38.7620   23.8310   31.2980 C   0  0  0  0  0  0  0  0  0  0  0  0
   39.5490   24.9790   31.6860 N   0  0  0  0  0  0  0  0  0  0  0  0
   40.8750   24.7680   31.9080 C   0  0  0  0  0  0  0  0  0  0  0  0
   41.7690   25.7490   32.2830 C   0  0  0  0  0  0  0  0  0  0  0  0
   41.2810   27.0320   32.4430 C   0  0  0  0  0  0  0  0  0  0  0  0
   42.1880   28.0530   32.8300 N   0  0  0  0  0  0  0  0  0  0  0  0
   39.9720   27.2230   32.2200 N   0  0  0  0  0  0  0  0  0  0  0  0
   39.1250   26.2470   31.8560 C   0  0  0  0  0  0  0  0  0  0  0  0
   37.9010   26.4330   31.6490 O   0  0  0  0  0  0  0  0  0  0  0  0
   41.0023   22.8162   37.9947 H   0  0  0  0  0  0  0  0  0  0  0  0
   39.3222   23.3543   39.7831 H   0  0  0  0  0  0  0  0  0  0  0  0
   36.9143   23.5915   39.0816 H   0  0  0  0  0  0  0  0  0  0  0  0
   39.3293   24.1693   33.9154 H   0  0  0  0  0  0  0  0  0  0  0  0
   37.9563   24.1725   30.6315 H   0  0  0  0  0  0  0  0  0  0  0  0
   39.4471   23.1257   30.8048 H   0  0  0  0  0  0  0  0  0  0  0  0
   41.2599   23.7456   31.7796 H   0  0  0  0  0  0  0  0  0  0  0  0
   42.8318   25.5186   32.4487 H   0  0  0  0  0  0  0  0  0  0  0  0
   41.8528   29.0186   32.9569 H   0  0  0  0  0  0  0  0  0  0  0  0
   43.1813   27.8282   32.9840 H   0  0  0  0  0  0  0  0  0  0  0  0
  1  2  2  0
  3  2  1  0
  4  3  2  0
  5  6  2  0
  5  4  1  0
  6  1  1  0
  7  5  1  0
  8  7  1  0
  9  8  2  0
 10  9  1  0
 10 12  1  0
 11 10  2  0
 12 13  1  0
 13  7  1  0
 13 14  2  0
 15 12  1  0
 15 18  1  0
 16 15  1  0
 17 15  1  0
 19 20  1  0
 19  9  1  0
 20 26  1  0
 20 21  1  0
 21 22  2  0
 22 23  1  0
 23 24  1  0
 25 23  2  0
 26 25  1  0
 27 26  2  0
  1 28  1  0
  2 29  1  0
  3 30  1  0
  8 31  1  0
 19 32  1  0
 19 33  1  0
 21 34  1  0
 22 35  1  0
 24 36  1  0
 24 37  1  0
M  ISO  8  28  14  29  14  30  14  31  14  32   8  33   8  34  14  35  14
M  END
>  <minimizedAffinity>  (1) 
-5.95261097

>  <minimizedRMSD>  (1) 
0.944446385

$$$$
