
     RDKit          3D

 33 35  0  0  0  0  0  0  0  0999 V2000
   39.9760   23.0560   37.6010 C   0  0  0  0  0  0  0  0  0  0  0  0
   39.0970   23.2170   38.6690 C   0  0  0  0  0  0  0  0  0  0  0  0
   37.7320   23.2500   38.3640 C   0  0  0  0  0  0  0  0  0  0  0  0
   37.3270   23.1270   37.0690 N   0  0  0  0  0  0  0  0  0  0  0  0
   38.2270   22.9720   36.0640 C   0  0  0  0  0  0  0  0  0  0  0  0
   39.5280   22.9370   36.3340 N   0  0  0  0  0  0  0  0  0  0  0  0
   37.8370   22.8410   34.7000 N   0  0  0  0  0  0  0  0  0  0  0  0
   38.3110   23.6550   33.7120 C   0  0  0  0  0  0  0  0  0  0  0  0
   37.8540   23.4220   32.4190 C   0  0  0  0  0  0  0  0  0  0  0  0
   36.9640   22.4030   32.2050 C   0  0  0  0  0  0  0  0  0  0  0  0
   36.5430   22.1860   31.0330 O   0  0  0  0  0  0  0  0  0  0  0  0
   36.4800   21.5870   33.1540 N   0  0  0  0  0  0  0  0  0  0  0  0
   36.9610   21.8600   34.3970 C   0  0  0  0  0  0  0  0  0  0  0  0
   36.5220   21.1030   35.3190 O   0  0  0  0  0  0  0  0  0  0  0  0
   35.5440   20.5120   32.9290 C   0  0  0  0  0  0  0  0  0  0  0  0
   36.1490   19.5400   32.1250 F   0  0  0  0  0  0  0  0  0  0  0  0
   34.3930   20.9450   32.3620 F   0  0  0  0  0  0  0  0  0  0  0  0
   35.2820   19.9260   34.1780 F   0  0  0  0  0  0  0  0  0  0  0  0
   38.3210   24.2480   31.3270 C   0  0  0  0  0  0  0  0  0  0  0  0
   37.8240   25.6610   31.5120 C   0  0  0  0  0  0  0  0  0  0  0  0
   38.3870   26.9090   31.8560 C   0  0  0  0  0  0  0  0  0  0  0  0
   37.4980   27.9240   31.9080 C   0  0  0  0  0  0  0  0  0  0  0  0
   36.1570   27.7390   31.6440 C   0  0  0  0  0  0  0  0  0  0  0  0
   36.0200   25.9900   31.2730 S   0  0  0  0  0  0  0  0  0  0  0  0
   41.0584   23.0252   37.7945 H   0  0  0  0  0  0  0  0  0  0  0  0
   39.4587   23.3136   39.7033 H   0  0  0  0  0  0  0  0  0  0  0  0
   36.9894   23.3746   39.1659 H   0  0  0  0  0  0  0  0  0  0  0  0
   39.0255   24.4626   33.9295 H   0  0  0  0  0  0  0  0  0  0  0  0
   37.9397   23.8475   30.3761 H   0  0  0  0  0  0  0  0  0  0  0  0
   39.4209   24.2467   31.3127 H   0  0  0  0  0  0  0  0  0  0  0  0
   39.4588   27.0432   32.0640 H   0  0  0  0  0  0  0  0  0  0  0  0
   37.8549   28.9311   32.1694 H   0  0  0  0  0  0  0  0  0  0  0  0
   35.3552   28.4919   31.6579 H   0  0  0  0  0  0  0  0  0  0  0  0
  1  2  2  0
  3  2  1  0
  4  3  2  0
  5  6  2  0
  5  4  1  0
  6  1  1  0
  7  5  1  0
  8  7  1  0
  9  8  2  0
 10  9  1  0
 10 12  1  0
 11 10  2  0
 12 13  1  0
 13  7  1  0
 13 14  2  0
 15 12  1  0
 15 18  1  0
 16 15  1  0
 17 15  1  0
 19 20  1  0
 19  9  1  0
 20 21  2  0
 21 22  1  0
 23 22  2  0
 24 20  1  0
 24 23  1  0
  1 25  1  0
  2 26  1  0
  3 27  1  0
  8 28  1  0
 19 29  1  0
 19 30  1  0
 21 31  1  0
 22 32  1  0
 23 33  1  0
M  ISO  8  25  14  26  14  27  14  28  14  29   8  30   8  31  14  32  14
M  ISO  1  33  14
M  END
>  <minimizedAffinity>  (1) 
-5.8009758

>  <minimizedRMSD>  (1) 
1.18139386

$$$$
