
     RDKit          3D

 33 35  0  0  0  0  0  0  0  0999 V2000
   39.9270   23.0690   37.4650 C   0  0  0  0  0  0  0  0  0  0  0  0
   39.0500   23.2770   38.5290 C   0  0  0  0  0  0  0  0  0  0  0  0
   37.6850   23.2800   38.2190 C   0  0  0  0  0  0  0  0  0  0  0  0
   37.2610   23.0870   36.9380 N   0  0  0  0  0  0  0  0  0  0  0  0
   38.1620   22.8900   35.9510 C   0  0  0  0  0  0  0  0  0  0  0  0
   39.4740   22.8800   36.2080 N   0  0  0  0  0  0  0  0  0  0  0  0
   37.7900   22.6800   34.5870 N   0  0  0  0  0  0  0  0  0  0  0  0
   38.2520   23.4150   33.5530 C   0  0  0  0  0  0  0  0  0  0  0  0
   37.8060   23.1000   32.2820 C   0  0  0  0  0  0  0  0  0  0  0  0
   36.9210   22.0670   32.1170 C   0  0  0  0  0  0  0  0  0  0  0  0
   36.5130   21.7780   30.9570 O   0  0  0  0  0  0  0  0  0  0  0  0
   36.4400   21.3150   33.1190 N   0  0  0  0  0  0  0  0  0  0  0  0
   36.9120   21.6660   34.3520 C   0  0  0  0  0  0  0  0  0  0  0  0
   36.4750   20.9740   35.3160 O   0  0  0  0  0  0  0  0  0  0  0  0
   35.5070   20.2190   32.9730 C   0  0  0  0  0  0  0  0  0  0  0  0
   36.1000   19.2370   32.1570 F   0  0  0  0  0  0  0  0  0  0  0  0
   34.3330   20.6160   32.4240 F   0  0  0  0  0  0  0  0  0  0  0  0
   35.3180   19.6540   34.2320 F   0  0  0  0  0  0  0  0  0  0  0  0
   38.2750   23.8560   31.1300 C   0  0  0  0  0  0  0  0  0  0  0  0
   37.5890   25.1400   30.9620 C   0  0  0  0  0  0  0  0  0  0  0  0
   36.2150   25.2750   31.1960 C   0  0  0  0  0  0  0  0  0  0  0  0
   35.9430   26.6030   30.9380 C   0  0  0  0  0  0  0  0  0  0  0  0
   37.0750   27.2320   30.5720 N   0  0  0  0  0  0  0  0  0  0  0  0
   38.0610   26.3210   30.5960 N   0  0  0  0  0  0  0  0  0  0  0  0
   41.0106   23.0588   37.6542 H   0  0  0  0  0  0  0  0  0  0  0  0
   39.4114   23.4304   39.5565 H   0  0  0  0  0  0  0  0  0  0  0  0
   36.9462   23.4399   39.0181 H   0  0  0  0  0  0  0  0  0  0  0  0
   38.9617   24.2394   33.7163 H   0  0  0  0  0  0  0  0  0  0  0  0
   39.3511   24.0483   31.2530 H   0  0  0  0  0  0  0  0  0  0  0  0
   38.0618   23.2528   30.2352 H   0  0  0  0  0  0  0  0  0  0  0  0
   35.5084   24.4946   31.5151 H   0  0  0  0  0  0  0  0  0  0  0  0
   34.9528   27.0751   31.0191 H   0  0  0  0  0  0  0  0  0  0  0  0
   37.1677   28.2265   30.3205 H   0  0  0  0  0  0  0  0  0  0  0  0
  1  2  2  0
  3  2  1  0
  4  3  2  0
  5  6  2  0
  5  4  1  0
  6  1  1  0
  7  5  1  0
  8  7  1  0
  9  8  2  0
 10  9  1  0
 10 12  1  0
 11 10  2  0
 12 13  1  0
 13  7  1  0
 13 14  2  0
 15 12  1  0
 15 18  1  0
 16 15  1  0
 17 15  1  0
 19  9  1  0
 20 19  1  0
 20 21  1  0
 22 21  2  0
 23 24  1  0
 23 22  1  0
 24 20  2  0
  1 25  1  0
  2 26  1  0
  3 27  1  0
  8 28  1  0
 19 29  1  0
 19 30  1  0
 21 31  1  0
 22 32  1  0
 23 33  1  0
M  ISO  8  25  14  26  14  27  14  28  14  29   8  30   8  31  14  32  14
M  ISO  1  33   9
M  END
>  <minimizedAffinity>  (1) 
-5.78715706

>  <minimizedRMSD>  (1) 
0.865777135

$$$$
