
     RDKit          3D

 33 35  0  0  0  0  0  0  0  0999 V2000
   39.9780   22.9990   37.5730 C   0  0  0  0  0  0  0  0  0  0  0  0
   39.0850   23.2380   38.6170 C   0  0  0  0  0  0  0  0  0  0  0  0
   37.7320   23.3120   38.2820 C   0  0  0  0  0  0  0  0  0  0  0  0
   37.3340   23.1560   36.9840 N   0  0  0  0  0  0  0  0  0  0  0  0
   38.2310   22.9290   36.0160 C   0  0  0  0  0  0  0  0  0  0  0  0
   39.5410   22.8510   36.3050 N   0  0  0  0  0  0  0  0  0  0  0  0
   37.8810   22.7560   34.6410 N   0  0  0  0  0  0  0  0  0  0  0  0
   38.4100   23.4930   33.6240 C   0  0  0  0  0  0  0  0  0  0  0  0
   37.9730   23.2090   32.3440 C   0  0  0  0  0  0  0  0  0  0  0  0
   37.0440   22.2190   32.1480 C   0  0  0  0  0  0  0  0  0  0  0  0
   36.6520   21.9690   30.9720 O   0  0  0  0  0  0  0  0  0  0  0  0
   36.5150   21.4890   33.1170 N   0  0  0  0  0  0  0  0  0  0  0  0
   36.9670   21.7940   34.3640 C   0  0  0  0  0  0  0  0  0  0  0  0
   36.4710   21.1020   35.3200 O   0  0  0  0  0  0  0  0  0  0  0  0
   35.5290   20.4330   32.9380 C   0  0  0  0  0  0  0  0  0  0  0  0
   36.0650   19.4550   32.0950 F   0  0  0  0  0  0  0  0  0  0  0  0
   34.3750   20.9100   32.3890 F   0  0  0  0  0  0  0  0  0  0  0  0
   35.2820   19.8650   34.1850 F   0  0  0  0  0  0  0  0  0  0  0  0
   38.5100   23.9650   31.2190 C   0  0  0  0  0  0  0  0  0  0  0  0
   37.7840   25.2680   31.0990 C   0  0  0  0  0  0  0  0  0  0  0  0
   38.4740   26.4600   31.3280 C   0  0  0  0  0  0  0  0  0  0  0  0
   37.6350   27.5090   31.1690 N   0  0  0  0  0  0  0  0  0  0  0  0
   36.4230   26.9710   30.8410 C   0  0  0  0  0  0  0  0  0  0  0  0
   36.5210   25.6150   30.8010 N   0  0  0  0  0  0  0  0  0  0  0  0
   41.0549   22.9301   37.7864 H   0  0  0  0  0  0  0  0  0  0  0  0
   39.4300   23.3622   39.6541 H   0  0  0  0  0  0  0  0  0  0  0  0
   36.9829   23.4967   39.0661 H   0  0  0  0  0  0  0  0  0  0  0  0
   39.1537   24.2809   33.8140 H   0  0  0  0  0  0  0  0  0  0  0  0
   39.5807   24.1561   31.3838 H   0  0  0  0  0  0  0  0  0  0  0  0
   38.3781   23.3861   30.2930 H   0  0  0  0  0  0  0  0  0  0  0  0
   39.5380   26.5347   31.5968 H   0  0  0  0  0  0  0  0  0  0  0  0
   35.5074   27.5466   30.6399 H   0  0  0  0  0  0  0  0  0  0  0  0
   35.7549   24.9632   30.5793 H   0  0  0  0  0  0  0  0  0  0  0  0
  1  2  2  0
  3  2  1  0
  4  3  2  0
  5  6  2  0
  5  4  1  0
  6  1  1  0
  7  5  1  0
  8  7  1  0
  9  8  2  0
 10  9  1  0
 10 12  1  0
 11 10  2  0
 12 13  1  0
 13  7  1  0
 13 14  2  0
 15 12  1  0
 15 18  1  0
 16 15  1  0
 17 15  1  0
 19  9  1  0
 20 19  1  0
 20 21  2  0
 22 21  1  0
 23 22  2  0
 24 23  1  0
 24 20  1  0
  1 25  1  0
  2 26  1  0
  3 27  1  0
  8 28  1  0
 19 29  1  0
 19 30  1  0
 21 31  1  0
 23 32  1  0
 24 33  1  0
M  ISO  8  25  14  26  14  27  14  28  14  29   8  30   8  31  14  32  14
M  ISO  1  33   9
M  END
>  <minimizedAffinity>  (1) 
-5.77625132

>  <minimizedRMSD>  (1) 
2.98673129

$$$$
