
     RDKit          3D

 40 42  0  0  0  0  0  0  0  0999 V2000
   39.9390   22.8610   37.7980 C   0  0  0  0  0  0  0  0  0  0  0  0
   38.9900   23.3500   38.7060 C   0  0  0  0  0  0  0  0  0  0  0  0
   37.6880   23.5490   38.2210 C   0  0  0  0  0  0  0  0  0  0  0  0
   37.4140   23.2630   36.9190 N   0  0  0  0  0  0  0  0  0  0  0  0
   38.3520   22.7960   36.0830 C   0  0  0  0  0  0  0  0  0  0  0  0
   39.5960   22.6020   36.5300 N   0  0  0  0  0  0  0  0  0  0  0  0
   38.1180   22.4810   34.7130 N   0  0  0  0  0  0  0  0  0  0  0  0
   38.8330   22.9740   33.6830 C   0  0  0  0  0  0  0  0  0  0  0  0
   38.4860   22.5710   32.4050 C   0  0  0  0  0  0  0  0  0  0  0  0
   37.4410   21.6980   32.2300 C   0  0  0  0  0  0  0  0  0  0  0  0
   37.1270   21.3320   31.0590 O   0  0  0  0  0  0  0  0  0  0  0  0
   36.7220   21.1990   33.2320 N   0  0  0  0  0  0  0  0  0  0  0  0
   37.0940   21.6160   34.4700 C   0  0  0  0  0  0  0  0  0  0  0  0
   36.4090   21.1420   35.4340 O   0  0  0  0  0  0  0  0  0  0  0  0
   35.6140   20.2740   33.0670 C   0  0  0  0  0  0  0  0  0  0  0  0
   36.0340   19.1860   32.2850 F   0  0  0  0  0  0  0  0  0  0  0  0
   34.5280   20.8590   32.5050 F   0  0  0  0  0  0  0  0  0  0  0  0
   35.2960   19.7650   34.3320 F   0  0  0  0  0  0  0  0  0  0  0  0
   39.2270   23.0760   31.2570 C   0  0  0  0  0  0  0  0  0  0  0  0
   38.4540   23.7740   30.2700 N   0  0  0  0  0  0  0  0  0  0  0  0
   39.1310   23.8860   29.0210 C   0  0  0  0  0  0  0  0  0  0  0  0
   39.7740   25.1810   28.7040 C   0  0  0  0  0  0  0  0  0  0  0  0
   39.2030   26.3370   29.3290 N   0  0  0  0  0  0  0  0  0  0  0  0
   38.9490   26.0640   30.7280 C   0  0  0  0  0  0  0  0  0  0  0  0
   37.8590   24.9920   30.7420 C   0  0  0  0  0  0  0  0  0  0  0  0
   40.9736   22.6887   38.1296 H   0  0  0  0  0  0  0  0  0  0  0  0
   39.2536   23.5680   39.7515 H   0  0  0  0  0  0  0  0  0  0  0  0
   36.8988   23.9314   38.8851 H   0  0  0  0  0  0  0  0  0  0  0  0
   39.6649   23.6735   33.8520 H   0  0  0  0  0  0  0  0  0  0  0  0
   39.9984   23.7656   31.6305 H   0  0  0  0  0  0  0  0  0  0  0  0
   39.6282   22.1876   30.7473 H   0  0  0  0  0  0  0  0  0  0  0  0
   39.9158   23.1154   29.0017 H   0  0  0  0  0  0  0  0  0  0  0  0
   38.3410   23.7735   28.2639 H   0  0  0  0  0  0  0  0  0  0  0  0
   40.8278   25.1177   29.0129 H   0  0  0  0  0  0  0  0  0  0  0  0
   39.6288   25.3268   27.6234 H   0  0  0  0  0  0  0  0  0  0  0  0
   39.8581   27.1277   29.2485 H   0  0  0  0  0  0  0  0  0  0  0  0
   39.8604   25.6923   31.2191 H   0  0  0  0  0  0  0  0  0  0  0  0
   38.6393   26.9689   31.2713 H   0  0  0  0  0  0  0  0  0  0  0  0
   37.0312   25.2878   30.0807 H   0  0  0  0  0  0  0  0  0  0  0  0
   37.4541   24.8607   31.7563 H   0  0  0  0  0  0  0  0  0  0  0  0
  1  2  2  0
  3  2  1  0
  4  3  2  0
  5  6  2  0
  5  4  1  0
  6  1  1  0
  7  5  1  0
  8  7  1  0
  9  8  2  0
 10  9  1  0
 10 12  1  0
 11 10  2  0
 12 13  1  0
 13  7  1  0
 13 14  2  0
 15 12  1  0
 15 18  1  0
 16 15  1  0
 17 15  1  0
 19  9  1  0
 20 25  1  0
 20 19  1  0
 21 20  1  0
 22 21  1  0
 22 23  1  0
 23 24  1  0
 24 25  1  0
  1 26  1  0
  2 27  1  0
  3 28  1  0
  8 29  1  0
 19 30  1  0
 19 31  1  0
 21 32  1  0
 21 33  1  0
 22 34  1  0
 22 35  1  0
 23 36  1  0
 24 37  1  0
 24 38  1  0
 25 39  1  0
 25 40  1  0
M  ISO  8  26  14  27  14  28  14  29  14  30   8  31   8  32  13  33  13
M  ISO  7  34  13  35  13  36   5  37  13  38  13  39  13  40  13
M  END
>  <minimizedAffinity>  (1) 
-5.75551605

>  <minimizedRMSD>  (1) 
1.53277731

$$$$
