
     RDKit          3D

 33 35  0  0  0  0  0  0  0  0999 V2000
   39.9550   23.0520   37.4620 C   0  0  0  0  0  0  0  0  0  0  0  0
   39.0680   23.2600   38.5380 C   0  0  0  0  0  0  0  0  0  0  0  0
   37.7020   23.2720   38.2420 C   0  0  0  0  0  0  0  0  0  0  0  0
   37.2860   23.0870   36.9600 N   0  0  0  0  0  0  0  0  0  0  0  0
   38.1820   22.8880   35.9560 C   0  0  0  0  0  0  0  0  0  0  0  0
   39.4800   22.8740   36.2140 N   0  0  0  0  0  0  0  0  0  0  0  0
   37.7880   22.6880   34.5900 N   0  0  0  0  0  0  0  0  0  0  0  0
   38.2480   23.4490   33.5650 C   0  0  0  0  0  0  0  0  0  0  0  0
   37.7870   23.1470   32.3020 C   0  0  0  0  0  0  0  0  0  0  0  0
   36.9030   22.1130   32.1350 C   0  0  0  0  0  0  0  0  0  0  0  0
   36.4830   21.8400   30.9670 O   0  0  0  0  0  0  0  0  0  0  0  0
   36.4380   21.3520   33.1220 N   0  0  0  0  0  0  0  0  0  0  0  0
   36.9140   21.6810   34.3530 C   0  0  0  0  0  0  0  0  0  0  0  0
   36.4900   20.9770   35.3130 O   0  0  0  0  0  0  0  0  0  0  0  0
   35.5070   20.2580   32.9700 C   0  0  0  0  0  0  0  0  0  0  0  0
   36.0960   19.2790   32.1450 F   0  0  0  0  0  0  0  0  0  0  0  0
   34.3250   20.6580   32.4210 F   0  0  0  0  0  0  0  0  0  0  0  0
   35.3000   19.6920   34.2260 F   0  0  0  0  0  0  0  0  0  0  0  0
   38.2430   23.9400   31.1620 C   0  0  0  0  0  0  0  0  0  0  0  0
   37.4670   25.1630   31.1030 N   0  0  0  0  0  0  0  0  0  0  0  0
   36.1690   25.4890   31.1900 C   0  0  0  0  0  0  0  0  0  0  0  0
   35.9700   26.8480   31.0690 C   0  0  0  0  0  0  0  0  0  0  0  0
   37.2300   27.3420   30.9000 N   0  0  0  0  0  0  0  0  0  0  0  0
   38.1200   26.3450   30.9200 C   0  0  0  0  0  0  0  0  0  0  0  0
   41.0400   23.0350   37.6424 H   0  0  0  0  0  0  0  0  0  0  0  0
   39.4346   23.4063   39.5647 H   0  0  0  0  0  0  0  0  0  0  0  0
   36.9654   23.4306   39.0434 H   0  0  0  0  0  0  0  0  0  0  0  0
   38.9583   24.2715   33.7350 H   0  0  0  0  0  0  0  0  0  0  0  0
   39.3087   24.1839   31.2840 H   0  0  0  0  0  0  0  0  0  0  0  0
   38.1101   23.3680   30.2319 H   0  0  0  0  0  0  0  0  0  0  0  0
   35.3597   24.7593   31.3400 H   0  0  0  0  0  0  0  0  0  0  0  0
   35.0204   27.4022   31.1011 H   0  0  0  0  0  0  0  0  0  0  0  0
   39.2080   26.4604   30.8066 H   0  0  0  0  0  0  0  0  0  0  0  0
  1  2  2  0
  3  2  1  0
  4  3  2  0
  5  6  2  0
  5  4  1  0
  6  1  1  0
  7  5  1  0
  8  7  1  0
  9  8  2  0
 10  9  1  0
 10 12  1  0
 11 10  2  0
 12 13  1  0
 13  7  1  0
 13 14  2  0
 15 12  1  0
 15 18  1  0
 16 15  1  0
 17 15  1  0
 19  9  1  0
 20 19  1  0
 20 21  1  0
 22 21  2  0
 23 24  2  0
 23 22  1  0
 24 20  1  0
  1 25  1  0
  2 26  1  0
  3 27  1  0
  8 28  1  0
 19 29  1  0
 19 30  1  0
 21 31  1  0
 22 32  1  0
 24 33  1  0
M  ISO  8  25  14  26  14  27  14  28  14  29   8  30   8  31  14  32  14
M  ISO  1  33  14
M  END
>  <minimizedAffinity>  (1) 
-5.66551304

>  <minimizedRMSD>  (1) 
0.879725814

$$$$
