
     RDKit          3D

 35 37  0  0  0  0  0  0  0  0999 V2000
   39.9800   22.9230   37.6820 C   0  0  0  0  0  0  0  0  0  0  0  0
   39.0450   23.2530   38.6850 C   0  0  0  0  0  0  0  0  0  0  0  0
   37.7100   23.3840   38.2990 C   0  0  0  0  0  0  0  0  0  0  0  0
   37.3630   23.1930   36.9920 N   0  0  0  0  0  0  0  0  0  0  0  0
   38.3000   22.8750   36.0600 C   0  0  0  0  0  0  0  0  0  0  0  0
   39.5690   22.7480   36.4180 N   0  0  0  0  0  0  0  0  0  0  0  0
   37.9780   22.6700   34.6940 N   0  0  0  0  0  0  0  0  0  0  0  0
   38.5740   23.3330   33.6700 C   0  0  0  0  0  0  0  0  0  0  0  0
   38.1730   23.0470   32.3860 C   0  0  0  0  0  0  0  0  0  0  0  0
   37.1870   22.1070   32.1890 C   0  0  0  0  0  0  0  0  0  0  0  0
   36.8080   21.8340   31.0070 O   0  0  0  0  0  0  0  0  0  0  0  0
   36.5760   21.4340   33.1690 N   0  0  0  0  0  0  0  0  0  0  0  0
   37.0120   21.7560   34.4200 C   0  0  0  0  0  0  0  0  0  0  0  0
   36.4510   21.1350   35.3650 O   0  0  0  0  0  0  0  0  0  0  0  0
   35.5390   20.4440   32.9760 C   0  0  0  0  0  0  0  0  0  0  0  0
   36.0300   19.4150   32.1730 F   0  0  0  0  0  0  0  0  0  0  0  0
   34.4160   20.9720   32.4200 F   0  0  0  0  0  0  0  0  0  0  0  0
   35.2590   19.8840   34.2350 F   0  0  0  0  0  0  0  0  0  0  0  0
   38.7740   23.7250   31.2490 C   0  0  0  0  0  0  0  0  0  0  0  0
   39.7940   22.8940   30.5810 C   0  0  0  0  0  0  0  0  0  0  0  0
   39.7400   22.5680   29.2560 C   0  0  0  0  0  0  0  0  0  0  0  0
   40.7210   21.7830   28.6760 C   0  0  0  0  0  0  0  0  0  0  0  0
   41.7670   21.3250   29.4540 C   0  0  0  0  0  0  0  0  0  0  0  0
   41.8140   21.6600   30.8010 C   0  0  0  0  0  0  0  0  0  0  0  0
   40.8370   22.4240   31.3110 N   0  0  0  0  0  0  0  0  0  0  0  0
   41.0442   22.8095   37.9363 H   0  0  0  0  0  0  0  0  0  0  0  0
   39.3554   23.4012   39.7298 H   0  0  0  0  0  0  0  0  0  0  0  0
   36.9416   23.6397   39.0435 H   0  0  0  0  0  0  0  0  0  0  0  0
   39.3580   24.0802   33.8626 H   0  0  0  0  0  0  0  0  0  0  0  0
   37.9840   23.9680   30.5232 H   0  0  0  0  0  0  0  0  0  0  0  0
   39.2691   24.6343   31.6206 H   0  0  0  0  0  0  0  0  0  0  0  0
   38.9049   22.9346   28.6410 H   0  0  0  0  0  0  0  0  0  0  0  0
   40.6687   21.5265   27.6076 H   0  0  0  0  0  0  0  0  0  0  0  0
   42.5560   20.7002   29.0101 H   0  0  0  0  0  0  0  0  0  0  0  0
   42.6376   21.3051   31.4379 H   0  0  0  0  0  0  0  0  0  0  0  0
  1  2  2  0
  3  2  1  0
  4  3  2  0
  5  6  2  0
  5  4  1  0
  6  1  1  0
  7  5  1  0
  8  7  1  0
  9  8  2  0
 10  9  1  0
 10 12  1  0
 11 10  2  0
 12 13  1  0
 13  7  1  0
 13 14  2  0
 15 12  1  0
 15 18  1  0
 16 15  1  0
 17 15  1  0
 19  9  1  0
 20 19  1  0
 20 25  1  0
 21 20  2  0
 22 21  1  0
 22 23  2  0
 23 24  1  0
 24 25  2  0
  1 26  1  0
  2 27  1  0
  3 28  1  0
  8 29  1  0
 19 30  1  0
 19 31  1  0
 21 32  1  0
 22 33  1  0
 23 34  1  0
 24 35  1  0
M  ISO  8  26  14  27  14  28  14  29  14  30   8  31   8  32  14  33  14
M  ISO  2  34  14  35  14
M  END
>  <minimizedAffinity>  (1) 
-5.09128952

>  <minimizedRMSD>  (1) 
0.571181953

$$$$
