
     RDKit          3D

 28 29  0  0  0  0  0  0  0  0999 V2000
   40.0440   22.7980   37.7420 C   0  0  0  0  0  0  0  0  0  0  0  0
   39.1160   23.2780   38.6780 C   0  0  0  0  0  0  0  0  0  0  0  0
   37.8230   23.5180   38.2110 C   0  0  0  0  0  0  0  0  0  0  0  0
   37.5000   23.2890   36.9070 N   0  0  0  0  0  0  0  0  0  0  0  0
   38.4260   22.8270   36.0430 C   0  0  0  0  0  0  0  0  0  0  0  0
   39.6630   22.5930   36.4700 N   0  0  0  0  0  0  0  0  0  0  0  0
   38.1550   22.5680   34.6670 N   0  0  0  0  0  0  0  0  0  0  0  0
   38.8470   23.1060   33.6460 C   0  0  0  0  0  0  0  0  0  0  0  0
   38.4750   22.7680   32.3640 C   0  0  0  0  0  0  0  0  0  0  0  0
   37.4220   21.9020   32.1780 C   0  0  0  0  0  0  0  0  0  0  0  0
   37.0790   21.5890   30.9960 O   0  0  0  0  0  0  0  0  0  0  0  0
   36.7170   21.3520   33.1590 N   0  0  0  0  0  0  0  0  0  0  0  0
   37.1240   21.7190   34.4080 C   0  0  0  0  0  0  0  0  0  0  0  0
   36.4640   21.2080   35.3800 O   0  0  0  0  0  0  0  0  0  0  0  0
   35.6080   20.4400   32.9880 C   0  0  0  0  0  0  0  0  0  0  0  0
   36.0060   19.3860   32.1730 F   0  0  0  0  0  0  0  0  0  0  0  0
   34.5300   21.0580   32.4270 F   0  0  0  0  0  0  0  0  0  0  0  0
   35.2720   19.9260   34.2370 F   0  0  0  0  0  0  0  0  0  0  0  0
   39.1850   23.3290   31.2240 C   0  0  0  0  0  0  0  0  0  0  0  0
   39.9590   22.3210   30.5230 N   0  0  0  0  0  0  0  0  0  0  0  0
   41.0799   22.5902   38.0483 H   0  0  0  0  0  0  0  0  0  0  0  0
   39.3935   23.4563   39.7274 H   0  0  0  0  0  0  0  0  0  0  0  0
   37.0561   23.8962   38.9030 H   0  0  0  0  0  0  0  0  0  0  0  0
   39.6845   23.7950   33.8299 H   0  0  0  0  0  0  0  0  0  0  0  0
   38.4532   23.7643   30.5276 H   0  0  0  0  0  0  0  0  0  0  0  0
   39.8797   24.0959   31.5970 H   0  0  0  0  0  0  0  0  0  0  0  0
   40.4277   21.7105   31.2075 H   0  0  0  0  0  0  0  0  0  0  0  0
   39.3322   21.7564   29.9320 H   0  0  0  0  0  0  0  0  0  0  0  0
  1  2  2  0
  3  2  1  0
  4  3  2  0
  5  6  2  0
  5  4  1  0
  6  1  1  0
  7  5  1  0
  8  7  1  0
  9  8  2  0
 10  9  1  0
 10 12  1  0
 11 10  2  0
 12 13  1  0
 13  7  1  0
 13 14  2  0
 15 12  1  0
 15 18  1  0
 16 15  1  0
 17 15  1  0
 19  9  1  0
 20 19  1  0
  1 21  1  0
  2 22  1  0
  3 23  1  0
  8 24  1  0
 19 25  1  0
 19 26  1  0
 20 27  1  0
 20 28  1  0
M  ISO  8  21  14  22  14  23  14  24  14  25   8  26   8  27   5  28   5
M  END
>  <minimizedAffinity>  (1) 
-5.05405474

>  <minimizedRMSD>  (1) 
0.0446726754

$$$$
