
     RDKit          3D

 43 46  0  0  0  0  0  0  0  0999 V2000
   41.6000   25.2290   33.9220 C   0  0  0  0  0  0  0  0  0  0  0  0
   41.4810   22.7470   36.7160 C   0  0  0  0  0  0  0  0  0  0  0  0
   40.2410   22.1480   36.4780 C   0  0  0  0  0  0  0  0  0  0  0  0
   39.4790   22.5810   35.4010 C   0  0  0  0  0  0  0  0  0  0  0  0
   39.9880   23.5780   34.6260 N   0  0  0  0  0  0  0  0  0  0  0  0
   41.1990   24.1520   34.8710 C   0  0  0  0  0  0  0  0  0  0  0  0
   41.9250   23.7410   35.8960 N   0  0  0  0  0  0  0  0  0  0  0  0
   38.1460   21.9990   35.0730 C   0  0  0  0  0  0  0  0  0  0  0  0
   37.8040   21.6870   33.7470 C   0  0  0  0  0  0  0  0  0  0  0  0
   36.1090   21.0350   33.9800 S   0  0  0  0  0  0  0  0  0  0  0  0
   36.1600   21.3000   35.8410 C   0  0  0  0  0  0  0  0  0  0  0  0
   37.3050   21.7890   36.0560 N   0  0  0  0  0  0  0  0  0  0  0  0
   35.0020   20.9440   36.6780 C   0  0  0  0  0  0  0  0  0  0  0  0
   35.4530   20.8000   38.1100 C   0  0  0  0  0  0  0  0  0  0  0  0
   41.2920   26.5860   34.5200 C   0  0  0  0  0  0  0  0  0  0  0  0
   39.8580   26.9470   34.3850 C   0  0  0  0  0  0  0  0  0  0  0  0
   39.0900   27.1520   35.5090 C   0  0  0  0  0  0  0  0  0  0  0  0
   37.7390   27.4940   35.4970 C   0  0  0  0  0  0  0  0  0  0  0  0
   37.1560   27.6290   34.2620 N   0  0  0  0  0  0  0  0  0  0  0  0
   37.9130   27.4270   33.1510 C   0  0  0  0  0  0  0  0  0  0  0  0
   39.2400   27.0920   33.2180 N   0  0  0  0  0  0  0  0  0  0  0  0
   37.3400   27.5580   31.8150 C   0  0  0  0  0  0  0  0  0  0  0  0
   37.7120   28.6120   30.9850 C   0  0  0  0  0  0  0  0  0  0  0  0
   36.9850   28.4480   29.7820 C   0  0  0  0  0  0  0  0  0  0  0  0
   36.2210   27.3240   29.9360 N   0  0  0  0  0  0  0  0  0  0  0  0
   36.4320   26.8050   31.1310 N   0  0  0  0  0  0  0  0  0  0  0  0
   41.0437   25.1109   32.9804 H   0  0  0  0  0  0  0  0  0  0  0  0
   42.6803   25.1562   33.7281 H   0  0  0  0  0  0  0  0  0  0  0  0
   42.0982   22.4165   37.5645 H   0  0  0  0  0  0  0  0  0  0  0  0
   39.8740   21.3452   37.1343 H   0  0  0  0  0  0  0  0  0  0  0  0
   38.3916   21.8024   32.8243 H   0  0  0  0  0  0  0  0  0  0  0  0
   34.2409   21.7352   36.6094 H   0  0  0  0  0  0  0  0  0  0  0  0
   34.5703   19.9945   36.3284 H   0  0  0  0  0  0  0  0  0  0  0  0
   34.6246   21.0645   38.7837 H   0  0  0  0  0  0  0  0  0  0  0  0
   35.7585   19.7597   38.2954 H   0  0  0  0  0  0  0  0  0  0  0  0
   36.3048   21.4708   38.2954 H   0  0  0  0  0  0  0  0  0  0  0  0
   41.5540   26.5699   35.5882 H   0  0  0  0  0  0  0  0  0  0  0  0
   41.8817   27.3370   33.9739 H   0  0  0  0  0  0  0  0  0  0  0  0
   39.5783   27.0375   36.4880 H   0  0  0  0  0  0  0  0  0  0  0  0
   37.1711   27.6473   36.4265 H   0  0  0  0  0  0  0  0  0  0  0  0
   38.4288   29.4132   31.2180 H   0  0  0  0  0  0  0  0  0  0  0  0
   37.0263   29.0980   28.8955 H   0  0  0  0  0  0  0  0  0  0  0  0
   35.5790   26.9410   29.2275 H   0  0  0  0  0  0  0  0  0  0  0  0
  1 15  1  0
  1  6  1  0
  3  2  2  0
  4  3  1  0
  5  6  1  0
  5  4  2  0
  6  7  2  0
  7  2  1  0
  8  4  1  0
  8 12  1  0
  9 10  1  0
  9  8  2  0
 10 11  1  0
 11 12  2  0
 11 13  1  0
 13 14  1  0
 16 15  1  0
 16 17  2  0
 18 17  1  0
 19 18  2  0
 20 21  2  0
 20 19  1  0
 21 16  1  0
 22 20  1  0
 23 22  1  0
 24 25  1  0
 24 23  2  0
 25 26  1  0
 26 22  2  0
  1 27  1  0
  1 28  1  0
  2 29  1  0
  3 30  1  0
  9 31  1  0
 13 32  1  0
 13 33  1  0
 14 34  1  0
 14 35  1  0
 14 36  1  0
 15 37  1  0
 15 38  1  0
 17 39  1  0
 18 40  1  0
 23 41  1  0
 24 42  1  0
 25 43  1  0
M  ISO  8  27   8  28   8  29  14  30  14  31  14  32   8  33   8  34   8
M  ISO  8  35   8  36   8  37   8  38   8  39  14  40  14  41  14  42  14
M  ISO  1  43   9
M  END
>  <minimizedAffinity>  (1) 
-5.45256233

>  <minimizedRMSD>  (1) 
0.919687212

$$$$
