
     RDKit          3D

 41 45  0  0  1  0  0  0  0  0999 V2000
   38.3030   24.7280   34.0660 C   0  0  0  0  0  0  0  0  0  0  0  0
   38.3940   25.8400   33.2580 C   0  0  0  0  0  0  0  0  0  0  0  0
   37.8270   25.8150   32.0000 C   0  0  0  0  0  0  0  0  0  0  0  0
   37.1870   24.6660   31.6030 N   0  0  0  0  0  0  0  0  0  0  0  0
   37.1090   23.6000   32.4010 C   0  0  0  0  0  0  0  0  0  0  0  0
   37.6710   23.6760   33.5980 N   0  0  0  0  0  0  0  0  0  0  0  0
   38.8340   24.6040   35.3720 N   0  0  0  0  0  0  0  0  0  0  0  0
   39.9860   23.8150   35.7410 C   0  0  0  0  0  0  0  0  0  0  0  0
   39.8550   22.9190   36.8950 C   0  0  0  0  0  0  0  0  0  0  0  0
   38.8830   23.2740   37.9740 C   0  0  0  0  0  0  0  0  0  0  0  0
   37.7570   24.1440   37.4970 C   0  0  0  0  0  0  0  0  0  0  0  0
   38.3320   25.2320   36.5610 C   0  0  0  0  0  0  0  0  0  0  0  0
   37.6540   26.8960   31.1090 C   0  0  0  0  0  0  0  0  0  0  0  0
   37.5010   27.8510   30.3210 N   0  0  0  0  0  0  0  0  0  0  0  0
   37.4540   28.6680   29.4120 C   0  0  0  0  0  0  0  0  0  0  0  0
   36.7850   29.4810   30.2400 N   0  0  0  0  0  0  0  0  0  0  0  0
   36.4930   29.1200   31.5280 C   0  0  1  0  0  0  0  0  0  0  0  0
   35.8350   30.1250   32.2940 C   0  0  0  0  0  0  0  0  0  0  0  0
   35.6060   29.8130   33.6010 C   0  0  0  0  0  0  0  0  0  0  0  0
   35.9460   28.6400   34.2310 C   0  0  0  0  0  0  0  0  0  0  0  0
   36.5730   27.7790   33.3430 C   0  0  0  0  0  0  0  0  0  0  0  0
   36.9290   27.8370   31.9540 C   0  0  1  0  0  0  0  0  0  0  0  0
   38.9149   26.7415   33.6130 H   0  0  0  0  0  0  0  0  0  0  0  0
   36.5932   22.6849   32.0747 H   0  0  0  0  0  0  0  0  0  0  0  0
   40.2523   23.1954   34.8720 H   0  0  0  0  0  0  0  0  0  0  0  0
   40.7435   24.5525   36.0450 H   0  0  0  0  0  0  0  0  0  0  0  0
   39.5616   21.9324   36.5070 H   0  0  0  0  0  0  0  0  0  0  0  0
   40.8356   22.9766   37.3900 H   0  0  0  0  0  0  0  0  0  0  0  0
   38.4578   22.3444   38.3803 H   0  0  0  0  0  0  0  0  0  0  0  0
   39.4355   23.8448   38.7348 H   0  0  0  0  0  0  0  0  0  0  0  0
   37.0246   23.5335   36.9485 H   0  0  0  0  0  0  0  0  0  0  0  0
   37.2580   24.6153   38.3566 H   0  0  0  0  0  0  0  0  0  0  0  0
   39.1489   25.7637   37.0709 H   0  0  0  0  0  0  0  0  0  0  0  0
   37.5433   25.9522   36.2977 H   0  0  0  0  0  0  0  0  0  0  0  0
   38.6078   27.3273   31.4471 H   0  0  0  0  0  0  0  0  0  0  0  0
   37.8065   28.7146   28.3711 H   0  0  0  0  0  0  0  0  0  0  0  0
   37.4449   29.5557   31.8659 H   0  0  0  0  0  0  0  0  0  0  0  0
   35.5318   31.0890   31.8594 H   0  0  0  0  0  0  0  0  0  0  0  0
   35.0993   30.5750   34.2114 H   0  0  0  0  0  0  0  0  0  0  0  0
   35.7487   28.4158   35.2897 H   0  0  0  0  0  0  0  0  0  0  0  0
   36.8662   26.8289   33.8136 H   0  0  0  0  0  0  0  0  0  0  0  0
  1  7  1  0
  2  1  2  0
  3  2  1  0
  4  3  2  0
  4  5  1  0
  5  6  2  0
  6  1  1  0
  7  8  1  0
  7 12  1  0
  8  9  1  0
  9 10  1  0
 11 10  1  0
 12 11  1  0
 22 13  1  6
 13  3  1  0
 14 13  1  0
 14 22  1  0
 15 16  2  0
 15 14  1  0
 16 17  1  0
 17 22  1  0
 17 18  1  0
 18 19  2  0
 19 20  1  0
 21 20  2  0
 22 21  1  0
  2 23  1  0
  5 24  1  0
  8 25  1  0
  8 26  1  0
  9 27  1  0
  9 28  1  0
 10 29  1  0
 10 30  1  0
 11 31  1  0
 11 32  1  0
 12 33  1  0
 12 34  1  0
 13 35  1  0
 15 36  1  0
 17 37  1  6
 18 38  1  0
 19 39  1  0
 20 40  1  0
 21 41  1  0
M  ISO  8  23  14  24  14  25  13  26  13  27  13  28  13  29  13  30  13
M  ISO  8  31  13  32  13  33  13  34  13  35  13  36  13  37  13  38  13
M  ISO  3  39  13  40  13  41  13
M  END
>  <minimizedAffinity>  (1) 
-5.57167387

>  <minimizedRMSD>  (1) 
2.22655606

$$$$
