
     RDKit          3D

 39 42  0  0  0  0  0  0  0  0999 V2000
   38.1680   24.0690   34.5100 C   0  0  0  0  0  0  0  0  0  0  0  0
   37.9430   25.1310   33.6410 C   0  0  0  0  0  0  0  0  0  0  0  0
   37.3810   24.8880   32.4020 C   0  0  0  0  0  0  0  0  0  0  0  0
   37.0650   23.6070   32.0770 N   0  0  0  0  0  0  0  0  0  0  0  0
   37.2930   22.5930   32.9340 C   0  0  0  0  0  0  0  0  0  0  0  0
   37.8340   22.8230   34.1290 N   0  0  0  0  0  0  0  0  0  0  0  0
   38.7360   24.1600   35.8090 N   0  0  0  0  0  0  0  0  0  0  0  0
   39.9150   23.4750   36.2640 C   0  0  0  0  0  0  0  0  0  0  0  0
   39.8240   22.7720   37.5460 C   0  0  0  0  0  0  0  0  0  0  0  0
   38.8890   23.2900   38.5760 C   0  0  0  0  0  0  0  0  0  0  0  0
   37.7100   24.0460   38.0010 C   0  0  0  0  0  0  0  0  0  0  0  0
   38.2070   24.9690   36.8920 C   0  0  0  0  0  0  0  0  0  0  0  0
   37.1530   26.0160   31.5060 C   0  0  0  0  0  0  0  0  0  0  0  0
   35.9620   26.5180   31.0180 C   0  0  0  0  0  0  0  0  0  0  0  0
   36.1970   27.5740   30.2140 N   0  0  0  0  0  0  0  0  0  0  0  0
   37.5390   27.7620   30.1780 C   0  0  0  0  0  0  0  0  0  0  0  0
   38.2160   28.7520   29.4610 C   0  0  0  0  0  0  0  0  0  0  0  0
   39.6090   28.7590   29.5680 C   0  0  0  0  0  0  0  0  0  0  0  0
   40.2630   27.8290   30.3450 C   0  0  0  0  0  0  0  0  0  0  0  0
   39.5370   26.8570   31.0430 C   0  0  0  0  0  0  0  0  0  0  0  0
   38.1610   26.8180   30.9630 C   0  0  0  0  0  0  0  0  0  0  0  0
   38.2101   26.1561   33.9373 H   0  0  0  0  0  0  0  0  0  0  0  0
   37.0298   21.5651   32.6440 H   0  0  0  0  0  0  0  0  0  0  0  0
   40.1842   22.7334   35.4975 H   0  0  0  0  0  0  0  0  0  0  0  0
   40.6606   24.2674   36.4256 H   0  0  0  0  0  0  0  0  0  0  0  0
   39.5241   21.7365   37.3273 H   0  0  0  0  0  0  0  0  0  0  0  0
   40.8189   22.9052   37.9959 H   0  0  0  0  0  0  0  0  0  0  0  0
   38.5057   22.4383   39.1572 H   0  0  0  0  0  0  0  0  0  0  0  0
   39.4551   24.0001   39.1967 H   0  0  0  0  0  0  0  0  0  0  0  0
   36.9802   23.3336   37.5889 H   0  0  0  0  0  0  0  0  0  0  0  0
   37.2271   24.6397   38.7912 H   0  0  0  0  0  0  0  0  0  0  0  0
   38.9987   25.6244   37.2841 H   0  0  0  0  0  0  0  0  0  0  0  0
   37.3767   25.5890   36.5230 H   0  0  0  0  0  0  0  0  0  0  0  0
   34.9659   26.1142   31.2518 H   0  0  0  0  0  0  0  0  0  0  0  0
   35.4885   28.1341   29.7189 H   0  0  0  0  0  0  0  0  0  0  0  0
   37.6797   29.4880   28.8440 H   0  0  0  0  0  0  0  0  0  0  0  0
   40.1912   29.5176   29.0243 H   0  0  0  0  0  0  0  0  0  0  0  0
   41.3604   27.8501   30.4174 H   0  0  0  0  0  0  0  0  0  0  0  0
   40.0686   26.1180   31.6605 H   0  0  0  0  0  0  0  0  0  0  0  0
  1  7  1  0
  2  1  2  0
  3  2  1  0
  4  3  2  0
  4  5  1  0
  5  6  2  0
  6  1  1  0
  7  8  1  0
  7 12  1  0
  8  9  1  0
  9 10  1  0
 11 10  1  0
 12 11  1  0
 13  3  1  0
 14 13  2  0
 15 14  1  0
 16 15  1  0
 16 21  2  0
 17 18  2  0
 17 16  1  0
 18 19  1  0
 19 20  2  0
 21 20  1  0
 21 13  1  0
  2 22  1  0
  5 23  1  0
  8 24  1  0
  8 25  1  0
  9 26  1  0
  9 27  1  0
 10 28  1  0
 10 29  1  0
 11 30  1  0
 11 31  1  0
 12 32  1  0
 12 33  1  0
 14 34  1  0
 15 35  1  0
 17 36  1  0
 18 37  1  0
 19 38  1  0
 20 39  1  0
M  ISO  8  22  14  23  14  24  13  25  13  26  13  27  13  28  13  29  13
M  ISO  8  30  13  31  13  32  13  33  13  34  14  35   9  36  14  37  14
M  ISO  2  38  14  39  14
M  END
>  <minimizedAffinity>  (1) 
-5.54684639

>  <minimizedRMSD>  (1) 
1.89040899

$$$$
