
     RDKit          3D

 41 43  0  0  0  0  0  0  0  0999 V2000
   38.6680   24.6330   35.7430 N   0  0  0  0  0  0  0  0  0  0  0  0
   39.7980   23.7630   35.9500 C   0  0  0  0  0  0  0  0  0  0  0  0
   39.7140   22.7900   37.0570 C   0  0  0  0  0  0  0  0  0  0  0  0
   38.9180   23.1780   38.2530 C   0  0  0  0  0  0  0  0  0  0  0  0
   37.7680   24.1040   37.9350 C   0  0  0  0  0  0  0  0  0  0  0  0
   38.3170   25.2100   37.0100 C   0  0  0  0  0  0  0  0  0  0  0  0
   38.0250   24.8700   34.5050 C   0  0  0  0  0  0  0  0  0  0  0  0
   37.5170   26.1050   34.0820 C   0  0  0  0  0  0  0  0  0  0  0  0
   36.9120   26.1800   32.8360 C   0  0  0  0  0  0  0  0  0  0  0  0
   36.8360   25.0590   32.0790 N   0  0  0  0  0  0  0  0  0  0  0  0
   37.3340   23.8850   32.5130 C   0  0  0  0  0  0  0  0  0  0  0  0
   37.9190   23.8060   33.7140 N   0  0  0  0  0  0  0  0  0  0  0  0
   36.3700   27.4570   32.3660 C   0  0  0  0  0  0  0  0  0  0  0  0
   36.3020   28.3740   33.5940 C   0  0  0  0  0  0  0  0  0  0  0  0
   35.3880   29.5080   33.1840 C   0  0  0  0  0  0  0  0  0  0  0  0
   36.0280   30.2820   32.0330 C   0  0  0  0  0  0  0  0  0  0  0  0
   36.4550   29.4020   30.9030 C   0  0  0  0  0  0  0  0  0  0  0  0
   37.2180   28.1770   31.3630 C   0  0  0  0  0  0  0  0  0  0  0  0
   39.9501   23.1935   35.0213 H   0  0  0  0  0  0  0  0  0  0  0  0
   40.6225   24.4354   36.2293 H   0  0  0  0  0  0  0  0  0  0  0  0
   39.2723   21.8675   36.6522 H   0  0  0  0  0  0  0  0  0  0  0  0
   40.7460   22.6947   37.4257 H   0  0  0  0  0  0  0  0  0  0  0  0
   38.5130   22.2647   38.7133 H   0  0  0  0  0  0  0  0  0  0  0  0
   39.5938   23.7210   38.9300 H   0  0  0  0  0  0  0  0  0  0  0  0
   36.9669   23.5490   37.4249 H   0  0  0  0  0  0  0  0  0  0  0  0
   37.3482   24.5365   38.8552 H   0  0  0  0  0  0  0  0  0  0  0  0
   39.2085   25.6637   37.4676 H   0  0  0  0  0  0  0  0  0  0  0  0
   37.5500   25.9849   36.8640 H   0  0  0  0  0  0  0  0  0  0  0  0
   37.5961   26.9952   34.7234 H   0  0  0  0  0  0  0  0  0  0  0  0
   37.2596   22.9893   31.8788 H   0  0  0  0  0  0  0  0  0  0  0  0
   35.4090   27.2344   31.8793 H   0  0  0  0  0  0  0  0  0  0  0  0
   35.8856   27.8343   34.4573 H   0  0  0  0  0  0  0  0  0  0  0  0
   37.2963   28.7332   33.8977 H   0  0  0  0  0  0  0  0  0  0  0  0
   34.4196   29.1000   32.8587 H   0  0  0  0  0  0  0  0  0  0  0  0
   35.2313   30.1822   34.0390 H   0  0  0  0  0  0  0  0  0  0  0  0
   35.2979   31.0115   31.6525 H   0  0  0  0  0  0  0  0  0  0  0  0
   36.9305   30.7716   32.4277 H   0  0  0  0  0  0  0  0  0  0  0  0
   37.1006   29.9847   30.2295 H   0  0  0  0  0  0  0  0  0  0  0  0
   35.5438   29.0513   30.3964 H   0  0  0  0  0  0  0  0  0  0  0  0
   37.4218   27.5195   30.5050 H   0  0  0  0  0  0  0  0  0  0  0  0
   38.1783   28.4698   31.8125 H   0  0  0  0  0  0  0  0  0  0  0  0
  1  2  1  0
  1  6  1  0
  2  3  1  0
  3  4  1  0
  5  4  1  0
  6  5  1  0
  7  1  1  0
  8  7  2  0
  9  8  1  0
 10 11  1  0
 10  9  2  0
 11 12  2  0
 12  7  1  0
 13  9  1  0
 13 14  1  0
 15 14  1  0
 16 15  1  0
 17 18  1  0
 17 16  1  0
 18 13  1  0
  2 19  1  0
  2 20  1  0
  3 21  1  0
  3 22  1  0
  4 23  1  0
  4 24  1  0
  5 25  1  0
  5 26  1  0
  6 27  1  0
  6 28  1  0
  8 29  1  0
 11 30  1  0
 13 31  1  0
 14 32  1  0
 14 33  1  0
 15 34  1  0
 15 35  1  0
 16 36  1  0
 16 37  1  0
 17 38  1  0
 17 39  1  0
 18 40  1  0
 18 41  1  0
M  ISO  8  19  13  20  13  21  13  22  13  23  13  24  13  25  13  26  13
M  ISO  8  27  13  28  13  29  14  30  14  31  13  32  13  33  13  34  13
M  ISO  7  35  13  36  13  37  13  38  13  39  13  40  13  41  13
M  END
>  <minimizedAffinity>  (1) 
-5.01976204

>  <minimizedRMSD>  (1) 
2.87750936

$$$$
