
     RDKit          3D

 32 33  0  0  0  0  0  0  0  0999 V2000
   38.1670   23.6420   34.7070 C   0  0  0  0  0  0  0  0  0  0  0  0
   38.0160   24.5990   33.7080 C   0  0  0  0  0  0  0  0  0  0  0  0
   37.4380   24.2360   32.5090 C   0  0  0  0  0  0  0  0  0  0  0  0
   37.0380   22.9490   32.3530 N   0  0  0  0  0  0  0  0  0  0  0  0
   37.1990   22.0440   33.3410 C   0  0  0  0  0  0  0  0  0  0  0  0
   37.7620   22.3910   34.5130 N   0  0  0  0  0  0  0  0  0  0  0  0
   37.2620   25.1790   31.4570 N   0  0  0  0  0  0  0  0  0  0  0  0
   35.9300   25.4500   30.9820 C   0  0  0  0  0  0  0  0  0  0  0  0
   34.9390   24.6770   31.2400 N   0  0  0  0  0  0  0  0  0  0  0  0
   35.7660   26.6230   30.2080 N   0  0  0  0  0  0  0  0  0  0  0  0
   33.9730   24.8140   30.9310 H   0  0  0  0  0  0  0  0  0  0  0  0
   38.7420   23.8870   35.9760 N   0  0  0  0  0  0  0  0  0  0  0  0
   39.9590   23.2910   36.4680 C   0  0  0  0  0  0  0  0  0  0  0  0
   39.9650   22.7130   37.8120 C   0  0  0  0  0  0  0  0  0  0  0  0
   39.0110   23.2710   38.8120 C   0  0  0  0  0  0  0  0  0  0  0  0
   37.7910   23.9130   38.2050 C   0  0  0  0  0  0  0  0  0  0  0  0
   38.2320   24.7620   37.0000 C   0  0  0  0  0  0  0  0  0  0  0  0
   38.3536   25.6329   33.8724 H   0  0  0  0  0  0  0  0  0  0  0  0
   36.8651   21.0074   33.1861 H   0  0  0  0  0  0  0  0  0  0  0  0
   38.0736   25.6592   31.0428 H   0  0  0  0  0  0  0  0  0  0  0  0
   36.5758   27.2290   30.0133 H   0  0  0  0  0  0  0  0  0  0  0  0
   34.8368   26.8710   29.8392 H   0  0  0  0  0  0  0  0  0  0  0  0
   40.2315   22.4869   35.7686 H   0  0  0  0  0  0  0  0  0  0  0  0
   40.6607   24.1352   36.5373 H   0  0  0  0  0  0  0  0  0  0  0  0
   39.7427   21.6406   37.7091 H   0  0  0  0  0  0  0  0  0  0  0  0
   40.9603   22.9546   38.2133 H   0  0  0  0  0  0  0  0  0  0  0  0
   38.6805   22.4526   39.4685 H   0  0  0  0  0  0  0  0  0  0  0  0
   39.5481   24.0614   39.3568 H   0  0  0  0  0  0  0  0  0  0  0  0
   37.0889   23.1342   37.8726 H   0  0  0  0  0  0  0  0  0  0  0  0
   37.2906   24.5490   38.9501 H   0  0  0  0  0  0  0  0  0  0  0  0
   39.0191   25.4646   37.3113 H   0  0  0  0  0  0  0  0  0  0  0  0
   37.3751   25.3318   36.6113 H   0  0  0  0  0  0  0  0  0  0  0  0
  1 12  1  0
  2  1  2  0
  3  2  1  0
  4  3  2  0
  4  5  1  0
  5  6  2  0
  6  1  1  0
  7  3  1  0
  8  9  2  0
  8  7  1  0
 10  8  1  0
 11  9  1  0
 12 13  1  0
 12 17  1  0
 13 14  1  0
 14 15  1  0
 16 15  1  0
 17 16  1  0
  2 18  1  0
  5 19  1  0
  7 20  1  0
 10 21  1  0
 10 22  1  0
 13 23  1  0
 13 24  1  0
 14 25  1  0
 14 26  1  0
 15 27  1  0
 15 28  1  0
 16 29  1  0
 16 30  1  0
 17 31  1  0
 17 32  1  0
M  ISO  8  18  14  19  14  23  13  24  13  25  13  26  13  27  13  28  13
M  ISO  4  29  13  30  13  31  13  32  13
M  END
>  <minimizedAffinity>  (1) 
-4.93590403

>  <minimizedRMSD>  (1) 
0.696864486

$$$$
