
     RDKit          3D

 32 34  0  0  0  0  0  0  0  0999 V2000
   39.0580   23.6870   35.8630 N   0  0  0  0  0  0  0  0  0  0  0  0
   40.2170   23.1410   36.4800 C   0  0  0  0  0  0  0  0  0  0  0  0
   40.0960   22.6760   37.8820 C   0  0  0  0  0  0  0  0  0  0  0  0
   39.1090   23.3600   38.7450 C   0  0  0  0  0  0  0  0  0  0  0  0
   37.9370   23.9450   38.0040 C   0  0  0  0  0  0  0  0  0  0  0  0
   38.4890   24.6630   36.7540 C   0  0  0  0  0  0  0  0  0  0  0  0
   38.5350   23.3420   34.5830 C   0  0  0  0  0  0  0  0  0  0  0  0
   37.7000   24.1440   33.8110 C   0  0  0  0  0  0  0  0  0  0  0  0
   37.2680   23.6670   32.5740 C   0  0  0  0  0  0  0  0  0  0  0  0
   37.6910   22.4310   32.1880 N   0  0  0  0  0  0  0  0  0  0  0  0
   38.4930   21.6830   32.9480 C   0  0  0  0  0  0  0  0  0  0  0  0
   38.9170   22.1310   34.1430 N   0  0  0  0  0  0  0  0  0  0  0  0
   36.4320   24.5500   31.8740 N   0  0  0  0  0  0  0  0  0  0  0  0
   36.5790   25.8560   31.7790 N   0  0  0  0  0  0  0  0  0  0  0  0
   35.6080   26.3860   31.0420 C   0  0  0  0  0  0  0  0  0  0  0  0
   34.7910   25.3490   30.6440 C   0  0  0  0  0  0  0  0  0  0  0  0
   35.3310   24.2210   31.1790 C   0  0  0  0  0  0  0  0  0  0  0  0
   40.5369   22.2801   35.8746 H   0  0  0  0  0  0  0  0  0  0  0  0
   40.9290   23.9783   36.5249 H   0  0  0  0  0  0  0  0  0  0  0  0
   39.8261   21.6100   37.8535 H   0  0  0  0  0  0  0  0  0  0  0  0
   41.0713   22.9022   38.3376 H   0  0  0  0  0  0  0  0  0  0  0  0
   38.7261   22.6313   39.4746 H   0  0  0  0  0  0  0  0  0  0  0  0
   39.6349   24.2028   39.2174 H   0  0  0  0  0  0  0  0  0  0  0  0
   37.2458   23.1442   37.7024 H   0  0  0  0  0  0  0  0  0  0  0  0
   37.3871   24.6503   38.6444 H   0  0  0  0  0  0  0  0  0  0  0  0
   39.2642   25.3830   37.0551 H   0  0  0  0  0  0  0  0  0  0  0  0
   37.6746   25.1992   36.2448 H   0  0  0  0  0  0  0  0  0  0  0  0
   37.3867   25.1355   34.1698 H   0  0  0  0  0  0  0  0  0  0  0  0
   38.8102   20.6910   32.5939 H   0  0  0  0  0  0  0  0  0  0  0  0
   35.4804   27.4505   30.7961 H   0  0  0  0  0  0  0  0  0  0  0  0
   33.8871   25.4195   30.0211 H   0  0  0  0  0  0  0  0  0  0  0  0
   34.9304   23.2033   31.0613 H   0  0  0  0  0  0  0  0  0  0  0  0
  1  2  1  0
  1  6  1  0
  2  3  1  0
  3  4  1  0
  5  4  1  0
  6  5  1  0
  7  1  1  0
  8  7  2  0
  9  8  1  0
 10  9  2  0
 10 11  1  0
 11 12  2  0
 12  7  1  0
 13  9  1  0
 14 13  1  0
 15 14  2  0
 16 15  1  0
 16 17  2  0
 17 13  1  0
  2 18  1  0
  2 19  1  0
  3 20  1  0
  3 21  1  0
  4 22  1  0
  4 23  1  0
  5 24  1  0
  5 25  1  0
  6 26  1  0
  6 27  1  0
  8 28  1  0
 11 29  1  0
 15 30  1  0
 16 31  1  0
 17 32  1  0
M  ISO  8  18  13  19  13  20  13  21  13  22  13  23  13  24  13  25  13
M  ISO  7  26  13  27  13  28  14  29  14  30  14  31  14  32  14
M  END
>  <minimizedAffinity>  (1) 
-4.86194086

>  <minimizedRMSD>  (1) 
1.15583777

$$$$
