
     RDKit          3D

 32 34  0  0  0  0  0  0  0  0999 V2000
   38.7210   24.1860   35.8380 N   0  0  0  0  0  0  0  0  0  0  0  0
   39.8960   23.4690   36.2780 C   0  0  0  0  0  0  0  0  0  0  0  0
   39.8180   22.7500   37.5570 C   0  0  0  0  0  0  0  0  0  0  0  0
   38.9010   23.2950   38.6000 C   0  0  0  0  0  0  0  0  0  0  0  0
   37.7300   24.0450   38.0310 C   0  0  0  0  0  0  0  0  0  0  0  0
   38.2380   24.9840   36.9250 C   0  0  0  0  0  0  0  0  0  0  0  0
   38.1550   24.1000   34.5340 C   0  0  0  0  0  0  0  0  0  0  0  0
   37.9470   25.1910   33.6960 C   0  0  0  0  0  0  0  0  0  0  0  0
   37.3870   24.9560   32.4420 C   0  0  0  0  0  0  0  0  0  0  0  0
   37.0760   23.6830   32.0980 N   0  0  0  0  0  0  0  0  0  0  0  0
   37.2920   22.6520   32.9380 C   0  0  0  0  0  0  0  0  0  0  0  0
   37.8290   22.8570   34.1480 N   0  0  0  0  0  0  0  0  0  0  0  0
   37.1500   26.0670   31.5280 C   0  0  0  0  0  0  0  0  0  0  0  0
   38.0620   27.0180   31.1710 C   0  0  0  0  0  0  0  0  0  0  0  0
   37.4700   27.9050   30.2880 C   0  0  0  0  0  0  0  0  0  0  0  0
   36.2070   27.4770   30.1230 N   0  0  0  0  0  0  0  0  0  0  0  0
   36.0310   26.3900   30.8620 N   0  0  0  0  0  0  0  0  0  0  0  0
   40.1407   22.7305   35.5003 H   0  0  0  0  0  0  0  0  0  0  0  0
   40.6526   24.2501   36.4437 H   0  0  0  0  0  0  0  0  0  0  0  0
   39.4933   21.7222   37.3376 H   0  0  0  0  0  0  0  0  0  0  0  0
   40.8239   22.8436   37.9923 H   0  0  0  0  0  0  0  0  0  0  0  0
   38.5194   22.4568   39.2015 H   0  0  0  0  0  0  0  0  0  0  0  0
   39.4820   24.0083   39.2030 H   0  0  0  0  0  0  0  0  0  0  0  0
   37.0045   23.3340   37.6089 H   0  0  0  0  0  0  0  0  0  0  0  0
   37.2380   24.6292   38.8226 H   0  0  0  0  0  0  0  0  0  0  0  0
   39.0530   25.6110   37.3158 H   0  0  0  0  0  0  0  0  0  0  0  0
   37.4223   25.6365   36.5803 H   0  0  0  0  0  0  0  0  0  0  0  0
   38.2167   26.2089   34.0140 H   0  0  0  0  0  0  0  0  0  0  0  0
   37.0246   21.6313   32.6270 H   0  0  0  0  0  0  0  0  0  0  0  0
   39.1012   27.0711   31.5278 H   0  0  0  0  0  0  0  0  0  0  0  0
   37.9384   28.7819   29.8172 H   0  0  0  0  0  0  0  0  0  0  0  0
   35.4954   27.9188   29.5235 H   0  0  0  0  0  0  0  0  0  0  0  0
  1  2  1  0
  1  6  1  0
  2  3  1  0
  3  4  1  0
  5  4  1  0
  6  5  1  0
  7  1  1  0
  8  7  2  0
  9  8  1  0
 10  9  2  0
 10 11  1  0
 11 12  2  0
 12  7  1  0
 13  9  1  0
 14 13  1  0
 15 14  2  0
 16 15  1  0
 16 17  1  0
 17 13  2  0
  2 18  1  0
  2 19  1  0
  3 20  1  0
  3 21  1  0
  4 22  1  0
  4 23  1  0
  5 24  1  0
  5 25  1  0
  6 26  1  0
  6 27  1  0
  8 28  1  0
 11 29  1  0
 14 30  1  0
 15 31  1  0
 16 32  1  0
M  ISO  8  18  13  19  13  20  13  21  13  22  13  23  13  24  13  25  13
M  ISO  7  26  13  27  13  28  14  29  14  30  14  31  14  32   9
M  END
>  <minimizedAffinity>  (1) 
-4.82547283

>  <minimizedRMSD>  (1) 
1.58912647

$$$$
