
     RDKit          3D

 38 40  0  0  0  0  0  0  0  0999 V2000
   38.7210   24.4680   35.7110 N   0  0  0  0  0  0  0  0  0  0  0  0
   39.8940   23.6970   36.0490 C   0  0  0  0  0  0  0  0  0  0  0  0
   39.8160   22.8210   37.2360 C   0  0  0  0  0  0  0  0  0  0  0  0
   38.9120   23.2280   38.3410 C   0  0  0  0  0  0  0  0  0  0  0  0
   37.7220   24.0520   37.8870 C   0  0  0  0  0  0  0  0  0  0  0  0
   38.2520   25.1270   36.9110 C   0  0  0  0  0  0  0  0  0  0  0  0
   38.1360   24.5580   34.4270 C   0  0  0  0  0  0  0  0  0  0  0  0
   37.8370   25.7430   33.7650 C   0  0  0  0  0  0  0  0  0  0  0  0
   37.2640   25.6840   32.5100 C   0  0  0  0  0  0  0  0  0  0  0  0
   37.0130   24.4690   31.9650 N   0  0  0  0  0  0  0  0  0  0  0  0
   37.3150   23.3330   32.6350 C   0  0  0  0  0  0  0  0  0  0  0  0
   37.8710   23.3740   33.8530 N   0  0  0  0  0  0  0  0  0  0  0  0
   36.9420   26.8730   31.7970 N   0  0  0  0  0  0  0  0  0  0  0  0
   35.6450   27.4860   31.9490 C   0  0  0  0  0  0  0  0  0  0  0  0
   35.6400   28.9560   31.6760 C   0  0  0  0  0  0  0  0  0  0  0  0
   36.6300   29.3830   30.8140 O   0  0  0  0  0  0  0  0  0  0  0  0
   37.1240   28.3890   30.0000 C   0  0  0  0  0  0  0  0  0  0  0  0
   37.9290   27.4600   30.9210 C   0  0  0  0  0  0  0  0  0  0  0  0
   40.1298   23.0596   35.1841 H   0  0  0  0  0  0  0  0  0  0  0  0
   40.6580   24.4464   36.3036 H   0  0  0  0  0  0  0  0  0  0  0  0
   39.4860   21.8301   36.8908 H   0  0  0  0  0  0  0  0  0  0  0  0
   40.8238   22.8607   37.6750 H   0  0  0  0  0  0  0  0  0  0  0  0
   38.5366   22.3194   38.8344 H   0  0  0  0  0  0  0  0  0  0  0  0
   39.5010   23.8629   39.0192 H   0  0  0  0  0  0  0  0  0  0  0  0
   36.9910   23.4078   37.3765 H   0  0  0  0  0  0  0  0  0  0  0  0
   37.2218   24.5203   38.7475 H   0  0  0  0  0  0  0  0  0  0  0  0
   39.0810   25.6773   37.3800 H   0  0  0  0  0  0  0  0  0  0  0  0
   37.4499   25.8372   36.6615 H   0  0  0  0  0  0  0  0  0  0  0  0
   38.0537   26.7140   34.2341 H   0  0  0  0  0  0  0  0  0  0  0  0
   37.1002   22.3588   32.1715 H   0  0  0  0  0  0  0  0  0  0  0  0
   34.9473   27.0006   31.2507 H   0  0  0  0  0  0  0  0  0  0  0  0
   35.3473   27.3528   32.9995 H   0  0  0  0  0  0  0  0  0  0  0  0
   34.6661   29.2205   31.2382 H   0  0  0  0  0  0  0  0  0  0  0  0
   35.8290   29.4529   32.6390 H   0  0  0  0  0  0  0  0  0  0  0  0
   36.2996   27.8375   29.5245 H   0  0  0  0  0  0  0  0  0  0  0  0
   37.7469   28.7985   29.1911 H   0  0  0  0  0  0  0  0  0  0  0  0
   38.4414   26.6819   30.3363 H   0  0  0  0  0  0  0  0  0  0  0  0
   38.7124   27.9977   31.4752 H   0  0  0  0  0  0  0  0  0  0  0  0
  1  2  1  0
  1  6  1  0
  2  3  1  0
  3  4  1  0
  5  4  1  0
  6  5  1  0
  7  1  1  0
  8  7  2  0
  9  8  1  0
 10  9  2  0
 10 11  1  0
 11 12  2  0
 12  7  1  0
 13 14  1  0
 13  9  1  0
 15 14  1  0
 16 15  1  0
 17 16  1  0
 17 18  1  0
 18 13  1  0
  2 19  1  0
  2 20  1  0
  3 21  1  0
  3 22  1  0
  4 23  1  0
  4 24  1  0
  5 25  1  0
  5 26  1  0
  6 27  1  0
  6 28  1  0
  8 29  1  0
 11 30  1  0
 14 31  1  0
 14 32  1  0
 15 33  1  0
 15 34  1  0
 17 35  1  0
 17 36  1  0
 18 37  1  0
 18 38  1  0
M  ISO  8  19  13  20  13  21  13  22  13  23  13  24  13  25  13  26  13
M  ISO  8  27  13  28  13  29  14  30  14  31  13  32  13  33  13  34  13
M  ISO  4  35  13  36  13  37  13  38  13
M  END
>  <minimizedAffinity>  (1) 
-4.78853178

>  <minimizedRMSD>  (1) 
2.24960589

$$$$
