
     RDKit          3D

 32 34  0  0  0  0  0  0  0  0999 V2000
   38.6900   24.4930   35.7830 N   0  0  0  0  0  0  0  0  0  0  0  0
   39.8250   23.6780   36.0670 C   0  0  0  0  0  0  0  0  0  0  0  0
   39.7430   22.7600   37.2190 C   0  0  0  0  0  0  0  0  0  0  0  0
   38.9170   23.1960   38.3680 C   0  0  0  0  0  0  0  0  0  0  0  0
   37.7520   24.0650   37.9810 C   0  0  0  0  0  0  0  0  0  0  0  0
   38.2740   25.1450   37.0080 C   0  0  0  0  0  0  0  0  0  0  0  0
   38.0670   24.6440   34.5100 C   0  0  0  0  0  0  0  0  0  0  0  0
   37.6600   25.8660   33.9750 C   0  0  0  0  0  0  0  0  0  0  0  0
   37.0640   25.8550   32.7160 C   0  0  0  0  0  0  0  0  0  0  0  0
   36.9090   24.6560   32.0750 N   0  0  0  0  0  0  0  0  0  0  0  0
   37.3190   23.4990   32.6340 C   0  0  0  0  0  0  0  0  0  0  0  0
   37.8940   23.4900   33.8400 N   0  0  0  0  0  0  0  0  0  0  0  0
   36.6640   27.1020   32.2020 N   0  0  0  0  0  0  0  0  0  0  0  0
   36.3990   28.2270   32.9100 C   0  0  0  0  0  0  0  0  0  0  0  0
   36.0450   29.2010   31.9820 C   0  0  0  0  0  0  0  0  0  0  0  0
   36.1020   28.6540   30.7630 N   0  0  0  0  0  0  0  0  0  0  0  0
   36.4780   27.3780   30.8870 C   0  0  0  0  0  0  0  0  0  0  0  0
   40.0214   23.0666   35.1739 H   0  0  0  0  0  0  0  0  0  0  0  0
   40.6170   24.3916   36.3379 H   0  0  0  0  0  0  0  0  0  0  0  0
   39.3298   21.8075   36.8556 H   0  0  0  0  0  0  0  0  0  0  0  0
   40.7691   22.7006   37.6108 H   0  0  0  0  0  0  0  0  0  0  0  0
   38.5287   22.3008   38.8759 H   0  0  0  0  0  0  0  0  0  0  0  0
   39.5659   23.8002   39.0190 H   0  0  0  0  0  0  0  0  0  0  0  0
   36.9795   23.4575   37.4869 H   0  0  0  0  0  0  0  0  0  0  0  0
   37.3072   24.5321   38.8721 H   0  0  0  0  0  0  0  0  0  0  0  0
   39.1294   25.6694   37.4589 H   0  0  0  0  0  0  0  0  0  0  0  0
   37.4818   25.8781   36.7962 H   0  0  0  0  0  0  0  0  0  0  0  0
   37.8046   26.8058   34.5280 H   0  0  0  0  0  0  0  0  0  0  0  0
   37.1785   22.5527   32.0912 H   0  0  0  0  0  0  0  0  0  0  0  0
   36.4531   28.3462   34.0022 H   0  0  0  0  0  0  0  0  0  0  0  0
   35.7666   30.2403   32.2110 H   0  0  0  0  0  0  0  0  0  0  0  0
   36.6144   26.6675   30.0584 H   0  0  0  0  0  0  0  0  0  0  0  0
  1  2  1  0
  1  6  1  0
  2  3  1  0
  3  4  1  0
  5  4  1  0
  6  5  1  0
  7  1  1  0
  8  7  2  0
  9  8  1  0
 10 11  1  0
 10  9  2  0
 11 12  2  0
 12  7  1  0
 13  9  1  0
 13 14  1  0
 15 14  2  0
 16 17  2  0
 16 15  1  0
 17 13  1  0
  2 18  1  0
  2 19  1  0
  3 20  1  0
  3 21  1  0
  4 22  1  0
  4 23  1  0
  5 24  1  0
  5 25  1  0
  6 26  1  0
  6 27  1  0
  8 28  1  0
 11 29  1  0
 14 30  1  0
 15 31  1  0
 17 32  1  0
M  ISO  8  18  13  19  13  20  13  21  13  22  13  23  13  24  13  25  13
M  ISO  7  26  13  27  13  28  14  29  14  30  14  31  14  32  14
M  END
>  <minimizedAffinity>  (1) 
-4.7286377

>  <minimizedRMSD>  (1) 
2.36236787

$$$$
