
     RDKit          3D

 32 34  0  0  0  0  0  0  0  0999 V2000
   39.1270   23.7350   35.8670 N   0  0  0  0  0  0  0  0  0  0  0  0
   40.2790   23.1680   36.4980 C   0  0  0  0  0  0  0  0  0  0  0  0
   40.1150   22.6510   37.8720 C   0  0  0  0  0  0  0  0  0  0  0  0
   39.0910   23.2910   38.7480 C   0  0  0  0  0  0  0  0  0  0  0  0
   37.9590   23.9340   37.9910 C   0  0  0  0  0  0  0  0  0  0  0  0
   38.5320   24.6850   36.7880 C   0  0  0  0  0  0  0  0  0  0  0  0
   38.6390   23.4290   34.5640 C   0  0  0  0  0  0  0  0  0  0  0  0
   37.7360   24.2250   33.8530 C   0  0  0  0  0  0  0  0  0  0  0  0
   37.3460   23.8050   32.5930 C   0  0  0  0  0  0  0  0  0  0  0  0
   37.8530   22.6460   32.1100 N   0  0  0  0  0  0  0  0  0  0  0  0
   38.7220   21.9060   32.8290 C   0  0  0  0  0  0  0  0  0  0  0  0
   39.1150   22.2970   34.0570 N   0  0  0  0  0  0  0  0  0  0  0  0
   36.4160   24.6070   31.8360 C   0  0  0  0  0  0  0  0  0  0  0  0
   35.2830   24.1870   31.1680 C   0  0  0  0  0  0  0  0  0  0  0  0
   34.7790   25.3540   30.6250 C   0  0  0  0  0  0  0  0  0  0  0  0
   35.5970   26.4140   30.9700 C   0  0  0  0  0  0  0  0  0  0  0  0
   36.5720   25.9190   31.7010 O   0  0  0  0  0  0  0  0  0  0  0  0
   40.6220   22.3328   35.8697 H   0  0  0  0  0  0  0  0  0  0  0  0
   40.9876   24.0039   36.5942 H   0  0  0  0  0  0  0  0  0  0  0  0
   39.8547   21.5853   37.7907 H   0  0  0  0  0  0  0  0  0  0  0  0
   41.0731   22.8749   38.3639 H   0  0  0  0  0  0  0  0  0  0  0  0
   38.6711   22.5201   39.4108 H   0  0  0  0  0  0  0  0  0  0  0  0
   39.6005   24.0922   39.3034 H   0  0  0  0  0  0  0  0  0  0  0  0
   37.2596   23.1592   37.6438 H   0  0  0  0  0  0  0  0  0  0  0  0
   37.4221   24.6349   38.6471 H   0  0  0  0  0  0  0  0  0  0  0  0
   39.2995   25.3950   37.1299 H   0  0  0  0  0  0  0  0  0  0  0  0
   37.7262   25.2349   36.2797 H   0  0  0  0  0  0  0  0  0  0  0  0
   37.3461   25.1594   34.2830 H   0  0  0  0  0  0  0  0  0  0  0  0
   39.1155   20.9697   32.4066 H   0  0  0  0  0  0  0  0  0  0  0  0
   34.8782   23.1674   31.0872 H   0  0  0  0  0  0  0  0  0  0  0  0
   33.8680   25.4279   30.0130 H   0  0  0  0  0  0  0  0  0  0  0  0
   35.4590   27.4681   30.6876 H   0  0  0  0  0  0  0  0  0  0  0  0
  1  2  1  0
  1  6  1  0
  2  3  1  0
  3  4  1  0
  5  4  1  0
  6  5  1  0
  7  1  1  0
  8  7  2  0
  9  8  1  0
 10  9  2  0
 10 11  1  0
 11 12  2  0
 12  7  1  0
 13  9  1  0
 14 13  2  0
 15 16  2  0
 15 14  1  0
 16 17  1  0
 17 13  1  0
  2 18  1  0
  2 19  1  0
  3 20  1  0
  3 21  1  0
  4 22  1  0
  4 23  1  0
  5 24  1  0
  5 25  1  0
  6 26  1  0
  6 27  1  0
  8 28  1  0
 11 29  1  0
 14 30  1  0
 15 31  1  0
 16 32  1  0
M  ISO  8  18  13  19  13  20  13  21  13  22  13  23  13  24  13  25  13
M  ISO  7  26  13  27  13  28  14  29  14  30  14  31  14  32  14
M  END
>  <minimizedAffinity>  (1) 
-4.57298565

>  <minimizedRMSD>  (1) 
1.23898637

$$$$
