
     RDKit          3D

 28 29  0  0  0  0  0  0  0  0999 V2000
   38.6400   23.6090   35.6950 N   0  0  0  0  0  0  0  0  0  0  0  0
   39.8640   23.1020   36.2130 C   0  0  0  0  0  0  0  0  0  0  0  0
   39.8980   22.7260   37.6440 C   0  0  0  0  0  0  0  0  0  0  0  0
   39.0040   23.4630   38.5790 C   0  0  0  0  0  0  0  0  0  0  0  0
   37.7430   23.9890   37.9270 C   0  0  0  0  0  0  0  0  0  0  0  0
   38.1510   24.6330   36.5920 C   0  0  0  0  0  0  0  0  0  0  0  0
   37.9960   23.1880   34.4990 C   0  0  0  0  0  0  0  0  0  0  0  0
   37.7520   24.0000   33.3910 C   0  0  0  0  0  0  0  0  0  0  0  0
   37.1120   23.4490   32.2950 C   0  0  0  0  0  0  0  0  0  0  0  0
   36.7510   22.1410   32.3480 N   0  0  0  0  0  0  0  0  0  0  0  0
   37.0020   21.3890   33.4300 C   0  0  0  0  0  0  0  0  0  0  0  0
   37.6200   21.9150   34.4900 N   0  0  0  0  0  0  0  0  0  0  0  0
   36.8530   24.3220   31.1150 C   0  0  0  0  0  0  0  0  0  0  0  0
   37.6890   24.0180   30.0440 F   0  0  0  0  0  0  0  0  0  0  0  0
   35.5340   24.1380   30.7350 F   0  0  0  0  0  0  0  0  0  0  0  0
   37.1370   25.6250   31.4750 F   0  0  0  0  0  0  0  0  0  0  0  0
   40.1216   22.2050   35.6307 H   0  0  0  0  0  0  0  0  0  0  0  0
   40.5723   23.9392   36.1268 H   0  0  0  0  0  0  0  0  0  0  0  0
   39.6333   21.6603   37.7091 H   0  0  0  0  0  0  0  0  0  0  0  0
   40.9152   22.9846   37.9732 H   0  0  0  0  0  0  0  0  0  0  0  0
   38.7159   22.7820   39.3934 H   0  0  0  0  0  0  0  0  0  0  0  0
   39.5669   24.3358   38.9414 H   0  0  0  0  0  0  0  0  0  0  0  0
   37.0400   23.1625   37.7466 H   0  0  0  0  0  0  0  0  0  0  0  0
   37.2466   24.7241   38.5775 H   0  0  0  0  0  0  0  0  0  0  0  0
   38.9437   25.3748   36.7693 H   0  0  0  0  0  0  0  0  0  0  0  0
   37.2791   25.1303   36.1420 H   0  0  0  0  0  0  0  0  0  0  0  0
   38.0618   25.0555   33.3888 H   0  0  0  0  0  0  0  0  0  0  0  0
   36.6967   20.3323   33.4440 H   0  0  0  0  0  0  0  0  0  0  0  0
  1  2  1  0
  1  6  1  0
  2  3  1  0
  3  4  1  0
  5  4  1  0
  6  5  1  0
  7  1  1  0
  8  7  2  0
  9 10  2  0
  9  8  1  0
 10 11  1  0
 11 12  2  0
 12  7  1  0
 13 16  1  0
 13  9  1  0
 14 13  1  0
 15 13  1  0
  2 17  1  0
  2 18  1  0
  3 19  1  0
  3 20  1  0
  4 21  1  0
  4 22  1  0
  5 23  1  0
  5 24  1  0
  6 25  1  0
  6 26  1  0
  8 27  1  0
 11 28  1  0
M  ISO  8  17  13  18  13  19  13  20  13  21  13  22  13  23  13  24  13
M  ISO  4  25  13  26  13  27  14  28  14
M  END
>  <minimizedAffinity>  (1) 
-4.55276203

>  <minimizedRMSD>  (1) 
0.285671592

$$$$
