
     RDKit          3D

 44 48  0  0  0  0  0  0  0  0999 V2000
   41.3470   25.9770   33.9300 C   0  0  0  0  0  0  0  0  0  0  0  0
   42.2560   22.9090   35.8410 C   0  0  0  0  0  0  0  0  0  0  0  0
   41.6050   21.9230   35.0880 C   0  0  0  0  0  0  0  0  0  0  0  0
   40.8810   22.2950   33.9660 C   0  0  0  0  0  0  0  0  0  0  0  0
   40.8490   23.6280   33.6620 N   0  0  0  0  0  0  0  0  0  0  0  0
   41.4880   24.5620   34.4090 C   0  0  0  0  0  0  0  0  0  0  0  0
   42.1780   24.2100   35.4770 N   0  0  0  0  0  0  0  0  0  0  0  0
   40.1570   21.3200   33.1040 C   0  0  0  0  0  0  0  0  0  0  0  0
   40.8690   20.4370   32.2760 C   0  0  0  0  0  0  0  0  0  0  0  0
   39.4930   19.5240   31.4840 S   0  0  0  0  0  0  0  0  0  0  0  0
   38.1920   20.5150   32.4310 C   0  0  0  0  0  0  0  0  0  0  0  0
   38.8470   21.3250   33.1500 N   0  0  0  0  0  0  0  0  0  0  0  0
   36.7140   20.3020   32.2810 C   0  0  0  0  0  0  0  0  0  0  0  0
   35.7100   21.2300   32.1360 C   0  0  0  0  0  0  0  0  0  0  0  0
   34.5520   20.4940   32.0420 C   0  0  0  0  0  0  0  0  0  0  0  0
   34.8880   19.1660   32.1330 C   0  0  0  0  0  0  0  0  0  0  0  0
   36.2090   19.0990   32.2770 O   0  0  0  0  0  0  0  0  0  0  0  0
   40.4690   26.7600   34.8870 C   0  0  0  0  0  0  0  0  0  0  0  0
   39.1580   27.1040   34.2840 C   0  0  0  0  0  0  0  0  0  0  0  0
   38.0530   27.2070   35.0870 C   0  0  0  0  0  0  0  0  0  0  0  0
   36.7640   27.5260   34.6290 C   0  0  0  0  0  0  0  0  0  0  0  0
   36.6440   27.7410   33.2850 N   0  0  0  0  0  0  0  0  0  0  0  0
   37.7520   27.6380   32.4810 C   0  0  0  0  0  0  0  0  0  0  0  0
   38.9780   27.3240   32.9860 N   0  0  0  0  0  0  0  0  0  0  0  0
   37.6520   27.8640   31.0430 C   0  0  0  0  0  0  0  0  0  0  0  0
   38.8140   28.0910   30.2970 C   0  0  0  0  0  0  0  0  0  0  0  0
   38.3850   28.2700   28.9610 C   0  0  0  0  0  0  0  0  0  0  0  0
   37.0140   28.1450   28.9670 N   0  0  0  0  0  0  0  0  0  0  0  0
   36.5950   27.9070   30.1900 N   0  0  0  0  0  0  0  0  0  0  0  0
   42.3408   26.4460   33.8798 H   0  0  0  0  0  0  0  0  0  0  0  0
   40.8852   25.9774   32.9316 H   0  0  0  0  0  0  0  0  0  0  0  0
   42.8335   22.6241   36.7328 H   0  0  0  0  0  0  0  0  0  0  0  0
   41.6677   20.8654   35.3839 H   0  0  0  0  0  0  0  0  0  0  0  0
   41.9548   20.3246   32.1404 H   0  0  0  0  0  0  0  0  0  0  0  0
   35.8111   22.3248   32.1024 H   0  0  0  0  0  0  0  0  0  0  0  0
   33.5366   20.8978   31.9162 H   0  0  0  0  0  0  0  0  0  0  0  0
   34.1931   18.3142   32.0940 H   0  0  0  0  0  0  0  0  0  0  0  0
   40.2970   26.1533   35.7883 H   0  0  0  0  0  0  0  0  0  0  0  0
   40.9869   27.6990   35.1321 H   0  0  0  0  0  0  0  0  0  0  0  0
   38.1841   27.0276   36.1643 H   0  0  0  0  0  0  0  0  0  0  0  0
   35.9037   27.5983   35.3107 H   0  0  0  0  0  0  0  0  0  0  0  0
   39.8476   28.1235   30.6721 H   0  0  0  0  0  0  0  0  0  0  0  0
   39.0227   28.4701   28.0873 H   0  0  0  0  0  0  0  0  0  0  0  0
   36.4079   28.2258   28.1381 H   0  0  0  0  0  0  0  0  0  0  0  0
  1  6  1  0
  1 18  1  0
  3  2  2  0
  4  3  1  0
  5  4  2  0
  5  6  1  0
  6  7  2  0
  7  2  1  0
  8 12  1  0
  8  4  1  0
  9  8  2  0
 10  9  1  0
 10 11  1  0
 11 12  2  0
 13 11  1  0
 14 13  2  0
 15 16  2  0
 15 14  1  0
 16 17  1  0
 17 13  1  0
 19 18  1  0
 19 20  2  0
 21 20  1  0
 22 21  2  0
 23 24  2  0
 23 22  1  0
 24 19  1  0
 25 23  1  0
 26 25  1  0
 27 28  1  0
 27 26  2  0
 28 29  1  0
 29 25  2  0
  1 30  1  0
  1 31  1  0
  2 32  1  0
  3 33  1  0
  9 34  1  0
 14 35  1  0
 15 36  1  0
 16 37  1  0
 18 38  1  0
 18 39  1  0
 20 40  1  0
 21 41  1  0
 26 42  1  0
 27 43  1  0
 28 44  1  0
M  ISO  8  30   8  31   8  32  14  33  14  34  14  35  14  36  14  37  14
M  ISO  7  38   8  39   8  40  14  41  14  42  14  43  14  44   9
M  END
>  <minimizedAffinity>  (1) 
-5.38235474

>  <minimizedRMSD>  (1) 
2.88134241

$$$$
