
     RDKit          3D

 37 38  0  0  0  0  0  0  0  0999 V2000
   38.7100   23.7430   35.9940 N   0  0  0  0  0  0  0  0  0  0  0  0
   39.9350   23.2030   36.5310 C   0  0  0  0  0  0  0  0  0  0  0  0
   39.9530   22.8030   37.9400 C   0  0  0  0  0  0  0  0  0  0  0  0
   39.0410   23.5110   38.8750 C   0  0  0  0  0  0  0  0  0  0  0  0
   37.8040   24.0790   38.2080 C   0  0  0  0  0  0  0  0  0  0  0  0
   38.2140   24.7500   36.9010 C   0  0  0  0  0  0  0  0  0  0  0  0
   38.0970   23.3510   34.7770 C   0  0  0  0  0  0  0  0  0  0  0  0
   37.8950   24.1930   33.6780 C   0  0  0  0  0  0  0  0  0  0  0  0
   37.2800   23.6680   32.5520 C   0  0  0  0  0  0  0  0  0  0  0  0
   36.9010   22.3570   32.5720 N   0  0  0  0  0  0  0  0  0  0  0  0
   37.1100   21.5810   33.6430 C   0  0  0  0  0  0  0  0  0  0  0  0
   37.7050   22.0750   34.7370 N   0  0  0  0  0  0  0  0  0  0  0  0
   37.0530   24.5300   31.3790 C   0  0  0  0  0  0  0  0  0  0  0  0
   37.8880   24.0090   30.2280 C   0  0  0  0  0  0  0  0  0  0  0  0
   35.5920   24.5380   30.9680 C   0  0  0  0  0  0  0  0  0  0  0  0
   37.4380   25.9700   31.6700 C   0  0  0  0  0  0  0  0  0  0  0  0
   40.1886   22.3135   35.9356 H   0  0  0  0  0  0  0  0  0  0  0  0
   40.6500   24.0370   36.4740 H   0  0  0  0  0  0  0  0  0  0  0  0
   39.6980   21.7337   37.9803 H   0  0  0  0  0  0  0  0  0  0  0  0
   40.9630   23.0648   38.2883 H   0  0  0  0  0  0  0  0  0  0  0  0
   38.7213   22.8012   39.6522 H   0  0  0  0  0  0  0  0  0  0  0  0
   39.6023   24.3620   39.2883 H   0  0  0  0  0  0  0  0  0  0  0  0
   37.0911   23.2677   37.9992 H   0  0  0  0  0  0  0  0  0  0  0  0
   37.3261   24.8146   38.8717 H   0  0  0  0  0  0  0  0  0  0  0  0
   39.0032   25.4906   37.0979 H   0  0  0  0  0  0  0  0  0  0  0  0
   37.3465   25.2585   36.4550 H   0  0  0  0  0  0  0  0  0  0  0  0
   38.2160   25.2447   33.7067 H   0  0  0  0  0  0  0  0  0  0  0  0
   36.7904   20.5286   33.6244 H   0  0  0  0  0  0  0  0  0  0  0  0
   38.7589   23.4656   30.6233 H   0  0  0  0  0  0  0  0  0  0  0  0
   37.2804   23.3295   29.6123 H   0  0  0  0  0  0  0  0  0  0  0  0
   38.2312   24.8535   29.6123 H   0  0  0  0  0  0  0  0  0  0  0  0
   34.9582   24.5415   31.8670 H   0  0  0  0  0  0  0  0  0  0  0  0
   35.3844   25.4373   30.3695 H   0  0  0  0  0  0  0  0  0  0  0  0
   35.3745   23.6410   30.3695 H   0  0  0  0  0  0  0  0  0  0  0  0
   37.4796   26.1257   32.7581 H   0  0  0  0  0  0  0  0  0  0  0  0
   38.4243   26.1817   31.2313 H   0  0  0  0  0  0  0  0  0  0  0  0
   36.6889   26.6456   31.2313 H   0  0  0  0  0  0  0  0  0  0  0  0
  1  2  1  0
  1  6  1  0
  2  3  1  0
  3  4  1  0
  5  4  1  0
  6  5  1  0
  7  1  1  0
  8  7  2  0
  9 10  2  0
  9  8  1  0
 10 11  1  0
 11 12  2  0
 12  7  1  0
 13 16  1  0
 13  9  1  0
 14 13  1  0
 15 13  1  0
  2 17  1  0
  2 18  1  0
  3 19  1  0
  3 20  1  0
  4 21  1  0
  4 22  1  0
  5 23  1  0
  5 24  1  0
  6 25  1  0
  6 26  1  0
  8 27  1  0
 11 28  1  0
 14 29  1  0
 14 30  1  0
 14 31  1  0
 15 32  1  0
 15 33  1  0
 15 34  1  0
 16 35  1  0
 16 36  1  0
 16 37  1  0
M  ISO  8  17  13  18  13  19  13  20  13  21  13  22  13  23  13  24  13
M  ISO  8  25  13  26  13  27  14  28  14  29   8  30   8  31   8  32   8
M  ISO  5  33   8  34   8  35   8  36   8  37   8
M  END
>  <minimizedAffinity>  (1) 
-4.51983309

>  <minimizedRMSD>  (1) 
0.503370702

$$$$
