
     RDKit          3D

 32 34  0  0  0  0  0  0  0  0999 V2000
   38.6920   24.5730   35.7230 N   0  0  0  0  0  0  0  0  0  0  0  0
   39.8060   23.7230   35.9890 C   0  0  0  0  0  0  0  0  0  0  0  0
   39.7110   22.7990   37.1320 C   0  0  0  0  0  0  0  0  0  0  0  0
   38.8600   23.1750   38.2750 C   0  0  0  0  0  0  0  0  0  0  0  0
   37.7380   24.1150   37.9090 C   0  0  0  0  0  0  0  0  0  0  0  0
   38.2950   25.1960   36.9620 C   0  0  0  0  0  0  0  0  0  0  0  0
   38.0670   24.7780   34.4510 C   0  0  0  0  0  0  0  0  0  0  0  0
   37.6970   26.0280   33.9410 C   0  0  0  0  0  0  0  0  0  0  0  0
   37.1020   26.0430   32.6930 C   0  0  0  0  0  0  0  0  0  0  0  0
   36.9020   24.8880   32.0210 N   0  0  0  0  0  0  0  0  0  0  0  0
   37.2750   23.6970   32.5500 C   0  0  0  0  0  0  0  0  0  0  0  0
   37.8530   23.6670   33.7590 N   0  0  0  0  0  0  0  0  0  0  0  0
   36.7020   27.3110   32.1220 C   0  0  0  0  0  0  0  0  0  0  0  0
   36.7160   27.8340   30.8480 C   0  0  0  0  0  0  0  0  0  0  0  0
   36.2420   29.1060   30.6960 C   0  0  0  0  0  0  0  0  0  0  0  0
   35.7830   29.8030   31.7620 C   0  0  0  0  0  0  0  0  0  0  0  0
   36.0110   28.6070   33.1720 S   0  0  0  0  0  0  0  0  0  0  0  0
   39.9755   23.1140   35.0888 H   0  0  0  0  0  0  0  0  0  0  0  0
   40.6202   24.4119   36.2584 H   0  0  0  0  0  0  0  0  0  0  0  0
   39.3297   21.8426   36.7448 H   0  0  0  0  0  0  0  0  0  0  0  0
   40.7286   22.7836   37.5493 H   0  0  0  0  0  0  0  0  0  0  0  0
   38.4222   22.2592   38.6987 H   0  0  0  0  0  0  0  0  0  0  0  0
   39.5019   23.7037   38.9950 H   0  0  0  0  0  0  0  0  0  0  0  0
   36.9360   23.5567   37.4039 H   0  0  0  0  0  0  0  0  0  0  0  0
   37.3277   24.5834   38.8158 H   0  0  0  0  0  0  0  0  0  0  0  0
   39.1660   25.6809   37.4270 H   0  0  0  0  0  0  0  0  0  0  0  0
   37.5223   25.9542   36.7668 H   0  0  0  0  0  0  0  0  0  0  0  0
   37.8715   26.9551   34.5067 H   0  0  0  0  0  0  0  0  0  0  0  0
   37.1050   22.7641   31.9925 H   0  0  0  0  0  0  0  0  0  0  0  0
   37.0917   27.2540   29.9922 H   0  0  0  0  0  0  0  0  0  0  0  0
   36.2331   29.5684   29.6980 H   0  0  0  0  0  0  0  0  0  0  0  0
   35.3756   30.8244   31.7890 H   0  0  0  0  0  0  0  0  0  0  0  0
  1  2  1  0
  1  6  1  0
  2  3  1  0
  3  4  1  0
  5  4  1  0
  6  5  1  0
  7  1  1  0
  8  7  2  0
  9  8  1  0
 10 11  1  0
 10  9  2  0
 11 12  2  0
 12  7  1  0
 13  9  1  0
 13 17  1  0
 14 13  2  0
 15 14  1  0
 15 16  2  0
 16 17  1  0
  2 18  1  0
  2 19  1  0
  3 20  1  0
  3 21  1  0
  4 22  1  0
  4 23  1  0
  5 24  1  0
  5 25  1  0
  6 26  1  0
  6 27  1  0
  8 28  1  0
 11 29  1  0
 14 30  1  0
 15 31  1  0
 16 32  1  0
M  ISO  8  18  13  19  13  20  13  21  13  22  13  23  13  24  13  25  13
M  ISO  7  26  13  27  13  28  14  29  14  30  14  31  14  32  14
M  END
>  <minimizedAffinity>  (1) 
-4.49451733

>  <minimizedRMSD>  (1) 
2.56926107

$$$$
