
     RDKit          3D

 32 34  0  0  0  0  0  0  0  0999 V2000
   38.6660   23.6570   35.6830 N   0  0  0  0  0  0  0  0  0  0  0  0
   39.9000   23.1370   36.2140 C   0  0  0  0  0  0  0  0  0  0  0  0
   39.9050   22.7370   37.6350 C   0  0  0  0  0  0  0  0  0  0  0  0
   38.9860   23.4500   38.5580 C   0  0  0  0  0  0  0  0  0  0  0  0
   37.7550   23.9930   37.8970 C   0  0  0  0  0  0  0  0  0  0  0  0
   38.1750   24.6640   36.5760 C   0  0  0  0  0  0  0  0  0  0  0  0
   38.0530   23.2300   34.4740 C   0  0  0  0  0  0  0  0  0  0  0  0
   37.6980   24.0840   33.4160 C   0  0  0  0  0  0  0  0  0  0  0  0
   37.1050   23.5330   32.2930 C   0  0  0  0  0  0  0  0  0  0  0  0
   36.8950   22.1940   32.2650 N   0  0  0  0  0  0  0  0  0  0  0  0
   37.2480   21.3970   33.2990 C   0  0  0  0  0  0  0  0  0  0  0  0
   37.8190   21.9070   34.3880 N   0  0  0  0  0  0  0  0  0  0  0  0
   36.7210   24.4160   31.1600 C   0  0  0  0  0  0  0  0  0  0  0  0
   35.2360   24.7910   31.0420 C   0  0  0  0  0  0  0  0  0  0  0  0
   36.3160   25.8090   31.3790 C   0  0  0  0  0  0  0  0  0  0  0  0
   40.1695   22.2516   35.6196 H   0  0  0  0  0  0  0  0  0  0  0  0
   40.6116   23.9734   36.1513 H   0  0  0  0  0  0  0  0  0  0  0  0
   39.6473   21.6684   37.6760 H   0  0  0  0  0  0  0  0  0  0  0  0
   40.9126   22.9961   37.9923 H   0  0  0  0  0  0  0  0  0  0  0  0
   38.6743   22.7482   39.3456 H   0  0  0  0  0  0  0  0  0  0  0  0
   39.5407   24.3135   38.9539 H   0  0  0  0  0  0  0  0  0  0  0  0
   37.0506   23.1736   37.6910 H   0  0  0  0  0  0  0  0  0  0  0  0
   37.2614   24.7238   38.5545 H   0  0  0  0  0  0  0  0  0  0  0  0
   38.9664   25.4025   36.7716 H   0  0  0  0  0  0  0  0  0  0  0  0
   37.3116   25.1750   36.1250 H   0  0  0  0  0  0  0  0  0  0  0  0
   37.8870   25.1658   33.4787 H   0  0  0  0  0  0  0  0  0  0  0  0
   37.0611   20.3146   33.2395 H   0  0  0  0  0  0  0  0  0  0  0  0
   37.4820   23.9524   30.5150 H   0  0  0  0  0  0  0  0  0  0  0  0
   34.7418   24.8075   30.0594 H   0  0  0  0  0  0  0  0  0  0  0  0
   34.2940   24.4534   31.4988 H   0  0  0  0  0  0  0  0  0  0  0  0
   36.3640   26.2378   32.3909 H   0  0  0  0  0  0  0  0  0  0  0  0
   36.6221   26.7736   30.9478 H   0  0  0  0  0  0  0  0  0  0  0  0
  1  2  1  0
  1  6  1  0
  2  3  1  0
  3  4  1  0
  5  4  1  0
  6  5  1  0
  7  1  1  0
  8  7  2  0
  9  8  1  0
 10  9  2  0
 10 11  1  0
 11 12  2  0
 12  7  1  0
 13 15  1  0
 13  9  1  0
 14 13  1  0
 14 15  1  0
  2 16  1  0
  2 17  1  0
  3 18  1  0
  3 19  1  0
  4 20  1  0
  4 21  1  0
  5 22  1  0
  5 23  1  0
  6 24  1  0
  6 25  1  0
  8 26  1  0
 11 27  1  0
 13 28  1  0
 14 29  1  0
 14 30  1  0
 15 31  1  0
 15 32  1  0
M  ISO  8  16  13  17  13  18  13  19  13  20  13  21  13  22  13  23  13
M  ISO  8  24  13  25  13  26  14  27  14  28  13  29  13  30  13  31  13
M  ISO  1  32  13
M  END
>  <minimizedAffinity>  (1) 
-4.49235964

>  <minimizedRMSD>  (1) 
0.48707068

$$$$
