
     RDKit          3D

 34 35  0  0  0  0  0  0  0  0999 V2000
   38.6560   23.6450   35.7370 N   0  0  0  0  0  0  0  0  0  0  0  0
   39.8780   23.1130   36.2740 C   0  0  0  0  0  0  0  0  0  0  0  0
   39.9050   22.7370   37.6920 C   0  0  0  0  0  0  0  0  0  0  0  0
   39.0290   23.5140   38.6170 C   0  0  0  0  0  0  0  0  0  0  0  0
   37.7640   24.0220   37.9600 C   0  0  0  0  0  0  0  0  0  0  0  0
   38.1820   24.6770   36.6340 C   0  0  0  0  0  0  0  0  0  0  0  0
   38.0210   23.2300   34.5310 C   0  0  0  0  0  0  0  0  0  0  0  0
   37.7500   24.0880   33.4520 C   0  0  0  0  0  0  0  0  0  0  0  0
   37.1230   23.5330   32.3360 C   0  0  0  0  0  0  0  0  0  0  0  0
   36.8140   22.2140   32.3560 N   0  0  0  0  0  0  0  0  0  0  0  0
   37.0940   21.4260   33.4210 C   0  0  0  0  0  0  0  0  0  0  0  0
   37.6950   21.9330   34.4990 N   0  0  0  0  0  0  0  0  0  0  0  0
   36.8220   24.4070   31.1800 C   0  0  0  0  0  0  0  0  0  0  0  0
   37.5530   25.7140   31.2410 C   0  0  0  0  0  0  0  0  0  0  0  0
   35.3370   24.6930   31.0820 C   0  0  0  0  0  0  0  0  0  0  0  0
   40.1252   22.2124   35.6927 H   0  0  0  0  0  0  0  0  0  0  0  0
   40.5944   23.9443   36.1982 H   0  0  0  0  0  0  0  0  0  0  0  0
   39.6055   21.6808   37.7607 H   0  0  0  0  0  0  0  0  0  0  0  0
   40.9315   22.9513   38.0242 H   0  0  0  0  0  0  0  0  0  0  0  0
   38.7481   22.8647   39.4593 H   0  0  0  0  0  0  0  0  0  0  0  0
   39.6015   24.3943   38.9444 H   0  0  0  0  0  0  0  0  0  0  0  0
   37.0752   23.1860   37.7684 H   0  0  0  0  0  0  0  0  0  0  0  0
   37.2453   24.7429   38.6090 H   0  0  0  0  0  0  0  0  0  0  0  0
   38.9854   25.4055   36.8179 H   0  0  0  0  0  0  0  0  0  0  0  0
   37.3232   25.1982   36.1859 H   0  0  0  0  0  0  0  0  0  0  0  0
   38.0210   25.1536   33.4857 H   0  0  0  0  0  0  0  0  0  0  0  0
   36.8240   20.3599   33.3973 H   0  0  0  0  0  0  0  0  0  0  0  0
   37.1611   23.8548   30.2911 H   0  0  0  0  0  0  0  0  0  0  0  0
   37.7112   25.9969   32.2922 H   0  0  0  0  0  0  0  0  0  0  0  0
   38.5260   25.6138   30.7378 H   0  0  0  0  0  0  0  0  0  0  0  0
   36.9583   26.4906   30.7378 H   0  0  0  0  0  0  0  0  0  0  0  0
   34.9119   24.7749   32.0932 H   0  0  0  0  0  0  0  0  0  0  0  0
   35.1805   25.6378   30.5408 H   0  0  0  0  0  0  0  0  0  0  0  0
   34.8408   23.8739   30.5408 H   0  0  0  0  0  0  0  0  0  0  0  0
  1  2  1  0
  1  6  1  0
  2  3  1  0
  3  4  1  0
  5  4  1  0
  6  5  1  0
  7  1  1  0
  8  7  2  0
  9 10  2  0
  9  8  1  0
 10 11  1  0
 11 12  2  0
 12  7  1  0
 13 14  1  0
 13  9  1  0
 15 13  1  0
  2 16  1  0
  2 17  1  0
  3 18  1  0
  3 19  1  0
  4 20  1  0
  4 21  1  0
  5 22  1  0
  5 23  1  0
  6 24  1  0
  6 25  1  0
  8 26  1  0
 11 27  1  0
 13 28  1  0
 14 29  1  0
 14 30  1  0
 14 31  1  0
 15 32  1  0
 15 33  1  0
 15 34  1  0
M  ISO  8  16  13  17  13  18  13  19  13  20  13  21  13  22  13  23  13
M  ISO  8  24  13  25  13  26  14  27  14  28   8  29   8  30   8  31   8
M  ISO  3  32   8  33   8  34   8
M  END
>  <minimizedAffinity>  (1) 
-4.44195652

>  <minimizedRMSD>  (1) 
0.194121823

$$$$
