
     RDKit          3D

 39 41  0  0  0  0  0  0  0  0999 V2000
   38.8780   24.0870   35.9890 N   0  0  0  0  0  0  0  0  0  0  0  0
   40.0290   23.4090   36.4990 C   0  0  0  0  0  0  0  0  0  0  0  0
   39.8950   22.7000   37.7970 C   0  0  0  0  0  0  0  0  0  0  0  0
   38.9290   23.2710   38.7860 C   0  0  0  0  0  0  0  0  0  0  0  0
   37.7990   24.0300   38.1680 C   0  0  0  0  0  0  0  0  0  0  0  0
   38.3620   24.9190   37.0430 C   0  0  0  0  0  0  0  0  0  0  0  0
   38.3370   23.9650   34.6860 C   0  0  0  0  0  0  0  0  0  0  0  0
   38.2700   24.9910   33.7480 C   0  0  0  0  0  0  0  0  0  0  0  0
   37.7140   24.7230   32.5100 C   0  0  0  0  0  0  0  0  0  0  0  0
   37.2510   23.4780   32.2490 N   0  0  0  0  0  0  0  0  0  0  0  0
   37.3290   22.4980   33.1810 C   0  0  0  0  0  0  0  0  0  0  0  0
   37.8650   22.7530   34.3730 N   0  0  0  0  0  0  0  0  0  0  0  0
   37.6230   25.7200   31.5330 N   0  0  0  0  0  0  0  0  0  0  0  0
   38.4610   25.8020   30.3820 C   0  0  0  0  0  0  0  0  0  0  0  0
   38.7400   27.2500   30.0470 C   0  0  0  0  0  0  0  0  0  0  0  0
   37.5530   28.0300   29.8020 N   0  0  0  0  0  0  0  0  0  0  0  0
   36.3530   27.3810   30.2840 C   0  0  0  0  0  0  0  0  0  0  0  0
   36.6340   26.7740   31.6320 C   0  0  0  0  0  0  0  0  0  0  0  0
   40.3311   22.6644   35.7478 H   0  0  0  0  0  0  0  0  0  0  0  0
   40.7587   24.2088   36.6936 H   0  0  0  0  0  0  0  0  0  0  0  0
   39.5781   21.6690   37.5808 H   0  0  0  0  0  0  0  0  0  0  0  0
   40.8812   22.7913   38.2755 H   0  0  0  0  0  0  0  0  0  0  0  0
   38.5076   22.4429   39.3748 H   0  0  0  0  0  0  0  0  0  0  0  0
   39.4924   23.9872   39.4022 H   0  0  0  0  0  0  0  0  0  0  0  0
   37.0637   23.3260   37.7513 H   0  0  0  0  0  0  0  0  0  0  0  0
   37.3045   24.6531   38.9278 H   0  0  0  0  0  0  0  0  0  0  0  0
   39.1706   25.5485   37.4427 H   0  0  0  0  0  0  0  0  0  0  0  0
   37.5612   25.5602   36.6461 H   0  0  0  0  0  0  0  0  0  0  0  0
   38.6515   25.9948   33.9863 H   0  0  0  0  0  0  0  0  0  0  0  0
   36.9494   21.4911   32.9530 H   0  0  0  0  0  0  0  0  0  0  0  0
   39.4108   25.2857   30.5855 H   0  0  0  0  0  0  0  0  0  0  0  0
   37.9524   25.3261   29.5306 H   0  0  0  0  0  0  0  0  0  0  0  0
   39.2842   27.7021   30.8893 H   0  0  0  0  0  0  0  0  0  0  0  0
   39.3250   27.2561   29.1155 H   0  0  0  0  0  0  0  0  0  0  0  0
   37.6509   28.9383   30.2777 H   0  0  0  0  0  0  0  0  0  0  0  0
   35.5439   28.1208   30.3738 H   0  0  0  0  0  0  0  0  0  0  0  0
   36.0458   26.5950   29.5785 H   0  0  0  0  0  0  0  0  0  0  0  0
   35.7018   26.3550   32.0388 H   0  0  0  0  0  0  0  0  0  0  0  0
   37.0258   27.5599   32.2944 H   0  0  0  0  0  0  0  0  0  0  0  0
  1  2  1  0
  1  6  1  0
  2  3  1  0
  3  4  1  0
  5  4  1  0
  6  5  1  0
  7  1  1  0
  8  7  2  0
  9  8  1  0
 10  9  2  0
 10 11  1  0
 11 12  2  0
 12  7  1  0
 13 18  1  0
 13  9  1  0
 14 13  1  0
 15 14  1  0
 16 15  1  0
 16 17  1  0
 17 18  1  0
  2 19  1  0
  2 20  1  0
  3 21  1  0
  3 22  1  0
  4 23  1  0
  4 24  1  0
  5 25  1  0
  5 26  1  0
  6 27  1  0
  6 28  1  0
  8 29  1  0
 11 30  1  0
 14 31  1  0
 14 32  1  0
 15 33  1  0
 15 34  1  0
 16 35  1  0
 17 36  1  0
 17 37  1  0
 18 38  1  0
 18 39  1  0
M  ISO  8  19  13  20  13  21  13  22  13  23  13  24  13  25  13  26  13
M  ISO  8  27  13  28  13  29  14  30  14  31  13  32  13  33  13  34  13
M  ISO  5  35   5  36  13  37  13  38  13  39  13
M  END
>  <minimizedAffinity>  (1) 
-4.41588926

>  <minimizedRMSD>  (1) 
1.35370409

$$$$
