
     RDKit          3D

 27 28  0  0  0  0  0  0  0  0999 V2000
   38.6430   23.6110   35.7120 N   0  0  0  0  0  0  0  0  0  0  0  0
   39.8690   23.0930   36.2390 C   0  0  0  0  0  0  0  0  0  0  0  0
   39.8930   22.7270   37.6730 C   0  0  0  0  0  0  0  0  0  0  0  0
   38.9960   23.4550   38.5910 C   0  0  0  0  0  0  0  0  0  0  0  0
   37.7430   23.9860   37.9390 C   0  0  0  0  0  0  0  0  0  0  0  0
   38.1580   24.6420   36.6030 C   0  0  0  0  0  0  0  0  0  0  0  0
   38.0000   23.1920   34.5180 C   0  0  0  0  0  0  0  0  0  0  0  0
   37.8600   23.9590   33.3650 C   0  0  0  0  0  0  0  0  0  0  0  0
   37.2080   23.4170   32.2730 C   0  0  0  0  0  0  0  0  0  0  0  0
   36.7260   22.1410   32.3760 N   0  0  0  0  0  0  0  0  0  0  0  0
   36.8760   21.4190   33.5090 C   0  0  0  0  0  0  0  0  0  0  0  0
   37.5070   21.9470   34.5610 N   0  0  0  0  0  0  0  0  0  0  0  0
   37.0490   24.1650   31.0910 N   0  0  0  0  0  0  0  0  0  0  0  0
   40.1200   22.1897   35.6636 H   0  0  0  0  0  0  0  0  0  0  0  0
   40.5868   23.9216   36.1480 H   0  0  0  0  0  0  0  0  0  0  0  0
   39.6351   21.6599   37.7421 H   0  0  0  0  0  0  0  0  0  0  0  0
   40.9053   22.9975   38.0076 H   0  0  0  0  0  0  0  0  0  0  0  0
   38.7006   22.7705   39.3998 H   0  0  0  0  0  0  0  0  0  0  0  0
   39.5572   24.3280   38.9555 H   0  0  0  0  0  0  0  0  0  0  0  0
   37.0394   23.1618   37.7503 H   0  0  0  0  0  0  0  0  0  0  0  0
   37.2461   24.7180   38.5926 H   0  0  0  0  0  0  0  0  0  0  0  0
   38.9539   25.3794   36.7840 H   0  0  0  0  0  0  0  0  0  0  0  0
   37.2945   25.1523   36.1515 H   0  0  0  0  0  0  0  0  0  0  0  0
   38.2624   24.9819   33.3232 H   0  0  0  0  0  0  0  0  0  0  0  0
   36.4778   20.3951   33.5645 H   0  0  0  0  0  0  0  0  0  0  0  0
   37.4197   25.1243   31.0348 H   0  0  0  0  0  0  0  0  0  0  0  0
   36.5619   23.7529   30.2824 H   0  0  0  0  0  0  0  0  0  0  0  0
  1  2  1  0
  1  6  1  0
  2  3  1  0
  3  4  1  0
  5  4  1  0
  6  5  1  0
  7 12  1  0
  7  1  1  0
  8  7  2  0
  9 10  2  0
  9  8  1  0
 10 11  1  0
 11 12  2  0
 13  9  1  0
  2 14  1  0
  2 15  1  0
  3 16  1  0
  3 17  1  0
  4 18  1  0
  4 19  1  0
  5 20  1  0
  5 21  1  0
  6 22  1  0
  6 23  1  0
  8 24  1  0
 11 25  1  0
 13 26  1  0
 13 27  1  0
M  ISO  8  14  13  15  13  16  13  17  13  18  13  19  13  20  13  21  13
M  ISO  4  22  13  23  13  24  14  25  14
M  END
>  <minimizedAffinity>  (1) 
-3.96001983

>  <minimizedRMSD>  (1) 
0.0916090608

$$$$
