
     RDKit          3D

 26 27  0  0  0  0  0  0  0  0999 V2000
   38.6210   23.6320   35.7270 N   0  0  0  0  0  0  0  0  0  0  0  0
   39.8630   23.1130   36.2480 C   0  0  0  0  0  0  0  0  0  0  0  0
   39.8880   22.7270   37.6760 C   0  0  0  0  0  0  0  0  0  0  0  0
   38.9980   23.4650   38.6040 C   0  0  0  0  0  0  0  0  0  0  0  0
   37.7580   23.9960   37.9510 C   0  0  0  0  0  0  0  0  0  0  0  0
   38.1370   24.6510   36.6210 C   0  0  0  0  0  0  0  0  0  0  0  0
   37.9850   23.2000   34.5230 C   0  0  0  0  0  0  0  0  0  0  0  0
   37.8630   24.0050   33.3790 C   0  0  0  0  0  0  0  0  0  0  0  0
   37.2170   23.4400   32.2790 C   0  0  0  0  0  0  0  0  0  0  0  0
   36.7450   22.1560   32.3720 N   0  0  0  0  0  0  0  0  0  0  0  0
   36.8940   21.4310   33.5050 C   0  0  0  0  0  0  0  0  0  0  0  0
   37.5080   21.9440   34.5720 N   0  0  0  0  0  0  0  0  0  0  0  0
   37.0900   24.2170   31.1520 O   0  0  0  0  0  0  0  0  0  0  0  0
   40.1217   22.2205   35.6593 H   0  0  0  0  0  0  0  0  0  0  0  0
   40.5753   23.9473   36.1671 H   0  0  0  0  0  0  0  0  0  0  0  0
   39.6139   21.6633   37.7338 H   0  0  0  0  0  0  0  0  0  0  0  0
   40.9061   22.9718   38.0129 H   0  0  0  0  0  0  0  0  0  0  0  0
   38.6997   22.7842   39.4149 H   0  0  0  0  0  0  0  0  0  0  0  0
   39.5649   24.3324   38.9732 H   0  0  0  0  0  0  0  0  0  0  0  0
   37.0548   23.1701   37.7682 H   0  0  0  0  0  0  0  0  0  0  0  0
   37.2805   24.7379   38.6080 H   0  0  0  0  0  0  0  0  0  0  0  0
   38.9241   25.4009   36.7886 H   0  0  0  0  0  0  0  0  0  0  0  0
   37.2583   25.1474   36.1835 H   0  0  0  0  0  0  0  0  0  0  0  0
   38.2576   25.0314   33.3514 H   0  0  0  0  0  0  0  0  0  0  0  0
   36.5030   20.4037   33.5465 H   0  0  0  0  0  0  0  0  0  0  0  0
   37.4511   25.1388   31.1430 H   0  0  0  0  0  0  0  0  0  0  0  0
  1  2  1  0
  1  6  1  0
  2  3  1  0
  3  4  1  0
  5  4  1  0
  6  5  1  0
  7 12  1  0
  7  1  1  0
  8  7  2  0
  9 10  2  0
  9  8  1  0
 10 11  1  0
 11 12  2  0
 13  9  1  0
  2 14  1  0
  2 15  1  0
  3 16  1  0
  3 17  1  0
  4 18  1  0
  4 19  1  0
  5 20  1  0
  5 21  1  0
  6 22  1  0
  6 23  1  0
  8 24  1  0
 11 25  1  0
 13 26  1  0
M  ISO  8  14  13  15  13  16  13  17  13  18  13  19  13  20  13  21  13
M  ISO  5  22  13  23  13  24  14  25  14  26   3
M  END
>  <minimizedAffinity>  (1) 
-3.93155909

>  <minimizedRMSD>  (1) 
0.075524196

$$$$
