
     RDKit          3D

 26 27  0  0  0  0  0  0  0  0999 V2000
   38.6560   23.5680   35.7770 N   0  0  0  0  0  0  0  0  0  0  0  0
   39.8740   23.0740   36.3200 C   0  0  0  0  0  0  0  0  0  0  0  0
   39.8970   22.7300   37.7520 C   0  0  0  0  0  0  0  0  0  0  0  0
   38.9960   23.4800   38.6610 C   0  0  0  0  0  0  0  0  0  0  0  0
   37.7540   24.0300   37.9930 C   0  0  0  0  0  0  0  0  0  0  0  0
   38.1760   24.6320   36.6440 C   0  0  0  0  0  0  0  0  0  0  0  0
   38.0040   23.1200   34.6010 C   0  0  0  0  0  0  0  0  0  0  0  0
   37.8650   23.8800   33.4250 C   0  0  0  0  0  0  0  0  0  0  0  0
   37.2020   23.3110   32.3520 C   0  0  0  0  0  0  0  0  0  0  0  0
   36.7170   22.0500   32.4800 N   0  0  0  0  0  0  0  0  0  0  0  0
   36.8670   21.3510   33.6210 C   0  0  0  0  0  0  0  0  0  0  0  0
   37.5040   21.8810   34.6670 N   0  0  0  0  0  0  0  0  0  0  0  0
   37.0730   24.3380   30.9140 S   0  0  0  0  0  0  0  0  0  0  0  0
   40.1383   22.1650   35.7598 H   0  0  0  0  0  0  0  0  0  0  0  0
   40.5802   23.9119   36.2246 H   0  0  0  0  0  0  0  0  0  0  0  0
   39.6356   21.6649   37.8372 H   0  0  0  0  0  0  0  0  0  0  0  0
   40.9104   22.9998   38.0840 H   0  0  0  0  0  0  0  0  0  0  0  0
   38.6815   22.8036   39.4694 H   0  0  0  0  0  0  0  0  0  0  0  0
   39.5671   24.3463   39.0262 H   0  0  0  0  0  0  0  0  0  0  0  0
   37.0265   23.2210   37.8309 H   0  0  0  0  0  0  0  0  0  0  0  0
   37.2836   24.7965   38.6264 H   0  0  0  0  0  0  0  0  0  0  0  0
   38.9785   25.3672   36.8037 H   0  0  0  0  0  0  0  0  0  0  0  0
   37.3150   25.1314   36.1757 H   0  0  0  0  0  0  0  0  0  0  0  0
   38.2727   24.8996   33.3604 H   0  0  0  0  0  0  0  0  0  0  0  0
   36.4599   20.3316   33.6917 H   0  0  0  0  0  0  0  0  0  0  0  0
   36.9091   25.6428   31.2979 H   0  0  0  0  0  0  0  0  0  0  0  0
  1  2  1  0
  1  6  1  0
  2  3  1  0
  3  4  1  0
  5  4  1  0
  6  5  1  0
  7 12  1  0
  7  1  1  0
  8  7  2  0
  9 10  2  0
  9  8  1  0
 10 11  1  0
 11 12  2  0
 13  9  1  0
  2 14  1  0
  2 15  1  0
  3 16  1  0
  3 17  1  0
  4 18  1  0
  4 19  1  0
  5 20  1  0
  5 21  1  0
  6 22  1  0
  6 23  1  0
  8 24  1  0
 11 25  1  0
 13 26  1  0
M  ISO  8  14  13  15  13  16  13  17  13  18  13  19  13  20  13  21  13
M  ISO  5  22  13  23  13  24  14  25  14  26  11
M  END
>  <minimizedAffinity>  (1) 
-3.99730372

>  <minimizedRMSD>  (1) 
0.104912519

$$$$
