
     RDKit          3D

 35 37  0  0  0  0  0  0  0  0999 V2000
   38.6270   23.5230   35.7480 N   0  0  0  0  0  0  0  0  0  0  0  0
   39.8540   23.0530   36.2900 C   0  0  0  0  0  0  0  0  0  0  0  0
   39.8980   22.7300   37.7250 C   0  0  0  0  0  0  0  0  0  0  0  0
   38.9940   23.4750   38.6330 C   0  0  0  0  0  0  0  0  0  0  0  0
   37.7320   24.0040   37.9640 C   0  0  0  0  0  0  0  0  0  0  0  0
   38.1290   24.5930   36.6140 C   0  0  0  0  0  0  0  0  0  0  0  0
   37.9700   23.0650   34.5820 C   0  0  0  0  0  0  0  0  0  0  0  0
   37.8680   23.7910   33.3820 C   0  0  0  0  0  0  0  0  0  0  0  0
   37.1870   23.1950   32.3260 C   0  0  0  0  0  0  0  0  0  0  0  0
   36.6600   21.9550   32.5030 N   0  0  0  0  0  0  0  0  0  0  0  0
   36.7790   21.2940   33.6660 C   0  0  0  0  0  0  0  0  0  0  0  0
   37.4270   21.8420   34.6950 N   0  0  0  0  0  0  0  0  0  0  0  0
   37.0960   24.1590   30.8520 S   0  0  0  0  0  0  0  0  0  0  0  0
   37.0380   25.9160   31.1890 C   0  0  0  0  0  0  0  0  0  0  0  0
   38.1250   26.7870   31.1050 C   0  0  0  0  0  0  0  0  0  0  0  0
   37.9280   28.1070   31.3920 C   0  0  0  0  0  0  0  0  0  0  0  0
   36.6970   28.6100   31.7610 C   0  0  0  0  0  0  0  0  0  0  0  0
   35.6700   27.6810   31.8210 C   0  0  0  0  0  0  0  0  0  0  0  0
   35.8070   26.3730   31.5500 N   0  0  0  0  0  0  0  0  0  0  0  0
   40.1252   22.1393   35.7408 H   0  0  0  0  0  0  0  0  0  0  0  0
   40.5457   23.9010   36.1785 H   0  0  0  0  0  0  0  0  0  0  0  0
   39.6571   21.6616   37.8275 H   0  0  0  0  0  0  0  0  0  0  0  0
   40.9096   23.0234   38.0422 H   0  0  0  0  0  0  0  0  0  0  0  0
   38.6948   22.8019   39.4500 H   0  0  0  0  0  0  0  0  0  0  0  0
   39.5551   24.3525   38.9866 H   0  0  0  0  0  0  0  0  0  0  0  0
   37.0146   23.1832   37.8173 H   0  0  0  0  0  0  0  0  0  0  0  0
   37.2580   24.7721   38.5928 H   0  0  0  0  0  0  0  0  0  0  0  0
   38.9179   25.3457   36.7590 H   0  0  0  0  0  0  0  0  0  0  0  0
   37.2537   25.0682   36.1471 H   0  0  0  0  0  0  0  0  0  0  0  0
   38.3104   24.7931   33.2823 H   0  0  0  0  0  0  0  0  0  0  0  0
   36.3381   20.2917   33.7709 H   0  0  0  0  0  0  0  0  0  0  0  0
   39.1194   26.4178   30.8137 H   0  0  0  0  0  0  0  0  0  0  0  0
   38.7830   28.7960   31.3267 H   0  0  0  0  0  0  0  0  0  0  0  0
   36.5416   29.6743   31.9915 H   0  0  0  0  0  0  0  0  0  0  0  0
   34.6719   28.0408   32.1112 H   0  0  0  0  0  0  0  0  0  0  0  0
  1  2  1  0
  1  6  1  0
  2  3  1  0
  3  4  1  0
  5  4  1  0
  6  5  1  0
  7 12  1  0
  7  1  1  0
  8  7  2  0
  9 10  2  0
  9  8  1  0
 10 11  1  0
 11 12  2  0
 13 14  1  0
 13  9  1  0
 14 19  1  0
 15 14  2  0
 15 16  1  0
 16 17  2  0
 17 18  1  0
 19 18  2  0
  2 20  1  0
  2 21  1  0
  3 22  1  0
  3 23  1  0
  4 24  1  0
  4 25  1  0
  5 26  1  0
  5 27  1  0
  6 28  1  0
  6 29  1  0
  8 30  1  0
 11 31  1  0
 15 32  1  0
 16 33  1  0
 17 34  1  0
 18 35  1  0
M  ISO  8  20  13  21  13  22  13  23  13  24  13  25  13  26  13  27  13
M  ISO  8  28  13  29  13  30  14  31  14  32  14  33  14  34  14  35  14
M  END
>  <minimizedAffinity>  (1) 
-4.99623013

>  <minimizedRMSD>  (1) 
1.82541263

$$$$
