
     RDKit          3D

 40 43  0  0  0  0  0  0  0  0999 V2000
   38.1290   23.1020   34.4150 C   0  0  0  0  0  0  0  0  0  0  0  0
   37.5330   23.9310   33.4400 C   0  0  0  0  0  0  0  0  0  0  0  0
   36.9970   23.3560   32.3150 C   0  0  0  0  0  0  0  0  0  0  0  0
   37.0640   21.9960   32.1920 N   0  0  0  0  0  0  0  0  0  0  0  0
   37.6360   21.2320   33.1360 C   0  0  0  0  0  0  0  0  0  0  0  0
   38.1600   21.7820   34.2310 N   0  0  0  0  0  0  0  0  0  0  0  0
   38.7180   23.5690   35.6200 N   0  0  0  0  0  0  0  0  0  0  0  0
   39.9310   23.1260   36.1950 C   0  0  0  0  0  0  0  0  0  0  0  0
   39.9060   22.7540   37.6290 C   0  0  0  0  0  0  0  0  0  0  0  0
   38.9570   23.4660   38.5090 C   0  0  0  0  0  0  0  0  0  0  0  0
   37.7160   23.9630   37.8070 C   0  0  0  0  0  0  0  0  0  0  0  0
   38.1650   24.5980   36.4790 C   0  0  0  0  0  0  0  0  0  0  0  0
   36.2750   24.4640   31.1490 S   0  0  0  0  0  0  0  0  0  0  0  0
   37.1400   26.0250   31.2340 C   0  0  0  0  0  0  0  0  0  0  0  0
   36.8320   27.2370   31.8110 C   0  0  0  0  0  0  0  0  0  0  0  0
   37.8470   28.1040   31.5790 N   0  0  0  0  0  0  0  0  0  0  0  0
   38.8170   27.5160   30.8700 C   0  0  0  0  0  0  0  0  0  0  0  0
   40.0340   27.9570   30.3840 C   0  0  0  0  0  0  0  0  0  0  0  0
   40.8540   27.1160   29.6650 C   0  0  0  0  0  0  0  0  0  0  0  0
   40.4520   25.8220   29.4310 C   0  0  0  0  0  0  0  0  0  0  0  0
   39.2260   25.3940   29.9260 C   0  0  0  0  0  0  0  0  0  0  0  0
   38.3900   26.2050   30.6430 C   0  0  0  0  0  0  0  0  0  0  0  0
   37.4987   25.0215   33.5799 H   0  0  0  0  0  0  0  0  0  0  0  0
   37.6726   20.1405   33.0044 H   0  0  0  0  0  0  0  0  0  0  0  0
   40.2614   22.2420   35.6298 H   0  0  0  0  0  0  0  0  0  0  0  0
   40.6040   23.9943   36.1397 H   0  0  0  0  0  0  0  0  0  0  0  0
   39.6651   21.6822   37.6857 H   0  0  0  0  0  0  0  0  0  0  0  0
   40.8996   23.0378   38.0061 H   0  0  0  0  0  0  0  0  0  0  0  0
   38.6482   22.7792   39.3108 H   0  0  0  0  0  0  0  0  0  0  0  0
   39.4831   24.3545   38.8882 H   0  0  0  0  0  0  0  0  0  0  0  0
   37.0327   23.1236   37.6109 H   0  0  0  0  0  0  0  0  0  0  0  0
   37.1839   24.6973   38.4296 H   0  0  0  0  0  0  0  0  0  0  0  0
   38.9309   25.3622   36.6773 H   0  0  0  0  0  0  0  0  0  0  0  0
   37.3021   25.0674   35.9841 H   0  0  0  0  0  0  0  0  0  0  0  0
   35.9118   27.4641   32.3693 H   0  0  0  0  0  0  0  0  0  0  0  0
   37.8687   29.0812   31.9038 H   0  0  0  0  0  0  0  0  0  0  0  0
   40.3513   28.9929   30.5741 H   0  0  0  0  0  0  0  0  0  0  0  0
   41.8204   27.4756   29.2819 H   0  0  0  0  0  0  0  0  0  0  0  0
   41.0926   25.1344   28.8593 H   0  0  0  0  0  0  0  0  0  0  0  0
   38.9141   24.3570   29.7326 H   0  0  0  0  0  0  0  0  0  0  0  0
  1  7  1  0
  2  1  2  0
  3  2  1  0
  4  3  2  0
  4  5  1  0
  5  6  2  0
  6  1  1  0
  7  8  1  0
  7 12  1  0
  8  9  1  0
  9 10  1  0
 11 10  1  0
 12 11  1  0
 13 14  1  0
 13  3  1  0
 14 15  2  0
 16 15  1  0
 17 16  1  0
 18 17  2  0
 19 18  1  0
 20 19  2  0
 20 21  1  0
 21 22  2  0
 22 17  1  0
 22 14  1  0
  2 23  1  0
  5 24  1  0
  8 25  1  0
  8 26  1  0
  9 27  1  0
  9 28  1  0
 10 29  1  0
 10 30  1  0
 11 31  1  0
 11 32  1  0
 12 33  1  0
 12 34  1  0
 15 35  1  0
 16 36  1  0
 18 37  1  0
 19 38  1  0
 20 39  1  0
 21 40  1  0
M  ISO  8  23  14  24  14  25  13  26  13  27  13  28  13  29  13  30  13
M  ISO  8  31  13  32  13  33  13  34  13  35  14  36   9  37  14  38  14
M  ISO  2  39  14  40  14
M  END
>  <minimizedAffinity>  (1) 
-4.87373972

>  <minimizedRMSD>  (1) 
3.03257179

$$$$
