
     RDKit          3D

 29 30  0  0  0  0  0  0  0  0999 V2000
   38.2430   22.9030   36.2610 N   0  0  0  0  0  0  0  0  0  0  0  0
   39.6130   22.6260   36.5730 C   0  0  0  0  0  0  0  0  0  0  0  0
   40.0250   22.7380   37.9800 C   0  0  0  0  0  0  0  0  0  0  0  0
   39.2920   23.6850   38.8480 C   0  0  0  0  0  0  0  0  0  0  0  0
   37.8630   23.9690   38.4100 C   0  0  0  0  0  0  0  0  0  0  0  0
   37.8700   24.1590   36.8880 C   0  0  0  0  0  0  0  0  0  0  0  0
   37.3820   22.1040   35.4810 C   0  0  0  0  0  0  0  0  0  0  0  0
   37.4710   21.9420   34.0860 C   0  0  0  0  0  0  0  0  0  0  0  0
   36.5550   21.1250   33.4540 C   0  0  0  0  0  0  0  0  0  0  0  0
   35.6120   20.5140   34.1980 N   0  0  0  0  0  0  0  0  0  0  0  0
   35.5420   20.6800   35.5250 C   0  0  0  0  0  0  0  0  0  0  0  0
   36.4140   21.4640   36.1620 N   0  0  0  0  0  0  0  0  0  0  0  0
   36.7560   20.9920   31.6970 S   0  0  0  0  0  0  0  0  0  0  0  0
   35.9970   19.4510   31.0670 C   0  0  0  0  0  0  0  0  0  0  0  0
   34.6620   19.4930   31.4310 F   0  0  0  0  0  0  0  0  0  0  0  0
   36.5670   18.3470   31.6490 F   0  0  0  0  0  0  0  0  0  0  0  0
   36.1650   19.3680   29.7040 F   0  0  0  0  0  0  0  0  0  0  0  0
   39.8228   21.5959   36.2493 H   0  0  0  0  0  0  0  0  0  0  0  0
   40.1830   23.4087   36.0510 H   0  0  0  0  0  0  0  0  0  0  0  0
   39.9258   21.7391   38.4298 H   0  0  0  0  0  0  0  0  0  0  0  0
   41.0464   23.1437   37.9342 H   0  0  0  0  0  0  0  0  0  0  0  0
   39.2625   23.2662   39.8647 H   0  0  0  0  0  0  0  0  0  0  0  0
   39.8316   24.6419   38.7912 H   0  0  0  0  0  0  0  0  0  0  0  0
   37.2137   23.1227   38.6788 H   0  0  0  0  0  0  0  0  0  0  0  0
   37.4796   24.8713   38.9088 H   0  0  0  0  0  0  0  0  0  0  0  0
   38.5972   24.9382   36.6161 H   0  0  0  0  0  0  0  0  0  0  0  0
   36.8708   24.4655   36.5451 H   0  0  0  0  0  0  0  0  0  0  0  0
   38.2549   22.4561   33.5105 H   0  0  0  0  0  0  0  0  0  0  0  0
   34.7565   20.1640   36.0966 H   0  0  0  0  0  0  0  0  0  0  0  0
  1  2  1  0
  1  6  1  0
  2  3  1  0
  3  4  1  0
  5  4  1  0
  6  5  1  0
  7 12  1  0
  7  1  1  0
  8  7  2  0
  9  8  1  0
  9 10  2  0
 10 11  1  0
 11 12  2  0
 13  9  1  0
 14 15  1  0
 14 16  1  0
 14 13  1  0
 17 14  1  0
  2 18  1  0
  2 19  1  0
  3 20  1  0
  3 21  1  0
  4 22  1  0
  4 23  1  0
  5 24  1  0
  5 25  1  0
  6 26  1  0
  6 27  1  0
  8 28  1  0
 11 29  1  0
M  ISO  8  18  13  19  13  20  13  21  13  22  13  23  13  24  13  25  13
M  ISO  4  26  13  27  13  28  14  29  14
M  END
>  <minimizedAffinity>  (1) 
-4.64616632

>  <minimizedRMSD>  (1) 
2.69243765

$$$$
