
     RDKit          3D

 33 35  0  0  0  0  0  0  0  0999 V2000
   38.6550   23.5770   35.8400 N   0  0  0  0  0  0  0  0  0  0  0  0
   39.8870   23.0770   36.3740 C   0  0  0  0  0  0  0  0  0  0  0  0
   39.9260   22.7490   37.8070 C   0  0  0  0  0  0  0  0  0  0  0  0
   39.0160   23.4920   38.7220 C   0  0  0  0  0  0  0  0  0  0  0  0
   37.8100   24.0840   38.0500 C   0  0  0  0  0  0  0  0  0  0  0  0
   38.2100   24.6580   36.6890 C   0  0  0  0  0  0  0  0  0  0  0  0
   37.9800   23.1020   34.6790 C   0  0  0  0  0  0  0  0  0  0  0  0
   37.8650   23.8310   33.4870 C   0  0  0  0  0  0  0  0  0  0  0  0
   37.1810   23.2470   32.4360 C   0  0  0  0  0  0  0  0  0  0  0  0
   36.6600   22.0160   32.6000 N   0  0  0  0  0  0  0  0  0  0  0  0
   36.7880   21.3410   33.7600 C   0  0  0  0  0  0  0  0  0  0  0  0
   37.4460   21.8870   34.7920 N   0  0  0  0  0  0  0  0  0  0  0  0
   37.0770   24.2240   30.9640 S   0  0  0  0  0  0  0  0  0  0  0  0
   38.5170   23.8960   29.9560 C   0  0  0  0  0  0  0  0  0  0  0  0
   39.0940   22.6610   29.7600 C   0  0  0  0  0  0  0  0  0  0  0  0
   40.1790   22.8230   28.9240 C   0  0  0  0  0  0  0  0  0  0  0  0
   40.2200   24.1720   28.6410 C   0  0  0  0  0  0  0  0  0  0  0  0
   39.2280   24.7560   29.2680 O   0  0  0  0  0  0  0  0  0  0  0  0
   40.1376   22.1604   35.8199 H   0  0  0  0  0  0  0  0  0  0  0  0
   40.5984   23.9081   36.2588 H   0  0  0  0  0  0  0  0  0  0  0  0
   39.6851   21.6801   37.9040 H   0  0  0  0  0  0  0  0  0  0  0  0
   40.9362   23.0435   38.1275 H   0  0  0  0  0  0  0  0  0  0  0  0
   38.6695   22.7976   39.5015 H   0  0  0  0  0  0  0  0  0  0  0  0
   39.5960   24.3347   39.1262 H   0  0  0  0  0  0  0  0  0  0  0  0
   37.0494   23.3021   37.9082 H   0  0  0  0  0  0  0  0  0  0  0  0
   37.3995   24.8878   38.6788 H   0  0  0  0  0  0  0  0  0  0  0  0
   39.0251   25.3850   36.8196 H   0  0  0  0  0  0  0  0  0  0  0  0
   37.3483   25.1639   36.2290 H   0  0  0  0  0  0  0  0  0  0  0  0
   38.3044   24.8348   33.3906 H   0  0  0  0  0  0  0  0  0  0  0  0
   36.3501   20.3369   33.8599 H   0  0  0  0  0  0  0  0  0  0  0  0
   38.7496   21.7109   30.1945 H   0  0  0  0  0  0  0  0  0  0  0  0
   40.8646   22.0432   28.5609 H   0  0  0  0  0  0  0  0  0  0  0  0
   40.9593   24.6727   27.9985 H   0  0  0  0  0  0  0  0  0  0  0  0
  1  2  1  0
  1  6  1  0
  2  3  1  0
  3  4  1  0
  5  4  1  0
  6  5  1  0
  7 12  1  0
  7  1  1  0
  8  7  2  0
  9 10  2  0
  9  8  1  0
 10 11  1  0
 11 12  2  0
 13  9  1  0
 14 13  1  0
 15 14  2  0
 16 15  1  0
 17 16  2  0
 17 18  1  0
 18 14  1  0
  2 19  1  0
  2 20  1  0
  3 21  1  0
  3 22  1  0
  4 23  1  0
  4 24  1  0
  5 25  1  0
  5 26  1  0
  6 27  1  0
  6 28  1  0
  8 29  1  0
 11 30  1  0
 15 31  1  0
 16 32  1  0
 17 33  1  0
M  ISO  8  19  13  20  13  21  13  22  13  23  13  24  13  25  13  26  13
M  ISO  7  27  13  28  13  29  14  30  14  31  14  32  14  33  14
M  END
>  <minimizedAffinity>  (1) 
-4.27395296

>  <minimizedRMSD>  (1) 
0.134667143

$$$$
