
     RDKit          3D

 32 33  0  0  0  0  0  0  0  0999 V2000
   38.7600   23.8360   35.8690 N   0  0  0  0  0  0  0  0  0  0  0  0
   39.9510   23.2850   36.4360 C   0  0  0  0  0  0  0  0  0  0  0  0
   39.8910   22.7640   37.8050 C   0  0  0  0  0  0  0  0  0  0  0  0
   38.9220   23.3870   38.7380 C   0  0  0  0  0  0  0  0  0  0  0  0
   37.7180   24.0130   38.0610 C   0  0  0  0  0  0  0  0  0  0  0  0
   38.2040   24.7830   36.8360 C   0  0  0  0  0  0  0  0  0  0  0  0
   38.1960   23.5430   34.6090 C   0  0  0  0  0  0  0  0  0  0  0  0
   38.1020   24.4550   33.5440 C   0  0  0  0  0  0  0  0  0  0  0  0
   37.5170   24.0130   32.3600 C   0  0  0  0  0  0  0  0  0  0  0  0
   37.0670   22.7370   32.2850 N   0  0  0  0  0  0  0  0  0  0  0  0
   37.1730   21.8930   33.3270 C   0  0  0  0  0  0  0  0  0  0  0  0
   37.7310   22.2880   34.4780 N   0  0  0  0  0  0  0  0  0  0  0  0
   37.4410   25.2220   31.0770 S   0  0  0  0  0  0  0  0  0  0  0  0
   35.9110   26.1630   31.0780 C   0  0  0  0  0  0  0  0  0  0  0  0
   34.7140   25.2580   30.8630 C   0  0  0  0  0  0  0  0  0  0  0  0
   40.2686   22.4566   35.7856 H   0  0  0  0  0  0  0  0  0  0  0  0
   40.6420   24.1385   36.4998 H   0  0  0  0  0  0  0  0  0  0  0  0
   39.6421   21.6946   37.7388 H   0  0  0  0  0  0  0  0  0  0  0  0
   40.8773   22.9951   38.2337 H   0  0  0  0  0  0  0  0  0  0  0  0
   38.5632   22.6114   39.4306 H   0  0  0  0  0  0  0  0  0  0  0  0
   39.4557   24.2023   39.2484 H   0  0  0  0  0  0  0  0  0  0  0  0
   37.0147   23.2261   37.7509 H   0  0  0  0  0  0  0  0  0  0  0  0
   37.2028   24.6923   38.7560 H   0  0  0  0  0  0  0  0  0  0  0  0
   38.9802   25.5022   37.1363 H   0  0  0  0  0  0  0  0  0  0  0  0
   37.3636   25.3283   36.3818 H   0  0  0  0  0  0  0  0  0  0  0  0
   38.4781   25.4840   33.6423 H   0  0  0  0  0  0  0  0  0  0  0  0
   36.7960   20.8640   33.2321 H   0  0  0  0  0  0  0  0  0  0  0  0
   35.8049   26.6754   32.0456 H   0  0  0  0  0  0  0  0  0  0  0  0
   35.9492   26.8932   30.2562 H   0  0  0  0  0  0  0  0  0  0  0  0
   34.3072   24.9504   31.8376 H   0  0  0  0  0  0  0  0  0  0  0  0
   33.9415   25.7999   30.2977 H   0  0  0  0  0  0  0  0  0  0  0  0
   35.0248   24.3670   30.2977 H   0  0  0  0  0  0  0  0  0  0  0  0
  1  2  1  0
  1  6  1  0
  2  3  1  0
  3  4  1  0
  5  4  1  0
  6  5  1  0
  7  1  1  0
  8  7  2  0
  9  8  1  0
 10  9  2  0
 10 11  1  0
 11 12  2  0
 12  7  1  0
 13 14  1  0
 13  9  1  0
 15 14  1  0
  2 16  1  0
  2 17  1  0
  3 18  1  0
  3 19  1  0
  4 20  1  0
  4 21  1  0
  5 22  1  0
  5 23  1  0
  6 24  1  0
  6 25  1  0
  8 26  1  0
 11 27  1  0
 14 28  1  0
 14 29  1  0
 15 30  1  0
 15 31  1  0
 15 32  1  0
M  ISO  8  16  13  17  13  18  13  19  13  20  13  21  13  22  13  23  13
M  ISO  8  24  13  25  13  26  14  27  14  28   8  29   8  30   8  31   8
M  ISO  1  32   8
M  END
>  <minimizedAffinity>  (1) 
-4.2494626

>  <minimizedRMSD>  (1) 
1.23377013

$$$$
