
     RDKit          3D

 42 44  0  0  0  0  0  0  0  0999 V2000
   38.0780   23.2470   34.6090 C   0  0  0  0  0  0  0  0  0  0  0  0
   37.9730   24.0400   33.4560 C   0  0  0  0  0  0  0  0  0  0  0  0
   37.3300   23.4970   32.3490 C   0  0  0  0  0  0  0  0  0  0  0  0
   36.8360   22.2360   32.4370 N   0  0  0  0  0  0  0  0  0  0  0  0
   36.9540   21.5110   33.5530 C   0  0  0  0  0  0  0  0  0  0  0  0
   37.5680   22.0000   34.6410 N   0  0  0  0  0  0  0  0  0  0  0  0
   38.7050   23.6600   35.8160 N   0  0  0  0  0  0  0  0  0  0  0  0
   39.9230   23.1480   36.3770 C   0  0  0  0  0  0  0  0  0  0  0  0
   39.9190   22.7590   37.7920 C   0  0  0  0  0  0  0  0  0  0  0  0
   38.9880   23.4870   38.6970 C   0  0  0  0  0  0  0  0  0  0  0  0
   37.7620   24.0590   38.0150 C   0  0  0  0  0  0  0  0  0  0  0  0
   38.2040   24.7020   36.7070 C   0  0  0  0  0  0  0  0  0  0  0  0
   37.2480   24.5650   30.9530 S   0  0  0  0  0  0  0  0  0  0  0  0
   38.0220   26.1640   31.2340 C   0  0  0  0  0  0  0  0  0  0  0  0
   37.0590   27.2800   30.8370 C   0  0  0  0  0  0  0  0  0  0  0  0
   36.6070   28.0230   32.0510 C   0  0  0  0  0  0  0  0  0  0  0  0
   36.9190   27.5340   33.3160 C   0  0  0  0  0  0  0  0  0  0  0  0
   36.5470   28.1470   34.4860 C   0  0  0  0  0  0  0  0  0  0  0  0
   35.8210   29.3140   34.4340 C   0  0  0  0  0  0  0  0  0  0  0  0
   35.5050   29.8100   33.2020 C   0  0  0  0  0  0  0  0  0  0  0  0
   35.8690   29.2090   32.0140 C   0  0  0  0  0  0  0  0  0  0  0  0
   38.3863   25.0590   33.4287 H   0  0  0  0  0  0  0  0  0  0  0  0
   36.5393   20.4925   33.5803 H   0  0  0  0  0  0  0  0  0  0  0  0
   40.2032   22.2584   35.7939 H   0  0  0  0  0  0  0  0  0  0  0  0
   40.6257   23.9928   36.3260 H   0  0  0  0  0  0  0  0  0  0  0  0
   39.6596   21.6911   37.8405 H   0  0  0  0  0  0  0  0  0  0  0  0
   40.9249   23.0128   38.1577 H   0  0  0  0  0  0  0  0  0  0  0  0
   38.6517   22.7882   39.4771 H   0  0  0  0  0  0  0  0  0  0  0  0
   39.5497   24.3439   39.0974 H   0  0  0  0  0  0  0  0  0  0  0  0
   37.0403   23.2546   37.8097 H   0  0  0  0  0  0  0  0  0  0  0  0
   37.2797   24.8060   38.6626 H   0  0  0  0  0  0  0  0  0  0  0  0
   39.0013   25.4334   36.9055 H   0  0  0  0  0  0  0  0  0  0  0  0
   37.3530   25.2174   36.2378 H   0  0  0  0  0  0  0  0  0  0  0  0
   38.2780   26.2639   32.2991 H   0  0  0  0  0  0  0  0  0  0  0  0
   38.9353   26.2380   30.6254 H   0  0  0  0  0  0  0  0  0  0  0  0
   37.5692   27.9750   30.1539 H   0  0  0  0  0  0  0  0  0  0  0  0
   36.1835   26.8396   30.3374 H   0  0  0  0  0  0  0  0  0  0  0  0
   37.4980   26.6010   33.3819 H   0  0  0  0  0  0  0  0  0  0  0  0
   36.8266   27.7094   35.4557 H   0  0  0  0  0  0  0  0  0  0  0  0
   35.5059   29.8297   35.3531 H   0  0  0  0  0  0  0  0  0  0  0  0
   34.9260   30.7440   33.1532 H   0  0  0  0  0  0  0  0  0  0  0  0
   35.5821   29.6574   31.0514 H   0  0  0  0  0  0  0  0  0  0  0  0
  1  6  1  0
  1  7  1  0
  2  1  2  0
  3  4  2  0
  3  2  1  0
  4  5  1  0
  5  6  2  0
  7  8  1  0
  7 12  1  0
  8  9  1  0
  9 10  1  0
 11 10  1  0
 12 11  1  0
 13 14  1  0
 13  3  1  0
 15 14  1  0
 15 16  1  0
 16 17  2  0
 17 18  1  0
 19 18  2  0
 20 19  1  0
 21 16  1  0
 21 20  2  0
  2 22  1  0
  5 23  1  0
  8 24  1  0
  8 25  1  0
  9 26  1  0
  9 27  1  0
 10 28  1  0
 10 29  1  0
 11 30  1  0
 11 31  1  0
 12 32  1  0
 12 33  1  0
 14 34  1  0
 14 35  1  0
 15 36  1  0
 15 37  1  0
 17 38  1  0
 18 39  1  0
 19 40  1  0
 20 41  1  0
 21 42  1  0
M  ISO  8  22  14  23  14  24  13  25  13  26  13  27  13  28  13  29  13
M  ISO  8  30  13  31  13  32  13  33  13  34   8  35   8  36   8  37   8
M  ISO  5  38  14  39  14  40  14  41  14  42  14
M  END
>  <minimizedAffinity>  (1) 
-5.21321297

>  <minimizedRMSD>  (1) 
2.91570139

$$$$
