
     RDKit          3D

 45 47  0  0  0  0  0  0  0  0999 V2000
   38.2730   23.5180   34.5380 C   0  0  0  0  0  0  0  0  0  0  0  0
   38.3580   24.3880   33.4250 C   0  0  0  0  0  0  0  0  0  0  0  0
   37.7930   23.9530   32.2310 C   0  0  0  0  0  0  0  0  0  0  0  0
   37.1950   22.7300   32.1930 N   0  0  0  0  0  0  0  0  0  0  0  0
   37.1380   21.9410   33.2740 C   0  0  0  0  0  0  0  0  0  0  0  0
   37.6700   22.3260   34.4370 N   0  0  0  0  0  0  0  0  0  0  0  0
   38.7980   23.8200   35.8160 N   0  0  0  0  0  0  0  0  0  0  0  0
   39.9870   23.2670   36.4030 C   0  0  0  0  0  0  0  0  0  0  0  0
   39.8980   22.7440   37.7710 C   0  0  0  0  0  0  0  0  0  0  0  0
   38.9080   23.3680   38.6840 C   0  0  0  0  0  0  0  0  0  0  0  0
   37.7040   23.9790   37.9790 C   0  0  0  0  0  0  0  0  0  0  0  0
   38.2180   24.7580   36.7690 C   0  0  0  0  0  0  0  0  0  0  0  0
   37.9360   25.0800   30.8950 S   0  0  0  0  0  0  0  0  0  0  0  0
   37.5470   26.7710   31.3240 C   0  0  0  0  0  0  0  0  0  0  0  0
   36.1820   26.8740   31.9850 C   0  0  0  0  0  0  0  0  0  0  0  0
   35.9650   28.1670   32.5870 N   0  0  0  0  0  0  0  0  0  0  0  0
   35.5560   29.2820   31.9900 C   0  0  0  0  0  0  0  0  0  0  0  0
   35.4090   30.4200   32.7370 C   0  0  0  0  0  0  0  0  0  0  0  0
   34.9520   31.6700   32.0740 C   0  0  0  0  0  0  0  0  0  0  0  0
   35.6730   30.4570   34.1060 C   0  0  0  0  0  0  0  0  0  0  0  0
   35.5310   31.5180   34.7730 O   0  0  0  0  0  0  0  0  0  0  0  0
   36.0820   29.3110   34.6520 N   0  0  0  0  0  0  0  0  0  0  0  0
   36.2260   28.1930   33.9220 C   0  0  0  0  0  0  0  0  0  0  0  0
   36.6180   27.1950   34.5810 O   0  0  0  0  0  0  0  0  0  0  0  0
   38.8509   25.3684   33.5012 H   0  0  0  0  0  0  0  0  0  0  0  0
   36.6451   20.9602   33.2027 H   0  0  0  0  0  0  0  0  0  0  0  0
   40.3171   22.4401   35.7570 H   0  0  0  0  0  0  0  0  0  0  0  0
   40.6794   24.1185   36.4777 H   0  0  0  0  0  0  0  0  0  0  0  0
   39.6502   21.6747   37.6987 H   0  0  0  0  0  0  0  0  0  0  0  0
   40.8752   22.9734   38.2210 H   0  0  0  0  0  0  0  0  0  0  0  0
   38.5454   22.5960   39.3787 H   0  0  0  0  0  0  0  0  0  0  0  0
   39.4263   24.1929   39.1947 H   0  0  0  0  0  0  0  0  0  0  0  0
   37.0199   23.1833   37.6489 H   0  0  0  0  0  0  0  0  0  0  0  0
   37.1563   24.6457   38.6613 H   0  0  0  0  0  0  0  0  0  0  0  0
   38.9844   25.4780   37.0917 H   0  0  0  0  0  0  0  0  0  0  0  0
   37.3879   25.3039   36.2969 H   0  0  0  0  0  0  0  0  0  0  0  0
   38.3111   27.1490   32.0192 H   0  0  0  0  0  0  0  0  0  0  0  0
   37.5311   27.3683   30.4004 H   0  0  0  0  0  0  0  0  0  0  0  0
   35.4061   26.7025   31.2244 H   0  0  0  0  0  0  0  0  0  0  0  0
   36.1346   26.1177   32.7823 H   0  0  0  0  0  0  0  0  0  0  0  0
   35.3388   29.2903   30.9117 H   0  0  0  0  0  0  0  0  0  0  0  0
   34.6805   32.4126   32.8388 H   0  0  0  0  0  0  0  0  0  0  0  0
   35.7622   32.0695   31.4464 H   0  0  0  0  0  0  0  0  0  0  0  0
   34.0752   31.4527   31.4464 H   0  0  0  0  0  0  0  0  0  0  0  0
   36.2929   29.2827   35.6598 H   0  0  0  0  0  0  0  0  0  0  0  0
  1  7  1  0
  2  1  2  0
  3  2  1  0
  4  3  2  0
  4  5  1  0
  5  6  2  0
  6  1  1  0
  7  8  1  0
  7 12  1  0
  8  9  1  0
  9 10  1  0
 11 10  1  0
 12 11  1  0
 13 14  1  0
 13  3  1  0
 14 15  1  0
 15 16  1  0
 16 23  1  0
 17 16  1  0
 17 18  2  0
 18 20  1  0
 19 18  1  0
 20 22  1  0
 20 21  2  0
 23 24  2  0
 23 22  1  0
  2 25  1  0
  5 26  1  0
  8 27  1  0
  8 28  1  0
  9 29  1  0
  9 30  1  0
 10 31  1  0
 10 32  1  0
 11 33  1  0
 11 34  1  0
 12 35  1  0
 12 36  1  0
 14 37  1  0
 14 38  1  0
 15 39  1  0
 15 40  1  0
 17 41  1  0
 19 42  1  0
 19 43  1  0
 19 44  1  0
 22 45  1  0
M  ISO  8  25  14  26  14  27  13  28  13  29  13  30  13  31  13  32  13
M  ISO  8  33  13  34  13  35  13  36  13  37   8  38   8  39   8  40   8
M  ISO  5  41  14  42   8  43   8  44   8  45   9
M  END
>  <minimizedAffinity>  (1) 
-4.98814774

>  <minimizedRMSD>  (1) 
3.3744688

$$$$
