
     RDKit          3D

 40 42  0  0  0  0  0  0  0  0999 V2000
   38.0030   23.0900   34.5910 C   0  0  0  0  0  0  0  0  0  0  0  0
   37.9510   23.8160   33.3780 C   0  0  0  0  0  0  0  0  0  0  0  0
   37.2920   23.2280   32.2980 C   0  0  0  0  0  0  0  0  0  0  0  0
   36.7390   22.0000   32.4620 N   0  0  0  0  0  0  0  0  0  0  0  0
   36.8120   21.3420   33.6390 C   0  0  0  0  0  0  0  0  0  0  0  0
   37.4360   21.8770   34.6950 N   0  0  0  0  0  0  0  0  0  0  0  0
   38.6360   23.5600   35.7670 N   0  0  0  0  0  0  0  0  0  0  0  0
   39.8720   23.0950   36.3270 C   0  0  0  0  0  0  0  0  0  0  0  0
   39.8870   22.7420   37.7570 C   0  0  0  0  0  0  0  0  0  0  0  0
   38.9640   23.4840   38.6540 C   0  0  0  0  0  0  0  0  0  0  0  0
   37.7230   23.9990   37.9690 C   0  0  0  0  0  0  0  0  0  0  0  0
   38.1310   24.6200   36.6280 C   0  0  0  0  0  0  0  0  0  0  0  0
   37.2630   24.1800   30.8250 S   0  0  0  0  0  0  0  0  0  0  0  0
   37.5690   25.9290   31.1060 C   0  0  0  0  0  0  0  0  0  0  0  0
   36.2740   26.7250   30.9660 C   0  0  0  0  0  0  0  0  0  0  0  0
   36.0300   27.5760   32.1510 C   0  0  0  0  0  0  0  0  0  0  0  0
   36.8050   27.3220   33.2800 C   0  0  0  0  0  0  0  0  0  0  0  0
   36.6780   28.0410   34.4550 C   0  0  0  0  0  0  0  0  0  0  0  0
   35.7400   29.0280   34.4420 N   0  0  0  0  0  0  0  0  0  0  0  0
   35.0010   29.2630   33.3510 C   0  0  0  0  0  0  0  0  0  0  0  0
   35.1030   28.5760   32.1920 N   0  0  0  0  0  0  0  0  0  0  0  0
   38.4141   24.8098   33.2894 H   0  0  0  0  0  0  0  0  0  0  0  0
   36.3500   20.3480   33.7314 H   0  0  0  0  0  0  0  0  0  0  0  0
   40.1706   22.1982   35.7643 H   0  0  0  0  0  0  0  0  0  0  0  0
   40.5540   23.9542   36.2460 H   0  0  0  0  0  0  0  0  0  0  0  0
   39.6361   21.6739   37.8359 H   0  0  0  0  0  0  0  0  0  0  0  0
   40.8950   23.0139   38.1033 H   0  0  0  0  0  0  0  0  0  0  0  0
   38.6557   22.8100   39.4668 H   0  0  0  0  0  0  0  0  0  0  0  0
   39.5142   24.3641   39.0183 H   0  0  0  0  0  0  0  0  0  0  0  0
   37.0228   23.1685   37.7958 H   0  0  0  0  0  0  0  0  0  0  0  0
   37.2294   24.7532   38.5995 H   0  0  0  0  0  0  0  0  0  0  0  0
   38.9164   25.3728   36.7906 H   0  0  0  0  0  0  0  0  0  0  0  0
   37.2649   25.1090   36.1582 H   0  0  0  0  0  0  0  0  0  0  0  0
   37.9721   26.0681   32.1200 H   0  0  0  0  0  0  0  0  0  0  0  0
   38.2918   26.2893   30.3592 H   0  0  0  0  0  0  0  0  0  0  0  0
   36.3426   27.3652   30.0742 H   0  0  0  0  0  0  0  0  0  0  0  0
   35.4399   26.0138   30.8742 H   0  0  0  0  0  0  0  0  0  0  0  0
   37.5506   26.5145   33.2354 H   0  0  0  0  0  0  0  0  0  0  0  0
   37.2941   27.8294   35.3413 H   0  0  0  0  0  0  0  0  0  0  0  0
   34.2581   30.0727   33.4015 H   0  0  0  0  0  0  0  0  0  0  0  0
  1  6  1  0
  1  7  1  0
  2  1  2  0
  3  4  2  0
  3  2  1  0
  4  5  1  0
  5  6  2  0
  7  8  1  0
  7 12  1  0
  8  9  1  0
  9 10  1  0
 11 10  1  0
 12 11  1  0
 13 14  1  0
 13  3  1  0
 15 14  1  0
 15 16  1  0
 16 21  1  0
 16 17  2  0
 17 18  1  0
 19 18  2  0
 20 19  1  0
 21 20  2  0
  2 22  1  0
  5 23  1  0
  8 24  1  0
  8 25  1  0
  9 26  1  0
  9 27  1  0
 10 28  1  0
 10 29  1  0
 11 30  1  0
 11 31  1  0
 12 32  1  0
 12 33  1  0
 14 34  1  0
 14 35  1  0
 15 36  1  0
 15 37  1  0
 17 38  1  0
 18 39  1  0
 20 40  1  0
M  ISO  8  22  14  23  14  24  13  25  13  26  13  27  13  28  13  29  13
M  ISO  8  30  13  31  13  32  13  33  13  34   8  35   8  36   8  37   8
M  ISO  3  38  14  39  14  40  14
M  END
>  <minimizedAffinity>  (1) 
-4.9480319

>  <minimizedRMSD>  (1) 
2.6561482

$$$$
