
     RDKit          3D

 39 41  0  0  0  0  0  0  0  0999 V2000
   38.0100   23.0850   34.5870 C   0  0  0  0  0  0  0  0  0  0  0  0
   37.9590   23.7840   33.3610 C   0  0  0  0  0  0  0  0  0  0  0  0
   37.2980   23.1950   32.2940 C   0  0  0  0  0  0  0  0  0  0  0  0
   36.7300   21.9810   32.4620 N   0  0  0  0  0  0  0  0  0  0  0  0
   36.7930   21.3380   33.6370 C   0  0  0  0  0  0  0  0  0  0  0  0
   37.4210   21.8730   34.6900 N   0  0  0  0  0  0  0  0  0  0  0  0
   38.6360   23.5410   35.7530 N   0  0  0  0  0  0  0  0  0  0  0  0
   39.8590   23.0720   36.3200 C   0  0  0  0  0  0  0  0  0  0  0  0
   39.8890   22.7330   37.7440 C   0  0  0  0  0  0  0  0  0  0  0  0
   38.9750   23.4880   38.6430 C   0  0  0  0  0  0  0  0  0  0  0  0
   37.7180   24.0090   37.9630 C   0  0  0  0  0  0  0  0  0  0  0  0
   38.1290   24.6090   36.6140 C   0  0  0  0  0  0  0  0  0  0  0  0
   37.3020   24.1690   30.8110 S   0  0  0  0  0  0  0  0  0  0  0  0
   37.6340   25.8980   31.1020 C   0  0  0  0  0  0  0  0  0  0  0  0
   36.3590   26.7380   31.0510 C   0  0  0  0  0  0  0  0  0  0  0  0
   36.2910   27.4640   32.3260 C   0  0  0  0  0  0  0  0  0  0  0  0
   36.9300   27.2450   33.4890 C   0  0  0  0  0  0  0  0  0  0  0  0
   36.7030   28.0700   34.5640 C   0  0  0  0  0  0  0  0  0  0  0  0
   35.7800   29.1230   34.3450 C   0  0  0  0  0  0  0  0  0  0  0  0
   35.2810   28.8820   32.6180 S   0  0  0  0  0  0  0  0  0  0  0  0
   38.4320   24.7714   33.2552 H   0  0  0  0  0  0  0  0  0  0  0  0
   36.3187   20.3506   33.7370 H   0  0  0  0  0  0  0  0  0  0  0  0
   40.1468   22.1667   35.7655 H   0  0  0  0  0  0  0  0  0  0  0  0
   40.5397   23.9319   36.2356 H   0  0  0  0  0  0  0  0  0  0  0  0
   39.6362   21.6664   37.8354 H   0  0  0  0  0  0  0  0  0  0  0  0
   40.9016   23.0032   38.0781 H   0  0  0  0  0  0  0  0  0  0  0  0
   38.6717   22.8219   39.4642 H   0  0  0  0  0  0  0  0  0  0  0  0
   39.5331   24.3695   38.9916 H   0  0  0  0  0  0  0  0  0  0  0  0
   37.0087   23.1833   37.8047 H   0  0  0  0  0  0  0  0  0  0  0  0
   37.2300   24.7704   38.5893 H   0  0  0  0  0  0  0  0  0  0  0  0
   38.9155   25.3621   36.7695 H   0  0  0  0  0  0  0  0  0  0  0  0
   37.2597   25.0879   36.1397 H   0  0  0  0  0  0  0  0  0  0  0  0
   38.0943   26.0098   32.0948 H   0  0  0  0  0  0  0  0  0  0  0  0
   38.3094   26.2540   30.3101 H   0  0  0  0  0  0  0  0  0  0  0  0
   36.4036   27.4470   30.2111 H   0  0  0  0  0  0  0  0  0  0  0  0
   35.4705   26.1066   30.9031 H   0  0  0  0  0  0  0  0  0  0  0  0
   37.6346   26.4051   33.5796 H   0  0  0  0  0  0  0  0  0  0  0  0
   37.2050   27.9228   35.5317 H   0  0  0  0  0  0  0  0  0  0  0  0
   35.4471   29.8981   35.0509 H   0  0  0  0  0  0  0  0  0  0  0  0
  1  6  1  0
  1  7  1  0
  2  1  2  0
  3  4  2  0
  3  2  1  0
  4  5  1  0
  5  6  2  0
  7  8  1  0
  7 12  1  0
  8  9  1  0
  9 10  1  0
 11 10  1  0
 12 11  1  0
 13 14  1  0
 13  3  1  0
 15 14  1  0
 15 16  1  0
 16 20  1  0
 16 17  2  0
 17 18  1  0
 19 18  2  0
 20 19  1  0
  2 21  1  0
  5 22  1  0
  8 23  1  0
  8 24  1  0
  9 25  1  0
  9 26  1  0
 10 27  1  0
 10 28  1  0
 11 29  1  0
 11 30  1  0
 12 31  1  0
 12 32  1  0
 14 33  1  0
 14 34  1  0
 15 35  1  0
 15 36  1  0
 17 37  1  0
 18 38  1  0
 19 39  1  0
M  ISO  8  21  14  22  14  23  13  24  13  25  13  26  13  27  13  28  13
M  ISO  8  29  13  30  13  31  13  32  13  33   8  34   8  35   8  36   8
M  ISO  3  37  14  38  14  39  14
M  END
>  <minimizedAffinity>  (1) 
-4.86813498

>  <minimizedRMSD>  (1) 
2.62971401

$$$$
