
     RDKit          3D

 42 44  0  0  0  0  0  0  0  0999 V2000
   38.0480   23.9460   34.3860 C   0  0  0  0  0  0  0  0  0  0  0  0
   37.7060   25.0160   33.5360 C   0  0  0  0  0  0  0  0  0  0  0  0
   37.1000   24.7040   32.3240 C   0  0  0  0  0  0  0  0  0  0  0  0
   36.8680   23.4140   32.0200 N   0  0  0  0  0  0  0  0  0  0  0  0
   37.2100   22.4160   32.8620 C   0  0  0  0  0  0  0  0  0  0  0  0
   37.7930   22.6740   34.0300 N   0  0  0  0  0  0  0  0  0  0  0  0
   38.6680   24.0960   35.6470 N   0  0  0  0  0  0  0  0  0  0  0  0
   39.8750   23.4840   36.1040 C   0  0  0  0  0  0  0  0  0  0  0  0
   39.8660   22.8070   37.4030 C   0  0  0  0  0  0  0  0  0  0  0  0
   38.9450   23.3180   38.4350 C   0  0  0  0  0  0  0  0  0  0  0  0
   37.7190   24.0330   37.8840 C   0  0  0  0  0  0  0  0  0  0  0  0
   38.1590   24.9340   36.7380 C   0  0  0  0  0  0  0  0  0  0  0  0
   36.7070   26.0940   31.3240 S   0  0  0  0  0  0  0  0  0  0  0  0
   36.6840   27.6460   32.2050 C   0  0  0  0  0  0  0  0  0  0  0  0
   35.3070   28.2860   32.1740 C   0  0  0  0  0  0  0  0  0  0  0  0
   35.3040   29.2850   33.2270 N   0  0  0  0  0  0  0  0  0  0  0  0
   36.1030   28.9450   34.2790 C   0  0  0  0  0  0  0  0  0  0  0  0
   36.1930   29.8130   35.3550 C   0  0  0  0  0  0  0  0  0  0  0  0
   35.4750   30.9830   35.3210 C   0  0  0  0  0  0  0  0  0  0  0  0
   35.5900   31.7400   36.3250 O   0  0  0  0  0  0  0  0  0  0  0  0
   34.6950   31.2900   34.2680 N   0  0  0  0  0  0  0  0  0  0  0  0
   34.6090   30.4330   33.2110 C   0  0  0  0  0  0  0  0  0  0  0  0
   33.9110   30.6580   32.2130 O   0  0  0  0  0  0  0  0  0  0  0  0
   37.9106   26.0588   33.8202 H   0  0  0  0  0  0  0  0  0  0  0  0
   37.0036   21.3734   32.5783 H   0  0  0  0  0  0  0  0  0  0  0  0
   40.1662   22.7374   35.3505 H   0  0  0  0  0  0  0  0  0  0  0  0
   40.5684   24.3264   36.2437 H   0  0  0  0  0  0  0  0  0  0  0  0
   39.6058   21.7535   37.2228 H   0  0  0  0  0  0  0  0  0  0  0  0
   40.8707   22.9821   37.8152 H   0  0  0  0  0  0  0  0  0  0  0  0
   38.6032   22.4674   39.0430 H   0  0  0  0  0  0  0  0  0  0  0  0
   39.5076   24.0623   39.0177 H   0  0  0  0  0  0  0  0  0  0  0  0
   36.9922   23.2936   37.5165 H   0  0  0  0  0  0  0  0  0  0  0  0
   37.2459   24.6334   38.6750 H   0  0  0  0  0  0  0  0  0  0  0  0
   38.9527   25.6121   37.0846 H   0  0  0  0  0  0  0  0  0  0  0  0
   37.3063   25.5318   36.3837 H   0  0  0  0  0  0  0  0  0  0  0  0
   36.9708   27.4666   33.2517 H   0  0  0  0  0  0  0  0  0  0  0  0
   37.3926   28.3302   31.7153 H   0  0  0  0  0  0  0  0  0  0  0  0
   35.1281   28.7599   31.1976 H   0  0  0  0  0  0  0  0  0  0  0  0
   34.5133   27.5397   32.3257 H   0  0  0  0  0  0  0  0  0  0  0  0
   36.6652   27.9995   34.2731 H   0  0  0  0  0  0  0  0  0  0  0  0
   36.8275   29.5696   36.2200 H   0  0  0  0  0  0  0  0  0  0  0  0
   34.1632   32.1721   34.2606 H   0  0  0  0  0  0  0  0  0  0  0  0
  1  7  1  0
  2  1  2  0
  3  2  1  0
  4  3  2  0
  4  5  1  0
  5  6  2  0
  6  1  1  0
  7  8  1  0
  7 12  1  0
  8  9  1  0
  9 10  1  0
 11 10  1  0
 12 11  1  0
 13 14  1  0
 13  3  1  0
 15 14  1  0
 15 16  1  0
 16 17  1  0
 17 18  2  0
 19 18  1  0
 19 20  2  0
 21 19  1  0
 22 16  1  0
 22 21  1  0
 23 22  2  0
  2 24  1  0
  5 25  1  0
  8 26  1  0
  8 27  1  0
  9 28  1  0
  9 29  1  0
 10 30  1  0
 10 31  1  0
 11 32  1  0
 11 33  1  0
 12 34  1  0
 12 35  1  0
 14 36  1  0
 14 37  1  0
 15 38  1  0
 15 39  1  0
 17 40  1  0
 18 41  1  0
 21 42  1  0
M  ISO  8  24  14  25  14  26  13  27  13  28  13  29  13  30  13  31  13
M  ISO  8  32  13  33  13  34  13  35  13  36   8  37   8  38   8  39   8
M  ISO  3  40  14  41  14  42   9
M  END
>  <minimizedAffinity>  (1) 
-4.86013651

>  <minimizedRMSD>  (1) 
3.6248889

$$$$
