
     RDKit          3D

 45 47  0  0  0  0  0  0  0  0999 V2000
   38.0580   23.2150   34.6410 C   0  0  0  0  0  0  0  0  0  0  0  0
   37.8810   24.0000   33.4990 C   0  0  0  0  0  0  0  0  0  0  0  0
   37.2230   23.4490   32.4010 C   0  0  0  0  0  0  0  0  0  0  0  0
   36.7790   22.1770   32.4770 N   0  0  0  0  0  0  0  0  0  0  0  0
   36.9630   21.4430   33.5890 C   0  0  0  0  0  0  0  0  0  0  0  0
   37.5920   21.9470   34.6580 N   0  0  0  0  0  0  0  0  0  0  0  0
   38.6990   23.6280   35.8210 N   0  0  0  0  0  0  0  0  0  0  0  0
   39.9070   23.1230   36.3750 C   0  0  0  0  0  0  0  0  0  0  0  0
   39.9270   22.7450   37.7980 C   0  0  0  0  0  0  0  0  0  0  0  0
   39.0220   23.4880   38.7100 C   0  0  0  0  0  0  0  0  0  0  0  0
   37.7980   24.0600   38.0400 C   0  0  0  0  0  0  0  0  0  0  0  0
   38.2190   24.6810   36.7080 C   0  0  0  0  0  0  0  0  0  0  0  0
   37.0500   24.5200   31.0100 S   0  0  0  0  0  0  0  0  0  0  0  0
   38.3070   25.8090   30.9530 C   0  0  0  0  0  0  0  0  0  0  0  0
   37.8550   27.0230   31.7450 C   0  0  0  0  0  0  0  0  0  0  0  0
   36.7220   27.5900   31.1050 N   0  0  0  0  0  0  0  0  0  0  0  0
   35.5950   27.8980   31.9000 C   0  0  0  0  0  0  0  0  0  0  0  0
   35.4550   29.3690   32.1050 C   0  0  0  0  0  0  0  0  0  0  0  0
   35.4350   30.0490   30.9120 O   0  0  0  0  0  0  0  0  0  0  0  0
   36.5970   29.8770   30.1640 C   0  0  0  0  0  0  0  0  0  0  0  0
   36.9490   28.4240   29.9860 C   0  0  0  0  0  0  0  0  0  0  0  0
   38.2542   25.0343   33.4671 H   0  0  0  0  0  0  0  0  0  0  0  0
   36.5895   20.4088   33.6207 H   0  0  0  0  0  0  0  0  0  0  0  0
   40.1784   22.2268   35.7978 H   0  0  0  0  0  0  0  0  0  0  0  0
   40.6048   23.9711   36.3134 H   0  0  0  0  0  0  0  0  0  0  0  0
   39.6591   21.6800   37.8613 H   0  0  0  0  0  0  0  0  0  0  0  0
   40.9420   22.9919   38.1427 H   0  0  0  0  0  0  0  0  0  0  0  0
   38.6913   22.8005   39.5024 H   0  0  0  0  0  0  0  0  0  0  0  0
   39.5971   24.3420   39.0972 H   0  0  0  0  0  0  0  0  0  0  0  0
   37.0650   23.2596   37.8609 H   0  0  0  0  0  0  0  0  0  0  0  0
   37.3389   24.8247   38.6837 H   0  0  0  0  0  0  0  0  0  0  0  0
   39.0225   25.4122   36.8802 H   0  0  0  0  0  0  0  0  0  0  0  0
   37.3589   25.1895   36.2480 H   0  0  0  0  0  0  0  0  0  0  0  0
   39.2424   25.4226   31.3839 H   0  0  0  0  0  0  0  0  0  0  0  0
   38.4678   26.1052   29.9059 H   0  0  0  0  0  0  0  0  0  0  0  0
   37.5883   26.7189   32.7679 H   0  0  0  0  0  0  0  0  0  0  0  0
   38.6676   27.7630   31.7916 H   0  0  0  0  0  0  0  0  0  0  0  0
   34.6911   27.5193   31.4004 H   0  0  0  0  0  0  0  0  0  0  0  0
   35.7271   27.4239   32.8837 H   0  0  0  0  0  0  0  0  0  0  0  0
   34.5162   29.5660   32.6433 H   0  0  0  0  0  0  0  0  0  0  0  0
   36.3225   29.7184   32.6840 H   0  0  0  0  0  0  0  0  0  0  0  0
   36.4503   30.3300   29.1724 H   0  0  0  0  0  0  0  0  0  0  0  0
   37.4226   30.3604   30.7068 H   0  0  0  0  0  0  0  0  0  0  0  0
   36.3525   28.0333   29.1484 H   0  0  0  0  0  0  0  0  0  0  0  0
   38.0352   28.4008   29.8141 H   0  0  0  0  0  0  0  0  0  0  0  0
  1  6  1  0
  1  7  1  0
  2  1  2  0
  3  4  2  0
  3  2  1  0
  4  5  1  0
  5  6  2  0
  7  8  1  0
  7 12  1  0
  8  9  1  0
  9 10  1  0
 11 10  1  0
 12 11  1  0
 13  3  1  0
 14 13  1  0
 14 15  1  0
 16 15  1  0
 16 17  1  0
 17 18  1  0
 19 18  1  0
 20 19  1  0
 21 20  1  0
 21 16  1  0
  2 22  1  0
  5 23  1  0
  8 24  1  0
  8 25  1  0
  9 26  1  0
  9 27  1  0
 10 28  1  0
 10 29  1  0
 11 30  1  0
 11 31  1  0
 12 32  1  0
 12 33  1  0
 14 34  1  0
 14 35  1  0
 15 36  1  0
 15 37  1  0
 17 38  1  0
 17 39  1  0
 18 40  1  0
 18 41  1  0
 20 42  1  0
 20 43  1  0
 21 44  1  0
 21 45  1  0
M  ISO  8  22  14  23  14  24  13  25  13  26  13  27  13  28  13  29  13
M  ISO  8  30  13  31  13  32  13  33  13  34   8  35   8  36   8  37   8
M  ISO  8  38  13  39  13  40  13  41  13  42  13  43  13  44  13  45  13
M  END
>  <minimizedAffinity>  (1) 
-4.78756666

>  <minimizedRMSD>  (1) 
2.60056543

$$$$
