
     RDKit          3D

 39 41  0  0  0  0  0  0  0  0999 V2000
   38.0000   23.1210   34.5970 C   0  0  0  0  0  0  0  0  0  0  0  0
   37.8630   23.8850   33.4260 C   0  0  0  0  0  0  0  0  0  0  0  0
   37.1950   23.3040   32.3480 C   0  0  0  0  0  0  0  0  0  0  0  0
   36.7100   22.0470   32.4680 N   0  0  0  0  0  0  0  0  0  0  0  0
   36.8660   21.3500   33.6170 C   0  0  0  0  0  0  0  0  0  0  0  0
   37.5030   21.8810   34.6700 N   0  0  0  0  0  0  0  0  0  0  0  0
   38.6490   23.5720   35.7680 N   0  0  0  0  0  0  0  0  0  0  0  0
   39.8730   23.0930   36.3170 C   0  0  0  0  0  0  0  0  0  0  0  0
   39.9020   22.7240   37.7450 C   0  0  0  0  0  0  0  0  0  0  0  0
   39.0130   23.4850   38.6490 C   0  0  0  0  0  0  0  0  0  0  0  0
   37.7530   24.0240   37.9810 C   0  0  0  0  0  0  0  0  0  0  0  0
   38.1620   24.6360   36.6370 C   0  0  0  0  0  0  0  0  0  0  0  0
   37.0700   24.3380   30.9170 S   0  0  0  0  0  0  0  0  0  0  0  0
   37.4350   26.0500   31.2530 C   0  0  0  0  0  0  0  0  0  0  0  0
   36.2240   26.9500   31.0300 C   0  0  0  0  0  0  0  0  0  0  0  0
   36.0890   27.7030   32.2860 N   0  0  0  0  0  0  0  0  0  0  0  0
   35.2970   28.7450   32.5710 C   0  0  0  0  0  0  0  0  0  0  0  0
   35.5300   29.1110   33.9010 C   0  0  0  0  0  0  0  0  0  0  0  0
   36.4770   28.2490   34.3690 N   0  0  0  0  0  0  0  0  0  0  0  0
   36.7990   27.4160   33.3920 C   0  0  0  0  0  0  0  0  0  0  0  0
   38.2683   24.9056   33.3615 H   0  0  0  0  0  0  0  0  0  0  0  0
   36.4628   20.3291   33.6883 H   0  0  0  0  0  0  0  0  0  0  0  0
   40.1592   22.1989   35.7437 H   0  0  0  0  0  0  0  0  0  0  0  0
   40.5573   23.9512   36.2445 H   0  0  0  0  0  0  0  0  0  0  0  0
   39.6231   21.6626   37.8201 H   0  0  0  0  0  0  0  0  0  0  0  0
   40.9228   22.9577   38.0817 H   0  0  0  0  0  0  0  0  0  0  0  0
   38.7097   22.8220   39.4727 H   0  0  0  0  0  0  0  0  0  0  0  0
   39.5860   24.3587   38.9929 H   0  0  0  0  0  0  0  0  0  0  0  0
   37.0367   23.2054   37.8172 H   0  0  0  0  0  0  0  0  0  0  0  0
   37.2735   24.7813   38.6186 H   0  0  0  0  0  0  0  0  0  0  0  0
   38.9582   25.3783   36.7953 H   0  0  0  0  0  0  0  0  0  0  0  0
   37.2974   25.1329   36.1728 H   0  0  0  0  0  0  0  0  0  0  0  0
   37.7591   26.1446   32.2999 H   0  0  0  0  0  0  0  0  0  0  0  0
   38.2266   26.3697   30.5594 H   0  0  0  0  0  0  0  0  0  0  0  0
   36.3968   27.6320   30.1844 H   0  0  0  0  0  0  0  0  0  0  0  0
   35.3168   26.3779   30.7856 H   0  0  0  0  0  0  0  0  0  0  0  0
   34.5888   29.2275   31.8814 H   0  0  0  0  0  0  0  0  0  0  0  0
   35.0471   29.9284   34.4565 H   0  0  0  0  0  0  0  0  0  0  0  0
   37.5396   26.6067   33.4727 H   0  0  0  0  0  0  0  0  0  0  0  0
  1  6  1  0
  1  7  1  0
  2  1  2  0
  3  4  2  0
  3  2  1  0
  4  5  1  0
  5  6  2  0
  7  8  1  0
  7 12  1  0
  8  9  1  0
  9 10  1  0
 11 10  1  0
 12 11  1  0
 13 14  1  0
 13  3  1  0
 15 14  1  0
 15 16  1  0
 16 17  1  0
 16 20  1  0
 17 18  2  0
 18 19  1  0
 20 19  2  0
  2 21  1  0
  5 22  1  0
  8 23  1  0
  8 24  1  0
  9 25  1  0
  9 26  1  0
 10 27  1  0
 10 28  1  0
 11 29  1  0
 11 30  1  0
 12 31  1  0
 12 32  1  0
 14 33  1  0
 14 34  1  0
 15 35  1  0
 15 36  1  0
 17 37  1  0
 18 38  1  0
 20 39  1  0
M  ISO  8  21  14  22  14  23  13  24  13  25  13  26  13  27  13  28  13
M  ISO  8  29  13  30  13  31  13  32  13  33   8  34   8  35   8  36   8
M  ISO  3  37  14  38  14  39  14
M  END
>  <minimizedAffinity>  (1) 
-4.73308372

>  <minimizedRMSD>  (1) 
2.3598845

$$$$
