
     RDKit          3D

 38 40  0  0  0  0  0  0  0  0999 V2000
   38.0050   23.0300   34.6500 C   0  0  0  0  0  0  0  0  0  0  0  0
   38.0080   23.6680   33.4100 C   0  0  0  0  0  0  0  0  0  0  0  0
   37.3370   23.0780   32.3540 C   0  0  0  0  0  0  0  0  0  0  0  0
   36.7030   21.8980   32.5730 N   0  0  0  0  0  0  0  0  0  0  0  0
   36.7170   21.3030   33.7830 C   0  0  0  0  0  0  0  0  0  0  0  0
   37.3560   21.8550   34.8120 N   0  0  0  0  0  0  0  0  0  0  0  0
   38.6440   23.5120   35.8140 N   0  0  0  0  0  0  0  0  0  0  0  0
   39.8770   23.0480   36.3810 C   0  0  0  0  0  0  0  0  0  0  0  0
   39.9100   22.7580   37.8120 C   0  0  0  0  0  0  0  0  0  0  0  0
   38.9800   23.5120   38.7010 C   0  0  0  0  0  0  0  0  0  0  0  0
   37.7380   24.0240   38.0140 C   0  0  0  0  0  0  0  0  0  0  0  0
   38.1460   24.5910   36.6550 C   0  0  0  0  0  0  0  0  0  0  0  0
   37.3990   23.9600   30.8290 S   0  0  0  0  0  0  0  0  0  0  0  0
   37.3440   25.7290   31.0270 C   0  0  0  0  0  0  0  0  0  0  0  0
   35.9630   26.2200   31.4270 C   0  0  0  0  0  0  0  0  0  0  0  0
   35.9760   27.7180   31.3110 C   0  0  0  0  0  0  0  0  0  0  0  0
   36.7580   28.3950   30.3170 C   0  0  0  0  0  0  0  0  0  0  0  0
   36.3220   30.1720   30.7270 S   0  0  0  0  0  0  0  0  0  0  0  0
   35.1780   29.6450   32.1510 C   0  0  0  0  0  0  0  0  0  0  0  0
   35.1960   28.3050   32.2190 N   0  0  0  0  0  0  0  0  0  0  0  0
   38.5349   24.6240   33.2740 H   0  0  0  0  0  0  0  0  0  0  0  0
   36.1921   20.3464   33.9219 H   0  0  0  0  0  0  0  0  0  0  0  0
   40.1510   22.1223   35.8537 H   0  0  0  0  0  0  0  0  0  0  0  0
   40.5703   23.8930   36.2570 H   0  0  0  0  0  0  0  0  0  0  0  0
   39.6841   21.6884   37.9342 H   0  0  0  0  0  0  0  0  0  0  0  0
   40.9135   23.0740   38.1332 H   0  0  0  0  0  0  0  0  0  0  0  0
   38.6703   22.8454   39.5194 H   0  0  0  0  0  0  0  0  0  0  0  0
   39.5309   24.3966   39.0532 H   0  0  0  0  0  0  0  0  0  0  0  0
   37.0226   23.2001   37.8746 H   0  0  0  0  0  0  0  0  0  0  0  0
   37.2595   24.8043   38.6241 H   0  0  0  0  0  0  0  0  0  0  0  0
   38.9360   25.3439   36.7930 H   0  0  0  0  0  0  0  0  0  0  0  0
   37.2749   25.0607   36.1749 H   0  0  0  0  0  0  0  0  0  0  0  0
   38.0630   26.0205   31.8068 H   0  0  0  0  0  0  0  0  0  0  0  0
   37.5965   26.1848   30.0583 H   0  0  0  0  0  0  0  0  0  0  0  0
   35.2025   25.7961   30.7548 H   0  0  0  0  0  0  0  0  0  0  0  0
   35.7190   25.9089   32.4535 H   0  0  0  0  0  0  0  0  0  0  0  0
   37.4215   27.9891   29.5392 H   0  0  0  0  0  0  0  0  0  0  0  0
   34.6033   30.3189   32.8034 H   0  0  0  0  0  0  0  0  0  0  0  0
  1  6  1  0
  1  7  1  0
  2  1  2  0
  3  4  2  0
  3  2  1  0
  4  5  1  0
  5  6  2  0
  7  8  1  0
  7 12  1  0
  8  9  1  0
  9 10  1  0
 11 10  1  0
 12 11  1  0
 13 14  1  0
 13  3  1  0
 14 15  1  0
 16 15  1  0
 16 20  1  0
 17 18  1  0
 17 16  2  0
 18 19  1  0
 19 20  2  0
  2 21  1  0
  5 22  1  0
  8 23  1  0
  8 24  1  0
  9 25  1  0
  9 26  1  0
 10 27  1  0
 10 28  1  0
 11 29  1  0
 11 30  1  0
 12 31  1  0
 12 32  1  0
 14 33  1  0
 14 34  1  0
 15 35  1  0
 15 36  1  0
 17 37  1  0
 19 38  1  0
M  ISO  8  21  14  22  14  23  13  24  13  25  13  26  13  27  13  28  13
M  ISO  8  29  13  30  13  31  13  32  13  33   8  34   8  35   8  36   8
M  ISO  2  37  14  38  14
M  END
>  <minimizedAffinity>  (1) 
-4.68827057

>  <minimizedRMSD>  (1) 
2.28777337

$$$$
