
     RDKit          3D

 33 34  0  0  0  0  0  0  0  0999 V2000
   38.0650   23.0950   34.6230 C   0  0  0  0  0  0  0  0  0  0  0  0
   38.0430   23.7930   33.4090 C   0  0  0  0  0  0  0  0  0  0  0  0
   37.3950   23.2160   32.3300 C   0  0  0  0  0  0  0  0  0  0  0  0
   36.8080   21.9940   32.4970 N   0  0  0  0  0  0  0  0  0  0  0  0
   36.8490   21.3570   33.6730 C   0  0  0  0  0  0  0  0  0  0  0  0
   37.4720   21.8980   34.7290 N   0  0  0  0  0  0  0  0  0  0  0  0
   38.6910   23.5600   35.8130 N   0  0  0  0  0  0  0  0  0  0  0  0
   39.9130   23.0840   36.3840 C   0  0  0  0  0  0  0  0  0  0  0  0
   39.9170   22.7520   37.8200 C   0  0  0  0  0  0  0  0  0  0  0  0
   38.9950   23.5110   38.6990 C   0  0  0  0  0  0  0  0  0  0  0  0
   37.7400   24.0160   38.0050 C   0  0  0  0  0  0  0  0  0  0  0  0
   38.1710   24.6250   36.6660 C   0  0  0  0  0  0  0  0  0  0  0  0
   37.4240   24.1710   30.8530 S   0  0  0  0  0  0  0  0  0  0  0  0
   37.4310   25.9340   31.1450 C   0  0  0  0  0  0  0  0  0  0  0  0
   36.0400   26.4640   31.4490 C   0  0  0  0  0  0  0  0  0  0  0  0
   34.7850   25.3020   30.8370 S   0  0  0  0  0  0  0  0  0  0  0  0
   38.5286   24.7755   33.3150 H   0  0  0  0  0  0  0  0  0  0  0  0
   36.3642   20.3748   33.7745 H   0  0  0  0  0  0  0  0  0  0  0  0
   40.1986   22.1739   35.8361 H   0  0  0  0  0  0  0  0  0  0  0  0
   40.6094   23.9307   36.2935 H   0  0  0  0  0  0  0  0  0  0  0  0
   39.6591   21.6867   37.9130 H   0  0  0  0  0  0  0  0  0  0  0  0
   40.9245   23.0233   38.1684 H   0  0  0  0  0  0  0  0  0  0  0  0
   38.6898   22.8540   39.5268 H   0  0  0  0  0  0  0  0  0  0  0  0
   39.5458   24.4005   39.0387 H   0  0  0  0  0  0  0  0  0  0  0  0
   37.0442   23.1817   37.8321 H   0  0  0  0  0  0  0  0  0  0  0  0
   37.2274   24.7655   38.6258 H   0  0  0  0  0  0  0  0  0  0  0  0
   38.9544   25.3781   36.8369 H   0  0  0  0  0  0  0  0  0  0  0  0
   37.3107   25.1082   36.1798 H   0  0  0  0  0  0  0  0  0  0  0  0
   38.0885   26.1501   32.0000 H   0  0  0  0  0  0  0  0  0  0  0  0
   37.7921   26.4292   30.2315 H   0  0  0  0  0  0  0  0  0  0  0  0
   35.9256   26.5843   32.5364 H   0  0  0  0  0  0  0  0  0  0  0  0
   35.9066   27.4353   30.9501 H   0  0  0  0  0  0  0  0  0  0  0  0
   34.1502   24.7142   31.8993 H   0  0  0  0  0  0  0  0  0  0  0  0
  1  6  1  0
  1  7  1  0
  2  1  2  0
  3  4  2  0
  3  2  1  0
  4  5  1  0
  5  6  2  0
  7  8  1  0
  7 12  1  0
  8  9  1  0
  9 10  1  0
 11 10  1  0
 12 11  1  0
 13 14  1  0
 13  3  1  0
 14 15  1  0
 16 15  1  0
  2 17  1  0
  5 18  1  0
  8 19  1  0
  8 20  1  0
  9 21  1  0
  9 22  1  0
 10 23  1  0
 10 24  1  0
 11 25  1  0
 11 26  1  0
 12 27  1  0
 12 28  1  0
 14 29  1  0
 14 30  1  0
 15 31  1  0
 15 32  1  0
 16 33  1  0
M  ISO  8  17  14  18  14  19  13  20  13  21  13  22  13  23  13  24  13
M  ISO  8  25  13  26  13  27  13  28  13  29   8  30   8  31   8  32   8
M  ISO  1  33  11
M  END
>  <minimizedAffinity>  (1) 
-4.16720629

>  <minimizedRMSD>  (1) 
0.91550082

$$$$
