
     RDKit          3D

 34 35  0  0  0  0  0  0  0  0999 V2000
   38.1860   23.2900   34.6000 C   0  0  0  0  0  0  0  0  0  0  0  0
   38.2310   24.0390   33.4170 C   0  0  0  0  0  0  0  0  0  0  0  0
   37.6120   23.5250   32.2800 C   0  0  0  0  0  0  0  0  0  0  0  0
   36.9940   22.3200   32.3760 N   0  0  0  0  0  0  0  0  0  0  0  0
   36.9680   21.6300   33.5190 C   0  0  0  0  0  0  0  0  0  0  0  0
   37.5600   22.1100   34.6290 N   0  0  0  0  0  0  0  0  0  0  0  0
   38.7640   23.6790   35.8230 N   0  0  0  0  0  0  0  0  0  0  0  0
   39.9680   23.1700   36.4160 C   0  0  0  0  0  0  0  0  0  0  0  0
   39.9200   22.7580   37.8250 C   0  0  0  0  0  0  0  0  0  0  0  0
   38.9590   23.4520   38.7210 C   0  0  0  0  0  0  0  0  0  0  0  0
   37.7570   24.0320   38.0080 C   0  0  0  0  0  0  0  0  0  0  0  0
   38.2180   24.6930   36.7160 C   0  0  0  0  0  0  0  0  0  0  0  0
   37.7300   24.5500   30.8400 S   0  0  0  0  0  0  0  0  0  0  0  0
   37.0240   26.1760   31.0800 C   0  0  0  0  0  0  0  0  0  0  0  0
   35.5090   26.0930   31.1910 C   0  0  0  0  0  0  0  0  0  0  0  0
   35.0110   24.7860   30.9150 N   0  0  0  0  0  0  0  0  0  0  0  0
   38.7439   25.0116   33.3867 H   0  0  0  0  0  0  0  0  0  0  0  0
   36.4563   20.6569   33.5542 H   0  0  0  0  0  0  0  0  0  0  0  0
   40.2767   22.2927   35.8287 H   0  0  0  0  0  0  0  0  0  0  0  0
   40.6637   24.0219   36.4016 H   0  0  0  0  0  0  0  0  0  0  0  0
   39.6708   21.6868   37.8445 H   0  0  0  0  0  0  0  0  0  0  0  0
   40.9100   23.0245   38.2237 H   0  0  0  0  0  0  0  0  0  0  0  0
   38.6012   22.7296   39.4695 H   0  0  0  0  0  0  0  0  0  0  0  0
   39.4993   24.2980   39.1709 H   0  0  0  0  0  0  0  0  0  0  0  0
   37.0424   23.2284   37.7765 H   0  0  0  0  0  0  0  0  0  0  0  0
   37.2667   24.7769   38.6520 H   0  0  0  0  0  0  0  0  0  0  0  0
   38.9937   25.4395   36.9419 H   0  0  0  0  0  0  0  0  0  0  0  0
   37.3641   25.1889   36.2313 H   0  0  0  0  0  0  0  0  0  0  0  0
   37.4304   26.6134   32.0039 H   0  0  0  0  0  0  0  0  0  0  0  0
   37.2815   26.8047   30.2149 H   0  0  0  0  0  0  0  0  0  0  0  0
   35.2145   26.3739   32.2129 H   0  0  0  0  0  0  0  0  0  0  0  0
   35.0816   26.7776   30.4436 H   0  0  0  0  0  0  0  0  0  0  0  0
   34.8241   24.2956   31.8013 H   0  0  0  0  0  0  0  0  0  0  0  0
   34.1387   24.8585   30.3722 H   0  0  0  0  0  0  0  0  0  0  0  0
  1  6  1  0
  1  7  1  0
  2  1  2  0
  3  4  2  0
  3  2  1  0
  4  5  1  0
  5  6  2  0
  7  8  1  0
  7 12  1  0
  8  9  1  0
  9 10  1  0
 11 10  1  0
 12 11  1  0
 13 14  1  0
 13  3  1  0
 14 15  1  0
 16 15  1  0
  2 17  1  0
  5 18  1  0
  8 19  1  0
  8 20  1  0
  9 21  1  0
  9 22  1  0
 10 23  1  0
 10 24  1  0
 11 25  1  0
 11 26  1  0
 12 27  1  0
 12 28  1  0
 14 29  1  0
 14 30  1  0
 15 31  1  0
 15 32  1  0
 16 33  1  0
 16 34  1  0
M  ISO  8  17  14  18  14  19  13  20  13  21  13  22  13  23  13  24  13
M  ISO  8  25  13  26  13  27  13  28  13  29   8  30   8  31   8  32   8
M  ISO  2  33   5  34   5
M  END
>  <minimizedAffinity>  (1) 
-4.1185813

>  <minimizedRMSD>  (1) 
0.593587041

$$$$
