
     RDKit          3D

 27 29  0  0  1  0  0  0  0  0999 V2000
   38.2390   26.2490   34.6370 C   0  0  1  0  0  0  0  0  0  0  0  0
   38.2510   27.1440   35.7840 C   0  0  0  0  0  0  0  0  0  0  0  0
   37.6040   25.8080   35.9360 C   0  0  2  0  0  0  0  0  0  0  0  0
   36.8670   27.8070   33.1830 C   0  0  0  0  0  0  0  0  0  0  0  0
   37.3580   26.4980   33.4670 C   0  0  0  0  0  0  0  0  0  0  0  0
   36.9730   25.4700   32.6070 C   0  0  0  0  0  0  0  0  0  0  0  0
   36.1690   25.7440   31.5570 N   0  0  0  0  0  0  0  0  0  0  0  0
   35.7150   27.0180   31.3110 C   0  0  0  0  0  0  0  0  0  0  0  0
   36.0740   28.0290   32.1320 N   0  0  0  0  0  0  0  0  0  0  0  0
   38.3540   24.7370   36.6400 C   0  0  0  0  0  0  0  0  0  0  0  0
   38.0510   24.3880   37.9470 C   0  0  0  0  0  0  0  0  0  0  0  0
   38.7680   23.3870   38.5720 C   0  0  0  0  0  0  0  0  0  0  0  0
   39.7750   22.7370   37.9100 C   0  0  0  0  0  0  0  0  0  0  0  0
   40.0930   23.0730   36.5970 C   0  0  0  0  0  0  0  0  0  0  0  0
   39.3620   24.0830   35.9810 C   0  0  0  0  0  0  0  0  0  0  0  0
   39.0224   25.8662   33.9664 H   0  0  0  0  0  0  0  0  0  0  0  0
   39.1983   27.3532   36.3025 H   0  0  0  0  0  0  0  0  0  0  0  0
   37.9220   28.1800   35.9528 H   0  0  0  0  0  0  0  0  0  0  0  0
   36.6186   25.4701   36.2893 H   0  0  0  0  0  0  0  0  0  0  0  0
   37.1456   28.6450   33.8389 H   0  0  0  0  0  0  0  0  0  0  0  0
   37.3222   24.4418   32.7828 H   0  0  0  0  0  0  0  0  0  0  0  0
   35.0613   27.2137   30.4482 H   0  0  0  0  0  0  0  0  0  0  0  0
   37.2428   24.9063   38.4839 H   0  0  0  0  0  0  0  0  0  0  0  0
   38.5285   23.1098   39.6092 H   0  0  0  0  0  0  0  0  0  0  0  0
   40.3381   21.9418   38.4205 H   0  0  0  0  0  0  0  0  0  0  0  0
   40.9010   22.5534   36.0610 H   0  0  0  0  0  0  0  0  0  0  0  0
   39.5977   24.3627   34.9436 H   0  0  0  0  0  0  0  0  0  0  0  0
  1  2  1  0
  1  3  1  0
  2  3  1  0
  3 10  1  0
  4  5  2  0
  5  1  1  0
  6  5  1  0
  7  6  2  0
  8  7  1  0
  8  9  2  0
  9  4  1  0
 10 11  2  0
 11 12  1  0
 13 12  2  0
 14 13  1  0
 15 14  2  0
 15 10  1  0
  1 16  1  6
  2 17  1  0
  2 18  1  0
  3 19  1  6
  4 20  1  0
  6 21  1  0
  8 22  1  0
 11 23  1  0
 12 24  1  0
 13 25  1  0
 14 26  1  0
 15 27  1  0
M  ISO  8  16  13  17  13  18  13  19  13  20  14  21  14  22  14  23  14
M  ISO  4  24  14  25  14  26  14  27  14
M  END
>  <minimizedAffinity>  (1) 
-4.94190645

>  <minimizedRMSD>  (1) 
5.53414679

$$$$
