
     RDKit          3D

 26 28  0  0  1  0  0  0  0  0999 V2000
   38.2490   26.3010   34.6180 C   0  0  1  0  0  0  0  0  0  0  0  0
   38.2160   27.1980   35.7630 C   0  0  0  0  0  0  0  0  0  0  0  0
   37.6340   25.8340   35.9190 C   0  0  2  0  0  0  0  0  0  0  0  0
   36.8510   27.7860   33.1360 C   0  0  0  0  0  0  0  0  0  0  0  0
   37.3680   26.5030   33.4510 C   0  0  0  0  0  0  0  0  0  0  0  0
   36.9980   25.4550   32.6020 C   0  0  0  0  0  0  0  0  0  0  0  0
   36.1910   25.6950   31.5530 N   0  0  0  0  0  0  0  0  0  0  0  0
   35.7100   26.9530   31.2810 C   0  0  0  0  0  0  0  0  0  0  0  0
   36.0480   27.9880   32.0800 N   0  0  0  0  0  0  0  0  0  0  0  0
   38.3960   24.7470   36.5790 C   0  0  0  0  0  0  0  0  0  0  0  0
   38.0720   24.3860   37.8800 C   0  0  0  0  0  0  0  0  0  0  0  0
   38.7360   23.3850   38.5560 C   0  0  0  0  0  0  0  0  0  0  0  0
   39.7660   22.7310   37.8790 C   0  0  0  0  0  0  0  0  0  0  0  0
   40.0840   23.1040   36.5700 C   0  0  0  0  0  0  0  0  0  0  0  0
   39.3940   24.1020   35.9460 N   0  0  0  0  0  0  0  0  0  0  0  0
   39.0503   25.9537   33.9492 H   0  0  0  0  0  0  0  0  0  0  0  0
   39.1515   27.4540   36.2819 H   0  0  0  0  0  0  0  0  0  0  0  0
   37.8370   28.2173   35.9283 H   0  0  0  0  0  0  0  0  0  0  0  0
   36.6681   25.4728   36.3017 H   0  0  0  0  0  0  0  0  0  0  0  0
   37.1162   28.6403   33.7762 H   0  0  0  0  0  0  0  0  0  0  0  0
   37.3664   24.4360   32.7918 H   0  0  0  0  0  0  0  0  0  0  0  0
   35.0516   27.1166   30.4151 H   0  0  0  0  0  0  0  0  0  0  0  0
   37.2555   24.9183   38.3899 H   0  0  0  0  0  0  0  0  0  0  0  0
   38.4651   23.1129   39.5868 H   0  0  0  0  0  0  0  0  0  0  0  0
   40.3262   21.9241   38.3741 H   0  0  0  0  0  0  0  0  0  0  0  0
   40.8975   22.5885   36.0384 H   0  0  0  0  0  0  0  0  0  0  0  0
  1  2  1  0
  1  3  1  0
  2  3  1  0
  3 10  1  0
  4  5  2  0
  5  1  1  0
  6  5  1  0
  7  6  2  0
  8  7  1  0
  8  9  2  0
  9  4  1  0
 10 11  2  0
 11 12  1  0
 13 12  2  0
 14 13  1  0
 15 14  2  0
 15 10  1  0
  1 16  1  6
  2 17  1  0
  2 18  1  0
  3 19  1  6
  4 20  1  0
  6 21  1  0
  8 22  1  0
 11 23  1  0
 12 24  1  0
 13 25  1  0
 14 26  1  0
M  ISO  8  16  13  17  13  18  13  19  13  20  14  21  14  22  14  23  14
M  ISO  3  24  14  25  14  26  14
M  END
>  <minimizedAffinity>  (1) 
-4.78769159

>  <minimizedRMSD>  (1) 
5.58154392

$$$$
