
     RDKit          3D

 30 32  0  0  1  0  0  0  0  0999 V2000
   38.1290   27.0390   33.9470 C   0  0  1  0  0  0  0  0  0  0  0  0
   37.2290   27.1240   35.0940 C   0  0  0  0  0  0  0  0  0  0  0  0
   37.4970   25.7870   34.4890 C   0  0  2  0  0  0  0  0  0  0  0  0
   38.2390   24.7850   35.1810 N   0  0  0  0  0  0  0  0  0  0  0  0
   38.1280   24.5880   36.5290 C   0  0  0  0  0  0  0  0  0  0  0  0
   38.8200   23.6370   37.2480 C   0  0  0  0  0  0  0  0  0  0  0  0
   38.6240   23.5080   38.7140 C   0  0  0  0  0  0  0  0  0  0  0  0
   39.6960   22.8080   36.5780 C   0  0  0  0  0  0  0  0  0  0  0  0
   40.3100   21.9560   37.2440 O   0  0  0  0  0  0  0  0  0  0  0  0
   39.8170   22.9890   35.2500 N   0  0  0  0  0  0  0  0  0  0  0  0
   39.1090   23.9380   34.6180 C   0  0  0  0  0  0  0  0  0  0  0  0
   39.3140   24.0010   33.3870 O   0  0  0  0  0  0  0  0  0  0  0  0
   36.5280   28.2910   32.4380 C   0  0  0  0  0  0  0  0  0  0  0  0
   37.7200   27.5300   32.6130 C   0  0  0  0  0  0  0  0  0  0  0  0
   38.4770   27.2680   31.4710 C   0  0  0  0  0  0  0  0  0  0  0  0
   38.0580   27.7390   30.2730 N   0  0  0  0  0  0  0  0  0  0  0  0
   36.9030   28.4720   30.1410 C   0  0  0  0  0  0  0  0  0  0  0  0
   36.1680   28.7280   31.2290 N   0  0  0  0  0  0  0  0  0  0  0  0
   39.1556   27.3850   33.7562 H   0  0  0  0  0  0  0  0  0  0  0  0
   37.6324   27.3646   36.0887 H   0  0  0  0  0  0  0  0  0  0  0  0
   36.3190   27.6998   35.3184 H   0  0  0  0  0  0  0  0  0  0  0  0
   36.8919   24.9709   34.0673 H   0  0  0  0  0  0  0  0  0  0  0  0
   37.4337   25.2377   37.0821 H   0  0  0  0  0  0  0  0  0  0  0  0
   39.4310   24.0391   39.2400 H   0  0  0  0  0  0  0  0  0  0  0  0
   37.6541   23.9449   38.9941 H   0  0  0  0  0  0  0  0  0  0  0  0
   38.6417   22.4444   38.9941 H   0  0  0  0  0  0  0  0  0  0  0  0
   40.4610   22.3918   34.7119 H   0  0  0  0  0  0  0  0  0  0  0  0
   35.8971   28.5211   33.3092 H   0  0  0  0  0  0  0  0  0  0  0  0
   39.4062   26.6838   31.5433 H   0  0  0  0  0  0  0  0  0  0  0  0
   36.5874   28.8429   29.1547 H   0  0  0  0  0  0  0  0  0  0  0  0
  1  3  1  0
  1  2  1  0
  3  2  1  0
  3  4  1  0
  4  5  1  0
  5  6  2  0
  6  7  1  0
  8  9  2  0
  8  6  1  0
 10  8  1  0
 11  4  1  0
 11 10  1  0
 12 11  2  0
 13 14  2  0
 14  1  1  0
 15 14  1  0
 16 15  2  0
 17 16  1  0
 17 18  2  0
 18 13  1  0
  1 19  1  1
  2 20  1  0
  2 21  1  0
  3 22  1  6
  5 23  1  0
  7 24  1  0
  7 25  1  0
  7 26  1  0
 10 27  1  0
 13 28  1  0
 15 29  1  0
 17 30  1  0
M  ISO  8  19  13  20  13  21  13  22  13  23  14  24   8  25   8  26   8
M  ISO  4  27   9  28  14  29  14  30  14
M  END
>  <minimizedAffinity>  (1) 
-4.78511047

>  <minimizedRMSD>  (1) 
6.75312185

$$$$
