
     RDKit          3D

 28 30  0  0  1  0  0  0  0  0999 V2000
   36.1930   28.7670   32.9660 C   0  0  1  0  0  0  0  0  0  0  0  0
   35.4880   29.6440   32.0340 C   0  0  0  0  0  0  0  0  0  0  0  0
   34.7830   29.2210   33.2720 C   0  0  2  0  0  0  0  0  0  0  0  0
   34.6880   30.0810   34.4340 N   0  0  0  0  0  0  0  0  0  0  0  0
   35.8390   30.6590   34.8230 C   0  0  0  0  0  0  0  0  0  0  0  0
   35.8610   31.4980   35.9190 C   0  0  0  0  0  0  0  0  0  0  0  0
   34.6710   31.7100   36.5830 C   0  0  0  0  0  0  0  0  0  0  0  0
   34.6780   32.5730   37.7160 N   0  0  0  0  0  0  0  0  0  0  0  0
   33.5280   31.1140   36.1680 N   0  0  0  0  0  0  0  0  0  0  0  0
   33.5190   30.2880   35.0860 C   0  0  0  0  0  0  0  0  0  0  0  0
   32.4870   29.7130   34.6620 O   0  0  0  0  0  0  0  0  0  0  0  0
   35.8930   26.7540   31.4590 C   0  0  0  0  0  0  0  0  0  0  0  0
   36.4230   27.3390   32.6460 C   0  0  0  0  0  0  0  0  0  0  0  0
   37.1650   26.5090   33.4880 C   0  0  0  0  0  0  0  0  0  0  0  0
   37.3490   25.2100   33.1520 N   0  0  0  0  0  0  0  0  0  0  0  0
   36.8200   24.6850   31.9960 C   0  0  0  0  0  0  0  0  0  0  0  0
   36.1020   25.4690   31.1730 N   0  0  0  0  0  0  0  0  0  0  0  0
   37.1690   28.8163   33.4710 H   0  0  0  0  0  0  0  0  0  0  0  0
   35.8097   30.6897   31.9202 H   0  0  0  0  0  0  0  0  0  0  0  0
   35.2521   29.5924   30.9608 H   0  0  0  0  0  0  0  0  0  0  0  0
   33.7855   28.7910   33.4455 H   0  0  0  0  0  0  0  0  0  0  0  0
   36.7665   30.4622   34.2653 H   0  0  0  0  0  0  0  0  0  0  0  0
   36.7929   31.9795   36.2503 H   0  0  0  0  0  0  0  0  0  0  0  0
   33.8052   32.7513   38.2330 H   0  0  0  0  0  0  0  0  0  0  0  0
   35.5559   33.0188   38.0184 H   0  0  0  0  0  0  0  0  0  0  0  0
   35.3020   27.3730   30.7679 H   0  0  0  0  0  0  0  0  0  0  0  0
   37.5972   26.9072   34.4179 H   0  0  0  0  0  0  0  0  0  0  0  0
   36.9839   23.6265   31.7455 H   0  0  0  0  0  0  0  0  0  0  0  0
  1  3  1  0
  2  1  1  0
  2  3  1  0
  3  4  1  0
  4  5  1  0
  4 10  1  0
  5  6  2  0
  6  7  1  0
  7  8  1  0
  9  7  2  0
 10  9  1  0
 11 10  2  0
 12 13  2  0
 13  1  1  0
 13 14  1  0
 15 14  2  0
 16 15  1  0
 17 12  1  0
 17 16  2  0
  1 18  1  1
  2 19  1  0
  2 20  1  0
  3 21  1  6
  5 22  1  0
  6 23  1  0
  8 24  1  0
  8 25  1  0
 12 26  1  0
 14 27  1  0
 16 28  1  0
M  ISO  8  18  13  19  13  20  13  21  13  22  14  23  14  26  14  27  14
M  ISO  1  28  14
M  END
>  <minimizedAffinity>  (1) 
-4.74212646

>  <minimizedRMSD>  (1) 
3.91117764

$$$$
