
     RDKit          3D

 30 32  0  0  1  0  0  0  0  0999 V2000
   37.9980   26.0560   35.7050 C   0  0  1  0  0  0  0  0  0  0  0  0
   38.8270   27.2640   35.6770 C   0  0  0  0  0  0  0  0  0  0  0  0
   38.1130   26.8550   34.4320 C   0  0  2  0  0  0  0  0  0  0  0  0
   39.9790   24.5150   35.4730 C   0  0  0  0  0  0  0  0  0  0  0  0
   38.6030   24.7130   35.7590 C   0  0  0  0  0  0  0  0  0  0  0  0
   37.8540   23.5850   36.0960 C   0  0  0  0  0  0  0  0  0  0  0  0
   38.4580   22.3650   36.1390 N   0  0  0  0  0  0  0  0  0  0  0  0
   39.7940   22.2230   35.8550 C   0  0  0  0  0  0  0  0  0  0  0  0
   40.5350   23.2990   35.5270 N   0  0  0  0  0  0  0  0  0  0  0  0
   34.8980   29.3040   33.0730 C   0  0  0  0  0  0  0  0  0  0  0  0
   35.3950   29.4770   34.3590 C   0  0  0  0  0  0  0  0  0  0  0  0
   36.4430   28.6820   34.8100 C   0  0  0  0  0  0  0  0  0  0  0  0
   37.0050   27.7070   33.9800 C   0  0  0  0  0  0  0  0  0  0  0  0
   36.4910   27.5500   32.6950 C   0  0  0  0  0  0  0  0  0  0  0  0
   35.4510   28.3340   32.2370 C   0  0  0  0  0  0  0  0  0  0  0  0
   33.5770   30.3360   32.5660 S   0  0  0  0  0  0  0  0  0  0  0  0
   32.2810   29.5660   32.5850 O   0  0  0  0  0  0  0  0  0  0  0  0
   33.9010   30.8440   31.1970 O   0  0  0  0  0  0  0  0  0  0  0  0
   37.1769   25.7102   36.3502 H   0  0  0  0  0  0  0  0  0  0  0  0
   38.5026   28.1621   36.2230 H   0  0  0  0  0  0  0  0  0  0  0  0
   39.8753   27.4847   35.9266 H   0  0  0  0  0  0  0  0  0  0  0  0
   38.3797   26.6096   33.3934 H   0  0  0  0  0  0  0  0  0  0  0  0
   40.6019   25.3799   35.2011 H   0  0  0  0  0  0  0  0  0  0  0  0
   36.7825   23.6805   36.3255 H   0  0  0  0  0  0  0  0  0  0  0  0
   40.2605   21.2276   35.8955 H   0  0  0  0  0  0  0  0  0  0  0  0
   34.9601   30.2417   35.0193 H   0  0  0  0  0  0  0  0  0  0  0  0
   36.8334   28.8214   35.8289 H   0  0  0  0  0  0  0  0  0  0  0  0
   36.9224   26.7859   32.0317 H   0  0  0  0  0  0  0  0  0  0  0  0
   35.0605   28.1944   31.2182 H   0  0  0  0  0  0  0  0  0  0  0  0
   33.4220   31.3956   33.4205 H   0  0  0  0  0  0  0  0  0  0  0  0
  1  5  1  0
  2  1  1  0
  3  2  1  0
  3  1  1  0
  4  9  2  0
  4  5  1  0
  5  6  2  0
  6  7  1  0
  8  7  2  0
  9  8  1  0
 10 11  2  0
 11 12  1  0
 13  3  1  0
 13 12  2  0
 14 13  1  0
 15 14  2  0
 15 10  1  0
 16 17  2  0
 16 10  1  0
 18 16  2  0
  1 19  1  1
  2 20  1  0
  2 21  1  0
  3 22  1  6
  4 23  1  0
  6 24  1  0
  8 25  1  0
 11 26  1  0
 12 27  1  0
 14 28  1  0
 15 29  1  0
 16 30  1  0
M  ISO  8  19  13  20  13  21  13  22  13  23  14  24  14  25  14  26  14
M  ISO  4  27  14  28  14  29  14  30  11
M  END
>  <minimizedAffinity>  (1) 
-4.70022249

>  <minimizedRMSD>  (1) 
3.65865469

$$$$
