
     RDKit          3D

 45 49  0  0  0  0  0  0  0  0999 V2000
   41.6270   26.4070   33.7470 C   0  0  0  0  0  0  0  0  0  0  0  0
   42.6920   23.5050   35.8410 C   0  0  0  0  0  0  0  0  0  0  0  0
   42.0590   22.4480   35.1760 C   0  0  0  0  0  0  0  0  0  0  0  0
   41.2980   22.7260   34.0500 C   0  0  0  0  0  0  0  0  0  0  0  0
   41.2110   24.0270   33.6590 N   0  0  0  0  0  0  0  0  0  0  0  0
   41.8250   25.0320   34.3120 C   0  0  0  0  0  0  0  0  0  0  0  0
   42.5570   24.7730   35.3910 N   0  0  0  0  0  0  0  0  0  0  0  0
   40.5900   21.6690   33.2750 C   0  0  0  0  0  0  0  0  0  0  0  0
   41.2970   20.6710   32.5850 C   0  0  0  0  0  0  0  0  0  0  0  0
   39.9450   19.7080   31.8510 S   0  0  0  0  0  0  0  0  0  0  0  0
   38.6240   20.8290   32.6100 C   0  0  0  0  0  0  0  0  0  0  0  0
   39.2800   21.6990   33.2520 N   0  0  0  0  0  0  0  0  0  0  0  0
   37.2010   20.6020   32.4000 C   0  0  0  0  0  0  0  0  0  0  0  0
   36.7120   19.3490   32.0970 C   0  0  0  0  0  0  0  0  0  0  0  0
   35.3490   19.2300   31.9160 C   0  0  0  0  0  0  0  0  0  0  0  0
   34.5300   20.2810   32.0290 N   0  0  0  0  0  0  0  0  0  0  0  0
   35.0430   21.5080   32.3290 C   0  0  0  0  0  0  0  0  0  0  0  0
   36.3610   21.6450   32.5100 N   0  0  0  0  0  0  0  0  0  0  0  0
   40.4250   27.0580   34.3800 C   0  0  0  0  0  0  0  0  0  0  0  0
   39.2290   26.9850   33.5140 C   0  0  0  0  0  0  0  0  0  0  0  0
   38.0490   26.4860   34.0170 C   0  0  0  0  0  0  0  0  0  0  0  0
   36.8590   26.3700   33.2950 C   0  0  0  0  0  0  0  0  0  0  0  0
   36.9040   26.7920   31.9950 N   0  0  0  0  0  0  0  0  0  0  0  0
   38.0620   27.2840   31.4890 C   0  0  0  0  0  0  0  0  0  0  0  0
   39.1930   27.3730   32.2440 N   0  0  0  0  0  0  0  0  0  0  0  0
   38.1470   27.7450   30.1030 C   0  0  0  0  0  0  0  0  0  0  0  0
   39.3040   27.4860   29.3560 C   0  0  0  0  0  0  0  0  0  0  0  0
   39.0680   28.0540   28.0760 C   0  0  0  0  0  0  0  0  0  0  0  0
   37.8140   28.6100   28.1220 N   0  0  0  0  0  0  0  0  0  0  0  0
   37.2860   28.4230   29.3090 N   0  0  0  0  0  0  0  0  0  0  0  0
   42.5201   27.0161   33.9504 H   0  0  0  0  0  0  0  0  0  0  0  0
   41.4656   26.3307   32.6616 H   0  0  0  0  0  0  0  0  0  0  0  0
   43.3020   23.3030   36.7338 H   0  0  0  0  0  0  0  0  0  0  0  0
   42.1633   21.4152   35.5400 H   0  0  0  0  0  0  0  0  0  0  0  0
   42.3832   20.5143   32.5094 H   0  0  0  0  0  0  0  0  0  0  0  0
   37.3804   18.4804   32.0034 H   0  0  0  0  0  0  0  0  0  0  0  0
   34.9252   18.2446   31.6724 H   0  0  0  0  0  0  0  0  0  0  0  0
   34.3776   22.3791   32.4215 H   0  0  0  0  0  0  0  0  0  0  0  0
   40.2058   26.5490   35.3302 H   0  0  0  0  0  0  0  0  0  0  0  0
   40.6616   28.1203   34.5399 H   0  0  0  0  0  0  0  0  0  0  0  0
   38.0427   26.1538   35.0656 H   0  0  0  0  0  0  0  0  0  0  0  0
   35.9411   25.9637   33.7449 H   0  0  0  0  0  0  0  0  0  0  0  0
   40.2065   26.9539   29.6911 H   0  0  0  0  0  0  0  0  0  0  0  0
   39.7549   28.0493   27.2169 H   0  0  0  0  0  0  0  0  0  0  0  0
   37.3555   29.1010   27.3412 H   0  0  0  0  0  0  0  0  0  0  0  0
  1  6  1  0
  1 19  1  0
  3  2  2  0
  4  3  1  0
  5  4  2  0
  5  6  1  0
  6  7  2  0
  7  2  1  0
  8  4  1  0
  9  8  2  0
 10  9  1  0
 10 11  1  0
 11 12  2  0
 12  8  1  0
 13 18  1  0
 13 11  1  0
 14 13  2  0
 15 16  2  0
 15 14  1  0
 16 17  1  0
 17 18  2  0
 20 21  2  0
 20 19  1  0
 22 21  1  0
 23 22  2  0
 24 23  1  0
 24 25  2  0
 25 20  1  0
 26 24  1  0
 27 26  1  0
 28 29  1  0
 28 27  2  0
 29 30  1  0
 30 26  2  0
  1 31  1  0
  1 32  1  0
  2 33  1  0
  3 34  1  0
  9 35  1  0
 14 36  1  0
 15 37  1  0
 17 38  1  0
 19 39  1  0
 19 40  1  0
 21 41  1  0
 22 42  1  0
 27 43  1  0
 28 44  1  0
 29 45  1  0
M  ISO  8  31   8  32   8  33  14  34  14  35  14  36  14  37  14  38  14
M  ISO  7  39   8  40   8  41  14  42  14  43  14  44  14  45   9
M  END
>  <minimizedAffinity>  (1) 
-4.96410036

>  <minimizedRMSD>  (1) 
3.28063083

$$$$
