
     RDKit          3D

 31 33  0  0  1  0  0  0  0  0999 V2000
   37.6170   25.7740   35.7570 C   0  0  1  0  0  0  0  0  0  0  0  0
   38.1830   27.1130   35.5730 C   0  0  0  0  0  0  0  0  0  0  0  0
   38.1130   26.2090   34.3990 C   0  0  2  0  0  0  0  0  0  0  0  0
   39.4710   24.0500   35.8730 C   0  0  0  0  0  0  0  0  0  0  0  0
   38.3730   24.7230   36.4820 C   0  0  0  0  0  0  0  0  0  0  0  0
   38.0130   24.3570   37.7920 C   0  0  0  0  0  0  0  0  0  0  0  0
   38.7410   23.3770   38.4020 N   0  0  0  0  0  0  0  0  0  0  0  0
   39.7810   22.7560   37.7960 C   0  0  0  0  0  0  0  0  0  0  0  0
   40.1320   23.1010   36.5400 N   0  0  0  0  0  0  0  0  0  0  0  0
   37.1440   26.2790   33.3720 N   0  0  0  0  0  0  0  0  0  0  0  0
   36.9650   27.5720   32.7940 C   0  0  0  0  0  0  0  0  0  0  0  0
   35.8940   27.5480   31.7410 C   0  0  0  0  0  0  0  0  0  0  0  0
   36.1310   26.5940   30.6980 N   0  0  0  0  0  0  0  0  0  0  0  0
   36.9950   25.5020   31.0460 C   0  0  0  0  0  0  0  0  0  0  0  0
   36.9930   25.1750   32.5120 C   0  0  0  0  0  0  0  0  0  0  0  0
   36.6719   25.3929   36.1711 H   0  0  0  0  0  0  0  0  0  0  0  0
   37.5266   27.9943   35.6228 H   0  0  0  0  0  0  0  0  0  0  0  0
   38.9908   27.6792   36.0596 H   0  0  0  0  0  0  0  0  0  0  0  0
   38.8645   25.9207   33.6493 H   0  0  0  0  0  0  0  0  0  0  0  0
   39.7754   24.3133   34.8493 H   0  0  0  0  0  0  0  0  0  0  0  0
   37.1725   24.8447   38.3075 H   0  0  0  0  0  0  0  0  0  0  0  0
   40.3389   21.9710   38.3275 H   0  0  0  0  0  0  0  0  0  0  0  0
   36.6774   28.2821   33.5833 H   0  0  0  0  0  0  0  0  0  0  0  0
   37.9110   27.8797   32.3244 H   0  0  0  0  0  0  0  0  0  0  0  0
   34.9371   27.3026   32.2248 H   0  0  0  0  0  0  0  0  0  0  0  0
   35.8844   28.5422   31.2704 H   0  0  0  0  0  0  0  0  0  0  0  0
   36.5538   27.0923   29.9019 H   0  0  0  0  0  0  0  0  0  0  0  0
   36.6688   24.6103   30.4907 H   0  0  0  0  0  0  0  0  0  0  0  0
   38.0194   25.8066   30.7856 H   0  0  0  0  0  0  0  0  0  0  0  0
   36.0369   24.6861   32.7504 H   0  0  0  0  0  0  0  0  0  0  0  0
   37.8694   24.5325   32.6829 H   0  0  0  0  0  0  0  0  0  0  0  0
  1  5  1  0
  2  1  1  0
  3  2  1  0
  3  1  1  0
  4  5  2  0
  4  9  1  0
  5  6  1  0
  6  7  2  0
  8  7  1  0
  9  8  2  0
 10  3  1  0
 11 10  1  0
 12 11  1  0
 13 14  1  0
 13 12  1  0
 14 15  1  0
 15 10  1  0
  1 16  1  6
  2 17  1  0
  2 18  1  0
  3 19  1  6
  4 20  1  0
  6 21  1  0
  8 22  1  0
 11 23  1  0
 11 24  1  0
 12 25  1  0
 12 26  1  0
 13 27  1  0
 14 28  1  0
 14 29  1  0
 15 30  1  0
 15 31  1  0
M  ISO  8  16  13  17  13  18  13  19  13  20  14  21  14  22  14  23  13
M  ISO  8  24  13  25  13  26  13  27   5  28  13  29  13  30  13  31  13
M  END
>  <minimizedAffinity>  (1) 
-4.60693359

>  <minimizedRMSD>  (1) 
3.74105406

$$$$
