
     RDKit          3D

 25 27  0  0  1  0  0  0  0  0999 V2000
   38.3450   26.4410   34.6620 C   0  0  1  0  0  0  0  0  0  0  0  0
   38.2590   27.1430   35.9430 C   0  0  0  0  0  0  0  0  0  0  0  0
   37.6760   25.7720   35.8440 C   0  0  2  0  0  0  0  0  0  0  0  0
   36.6580   28.0020   33.5820 C   0  0  0  0  0  0  0  0  0  0  0  0
   37.4890   26.8470   33.5070 C   0  0  0  0  0  0  0  0  0  0  0  0
   37.4770   26.1050   32.3250 C   0  0  0  0  0  0  0  0  0  0  0  0
   36.6740   26.5160   31.3000 N   0  0  0  0  0  0  0  0  0  0  0  0
   35.8910   27.6290   31.4100 C   0  0  0  0  0  0  0  0  0  0  0  0
   35.8930   28.3550   32.5470 N   0  0  0  0  0  0  0  0  0  0  0  0
   38.4020   24.6990   36.5730 C   0  0  0  0  0  0  0  0  0  0  0  0
   38.0570   24.3600   37.8590 C   0  0  0  0  0  0  0  0  0  0  0  0
   38.7290   23.3650   38.5370 C   0  0  0  0  0  0  0  0  0  0  0  0
   39.7470   22.7260   37.8930 N   0  0  0  0  0  0  0  0  0  0  0  0
   40.0930   23.0500   36.6340 C   0  0  0  0  0  0  0  0  0  0  0  0
   39.4210   24.0280   35.9880 N   0  0  0  0  0  0  0  0  0  0  0  0
   39.1743   26.2018   33.9800 H   0  0  0  0  0  0  0  0  0  0  0  0
   39.1699   27.3068   36.5375 H   0  0  0  0  0  0  0  0  0  0  0  0
   37.8697   28.1225   36.2577 H   0  0  0  0  0  0  0  0  0  0  0  0
   36.6970   25.2988   36.0101 H   0  0  0  0  0  0  0  0  0  0  0  0
   36.6469   28.6075   34.5003 H   0  0  0  0  0  0  0  0  0  0  0  0
   38.1026   25.2062   32.2211 H   0  0  0  0  0  0  0  0  0  0  0  0
   35.2548   27.9355   30.5666 H   0  0  0  0  0  0  0  0  0  0  0  0
   37.2315   24.8909   38.3557 H   0  0  0  0  0  0  0  0  0  0  0  0
   38.4521   23.0948   39.5667 H   0  0  0  0  0  0  0  0  0  0  0  0
   40.9180   22.5219   36.1336 H   0  0  0  0  0  0  0  0  0  0  0  0
  1  3  1  0
  1  2  1  0
  3  2  1  0
  3 10  1  0
  5  4  2  0
  5  1  1  0
  6  5  1  0
  7  8  1  0
  7  6  2  0
  8  9  2  0
  9  4  1  0
 10 11  2  0
 11 12  1  0
 13 12  2  0
 14 13  1  0
 15 10  1  0
 15 14  2  0
  1 16  1  6
  2 17  1  0
  2 18  1  0
  3 19  1  6
  4 20  1  0
  6 21  1  0
  8 22  1  0
 11 23  1  0
 12 24  1  0
 14 25  1  0
M  ISO  8  16  13  17  13  18  13  19  13  20  14  21  14  22  14  23  14
M  ISO  2  24  14  25  14
M  END
>  <minimizedAffinity>  (1) 
-4.60500431

>  <minimizedRMSD>  (1) 
5.77774525

$$$$
