
     RDKit          3D

 28 31  0  0  1  0  0  0  0  0999 V2000
   38.1730   25.9390   36.2960 C   0  0  1  0  0  0  0  0  0  0  0  0
   38.7390   27.2080   35.8200 C   0  0  0  0  0  0  0  0  0  0  0  0
   37.4100   26.7740   35.3090 C   0  0  1  0  0  0  0  0  0  0  0  0
   37.2100   26.3470   33.9470 N   0  0  0  0  0  0  0  0  0  0  0  0
   37.2910   25.1570   33.2810 C   0  0  0  0  0  0  0  0  0  0  0  0
   36.9880   25.3560   31.9800 N   0  0  0  0  0  0  0  0  0  0  0  0
   36.7170   26.6590   31.8190 C   0  0  0  0  0  0  0  0  0  0  0  0
   36.3570   27.3000   30.6320 C   0  0  0  0  0  0  0  0  0  0  0  0
   36.1390   28.6380   30.7630 N   0  0  0  0  0  0  0  0  0  0  0  0
   36.2580   29.2880   31.9270 C   0  0  0  0  0  0  0  0  0  0  0  0
   36.6060   28.6290   33.0350 N   0  0  0  0  0  0  0  0  0  0  0  0
   36.8520   27.2900   33.0370 C   0  0  0  0  0  0  0  0  0  0  0  0
   40.0160   24.5900   35.2510 C   0  0  0  0  0  0  0  0  0  0  0  0
   38.7610   24.6540   35.8780 C   0  0  0  0  0  0  0  0  0  0  0  0
   38.1170   23.4330   36.0790 C   0  0  0  0  0  0  0  0  0  0  0  0
   38.7080   22.2920   35.6790 N   0  0  0  0  0  0  0  0  0  0  0  0
   39.9410   22.2860   35.0690 C   0  0  0  0  0  0  0  0  0  0  0  0
   40.5900   23.4530   34.8600 N   0  0  0  0  0  0  0  0  0  0  0  0
   37.9570   25.5102   37.2857 H   0  0  0  0  0  0  0  0  0  0  0  0
   38.8085   28.0668   36.5038 H   0  0  0  0  0  0  0  0  0  0  0  0
   39.6889   27.5010   35.3490 H   0  0  0  0  0  0  0  0  0  0  0  0
   36.4056   27.2203   35.2646 H   0  0  0  0  0  0  0  0  0  0  0  0
   37.5601   24.1907   33.7324 H   0  0  0  0  0  0  0  0  0  0  0  0
   36.2579   26.7698   29.6733 H   0  0  0  0  0  0  0  0  0  0  0  0
   36.0681   30.3706   31.9711 H   0  0  0  0  0  0  0  0  0  0  0  0
   40.5556   25.5318   35.0726 H   0  0  0  0  0  0  0  0  0  0  0  0
   37.1295   23.4029   36.5628 H   0  0  0  0  0  0  0  0  0  0  0  0
   40.3965   21.3360   34.7528 H   0  0  0  0  0  0  0  0  0  0  0  0
  2  1  1  0
  3  2  1  0
  3  1  1  0
  4  3  1  0
  5  4  1  0
  6  5  2  0
  7  6  1  0
  7 12  2  0
  8  9  2  0
  8  7  1  0
  9 10  1  0
 10 11  2  0
 11 12  1  0
 12  4  1  0
 13 14  2  0
 14 15  1  0
 14  1  1  0
 16 15  2  0
 17 16  1  0
 18 17  2  0
 18 13  1  0
  1 19  1  1
  2 20  1  0
  2 21  1  0
  3 22  1  1
  5 23  1  0
  8 24  1  0
 10 25  1  0
 13 26  1  0
 15 27  1  0
 17 28  1  0
M  ISO  8  19  13  20  13  21  13  22  13  23  14  24  14  25  14  26  14
M  ISO  2  27  14  28  14
M  END
>  <minimizedAffinity>  (1) 
-4.59950447

>  <minimizedRMSD>  (1) 
1.43600821

$$$$
