
     RDKit          3D

 24 26  0  0  1  0  0  0  0  0999 V2000
   38.3510   26.1190   34.7780 C   0  0  1  0  0  0  0  0  0  0  0  0
   38.4330   27.0950   35.8610 C   0  0  0  0  0  0  0  0  0  0  0  0
   37.6680   25.8410   36.0990 C   0  0  2  0  0  0  0  0  0  0  0  0
   37.0050   27.6830   33.2880 C   0  0  0  0  0  0  0  0  0  0  0  0
   37.4830   26.3740   33.5920 C   0  0  0  0  0  0  0  0  0  0  0  0
   37.1050   25.3250   32.7410 C   0  0  0  0  0  0  0  0  0  0  0  0
   36.3080   25.6110   31.6760 N   0  0  0  0  0  0  0  0  0  0  0  0
   35.8690   26.8690   31.4120 C   0  0  0  0  0  0  0  0  0  0  0  0
   36.2250   27.8880   32.2240 N   0  0  0  0  0  0  0  0  0  0  0  0
   38.2520   24.7200   36.8780 C   0  0  0  0  0  0  0  0  0  0  0  0
   37.9810   24.4430   38.2030 C   0  0  0  0  0  0  0  0  0  0  0  0
   38.7260   23.3280   38.5290 C   0  0  0  0  0  0  0  0  0  0  0  0
   39.4100   22.9790   37.3950 C   0  0  0  0  0  0  0  0  0  0  0  0
   39.1120   23.8230   36.4230 O   0  0  0  0  0  0  0  0  0  0  0  0
   39.1005   25.6161   34.1492 H   0  0  0  0  0  0  0  0  0  0  0  0
   39.3903   27.2561   36.3783 H   0  0  0  0  0  0  0  0  0  0  0  0
   38.1976   28.1659   35.9484 H   0  0  0  0  0  0  0  0  0  0  0  0
   36.6553   25.6387   36.4779 H   0  0  0  0  0  0  0  0  0  0  0  0
   37.2808   28.5292   33.9344 H   0  0  0  0  0  0  0  0  0  0  0  0
   37.4447   24.2960   32.9301 H   0  0  0  0  0  0  0  0  0  0  0  0
   35.2257   27.0573   30.5398 H   0  0  0  0  0  0  0  0  0  0  0  0
   37.3049   25.0008   38.8676 H   0  0  0  0  0  0  0  0  0  0  0  0
   38.7630   22.8210   39.5045 H   0  0  0  0  0  0  0  0  0  0  0  0
   40.1008   22.1275   37.3070 H   0  0  0  0  0  0  0  0  0  0  0  0
  1  2  1  0
  1  3  1  0
  2  3  1  0
  3 10  1  0
  4  5  2  0
  5  1  1  0
  6  5  1  0
  7  6  2  0
  8  7  1  0
  8  9  2  0
  9  4  1  0
 10 11  2  0
 11 12  1  0
 13 12  2  0
 14 10  1  0
 14 13  1  0
  1 15  1  6
  2 16  1  0
  2 17  1  0
  3 18  1  6
  4 19  1  0
  6 20  1  0
  8 21  1  0
 11 22  1  0
 12 23  1  0
 13 24  1  0
M  ISO  8  15  13  16  13  17  13  18  13  19  14  20  14  21  14  22  14
M  ISO  2  23  14  24  14
M  END
>  <minimizedAffinity>  (1) 
-4.48449183

>  <minimizedRMSD>  (1) 
5.17609787

$$$$
