
     RDKit          3D

 27 29  0  0  1  0  0  0  0  0999 V2000
   39.5970   26.8220   34.9000 C   0  0  1  0  0  0  0  0  0  0  0  0
   40.6030   26.8590   33.8380 C   0  0  0  0  0  0  0  0  0  0  0  0
   39.1840   27.0810   33.4680 C   0  0  1  0  0  0  0  0  0  0  0  0
   40.0300   24.3800   35.4420 C   0  0  0  0  0  0  0  0  0  0  0  0
   39.1930   25.5310   35.5170 C   0  0  0  0  0  0  0  0  0  0  0  0
   37.9780   25.3910   36.1910 C   0  0  0  0  0  0  0  0  0  0  0  0
   37.6490   24.1890   36.7380 N   0  0  0  0  0  0  0  0  0  0  0  0
   38.4850   23.1040   36.6430 C   0  0  0  0  0  0  0  0  0  0  0  0
   39.6630   23.2220   35.9950 N   0  0  0  0  0  0  0  0  0  0  0  0
   38.4190   26.0980   32.7650 N   0  0  0  0  0  0  0  0  0  0  0  0
   38.8110   24.9630   32.1640 C   0  0  0  0  0  0  0  0  0  0  0  0
   37.8970   24.1420   31.5330 C   0  0  0  0  0  0  0  0  0  0  0  0
   36.5450   24.4800   31.5090 C   0  0  0  0  0  0  0  0  0  0  0  0
   35.7250   23.7210   30.9290 O   0  0  0  0  0  0  0  0  0  0  0  0
   36.1850   25.6190   32.1170 N   0  0  0  0  0  0  0  0  0  0  0  0
   37.0920   26.4210   32.7360 C   0  0  0  0  0  0  0  0  0  0  0  0
   36.5650   27.4600   33.2590 O   0  0  0  0  0  0  0  0  0  0  0  0
   39.4874   27.3378   35.8654 H   0  0  0  0  0  0  0  0  0  0  0  0
   41.3157   27.6956   33.7913 H   0  0  0  0  0  0  0  0  0  0  0  0
   41.3850   26.1644   33.4975 H   0  0  0  0  0  0  0  0  0  0  0  0
   38.6429   27.8660   32.9194 H   0  0  0  0  0  0  0  0  0  0  0  0
   40.9955   24.4471   34.9192 H   0  0  0  0  0  0  0  0  0  0  0  0
   37.2917   26.2461   36.2792 H   0  0  0  0  0  0  0  0  0  0  0  0
   38.1959   22.1428   37.0930 H   0  0  0  0  0  0  0  0  0  0  0  0
   39.8748   24.6832   32.1744 H   0  0  0  0  0  0  0  0  0  0  0  0
   38.2380   23.2162   31.0466 H   0  0  0  0  0  0  0  0  0  0  0  0
   35.1926   25.8948   32.1153 H   0  0  0  0  0  0  0  0  0  0  0  0
  1  5  1  0
  2  1  1  0
  3  2  1  0
  3  1  1  0
  4  5  2  0
  4  9  1  0
  5  6  1  0
  6  7  2  0
  8  7  1  0
  9  8  2  0
 10  3  1  0
 11 10  1  0
 12 11  2  0
 13 12  1  0
 13 15  1  0
 14 13  2  0
 15 16  1  0
 16 10  1  0
 16 17  2  0
  1 18  1  1
  2 19  1  0
  2 20  1  0
  3 21  1  1
  4 22  1  0
  6 23  1  0
  8 24  1  0
 11 25  1  0
 12 26  1  0
 15 27  1  0
M  ISO  8  18  13  19  13  20  13  21  13  22  14  23  14  24  14  25  14
M  ISO  2  26  14  27   9
M  END
>  <minimizedAffinity>  (1) 
-4.25350094

>  <minimizedRMSD>  (1) 
2.21989298

$$$$
