
     RDKit          3D

 23 25  0  0  1  0  0  0  0  0999 V2000
   38.3500   26.4100   36.2950 C   0  0  1  0  0  0  0  0  0  0  0  0
   39.1660   27.2680   35.4340 C   0  0  0  0  0  0  0  0  0  0  0  0
   37.6790   27.2030   35.2550 C   0  0  1  0  0  0  0  0  0  0  0  0
   39.5530   24.3260   35.5750 C   0  0  0  0  0  0  0  0  0  0  0  0
   38.4530   24.9400   36.1940 C   0  0  0  0  0  0  0  0  0  0  0  0
   37.4500   24.0810   36.6960 C   0  0  0  0  0  0  0  0  0  0  0  0
   37.5980   22.7420   36.5560 N   0  0  0  0  0  0  0  0  0  0  0  0
   38.6830   22.2060   35.9470 C   0  0  0  0  0  0  0  0  0  0  0  0
   39.6590   23.0000   35.4580 N   0  0  0  0  0  0  0  0  0  0  0  0
   37.2550   26.6930   33.9480 C   0  0  0  0  0  0  0  0  0  0  0  0
   36.5840   27.6740   32.9360 C   0  0  0  0  0  0  0  0  0  0  0  0
   36.2710   26.4300   31.5540 S   0  0  0  0  0  0  0  0  0  0  0  0
   37.0220   24.9940   32.5080 C   0  0  0  0  0  0  0  0  0  0  0  0
   37.4030   25.4260   33.6100 N   0  0  0  0  0  0  0  0  0  0  0  0
   38.2141   26.3062   37.3816 H   0  0  0  0  0  0  0  0  0  0  0  0
   39.6330   28.1758   35.8436 H   0  0  0  0  0  0  0  0  0  0  0  0
   40.0385   27.1160   34.7816 H   0  0  0  0  0  0  0  0  0  0  0  0
   36.7907   27.8499   35.3047 H   0  0  0  0  0  0  0  0  0  0  0  0
   40.3566   24.9598   35.1718 H   0  0  0  0  0  0  0  0  0  0  0  0
   36.5605   24.4942   37.1940 H   0  0  0  0  0  0  0  0  0  0  0  0
   38.7694   21.1137   35.8501 H   0  0  0  0  0  0  0  0  0  0  0  0
   36.3637   28.7494   33.0067 H   0  0  0  0  0  0  0  0  0  0  0  0
   37.1088   23.9561   32.1540 H   0  0  0  0  0  0  0  0  0  0  0  0
  2  1  1  0
  3  2  1  0
  3  1  1  0
  4  5  2  0
  5  1  1  0
  5  6  1  0
  7  6  2  0
  8  7  1  0
  9  4  1  0
  9  8  2  0
 10  3  1  0
 11 10  2  0
 12 13  1  0
 12 11  1  0
 13 14  2  0
 14 10  1  0
  1 15  1  1
  2 16  1  0
  2 17  1  0
  3 18  1  1
  4 19  1  0
  6 20  1  0
  8 21  1  0
 11 22  1  0
 13 23  1  0
M  ISO  8  15  13  16  13  17  13  18  13  19  14  20  14  21  14  22  14
M  ISO  1  23  14
M  END
>  <minimizedAffinity>  (1) 
-4.11566639

>  <minimizedRMSD>  (1) 
0.83289212

$$$$
