
     RDKit          3D

 26 27  0  0  1  0  0  0  0  0999 V2000
   38.7670   26.3890   36.2350 C   0  0  1  0  0  0  0  0  0  0  0  0
   39.4630   27.1030   35.1700 C   0  0  0  0  0  0  0  0  0  0  0  0
   38.0610   27.4470   35.4430 C   0  0  1  0  0  0  0  0  0  0  0  0
   38.7560   24.2130   34.9840 C   0  0  0  0  0  0  0  0  0  0  0  0
   38.3790   24.9820   36.0950 C   0  0  0  0  0  0  0  0  0  0  0  0
   37.5940   24.3200   37.0700 C   0  0  0  0  0  0  0  0  0  0  0  0
   37.2590   23.0220   36.8850 N   0  0  0  0  0  0  0  0  0  0  0  0
   37.6580   22.3370   35.7850 C   0  0  0  0  0  0  0  0  0  0  0  0
   38.4040   22.9370   34.8410 N   0  0  0  0  0  0  0  0  0  0  0  0
   37.0380   27.1740   34.4130 C   0  0  0  0  0  0  0  0  0  0  0  0
   37.7160   27.1880   33.0380 C   0  0  0  0  0  0  0  0  0  0  0  0
   36.0750   28.3680   34.3770 C   0  0  0  0  0  0  0  0  0  0  0  0
   38.9705   26.2035   37.3000 H   0  0  0  0  0  0  0  0  0  0  0  0
   39.7245   26.5763   34.2404 H   0  0  0  0  0  0  0  0  0  0  0  0
   40.3988   27.6785   35.1146 H   0  0  0  0  0  0  0  0  0  0  0  0
   37.4805   28.3381   35.7238 H   0  0  0  0  0  0  0  0  0  0  0  0
   39.3670   24.6832   34.1994 H   0  0  0  0  0  0  0  0  0  0  0  0
   37.2593   24.8563   37.9702 H   0  0  0  0  0  0  0  0  0  0  0  0
   37.3692   21.2825   35.6640 H   0  0  0  0  0  0  0  0  0  0  0  0
   36.5394   26.2183   34.6323 H   0  0  0  0  0  0  0  0  0  0  0  0
   38.8081   27.2106   33.1679 H   0  0  0  0  0  0  0  0  0  0  0  0
   37.4317   26.2838   32.4798 H   0  0  0  0  0  0  0  0  0  0  0  0
   37.3946   28.0797   32.4798 H   0  0  0  0  0  0  0  0  0  0  0  0
   35.8296   28.6723   35.4052 H   0  0  0  0  0  0  0  0  0  0  0  0
   36.5516   29.2077   33.8500 H   0  0  0  0  0  0  0  0  0  0  0  0
   35.1534   28.0800   33.8500 H   0  0  0  0  0  0  0  0  0  0  0  0
  2  3  1  0
  2  1  1  0
  3  1  1  0
  4  5  2  0
  5  1  1  0
  5  6  1  0
  7  6  2  0
  8  7  1  0
  9  4  1  0
  9  8  2  0
 10  3  1  0
 11 10  1  0
 12 10  1  0
  1 13  1  1
  2 14  1  0
  2 15  1  0
  3 16  1  1
  4 17  1  0
  6 18  1  0
  8 19  1  0
 10 20  1  0
 11 21  1  0
 11 22  1  0
 11 23  1  0
 12 24  1  0
 12 25  1  0
 12 26  1  0
M  ISO  8  13  13  14  13  15  13  16  13  17  14  18  14  19  14  20   8
M  ISO  6  21   8  22   8  23   8  24   8  25   8  26   8
M  END
>  <minimizedAffinity>  (1) 
-3.88819599

>  <minimizedRMSD>  (1) 
0.949081004

$$$$
