
     RDKit          3D

 29 30  0  0  1  0  0  0  0  0999 V2000
   38.3430   25.7710   34.9180 C   0  0  1  0  0  0  0  0  0  0  0  0
   38.4000   26.5220   36.1620 C   0  0  0  0  0  0  0  0  0  0  0  0
   37.6760   25.2170   36.1570 C   0  0  2  0  0  0  0  0  0  0  0  0
   37.0470   27.5240   33.6680 C   0  0  0  0  0  0  0  0  0  0  0  0
   37.4990   26.1930   33.7890 C   0  0  0  0  0  0  0  0  0  0  0  0
   37.0950   25.3190   32.7790 C   0  0  0  0  0  0  0  0  0  0  0  0
   36.3230   25.7650   31.7720 N   0  0  0  0  0  0  0  0  0  0  0  0
   35.9100   27.0680   31.6980 C   0  0  0  0  0  0  0  0  0  0  0  0
   36.2790   27.9460   32.6570 N   0  0  0  0  0  0  0  0  0  0  0  0
   38.2360   23.9800   36.7770 C   0  0  0  0  0  0  0  0  0  0  0  0
   39.6670   23.7110   36.3720 C   0  0  0  0  0  0  0  0  0  0  0  0
   37.4350   22.7440   36.4210 C   0  0  0  0  0  0  0  0  0  0  0  0
   38.1340   24.1260   38.2950 C   0  0  0  0  0  0  0  0  0  0  0  0
   39.1083   25.4282   34.2061 H   0  0  0  0  0  0  0  0  0  0  0  0
   39.3550   26.6135   36.7002 H   0  0  0  0  0  0  0  0  0  0  0  0
   38.1302   27.5482   36.4520 H   0  0  0  0  0  0  0  0  0  0  0  0
   36.6698   24.8984   36.4668 H   0  0  0  0  0  0  0  0  0  0  0  0
   37.3399   28.2492   34.4415 H   0  0  0  0  0  0  0  0  0  0  0  0
   37.4080   24.2648   32.8064 H   0  0  0  0  0  0  0  0  0  0  0  0
   35.2793   27.3997   30.8600 H   0  0  0  0  0  0  0  0  0  0  0  0
   40.2873   23.5944   37.2729 H   0  0  0  0  0  0  0  0  0  0  0  0
   39.7117   22.7887   35.7742 H   0  0  0  0  0  0  0  0  0  0  0  0
   40.0435   24.5541   35.7742 H   0  0  0  0  0  0  0  0  0  0  0  0
   37.1087   22.2404   37.3429 H   0  0  0  0  0  0  0  0  0  0  0  0
   36.5537   23.0356   35.8308 H   0  0  0  0  0  0  0  0  0  0  0  0
   38.0611   22.0587   35.8308 H   0  0  0  0  0  0  0  0  0  0  0  0
   38.6994   23.3167   38.7800 H   0  0  0  0  0  0  0  0  0  0  0  0
   38.5508   25.0976   38.5987 H   0  0  0  0  0  0  0  0  0  0  0  0
   37.0783   24.0688   38.5987 H   0  0  0  0  0  0  0  0  0  0  0  0
  1  3  1  0
  1  2  1  0
  3  2  1  0
  3 10  1  0
  4  5  2  0
  5  1  1  0
  6  5  1  0
  7  6  2  0
  8  7  1  0
  8  9  2  0
  9  4  1  0
 10 13  1  0
 11 10  1  0
 12 10  1  0
  1 14  1  6
  2 15  1  0
  2 16  1  0
  3 17  1  6
  4 18  1  0
  6 19  1  0
  8 20  1  0
 11 21  1  0
 11 22  1  0
 11 23  1  0
 12 24  1  0
 12 25  1  0
 12 26  1  0
 13 27  1  0
 13 28  1  0
 13 29  1  0
M  ISO  8  14  13  15  13  16  13  17  13  18  14  19  14  20  14  21   8
M  ISO  8  22   8  23   8  24   8  25   8  26   8  27   8  28   8  29   8
M  END
>  <minimizedAffinity>  (1) 
-3.84807062

>  <minimizedRMSD>  (1) 
4.84371948

$$$$
