
     RDKit          3D

 30 32  0  0  1  0  0  0  0  0999 V2000
   38.2690   26.5330   33.8130 C   0  0  1  0  0  0  0  0  0  0  0  0
   38.1770   26.1790   32.4010 C   0  0  0  0  0  0  0  0  0  0  0  0
   37.0030   26.8190   33.0340 C   0  0  2  0  0  0  0  0  0  0  0  0
   38.3020   24.1160   34.5520 C   0  0  0  0  0  0  0  0  0  0  0  0
   38.2320   25.5030   34.8680 C   0  0  0  0  0  0  0  0  0  0  0  0
   38.1230   25.8270   36.2210 C   0  0  0  0  0  0  0  0  0  0  0  0
   38.0890   24.8490   37.1480 N   0  0  0  0  0  0  0  0  0  0  0  0
   38.1600   23.5250   36.7910 C   0  0  0  0  0  0  0  0  0  0  0  0
   38.2670   23.1650   35.4950 N   0  0  0  0  0  0  0  0  0  0  0  0
   36.7310   28.2010   32.8360 N   0  0  0  0  0  0  0  0  0  0  0  0
   36.8000   28.6970   31.5160 C   0  0  0  0  0  0  0  0  0  0  0  0
   35.7570   29.7880   31.3380 C   0  0  0  0  0  0  0  0  0  0  0  0
   36.0300   30.7400   32.3200 O   0  0  0  0  0  0  0  0  0  0  0  0
   35.5370   30.2390   33.5170 C   0  0  0  0  0  0  0  0  0  0  0  0
   35.7290   28.7690   33.6770 C   0  0  0  0  0  0  0  0  0  0  0  0
   38.9864   27.1167   34.4085 H   0  0  0  0  0  0  0  0  0  0  0  0
   38.1273   25.1201   32.1074 H   0  0  0  0  0  0  0  0  0  0  0  0
   38.7866   26.4048   31.5137 H   0  0  0  0  0  0  0  0  0  0  0  0
   35.9349   26.5591   33.0730 H   0  0  0  0  0  0  0  0  0  0  0  0
   38.3878   23.8153   33.4974 H   0  0  0  0  0  0  0  0  0  0  0  0
   38.0648   26.8808   36.5311 H   0  0  0  0  0  0  0  0  0  0  0  0
   38.1293   22.7492   37.5702 H   0  0  0  0  0  0  0  0  0  0  0  0
   37.8018   29.1117   31.3305 H   0  0  0  0  0  0  0  0  0  0  0  0
   36.6074   27.8812   30.8037 H   0  0  0  0  0  0  0  0  0  0  0  0
   35.8389   30.2363   30.3369 H   0  0  0  0  0  0  0  0  0  0  0  0
   34.7357   29.3905   31.4329 H   0  0  0  0  0  0  0  0  0  0  0  0
   36.0520   30.7484   34.3448 H   0  0  0  0  0  0  0  0  0  0  0  0
   34.4526   30.4233   33.5198 H   0  0  0  0  0  0  0  0  0  0  0  0
   34.7731   28.2728   33.4533 H   0  0  0  0  0  0  0  0  0  0  0  0
   36.0682   28.6121   34.7116 H   0  0  0  0  0  0  0  0  0  0  0  0
  1  5  1  0
  2  3  1  0
  2  1  1  0
  3  1  1  0
  4  5  2  0
  4  9  1  0
  5  6  1  0
  6  7  2  0
  8  7  1  0
  9  8  2  0
 10  3  1  0
 10 15  1  0
 11 10  1  0
 12 11  1  0
 12 13  1  0
 13 14  1  0
 14 15  1  0
  1 16  1  6
  2 17  1  0
  2 18  1  0
  3 19  1  1
  4 20  1  0
  6 21  1  0
  8 22  1  0
 11 23  1  0
 11 24  1  0
 12 25  1  0
 12 26  1  0
 14 27  1  0
 14 28  1  0
 15 29  1  0
 15 30  1  0
M  ISO  8  16  13  17  13  18  13  19  13  20  14  21  14  22  14  23  13
M  ISO  7  24  13  25  13  26  13  27  13  28  13  29  13  30  13
M  END
>  <minimizedAffinity>  (1) 
-3.54813814

>  <minimizedRMSD>  (1) 
3.17330909

$$$$
