
     RDKit          3D

 18 19  0  0  1  0  0  0  0  0999 V2000
   38.5140   24.1860   34.8830 C   0  0  0  0  0  0  0  0  0  0  0  0
   38.1980   24.8900   36.0830 C   0  0  0  0  0  0  0  0  0  0  0  0
   37.5970   24.1620   37.1130 C   0  0  0  0  0  0  0  0  0  0  0  0
   37.3460   22.8370   36.9220 N   0  0  0  0  0  0  0  0  0  0  0  0
   37.6620   22.1970   35.7640 C   0  0  0  0  0  0  0  0  0  0  0  0
   38.2370   22.8890   34.7780 N   0  0  0  0  0  0  0  0  0  0  0  0
   38.4970   26.3340   36.2250 C   0  0  1  0  0  0  0  0  0  0  0  0
   39.2890   27.0490   35.2320 C   0  0  0  0  0  0  0  0  0  0  0  0
   37.8170   27.3000   35.2820 C   0  0  2  0  0  0  0  0  0  0  0  0
   37.4460   28.5610   35.7480 O   0  0  0  0  0  0  0  0  0  0  0  0
   38.9873   24.7163   34.0435 H   0  0  0  0  0  0  0  0  0  0  0  0
   37.3311   24.6506   38.0620 H   0  0  0  0  0  0  0  0  0  0  0  0
   37.4469   21.1252   35.6420 H   0  0  0  0  0  0  0  0  0  0  0  0
   38.5813   26.2135   37.3151 H   0  0  0  0  0  0  0  0  0  0  0  0
   39.7204   26.5014   34.3811 H   0  0  0  0  0  0  0  0  0  0  0  0
   40.1801   27.6923   35.2781 H   0  0  0  0  0  0  0  0  0  0  0  0
   36.9560   27.2285   34.6011 H   0  0  0  0  0  0  0  0  0  0  0  0
   37.4462   28.5602   36.7380 H   0  0  0  0  0  0  0  0  0  0  0  0
  1  2  2  0
  2  7  1  0
  2  3  1  0
  4  3  2  0
  5  4  1  0
  6  1  1  0
  6  5  2  0
  8  9  1  0
  8  7  1  0
  9 10  1  0
  9  7  1  0
  1 11  1  0
  3 12  1  0
  5 13  1  0
  7 14  1  1
  8 15  1  0
  8 16  1  0
  9 17  1  6
 10 18  1  0
M  ISO  8  11  14  12  14  13  14  14  13  15  13  16  13  17  13  18   3
M  END
>  <minimizedAffinity>  (1) 
-3.42691135

>  <minimizedRMSD>  (1) 
0.146983922

$$$$
