
     RDKit          3D

 19 20  0  0  1  0  0  0  0  0999 V2000
   38.6580   26.3860   36.2440 C   0  0  1  0  0  0  0  0  0  0  0  0
   39.2770   27.1190   35.1400 C   0  0  0  0  0  0  0  0  0  0  0  0
   37.8640   27.4260   35.5060 C   0  0  1  0  0  0  0  0  0  0  0  0
   38.6850   24.2240   34.9760 C   0  0  0  0  0  0  0  0  0  0  0  0
   38.3130   24.9620   36.1130 C   0  0  0  0  0  0  0  0  0  0  0  0
   37.6100   24.2720   37.1010 C   0  0  0  0  0  0  0  0  0  0  0  0
   37.3280   22.9530   36.9200 N   0  0  0  0  0  0  0  0  0  0  0  0
   37.7150   22.2830   35.7930 C   0  0  0  0  0  0  0  0  0  0  0  0
   38.3890   22.9210   34.8300 N   0  0  0  0  0  0  0  0  0  0  0  0
   36.7610   27.0910   34.6640 N   0  0  0  0  0  0  0  0  0  0  0  0
   38.9258   26.2084   37.2960 H   0  0  0  0  0  0  0  0  0  0  0  0
   39.4969   26.6010   34.1949 H   0  0  0  0  0  0  0  0  0  0  0  0
   40.1927   27.7184   35.0297 H   0  0  0  0  0  0  0  0  0  0  0  0
   37.3022   28.3309   35.7808 H   0  0  0  0  0  0  0  0  0  0  0  0
   39.2402   24.7328   34.1742 H   0  0  0  0  0  0  0  0  0  0  0  0
   37.2870   24.7887   38.0168 H   0  0  0  0  0  0  0  0  0  0  0  0
   37.4714   21.2165   35.6779 H   0  0  0  0  0  0  0  0  0  0  0  0
   35.9477   26.8440   35.2457 H   0  0  0  0  0  0  0  0  0  0  0  0
   36.5253   27.8984   34.0694 H   0  0  0  0  0  0  0  0  0  0  0  0
  2  3  1  0
  2  1  1  0
  3  1  1  0
  4  5  2  0
  5  1  1  0
  5  6  1  0
  7  6  2  0
  8  7  1  0
  9  4  1  0
  9  8  2  0
 10  3  1  0
  1 11  1  1
  2 12  1  0
  2 13  1  0
  3 14  1  1
  4 15  1  0
  6 16  1  0
  8 17  1  0
 10 18  1  0
 10 19  1  0
M  ISO  8  11  13  12  13  13  13  14  13  15  14  16  14  17  14  18   5
M  ISO  1  19   5
M  END
>  <minimizedAffinity>  (1) 
-3.28694844

>  <minimizedRMSD>  (1) 
0.198253438

$$$$
