
     RDKit          3D

 18 19  0  0  1  0  0  0  0  0999 V2000
   39.5510   24.3180   35.5680 C   0  0  0  0  0  0  0  0  0  0  0  0
   38.4430   24.9250   36.1810 C   0  0  0  0  0  0  0  0  0  0  0  0
   37.4780   24.0770   36.7270 C   0  0  0  0  0  0  0  0  0  0  0  0
   37.6520   22.7280   36.6450 N   0  0  0  0  0  0  0  0  0  0  0  0
   38.7550   22.1840   36.0350 C   0  0  0  0  0  0  0  0  0  0  0  0
   39.6830   22.9820   35.5080 N   0  0  0  0  0  0  0  0  0  0  0  0
   38.3140   26.3900   36.2530 C   0  0  1  0  0  0  0  0  0  0  0  0
   39.1720   27.2580   35.4350 C   0  0  0  0  0  0  0  0  0  0  0  0
   37.7220   27.1400   35.0930 C   0  0  1  0  0  0  0  0  0  0  0  0
   37.2080   26.2740   33.5980 S   0  0  0  0  0  0  0  0  0  0  0  0
   40.3321   24.9533   35.1249 H   0  0  0  0  0  0  0  0  0  0  0  0
   36.5863   24.4934   37.2184 H   0  0  0  0  0  0  0  0  0  0  0  0
   38.8725   21.0916   35.9814 H   0  0  0  0  0  0  0  0  0  0  0  0
   38.0971   26.3159   37.3289 H   0  0  0  0  0  0  0  0  0  0  0  0
   39.5605   28.1971   35.8558 H   0  0  0  0  0  0  0  0  0  0  0  0
   40.1106   27.1142   34.8798 H   0  0  0  0  0  0  0  0  0  0  0  0
   36.8837   27.8396   34.9599 H   0  0  0  0  0  0  0  0  0  0  0  0
   36.5310   25.1334   33.9409 H   0  0  0  0  0  0  0  0  0  0  0  0
  1  2  2  0
  2  7  1  0
  2  3  1  0
  4  3  2  0
  5  4  1  0
  6  1  1  0
  6  5  2  0
  8  7  1  0
  9  8  1  0
  9  7  1  0
 10  9  1  0
  1 11  1  0
  3 12  1  0
  5 13  1  0
  7 14  1  1
  8 15  1  0
  8 16  1  0
  9 17  1  1
 10 18  1  0
M  ISO  8  11  14  12  14  13  14  14  13  15  13  16  13  17  13  18  11
M  END
>  <minimizedAffinity>  (1) 
-3.18570805

>  <minimizedRMSD>  (1) 
0.846734405

$$$$
