
     RDKit          3D

 19 20  0  0  1  0  0  0  0  0999 V2000
   38.5830   26.3940   36.3450 C   0  0  1  0  0  0  0  0  0  0  0  0
   39.3390   27.1550   35.3470 C   0  0  0  0  0  0  0  0  0  0  0  0
   37.8650   27.3670   35.4450 C   0  0  1  0  0  0  0  0  0  0  0  0
   38.9430   24.2160   35.1470 C   0  0  0  0  0  0  0  0  0  0  0  0
   38.3430   24.9520   36.1810 C   0  0  0  0  0  0  0  0  0  0  0  0
   37.5100   24.2400   37.0460 C   0  0  0  0  0  0  0  0  0  0  0  0
   37.3250   22.9050   36.8510 N   0  0  0  0  0  0  0  0  0  0  0  0
   37.9420   22.2390   35.8200 C   0  0  0  0  0  0  0  0  0  0  0  0
   38.7500   22.9090   34.9720 N   0  0  0  0  0  0  0  0  0  0  0  0
   36.9570   26.8890   34.3960 C   0  0  0  0  0  0  0  0  0  0  0  0
   36.7920   26.4300   33.2590 O   0  0  0  0  0  0  0  0  0  0  0  0
   38.6795   26.2497   37.4312 H   0  0  0  0  0  0  0  0  0  0  0  0
   39.7599   26.6399   34.4709 H   0  0  0  0  0  0  0  0  0  0  0  0
   40.2166   27.8170   35.3859 H   0  0  0  0  0  0  0  0  0  0  0  0
   37.2055   28.2357   35.5882 H   0  0  0  0  0  0  0  0  0  0  0  0
   39.6057   24.7446   34.4460 H   0  0  0  0  0  0  0  0  0  0  0  0
   37.0070   24.7534   37.8787 H   0  0  0  0  0  0  0  0  0  0  0  0
   37.7774   21.1597   35.6857 H   0  0  0  0  0  0  0  0  0  0  0  0
   35.9468   26.9832   34.8209 H   0  0  0  0  0  0  0  0  0  0  0  0
  2  3  1  0
  2  1  1  0
  3  1  1  0
  4  5  2  0
  5  1  1  0
  5  6  1  0
  7  6  2  0
  8  7  1  0
  9  4  1  0
  9  8  2  0
 10  3  1  0
 11 10  2  0
  1 12  1  1
  2 13  1  0
  2 14  1  0
  3 15  1  1
  4 16  1  0
  6 17  1  0
  8 18  1  0
 10 19  1  0
M  ISO  8  12  13  13  13  14  13  15  13  16  14  17  14  18  14  19   6
M  END
>  <minimizedAffinity>  (1) 
-3.46764326

>  <minimizedRMSD>  (1) 
0.308654249

$$$$
