
     RDKit          3D

 35 38  0  0  1  0  0  0  0  0999 V2000
   40.0940   25.7910   35.0430 C   0  0  1  0  0  0  0  0  0  0  0  0
   40.8320   25.5390   33.8250 C   0  0  0  0  0  0  0  0  0  0  0  0
   39.6770   26.4260   33.6980 C   0  0  1  0  0  0  0  0  0  0  0  0
   39.3550   23.4550   35.4030 C   0  0  0  0  0  0  0  0  0  0  0  0
   39.2100   24.8130   35.6670 C   0  0  0  0  0  0  0  0  0  0  0  0
   38.1990   25.1770   36.5390 C   0  0  0  0  0  0  0  0  0  0  0  0
   37.4100   24.1980   37.0870 N   0  0  0  0  0  0  0  0  0  0  0  0
   37.5980   22.8710   36.7920 C   0  0  0  0  0  0  0  0  0  0  0  0
   38.5860   22.5010   35.9380 N   0  0  0  0  0  0  0  0  0  0  0  0
   38.3710   26.1380   33.1090 C   0  0  0  0  0  0  0  0  0  0  0  0
   37.8720   25.0800   32.6150 O   0  0  0  0  0  0  0  0  0  0  0  0
   37.4740   27.3330   33.1030 C   0  0  0  0  0  0  0  0  0  0  0  0
   36.7260   27.7240   34.1960 C   0  0  0  0  0  0  0  0  0  0  0  0
   35.8640   28.7920   34.2540 C   0  0  0  0  0  0  0  0  0  0  0  0
   35.7120   29.5600   33.1320 C   0  0  0  0  0  0  0  0  0  0  0  0
   36.4220   29.2370   32.0030 C   0  0  0  0  0  0  0  0  0  0  0  0
   36.2400   30.0370   30.9010 C   0  0  0  0  0  0  0  0  0  0  0  0
   36.9200   29.7820   29.7180 C   0  0  0  0  0  0  0  0  0  0  0  0
   37.7830   28.6770   29.7320 C   0  0  0  0  0  0  0  0  0  0  0  0
   37.9290   27.9060   30.8650 C   0  0  0  0  0  0  0  0  0  0  0  0
   37.2600   28.1580   32.0280 C   0  0  0  0  0  0  0  0  0  0  0  0
   40.3804   26.1306   36.0493 H   0  0  0  0  0  0  0  0  0  0  0  0
   41.8444   25.9545   33.7135 H   0  0  0  0  0  0  0  0  0  0  0  0
   41.1341   24.6179   33.3052 H   0  0  0  0  0  0  0  0  0  0  0  0
   39.5410   27.4190   33.2448 H   0  0  0  0  0  0  0  0  0  0  0  0
   40.1523   23.1466   34.7107 H   0  0  0  0  0  0  0  0  0  0  0  0
   38.0308   26.2350   36.7888 H   0  0  0  0  0  0  0  0  0  0  0  0
   36.9489   22.1083   37.2470 H   0  0  0  0  0  0  0  0  0  0  0  0
   36.8307   27.1210   35.1100 H   0  0  0  0  0  0  0  0  0  0  0  0
   35.3115   29.0232   35.1766 H   0  0  0  0  0  0  0  0  0  0  0  0
   35.0307   30.4236   33.1349 H   0  0  0  0  0  0  0  0  0  0  0  0
   35.5473   30.8896   30.9568 H   0  0  0  0  0  0  0  0  0  0  0  0
   36.7897   30.4089   28.8236 H   0  0  0  0  0  0  0  0  0  0  0  0
   38.3517   28.4218   28.8257 H   0  0  0  0  0  0  0  0  0  0  0  0
   38.6164   27.0479   30.8306 H   0  0  0  0  0  0  0  0  0  0  0  0
  1  5  1  0
  2  1  1  0
  3  2  1  0
  3  1  1  0
  4  5  2  0
  4  9  1  0
  5  6  1  0
  6  7  2  0
  8  7  1  0
  9  8  2  0
 10  3  1  0
 11 10  2  0
 12 10  1  0
 12 13  2  0
 13 14  1  0
 15 14  2  0
 16 21  2  0
 16 15  1  0
 17 16  1  0
 18 19  1  0
 18 17  2  0
 19 20  2  0
 20 21  1  0
 21 12  1  0
  1 22  1  1
  2 23  1  0
  2 24  1  0
  3 25  1  1
  4 26  1  0
  6 27  1  0
  8 28  1  0
 13 29  1  0
 14 30  1  0
 15 31  1  0
 17 32  1  0
 18 33  1  0
 19 34  1  0
 20 35  1  0
M  ISO  8  22  13  23  13  24  13  25  13  26  14  27  14  28  14  29  14
M  ISO  6  30  14  31  14  32  14  33  14  34  14  35  14
M  END
>  <minimizedAffinity>  (1) 
-5.3354845

>  <minimizedRMSD>  (1) 
3.45913482

$$$$
