
     RDKit          3D

 33 36  0  0  1  0  0  0  0  0999 V2000
   39.2770   26.3150   35.8000 C   0  0  1  0  0  0  0  0  0  0  0  0
   40.0100   26.8890   34.6960 C   0  0  0  0  0  0  0  0  0  0  0  0
   38.6070   27.2620   34.7930 C   0  0  1  0  0  0  0  0  0  0  0  0
   39.4810   23.9620   35.0870 C   0  0  0  0  0  0  0  0  0  0  0  0
   38.8530   24.9230   35.8680 C   0  0  0  0  0  0  0  0  0  0  0  0
   37.8270   24.4930   36.7020 C   0  0  0  0  0  0  0  0  0  0  0  0
   37.4910   23.1700   36.7120 N   0  0  0  0  0  0  0  0  0  0  0  0
   38.1480   22.2520   35.9140 C   0  0  0  0  0  0  0  0  0  0  0  0
   39.1540   22.6630   35.0950 N   0  0  0  0  0  0  0  0  0  0  0  0
   37.5020   26.7940   33.9430 C   0  0  0  0  0  0  0  0  0  0  0  0
   37.1060   25.6590   33.5260 O   0  0  0  0  0  0  0  0  0  0  0  0
   36.6720   27.9610   33.4880 C   0  0  0  0  0  0  0  0  0  0  0  0
   35.7430   28.5480   34.3010 N   0  0  0  0  0  0  0  0  0  0  0  0
   34.9930   29.5940   33.9360 C   0  0  0  0  0  0  0  0  0  0  0  0
   35.0950   30.1590   32.7240 N   0  0  0  0  0  0  0  0  0  0  0  0
   35.9810   29.6480   31.8680 C   0  0  0  0  0  0  0  0  0  0  0  0
   36.1380   30.2000   30.6150 C   0  0  0  0  0  0  0  0  0  0  0  0
   37.0500   29.7300   29.6870 C   0  0  0  0  0  0  0  0  0  0  0  0
   37.8230   28.6370   30.0980 C   0  0  0  0  0  0  0  0  0  0  0  0
   37.6470   28.1010   31.3550 C   0  0  0  0  0  0  0  0  0  0  0  0
   36.7380   28.5760   32.2640 C   0  0  0  0  0  0  0  0  0  0  0  0
   39.4506   26.2689   36.8852 H   0  0  0  0  0  0  0  0  0  0  0  0
   40.3388   26.2390   33.8718 H   0  0  0  0  0  0  0  0  0  0  0  0
   40.9416   27.4704   34.6310 H   0  0  0  0  0  0  0  0  0  0  0  0
   38.0807   28.2279   34.7842 H   0  0  0  0  0  0  0  0  0  0  0  0
   40.2952   24.2866   34.4224 H   0  0  0  0  0  0  0  0  0  0  0  0
   37.2936   25.2088   37.3447 H   0  0  0  0  0  0  0  0  0  0  0  0
   37.8581   21.1912   35.9410 H   0  0  0  0  0  0  0  0  0  0  0  0
   34.2681   30.0045   34.6543 H   0  0  0  0  0  0  0  0  0  0  0  0
   35.5065   31.0573   30.3389 H   0  0  0  0  0  0  0  0  0  0  0  0
   37.1607   30.1850   28.6916 H   0  0  0  0  0  0  0  0  0  0  0  0
   38.5714   28.2060   29.4167 H   0  0  0  0  0  0  0  0  0  0  0  0
   38.2714   27.2432   31.6454 H   0  0  0  0  0  0  0  0  0  0  0  0
  1  5  1  0
  2  3  1  0
  2  1  1  0
  3  1  1  0
  4  9  2  0
  4  5  1  0
  5  6  2  0
  6  7  1  0
  8  7  2  0
  9  8  1  0
 10  3  1  0
 11 10  2  0
 12 10  1  0
 12 13  2  0
 14 13  1  0
 15 14  2  0
 16 21  2  0
 16 15  1  0
 17 16  1  0
 18 19  1  0
 18 17  2  0
 19 20  2  0
 20 21  1  0
 21 12  1  0
  1 22  1  1
  2 23  1  0
  2 24  1  0
  3 25  1  1
  4 26  1  0
  6 27  1  0
  8 28  1  0
 14 29  1  0
 17 30  1  0
 18 31  1  0
 19 32  1  0
 20 33  1  0
M  ISO  8  22  13  23  13  24  13  25  13  26  14  27  14  28  14  29  14
M  ISO  4  30  14  31  14  32  14  33  14
M  END
>  <minimizedAffinity>  (1) 
-5.20952511

>  <minimizedRMSD>  (1) 
3.34414554

$$$$
