
     RDKit          3D

 30 33  0  0  1  0  0  0  0  0999 V2000
   39.2430   26.3870   35.7530 C   0  0  1  0  0  0  0  0  0  0  0  0
   39.9390   26.9780   34.6360 C   0  0  0  0  0  0  0  0  0  0  0  0
   38.5310   27.3290   34.7680 C   0  0  1  0  0  0  0  0  0  0  0  0
   39.4520   24.0430   35.0080 C   0  0  0  0  0  0  0  0  0  0  0  0
   38.8300   24.9890   35.8120 C   0  0  0  0  0  0  0  0  0  0  0  0
   37.8200   24.5630   36.6720 C   0  0  0  0  0  0  0  0  0  0  0  0
   37.4860   23.2330   36.6920 N   0  0  0  0  0  0  0  0  0  0  0  0
   38.1360   22.3280   35.8720 C   0  0  0  0  0  0  0  0  0  0  0  0
   39.1220   22.7400   35.0290 N   0  0  0  0  0  0  0  0  0  0  0  0
   37.4690   26.8390   33.8820 C   0  0  0  0  0  0  0  0  0  0  0  0
   37.0050   25.7460   33.4340 O   0  0  0  0  0  0  0  0  0  0  0  0
   36.1360   29.4170   30.1280 N   0  0  0  0  0  0  0  0  0  0  0  0
   37.0930   28.5290   29.8230 C   0  0  0  0  0  0  0  0  0  0  0  0
   37.4070   27.8480   30.9360 N   0  0  0  0  0  0  0  0  0  0  0  0
   36.6640   28.2910   31.9480 C   0  0  0  0  0  0  0  0  0  0  0  0
   36.6190   27.9120   33.2710 C   0  0  0  0  0  0  0  0  0  0  0  0
   35.7220   28.5980   34.0190 N   0  0  0  0  0  0  0  0  0  0  0  0
   34.9270   29.5690   33.5500 C   0  0  0  0  0  0  0  0  0  0  0  0
   34.9850   29.9240   32.2570 N   0  0  0  0  0  0  0  0  0  0  0  0
   35.8440   29.3010   31.4320 C   0  0  0  0  0  0  0  0  0  0  0  0
   39.4500   26.3367   36.8322 H   0  0  0  0  0  0  0  0  0  0  0  0
   40.2582   26.3375   33.8006 H   0  0  0  0  0  0  0  0  0  0  0  0
   40.8594   27.5746   34.5523 H   0  0  0  0  0  0  0  0  0  0  0  0
   37.9695   28.2739   34.8109 H   0  0  0  0  0  0  0  0  0  0  0  0
   40.2484   24.3738   34.3251 H   0  0  0  0  0  0  0  0  0  0  0  0
   37.2997   25.2807   37.3234 H   0  0  0  0  0  0  0  0  0  0  0  0
   37.8533   21.2654   35.9016 H   0  0  0  0  0  0  0  0  0  0  0  0
   35.6980   30.0780   29.4706 H   0  0  0  0  0  0  0  0  0  0  0  0
   37.5438   28.3835   28.8302 H   0  0  0  0  0  0  0  0  0  0  0  0
   34.2244   30.0770   34.2269 H   0  0  0  0  0  0  0  0  0  0  0  0
  1  5  1  0
  2  3  1  0
  2  1  1  0
  3  1  1  0
  4  9  2  0
  4  5  1  0
  5  6  2  0
  6  7  1  0
  8  7  2  0
  9  8  1  0
 10  3  1  0
 11 10  2  0
 12 20  1  0
 13 12  1  0
 13 14  2  0
 14 15  1  0
 15 16  1  0
 16 10  1  0
 16 17  2  0
 18 17  1  0
 19 18  2  0
 20 15  2  0
 20 19  1  0
  1 21  1  1
  2 22  1  0
  2 23  1  0
  3 24  1  1
  4 25  1  0
  6 26  1  0
  8 27  1  0
 12 28  1  0
 13 29  1  0
 18 30  1  0
M  ISO  8  21  13  22  13  23  13  24  13  25  14  26  14  27  14  28   9
M  ISO  2  29  14  30  14
M  END
>  <minimizedAffinity>  (1) 
-4.96568584

>  <minimizedRMSD>  (1) 
2.79622245

$$$$
