
     RDKit          3D

 29 31  0  0  1  0  0  0  0  0999 V2000
   38.2790   26.3060   36.3770 C   0  0  1  0  0  0  0  0  0  0  0  0
   39.0310   27.3300   35.6910 C   0  0  0  0  0  0  0  0  0  0  0  0
   37.6530   27.1460   35.2540 C   0  0  1  0  0  0  0  0  0  0  0  0
   39.5910   24.3930   35.5270 C   0  0  0  0  0  0  0  0  0  0  0  0
   38.4540   24.8730   36.1660 C   0  0  0  0  0  0  0  0  0  0  0  0
   37.5030   23.9390   36.6020 C   0  0  0  0  0  0  0  0  0  0  0  0
   37.7400   22.6190   36.3790 N   0  0  0  0  0  0  0  0  0  0  0  0
   38.8880   22.1850   35.7380 C   0  0  0  0  0  0  0  0  0  0  0  0
   39.8140   23.0850   35.3120 N   0  0  0  0  0  0  0  0  0  0  0  0
   37.2540   26.5410   33.9810 C   0  0  0  0  0  0  0  0  0  0  0  0
   37.0950   25.3870   33.4690 O   0  0  0  0  0  0  0  0  0  0  0  0
   36.9000   27.4710   32.8670 C   0  0  0  0  0  0  0  0  0  0  0  0
   36.2520   28.6550   32.9960 C   0  0  0  0  0  0  0  0  0  0  0  0
   35.9320   29.5270   31.9570 C   0  0  0  0  0  0  0  0  0  0  0  0
   36.3010   29.1670   30.6850 C   0  0  0  0  0  0  0  0  0  0  0  0
   36.9600   27.9810   30.4780 C   0  0  0  0  0  0  0  0  0  0  0  0
   37.2380   27.1780   31.5610 C   0  0  0  0  0  0  0  0  0  0  0  0
   38.0955   26.0904   37.4400 H   0  0  0  0  0  0  0  0  0  0  0  0
   39.3072   28.2481   36.2302 H   0  0  0  0  0  0  0  0  0  0  0  0
   39.9958   27.3307   35.1627 H   0  0  0  0  0  0  0  0  0  0  0  0
   36.7881   27.8132   35.1243 H   0  0  0  0  0  0  0  0  0  0  0  0
   40.3434   25.1171   35.1811 H   0  0  0  0  0  0  0  0  0  0  0  0
   36.5858   24.2671   37.1130 H   0  0  0  0  0  0  0  0  0  0  0  0
   39.0513   21.1098   35.5730 H   0  0  0  0  0  0  0  0  0  0  0  0
   35.9521   28.9540   34.0112 H   0  0  0  0  0  0  0  0  0  0  0  0
   35.4019   30.4714   32.1498 H   0  0  0  0  0  0  0  0  0  0  0  0
   36.0696   29.8261   29.8352 H   0  0  0  0  0  0  0  0  0  0  0  0
   37.2608   27.6774   29.4644 H   0  0  0  0  0  0  0  0  0  0  0  0
   37.7686   26.2332   31.3718 H   0  0  0  0  0  0  0  0  0  0  0  0
  2  1  1  0
  3  2  1  0
  3  1  1  0
  4  5  2  0
  5  1  1  0
  5  6  1  0
  7  6  2  0
  8  7  1  0
  9  4  1  0
  9  8  2  0
 10  3  1  0
 11 10  2  0
 12 13  2  0
 12 10  1  0
 14 13  1  0
 15 14  2  0
 16 15  1  0
 16 17  2  0
 17 12  1  0
  1 18  1  1
  2 19  1  0
  2 20  1  0
  3 21  1  1
  4 22  1  0
  6 23  1  0
  8 24  1  0
 13 25  1  0
 14 26  1  0
 15 27  1  0
 16 28  1  0
 17 29  1  0
M  ISO  8  18  13  19  13  20  13  21  13  22  14  23  14  24  14  25  14
M  ISO  4  26  14  27  14  28  14  29  14
M  END
>  <minimizedAffinity>  (1) 
-4.72737455

>  <minimizedRMSD>  (1) 
2.91854811

$$$$
