
     RDKit          3D

 35 37  0  0  1  0  0  0  0  0999 V2000
   39.3450   26.3060   35.7260 C   0  0  1  0  0  0  0  0  0  0  0  0
   40.0270   26.8700   34.5860 C   0  0  0  0  0  0  0  0  0  0  0  0
   38.6290   27.2460   34.7480 C   0  0  1  0  0  0  0  0  0  0  0  0
   39.5310   23.9450   35.0390 C   0  0  0  0  0  0  0  0  0  0  0  0
   38.9030   24.9180   35.8080 C   0  0  0  0  0  0  0  0  0  0  0  0
   37.8580   24.5240   36.6630 C   0  0  0  0  0  0  0  0  0  0  0  0
   37.5170   23.2080   36.6930 N   0  0  0  0  0  0  0  0  0  0  0  0
   38.1680   22.2670   35.9120 C   0  0  0  0  0  0  0  0  0  0  0  0
   39.1800   22.6460   35.0810 N   0  0  0  0  0  0  0  0  0  0  0  0
   37.5600   26.7680   33.8700 C   0  0  0  0  0  0  0  0  0  0  0  0
   37.1240   25.7300   33.3080 O   0  0  0  0  0  0  0  0  0  0  0  0
   36.5180   27.7390   33.3660 C   0  0  0  0  0  0  0  0  0  0  0  0
   36.9600   28.5240   32.1930 C   0  0  0  0  0  0  0  0  0  0  0  0
   35.6950   29.0060   31.4840 C   0  0  0  0  0  0  0  0  0  0  0  0
   34.6480   29.2850   32.5280 C   0  0  0  0  0  0  0  0  0  0  0  0
   35.2250   29.7330   33.8520 C   0  0  0  0  0  0  0  0  0  0  0  0
   36.1700   28.7460   34.4670 C   0  0  0  0  0  0  0  0  0  0  0  0
   39.5778   26.2650   36.8003 H   0  0  0  0  0  0  0  0  0  0  0  0
   40.3154   26.2138   33.7516 H   0  0  0  0  0  0  0  0  0  0  0  0
   40.9556   27.4487   34.4728 H   0  0  0  0  0  0  0  0  0  0  0  0
   38.0770   28.1957   34.8063 H   0  0  0  0  0  0  0  0  0  0  0  0
   40.3484   24.2490   34.3686 H   0  0  0  0  0  0  0  0  0  0  0  0
   37.3317   25.2593   37.2894 H   0  0  0  0  0  0  0  0  0  0  0  0
   37.8672   21.2101   35.9626 H   0  0  0  0  0  0  0  0  0  0  0  0
   35.6561   27.1217   33.0727 H   0  0  0  0  0  0  0  0  0  0  0  0
   37.5633   29.3844   32.5183 H   0  0  0  0  0  0  0  0  0  0  0  0
   37.5819   27.9144   31.5210 H   0  0  0  0  0  0  0  0  0  0  0  0
   35.9118   29.9247   30.9193 H   0  0  0  0  0  0  0  0  0  0  0  0
   35.3368   28.2382   30.7824 H   0  0  0  0  0  0  0  0  0  0  0  0
   33.9827   30.0762   32.1519 H   0  0  0  0  0  0  0  0  0  0  0  0
   34.1113   28.3422   32.7099 H   0  0  0  0  0  0  0  0  0  0  0  0
   35.7659   30.6774   33.6924 H   0  0  0  0  0  0  0  0  0  0  0  0
   34.3802   29.8429   34.5479 H   0  0  0  0  0  0  0  0  0  0  0  0
   35.6883   28.2339   35.3130 H   0  0  0  0  0  0  0  0  0  0  0  0
   37.0720   29.2436   34.8529 H   0  0  0  0  0  0  0  0  0  0  0  0
  1  5  1  0
  2  3  1  0
  2  1  1  0
  3  1  1  0
  4  9  2  0
  4  5  1  0
  5  6  2  0
  6  7  1  0
  8  7  2  0
  9  8  1  0
 10  3  1  0
 11 10  2  0
 12 10  1  0
 12 17  1  0
 13 12  1  0
 14 13  1  0
 14 15  1  0
 15 16  1  0
 16 17  1  0
  1 18  1  1
  2 19  1  0
  2 20  1  0
  3 21  1  1
  4 22  1  0
  6 23  1  0
  8 24  1  0
 12 25  1  0
 13 26  1  0
 13 27  1  0
 14 28  1  0
 14 29  1  0
 15 30  1  0
 15 31  1  0
 16 32  1  0
 16 33  1  0
 17 34  1  0
 17 35  1  0
M  ISO  8  18  13  19  13  20  13  21  13  22  14  23  14  24  14  25  13
M  ISO  8  26  13  27  13  28  13  29  13  30  13  31  13  32  13  33  13
M  ISO  2  34  13  35  13
M  END
>  <minimizedAffinity>  (1) 
-4.52833033

>  <minimizedRMSD>  (1) 
1.9818095

$$$$
