
     RDKit          3D

 26 28  0  0  1  0  0  0  0  0999 V2000
   38.2500   26.3470   36.3390 C   0  0  1  0  0  0  0  0  0  0  0  0
   38.9870   27.3410   35.5980 C   0  0  0  0  0  0  0  0  0  0  0  0
   37.6090   27.1200   35.1820 C   0  0  1  0  0  0  0  0  0  0  0  0
   39.5970   24.4100   35.5970 C   0  0  0  0  0  0  0  0  0  0  0  0
   38.4490   24.9100   36.1960 C   0  0  0  0  0  0  0  0  0  0  0  0
   37.5040   23.9950   36.6760 C   0  0  0  0  0  0  0  0  0  0  0  0
   37.7550   22.6610   36.5310 N   0  0  0  0  0  0  0  0  0  0  0  0
   38.9150   22.2080   35.9270 C   0  0  0  0  0  0  0  0  0  0  0  0
   39.8340   23.0990   35.4600 N   0  0  0  0  0  0  0  0  0  0  0  0
   37.2560   26.4720   33.9250 C   0  0  0  0  0  0  0  0  0  0  0  0
   37.0930   25.3680   33.3340 O   0  0  0  0  0  0  0  0  0  0  0  0
   36.9080   27.4570   32.7280 C   0  0  0  0  0  0  0  0  0  0  0  0
   36.2720   28.6780   32.9280 C   0  0  0  0  0  0  0  0  0  0  0  0
   36.0430   29.4030   31.8050 C   0  0  0  0  0  0  0  0  0  0  0  0
   36.4410   28.9040   30.5780 C   0  0  0  0  0  0  0  0  0  0  0  0
   37.2040   27.2420   31.1750 S   0  0  0  0  0  0  0  0  0  0  0  0
   38.0702   26.1838   37.4119 H   0  0  0  0  0  0  0  0  0  0  0  0
   39.2570   28.2882   36.0878 H   0  0  0  0  0  0  0  0  0  0  0  0
   39.9484   27.3250   35.0638 H   0  0  0  0  0  0  0  0  0  0  0  0
   36.7197   27.7518   35.0406 H   0  0  0  0  0  0  0  0  0  0  0  0
   40.3451   25.1219   35.2181 H   0  0  0  0  0  0  0  0  0  0  0  0
   36.5794   24.3435   37.1594 H   0  0  0  0  0  0  0  0  0  0  0  0
   39.0952   21.1278   35.8239 H   0  0  0  0  0  0  0  0  0  0  0  0
   35.9757   29.0306   33.9269 H   0  0  0  0  0  0  0  0  0  0  0  0
   35.5441   30.3812   31.8695 H   0  0  0  0  0  0  0  0  0  0  0  0
   36.3491   29.3286   29.5674 H   0  0  0  0  0  0  0  0  0  0  0  0
  2  1  1  0
  3  2  1  0
  3  1  1  0
  4  5  2  0
  5  1  1  0
  5  6  1  0
  7  6  2  0
  8  7  1  0
  9  4  1  0
  9  8  2  0
 10  3  1  0
 11 10  2  0
 12 13  2  0
 12 10  1  0
 14 13  1  0
 15 16  1  0
 15 14  2  0
 16 12  1  0
  1 17  1  1
  2 18  1  0
  2 19  1  0
  3 20  1  1
  4 21  1  0
  6 22  1  0
  8 23  1  0
 13 24  1  0
 14 25  1  0
 15 26  1  0
M  ISO  8  17  13  18  13  19  13  20  13  21  14  22  14  23  14  24  14
M  ISO  2  25  14  26  14
M  END
>  <minimizedAffinity>  (1) 
-4.41319704

>  <minimizedRMSD>  (1) 
2.62556243

$$$$
