
     RDKit          3D

 19 20  0  0  0  0  0  0  0  0999 V2000
   37.8770   24.9410   33.5740 C   0  0  0  0  0  0  0  0  0  0  0  0
   37.8590   25.3750   34.9090 C   0  0  0  0  0  0  0  0  0  0  0  0
   37.3520   26.6470   35.1660 C   0  0  0  0  0  0  0  0  0  0  0  0
   36.9030   27.4040   34.1090 N   0  0  0  0  0  0  0  0  0  0  0  0
   36.9420   26.9400   32.8450 C   0  0  0  0  0  0  0  0  0  0  0  0
   37.4290   25.7100   32.5670 N   0  0  0  0  0  0  0  0  0  0  0  0
   38.3210   24.6040   36.0300 C   0  0  0  0  0  0  0  0  0  0  0  0
   37.7970   24.7150   37.3010 C   0  0  0  0  0  0  0  0  0  0  0  0
   38.2040   24.0010   38.4120 C   0  0  0  0  0  0  0  0  0  0  0  0
   39.2310   23.0900   38.2410 C   0  0  0  0  0  0  0  0  0  0  0  0
   39.7490   22.9840   36.9700 C   0  0  0  0  0  0  0  0  0  0  0  0
   39.3140   23.7000   35.9410 N   0  0  0  0  0  0  0  0  0  0  0  0
   38.2703   23.9396   33.3449 H   0  0  0  0  0  0  0  0  0  0  0  0
   37.3116   27.0380   36.1934 H   0  0  0  0  0  0  0  0  0  0  0  0
   36.5713   27.5727   32.0251 H   0  0  0  0  0  0  0  0  0  0  0  0
   36.9804   25.4381   37.4434 H   0  0  0  0  0  0  0  0  0  0  0  0
   37.7302   24.1511   39.3933 H   0  0  0  0  0  0  0  0  0  0  0  0
   39.6129   22.4833   39.0753 H   0  0  0  0  0  0  0  0  0  0  0  0
   40.5664   22.2682   36.7984 H   0  0  0  0  0  0  0  0  0  0  0  0
  1  2  2  0
  2  3  1  0
  2  7  1  0
  4  3  2  0
  5  4  1  0
  6  5  2  0
  6  1  1  0
  7  8  2  0
  8  9  1  0
 10  9  2  0
 11 10  1  0
 12  7  1  0
 12 11  2  0
  1 13  1  0
  3 14  1  0
  5 15  1  0
  8 16  1  0
  9 17  1  0
 10 18  1  0
 11 19  1  0
M  ISO  7  13  14  14  14  15  14  16  14  17  14  18  14  19  14
M  END
>  <minimizedAffinity>  (1) 
-3.80731487

>  <minimizedRMSD>  (1) 
4.60667419

$$$$
