
     RDKit          3D

 21 22  0  0  1  0  0  0  0  0999 V2000
   39.4520   26.3000   35.6960 C   0  0  1  0  0  0  0  0  0  0  0  0
   39.9960   26.8320   34.4700 C   0  0  0  0  0  0  0  0  0  0  0  0
   38.7190   27.3900   34.9060 C   0  0  1  0  0  0  0  0  0  0  0  0
   39.0900   23.9980   34.8700 C   0  0  0  0  0  0  0  0  0  0  0  0
   38.8290   24.9840   35.8120 C   0  0  0  0  0  0  0  0  0  0  0  0
   37.9710   24.6790   36.8840 C   0  0  0  0  0  0  0  0  0  0  0  0
   37.4360   23.4250   36.9460 N   0  0  0  0  0  0  0  0  0  0  0  0
   37.7240   22.4710   35.9840 C   0  0  0  0  0  0  0  0  0  0  0  0
   38.5540   22.7680   34.9470 N   0  0  0  0  0  0  0  0  0  0  0  0
   37.4620   27.1210   34.2090 C   0  0  0  0  0  0  0  0  0  0  0  0
   36.8940   26.3770   33.3730 O   0  0  0  0  0  0  0  0  0  0  0  0
   36.3140   27.9490   34.4720 N   0  0  0  0  0  0  0  0  0  0  0  0
   39.8663   26.1596   36.7053 H   0  0  0  0  0  0  0  0  0  0  0  0
   40.0285   26.1955   33.5734 H   0  0  0  0  0  0  0  0  0  0  0  0
   40.9651   27.2802   34.2057 H   0  0  0  0  0  0  0  0  0  0  0  0
   38.3298   28.3982   35.1111 H   0  0  0  0  0  0  0  0  0  0  0  0
   39.7602   24.2322   34.0297 H   0  0  0  0  0  0  0  0  0  0  0  0
   37.7374   25.4312   37.6519 H   0  0  0  0  0  0  0  0  0  0  0  0
   37.2794   21.4676   36.0585 H   0  0  0  0  0  0  0  0  0  0  0  0
   35.4248   27.7663   33.9853 H   0  0  0  0  0  0  0  0  0  0  0  0
   36.3818   28.7241   35.1469 H   0  0  0  0  0  0  0  0  0  0  0  0
  1  5  1  0
  2  3  1  0
  2  1  1  0
  3  1  1  0
  4  9  2  0
  4  5  1  0
  5  6  2  0
  6  7  1  0
  8  7  2  0
  9  8  1  0
 10 12  1  0
 10  3  1  0
 11 10  2  0
  1 13  1  1
  2 14  1  0
  2 15  1  0
  3 16  1  1
  4 17  1  0
  6 18  1  0
  8 19  1  0
 12 20  1  0
 12 21  1  0
M  ISO  7  13  13  14  13  15  13  16  13  17  14  18  14  19  14
M  END
>  <minimizedAffinity>  (1) 
-3.30251002

>  <minimizedRMSD>  (1) 
0.756382823

$$$$
