
     RDKit          3D

 34 37  0  0  1  0  0  0  0  0999 V2000
   38.2660   26.1960   36.2860 C   0  0  1  0  0  0  0  0  0  0  0  0
   38.9140   27.3450   35.7300 C   0  0  0  0  0  0  0  0  0  0  0  0
   37.5270   27.0500   35.2730 C   0  0  1  0  0  0  0  0  0  0  0  0
   39.8430   24.5700   35.2620 C   0  0  0  0  0  0  0  0  0  0  0  0
   38.6370   24.8220   35.9270 C   0  0  0  0  0  0  0  0  0  0  0  0
   37.8540   23.7200   36.2150 C   0  0  0  0  0  0  0  0  0  0  0  0
   38.2820   22.4800   35.8480 N   0  0  0  0  0  0  0  0  0  0  0  0
   39.4630   22.2800   35.2020 C   0  0  0  0  0  0  0  0  0  0  0  0
   40.2490   23.3390   34.9080 N   0  0  0  0  0  0  0  0  0  0  0  0
   37.2260   26.5560   33.9080 C   0  0  0  0  0  0  0  0  0  0  0  0
   37.1970   25.4030   33.3270 O   0  0  0  0  0  0  0  0  0  0  0  0
   36.8690   27.6400   32.9150 C   0  0  0  0  0  0  0  0  0  0  0  0
   35.8910   28.4810   33.3550 C   0  0  0  0  0  0  0  0  0  0  0  0
   35.7800   29.7020   31.8730 S   0  0  0  0  0  0  0  0  0  0  0  0
   37.1240   28.7550   30.9830 C   0  0  0  0  0  0  0  0  0  0  0  0
   37.3800   27.8940   31.7410 N   0  0  0  0  0  0  0  0  0  0  0  0
   37.5530   29.2520   29.6140 C   0  0  0  0  0  0  0  0  0  0  0  0
   37.3760   30.5140   29.1120 C   0  0  0  0  0  0  0  0  0  0  0  0
   37.9530   30.3910   27.8430 C   0  0  0  0  0  0  0  0  0  0  0  0
   38.4260   29.1370   27.6470 N   0  0  0  0  0  0  0  0  0  0  0  0
   38.1650   28.4520   28.7620 N   0  0  0  0  0  0  0  0  0  0  0  0
   38.0929   25.8554   37.3175 H   0  0  0  0  0  0  0  0  0  0  0  0
   39.1010   28.2233   36.3653 H   0  0  0  0  0  0  0  0  0  0  0  0
   39.8704   27.5043   35.2105 H   0  0  0  0  0  0  0  0  0  0  0  0
   36.5739   27.5976   35.2309 H   0  0  0  0  0  0  0  0  0  0  0  0
   40.4917   25.4238   35.0167 H   0  0  0  0  0  0  0  0  0  0  0  0
   36.8932   23.8433   36.7362 H   0  0  0  0  0  0  0  0  0  0  0  0
   39.7755   21.2634   34.9212 H   0  0  0  0  0  0  0  0  0  0  0  0
   36.1665   26.4446   34.1819 H   0  0  0  0  0  0  0  0  0  0  0  0
   37.1790   24.6886   34.0121 H   0  0  0  0  0  0  0  0  0  0  0  0
   35.3227   28.4657   34.2967 H   0  0  0  0  0  0  0  0  0  0  0  0
   36.9056   31.3907   29.5813 H   0  0  0  0  0  0  0  0  0  0  0  0
   38.0142   31.2035   27.1040 H   0  0  0  0  0  0  0  0  0  0  0  0
   38.8956   28.7815   26.8020 H   0  0  0  0  0  0  0  0  0  0  0  0
  2  1  1  0
  3  2  1  0
  3  1  1  0
  4  5  2  0
  5  6  1  0
  5  1  1  0
  7  6  2  0
  8  7  1  0
  9  8  2  0
  9  4  1  0
 10 11  1  0
 10  3  1  0
 12 13  2  0
 12 10  1  0
 14 13  1  0
 15 16  2  0
 15 14  1  0
 16 12  1  0
 17 15  1  0
 18 17  1  0
 19 18  2  0
 20 19  1  0
 20 21  1  0
 21 17  2  0
  1 22  1  1
  2 23  1  0
  2 24  1  0
  3 25  1  1
  4 26  1  0
  6 27  1  0
  8 28  1  0
 10 29  1  0
 11 30  1  0
 13 31  1  0
 18 32  1  0
 19 33  1  0
 20 34  1  0
M  ISO  8  22  13  23  13  24  13  25  13  26  14  27  14  28  14  29   8
M  ISO  5  30   3  31  14  32  14  33  14  34   9
M  END
>  <minimizedAffinity>  (1) 
-4.98872232

>  <minimizedRMSD>  (1) 
1.06447935

$$$$
