
     RDKit          3D

 34 37  0  0  1  0  0  0  0  0999 V2000
   38.2350   26.3880   36.3080 C   0  0  1  0  0  0  0  0  0  0  0  0
   39.0320   27.3370   35.5860 C   0  0  0  0  0  0  0  0  0  0  0  0
   37.6250   27.1380   35.1370 C   0  0  1  0  0  0  0  0  0  0  0  0
   39.6020   24.4370   35.6000 C   0  0  0  0  0  0  0  0  0  0  0  0
   38.4410   24.9400   36.2010 C   0  0  0  0  0  0  0  0  0  0  0  0
   37.5400   24.0040   36.6690 C   0  0  0  0  0  0  0  0  0  0  0  0
   37.8160   22.6770   36.5280 N   0  0  0  0  0  0  0  0  0  0  0  0
   38.9580   22.2310   35.9390 C   0  0  0  0  0  0  0  0  0  0  0  0
   39.8550   23.1230   35.4730 N   0  0  0  0  0  0  0  0  0  0  0  0
   37.2830   26.4550   33.8680 C   0  0  0  0  0  0  0  0  0  0  0  0
   37.0420   25.2420   33.5060 O   0  0  0  0  0  0  0  0  0  0  0  0
   37.1950   27.3830   32.6770 C   0  0  0  0  0  0  0  0  0  0  0  0
   36.3180   28.4140   32.8430 C   0  0  0  0  0  0  0  0  0  0  0  0
   36.5510   29.3450   31.1780 S   0  0  0  0  0  0  0  0  0  0  0  0
   37.8320   28.0700   30.6220 C   0  0  0  0  0  0  0  0  0  0  0  0
   37.8680   27.3370   31.5440 N   0  0  0  0  0  0  0  0  0  0  0  0
   38.6350   27.9180   29.4000 N   0  0  0  0  0  0  0  0  0  0  0  0
   39.5750   27.0260   29.2950 N   0  0  0  0  0  0  0  0  0  0  0  0
   40.1340   27.1190   28.0740 C   0  0  0  0  0  0  0  0  0  0  0  0
   39.4440   28.1480   27.4600 C   0  0  0  0  0  0  0  0  0  0  0  0
   38.4790   28.6720   28.2970 C   0  0  0  0  0  0  0  0  0  0  0  0
   38.0019   26.2549   37.3747 H   0  0  0  0  0  0  0  0  0  0  0  0
   39.3193   28.2830   36.0682 H   0  0  0  0  0  0  0  0  0  0  0  0
   40.0081   27.2859   35.0813 H   0  0  0  0  0  0  0  0  0  0  0  0
   36.7500   27.7827   34.9677 H   0  0  0  0  0  0  0  0  0  0  0  0
   40.3428   25.1522   35.2131 H   0  0  0  0  0  0  0  0  0  0  0  0
   36.6062   24.3273   37.1522 H   0  0  0  0  0  0  0  0  0  0  0  0
   39.1480   21.1517   35.8437 H   0  0  0  0  0  0  0  0  0  0  0  0
   36.2133   26.6057   34.0752 H   0  0  0  0  0  0  0  0  0  0  0  0
   36.9292   24.6742   34.3091 H   0  0  0  0  0  0  0  0  0  0  0  0
   35.6603   28.6477   33.6932 H   0  0  0  0  0  0  0  0  0  0  0  0
   40.9535   26.5139   27.6590 H   0  0  0  0  0  0  0  0  0  0  0  0
   39.6387   28.5031   26.4373 H   0  0  0  0  0  0  0  0  0  0  0  0
   37.7689   29.4912   28.1107 H   0  0  0  0  0  0  0  0  0  0  0  0
  2  1  1  0
  3  2  1  0
  3  1  1  0
  4  5  2  0
  5  1  1  0
  5  6  1  0
  7  6  2  0
  8  7  1  0
  9  4  1  0
  9  8  2  0
 10 11  1  0
 10  3  1  0
 12 13  2  0
 12 10  1  0
 14 13  1  0
 15 14  1  0
 15 16  2  0
 16 12  1  0
 17 15  1  0
 18 17  1  0
 19 18  2  0
 20 19  1  0
 20 21  2  0
 21 17  1  0
  1 22  1  1
  2 23  1  0
  2 24  1  0
  3 25  1  1
  4 26  1  0
  6 27  1  0
  8 28  1  0
 10 29  1  0
 11 30  1  0
 13 31  1  0
 19 32  1  0
 20 33  1  0
 21 34  1  0
M  ISO  8  22  13  23  13  24  13  25  13  26  14  27  14  28  14  29   8
M  ISO  5  30   3  31  14  32  14  33  14  34  14
M  END
>  <minimizedAffinity>  (1) 
-4.96952009

>  <minimizedRMSD>  (1) 
1.35184467

$$$$
