
     RDKit          3D

 28 30  0  0  1  0  0  0  0  0999 V2000
   38.2930   26.3730   36.3630 C   0  0  1  0  0  0  0  0  0  0  0  0
   39.0850   27.3130   35.6250 C   0  0  0  0  0  0  0  0  0  0  0  0
   37.6500   27.1690   35.2450 C   0  0  1  0  0  0  0  0  0  0  0  0
   39.5760   24.3900   35.5960 C   0  0  0  0  0  0  0  0  0  0  0  0
   38.4370   24.9200   36.2140 C   0  0  0  0  0  0  0  0  0  0  0  0
   37.5000   24.0060   36.6570 C   0  0  0  0  0  0  0  0  0  0  0  0
   37.7240   22.6750   36.4770 N   0  0  0  0  0  0  0  0  0  0  0  0
   38.8450   22.2020   35.8720 C   0  0  0  0  0  0  0  0  0  0  0  0
   39.7790   23.0710   35.4290 N   0  0  0  0  0  0  0  0  0  0  0  0
   37.2280   26.5300   33.9750 C   0  0  0  0  0  0  0  0  0  0  0  0
   37.2100   25.3300   33.5050 O   0  0  0  0  0  0  0  0  0  0  0  0
   36.6890   27.4980   32.9460 C   0  0  0  0  0  0  0  0  0  0  0  0
   36.1000   28.6030   33.4780 C   0  0  0  0  0  0  0  0  0  0  0  0
   35.6250   29.5740   31.9030 S   0  0  0  0  0  0  0  0  0  0  0  0
   36.3650   28.1980   30.8270 C   0  0  0  0  0  0  0  0  0  0  0  0
   36.7510   27.4290   31.6320 N   0  0  0  0  0  0  0  0  0  0  0  0
   36.5970   27.8060   29.3930 O   0  0  0  0  0  0  0  0  0  0  0  0
   38.1134   26.2215   37.4376 H   0  0  0  0  0  0  0  0  0  0  0  0
   39.4275   28.2369   36.1139 H   0  0  0  0  0  0  0  0  0  0  0  0
   40.0324   27.2439   35.0703 H   0  0  0  0  0  0  0  0  0  0  0  0
   36.7868   27.8424   35.1384 H   0  0  0  0  0  0  0  0  0  0  0  0
   40.3433   25.0873   35.2286 H   0  0  0  0  0  0  0  0  0  0  0  0
   36.5800   24.3511   37.1514 H   0  0  0  0  0  0  0  0  0  0  0  0
   38.9906   21.1192   35.7440 H   0  0  0  0  0  0  0  0  0  0  0  0
   36.2171   26.3850   34.3838 H   0  0  0  0  0  0  0  0  0  0  0  0
   37.2003   24.6824   34.2538 H   0  0  0  0  0  0  0  0  0  0  0  0
   35.9399   28.8670   34.5338 H   0  0  0  0  0  0  0  0  0  0  0  0
   36.2991   28.4036   28.6621 H   0  0  0  0  0  0  0  0  0  0  0  0
  2  1  1  0
  3  2  1  0
  3  1  1  0
  4  5  2  0
  5  1  1  0
  5  6  1  0
  7  6  2  0
  8  7  1  0
  9  4  1  0
  9  8  2  0
 10 11  1  0
 10  3  1  0
 12 13  2  0
 12 10  1  0
 14 13  1  0
 15 16  2  0
 15 14  1  0
 16 12  1  0
 17 15  1  0
  1 18  1  1
  2 19  1  0
  2 20  1  0
  3 21  1  1
  4 22  1  0
  6 23  1  0
  8 24  1  0
 10 25  1  0
 11 26  1  0
 13 27  1  0
 17 28  1  0
M  ISO  8  18  13  19  13  20  13  21  13  22  14  23  14  24  14  25   8
M  ISO  3  26   3  27  14  28   3
M  END
>  <minimizedAffinity>  (1) 
-4.90144157

>  <minimizedRMSD>  (1) 
0.0344581343

$$$$
