
     RDKit          3D

 34 37  0  0  1  0  0  0  0  0999 V2000
   38.2540   26.1590   36.3020 C   0  0  1  0  0  0  0  0  0  0  0  0
   38.8890   27.3180   35.7440 C   0  0  0  0  0  0  0  0  0  0  0  0
   37.5090   27.0030   35.2850 C   0  0  1  0  0  0  0  0  0  0  0  0
   39.8570   24.5580   35.2800 C   0  0  0  0  0  0  0  0  0  0  0  0
   38.6480   24.7920   35.9450 C   0  0  0  0  0  0  0  0  0  0  0  0
   37.8850   23.6790   36.2350 C   0  0  0  0  0  0  0  0  0  0  0  0
   38.3320   22.4430   35.8730 N   0  0  0  0  0  0  0  0  0  0  0  0
   39.5150   22.2620   35.2290 C   0  0  0  0  0  0  0  0  0  0  0  0
   40.2810   23.3330   34.9310 N   0  0  0  0  0  0  0  0  0  0  0  0
   37.2130   26.4990   33.9220 C   0  0  0  0  0  0  0  0  0  0  0  0
   37.1710   25.3440   33.3510 O   0  0  0  0  0  0  0  0  0  0  0  0
   36.8850   27.5810   32.9220 C   0  0  0  0  0  0  0  0  0  0  0  0
   35.9280   28.4540   33.3380 C   0  0  0  0  0  0  0  0  0  0  0  0
   35.8670   29.6550   31.8380 S   0  0  0  0  0  0  0  0  0  0  0  0
   37.1980   28.6630   30.9590 C   0  0  0  0  0  0  0  0  0  0  0  0
   37.4190   27.8020   31.7430 N   0  0  0  0  0  0  0  0  0  0  0  0
   37.7740   28.9370   29.6400 C   0  0  0  0  0  0  0  0  0  0  0  0
   37.6480   29.9870   28.7900 C   0  0  0  0  0  0  0  0  0  0  0  0
   38.4290   29.6840   27.6950 C   0  0  0  0  0  0  0  0  0  0  0  0
   39.0050   28.4480   27.9290 C   0  0  0  0  0  0  0  0  0  0  0  0
   38.5810   28.0450   29.1050 O   0  0  0  0  0  0  0  0  0  0  0  0
   38.0797   25.8170   37.3328 H   0  0  0  0  0  0  0  0  0  0  0  0
   39.0622   28.2002   36.3778 H   0  0  0  0  0  0  0  0  0  0  0  0
   39.8444   27.4895   35.2265 H   0  0  0  0  0  0  0  0  0  0  0  0
   36.5508   27.5411   35.2380 H   0  0  0  0  0  0  0  0  0  0  0  0
   40.4917   25.4212   35.0308 H   0  0  0  0  0  0  0  0  0  0  0  0
   36.9220   23.7886   36.7551 H   0  0  0  0  0  0  0  0  0  0  0  0
   39.8460   21.2501   34.9525 H   0  0  0  0  0  0  0  0  0  0  0  0
   36.1494   26.4066   34.1871 H   0  0  0  0  0  0  0  0  0  0  0  0
   37.1452   24.6352   34.0417 H   0  0  0  0  0  0  0  0  0  0  0  0
   35.3494   28.4686   34.2734 H   0  0  0  0  0  0  0  0  0  0  0  0
   37.0457   30.8946   28.9432 H   0  0  0  0  0  0  0  0  0  0  0  0
   38.5684   30.3092   26.8008 H   0  0  0  0  0  0  0  0  0  0  0  0
   39.6878   27.9061   27.2581 H   0  0  0  0  0  0  0  0  0  0  0  0
  2  1  1  0
  3  2  1  0
  3  1  1  0
  4  5  2  0
  5  6  1  0
  5  1  1  0
  7  6  2  0
  8  7  1  0
  9  8  2  0
  9  4  1  0
 10 11  1  0
 10  3  1  0
 12 13  2  0
 12 10  1  0
 14 13  1  0
 15 16  2  0
 15 14  1  0
 16 12  1  0
 17 15  1  0
 18 17  2  0
 19 20  2  0
 19 18  1  0
 20 21  1  0
 21 17  1  0
  1 22  1  1
  2 23  1  0
  2 24  1  0
  3 25  1  1
  4 26  1  0
  6 27  1  0
  8 28  1  0
 10 29  1  0
 11 30  1  0
 13 31  1  0
 18 32  1  0
 19 33  1  0
 20 34  1  0
M  ISO  8  22  13  23  13  24  13  25  13  26  14  27  14  28  14  29   8
M  ISO  5  30   3  31  14  32  14  33  14  34  14
M  END
>  <minimizedAffinity>  (1) 
-4.79396057

>  <minimizedRMSD>  (1) 
1.16289222

$$$$
