
     RDKit          3D

 33 36  0  0  1  0  0  0  0  0999 V2000
   38.2630   26.1740   36.2960 C   0  0  1  0  0  0  0  0  0  0  0  0
   38.9000   27.3320   35.7400 C   0  0  0  0  0  0  0  0  0  0  0  0
   37.5140   27.0220   35.2890 C   0  0  1  0  0  0  0  0  0  0  0  0
   39.8490   24.5640   35.2750 C   0  0  0  0  0  0  0  0  0  0  0  0
   38.6420   24.8050   35.9370 C   0  0  0  0  0  0  0  0  0  0  0  0
   37.8730   23.6920   36.2190 C   0  0  0  0  0  0  0  0  0  0  0  0
   38.3140   22.4580   35.8490 N   0  0  0  0  0  0  0  0  0  0  0  0
   39.4960   22.2710   35.2060 C   0  0  0  0  0  0  0  0  0  0  0  0
   40.2690   23.3380   34.9170 N   0  0  0  0  0  0  0  0  0  0  0  0
   37.2200   26.5290   33.9210 C   0  0  0  0  0  0  0  0  0  0  0  0
   37.1720   25.3780   33.3410 O   0  0  0  0  0  0  0  0  0  0  0  0
   36.9000   27.6160   32.9160 C   0  0  0  0  0  0  0  0  0  0  0  0
   35.9030   28.4590   33.3290 C   0  0  0  0  0  0  0  0  0  0  0  0
   35.8440   29.6800   31.8520 S   0  0  0  0  0  0  0  0  0  0  0  0
   37.2160   28.7420   30.9970 C   0  0  0  0  0  0  0  0  0  0  0  0
   37.4500   27.8700   31.7650 N   0  0  0  0  0  0  0  0  0  0  0  0
   37.7670   29.1510   29.6460 C   0  0  0  0  0  0  0  0  0  0  0  0
   37.4280   30.4110   29.1300 C   0  0  0  0  0  0  0  0  0  0  0  0
   38.2940   30.4270   27.5650 S   0  0  0  0  0  0  0  0  0  0  0  0
   38.9970   28.6890   27.8560 C   0  0  0  0  0  0  0  0  0  0  0  0
   38.5510   28.4420   28.8730 N   0  0  0  0  0  0  0  0  0  0  0  0
   38.0973   25.8297   37.3275 H   0  0  0  0  0  0  0  0  0  0  0  0
   39.0805   28.2110   36.3763 H   0  0  0  0  0  0  0  0  0  0  0  0
   39.8529   27.5025   35.2176 H   0  0  0  0  0  0  0  0  0  0  0  0
   36.5539   27.5576   35.2535 H   0  0  0  0  0  0  0  0  0  0  0  0
   40.4904   25.4244   35.0337 H   0  0  0  0  0  0  0  0  0  0  0  0
   36.9102   23.8023   36.7394 H   0  0  0  0  0  0  0  0  0  0  0  0
   39.8199   21.2584   34.9235 H   0  0  0  0  0  0  0  0  0  0  0  0
   36.1547   26.4423   34.1812 H   0  0  0  0  0  0  0  0  0  0  0  0
   37.1422   24.6641   34.0263 H   0  0  0  0  0  0  0  0  0  0  0  0
   35.3033   28.4407   34.2510 H   0  0  0  0  0  0  0  0  0  0  0  0
   36.7917   31.1904   29.5746 H   0  0  0  0  0  0  0  0  0  0  0  0
   39.6564   28.0847   27.2157 H   0  0  0  0  0  0  0  0  0  0  0  0
  2  1  1  0
  3  2  1  0
  3  1  1  0
  4  5  2  0
  5  6  1  0
  5  1  1  0
  7  6  2  0
  8  7  1  0
  9  8  2  0
  9  4  1  0
 10 11  1  0
 10  3  1  0
 12 13  2  0
 12 10  1  0
 14 13  1  0
 15 16  2  0
 15 14  1  0
 16 12  1  0
 17 15  1  0
 18 17  2  0
 19 20  1  0
 19 18  1  0
 20 21  2  0
 21 17  1  0
  1 22  1  1
  2 23  1  0
  2 24  1  0
  3 25  1  1
  4 26  1  0
  6 27  1  0
  8 28  1  0
 10 29  1  0
 11 30  1  0
 13 31  1  0
 18 32  1  0
 20 33  1  0
M  ISO  8  22  13  23  13  24  13  25  13  26  14  27  14  28  14  29   8
M  ISO  4  30   3  31  14  32  14  33  14
M  END
>  <minimizedAffinity>  (1) 
-4.74775124

>  <minimizedRMSD>  (1) 
1.26932085

$$$$
