
     RDKit          3D

 36 38  0  0  1  0  0  0  0  0999 V2000
   38.2960   26.3830   36.3750 C   0  0  1  0  0  0  0  0  0  0  0  0
   39.1100   27.3260   35.6670 C   0  0  0  0  0  0  0  0  0  0  0  0
   37.6760   27.2250   35.2760 C   0  0  1  0  0  0  0  0  0  0  0  0
   39.5320   24.4020   35.5220 C   0  0  0  0  0  0  0  0  0  0  0  0
   38.4180   24.9320   36.1840 C   0  0  0  0  0  0  0  0  0  0  0  0
   37.4770   24.0250   36.6300 C   0  0  0  0  0  0  0  0  0  0  0  0
   37.6720   22.6930   36.4140 N   0  0  0  0  0  0  0  0  0  0  0  0
   38.7680   22.2170   35.7660 C   0  0  0  0  0  0  0  0  0  0  0  0
   39.7080   23.0860   35.3160 N   0  0  0  0  0  0  0  0  0  0  0  0
   37.2420   26.6310   33.9910 C   0  0  0  0  0  0  0  0  0  0  0  0
   37.1200   25.4360   33.5170 O   0  0  0  0  0  0  0  0  0  0  0  0
   36.8440   27.6440   32.9410 C   0  0  0  0  0  0  0  0  0  0  0  0
   36.0200   28.6220   33.4040 C   0  0  0  0  0  0  0  0  0  0  0  0
   35.8070   29.6910   31.8220 S   0  0  0  0  0  0  0  0  0  0  0  0
   36.9220   28.5240   30.8690 C   0  0  0  0  0  0  0  0  0  0  0  0
   37.1990   27.7270   31.6910 N   0  0  0  0  0  0  0  0  0  0  0  0
   37.3260   28.6240   29.4310 C   0  0  0  0  0  0  0  0  0  0  0  0
   38.6740   27.9530   29.3480 C   0  0  0  0  0  0  0  0  0  0  0  0
   37.4400   30.0220   28.9320 C   0  0  0  0  0  0  0  0  0  0  0  0
   38.1039   26.2046   37.4433 H   0  0  0  0  0  0  0  0  0  0  0  0
   39.4697   28.2282   36.1834 H   0  0  0  0  0  0  0  0  0  0  0  0
   40.0583   27.2517   35.1146 H   0  0  0  0  0  0  0  0  0  0  0  0
   36.8301   27.9220   35.1826 H   0  0  0  0  0  0  0  0  0  0  0  0
   40.3006   25.0968   35.1525 H   0  0  0  0  0  0  0  0  0  0  0  0
   36.5764   24.3748   37.1559 H   0  0  0  0  0  0  0  0  0  0  0  0
   38.8920   21.1355   35.6076 H   0  0  0  0  0  0  0  0  0  0  0  0
   36.2063   26.5906   34.3595 H   0  0  0  0  0  0  0  0  0  0  0  0
   37.0540   24.7898   34.2641 H   0  0  0  0  0  0  0  0  0  0  0  0
   35.5930   28.7623   34.4080 H   0  0  0  0  0  0  0  0  0  0  0  0
   36.5549   28.1537   28.8032 H   0  0  0  0  0  0  0  0  0  0  0  0
   39.0528   27.7644   30.3633 H   0  0  0  0  0  0  0  0  0  0  0  0
   38.5760   26.9985   28.8101 H   0  0  0  0  0  0  0  0  0  0  0  0
   39.3764   28.6066   28.8101 H   0  0  0  0  0  0  0  0  0  0  0  0
   37.4963   30.7128   29.7862 H   0  0  0  0  0  0  0  0  0  0  0  0
   38.3491   30.1201   28.3206 H   0  0  0  0  0  0  0  0  0  0  0  0
   36.5588   30.2661   28.3206 H   0  0  0  0  0  0  0  0  0  0  0  0
  2  1  1  0
  3  2  1  0
  3  1  1  0
  4  5  2  0
  5  1  1  0
  5  6  1  0
  7  6  2  0
  8  7  1  0
  9  4  1  0
  9  8  2  0
 10 11  1  0
 10  3  1  0
 12 13  2  0
 12 10  1  0
 14 13  1  0
 15 16  2  0
 15 14  1  0
 16 12  1  0
 17 15  1  0
 18 17  1  0
 19 17  1  0
  1 20  1  1
  2 21  1  0
  2 22  1  0
  3 23  1  1
  4 24  1  0
  6 25  1  0
  8 26  1  0
 10 27  1  0
 11 28  1  0
 13 29  1  0
 17 30  1  0
 18 31  1  0
 18 32  1  0
 18 33  1  0
 19 34  1  0
 19 35  1  0
 19 36  1  0
M  ISO  8  20  13  21  13  22  13  23  13  24  14  25  14  26  14  27   8
M  ISO  8  28   3  29  14  30   8  31   8  32   8  33   8  34   8  35   8
M  ISO  1  36   8
M  END
>  <minimizedAffinity>  (1) 
-4.65871859

>  <minimizedRMSD>  (1) 
0.504284859

$$$$
