
     RDKit          3D

 39 41  0  0  1  0  0  0  0  0999 V2000
   38.2040   26.2600   36.2690 C   0  0  1  0  0  0  0  0  0  0  0  0
   38.8870   27.3720   35.6760 C   0  0  0  0  0  0  0  0  0  0  0  0
   37.5150   27.0620   35.1810 C   0  0  1  0  0  0  0  0  0  0  0  0
   39.7940   24.5750   35.3770 C   0  0  0  0  0  0  0  0  0  0  0  0
   38.5760   24.8660   36.0020 C   0  0  0  0  0  0  0  0  0  0  0  0
   37.7850   23.7840   36.3380 C   0  0  0  0  0  0  0  0  0  0  0  0
   38.2170   22.5230   36.0540 N   0  0  0  0  0  0  0  0  0  0  0  0
   39.4110   22.2850   35.4450 C   0  0  0  0  0  0  0  0  0  0  0  0
   40.2070   23.3240   35.1050 N   0  0  0  0  0  0  0  0  0  0  0  0
   37.2670   26.4970   33.8330 C   0  0  0  0  0  0  0  0  0  0  0  0
   37.1760   25.3130   33.3300 O   0  0  0  0  0  0  0  0  0  0  0  0
   37.0750   27.5360   32.7510 C   0  0  0  0  0  0  0  0  0  0  0  0
   35.9540   28.2940   32.9090 C   0  0  0  0  0  0  0  0  0  0  0  0
   36.1060   29.4870   31.4220 S   0  0  0  0  0  0  0  0  0  0  0  0
   37.7150   28.6520   30.9060 C   0  0  0  0  0  0  0  0  0  0  0  0
   37.8410   27.8230   31.7300 N   0  0  0  0  0  0  0  0  0  0  0  0
   38.4990   29.0690   29.7240 C   0  0  0  0  0  0  0  0  0  0  0  0
   39.8480   28.4480   29.8550 C   0  0  0  0  0  0  0  0  0  0  0  0
   37.8440   28.5310   28.4750 C   0  0  0  0  0  0  0  0  0  0  0  0
   38.5740   30.5730   29.5870 C   0  0  0  0  0  0  0  0  0  0  0  0
   37.9853   25.9791   37.3098 H   0  0  0  0  0  0  0  0  0  0  0  0
   39.0577   28.2831   36.2683 H   0  0  0  0  0  0  0  0  0  0  0  0
   39.8649   27.4944   35.1874 H   0  0  0  0  0  0  0  0  0  0  0  0
   36.5688   27.6122   35.0714 H   0  0  0  0  0  0  0  0  0  0  0  0
   40.4477   25.4130   35.0934 H   0  0  0  0  0  0  0  0  0  0  0  0
   36.8140   23.9393   36.8310 H   0  0  0  0  0  0  0  0  0  0  0  0
   39.7266   21.2533   35.2307 H   0  0  0  0  0  0  0  0  0  0  0  0
   36.1853   26.4953   34.0327 H   0  0  0  0  0  0  0  0  0  0  0  0
   37.1248   24.6471   34.0607 H   0  0  0  0  0  0  0  0  0  0  0  0
   35.1735   28.2357   33.6819 H   0  0  0  0  0  0  0  0  0  0  0  0
   40.0970   28.3334   30.9203 H   0  0  0  0  0  0  0  0  0  0  0  0
   39.8456   27.4604   29.3707 H   0  0  0  0  0  0  0  0  0  0  0  0
   40.5967   29.0921   29.3707 H   0  0  0  0  0  0  0  0  0  0  0  0
   37.0218   27.8556   28.7540 H   0  0  0  0  0  0  0  0  0  0  0  0
   37.4464   29.3667   27.8804 H   0  0  0  0  0  0  0  0  0  0  0  0
   38.5865   27.9786   27.8804 H   0  0  0  0  0  0  0  0  0  0  0  0
   38.5969   31.0315   30.5866 H   0  0  0  0  0  0  0  0  0  0  0  0
   39.4869   30.8461   29.0374 H   0  0  0  0  0  0  0  0  0  0  0  0
   37.6928   30.9355   29.0374 H   0  0  0  0  0  0  0  0  0  0  0  0
  2  1  1  0
  3  2  1  0
  3  1  1  0
  4  5  2  0
  5  1  1  0
  5  6  1  0
  7  6  2  0
  8  7  1  0
  9  4  1  0
  9  8  2  0
 10 11  1  0
 10  3  1  0
 12 13  2  0
 12 10  1  0
 14 13  1  0
 15 14  1  0
 15 16  2  0
 16 12  1  0
 17 18  1  0
 17 15  1  0
 19 17  1  0
 20 17  1  0
  1 21  1  1
  2 22  1  0
  2 23  1  0
  3 24  1  1
  4 25  1  0
  6 26  1  0
  8 27  1  0
 10 28  1  0
 11 29  1  0
 13 30  1  0
 18 31  1  0
 18 32  1  0
 18 33  1  0
 19 34  1  0
 19 35  1  0
 19 36  1  0
 20 37  1  0
 20 38  1  0
 20 39  1  0
M  ISO  8  21  13  22  13  23  13  24  13  25  14  26  14  27  14  28   8
M  ISO  8  29   3  30  14  31   8  32   8  33   8  34   8  35   8  36   8
M  ISO  3  37   8  38   8  39   8
M  END
>  <minimizedAffinity>  (1) 
-4.56183434

>  <minimizedRMSD>  (1) 
1.25942266

$$$$
