
     RDKit          3D

 29 31  0  0  1  0  0  0  0  0999 V2000
   38.2890   26.3420   36.3860 C   0  0  1  0  0  0  0  0  0  0  0  0
   39.0860   27.3070   35.6870 C   0  0  0  0  0  0  0  0  0  0  0  0
   37.6590   27.1690   35.2820 C   0  0  1  0  0  0  0  0  0  0  0  0
   39.5860   24.3880   35.5580 C   0  0  0  0  0  0  0  0  0  0  0  0
   38.4470   24.8940   36.1940 C   0  0  0  0  0  0  0  0  0  0  0  0
   37.5180   23.9650   36.6200 C   0  0  0  0  0  0  0  0  0  0  0  0
   37.7500   22.6380   36.4050 N   0  0  0  0  0  0  0  0  0  0  0  0
   38.8730   22.1890   35.7820 C   0  0  0  0  0  0  0  0  0  0  0  0
   39.7950   23.0780   35.3570 N   0  0  0  0  0  0  0  0  0  0  0  0
   37.2540   26.5670   33.9900 C   0  0  0  0  0  0  0  0  0  0  0  0
   37.1430   25.3670   33.5230 O   0  0  0  0  0  0  0  0  0  0  0  0
   36.8820   27.5660   32.9240 C   0  0  0  0  0  0  0  0  0  0  0  0
   36.1110   28.5870   33.3730 C   0  0  0  0  0  0  0  0  0  0  0  0
   35.9050   29.6300   31.7700 S   0  0  0  0  0  0  0  0  0  0  0  0
   36.9510   28.3920   30.8260 C   0  0  0  0  0  0  0  0  0  0  0  0
   37.2060   27.6100   31.6710 N   0  0  0  0  0  0  0  0  0  0  0  0
   37.1770   28.6660   29.4060 C   0  0  0  0  0  0  0  0  0  0  0  0
   37.2240   29.8740   29.0280 O   0  0  0  0  0  0  0  0  0  0  0  0
   38.0925   26.1575   37.4525 H   0  0  0  0  0  0  0  0  0  0  0  0
   39.4171   28.2176   36.2078 H   0  0  0  0  0  0  0  0  0  0  0  0
   40.0414   27.2582   35.1441 H   0  0  0  0  0  0  0  0  0  0  0  0
   36.7956   27.8432   35.1816 H   0  0  0  0  0  0  0  0  0  0  0  0
   40.3475   25.0992   35.2055 H   0  0  0  0  0  0  0  0  0  0  0  0
   36.5990   24.2923   37.1282 H   0  0  0  0  0  0  0  0  0  0  0  0
   39.0280   21.1112   35.6261 H   0  0  0  0  0  0  0  0  0  0  0  0
   36.2101   26.5294   34.3348 H   0  0  0  0  0  0  0  0  0  0  0  0
   37.0836   24.7248   34.2741 H   0  0  0  0  0  0  0  0  0  0  0  0
   35.7113   28.7695   34.3814 H   0  0  0  0  0  0  0  0  0  0  0  0
   37.3028   27.8441   28.6858 H   0  0  0  0  0  0  0  0  0  0  0  0
  2  1  1  0
  3  2  1  0
  3  1  1  0
  4  5  2  0
  5  1  1  0
  5  6  1  0
  7  6  2  0
  8  7  1  0
  9  4  1  0
  9  8  2  0
 10 11  1  0
 10  3  1  0
 12 13  2  0
 12 10  1  0
 14 13  1  0
 15 16  2  0
 15 14  1  0
 16 12  1  0
 17 15  1  0
 18 17  2  0
  1 19  1  1
  2 20  1  0
  2 21  1  0
  3 22  1  1
  4 23  1  0
  6 24  1  0
  8 25  1  0
 10 26  1  0
 11 27  1  0
 13 28  1  0
 17 29  1  0
M  ISO  8  19  13  20  13  21  13  22  13  23  14  24  14  25  14  26   8
M  ISO  3  27   3  28  14  29   6
M  END
>  <minimizedAffinity>  (1) 
-4.45598173

>  <minimizedRMSD>  (1) 
0.322869688

$$$$
