
     RDKit          3D

 46 51  0  0  1  0  0  0  0  0999 V2000
   36.8320   27.7240   33.0620 C   0  0  0  0  0  0  0  0  0  0  0  0
   35.8080   28.5230   33.3980 C   0  0  0  0  0  0  0  0  0  0  0  0
   35.7110   29.6900   31.8810 S   0  0  0  0  0  0  0  0  0  0  0  0
   37.1540   28.7840   31.0980 C   0  0  0  0  0  0  0  0  0  0  0  0
   37.3910   27.9670   31.9160 N   0  0  0  0  0  0  0  0  0  0  0  0
   37.5940   29.2560   29.7910 C   0  0  0  0  0  0  0  0  0  0  0  0
   37.2520   30.4600   29.2690 C   0  0  0  0  0  0  0  0  0  0  0  0
   37.7650   30.7610   28.0000 C   0  0  0  0  0  0  0  0  0  0  0  0
   38.5520   29.8600   27.3840 N   0  0  0  0  0  0  0  0  0  0  0  0
   38.8880   28.6590   27.9150 C   0  0  0  0  0  0  0  0  0  0  0  0
   38.3690   28.4150   29.1380 N   0  0  0  0  0  0  0  0  0  0  0  0
   39.7250   27.7280   27.2330 N   0  0  0  0  0  0  0  0  0  0  0  0
   40.3650   27.9500   26.0630 C   0  0  0  0  0  0  0  0  0  0  0  0
   41.0570   26.8460   25.7300 N   0  0  0  0  0  0  0  0  0  0  0  0
   40.8300   25.9510   26.7080 C   0  0  0  0  0  0  0  0  0  0  0  0
   41.3300   24.6480   26.8180 C   0  0  0  0  0  0  0  0  0  0  0  0
   40.9380   23.9720   27.9080 N   0  0  0  0  0  0  0  0  0  0  0  0
   40.1230   24.4620   28.8610 C   0  0  0  0  0  0  0  0  0  0  0  0
   39.6550   25.7210   28.7320 N   0  0  0  0  0  0  0  0  0  0  0  0
   39.9820   26.4870   27.6840 C   0  0  0  0  0  0  0  0  0  0  0  0
   37.1210   26.6480   34.1080 C   0  0  2  0  0  0  0  0  0  0  0  0
   38.3590   26.3930   36.4260 C   0  0  1  0  0  0  0  0  0  0  0  0
   39.1810   27.2600   35.6580 C   0  0  0  0  0  0  0  0  0  0  0  0
   37.7550   27.2570   35.3260 C   0  0  1  0  0  0  0  0  0  0  0  0
   39.4570   24.3360   35.5880 C   0  0  0  0  0  0  0  0  0  0  0  0
   38.3900   24.9300   36.2510 C   0  0  0  0  0  0  0  0  0  0  0  0
   37.4160   24.0820   36.7060 C   0  0  0  0  0  0  0  0  0  0  0  0
   37.5330   22.7320   36.4950 N   0  0  0  0  0  0  0  0  0  0  0  0
   38.5880   22.1920   35.8450 C   0  0  0  0  0  0  0  0  0  0  0  0
   39.5760   23.0120   35.3790 N   0  0  0  0  0  0  0  0  0  0  0  0
   37.2130   25.5170   33.5060 O   0  0  0  0  0  0  0  0  0  0  0  0
   35.1871   28.5113   34.3059 H   0  0  0  0  0  0  0  0  0  0  0  0
   36.6054   31.1639   29.8134 H   0  0  0  0  0  0  0  0  0  0  0  0
   37.5279   31.7193   27.5149 H   0  0  0  0  0  0  0  0  0  0  0  0
   40.3261   28.8813   25.4789 H   0  0  0  0  0  0  0  0  0  0  0  0
   41.9983   24.2089   26.0626 H   0  0  0  0  0  0  0  0  0  0  0  0
   39.8436   23.8471   29.7292 H   0  0  0  0  0  0  0  0  0  0  0  0
   36.4669   26.1561   34.8430 H   0  0  0  0  0  0  0  0  0  0  0  0
   38.2002   26.2487   37.5049 H   0  0  0  0  0  0  0  0  0  0  0  0
   39.6219   28.1479   36.1348 H   0  0  0  0  0  0  0  0  0  0  0  0
   40.0946   27.1056   35.0652 H   0  0  0  0  0  0  0  0  0  0  0  0
   36.9902   28.0397   35.2148 H   0  0  0  0  0  0  0  0  0  0  0  0
   40.2561   24.9904   35.2095 H   0  0  0  0  0  0  0  0  0  0  0  0
   36.5416   24.4827   37.2396 H   0  0  0  0  0  0  0  0  0  0  0  0
   38.6502   21.1043   35.6930 H   0  0  0  0  0  0  0  0  0  0  0  0
   37.2721   24.7905   34.1759 H   0  0  0  0  0  0  0  0  0  0  0  0
  1  2  2  0
  1 21  1  0
  3  2  1  0
  4  3  1  0
  4  5  2  0
  5  1  1  0
  6  4  1  0
  7  6  2  0
  8  7  1  0
  9 10  1  0
  9  8  2  0
 10 11  2  0
 11  6  1  0
 12 20  1  0
 12 10  1  0
 13 12  1  0
 14 13  2  0
 14 15  1  0
 15 16  2  0
 15 20  1  0
 16 17  1  0
 17 18  2  0
 19 18  1  0
 20 19  2  0
 21 24  1  0
 23 22  1  0
 24 23  1  0
 24 22  1  0
 25 26  2  0
 26 22  1  0
 26 27  1  0
 28 27  2  0
 29 28  1  0
 30 25  1  0
 30 29  2  0
 31 21  1  0
  2 32  1  0
  7 33  1  0
  8 34  1  0
 13 35  1  0
 16 36  1  0
 18 37  1  0
 21 38  1  1
 22 39  1  1
 23 40  1  0
 23 41  1  0
 24 42  1  1
 25 43  1  0
 27 44  1  0
 29 45  1  0
 31 46  1  0
M  ISO  8  32  14  33  14  34  14  35  14  36  14  37  14  38   8  39  13
M  ISO  7  40  13  41  13  42  13  43  14  44  14  45  14  46   3
M  END
>  <minimizedAffinity>  (1) 
-5.93476486

>  <minimizedRMSD>  (1) 
0.737928391

$$$$
