
     RDKit          3D

 49 53  0  0  1  0  0  0  0  0999 V2000
   36.8580   27.7150   33.0660 C   0  0  0  0  0  0  0  0  0  0  0  0
   35.8380   28.5280   33.4010 C   0  0  0  0  0  0  0  0  0  0  0  0
   35.7540   29.6860   31.8790 S   0  0  0  0  0  0  0  0  0  0  0  0
   37.1840   28.7640   31.0990 C   0  0  0  0  0  0  0  0  0  0  0  0
   37.4130   27.9480   31.9230 N   0  0  0  0  0  0  0  0  0  0  0  0
   37.6270   29.2240   29.7860 C   0  0  0  0  0  0  0  0  0  0  0  0
   37.2080   30.3860   29.2150 C   0  0  0  0  0  0  0  0  0  0  0  0
   37.7330   30.6720   27.9480 C   0  0  0  0  0  0  0  0  0  0  0  0
   38.5960   29.8070   27.3820 N   0  0  0  0  0  0  0  0  0  0  0  0
   38.9990   28.6670   27.9570 C   0  0  0  0  0  0  0  0  0  0  0  0
   38.4800   28.4070   29.1860 N   0  0  0  0  0  0  0  0  0  0  0  0
   39.9120   27.7670   27.3430 N   0  0  0  0  0  0  0  0  0  0  0  0
   40.6880   28.1970   26.2160 C   0  0  0  0  0  0  0  0  0  0  0  0
   40.8010   27.1370   25.1470 C   0  0  0  0  0  0  0  0  0  0  0  0
   40.8450   25.8000   25.6480 N   0  0  0  0  0  0  0  0  0  0  0  0
   39.8910   25.4960   26.6730 C   0  0  0  0  0  0  0  0  0  0  0  0
   40.0340   26.4240   27.8790 C   0  0  0  0  0  0  0  0  0  0  0  0
   37.1270   26.6440   34.1210 C   0  0  2  0  0  0  0  0  0  0  0  0
   38.3630   26.3810   36.4410 C   0  0  1  0  0  0  0  0  0  0  0  0
   39.1800   27.2570   35.6780 C   0  0  0  0  0  0  0  0  0  0  0  0
   37.7540   27.2400   35.3370 C   0  0  1  0  0  0  0  0  0  0  0  0
   39.4590   24.3210   35.6030 C   0  0  0  0  0  0  0  0  0  0  0  0
   38.3800   24.9340   36.2730 C   0  0  0  0  0  0  0  0  0  0  0  0
   37.4120   24.0750   36.7170 C   0  0  0  0  0  0  0  0  0  0  0  0
   37.5240   22.7250   36.5060 N   0  0  0  0  0  0  0  0  0  0  0  0
   38.5850   22.1820   35.8560 C   0  0  0  0  0  0  0  0  0  0  0  0
   39.5710   22.9950   35.3950 N   0  0  0  0  0  0  0  0  0  0  0  0
   37.2070   25.5050   33.5260 O   0  0  0  0  0  0  0  0  0  0  0  0
   35.2172   28.5269   34.3091 H   0  0  0  0  0  0  0  0  0  0  0  0
   36.4995   31.0604   29.7182 H   0  0  0  0  0  0  0  0  0  0  0  0
   37.4434   31.5932   27.4212 H   0  0  0  0  0  0  0  0  0  0  0  0
   40.2113   29.0872   25.7797 H   0  0  0  0  0  0  0  0  0  0  0  0
   41.7042   28.4147   26.5764 H   0  0  0  0  0  0  0  0  0  0  0  0
   41.7224   27.3212   24.5751 H   0  0  0  0  0  0  0  0  0  0  0  0
   39.8932   27.2129   24.5305 H   0  0  0  0  0  0  0  0  0  0  0  0
   40.6786   25.1593   24.8589 H   0  0  0  0  0  0  0  0  0  0  0  0
   38.8777   25.6046   26.2590 H   0  0  0  0  0  0  0  0  0  0  0  0
   40.0727   24.4656   27.0126 H   0  0  0  0  0  0  0  0  0  0  0  0
   41.0154   26.2871   28.3567 H   0  0  0  0  0  0  0  0  0  0  0  0
   39.2751   26.2181   28.6482 H   0  0  0  0  0  0  0  0  0  0  0  0
   36.4597   26.1732   34.8579 H   0  0  0  0  0  0  0  0  0  0  0  0
   38.2156   26.2345   37.5212 H   0  0  0  0  0  0  0  0  0  0  0  0
   39.6091   28.1490   36.1579 H   0  0  0  0  0  0  0  0  0  0  0  0
   40.0984   27.1122   35.0902 H   0  0  0  0  0  0  0  0  0  0  0  0
   36.9802   28.0133   35.2220 H   0  0  0  0  0  0  0  0  0  0  0  0
   40.2631   24.9694   35.2249 H   0  0  0  0  0  0  0  0  0  0  0  0
   36.5347   24.4717   37.2489 H   0  0  0  0  0  0  0  0  0  0  0  0
   38.6458   21.0942   35.7041 H   0  0  0  0  0  0  0  0  0  0  0  0
   37.2577   24.7828   34.2012 H   0  0  0  0  0  0  0  0  0  0  0  0
  1  2  2  0
  1 18  1  0
  3  2  1  0
  4  3  1  0
  4  5  2  0
  5  1  1  0
  6  4  1  0
  7  6  2  0
  8  7  1  0
  9  8  2  0
  9 10  1  0
 10 11  2  0
 11  6  1  0
 12 17  1  0
 12 10  1  0
 13 12  1  0
 14 15  1  0
 14 13  1  0
 15 16  1  0
 16 17  1  0
 18 21  1  0
 20 19  1  0
 21 20  1  0
 21 19  1  0
 22 23  2  0
 23 19  1  0
 23 24  1  0
 25 24  2  0
 26 25  1  0
 27 22  1  0
 27 26  2  0
 28 18  1  0
  2 29  1  0
  7 30  1  0
  8 31  1  0
 13 32  1  0
 13 33  1  0
 14 34  1  0
 14 35  1  0
 15 36  1  0
 16 37  1  0
 16 38  1  0
 17 39  1  0
 17 40  1  0
 18 41  1  1
 19 42  1  1
 20 43  1  0
 20 44  1  0
 21 45  1  1
 22 46  1  0
 24 47  1  0
 26 48  1  0
 28 49  1  0
M  ISO  8  29  14  30  14  31  14  32  13  33  13  34  13  35  13  36   5
M  ISO  8  37  13  38  13  39  13  40  13  41   8  42  13  43  13  44  13
M  ISO  5  45  13  46  14  47  14  48  14  49   3
M  END
>  <minimizedAffinity>  (1) 
-5.68055725

>  <minimizedRMSD>  (1) 
0.594895542

$$$$
