
     RDKit          3D

 44 48  0  0  1  0  0  0  0  0999 V2000
   36.7890   27.8130   33.1860 C   0  0  0  0  0  0  0  0  0  0  0  0
   35.7770   28.6070   33.5810 C   0  0  0  0  0  0  0  0  0  0  0  0
   35.6500   29.8250   32.1030 S   0  0  0  0  0  0  0  0  0  0  0  0
   37.0590   28.9330   31.2610 C   0  0  0  0  0  0  0  0  0  0  0  0
   37.3100   28.0930   32.0420 N   0  0  0  0  0  0  0  0  0  0  0  0
   37.4580   29.4510   29.9500 C   0  0  0  0  0  0  0  0  0  0  0  0
   37.0720   30.6530   29.4510 C   0  0  0  0  0  0  0  0  0  0  0  0
   37.5490   30.9680   28.1800 C   0  0  0  0  0  0  0  0  0  0  0  0
   38.3410   30.1000   27.5220 N   0  0  0  0  0  0  0  0  0  0  0  0
   38.7180   28.9170   28.0200 C   0  0  0  0  0  0  0  0  0  0  0  0
   38.2450   28.6170   29.2690 N   0  0  0  0  0  0  0  0  0  0  0  0
   39.5790   28.0070   27.2720 C   0  0  0  0  0  0  0  0  0  0  0  0
   40.3320   28.4990   26.2270 C   0  0  0  0  0  0  0  0  0  0  0  0
   41.1200   27.5450   25.5770 C   0  0  0  0  0  0  0  0  0  0  0  0
   41.1110   26.2110   25.9930 C   0  0  0  0  0  0  0  0  0  0  0  0
   40.3310   25.7820   27.0530 C   0  0  0  0  0  0  0  0  0  0  0  0
   39.5680   26.7270   27.6730 N   0  0  0  0  0  0  0  0  0  0  0  0
   37.0920   26.7050   34.1970 C   0  0  2  0  0  0  0  0  0  0  0  0
   38.4060   26.3680   36.4610 C   0  0  1  0  0  0  0  0  0  0  0  0
   39.2240   27.2290   35.6820 C   0  0  0  0  0  0  0  0  0  0  0  0
   37.7870   27.2690   35.4020 C   0  0  1  0  0  0  0  0  0  0  0  0
   39.4310   24.3100   35.5520 C   0  0  0  0  0  0  0  0  0  0  0  0
   38.3970   24.9140   36.2580 C   0  0  0  0  0  0  0  0  0  0  0  0
   37.4230   24.0720   36.7200 C   0  0  0  0  0  0  0  0  0  0  0  0
   37.5050   22.7240   36.4780 N   0  0  0  0  0  0  0  0  0  0  0  0
   38.5340   22.1790   35.7840 C   0  0  0  0  0  0  0  0  0  0  0  0
   39.5220   22.9900   35.3090 N   0  0  0  0  0  0  0  0  0  0  0  0
   37.1420   25.5880   33.5600 O   0  0  0  0  0  0  0  0  0  0  0  0
   35.1812   28.5684   34.5049 H   0  0  0  0  0  0  0  0  0  0  0  0
   36.4218   31.3372   30.0159 H   0  0  0  0  0  0  0  0  0  0  0  0
   37.2783   31.9268   27.7137 H   0  0  0  0  0  0  0  0  0  0  0  0
   40.3140   29.5576   25.9287 H   0  0  0  0  0  0  0  0  0  0  0  0
   41.7533   27.8472   24.7299 H   0  0  0  0  0  0  0  0  0  0  0  0
   41.7413   25.4815   25.4634 H   0  0  0  0  0  0  0  0  0  0  0  0
   40.3268   24.7314   27.3789 H   0  0  0  0  0  0  0  0  0  0  0  0
   36.4495   26.2149   34.9433 H   0  0  0  0  0  0  0  0  0  0  0  0
   38.2785   26.2056   37.5415 H   0  0  0  0  0  0  0  0  0  0  0  0
   39.7048   28.0950   36.1603 H   0  0  0  0  0  0  0  0  0  0  0  0
   40.1119   27.0638   35.0540 H   0  0  0  0  0  0  0  0  0  0  0  0
   37.0395   28.0732   35.3339 H   0  0  0  0  0  0  0  0  0  0  0  0
   40.2316   24.9573   35.1646 H   0  0  0  0  0  0  0  0  0  0  0  0
   36.5717   24.4767   37.2871 H   0  0  0  0  0  0  0  0  0  0  0  0
   38.5716   21.0942   35.6059 H   0  0  0  0  0  0  0  0  0  0  0  0
   37.1755   24.8400   34.2077 H   0  0  0  0  0  0  0  0  0  0  0  0
  1  2  2  0
  1 18  1  0
  3  2  1  0
  4  5  2  0
  4  3  1  0
  5  1  1  0
  6  4  1  0
  7  6  2  0
  8  7  1  0
  9 10  1  0
  9  8  2  0
 10 11  2  0
 11  6  1  0
 12 17  1  0
 12 10  1  0
 13 12  2  0
 14 15  2  0
 14 13  1  0
 15 16  1  0
 16 17  2  0
 18 21  1  0
 20 19  1  0
 21 20  1  0
 21 19  1  0
 22 23  2  0
 23 19  1  0
 23 24  1  0
 25 24  2  0
 26 25  1  0
 27 22  1  0
 27 26  2  0
 28 18  1  0
  2 29  1  0
  7 30  1  0
  8 31  1  0
 13 32  1  0
 14 33  1  0
 15 34  1  0
 16 35  1  0
 18 36  1  1
 19 37  1  1
 20 38  1  0
 20 39  1  0
 21 40  1  1
 22 41  1  0
 24 42  1  0
 26 43  1  0
 28 44  1  0
M  ISO  8  29  14  30  14  31  14  32  14  33  14  34  14  35  14  36   8
M  ISO  8  37  13  38  13  39  13  40  13  41  14  42  14  43  14  44   3
M  END
>  <minimizedAffinity>  (1) 
-5.501194

>  <minimizedRMSD>  (1) 
0.888557076

$$$$
