
     RDKit          3D

 45 49  0  0  1  0  0  0  0  0999 V2000
   36.8110   27.7850   33.1740 C   0  0  0  0  0  0  0  0  0  0  0  0
   35.8110   28.5970   33.5500 C   0  0  0  0  0  0  0  0  0  0  0  0
   35.7030   29.7890   32.0510 S   0  0  0  0  0  0  0  0  0  0  0  0
   37.1050   28.8690   31.2230 C   0  0  0  0  0  0  0  0  0  0  0  0
   37.3380   28.0440   32.0200 N   0  0  0  0  0  0  0  0  0  0  0  0
   37.5160   29.3570   29.9190 C   0  0  0  0  0  0  0  0  0  0  0  0
   37.1520   30.5660   29.3960 C   0  0  0  0  0  0  0  0  0  0  0  0
   37.6400   30.8550   28.1230 C   0  0  0  0  0  0  0  0  0  0  0  0
   38.4190   29.9720   27.4840 N   0  0  0  0  0  0  0  0  0  0  0  0
   38.7770   28.7860   27.9960 C   0  0  0  0  0  0  0  0  0  0  0  0
   38.2910   28.5120   29.2480 N   0  0  0  0  0  0  0  0  0  0  0  0
   39.6250   27.8200   27.3040 C   0  0  0  0  0  0  0  0  0  0  0  0
   40.2740   28.2490   26.1730 C   0  0  0  0  0  0  0  0  0  0  0  0
   41.0820   27.3200   25.5160 C   0  0  0  0  0  0  0  0  0  0  0  0
   41.1900   26.0250   26.0300 C   0  0  0  0  0  0  0  0  0  0  0  0
   40.5350   25.6190   27.1590 C   0  0  0  0  0  0  0  0  0  0  0  0
   39.7360   26.5390   27.8070 C   0  0  0  0  0  0  0  0  0  0  0  0
   37.1010   26.6840   34.1970 C   0  0  2  0  0  0  0  0  0  0  0  0
   38.4050   26.3680   36.4720 C   0  0  1  0  0  0  0  0  0  0  0  0
   39.2190   27.2300   35.6880 C   0  0  0  0  0  0  0  0  0  0  0  0
   37.7820   27.2560   35.4010 C   0  0  1  0  0  0  0  0  0  0  0  0
   39.4400   24.2980   35.5670 C   0  0  0  0  0  0  0  0  0  0  0  0
   38.3960   24.9110   36.2730 C   0  0  0  0  0  0  0  0  0  0  0  0
   37.4160   24.0750   36.7390 C   0  0  0  0  0  0  0  0  0  0  0  0
   37.4990   22.7250   36.5020 N   0  0  0  0  0  0  0  0  0  0  0  0
   38.5240   22.1720   35.8160 C   0  0  0  0  0  0  0  0  0  0  0  0
   39.5140   22.9740   35.3380 N   0  0  0  0  0  0  0  0  0  0  0  0
   37.1450   25.5600   33.5740 O   0  0  0  0  0  0  0  0  0  0  0  0
   35.2123   28.5828   34.4727 H   0  0  0  0  0  0  0  0  0  0  0  0
   36.5113   31.2698   29.9475 H   0  0  0  0  0  0  0  0  0  0  0  0
   37.3849   31.8106   27.6416 H   0  0  0  0  0  0  0  0  0  0  0  0
   40.1622   29.2783   25.8014 H   0  0  0  0  0  0  0  0  0  0  0  0
   41.6276   27.6038   24.6040 H   0  0  0  0  0  0  0  0  0  0  0  0
   41.8296   25.3013   25.5035 H   0  0  0  0  0  0  0  0  0  0  0  0
   40.6413   24.5921   27.5388 H   0  0  0  0  0  0  0  0  0  0  0  0
   39.1909   26.2534   28.7187 H   0  0  0  0  0  0  0  0  0  0  0  0
   36.4581   26.1964   34.9446 H   0  0  0  0  0  0  0  0  0  0  0  0
   38.2820   26.2136   37.5542 H   0  0  0  0  0  0  0  0  0  0  0  0
   39.6905   28.1042   36.1608 H   0  0  0  0  0  0  0  0  0  0  0  0
   40.1108   27.0667   35.0650 H   0  0  0  0  0  0  0  0  0  0  0  0
   37.0258   28.0512   35.3249 H   0  0  0  0  0  0  0  0  0  0  0  0
   40.2463   24.9367   35.1772 H   0  0  0  0  0  0  0  0  0  0  0  0
   36.5642   24.4843   37.3020 H   0  0  0  0  0  0  0  0  0  0  0  0
   38.5575   21.0857   35.6460 H   0  0  0  0  0  0  0  0  0  0  0  0
   37.1740   24.8197   34.2306 H   0  0  0  0  0  0  0  0  0  0  0  0
  1  2  2  0
  1 18  1  0
  3  2  1  0
  4  5  2  0
  4  3  1  0
  5  1  1  0
  6  4  1  0
  7  6  2  0
  8  7  1  0
  9 10  1  0
  9  8  2  0
 10 11  2  0
 11  6  1  0
 12 17  1  0
 12 10  1  0
 13 12  2  0
 14 15  2  0
 14 13  1  0
 15 16  1  0
 16 17  2  0
 18 21  1  0
 20 19  1  0
 21 20  1  0
 21 19  1  0
 22 23  2  0
 23 19  1  0
 23 24  1  0
 25 24  2  0
 26 25  1  0
 27 22  1  0
 27 26  2  0
 28 18  1  0
  2 29  1  0
  7 30  1  0
  8 31  1  0
 13 32  1  0
 14 33  1  0
 15 34  1  0
 16 35  1  0
 17 36  1  0
 18 37  1  1
 19 38  1  1
 20 39  1  0
 20 40  1  0
 21 41  1  1
 22 42  1  0
 24 43  1  0
 26 44  1  0
 28 45  1  0
M  ISO  8  29  14  30  14  31  14  32  14  33  14  34  14  35  14  36  14
M  ISO  8  37   8  38  13  39  13  40  13  41  13  42  14  43  14  44  14
M  ISO  1  45   3
M  END
>  <minimizedAffinity>  (1) 
-5.48639917

>  <minimizedRMSD>  (1) 
0.916309714

$$$$
