
     RDKit          3D

 43 47  0  0  1  0  0  0  0  0999 V2000
   36.8020   27.7830   33.1810 C   0  0  0  0  0  0  0  0  0  0  0  0
   35.8080   28.6050   33.5630 C   0  0  0  0  0  0  0  0  0  0  0  0
   35.7000   29.7960   32.0650 S   0  0  0  0  0  0  0  0  0  0  0  0
   37.0850   28.8670   31.2320 C   0  0  0  0  0  0  0  0  0  0  0  0
   37.3200   28.0370   32.0300 N   0  0  0  0  0  0  0  0  0  0  0  0
   37.5050   29.3450   29.9110 C   0  0  0  0  0  0  0  0  0  0  0  0
   37.1410   30.5520   29.4000 C   0  0  0  0  0  0  0  0  0  0  0  0
   37.6300   30.8480   28.1330 C   0  0  0  0  0  0  0  0  0  0  0  0
   38.4140   29.9620   27.4910 N   0  0  0  0  0  0  0  0  0  0  0  0
   38.7660   28.7700   28.0090 C   0  0  0  0  0  0  0  0  0  0  0  0
   38.2780   28.5000   29.2470 N   0  0  0  0  0  0  0  0  0  0  0  0
   39.6140   27.8050   27.3220 C   0  0  0  0  0  0  0  0  0  0  0  0
   40.2930   28.1980   26.1980 C   0  0  0  0  0  0  0  0  0  0  0  0
   41.1150   27.3430   25.4910 C   0  0  0  0  0  0  0  0  0  0  0  0
   41.2100   26.0800   25.9820 N   0  0  0  0  0  0  0  0  0  0  0  0
   40.5360   25.7140   27.0840 C   0  0  0  0  0  0  0  0  0  0  0  0
   39.7310   26.5400   27.7820 N   0  0  0  0  0  0  0  0  0  0  0  0
   37.0880   26.6860   34.2090 C   0  0  2  0  0  0  0  0  0  0  0  0
   38.4060   26.3660   36.4790 C   0  0  1  0  0  0  0  0  0  0  0  0
   39.2090   27.2380   35.6980 C   0  0  0  0  0  0  0  0  0  0  0  0
   37.7720   27.2530   35.4110 C   0  0  1  0  0  0  0  0  0  0  0  0
   39.4340   24.2980   35.5730 C   0  0  0  0  0  0  0  0  0  0  0  0
   38.3890   24.9220   36.2860 C   0  0  0  0  0  0  0  0  0  0  0  0
   37.4180   24.0750   36.7470 C   0  0  0  0  0  0  0  0  0  0  0  0
   37.4950   22.7260   36.5110 N   0  0  0  0  0  0  0  0  0  0  0  0
   38.5250   22.1720   35.8170 C   0  0  0  0  0  0  0  0  0  0  0  0
   39.5140   22.9740   35.3380 N   0  0  0  0  0  0  0  0  0  0  0  0
   37.1240   25.5580   33.5920 O   0  0  0  0  0  0  0  0  0  0  0  0
   35.2147   28.5960   34.4892 H   0  0  0  0  0  0  0  0  0  0  0  0
   36.4988   31.2512   29.9556 H   0  0  0  0  0  0  0  0  0  0  0  0
   37.3764   31.8058   27.6552 H   0  0  0  0  0  0  0  0  0  0  0  0
   40.1787   29.2338   25.8459 H   0  0  0  0  0  0  0  0  0  0  0  0
   41.6574   27.6636   24.5893 H   0  0  0  0  0  0  0  0  0  0  0  0
   40.6472   24.6786   27.4384 H   0  0  0  0  0  0  0  0  0  0  0  0
   36.4409   26.2112   34.9612 H   0  0  0  0  0  0  0  0  0  0  0  0
   38.2974   26.2059   37.5619 H   0  0  0  0  0  0  0  0  0  0  0  0
   39.6728   28.1146   36.1739 H   0  0  0  0  0  0  0  0  0  0  0  0
   40.1015   27.0849   35.0735 H   0  0  0  0  0  0  0  0  0  0  0  0
   37.0092   28.0421   35.3367 H   0  0  0  0  0  0  0  0  0  0  0  0
   40.2395   24.9369   35.1817 H   0  0  0  0  0  0  0  0  0  0  0  0
   36.5664   24.4805   37.3130 H   0  0  0  0  0  0  0  0  0  0  0  0
   38.5581   21.0861   35.6447 H   0  0  0  0  0  0  0  0  0  0  0  0
   37.1475   24.8211   34.2527 H   0  0  0  0  0  0  0  0  0  0  0  0
  1  2  2  0
  1 18  1  0
  3  2  1  0
  4  5  2  0
  4  3  1  0
  5  1  1  0
  6  4  1  0
  7  6  2  0
  8  7  1  0
  9 10  1  0
  9  8  2  0
 10 11  2  0
 11  6  1  0
 12 17  1  0
 12 10  1  0
 13 12  2  0
 14 15  2  0
 14 13  1  0
 15 16  1  0
 16 17  2  0
 18 21  1  0
 20 19  1  0
 21 20  1  0
 21 19  1  0
 22 23  2  0
 23 19  1  0
 23 24  1  0
 25 24  2  0
 26 25  1  0
 27 22  1  0
 27 26  2  0
 28 18  1  0
  2 29  1  0
  7 30  1  0
  8 31  1  0
 13 32  1  0
 14 33  1  0
 16 34  1  0
 18 35  1  1
 19 36  1  1
 20 37  1  0
 20 38  1  0
 21 39  1  1
 22 40  1  0
 24 41  1  0
 26 42  1  0
 28 43  1  0
M  ISO  8  29  14  30  14  31  14  32  14  33  14  34  14  35   8  36  13
M  ISO  7  37  13  38  13  39  13  40  14  41  14  42  14  43   3
M  END
>  <minimizedAffinity>  (1) 
-5.4718709

>  <minimizedRMSD>  (1) 
0.783617973

$$$$
