
     RDKit          3D

 38 41  0  0  1  0  0  0  0  0999 V2000
   37.0630   26.6920   34.2560 C   0  0  1  0  0  0  0  0  0  0  0  0
   38.4090   26.3650   36.5090 C   0  0  1  0  0  0  0  0  0  0  0  0
   39.2110   27.2320   35.7230 C   0  0  0  0  0  0  0  0  0  0  0  0
   37.7750   27.2570   35.4470 C   0  0  1  0  0  0  0  0  0  0  0  0
   39.4260   24.2910   35.5870 C   0  0  0  0  0  0  0  0  0  0  0  0
   38.4000   24.9020   36.3050 C   0  0  0  0  0  0  0  0  0  0  0  0
   37.4260   24.0690   36.7840 C   0  0  0  0  0  0  0  0  0  0  0  0
   37.4850   22.7340   36.5560 N   0  0  0  0  0  0  0  0  0  0  0  0
   38.5010   22.1710   35.8520 C   0  0  0  0  0  0  0  0  0  0  0  0
   39.4820   22.9630   35.3630 N   0  0  0  0  0  0  0  0  0  0  0  0
   36.7730   27.7850   33.2330 C   0  0  0  0  0  0  0  0  0  0  0  0
   35.7900   28.6150   33.6170 C   0  0  0  0  0  0  0  0  0  0  0  0
   35.6730   29.8010   32.1340 S   0  0  0  0  0  0  0  0  0  0  0  0
   37.0530   28.8690   31.2660 C   0  0  0  0  0  0  0  0  0  0  0  0
   37.2770   28.0440   32.0720 N   0  0  0  0  0  0  0  0  0  0  0  0
   37.4580   29.3520   29.9490 C   0  0  0  0  0  0  0  0  0  0  0  0
   37.1010   30.5660   29.4590 C   0  0  0  0  0  0  0  0  0  0  0  0
   37.5880   30.8620   28.1780 C   0  0  0  0  0  0  0  0  0  0  0  0
   38.3490   29.9700   27.5290 N   0  0  0  0  0  0  0  0  0  0  0  0
   38.6900   28.7710   28.0360 C   0  0  0  0  0  0  0  0  0  0  0  0
   38.2060   28.5080   29.2780 N   0  0  0  0  0  0  0  0  0  0  0  0
   39.5210   27.8370   27.2880 C   0  0  0  0  0  0  0  0  0  0  0  0
   40.2720   28.3460   26.4200 O   0  0  0  0  0  0  0  0  0  0  0  0
   39.4360   26.4860   27.5710 O   0  0  0  0  0  0  0  0  0  0  0  0
   37.0950   25.5650   33.6360 O   0  0  0  0  0  0  0  0  0  0  0  0
   36.4088   26.2319   35.0112 H   0  0  0  0  0  0  0  0  0  0  0  0
   38.2972   26.2047   37.5915 H   0  0  0  0  0  0  0  0  0  0  0  0
   39.6841   28.1051   36.1961 H   0  0  0  0  0  0  0  0  0  0  0  0
   40.0977   27.0735   35.0916 H   0  0  0  0  0  0  0  0  0  0  0  0
   37.0224   28.0559   35.3734 H   0  0  0  0  0  0  0  0  0  0  0  0
   40.2300   24.9237   35.1830 H   0  0  0  0  0  0  0  0  0  0  0  0
   36.5869   24.4866   37.3597 H   0  0  0  0  0  0  0  0  0  0  0  0
   38.5255   21.0845   35.6818 H   0  0  0  0  0  0  0  0  0  0  0  0
   35.2040   28.6105   34.5479 H   0  0  0  0  0  0  0  0  0  0  0  0
   36.4735   31.2686   30.0270 H   0  0  0  0  0  0  0  0  0  0  0  0
   37.3456   31.8256   27.7061 H   0  0  0  0  0  0  0  0  0  0  0  0
   39.9945   25.8394   27.0709 H   0  0  0  0  0  0  0  0  0  0  0  0
   37.1160   24.8264   34.2949 H   0  0  0  0  0  0  0  0  0  0  0  0
  1  4  1  0
  3  2  1  0
  4  3  1  0
  4  2  1  0
  5  6  2  0
  6  2  1  0
  6  7  1  0
  8  7  2  0
  9  8  1  0
 10  5  1  0
 10  9  2  0
 11 12  2  0
 11  1  1  0
 13 12  1  0
 14 15  2  0
 14 13  1  0
 15 11  1  0
 16 14  1  0
 17 16  2  0
 18 17  1  0
 19 20  1  0
 19 18  2  0
 20 21  2  0
 21 16  1  0
 22 24  1  0
 22 20  1  0
 23 22  2  0
 25  1  1  0
  1 26  1  1
  2 27  1  1
  3 28  1  0
  3 29  1  0
  4 30  1  1
  5 31  1  0
  7 32  1  0
  9 33  1  0
 12 34  1  0
 17 35  1  0
 18 36  1  0
 24 37  1  0
 25 38  1  0
M  ISO  8  26   8  27  13  28  13  29  13  30  13  31  14  32  14  33  14
M  ISO  5  34  14  35  14  36  14  37   3  38   3
M  END
>  <minimizedAffinity>  (1) 
-5.41876698

>  <minimizedRMSD>  (1) 
0.799573779

$$$$
