
     RDKit          3D

 38 41  0  0  1  0  0  0  0  0999 V2000
   37.1230   26.6470   34.1140 C   0  0  1  0  0  0  0  0  0  0  0  0
   38.3600   26.3940   36.4300 C   0  0  1  0  0  0  0  0  0  0  0  0
   39.1820   27.2580   35.6570 C   0  0  0  0  0  0  0  0  0  0  0  0
   37.7550   27.2580   35.3310 C   0  0  1  0  0  0  0  0  0  0  0  0
   39.4540   24.3320   35.5960 C   0  0  0  0  0  0  0  0  0  0  0  0
   38.3840   24.9360   36.2600 C   0  0  0  0  0  0  0  0  0  0  0  0
   37.4120   24.0860   36.7130 C   0  0  0  0  0  0  0  0  0  0  0  0
   37.5360   22.7350   36.5000 N   0  0  0  0  0  0  0  0  0  0  0  0
   38.5890   22.1920   35.8530 C   0  0  0  0  0  0  0  0  0  0  0  0
   39.5700   23.0090   35.3910 N   0  0  0  0  0  0  0  0  0  0  0  0
   36.8380   27.7200   33.0630 C   0  0  0  0  0  0  0  0  0  0  0  0
   35.8120   28.5190   33.3920 C   0  0  0  0  0  0  0  0  0  0  0  0
   35.7150   29.6760   31.8710 S   0  0  0  0  0  0  0  0  0  0  0  0
   37.1610   28.7690   31.0950 C   0  0  0  0  0  0  0  0  0  0  0  0
   37.4030   27.9570   31.9130 N   0  0  0  0  0  0  0  0  0  0  0  0
   37.6060   29.2390   29.7840 C   0  0  0  0  0  0  0  0  0  0  0  0
   37.2600   30.4460   29.2540 C   0  0  0  0  0  0  0  0  0  0  0  0
   37.7790   30.7310   27.9960 C   0  0  0  0  0  0  0  0  0  0  0  0
   38.5680   29.8290   27.3890 N   0  0  0  0  0  0  0  0  0  0  0  0
   38.9070   28.6430   27.9070 C   0  0  0  0  0  0  0  0  0  0  0  0
   38.3890   28.3810   29.1430 N   0  0  0  0  0  0  0  0  0  0  0  0
   39.7830   27.6700   27.2040 C   0  0  0  0  0  0  0  0  0  0  0  0
   37.2060   25.5120   33.5150 O   0  0  0  0  0  0  0  0  0  0  0  0
   36.4753   26.1570   34.8559 H   0  0  0  0  0  0  0  0  0  0  0  0
   38.2055   26.2517   37.5098 H   0  0  0  0  0  0  0  0  0  0  0  0
   39.6271   28.1455   36.1306 H   0  0  0  0  0  0  0  0  0  0  0  0
   40.0929   27.1003   35.0609 H   0  0  0  0  0  0  0  0  0  0  0  0
   36.9902   28.0413   35.2236 H   0  0  0  0  0  0  0  0  0  0  0  0
   40.2552   24.9826   35.2155 H   0  0  0  0  0  0  0  0  0  0  0  0
   36.5352   24.4831   37.2454 H   0  0  0  0  0  0  0  0  0  0  0  0
   38.6513   21.1041   35.7024 H   0  0  0  0  0  0  0  0  0  0  0  0
   35.1894   28.5112   34.2988 H   0  0  0  0  0  0  0  0  0  0  0  0
   36.6089   31.1526   29.7896 H   0  0  0  0  0  0  0  0  0  0  0  0
   37.5458   31.6860   27.5025 H   0  0  0  0  0  0  0  0  0  0  0  0
   40.3274   27.0653   27.9442 H   0  0  0  0  0  0  0  0  0  0  0  0
   39.1675   27.0113   26.5737 H   0  0  0  0  0  0  0  0  0  0  0  0
   40.5025   28.2132   26.5737 H   0  0  0  0  0  0  0  0  0  0  0  0
   37.2590   24.7872   34.1873 H   0  0  0  0  0  0  0  0  0  0  0  0
  1  4  1  0
  3  2  1  0
  4  3  1  0
  4  2  1  0
  5  6  2  0
  6  2  1  0
  6  7  1  0
  8  7  2  0
  9  8  1  0
 10  5  1  0
 10  9  2  0
 11 12  2  0
 11  1  1  0
 13 12  1  0
 14 13  1  0
 14 15  2  0
 15 11  1  0
 16 14  1  0
 17 16  2  0
 18 17  1  0
 19 20  1  0
 19 18  2  0
 20 21  2  0
 21 16  1  0
 22 20  1  0
 23  1  1  0
  1 24  1  1
  2 25  1  1
  3 26  1  0
  3 27  1  0
  4 28  1  1
  5 29  1  0
  7 30  1  0
  9 31  1  0
 12 32  1  0
 17 33  1  0
 18 34  1  0
 22 35  1  0
 22 36  1  0
 22 37  1  0
 23 38  1  0
M  ISO  8  24   8  25  13  26  13  27  13  28  13  29  14  30  14  31  14
M  ISO  7  32  14  33  14  34  14  35   8  36   8  37   8  38   3
M  END
>  <minimizedAffinity>  (1) 
-5.24414349

>  <minimizedRMSD>  (1) 
0.551807523

$$$$
