
     RDKit          3D

 44 47  0  0  1  0  0  0  0  0999 V2000
   37.0840   26.6840   34.2170 C   0  0  1  0  0  0  0  0  0  0  0  0
   38.4010   26.3680   36.4840 C   0  0  1  0  0  0  0  0  0  0  0  0
   39.2060   27.2390   35.7000 C   0  0  0  0  0  0  0  0  0  0  0  0
   37.7660   27.2580   35.4200 C   0  0  1  0  0  0  0  0  0  0  0  0
   39.4360   24.3050   35.5820 C   0  0  0  0  0  0  0  0  0  0  0  0
   38.3890   24.9240   36.2930 C   0  0  0  0  0  0  0  0  0  0  0  0
   37.4210   24.0720   36.7530 C   0  0  0  0  0  0  0  0  0  0  0  0
   37.5050   22.7240   36.5170 N   0  0  0  0  0  0  0  0  0  0  0  0
   38.5360   22.1740   35.8260 C   0  0  0  0  0  0  0  0  0  0  0  0
   39.5200   22.9810   35.3490 N   0  0  0  0  0  0  0  0  0  0  0  0
   36.7980   27.7770   33.1880 C   0  0  0  0  0  0  0  0  0  0  0  0
   35.8140   28.6070   33.5670 C   0  0  0  0  0  0  0  0  0  0  0  0
   35.7080   29.7920   32.0670 S   0  0  0  0  0  0  0  0  0  0  0  0
   37.0910   28.8500   31.2220 C   0  0  0  0  0  0  0  0  0  0  0  0
   37.3240   28.0180   32.0270 N   0  0  0  0  0  0  0  0  0  0  0  0
   37.5060   29.3220   29.9050 C   0  0  0  0  0  0  0  0  0  0  0  0
   37.1440   30.5140   29.3860 C   0  0  0  0  0  0  0  0  0  0  0  0
   37.6300   30.8090   28.1110 C   0  0  0  0  0  0  0  0  0  0  0  0
   38.4110   29.9180   27.4830 N   0  0  0  0  0  0  0  0  0  0  0  0
   38.7690   28.7350   28.0030 C   0  0  0  0  0  0  0  0  0  0  0  0
   38.2790   28.4720   29.2550 N   0  0  0  0  0  0  0  0  0  0  0  0
   39.6380   27.7400   27.3110 C   0  0  0  0  0  0  0  0  0  0  0  0
   40.4490   28.4370   26.2370 C   0  0  0  0  0  0  0  0  0  0  0  0
   40.5850   27.0350   28.2510 C   0  0  0  0  0  0  0  0  0  0  0  0
   37.1250   25.5540   33.6010 O   0  0  0  0  0  0  0  0  0  0  0  0
   36.4368   26.2074   34.9680 H   0  0  0  0  0  0  0  0  0  0  0  0
   38.2898   26.2074   37.5665 H   0  0  0  0  0  0  0  0  0  0  0  0
   39.6747   28.1136   36.1748 H   0  0  0  0  0  0  0  0  0  0  0  0
   40.0955   27.0841   35.0717 H   0  0  0  0  0  0  0  0  0  0  0  0
   37.0050   28.0493   35.3515 H   0  0  0  0  0  0  0  0  0  0  0  0
   40.2393   24.9464   35.1906 H   0  0  0  0  0  0  0  0  0  0  0  0
   36.5667   24.4733   37.3180 H   0  0  0  0  0  0  0  0  0  0  0  0
   38.5745   21.0882   35.6542 H   0  0  0  0  0  0  0  0  0  0  0  0
   35.2237   28.6066   34.4952 H   0  0  0  0  0  0  0  0  0  0  0  0
   36.5007   31.2152   29.9378 H   0  0  0  0  0  0  0  0  0  0  0  0
   37.3748   31.7629   27.6263 H   0  0  0  0  0  0  0  0  0  0  0  0
   38.9711   26.9811   26.8760 H   0  0  0  0  0  0  0  0  0  0  0  0
   41.2026   29.0846   26.7089 H   0  0  0  0  0  0  0  0  0  0  0  0
   40.9519   27.6850   25.6113 H   0  0  0  0  0  0  0  0  0  0  0  0
   39.7811   29.0473   25.6113 H   0  0  0  0  0  0  0  0  0  0  0  0
   40.2969   27.2495   29.2907 H   0  0  0  0  0  0  0  0  0  0  0  0
   40.5378   25.9504   28.0737 H   0  0  0  0  0  0  0  0  0  0  0  0
   41.6105   27.3913   28.0737 H   0  0  0  0  0  0  0  0  0  0  0  0
   37.1517   24.8182   34.2628 H   0  0  0  0  0  0  0  0  0  0  0  0
  1  4  1  0
  3  2  1  0
  4  3  1  0
  4  2  1  0
  5  6  2  0
  6  2  1  0
  6  7  1  0
  8  7  2  0
  9  8  1  0
 10  5  1  0
 10  9  2  0
 11 12  2  0
 11  1  1  0
 13 12  1  0
 14 15  2  0
 14 13  1  0
 15 11  1  0
 16 14  1  0
 17 16  2  0
 18 17  1  0
 19 20  1  0
 19 18  2  0
 20 21  2  0
 21 16  1  0
 22 20  1  0
 22 24  1  0
 23 22  1  0
 25  1  1  0
  1 26  1  1
  2 27  1  1
  3 28  1  0
  3 29  1  0
  4 30  1  1
  5 31  1  0
  7 32  1  0
  9 33  1  0
 12 34  1  0
 17 35  1  0
 18 36  1  0
 22 37  1  0
 23 38  1  0
 23 39  1  0
 23 40  1  0
 24 41  1  0
 24 42  1  0
 24 43  1  0
 25 44  1  0
M  ISO  8  26   8  27  13  28  13  29  13  30  13  31  14  32  14  33  14
M  ISO  8  34  14  35  14  36  14  37   8  38   8  39   8  40   8  41   8
M  ISO  3  42   8  43   8  44   3
M  END
>  <minimizedAffinity>  (1) 
-5.21785593

>  <minimizedRMSD>  (1) 
0.710605741

$$$$
