
     RDKit          3D

 26 28  0  0  0  0  0  0  0  0999 V2000
   38.1770   24.3420   34.7470 C   0  0  0  0  0  0  0  0  0  0  0  0
   38.5090   23.4090   33.8200 N   0  0  0  0  0  0  0  0  0  0  0  0
   38.3870   23.6220   32.5080 C   0  0  0  0  0  0  0  0  0  0  0  0
   37.9270   24.7740   31.9940 N   0  0  0  0  0  0  0  0  0  0  0  0
   37.5730   25.7590   32.8540 C   0  0  0  0  0  0  0  0  0  0  0  0
   37.1000   26.9440   32.3350 C   0  0  0  0  0  0  0  0  0  0  0  0
   36.7280   27.9740   33.1700 C   0  0  0  0  0  0  0  0  0  0  0  0
   36.8570   27.7480   34.5440 C   0  0  0  0  0  0  0  0  0  0  0  0
   37.3360   26.5430   35.0040 C   0  0  0  0  0  0  0  0  0  0  0  0
   37.7090   25.5090   34.1890 C   0  0  0  0  0  0  0  0  0  0  0  0
   37.9640   24.2830   38.4980 C   0  0  0  0  0  0  0  0  0  0  0  0
   38.9370   23.3280   38.7860 C   0  0  0  0  0  0  0  0  0  0  0  0
   39.5970   22.7680   37.7110 C   0  0  0  0  0  0  0  0  0  0  0  0
   39.2460   23.1930   36.4810 N   0  0  0  0  0  0  0  0  0  0  0  0
   38.3090   24.1120   36.2020 C   0  0  0  0  0  0  0  0  0  0  0  0
   37.6880   24.6370   37.2470 N   0  0  0  0  0  0  0  0  0  0  0  0
   40.6300   21.7710   37.7710 N   0  0  0  0  0  0  0  0  0  0  0  0
   38.6765   22.8171   31.8163 H   0  0  0  0  0  0  0  0  0  0  0  0
   37.0188   27.0686   31.2451 H   0  0  0  0  0  0  0  0  0  0  0  0
   36.3480   28.9279   32.7755 H   0  0  0  0  0  0  0  0  0  0  0  0
   36.5749   28.5353   35.2586 H   0  0  0  0  0  0  0  0  0  0  0  0
   37.4244   26.4025   36.0914 H   0  0  0  0  0  0  0  0  0  0  0  0
   37.4120   24.7544   39.3245 H   0  0  0  0  0  0  0  0  0  0  0  0
   39.1680   23.0345   39.8206 H   0  0  0  0  0  0  0  0  0  0  0  0
   41.0579   21.4198   36.9024 H   0  0  0  0  0  0  0  0  0  0  0  0
   40.9426   21.4075   38.6826 H   0  0  0  0  0  0  0  0  0  0  0  0
  1 15  1  0
  2  1  2  0
  3  2  1  0
  4  3  2  0
  4  5  1  0
  5 10  2  0
  6  5  1  0
  6  7  2  0
  7  8  1  0
  8  9  2  0
 10  1  1  0
 10  9  1  0
 11 12  2  0
 13 17  1  0
 13 12  1  0
 14 13  2  0
 15 14  1  0
 15 16  2  0
 16 11  1  0
  3 18  1  0
  6 19  1  0
  7 20  1  0
  8 21  1  0
  9 22  1  0
 11 23  1  0
 12 24  1  0
 17 25  1  0
 17 26  1  0
M  ISO  7  18  14  19  14  20  14  21  14  22  14  23  14  24  14
M  END
>  <minimizedAffinity>  (1) 
-5.62103987

>  <minimizedRMSD>  (1) 
2.65792441

$$$$
