
     RDKit          3D

 22 23  0  0  0  0  0  0  0  0999 V2000
   41.1580   22.8480   36.3260 C   0  0  0  0  0  0  0  0  0  0  0  0
   40.6020   22.5150   37.5770 C   0  0  0  0  0  0  0  0  0  0  0  0
   39.3180   22.9910   37.8500 C   0  0  0  0  0  0  0  0  0  0  0  0
   38.6560   23.7400   36.9290 N   0  0  0  0  0  0  0  0  0  0  0  0
   39.2350   24.0400   35.7230 C   0  0  0  0  0  0  0  0  0  0  0  0
   40.4670   23.5930   35.4440 N   0  0  0  0  0  0  0  0  0  0  0  0
   38.6050   22.7530   39.0590 N   0  0  0  0  0  0  0  0  0  0  0  0
   38.4630   24.8310   34.8220 N   0  0  0  0  0  0  0  0  0  0  0  0
   38.1860   24.5090   33.5440 C   0  0  0  0  0  0  0  0  0  0  0  0
   37.4200   25.3600   32.7540 C   0  0  0  0  0  0  0  0  0  0  0  0
   36.9990   26.5080   33.3930 C   0  0  0  0  0  0  0  0  0  0  0  0
   36.2960   27.3060   32.6960 O   0  0  0  0  0  0  0  0  0  0  0  0
   37.2660   26.8450   34.6690 N   0  0  0  0  0  0  0  0  0  0  0  0
   38.0090   25.9880   35.3850 C   0  0  0  0  0  0  0  0  0  0  0  0
   38.2460   26.3240   36.5750 O   0  0  0  0  0  0  0  0  0  0  0  0
   42.1674   22.4953   36.0677 H   0  0  0  0  0  0  0  0  0  0  0  0
   41.1555   21.9063   38.3071 H   0  0  0  0  0  0  0  0  0  0  0  0
   37.6587   23.1402   39.1836 H   0  0  0  0  0  0  0  0  0  0  0  0
   39.0354   22.1936   39.8091 H   0  0  0  0  0  0  0  0  0  0  0  0
   38.5677   23.5675   33.1223 H   0  0  0  0  0  0  0  0  0  0  0  0
   37.1705   25.1361   31.7063 H   0  0  0  0  0  0  0  0  0  0  0  0
   36.9149   27.7229   35.0776 H   0  0  0  0  0  0  0  0  0  0  0  0
  1  2  2  0
  2  3  1  0
  3  7  1  0
  4  3  2  0
  5  4  1  0
  6  5  2  0
  6  1  1  0
  8 14  1  0
  8  5  1  0
  9  8  1  0
 10 11  1  0
 10  9  2  0
 11 13  1  0
 12 11  2  0
 13 14  1  0
 14 15  2  0
  1 16  1  0
  2 17  1  0
  7 18  1  0
  7 19  1  0
  9 20  1  0
 10 21  1  0
 13 22  1  0
M  ISO  5  16  14  17  14  20  14  21  14  22   9
M  END
>  <minimizedAffinity>  (1) 
-4.90633249

>  <minimizedRMSD>  (1) 
2.9065454

$$$$
