
     RDKit          3D

 23 24  0  0  0  0  0  0  0  0999 V2000
   41.2210   22.8550   36.3680 C   0  0  0  0  0  0  0  0  0  0  0  0
   40.4950   22.4050   37.4740 C   0  0  0  0  0  0  0  0  0  0  0  0
   39.2610   23.0180   37.7500 C   0  0  0  0  0  0  0  0  0  0  0  0
   38.8390   24.0170   36.9230 N   0  0  0  0  0  0  0  0  0  0  0  0
   39.5760   24.4200   35.8640 C   0  0  0  0  0  0  0  0  0  0  0  0
   40.7470   23.8520   35.5870 N   0  0  0  0  0  0  0  0  0  0  0  0
   38.3890   22.6990   38.8210 N   0  0  0  0  0  0  0  0  0  0  0  0
   39.0590   25.4720   35.0520 N   0  0  0  0  0  0  0  0  0  0  0  0
   38.2240   25.2540   33.9180 C   0  0  0  0  0  0  0  0  0  0  0  0
   37.1400   26.2500   33.7130 C   0  0  0  0  0  0  0  0  0  0  0  0
   37.2150   27.4090   34.4040 O   0  0  0  0  0  0  0  0  0  0  0  0
   37.9800   27.4860   35.5170 C   0  0  0  0  0  0  0  0  0  0  0  0
   39.3640   26.8590   35.3440 C   0  0  0  0  0  0  0  0  0  0  0  0
   42.1902   22.3924   36.1297 H   0  0  0  0  0  0  0  0  0  0  0  0
   40.8786   21.5940   38.1105 H   0  0  0  0  0  0  0  0  0  0  0  0
   37.5031   23.2121   38.9341 H   0  0  0  0  0  0  0  0  0  0  0  0
   38.6413   21.9541   39.4861 H   0  0  0  0  0  0  0  0  0  0  0  0
   38.3723   24.4026   33.2375 H   0  0  0  0  0  0  0  0  0  0  0  0
   36.3064   26.0509   33.0234 H   0  0  0  0  0  0  0  0  0  0  0  0
   38.1075   28.5464   35.7804 H   0  0  0  0  0  0  0  0  0  0  0  0
   37.4632   26.9219   36.3074 H   0  0  0  0  0  0  0  0  0  0  0  0
   39.9565   26.9478   36.2665 H   0  0  0  0  0  0  0  0  0  0  0  0
   39.9654   27.3448   34.5615 H   0  0  0  0  0  0  0  0  0  0  0  0
  1  2  2  0
  2  3  1  0
  3  7  1  0
  4  3  2  0
  5  4  1  0
  6  5  2  0
  6  1  1  0
  8 13  1  0
  8  5  1  0
  9  8  1  0
 10  9  2  0
 10 11  1  0
 11 12  1  0
 13 12  1  0
  1 14  1  0
  2 15  1  0
  7 16  1  0
  7 17  1  0
  9 18  1  0
 10 19  1  0
 12 20  1  0
 12 21  1  0
 13 22  1  0
 13 23  1  0
M  ISO  8  14  14  15  14  18  13  19  13  20  13  21  13  22  13  23  13
M  END
>  <minimizedAffinity>  (1) 
-4.45045137

>  <minimizedRMSD>  (1) 
3.31187868

$$$$
