
     RDKit          3D

 27 28  0  0  0  0  0  0  0  0999 V2000
   40.7330   22.4950   35.6330 C   0  0  0  0  0  0  0  0  0  0  0  0
   40.3100   22.1210   36.9270 C   0  0  0  0  0  0  0  0  0  0  0  0
   39.4070   22.9470   37.5740 C   0  0  0  0  0  0  0  0  0  0  0  0
   38.9590   24.0780   36.9610 N   0  0  0  0  0  0  0  0  0  0  0  0
   39.3940   24.4060   35.7030 C   0  0  0  0  0  0  0  0  0  0  0  0
   40.2610   23.6250   35.0660 N   0  0  0  0  0  0  0  0  0  0  0  0
   38.8730   22.7250   38.8810 N   0  0  0  0  0  0  0  0  0  0  0  0
   38.8560   25.6200   35.1530 N   0  0  0  0  0  0  0  0  0  0  0  0
   38.9960   25.8680   33.7470 C   0  0  0  0  0  0  0  0  0  0  0  0
   37.8340   26.5980   33.1250 C   0  0  0  0  0  0  0  0  0  0  0  0
   36.9660   27.2860   34.1480 C   0  0  0  0  0  0  0  0  0  0  0  0
   37.8230   27.7560   35.3200 C   0  0  0  0  0  0  0  0  0  0  0  0
   38.2020   26.5100   36.0930 C   0  0  0  0  0  0  0  0  0  0  0  0
   41.4488   21.8640   35.0858 H   0  0  0  0  0  0  0  0  0  0  0  0
   40.6853   21.2041   37.4050 H   0  0  0  0  0  0  0  0  0  0  0  0
   38.2036   23.3958   39.2846 H   0  0  0  0  0  0  0  0  0  0  0  0
   39.1576   21.8943   39.4193 H   0  0  0  0  0  0  0  0  0  0  0  0
   39.9033   26.4705   33.5926 H   0  0  0  0  0  0  0  0  0  0  0  0
   39.0465   24.8839   33.2581 H   0  0  0  0  0  0  0  0  0  0  0  0
   38.2253   27.3547   32.4290 H   0  0  0  0  0  0  0  0  0  0  0  0
   37.2117   25.8533   32.6072 H   0  0  0  0  0  0  0  0  0  0  0  0
   36.4732   28.1535   33.6848 H   0  0  0  0  0  0  0  0  0  0  0  0
   36.2059   26.5799   34.5137 H   0  0  0  0  0  0  0  0  0  0  0  0
   38.7257   28.2657   34.9520 H   0  0  0  0  0  0  0  0  0  0  0  0
   37.2777   28.4706   35.9540 H   0  0  0  0  0  0  0  0  0  0  0  0
   37.3017   26.0310   36.5053 H   0  0  0  0  0  0  0  0  0  0  0  0
   38.8661   26.7534   36.9355 H   0  0  0  0  0  0  0  0  0  0  0  0
  1  2  2  0
  2  3  1  0
  3  7  1  0
  4  3  2  0
  5  4  1  0
  6  1  1  0
  6  5  2  0
  8  5  1  0
  8 13  1  0
  9  8  1  0
 10  9  1  0
 10 11  1  0
 11 12  1  0
 12 13  1  0
  1 14  1  0
  2 15  1  0
  7 16  1  0
  7 17  1  0
  9 18  1  0
  9 19  1  0
 10 20  1  0
 10 21  1  0
 11 22  1  0
 11 23  1  0
 12 24  1  0
 12 25  1  0
 13 26  1  0
 13 27  1  0
M  ISO  8  14  14  15  14  18  13  19  13  20  13  21  13  22  13  23  13
M  ISO  4  24  13  25  13  26  13  27  13
M  END
>  <minimizedAffinity>  (1) 
-4.43308115

>  <minimizedRMSD>  (1) 
3.63221383

$$$$
