
     RDKit          3D

 19 19  0  0  0  0  0  0  0  0999 V2000
   40.0810   22.2240   36.8450 C   0  0  0  0  0  0  0  0  0  0  0  0
   39.7340   23.0910   37.8870 C   0  0  0  0  0  0  0  0  0  0  0  0
   38.4200   23.5410   37.9330 C   0  0  0  0  0  0  0  0  0  0  0  0
   37.5380   23.1210   36.9720 N   0  0  0  0  0  0  0  0  0  0  0  0
   37.9130   22.2810   35.9820 C   0  0  0  0  0  0  0  0  0  0  0  0
   39.1790   21.8450   35.9320 N   0  0  0  0  0  0  0  0  0  0  0  0
   37.8710   24.4210   38.9030 N   0  0  0  0  0  0  0  0  0  0  0  0
   36.9730   21.8590   34.9940 N   0  0  0  0  0  0  0  0  0  0  0  0
   35.9830   20.8910   35.3200 C   0  0  0  0  0  0  0  0  0  0  0  0
   35.5720   20.7800   36.5390 N   0  0  0  0  0  0  0  0  0  0  0  0
   35.4360   20.0390   34.3070 N   0  0  0  0  0  0  0  0  0  0  0  0
   34.8410   20.0770   36.8180 H   0  0  0  0  0  0  0  0  0  0  0  0
   41.1123   21.8477   36.7752 H   0  0  0  0  0  0  0  0  0  0  0  0
   40.4722   23.4040   38.6400 H   0  0  0  0  0  0  0  0  0  0  0  0
   36.8796   24.6948   38.8475 H   0  0  0  0  0  0  0  0  0  0  0  0
   38.4642   24.7854   39.6621 H   0  0  0  0  0  0  0  0  0  0  0  0
   37.0117   22.2558   34.0443 H   0  0  0  0  0  0  0  0  0  0  0  0
   34.7195   19.3410   34.5528 H   0  0  0  0  0  0  0  0  0  0  0  0
   35.7591   20.1242   33.3327 H   0  0  0  0  0  0  0  0  0  0  0  0
  1  2  2  0
  2  3  1  0
  3  7  1  0
  4  3  2  0
  5  4  1  0
  6  5  2  0
  6  1  1  0
  8  9  1  0
  8  5  1  0
  9 10  2  0
 10 12  1  0
 11  9  1  0
  1 13  1  0
  2 14  1  0
  7 15  1  0
  7 16  1  0
  8 17  1  0
 11 18  1  0
 11 19  1  0
M  ISO  2  13  14  14  14
M  END
>  <minimizedAffinity>  (1) 
-4.31486893

>  <minimizedRMSD>  (1) 
0.648567379

$$$$
