
     RDKit          3D

 19 20  0  0  0  0  0  0  0  0999 V2000
   40.6170   23.2070   35.9660 C   0  0  0  0  0  0  0  0  0  0  0  0
   40.1570   22.6110   37.1450 C   0  0  0  0  0  0  0  0  0  0  0  0
   39.0270   23.1340   37.7500 C   0  0  0  0  0  0  0  0  0  0  0  0
   38.3990   24.2160   37.1760 N   0  0  0  0  0  0  0  0  0  0  0  0
   38.8840   24.7670   36.0250 C   0  0  0  0  0  0  0  0  0  0  0  0
   39.9670   24.2690   35.4420 N   0  0  0  0  0  0  0  0  0  0  0  0
   38.4060   22.6760   38.9400 N   0  0  0  0  0  0  0  0  0  0  0  0
   38.2010   25.9120   35.4400 C   0  0  0  0  0  0  0  0  0  0  0  0
   37.5430   25.9440   34.2120 C   0  0  0  0  0  0  0  0  0  0  0  0
   37.0240   27.2160   34.0190 C   0  0  0  0  0  0  0  0  0  0  0  0
   37.4090   27.9030   35.1750 C   0  0  0  0  0  0  0  0  0  0  0  0
   38.0810   27.0930   35.9470 O   0  0  0  0  0  0  0  0  0  0  0  0
   41.5113   22.8095   35.4637 H   0  0  0  0  0  0  0  0  0  0  0  0
   40.6806   21.7474   37.5809 H   0  0  0  0  0  0  0  0  0  0  0  0
   37.5631   23.1490   39.2960 H   0  0  0  0  0  0  0  0  0  0  0  0
   38.7979   21.8704   39.4483 H   0  0  0  0  0  0  0  0  0  0  0  0
   37.4505   25.1006   33.5119 H   0  0  0  0  0  0  0  0  0  0  0  0
   36.4475   27.5940   33.1618 H   0  0  0  0  0  0  0  0  0  0  0  0
   37.1820   28.9561   35.3976 H   0  0  0  0  0  0  0  0  0  0  0  0
  1  2  2  0
  2  3  1  0
  3  7  1  0
  4  3  2  0
  5  4  1  0
  6  1  1  0
  6  5  2  0
  8 12  1  0
  8  5  1  0
  9  8  2  0
 10  9  1  0
 10 11  2  0
 11 12  1  0
  1 13  1  0
  2 14  1  0
  7 15  1  0
  7 16  1  0
  9 17  1  0
 10 18  1  0
 11 19  1  0
M  ISO  5  13  14  14  14  17  14  18  14  19  14
M  END
>  <minimizedAffinity>  (1) 
-3.99126792

>  <minimizedRMSD>  (1) 
3.42298126

$$$$
