
     RDKit          3D

 19 20  0  0  0  0  0  0  0  0999 V2000
   40.7370   23.1800   36.1220 C   0  0  0  0  0  0  0  0  0  0  0  0
   40.1840   22.6010   37.2670 C   0  0  0  0  0  0  0  0  0  0  0  0
   38.9870   23.1440   37.7630 C   0  0  0  0  0  0  0  0  0  0  0  0
   38.4180   24.2020   37.1150 N   0  0  0  0  0  0  0  0  0  0  0  0
   39.0000   24.7310   35.9990 C   0  0  0  0  0  0  0  0  0  0  0  0
   40.1340   24.2290   35.5150 N   0  0  0  0  0  0  0  0  0  0  0  0
   38.2840   22.6930   38.9060 N   0  0  0  0  0  0  0  0  0  0  0  0
   38.3340   25.8950   35.3240 C   0  0  0  0  0  0  0  0  0  0  0  0
   38.5520   27.2310   36.0090 C   0  0  0  0  0  0  0  0  0  0  0  0
   39.1510   26.9510   34.6880 C   0  0  0  0  0  0  0  0  0  0  0  0
   41.6740   22.7785   35.7087 H   0  0  0  0  0  0  0  0  0  0  0  0
   40.6698   21.7482   37.7637 H   0  0  0  0  0  0  0  0  0  0  0  0
   37.4107   23.1590   39.1906 H   0  0  0  0  0  0  0  0  0  0  0  0
   38.6458   21.8988   39.4530 H   0  0  0  0  0  0  0  0  0  0  0  0
   37.4873   25.2863   34.9740 H   0  0  0  0  0  0  0  0  0  0  0  0
   37.7223   27.9477   36.0985 H   0  0  0  0  0  0  0  0  0  0  0  0
   38.9335   27.5553   36.9884 H   0  0  0  0  0  0  0  0  0  0  0  0
   40.2395   26.8192   34.6000 H   0  0  0  0  0  0  0  0  0  0  0  0
   39.1262   27.4567   33.7114 H   0  0  0  0  0  0  0  0  0  0  0  0
  1  2  2  0
  2  3  1  0
  3  7  1  0
  4  3  2  0
  5  4  1  0
  6  5  2  0
  6  1  1  0
  8  5  1  0
  8  9  1  0
 10  8  1  0
 10  9  1  0
  1 11  1  0
  2 12  1  0
  7 13  1  0
  7 14  1  0
  8 15  1  0
  9 16  1  0
  9 17  1  0
 10 18  1  0
 10 19  1  0
M  ISO  7  11  14  12  14  15  13  16  13  17  13  18  13  19  13
M  END
>  <minimizedAffinity>  (1) 
-3.92970753

>  <minimizedRMSD>  (1) 
2.69065213

$$$$
