
     RDKit          3D

 19 20  0  0  0  0  0  0  0  0999 V2000
   38.2320   23.8280   38.4420 C   0  0  0  0  0  0  0  0  0  0  0  0
   37.7310   24.5270   37.3390 C   0  0  0  0  0  0  0  0  0  0  0  0
   38.3710   24.3570   36.1210 C   0  0  0  0  0  0  0  0  0  0  0  0
   39.4460   23.5280   36.0430 N   0  0  0  0  0  0  0  0  0  0  0  0
   39.9040   22.8650   37.1360 C   0  0  0  0  0  0  0  0  0  0  0  0
   39.3090   23.0110   38.3160 N   0  0  0  0  0  0  0  0  0  0  0  0
   38.0100   24.9800   34.8950 N   0  0  0  0  0  0  0  0  0  0  0  0
   41.0630   21.9870   37.0010 C   0  0  0  0  0  0  0  0  0  0  0  0
   41.9350   21.9350   35.9480 C   0  0  0  0  0  0  0  0  0  0  0  0
   42.8490   20.9860   36.2390 N   0  0  0  0  0  0  0  0  0  0  0  0
   42.5930   20.4400   37.4220 C   0  0  0  0  0  0  0  0  0  0  0  0
   41.4980   21.0630   37.8750 N   0  0  0  0  0  0  0  0  0  0  0  0
   37.7477   23.9415   39.4231 H   0  0  0  0  0  0  0  0  0  0  0  0
   36.8582   25.1896   37.4347 H   0  0  0  0  0  0  0  0  0  0  0  0
   38.5518   24.7875   34.0404 H   0  0  0  0  0  0  0  0  0  0  0  0
   37.2067   25.6238   34.8614 H   0  0  0  0  0  0  0  0  0  0  0  0
   41.8980   22.5502   35.0369 H   0  0  0  0  0  0  0  0  0  0  0  0
   43.1612   19.6432   37.9243 H   0  0  0  0  0  0  0  0  0  0  0  0
   41.0464   20.8601   38.7782 H   0  0  0  0  0  0  0  0  0  0  0  0
  2  1  2  0
  3  2  1  0
  4  3  2  0
  4  5  1  0
  5  6  2  0
  6  1  1  0
  7  3  1  0
  8  5  1  0
  8 12  1  0
  9 10  1  0
  9  8  2  0
 10 11  2  0
 11 12  1  0
  1 13  1  0
  2 14  1  0
  7 15  1  0
  7 16  1  0
  9 17  1  0
 11 18  1  0
 12 19  1  0
M  ISO  5  13  14  14  14  17  14  18  14  19   9
M  END
>  <minimizedAffinity>  (1) 
-3.88612199

>  <minimizedRMSD>  (1) 
4.84161758

$$$$
