
     RDKit          3D

 26 27  0  0  0  0  0  0  0  0999 V2000
   40.2580   22.1600   36.7470 C   0  0  0  0  0  0  0  0  0  0  0  0
   39.7250   22.8830   37.8380 C   0  0  0  0  0  0  0  0  0  0  0  0
   38.5360   23.5660   37.6450 C   0  0  0  0  0  0  0  0  0  0  0  0
   37.9310   23.5170   36.4270 N   0  0  0  0  0  0  0  0  0  0  0  0
   38.4680   22.8120   35.3910 C   0  0  0  0  0  0  0  0  0  0  0  0
   39.6170   22.1490   35.5680 N   0  0  0  0  0  0  0  0  0  0  0  0
   37.8620   24.3420   38.6390 N   0  0  0  0  0  0  0  0  0  0  0  0
   37.7930   22.7920   34.1250 N   0  0  0  0  0  0  0  0  0  0  0  0
   37.0890   21.6030   33.7630 C   0  0  0  0  0  0  0  0  0  0  0  0
   37.3260   21.3250   32.2940 C   0  0  0  0  0  0  0  0  0  0  0  0
   36.8650   22.5050   31.5740 N   0  0  0  0  0  0  0  0  0  0  0  0
   37.7200   23.6300   31.8150 C   0  0  0  0  0  0  0  0  0  0  0  0
   37.8430   23.9420   33.2790 C   0  0  0  0  0  0  0  0  0  0  0  0
   41.2004   21.6050   36.8644 H   0  0  0  0  0  0  0  0  0  0  0  0
   40.2388   22.9026   38.8105 H   0  0  0  0  0  0  0  0  0  0  0  0
   36.9786   24.8188   38.4086 H   0  0  0  0  0  0  0  0  0  0  0  0
   38.2599   24.4242   39.5855 H   0  0  0  0  0  0  0  0  0  0  0  0
   37.4570   20.7580   34.3634 H   0  0  0  0  0  0  0  0  0  0  0  0
   36.0129   21.7337   33.9502 H   0  0  0  0  0  0  0  0  0  0  0  0
   38.3969   21.1585   32.1060 H   0  0  0  0  0  0  0  0  0  0  0  0
   36.7893   20.4223   31.9666 H   0  0  0  0  0  0  0  0  0  0  0  0
   35.9107   22.7362   31.8851 H   0  0  0  0  0  0  0  0  0  0  0  0
   38.7201   23.4079   31.4143 H   0  0  0  0  0  0  0  0  0  0  0  0
   37.2766   24.5054   31.3179 H   0  0  0  0  0  0  0  0  0  0  0  0
   38.8038   24.4514   33.4444 H   0  0  0  0  0  0  0  0  0  0  0  0
   36.9793   24.5695   33.5440 H   0  0  0  0  0  0  0  0  0  0  0  0
  1  2  2  0
  3  2  1  0
  3  7  1  0
  4  3  2  0
  5  6  2  0
  5  4  1  0
  6  1  1  0
  8  5  1  0
  9  8  1  0
 10  9  1  0
 11 12  1  0
 11 10  1  0
 12 13  1  0
 13  8  1  0
  1 14  1  0
  2 15  1  0
  7 16  1  0
  7 17  1  0
  9 18  1  0
  9 19  1  0
 10 20  1  0
 10 21  1  0
 11 22  1  0
 12 23  1  0
 12 24  1  0
 13 25  1  0
 13 26  1  0
M  ISO  8  14  14  15  14  18  13  19  13  20  13  21  13  22   5  23  13
M  ISO  3  24  13  25  13  26  13
M  END
>  <minimizedAffinity>  (1) 
-3.82830906

>  <minimizedRMSD>  (1) 
0.830894172

$$$$
