
     RDKit          3D

 18 19  0  0  0  0  0  0  0  0999 V2000
   41.3410   22.9030   36.4780 C   0  0  0  0  0  0  0  0  0  0  0  0
   40.6250   22.5090   37.6200 C   0  0  0  0  0  0  0  0  0  0  0  0
   39.3300   22.9780   37.7850 C   0  0  0  0  0  0  0  0  0  0  0  0
   38.8140   23.7990   36.8310 N   0  0  0  0  0  0  0  0  0  0  0  0
   39.5280   24.1650   35.7360 C   0  0  0  0  0  0  0  0  0  0  0  0
   40.7730   23.7210   35.5650 N   0  0  0  0  0  0  0  0  0  0  0  0
   38.4750   22.6810   38.8710 N   0  0  0  0  0  0  0  0  0  0  0  0
   38.9470   25.0500   34.7250 C   0  0  0  0  0  0  0  0  0  0  0  0
   39.5820   26.2900   34.5070 C   0  0  0  0  0  0  0  0  0  0  0  0
   38.4950   27.0390   33.1590 S   0  0  0  0  0  0  0  0  0  0  0  0
   37.3970   25.4920   33.1750 C   0  0  0  0  0  0  0  0  0  0  0  0
   37.8900   24.8650   33.9610 N   0  0  0  0  0  0  0  0  0  0  0  0
   42.3695   22.5438   36.3260 H   0  0  0  0  0  0  0  0  0  0  0  0
   41.0811   21.8430   38.3673 H   0  0  0  0  0  0  0  0  0  0  0  0
   37.5259   23.0798   38.9032 H   0  0  0  0  0  0  0  0  0  0  0  0
   38.8012   22.0658   39.6300 H   0  0  0  0  0  0  0  0  0  0  0  0
   40.4747   26.7095   34.9939 H   0  0  0  0  0  0  0  0  0  0  0  0
   36.5065   25.2687   32.5690 H   0  0  0  0  0  0  0  0  0  0  0  0
  1  2  2  0
  2  3  1  0
  3  7  1  0
  4  3  2  0
  5  4  1  0
  6  5  2  0
  6  1  1  0
  8  5  1  0
  9  8  2  0
 10 11  1  0
 10  9  1  0
 11 12  2  0
 12  8  1  0
  1 13  1  0
  2 14  1  0
  7 15  1  0
  7 16  1  0
  9 17  1  0
 11 18  1  0
M  ISO  4  13  14  14  14  17  14  18  14
M  END
>  <minimizedAffinity>  (1) 
-3.75634503

>  <minimizedRMSD>  (1) 
2.9730618

$$$$
