
     RDKit          3D

 13 13  0  0  0  0  0  0  0  0999 V2000
   40.2510   22.2120   37.0420 C   0  0  0  0  0  0  0  0  0  0  0  0
   39.7780   23.0560   38.0520 C   0  0  0  0  0  0  0  0  0  0  0  0
   38.4840   23.5570   37.9260 C   0  0  0  0  0  0  0  0  0  0  0  0
   37.7340   23.2130   36.8390 N   0  0  0  0  0  0  0  0  0  0  0  0
   38.2410   22.3830   35.8760 C   0  0  0  0  0  0  0  0  0  0  0  0
   39.4880   21.8940   35.9870 N   0  0  0  0  0  0  0  0  0  0  0  0
   37.8470   24.4220   38.8510 N   0  0  0  0  0  0  0  0  0  0  0  0
   37.4990   22.0160   34.7580 O   0  0  0  0  0  0  0  0  0  0  0  0
   41.2688   21.8013   37.1149 H   0  0  0  0  0  0  0  0  0  0  0  0
   40.4064   23.3155   38.9167 H   0  0  0  0  0  0  0  0  0  0  0  0
   36.8843   24.7440   38.6763 H   0  0  0  0  0  0  0  0  0  0  0  0
   38.3468   24.7285   39.6978 H   0  0  0  0  0  0  0  0  0  0  0  0
   36.5767   22.3567   34.6424 H   0  0  0  0  0  0  0  0  0  0  0  0
  1  2  2  0
  3  2  1  0
  3  7  1  0
  4  3  2  0
  5  6  2  0
  5  4  1  0
  6  1  1  0
  8  5  1  0
  1  9  1  0
  2 10  1  0
  7 11  1  0
  7 12  1  0
  8 13  1  0
M  ISO  3   9  14  10  14  13   3
M  END
>  <minimizedAffinity>  (1) 
-2.88765168

>  <minimizedRMSD>  (1) 
0.334411353

$$$$
