
     RDKit          3D

 19 20  0  0  0  0  0  0  0  0999 V2000
   42.8550   22.7640   35.8840 C   0  0  0  0  0  0  0  0  0  0  0  0
   43.2910   21.5360   36.3910 C   0  0  0  0  0  0  0  0  0  0  0  0
   42.4300   20.8560   37.2670 C   0  0  0  0  0  0  0  0  0  0  0  0
   41.2310   21.4180   37.5800 N   0  0  0  0  0  0  0  0  0  0  0  0
   40.8420   22.6110   37.0700 C   0  0  0  0  0  0  0  0  0  0  0  0
   41.6610   23.2750   36.2250 N   0  0  0  0  0  0  0  0  0  0  0  0
   42.7000   19.6060   37.8760 N   0  0  0  0  0  0  0  0  0  0  0  0
   39.5390   23.1500   37.4520 C   0  0  0  0  0  0  0  0  0  0  0  0
   38.6690   23.6190   36.4820 C   0  0  0  0  0  0  0  0  0  0  0  0
   37.5090   24.0720   37.1200 C   0  0  0  0  0  0  0  0  0  0  0  0
   37.7240   23.8600   38.4520 N   0  0  0  0  0  0  0  0  0  0  0  0
   38.9210   23.3150   38.6590 N   0  0  0  0  0  0  0  0  0  0  0  0
   43.5028   23.3224   35.1922 H   0  0  0  0  0  0  0  0  0  0  0  0
   44.2705   21.1189   36.1143 H   0  0  0  0  0  0  0  0  0  0  0  0
   42.0067   19.1804   38.5077 H   0  0  0  0  0  0  0  0  0  0  0  0
   43.5897   19.1226   37.6871 H   0  0  0  0  0  0  0  0  0  0  0  0
   38.8572   23.6330   35.3983 H   0  0  0  0  0  0  0  0  0  0  0  0
   36.6147   24.5062   36.6492 H   0  0  0  0  0  0  0  0  0  0  0  0
   37.0506   24.0908   39.1964 H   0  0  0  0  0  0  0  0  0  0  0  0
  1  6  2  0
  1  2  1  0
  2  3  2  0
  3  4  1  0
  3  7  1  0
  5  8  1  0
  5  4  2  0
  6  5  1  0
  8 12  2  0
  9 10  2  0
  9  8  1  0
 10 11  1  0
 11 12  1  0
  1 13  1  0
  2 14  1  0
  7 15  1  0
  7 16  1  0
  9 17  1  0
 10 18  1  0
 11 19  1  0
M  ISO  5  13  14  14  14  17  14  18  14  19   9
M  END
>  <minimizedAffinity>  (1) 
-4.05266142

>  <minimizedRMSD>  (1) 
4.54317427

$$$$
