
     RDKit          3D

 32 34  0  0  0  0  0  0  0  0999 V2000
   43.3260   24.2160   36.3260 C   0  0  0  0  0  0  0  0  0  0  0  0
   43.0590   24.7970   35.1040 C   0  0  0  0  0  0  0  0  0  0  0  0
   41.7590   24.4710   34.7360 C   0  0  0  0  0  0  0  0  0  0  0  0
   41.2800   23.7010   35.7510 N   0  0  0  0  0  0  0  0  0  0  0  0
   42.2050   23.5410   36.7050 N   0  0  0  0  0  0  0  0  0  0  0  0
   45.9940   25.3800   38.5890 C   0  0  0  0  0  0  0  0  0  0  0  0
   47.1210   24.6860   38.1100 C   0  0  0  0  0  0  0  0  0  0  0  0
   46.9360   23.8340   37.0190 C   0  0  0  0  0  0  0  0  0  0  0  0
   45.6920   23.7190   36.4830 N   0  0  0  0  0  0  0  0  0  0  0  0
   44.6270   24.3940   36.9580 C   0  0  0  0  0  0  0  0  0  0  0  0
   44.7890   25.2290   38.0200 N   0  0  0  0  0  0  0  0  0  0  0  0
   47.9530   23.0700   36.4210 N   0  0  0  0  0  0  0  0  0  0  0  0
   37.3980   22.0420   35.5540 C   0  0  0  0  0  0  0  0  0  0  0  0
   37.7760   22.7390   36.6800 C   0  0  0  0  0  0  0  0  0  0  0  0
   39.0440   23.2980   36.7800 C   0  0  0  0  0  0  0  0  0  0  0  0
   39.9600   23.1640   35.7410 C   0  0  0  0  0  0  0  0  0  0  0  0
   39.5040   22.4520   34.6480 C   0  0  0  0  0  0  0  0  0  0  0  0
   38.2600   21.8740   34.4890 C   0  0  0  0  0  0  0  0  0  0  0  0
   35.7940   21.3500   35.4610 S   0  0  0  0  0  0  0  0  0  0  0  0
   35.4330   20.7720   36.8140 O   0  0  0  0  0  0  0  0  0  0  0  0
   35.7660   20.1950   34.4800 O   0  0  0  0  0  0  0  0  0  0  0  0
   43.7570   25.4142   34.5193 H   0  0  0  0  0  0  0  0  0  0  0  0
   41.2299   24.7713   33.8196 H   0  0  0  0  0  0  0  0  0  0  0  0
   46.1038   26.0596   39.4470 H   0  0  0  0  0  0  0  0  0  0  0  0
   48.1092   24.8099   38.5769 H   0  0  0  0  0  0  0  0  0  0  0  0
   47.7365   22.4635   35.6171 H   0  0  0  0  0  0  0  0  0  0  0  0
   48.9148   23.1166   36.7867 H   0  0  0  0  0  0  0  0  0  0  0  0
   37.0647   22.8547   37.5111 H   0  0  0  0  0  0  0  0  0  0  0  0
   39.3262   23.8511   37.6880 H   0  0  0  0  0  0  0  0  0  0  0  0
   40.2096   22.3325   33.8126 H   0  0  0  0  0  0  0  0  0  0  0  0
   37.9770   21.3209   33.5813 H   0  0  0  0  0  0  0  0  0  0  0  0
   34.9257   22.3340   35.0677 H   0  0  0  0  0  0  0  0  0  0  0  0
  1  5  2  0
  1 10  1  0
  2  1  1  0
  3  2  2  0
  3  4  1  0
  4  5  1  0
  7  6  2  0
  8  7  1  0
  9 10  1  0
  9  8  2  0
 10 11  2  0
 11  6  1  0
 12  8  1  0
 13 14  2  0
 14 15  1  0
 16  4  1  0
 16 15  2  0
 17 16  1  0
 18 17  2  0
 18 13  1  0
 19 13  1  0
 19 20  2  0
 21 19  2  0
  2 22  1  0
  3 23  1  0
  6 24  1  0
  7 25  1  0
 12 26  1  0
 12 27  1  0
 14 28  1  0
 15 29  1  0
 17 30  1  0
 18 31  1  0
 19 32  1  0
M  ISO  8  22  14  23  14  24  14  25  14  28  14  29  14  30  14  31  14
M  ISO  1  32  11
M  END
>  <minimizedAffinity>  (1) 
-4.39202118

>  <minimizedRMSD>  (1) 
6.00183439

$$$$
