
     RDKit          3D

 26 28  0  0  0  0  0  0  0  0999 V2000
   42.2660   21.1530   36.3920 C   0  0  0  0  0  0  0  0  0  0  0  0
   41.8430   21.5620   35.1410 C   0  0  0  0  0  0  0  0  0  0  0  0
   40.6780   22.3320   35.3030 C   0  0  0  0  0  0  0  0  0  0  0  0
   40.4570   22.3490   36.6400 N   0  0  0  0  0  0  0  0  0  0  0  0
   41.3860   21.6580   37.2910 N   0  0  0  0  0  0  0  0  0  0  0  0
   45.7460   19.9560   36.1230 C   0  0  0  0  0  0  0  0  0  0  0  0
   45.6950   18.7280   36.8050 C   0  0  0  0  0  0  0  0  0  0  0  0
   44.4660   18.3430   37.3400 C   0  0  0  0  0  0  0  0  0  0  0  0
   43.3790   19.1530   37.1880 N   0  0  0  0  0  0  0  0  0  0  0  0
   43.4640   20.3330   36.5220 C   0  0  0  0  0  0  0  0  0  0  0  0
   44.6530   20.7210   35.9950 N   0  0  0  0  0  0  0  0  0  0  0  0
   44.2400   17.1490   38.0500 N   0  0  0  0  0  0  0  0  0  0  0  0
   39.3440   23.0480   37.1850 C   0  0  0  0  0  0  0  0  0  0  0  0
   39.0320   23.2920   38.5180 C   0  0  0  0  0  0  0  0  0  0  0  0
   37.8530   24.0050   38.4580 C   0  0  0  0  0  0  0  0  0  0  0  0
   37.5000   24.1630   37.1160 C   0  0  0  0  0  0  0  0  0  0  0  0
   38.4420   23.5620   36.4020 O   0  0  0  0  0  0  0  0  0  0  0  0
   42.3329   21.3259   34.1848 H   0  0  0  0  0  0  0  0  0  0  0  0
   40.0779   22.8145   34.5175 H   0  0  0  0  0  0  0  0  0  0  0  0
   46.6978   20.2944   35.6876 H   0  0  0  0  0  0  0  0  0  0  0  0
   46.5888   18.0959   36.9124 H   0  0  0  0  0  0  0  0  0  0  0  0
   43.3004   16.9365   38.4145 H   0  0  0  0  0  0  0  0  0  0  0  0
   45.0142   16.4877   38.2052 H   0  0  0  0  0  0  0  0  0  0  0  0
   39.5949   22.9871   39.4126 H   0  0  0  0  0  0  0  0  0  0  0  0
   37.2866   24.3849   39.3210 H   0  0  0  0  0  0  0  0  0  0  0  0
   36.6131   24.6845   36.7270 H   0  0  0  0  0  0  0  0  0  0  0  0
  1 10  1  0
  1  5  2  0
  2  3  2  0
  2  1  1  0
  3  4  1  0
  4 13  1  0
  4  5  1  0
  6  7  2  0
  7  8  1  0
  8 12  1  0
  9  8  2  0
 10  9  1  0
 11  6  1  0
 11 10  2  0
 13 14  2  0
 15 14  1  0
 16 15  2  0
 17 16  1  0
 17 13  1  0
  2 18  1  0
  3 19  1  0
  6 20  1  0
  7 21  1  0
 12 22  1  0
 12 23  1  0
 14 24  1  0
 15 25  1  0
 16 26  1  0
M  ISO  7  18  14  19  14  20  14  21  14  24  14  25  14  26  14
M  END
>  <minimizedAffinity>  (1) 
-4.21274137

>  <minimizedRMSD>  (1) 
3.65779757

$$$$
