
     RDKit          3D

 29 31  0  0  0  0  0  0  0  0999 V2000
   42.1760   21.8710   35.5100 C   0  0  0  0  0  0  0  0  0  0  0  0
   41.7760   21.8750   34.1770 C   0  0  0  0  0  0  0  0  0  0  0  0
   40.8930   22.9510   34.0090 C   0  0  0  0  0  0  0  0  0  0  0  0
   40.7970   23.5430   35.2250 N   0  0  0  0  0  0  0  0  0  0  0  0
   41.5510   22.9130   36.1200 N   0  0  0  0  0  0  0  0  0  0  0  0
   39.9700   24.6860   35.4150 C   0  0  0  0  0  0  0  0  0  0  0  0
   40.3300   25.9480   34.9430 C   0  0  0  0  0  0  0  0  0  0  0  0
   39.5030   27.0340   35.1450 C   0  0  0  0  0  0  0  0  0  0  0  0
   38.2910   26.9230   35.8190 C   0  0  0  0  0  0  0  0  0  0  0  0
   37.9720   25.6440   36.2740 C   0  0  0  0  0  0  0  0  0  0  0  0
   38.7700   24.5340   36.0920 C   0  0  0  0  0  0  0  0  0  0  0  0
   45.2890   20.0280   36.2240 C   0  0  0  0  0  0  0  0  0  0  0  0
   44.8360   18.9180   36.9270 C   0  0  0  0  0  0  0  0  0  0  0  0
   43.4630   18.8200   37.1470 C   0  0  0  0  0  0  0  0  0  0  0  0
   42.6280   19.7880   36.6770 N   0  0  0  0  0  0  0  0  0  0  0  0
   43.1020   20.8590   35.9930 C   0  0  0  0  0  0  0  0  0  0  0  0
   44.4380   20.9640   35.7760 N   0  0  0  0  0  0  0  0  0  0  0  0
   42.8130   17.7620   37.8430 N   0  0  0  0  0  0  0  0  0  0  0  0
   42.0939   21.1652   33.3991 H   0  0  0  0  0  0  0  0  0  0  0  0
   40.3833   23.2526   33.0820 H   0  0  0  0  0  0  0  0  0  0  0  0
   41.2807   26.0787   34.4054 H   0  0  0  0  0  0  0  0  0  0  0  0
   39.8115   28.0177   34.7613 H   0  0  0  0  0  0  0  0  0  0  0  0
   37.6289   27.7861   35.9820 H   0  0  0  0  0  0  0  0  0  0  0  0
   37.0223   25.5119   36.8130 H   0  0  0  0  0  0  0  0  0  0  0  0
   38.4612   23.5503   36.4754 H   0  0  0  0  0  0  0  0  0  0  0  0
   46.3660   20.1415   36.0311 H   0  0  0  0  0  0  0  0  0  0  0  0
   45.5316   18.1491   37.2943 H   0  0  0  0  0  0  0  0  0  0  0  0
   41.7895   17.7733   37.9576 H   0  0  0  0  0  0  0  0  0  0  0  0
   43.3662   16.9851   38.2320 H   0  0  0  0  0  0  0  0  0  0  0  0
  1 16  1  0
  1  5  2  0
  2  1  1  0
  3  2  2  0
  3  4  1  0
  4  6  1  0
  4  5  1  0
  6 11  2  0
  7  8  2  0
  7  6  1  0
  8  9  1  0
  9 10  2  0
 11 10  1  0
 12 13  2  0
 13 14  1  0
 14 18  1  0
 15 14  2  0
 16 15  1  0
 17 16  2  0
 17 12  1  0
  2 19  1  0
  3 20  1  0
  7 21  1  0
  8 22  1  0
  9 23  1  0
 10 24  1  0
 11 25  1  0
 12 26  1  0
 13 27  1  0
 18 28  1  0
 18 29  1  0
M  ISO  8  19  14  20  14  21  14  22  14  23  14  24  14  25  14  26  14
M  ISO  1  27  14
M  END
>  <minimizedAffinity>  (1) 
-4.19310999

>  <minimizedRMSD>  (1) 
4.59961176

$$$$
