
     RDKit          3D

 27 29  0  0  0  0  0  0  0  0999 V2000
   40.3190   22.8610   36.3180 C   0  0  0  0  0  0  0  0  0  0  0  0
   39.3990   22.9450   37.3610 C   0  0  0  0  0  0  0  0  0  0  0  0
   38.5470   24.0250   37.0640 C   0  0  0  0  0  0  0  0  0  0  0  0
   38.9830   24.5390   35.8710 N   0  0  0  0  0  0  0  0  0  0  0  0
   40.0300   23.8480   35.4340 N   0  0  0  0  0  0  0  0  0  0  0  0
   42.6760   20.2860   37.5120 C   0  0  0  0  0  0  0  0  0  0  0  0
   43.2960   19.8670   36.3330 C   0  0  0  0  0  0  0  0  0  0  0  0
   42.8890   20.4820   35.1410 C   0  0  0  0  0  0  0  0  0  0  0  0
   41.9280   21.4380   35.1980 N   0  0  0  0  0  0  0  0  0  0  0  0
   41.3410   21.8290   36.3420 C   0  0  0  0  0  0  0  0  0  0  0  0
   41.7300   21.2380   37.5050 N   0  0  0  0  0  0  0  0  0  0  0  0
   43.4020   20.1870   33.8620 N   0  0  0  0  0  0  0  0  0  0  0  0
   38.3130   25.6430   35.3130 C   0  0  0  0  0  0  0  0  0  0  0  0
   38.2560   26.8970   35.9290 C   0  0  0  0  0  0  0  0  0  0  0  0
   37.5930   27.9640   35.3610 C   0  0  0  0  0  0  0  0  0  0  0  0
   36.9900   27.7640   34.1740 N   0  0  0  0  0  0  0  0  0  0  0  0
   37.0250   26.5550   33.5450 C   0  0  0  0  0  0  0  0  0  0  0  0
   37.6760   25.5380   34.1200 N   0  0  0  0  0  0  0  0  0  0  0  0
   39.3484   22.2931   38.2456 H   0  0  0  0  0  0  0  0  0  0  0  0
   37.7010   24.3844   37.6682 H   0  0  0  0  0  0  0  0  0  0  0  0
   42.9693   19.8258   38.4671 H   0  0  0  0  0  0  0  0  0  0  0  0
   44.0714   19.0868   36.3394 H   0  0  0  0  0  0  0  0  0  0  0  0
   44.1337   19.4703   33.7533 H   0  0  0  0  0  0  0  0  0  0  0  0
   43.0452   20.6881   33.0359 H   0  0  0  0  0  0  0  0  0  0  0  0
   38.7565   27.0367   36.8985 H   0  0  0  0  0  0  0  0  0  0  0  0
   37.5579   28.9438   35.8598 H   0  0  0  0  0  0  0  0  0  0  0  0
   36.5235   26.4175   32.5756 H   0  0  0  0  0  0  0  0  0  0  0  0
  1 10  1  0
  1  2  1  0
  3  2  2  0
  4  3  1  0
  5  4  1  0
  5  1  2  0
  7  6  2  0
  8  9  2  0
  8  7  1  0
  9 10  1  0
 10 11  2  0
 11  6  1  0
 12  8  1  0
 13  4  1  0
 13 14  2  0
 15 14  1  0
 16 15  2  0
 17 18  2  0
 17 16  1  0
 18 13  1  0
  2 19  1  0
  3 20  1  0
  6 21  1  0
  7 22  1  0
 12 23  1  0
 12 24  1  0
 14 25  1  0
 15 26  1  0
 17 27  1  0
M  ISO  7  19  14  20  14  21  14  22  14  25  14  26  14  27  14
M  END
>  <minimizedAffinity>  (1) 
-4.17848301

>  <minimizedRMSD>  (1) 
4.25663185

$$$$
