
     RDKit          3D

 31 32  0  0  0  0  0  0  0  0999 V2000
   45.0280   20.7760   35.9230 C   0  0  0  0  0  0  0  0  0  0  0  0
   44.9240   19.5080   36.5260 C   0  0  0  0  0  0  0  0  0  0  0  0
   43.6880   19.1540   37.0650 C   0  0  0  0  0  0  0  0  0  0  0  0
   42.6640   20.0340   36.9830 N   0  0  0  0  0  0  0  0  0  0  0  0
   42.7830   21.2420   36.4030 C   0  0  0  0  0  0  0  0  0  0  0  0
   43.9720   21.5990   35.8760 N   0  0  0  0  0  0  0  0  0  0  0  0
   41.6290   22.1390   36.3530 C   0  0  0  0  0  0  0  0  0  0  0  0
   41.5830   23.1720   35.4480 C   0  0  0  0  0  0  0  0  0  0  0  0
   40.3660   23.8540   35.6360 C   0  0  0  0  0  0  0  0  0  0  0  0
   39.7390   23.1960   36.6480 N   0  0  0  0  0  0  0  0  0  0  0  0
   40.4720   22.1710   37.0900 N   0  0  0  0  0  0  0  0  0  0  0  0
   38.4480   23.5760   37.1580 C   0  0  0  0  0  0  0  0  0  0  0  0
   38.4530   23.5590   38.6660 C   0  0  0  0  0  0  0  0  0  0  0  0
   37.3990   22.6340   36.6280 C   0  0  0  0  0  0  0  0  0  0  0  0
   38.1420   25.0110   36.7360 C   0  0  0  0  0  0  0  0  0  0  0  0
   43.4020   17.9200   37.7080 N   0  0  0  0  0  0  0  0  0  0  0  0
   45.9861   21.0941   35.4860 H   0  0  0  0  0  0  0  0  0  0  0  0
   45.7841   18.8236   36.5701 H   0  0  0  0  0  0  0  0  0  0  0  0
   42.3585   23.4214   34.7088 H   0  0  0  0  0  0  0  0  0  0  0  0
   40.0002   24.7315   35.0827 H   0  0  0  0  0  0  0  0  0  0  0  0
   38.1616   24.5497   39.0448 H   0  0  0  0  0  0  0  0  0  0  0  0
   37.7389   22.8040   39.0266 H   0  0  0  0  0  0  0  0  0  0  0  0
   39.4622   23.3109   39.0266 H   0  0  0  0  0  0  0  0  0  0  0  0
   36.8721   22.1609   37.4697 H   0  0  0  0  0  0  0  0  0  0  0  0
   36.6793   23.1948   36.0136 H   0  0  0  0  0  0  0  0  0  0  0  0
   37.8795   21.8583   36.0136 H   0  0  0  0  0  0  0  0  0  0  0  0
   38.0087   25.6360   37.6313 H   0  0  0  0  0  0  0  0  0  0  0  0
   38.9768   25.4028   36.1363 H   0  0  0  0  0  0  0  0  0  0  0  0
   37.2200   25.0281   36.1363 H   0  0  0  0  0  0  0  0  0  0  0  0
   42.4584   17.7393   38.0792 H   0  0  0  0  0  0  0  0  0  0  0  0
   44.1383   17.2060   37.8030 H   0  0  0  0  0  0  0  0  0  0  0  0
  1  2  2  0
  2  3  1  0
  3 16  1  0
  4  3  2  0
  5  4  1  0
  6  1  1  0
  6  5  2  0
  7  5  1  0
  7 11  2  0
  8  9  2  0
  8  7  1  0
  9 10  1  0
 10 11  1  0
 10 12  1  0
 12 13  1  0
 14 12  1  0
 15 12  1  0
  1 17  1  0
  2 18  1  0
  8 19  1  0
  9 20  1  0
 13 21  1  0
 13 22  1  0
 13 23  1  0
 14 24  1  0
 14 25  1  0
 14 26  1  0
 15 27  1  0
 15 28  1  0
 15 29  1  0
 16 30  1  0
 16 31  1  0
M  ISO  8  17  14  18  14  19  14  20  14  21   8  22   8  23   8  24   8
M  ISO  5  25   8  26   8  27   8  28   8  29   8
M  END
>  <minimizedAffinity>  (1) 
-3.99221206

>  <minimizedRMSD>  (1) 
2.76948762

$$$$
