
     RDKit          3D

 28 29  0  0  0  0  0  0  0  0999 V2000
   44.8470   21.2520   35.7930 C   0  0  0  0  0  0  0  0  0  0  0  0
   44.9730   19.9790   36.3320 C   0  0  0  0  0  0  0  0  0  0  0  0
   43.8540   19.4480   37.0120 C   0  0  0  0  0  0  0  0  0  0  0  0
   42.7300   20.2060   37.1000 N   0  0  0  0  0  0  0  0  0  0  0  0
   42.6480   21.4470   36.5590 C   0  0  0  0  0  0  0  0  0  0  0  0
   43.7090   21.9530   35.9130 N   0  0  0  0  0  0  0  0  0  0  0  0
   41.4040   22.1860   36.7030 C   0  0  0  0  0  0  0  0  0  0  0  0
   41.0740   23.1660   35.7770 C   0  0  0  0  0  0  0  0  0  0  0  0
   39.8310   23.7080   36.1620 C   0  0  0  0  0  0  0  0  0  0  0  0
   39.4680   23.0330   37.2960 N   0  0  0  0  0  0  0  0  0  0  0  0
   40.3850   22.1370   37.6200 N   0  0  0  0  0  0  0  0  0  0  0  0
   38.2690   23.2170   38.0810 C   0  0  0  0  0  0  0  0  0  0  0  0
   37.0640   22.9240   37.1810 C   0  0  0  0  0  0  0  0  0  0  0  0
   38.1920   24.6370   38.5920 C   0  0  0  0  0  0  0  0  0  0  0  0
   43.7940   18.1700   37.6250 N   0  0  0  0  0  0  0  0  0  0  0  0
   45.6983   21.6957   35.2560 H   0  0  0  0  0  0  0  0  0  0  0  0
   45.9070   19.4063   36.2336 H   0  0  0  0  0  0  0  0  0  0  0  0
   41.6723   23.4647   34.9036 H   0  0  0  0  0  0  0  0  0  0  0  0
   39.2695   24.5073   35.6562 H   0  0  0  0  0  0  0  0  0  0  0  0
   38.2772   22.5385   38.9467 H   0  0  0  0  0  0  0  0  0  0  0  0
   36.1838   22.7100   37.8050 H   0  0  0  0  0  0  0  0  0  0  0  0
   36.8594   23.7986   36.5460 H   0  0  0  0  0  0  0  0  0  0  0  0
   37.2838   22.0531   36.5460 H   0  0  0  0  0  0  0  0  0  0  0  0
   38.1923   24.6314   39.6920 H   0  0  0  0  0  0  0  0  0  0  0  0
   39.0606   25.2053   38.2280 H   0  0  0  0  0  0  0  0  0  0  0  0
   37.2670   25.1080   38.2280 H   0  0  0  0  0  0  0  0  0  0  0  0
   42.9319   17.8667   38.1001 H   0  0  0  0  0  0  0  0  0  0  0  0
   44.6125   17.5455   37.5950 H   0  0  0  0  0  0  0  0  0  0  0  0
  1  6  2  0
  1  2  1  0
  2  3  2  0
  3  4  1  0
  3 15  1  0
  5  7  1  0
  5  4  2  0
  6  5  1  0
  7 11  2  0
  8  9  2  0
  8  7  1  0
  9 10  1  0
 10 11  1  0
 10 12  1  0
 12 14  1  0
 13 12  1  0
  1 16  1  0
  2 17  1  0
  8 18  1  0
  9 19  1  0
 12 20  1  0
 13 21  1  0
 13 22  1  0
 13 23  1  0
 14 24  1  0
 14 25  1  0
 14 26  1  0
 15 27  1  0
 15 28  1  0
M  ISO  8  16  14  17  14  18  14  19  14  20   8  21   8  22   8  23   8
M  ISO  3  24   8  25   8  26   8
M  END
>  <minimizedAffinity>  (1) 
-3.71225572

>  <minimizedRMSD>  (1) 
2.29579377

$$$$
