
     RDKit          3D

 25 26  0  0  0  0  0  0  0  0999 V2000
   42.9870   23.6160   35.7120 C   0  0  0  0  0  0  0  0  0  0  0  0
   42.6040   22.6400   36.6490 C   0  0  0  0  0  0  0  0  0  0  0  0
   41.2430   22.5230   36.9330 C   0  0  0  0  0  0  0  0  0  0  0  0
   40.3630   23.3500   36.2980 N   0  0  0  0  0  0  0  0  0  0  0  0
   40.7550   24.2770   35.4050 C   0  0  0  0  0  0  0  0  0  0  0  0
   42.0780   24.3950   35.1250 N   0  0  0  0  0  0  0  0  0  0  0  0
   39.7490   25.1240   34.7680 C   0  0  0  0  0  0  0  0  0  0  0  0
   39.7710   26.4850   34.9650 C   0  0  0  0  0  0  0  0  0  0  0  0
   38.7210   27.0630   34.2600 C   0  0  0  0  0  0  0  0  0  0  0  0
   38.0960   26.0090   33.6540 N   0  0  0  0  0  0  0  0  0  0  0  0
   38.7020   24.8580   33.9530 N   0  0  0  0  0  0  0  0  0  0  0  0
   36.9350   26.2080   32.8140 C   0  0  0  0  0  0  0  0  0  0  0  0
   37.3040   26.3030   31.3590 C   0  0  0  0  0  0  0  0  0  0  0  0
   40.6740   21.6000   37.8450 N   0  0  0  0  0  0  0  0  0  0  0  0
   44.0507   23.7384   35.4599 H   0  0  0  0  0  0  0  0  0  0  0  0
   43.3479   21.9944   37.1387 H   0  0  0  0  0  0  0  0  0  0  0  0
   40.5019   27.0290   35.5813 H   0  0  0  0  0  0  0  0  0  0  0  0
   38.4535   28.1285   34.2028 H   0  0  0  0  0  0  0  0  0  0  0  0
   36.2472   25.3607   32.9517 H   0  0  0  0  0  0  0  0  0  0  0  0
   36.4607   27.1561   33.1076 H   0  0  0  0  0  0  0  0  0  0  0  0
   38.3655   26.5763   31.2670 H   0  0  0  0  0  0  0  0  0  0  0  0
   37.1321   25.3313   30.8729 H   0  0  0  0  0  0  0  0  0  0  0  0
   36.6842   27.0709   30.8729 H   0  0  0  0  0  0  0  0  0  0  0  0
   39.6548   21.5838   37.9928 H   0  0  0  0  0  0  0  0  0  0  0  0
   41.2796   20.9452   38.3602 H   0  0  0  0  0  0  0  0  0  0  0  0
  1  2  2  0
  2  3  1  0
  3 14  1  0
  4  3  2  0
  5  4  1  0
  6  5  2  0
  6  1  1  0
  7  8  1  0
  7  5  1  0
  9  8  2  0
 10 11  1  0
 10  9  1  0
 11  7  2  0
 12 10  1  0
 13 12  1  0
  1 15  1  0
  2 16  1  0
  8 17  1  0
  9 18  1  0
 12 19  1  0
 12 20  1  0
 13 21  1  0
 13 22  1  0
 13 23  1  0
 14 24  1  0
 14 25  1  0
M  ISO  8  15  14  16  14  17  14  18  14  19   8  20   8  21   8  22   8
M  ISO  1  23   8
M  END
>  <minimizedAffinity>  (1) 
-3.68194818

>  <minimizedRMSD>  (1) 
4.31861687

$$$$
