
     RDKit          3D

 22 23  0  0  0  0  0  0  0  0999 V2000
   43.9810   21.6740   35.7360 C   0  0  0  0  0  0  0  0  0  0  0  0
   44.1220   20.4120   36.2980 C   0  0  0  0  0  0  0  0  0  0  0  0
   43.0520   19.9150   37.0740 C   0  0  0  0  0  0  0  0  0  0  0  0
   41.9400   20.6880   37.2390 N   0  0  0  0  0  0  0  0  0  0  0  0
   41.8440   21.9250   36.6680 C   0  0  0  0  0  0  0  0  0  0  0  0
   42.8690   22.3860   35.9300 N   0  0  0  0  0  0  0  0  0  0  0  0
   40.6260   22.6960   36.8840 C   0  0  0  0  0  0  0  0  0  0  0  0
   40.0780   23.4100   35.8200 C   0  0  0  0  0  0  0  0  0  0  0  0
   38.9230   24.0510   36.3130 C   0  0  0  0  0  0  0  0  0  0  0  0
   38.8330   23.7010   37.6230 N   0  0  0  0  0  0  0  0  0  0  0  0
   39.8340   22.9030   37.9640 N   0  0  0  0  0  0  0  0  0  0  0  0
   37.7890   24.1230   38.5670 C   0  0  0  0  0  0  0  0  0  0  0  0
   43.0320   18.6590   37.7120 N   0  0  0  0  0  0  0  0  0  0  0  0
   44.7945   22.0913   35.1244 H   0  0  0  0  0  0  0  0  0  0  0  0
   45.0360   19.8197   36.1440 H   0  0  0  0  0  0  0  0  0  0  0  0
   40.4707   23.4632   34.7939 H   0  0  0  0  0  0  0  0  0  0  0  0
   38.2355   24.7012   35.7521 H   0  0  0  0  0  0  0  0  0  0  0  0
   38.1462   23.9786   39.5973 H   0  0  0  0  0  0  0  0  0  0  0  0
   37.5562   25.1858   38.4052 H   0  0  0  0  0  0  0  0  0  0  0  0
   36.8830   23.5205   38.4052 H   0  0  0  0  0  0  0  0  0  0  0  0
   42.2086   18.3732   38.2608 H   0  0  0  0  0  0  0  0  0  0  0  0
   43.8408   18.0266   37.6296 H   0  0  0  0  0  0  0  0  0  0  0  0
  1  6  2  0
  1  2  1  0
  2  3  2  0
  3  4  1  0
  3 13  1  0
  5  7  1  0
  5  4  2  0
  6  5  1  0
  7 11  2  0
  8  9  2  0
  8  7  1  0
  9 10  1  0
 10 11  1  0
 10 12  1  0
  1 14  1  0
  2 15  1  0
  8 16  1  0
  9 17  1  0
 12 18  1  0
 12 19  1  0
 12 20  1  0
 13 21  1  0
 13 22  1  0
M  ISO  7  14  14  15  14  16  14  17  14  18   8  19   8  20   8
M  END
>  <minimizedAffinity>  (1) 
-3.57067537

>  <minimizedRMSD>  (1) 
1.36168051

$$$$
