
     RDKit          3D

 35 38  0  0  0  0  0  0  0  0999 V2000
   42.1460   21.8250   35.4490 C   0  0  0  0  0  0  0  0  0  0  0  0
   42.2150   22.2140   34.1020 C   0  0  0  0  0  0  0  0  0  0  0  0
   41.1880   23.1640   33.9110 C   0  0  0  0  0  0  0  0  0  0  0  0
   40.5680   23.2950   35.1220 N   0  0  0  0  0  0  0  0  0  0  0  0
   41.1250   22.5070   36.0440 N   0  0  0  0  0  0  0  0  0  0  0  0
   45.2910   20.0600   36.2080 C   0  0  0  0  0  0  0  0  0  0  0  0
   44.8570   18.9550   36.9200 C   0  0  0  0  0  0  0  0  0  0  0  0
   43.4740   18.8240   37.1360 C   0  0  0  0  0  0  0  0  0  0  0  0
   42.6230   19.7730   36.6450 N   0  0  0  0  0  0  0  0  0  0  0  0
   43.0910   20.8430   35.9510 C   0  0  0  0  0  0  0  0  0  0  0  0
   44.4170   20.9520   35.7540 N   0  0  0  0  0  0  0  0  0  0  0  0
   42.8530   17.7620   37.8410 N   0  0  0  0  0  0  0  0  0  0  0  0
   39.4400   24.1780   35.3940 C   0  0  0  0  0  0  0  0  0  0  0  0
   38.4530   23.5100   36.2140 N   0  0  0  0  0  0  0  0  0  0  0  0
   38.1740   23.6240   37.5140 C   0  0  0  0  0  0  0  0  0  0  0  0
   37.1590   22.7850   37.8220 N   0  0  0  0  0  0  0  0  0  0  0  0
   36.7870   22.1250   36.6870 C   0  0  0  0  0  0  0  0  0  0  0  0
   35.8150   21.1720   36.4590 C   0  0  0  0  0  0  0  0  0  0  0  0
   35.7010   20.7110   35.1940 N   0  0  0  0  0  0  0  0  0  0  0  0
   36.4990   21.1540   34.1910 C   0  0  0  0  0  0  0  0  0  0  0  0
   37.4290   22.0820   34.4740 N   0  0  0  0  0  0  0  0  0  0  0  0
   37.6040   22.5890   35.7010 C   0  0  0  0  0  0  0  0  0  0  0  0
   34.9610   20.6840   37.4850 N   0  0  0  0  0  0  0  0  0  0  0  0
   42.9270   21.8512   33.3461 H   0  0  0  0  0  0  0  0  0  0  0  0
   40.9380   23.6909   32.9783 H   0  0  0  0  0  0  0  0  0  0  0  0
   46.3652   20.2004   36.0170 H   0  0  0  0  0  0  0  0  0  0  0  0
   45.5676   18.2075   37.3024 H   0  0  0  0  0  0  0  0  0  0  0  0
   41.8291   17.7465   37.9515 H   0  0  0  0  0  0  0  0  0  0  0  0
   43.4258   17.0060   38.2426 H   0  0  0  0  0  0  0  0  0  0  0  0
   39.8013   25.0732   35.9213 H   0  0  0  0  0  0  0  0  0  0  0  0
   38.9734   24.4598   34.4385 H   0  0  0  0  0  0  0  0  0  0  0  0
   38.6869   24.2926   38.2211 H   0  0  0  0  0  0  0  0  0  0  0  0
   36.3876   20.7627   33.1690 H   0  0  0  0  0  0  0  0  0  0  0  0
   34.2494   19.9719   37.2674 H   0  0  0  0  0  0  0  0  0  0  0  0
   35.0537   21.0425   38.4461 H   0  0  0  0  0  0  0  0  0  0  0  0
  1 10  1  0
  1  5  2  0
  2  1  1  0
  3  2  2  0
  3  4  1  0
  4 13  1  0
  4  5  1  0
  6  7  2  0
  7  8  1  0
  8 12  1  0
  9  8  2  0
 10  9  1  0
 11 10  2  0
 11  6  1  0
 13 14  1  0
 14 15  1  0
 15 16  2  0
 17 16  1  0
 18 17  2  0
 18 23  1  0
 19 18  1  0
 20 21  1  0
 20 19  2  0
 21 22  2  0
 22 14  1  0
 22 17  1  0
  2 24  1  0
  3 25  1  0
  6 26  1  0
  7 27  1  0
 12 28  1  0
 12 29  1  0
 13 30  1  0
 13 31  1  0
 15 32  1  0
 20 33  1  0
 23 34  1  0
 23 35  1  0
M  ISO  8  24  14  25  14  26  14  27  14  30   8  31   8  32  14  33  14
M  END
>  <minimizedAffinity>  (1) 
-5.01373816

>  <minimizedRMSD>  (1) 
2.23916316

$$$$
