
     RDKit          3D

 36 39  0  0  0  0  0  0  0  0999 V2000
   41.2150   22.1550   36.1550 C   0  0  0  0  0  0  0  0  0  0  0  0
   41.2280   23.3780   35.5090 C   0  0  0  0  0  0  0  0  0  0  0  0
   39.9030   23.8760   35.6270 C   0  0  0  0  0  0  0  0  0  0  0  0
   39.1920   22.9600   36.3130 N   0  0  0  0  0  0  0  0  0  0  0  0
   39.9570   21.9260   36.6360 N   0  0  0  0  0  0  0  0  0  0  0  0
   44.7030   21.0590   35.6730 C   0  0  0  0  0  0  0  0  0  0  0  0
   44.7430   19.8640   36.3680 C   0  0  0  0  0  0  0  0  0  0  0  0
   43.5670   19.4260   37.0060 C   0  0  0  0  0  0  0  0  0  0  0  0
   42.4290   20.1950   36.9200 N   0  0  0  0  0  0  0  0  0  0  0  0
   42.4420   21.3600   36.2270 C   0  0  0  0  0  0  0  0  0  0  0  0
   43.5810   21.7690   35.6170 N   0  0  0  0  0  0  0  0  0  0  0  0
   43.4420   18.2430   37.7450 N   0  0  0  0  0  0  0  0  0  0  0  0
   37.7850   23.0810   36.6630 C   0  0  0  0  0  0  0  0  0  0  0  0
   36.9150   22.0760   36.0550 C   0  0  0  0  0  0  0  0  0  0  0  0
   35.9760   21.3140   36.7250 C   0  0  0  0  0  0  0  0  0  0  0  0
   35.3550   20.4920   35.8780 N   0  0  0  0  0  0  0  0  0  0  0  0
   35.8370   20.6620   34.6390 C   0  0  0  0  0  0  0  0  0  0  0  0
   35.6270   20.1470   33.3740 C   0  0  0  0  0  0  0  0  0  0  0  0
   36.3260   20.5610   32.2410 C   0  0  0  0  0  0  0  0  0  0  0  0
   37.2870   21.5450   32.3860 C   0  0  0  0  0  0  0  0  0  0  0  0
   37.5070   22.0720   33.6500 C   0  0  0  0  0  0  0  0  0  0  0  0
   36.7990   21.6390   34.7500 C   0  0  0  0  0  0  0  0  0  0  0  0
   42.0814   23.8613   35.0108 H   0  0  0  0  0  0  0  0  0  0  0  0
   39.5274   24.8314   35.2319 H   0  0  0  0  0  0  0  0  0  0  0  0
   45.6064   21.4245   35.1629 H   0  0  0  0  0  0  0  0  0  0  0  0
   45.6685   19.2719   36.4208 H   0  0  0  0  0  0  0  0  0  0  0  0
   42.5403   18.0000   38.1794 H   0  0  0  0  0  0  0  0  0  0  0  0
   44.2518   17.6159   37.8541 H   0  0  0  0  0  0  0  0  0  0  0  0
   37.6954   22.9955   37.7560 H   0  0  0  0  0  0  0  0  0  0  0  0
   37.4516   24.0552   36.2759 H   0  0  0  0  0  0  0  0  0  0  0  0
   35.7702   21.3768   37.8038 H   0  0  0  0  0  0  0  0  0  0  0  0
   34.6143   19.8250   36.1377 H   0  0  0  0  0  0  0  0  0  0  0  0
   34.8634   19.3644   33.2539 H   0  0  0  0  0  0  0  0  0  0  0  0
   36.1184   20.1162   31.2566 H   0  0  0  0  0  0  0  0  0  0  0  0
   37.8632   21.9013   31.5194 H   0  0  0  0  0  0  0  0  0  0  0  0
   38.2672   22.8568   33.7778 H   0  0  0  0  0  0  0  0  0  0  0  0
  1 10  1  0
  1  5  2  0
  2  3  2  0
  2  1  1  0
  3  4  1  0
  4  5  1  0
  4 13  1  0
  6  7  2  0
  7  8  1  0
  8 12  1  0
  9  8  2  0
 10  9  1  0
 11  6  1  0
 11 10  2  0
 14 13  1  0
 14 15  2  0
 16 15  1  0
 17 22  2  0
 17 16  1  0
 18 17  1  0
 19 20  1  0
 19 18  2  0
 20 21  2  0
 21 22  1  0
 22 14  1  0
  2 23  1  0
  3 24  1  0
  6 25  1  0
  7 26  1  0
 12 27  1  0
 12 28  1  0
 13 29  1  0
 13 30  1  0
 15 31  1  0
 16 32  1  0
 18 33  1  0
 19 34  1  0
 20 35  1  0
 21 36  1  0
M  ISO  8  23  14  24  14  25  14  26  14  29   8  30   8  31  14  32   9
M  ISO  4  33  14  34  14  35  14  36  14
M  END
>  <minimizedAffinity>  (1) 
-4.81302166

>  <minimizedRMSD>  (1) 
2.62539935

$$$$
