
     RDKit          3D

 35 37  0  0  0  0  0  0  0  0999 V2000
   42.3800   22.2780   35.9860 C   0  0  0  0  0  0  0  0  0  0  0  0
   42.9150   23.3650   35.2980 C   0  0  0  0  0  0  0  0  0  0  0  0
   41.8500   24.2980   35.1780 C   0  0  0  0  0  0  0  0  0  0  0  0
   40.7680   23.7260   35.7870 N   0  0  0  0  0  0  0  0  0  0  0  0
   41.0710   22.5390   36.2640 N   0  0  0  0  0  0  0  0  0  0  0  0
   45.3230   20.0620   36.2360 C   0  0  0  0  0  0  0  0  0  0  0  0
   44.8060   18.9370   36.8450 C   0  0  0  0  0  0  0  0  0  0  0  0
   43.4450   18.9420   37.1680 C   0  0  0  0  0  0  0  0  0  0  0  0
   42.6850   20.0370   36.8780 N   0  0  0  0  0  0  0  0  0  0  0  0
   43.2260   21.1260   36.2790 C   0  0  0  0  0  0  0  0  0  0  0  0
   44.5400   21.1010   35.9750 N   0  0  0  0  0  0  0  0  0  0  0  0
   42.7610   17.8700   37.7950 N   0  0  0  0  0  0  0  0  0  0  0  0
   39.4590   24.3570   35.8890 C   0  0  0  0  0  0  0  0  0  0  0  0
   38.4200   23.3740   35.8500 N   0  0  0  0  0  0  0  0  0  0  0  0
   38.0300   22.7140   34.7480 C   0  0  0  0  0  0  0  0  0  0  0  0
   37.0160   21.7650   34.7520 C   0  0  0  0  0  0  0  0  0  0  0  0
   36.6110   21.0500   33.5010 C   0  0  0  0  0  0  0  0  0  0  0  0
   36.3720   21.4840   35.9450 C   0  0  0  0  0  0  0  0  0  0  0  0
   35.4380   20.6280   36.0140 O   0  0  0  0  0  0  0  0  0  0  0  0
   36.7870   22.1630   37.0300 N   0  0  0  0  0  0  0  0  0  0  0  0
   37.7810   23.0850   36.9990 C   0  0  0  0  0  0  0  0  0  0  0  0
   38.0360   23.6250   38.1230 O   0  0  0  0  0  0  0  0  0  0  0  0
   43.9442   23.4772   34.9263 H   0  0  0  0  0  0  0  0  0  0  0  0
   41.8885   25.2840   34.6919 H   0  0  0  0  0  0  0  0  0  0  0  0
   46.3887   20.0977   35.9657 H   0  0  0  0  0  0  0  0  0  0  0  0
   45.4414   18.0673   37.0685 H   0  0  0  0  0  0  0  0  0  0  0  0
   41.7549   17.9509   38.0004 H   0  0  0  0  0  0  0  0  0  0  0  0
   43.2702   17.0103   38.0451 H   0  0  0  0  0  0  0  0  0  0  0  0
   39.3976   24.9101   36.8379 H   0  0  0  0  0  0  0  0  0  0  0  0
   39.3295   25.0428   35.0388 H   0  0  0  0  0  0  0  0  0  0  0  0
   38.5373   22.9352   33.7974 H   0  0  0  0  0  0  0  0  0  0  0  0
   36.0846   20.1206   33.7639 H   0  0  0  0  0  0  0  0  0  0  0  0
   35.9439   21.6946   32.9098 H   0  0  0  0  0  0  0  0  0  0  0  0
   37.5069   20.8093   32.9098 H   0  0  0  0  0  0  0  0  0  0  0  0
   36.3257   21.9726   37.9310 H   0  0  0  0  0  0  0  0  0  0  0  0
  1  5  2  0
  1 10  1  0
  2  1  1  0
  3  2  2  0
  3  4  1  0
  4 13  1  0
  4  5  1  0
  6  7  2  0
  7  8  1  0
  8 12  1  0
  9  8  2  0
 10  9  1  0
 11  6  1  0
 11 10  2  0
 14 13  1  0
 14 21  1  0
 15 16  2  0
 15 14  1  0
 16 18  1  0
 17 16  1  0
 18 19  2  0
 18 20  1  0
 21 20  1  0
 21 22  2  0
  2 23  1  0
  3 24  1  0
  6 25  1  0
  7 26  1  0
 12 27  1  0
 12 28  1  0
 13 29  1  0
 13 30  1  0
 15 31  1  0
 17 32  1  0
 17 33  1  0
 17 34  1  0
 20 35  1  0
M  ISO  8  23  14  24  14  25  14  26  14  29   8  30   8  31  14  32   8
M  ISO  3  33   8  34   8  35   9
M  END
>  <minimizedAffinity>  (1) 
-4.80481482

>  <minimizedRMSD>  (1) 
2.76755548

$$$$
