
     RDKit          3D

 32 34  0  0  0  0  0  0  0  0999 V2000
   39.3950   22.4960   35.4580 C   0  0  0  0  0  0  0  0  0  0  0  0
   39.5640   23.8820   35.3170 C   0  0  0  0  0  0  0  0  0  0  0  0
   40.8850   24.1410   35.7500 C   0  0  0  0  0  0  0  0  0  0  0  0
   41.4190   22.9340   36.1150 N   0  0  0  0  0  0  0  0  0  0  0  0
   40.5470   21.9660   35.9440 N   0  0  0  0  0  0  0  0  0  0  0  0
   36.5640   21.1700   33.4810 C   0  0  0  0  0  0  0  0  0  0  0  0
   35.6450   20.8320   34.4780 C   0  0  0  0  0  0  0  0  0  0  0  0
   36.0060   21.0630   35.8260 C   0  0  0  0  0  0  0  0  0  0  0  0
   37.2320   21.6040   36.0980 N   0  0  0  0  0  0  0  0  0  0  0  0
   38.1020   21.9190   35.0810 C   0  0  0  0  0  0  0  0  0  0  0  0
   37.7500   21.6960   33.8030 N   0  0  0  0  0  0  0  0  0  0  0  0
   35.1940   20.7780   36.9250 N   0  0  0  0  0  0  0  0  0  0  0  0
   42.7760   22.7780   36.6170 C   0  0  0  0  0  0  0  0  0  0  0  0
   43.5730   23.9460   36.1040 C   0  0  0  0  0  0  0  0  0  0  0  0
   43.7020   24.2710   34.7700 C   0  0  0  0  0  0  0  0  0  0  0  0
   44.4530   25.3620   34.3860 C   0  0  0  0  0  0  0  0  0  0  0  0
   45.0900   26.1490   35.3380 C   0  0  0  0  0  0  0  0  0  0  0  0
   44.9460   25.8020   36.6740 C   0  0  0  0  0  0  0  0  0  0  0  0
   44.1960   24.7120   37.0650 C   0  0  0  0  0  0  0  0  0  0  0  0
   38.8269   24.6107   34.9486 H   0  0  0  0  0  0  0  0  0  0  0  0
   41.3854   25.1199   35.7865 H   0  0  0  0  0  0  0  0  0  0  0  0
   36.3097   21.0021   32.4240 H   0  0  0  0  0  0  0  0  0  0  0  0
   34.6673   20.3980   34.2214 H   0  0  0  0  0  0  0  0  0  0  0  0
   35.5297   20.9758   37.8784 H   0  0  0  0  0  0  0  0  0  0  0  0
   34.2591   20.3699   36.7825 H   0  0  0  0  0  0  0  0  0  0  0  0
   42.7738   22.7764   37.7170 H   0  0  0  0  0  0  0  0  0  0  0  0
   43.2123   21.8267   36.2784 H   0  0  0  0  0  0  0  0  0  0  0  0
   43.2025   23.6558   34.0071 H   0  0  0  0  0  0  0  0  0  0  0  0
   44.5485   25.6111   33.3188 H   0  0  0  0  0  0  0  0  0  0  0  0
   45.6907   27.0214   35.0413 H   0  0  0  0  0  0  0  0  0  0  0  0
   45.4433   26.4126   37.4420 H   0  0  0  0  0  0  0  0  0  0  0  0
   44.0967   24.4577   38.1306 H   0  0  0  0  0  0  0  0  0  0  0  0
  1  5  2  0
  2  1  1  0
  2  3  2  0
  3  4  1  0
  4 13  1  0
  5  4  1  0
  6 11  2  0
  6  7  1  0
  7  8  2  0
  8  9  1  0
  8 12  1  0
 10  1  1  0
 10  9  2  0
 11 10  1  0
 14 13  1  0
 14 19  1  0
 15 14  2  0
 16 15  1  0
 16 17  2  0
 17 18  1  0
 18 19  2  0
  2 20  1  0
  3 21  1  0
  6 22  1  0
  7 23  1  0
 12 24  1  0
 12 25  1  0
 13 26  1  0
 13 27  1  0
 15 28  1  0
 16 29  1  0
 17 30  1  0
 18 31  1  0
 19 32  1  0
M  ISO  8  20  14  21  14  22  14  23  14  26   8  27   8  28  14  29  14
M  ISO  3  30  14  31  14  32  14
M  END
>  <minimizedAffinity>  (1) 
-4.60879278

>  <minimizedRMSD>  (1) 
6.06748295

$$$$
