
     RDKit          3D

 36 39  0  0  0  0  0  0  0  0999 V2000
   42.1580   22.3880   35.9290 C   0  0  0  0  0  0  0  0  0  0  0  0
   42.4690   23.6090   35.3570 C   0  0  0  0  0  0  0  0  0  0  0  0
   41.2810   24.3530   35.2660 C   0  0  0  0  0  0  0  0  0  0  0  0
   40.3040   23.5470   35.7870 N   0  0  0  0  0  0  0  0  0  0  0  0
   40.8150   22.3940   36.1750 N   0  0  0  0  0  0  0  0  0  0  0  0
   45.4350   20.7160   35.9610 C   0  0  0  0  0  0  0  0  0  0  0  0
   45.1500   19.5050   36.5900 C   0  0  0  0  0  0  0  0  0  0  0  0
   43.8290   19.2750   36.9990 C   0  0  0  0  0  0  0  0  0  0  0  0
   42.8770   20.2310   36.7700 N   0  0  0  0  0  0  0  0  0  0  0  0
   43.2070   21.4020   36.1480 C   0  0  0  0  0  0  0  0  0  0  0  0
   44.4810   21.6300   35.7510 N   0  0  0  0  0  0  0  0  0  0  0  0
   43.3800   18.1160   37.6410 N   0  0  0  0  0  0  0  0  0  0  0  0
   38.8880   23.8900   35.9060 C   0  0  0  0  0  0  0  0  0  0  0  0
   38.1430   23.1300   34.9070 N   0  0  0  0  0  0  0  0  0  0  0  0
   37.5550   21.9250   35.0010 C   0  0  0  0  0  0  0  0  0  0  0  0
   36.9750   21.6030   33.8310 N   0  0  0  0  0  0  0  0  0  0  0  0
   37.1910   22.6030   32.9830 C   0  0  0  0  0  0  0  0  0  0  0  0
   36.8780   22.9010   31.6600 C   0  0  0  0  0  0  0  0  0  0  0  0
   36.2130   22.0580   31.0070 O   0  0  0  0  0  0  0  0  0  0  0  0
   37.2580   24.0510   31.0530 N   0  0  0  0  0  0  0  0  0  0  0  0
   37.9680   24.9500   31.7530 C   0  0  0  0  0  0  0  0  0  0  0  0
   38.4460   26.2040   31.2720 N   0  0  0  0  0  0  0  0  0  0  0  0
   38.2960   24.7080   33.0330 N   0  0  0  0  0  0  0  0  0  0  0  0
   37.9210   23.5690   33.6360 C   0  0  0  0  0  0  0  0  0  0  0  0
   43.4671   23.9379   35.0320 H   0  0  0  0  0  0  0  0  0  0  0  0
   41.1608   25.3688   34.8615 H   0  0  0  0  0  0  0  0  0  0  0  0
   46.4636   20.9239   35.6312 H   0  0  0  0  0  0  0  0  0  0  0  0
   45.9360   18.7544   36.7598 H   0  0  0  0  0  0  0  0  0  0  0  0
   42.3895   18.0266   37.9090 H   0  0  0  0  0  0  0  0  0  0  0  0
   44.0399   17.3521   37.8457 H   0  0  0  0  0  0  0  0  0  0  0  0
   38.5271   23.6332   36.9129 H   0  0  0  0  0  0  0  0  0  0  0  0
   38.7459   24.9685   35.7429 H   0  0  0  0  0  0  0  0  0  0  0  0
   37.5490   21.2947   35.9025 H   0  0  0  0  0  0  0  0  0  0  0  0
   37.0064   24.2326   30.0708 H   0  0  0  0  0  0  0  0  0  0  0  0
   38.9844   26.8231   31.8947 H   0  0  0  0  0  0  0  0  0  0  0  0
   38.2530   26.4909   30.3018 H   0  0  0  0  0  0  0  0  0  0  0  0
  1 10  1  0
  1  5  2  0
  2  1  1  0
  3  2  2  0
  3  4  1  0
  4 13  1  0
  4  5  1  0
  6  7  2  0
  7  8  1  0
  8 12  1  0
  9  8  2  0
 10  9  1  0
 11  6  1  0
 11 10  2  0
 14 15  1  0
 14 13  1  0
 16 15  2  0
 17 24  2  0
 17 16  1  0
 18 17  1  0
 19 18  2  0
 20 18  1  0
 20 21  1  0
 21 23  2  0
 22 21  1  0
 23 24  1  0
 24 14  1  0
  2 25  1  0
  3 26  1  0
  6 27  1  0
  7 28  1  0
 12 29  1  0
 12 30  1  0
 13 31  1  0
 13 32  1  0
 15 33  1  0
 20 34  1  0
 22 35  1  0
 22 36  1  0
M  ISO  8  25  14  26  14  27  14  28  14  31   8  32   8  33  14  34   9
M  END
>  <minimizedAffinity>  (1) 
-4.47184467

>  <minimizedRMSD>  (1) 
3.78655529

$$$$
