
     RDKit          3D

 28 30  0  0  0  0  0  0  0  0999 V2000
   39.0700   22.7090   35.4150 C   0  0  0  0  0  0  0  0  0  0  0  0
   39.2000   24.0450   35.0470 C   0  0  0  0  0  0  0  0  0  0  0  0
   40.5040   24.4380   35.4330 C   0  0  0  0  0  0  0  0  0  0  0  0
   41.0780   23.3320   36.0050 N   0  0  0  0  0  0  0  0  0  0  0  0
   40.2380   22.3090   35.9970 N   0  0  0  0  0  0  0  0  0  0  0  0
   36.3310   20.9940   33.6430 C   0  0  0  0  0  0  0  0  0  0  0  0
   35.4690   20.6540   34.6610 C   0  0  0  0  0  0  0  0  0  0  0  0
   35.8280   21.0190   35.9840 C   0  0  0  0  0  0  0  0  0  0  0  0
   36.9990   21.6800   36.1680 N   0  0  0  0  0  0  0  0  0  0  0  0
   37.8280   22.0010   35.1470 C   0  0  0  0  0  0  0  0  0  0  0  0
   37.4620   21.6430   33.9120 N   0  0  0  0  0  0  0  0  0  0  0  0
   35.0740   20.7560   37.1520 N   0  0  0  0  0  0  0  0  0  0  0  0
   42.4270   23.2570   36.5460 C   0  0  0  0  0  0  0  0  0  0  0  0
   43.3160   24.0710   35.7290 N   0  0  0  0  0  0  0  0  0  0  0  0
   43.7640   23.8710   34.4770 C   0  0  0  0  0  0  0  0  0  0  0  0
   44.5750   24.8920   34.1140 N   0  0  0  0  0  0  0  0  0  0  0  0
   44.6180   25.7180   35.1530 C   0  0  0  0  0  0  0  0  0  0  0  0
   43.8480   25.2250   36.1500 N   0  0  0  0  0  0  0  0  0  0  0  0
   38.4410   24.6706   34.5545 H   0  0  0  0  0  0  0  0  0  0  0  0
   40.9632   25.4288   35.3010 H   0  0  0  0  0  0  0  0  0  0  0  0
   36.0847   20.7287   32.6043 H   0  0  0  0  0  0  0  0  0  0  0  0
   34.5317   20.1164   34.4552 H   0  0  0  0  0  0  0  0  0  0  0  0
   35.4233   21.0641   38.0707 H   0  0  0  0  0  0  0  0  0  0  0  0
   34.1758   20.2565   37.0836 H   0  0  0  0  0  0  0  0  0  0  0  0
   42.4303   23.6327   37.5798 H   0  0  0  0  0  0  0  0  0  0  0  0
   42.7709   22.2122   36.5383 H   0  0  0  0  0  0  0  0  0  0  0  0
   43.5098   23.0082   33.8437 H   0  0  0  0  0  0  0  0  0  0  0  0
   45.1903   26.6564   35.1961 H   0  0  0  0  0  0  0  0  0  0  0  0
  1  5  2  0
  2  1  1  0
  2  3  2  0
  3  4  1  0
  4 13  1  0
  5  4  1  0
  6 11  2  0
  6  7  1  0
  7  8  2  0
  8  9  1  0
  8 12  1  0
 10  1  1  0
 10  9  2  0
 11 10  1  0
 14 18  1  0
 14 13  1  0
 15 14  1  0
 16 15  2  0
 16 17  1  0
 17 18  2  0
  2 19  1  0
  3 20  1  0
  6 21  1  0
  7 22  1  0
 12 23  1  0
 12 24  1  0
 13 25  1  0
 13 26  1  0
 15 27  1  0
 17 28  1  0
M  ISO  8  19  14  20  14  21  14  22  14  25   8  26   8  27  14  28  14
M  END
>  <minimizedAffinity>  (1) 
-4.28162289

>  <minimizedRMSD>  (1) 
6.08780479

$$$$
