
     RDKit          3D

 33 36  0  0  0  0  0  0  0  0999 V2000
   41.2670   22.1880   36.2680 C   0  0  0  0  0  0  0  0  0  0  0  0
   41.3410   23.3600   35.5030 C   0  0  0  0  0  0  0  0  0  0  0  0
   40.0810   23.9900   35.6100 C   0  0  0  0  0  0  0  0  0  0  0  0
   39.3270   23.1820   36.4170 N   0  0  0  0  0  0  0  0  0  0  0  0
   40.0270   22.1340   36.7960 N   0  0  0  0  0  0  0  0  0  0  0  0
   44.6760   20.8440   35.8860 C   0  0  0  0  0  0  0  0  0  0  0  0
   44.5970   19.6260   36.5360 C   0  0  0  0  0  0  0  0  0  0  0  0
   43.3630   19.2690   37.1060 C   0  0  0  0  0  0  0  0  0  0  0  0
   42.3140   20.1290   36.9950 N   0  0  0  0  0  0  0  0  0  0  0  0
   42.4400   21.3260   36.3420 C   0  0  0  0  0  0  0  0  0  0  0  0
   43.6200   21.6420   35.8090 N   0  0  0  0  0  0  0  0  0  0  0  0
   43.1030   18.0660   37.8050 N   0  0  0  0  0  0  0  0  0  0  0  0
   37.9440   23.4360   36.8090 C   0  0  0  0  0  0  0  0  0  0  0  0
   37.0640   22.3900   36.3230 N   0  0  0  0  0  0  0  0  0  0  0  0
   36.1870   21.7200   37.1030 C   0  0  0  0  0  0  0  0  0  0  0  0
   35.5100   20.8110   36.3770 N   0  0  0  0  0  0  0  0  0  0  0  0
   35.9630   20.8990   35.1050 C   0  0  0  0  0  0  0  0  0  0  0  0
   35.7000   20.2740   33.9030 C   0  0  0  0  0  0  0  0  0  0  0  0
   36.3220   20.5750   32.7610 N   0  0  0  0  0  0  0  0  0  0  0  0
   37.2610   21.5450   32.7820 C   0  0  0  0  0  0  0  0  0  0  0  0
   37.5630   22.1930   33.9280 N   0  0  0  0  0  0  0  0  0  0  0  0
   36.9300   21.8850   35.0830 C   0  0  0  0  0  0  0  0  0  0  0  0
   42.2096   23.7189   34.9315 H   0  0  0  0  0  0  0  0  0  0  0  0
   39.7701   24.9353   35.1412 H   0  0  0  0  0  0  0  0  0  0  0  0
   45.6264   21.1545   35.4273 H   0  0  0  0  0  0  0  0  0  0  0  0
   45.4696   18.9598   36.6045 H   0  0  0  0  0  0  0  0  0  0  0  0
   42.1649   17.8870   38.1909 H   0  0  0  0  0  0  0  0  0  0  0  0
   43.8519   17.3696   37.9278 H   0  0  0  0  0  0  0  0  0  0  0  0
   37.8830   23.4759   37.9066 H   0  0  0  0  0  0  0  0  0  0  0  0
   37.6259   24.3930   36.3696 H   0  0  0  0  0  0  0  0  0  0  0  0
   36.0462   21.8932   38.1801 H   0  0  0  0  0  0  0  0  0  0  0  0
   34.9351   19.4837   33.8851 H   0  0  0  0  0  0  0  0  0  0  0  0
   37.7871   21.8111   31.8533 H   0  0  0  0  0  0  0  0  0  0  0  0
  1 10  1  0
  1  5  2  0
  2  3  2  0
  2  1  1  0
  3  4  1  0
  4  5  1  0
  4 13  1  0
  6  7  2  0
  7  8  1  0
  8 12  1  0
  9  8  2  0
 10  9  1  0
 11  6  1  0
 11 10  2  0
 14 13  1  0
 14 15  1  0
 16 15  2  0
 17 16  1  0
 18 17  2  0
 19 20  2  0
 19 18  1  0
 20 21  1  0
 21 22  2  0
 22 17  1  0
 22 14  1  0
  2 23  1  0
  3 24  1  0
  6 25  1  0
  7 26  1  0
 12 27  1  0
 12 28  1  0
 13 29  1  0
 13 30  1  0
 15 31  1  0
 18 32  1  0
 20 33  1  0
M  ISO  8  23  14  24  14  25  14  26  14  29   8  30   8  31  14  32  14
M  ISO  1  33  14
M  END
>  <minimizedAffinity>  (1) 
-4.21988964

>  <minimizedRMSD>  (1) 
2.2561388

$$$$
