
     RDKit          3D

 30 32  0  0  0  0  0  0  0  0999 V2000
   41.7240   21.9680   36.3190 C   0  0  0  0  0  0  0  0  0  0  0  0
   41.8180   23.1870   35.6630 C   0  0  0  0  0  0  0  0  0  0  0  0
   40.5340   23.7860   35.7630 C   0  0  0  0  0  0  0  0  0  0  0  0
   39.7540   22.9040   36.4620 N   0  0  0  0  0  0  0  0  0  0  0  0
   40.4510   21.8340   36.7910 N   0  0  0  0  0  0  0  0  0  0  0  0
   45.1560   20.6740   35.9630 C   0  0  0  0  0  0  0  0  0  0  0  0
   45.0850   19.4330   36.5560 C   0  0  0  0  0  0  0  0  0  0  0  0
   43.8460   19.0330   37.0840 C   0  0  0  0  0  0  0  0  0  0  0  0
   42.7850   19.8830   36.9860 N   0  0  0  0  0  0  0  0  0  0  0  0
   42.8840   21.0980   36.3980 C   0  0  0  0  0  0  0  0  0  0  0  0
   44.0730   21.4490   35.9060 N   0  0  0  0  0  0  0  0  0  0  0  0
   43.5700   17.7990   37.7320 N   0  0  0  0  0  0  0  0  0  0  0  0
   38.3550   23.1100   36.8030 C   0  0  0  0  0  0  0  0  0  0  0  0
   37.4610   22.2710   35.9550 C   0  0  0  0  0  0  0  0  0  0  0  0
   37.6310   22.1220   34.5930 C   0  0  0  0  0  0  0  0  0  0  0  0
   36.7820   21.3330   33.8320 C   0  0  0  0  0  0  0  0  0  0  0  0
   35.7560   20.6910   34.4400 N   0  0  0  0  0  0  0  0  0  0  0  0
   35.5900   20.8350   35.7600 C   0  0  0  0  0  0  0  0  0  0  0  0
   36.4220   21.6060   36.5010 N   0  0  0  0  0  0  0  0  0  0  0  0
   42.7063   23.6046   35.1665 H   0  0  0  0  0  0  0  0  0  0  0  0
   40.2277   24.7625   35.3598 H   0  0  0  0  0  0  0  0  0  0  0  0
   46.1068   21.0258   35.5362 H   0  0  0  0  0  0  0  0  0  0  0  0
   45.9670   18.7783   36.6142 H   0  0  0  0  0  0  0  0  0  0  0  0
   42.6223   17.6032   38.0848 H   0  0  0  0  0  0  0  0  0  0  0  0
   44.3176   17.1002   37.8489 H   0  0  0  0  0  0  0  0  0  0  0  0
   38.2007   22.8435   37.8590 H   0  0  0  0  0  0  0  0  0  0  0  0
   38.1073   24.1673   36.6279 H   0  0  0  0  0  0  0  0  0  0  0  0
   38.4632   22.6438   34.0978 H   0  0  0  0  0  0  0  0  0  0  0  0
   36.9397   21.2298   32.7483 H   0  0  0  0  0  0  0  0  0  0  0  0
   34.7574   20.3145   36.2558 H   0  0  0  0  0  0  0  0  0  0  0  0
  1 10  1  0
  1  5  2  0
  2  3  2  0
  2  1  1  0
  3  4  1  0
  4  5  1  0
  4 13  1  0
  6  7  2  0
  7  8  1  0
  8 12  1  0
  9  8  2  0
 10  9  1  0
 11  6  1  0
 11 10  2  0
 14 19  1  0
 14 13  1  0
 15 14  2  0
 16 17  2  0
 16 15  1  0
 17 18  1  0
 18 19  2  0
  2 20  1  0
  3 21  1  0
  6 22  1  0
  7 23  1  0
 12 24  1  0
 12 25  1  0
 13 26  1  0
 13 27  1  0
 15 28  1  0
 16 29  1  0
 18 30  1  0
M  ISO  8  20  14  21  14  22  14  23  14  26   8  27   8  28  14  29  14
M  ISO  1  30  14
M  END
>  <minimizedAffinity>  (1) 
-4.10471582

>  <minimizedRMSD>  (1) 
2.4406271

$$$$
