
     RDKit          3D

 37 39  0  0  0  0  0  0  0  0999 V2000
   40.9750   22.5080   35.3410 C   0  0  0  0  0  0  0  0  0  0  0  0
   40.1630   22.0760   34.3060 C   0  0  0  0  0  0  0  0  0  0  0  0
   39.0970   22.9810   34.1980 C   0  0  0  0  0  0  0  0  0  0  0  0
   39.3060   23.9190   35.1660 N   0  0  0  0  0  0  0  0  0  0  0  0
   40.4050   23.6260   35.8230 N   0  0  0  0  0  0  0  0  0  0  0  0
   44.4650   21.3350   35.5050 C   0  0  0  0  0  0  0  0  0  0  0  0
   44.3830   20.2540   36.3600 C   0  0  0  0  0  0  0  0  0  0  0  0
   43.1080   19.9260   36.8850 C   0  0  0  0  0  0  0  0  0  0  0  0
   42.0360   20.6880   36.5220 N   0  0  0  0  0  0  0  0  0  0  0  0
   42.1650   21.7480   35.6750 C   0  0  0  0  0  0  0  0  0  0  0  0
   43.3740   22.0450   35.1880 N   0  0  0  0  0  0  0  0  0  0  0  0
   42.8420   18.8520   37.7720 N   0  0  0  0  0  0  0  0  0  0  0  0
   38.4520   25.0690   35.4430 C   0  0  0  0  0  0  0  0  0  0  0  0
   39.2390   26.2850   35.4010 N   0  0  0  0  0  0  0  0  0  0  0  0
   38.4920   27.4010   35.9060 C   0  0  0  0  0  0  0  0  0  0  0  0
   37.2880   27.7590   35.1160 C   0  0  0  0  0  0  0  0  0  0  0  0
   37.3380   27.4510   33.6600 C   0  0  0  0  0  0  0  0  0  0  0  0
   38.5650   26.8140   33.1390 C   0  0  0  0  0  0  0  0  0  0  0  0
   39.6890   26.6150   34.0860 C   0  0  0  0  0  0  0  0  0  0  0  0
   40.3246   21.1848   33.6818 H   0  0  0  0  0  0  0  0  0  0  0  0
   38.2641   22.9423   33.4805 H   0  0  0  0  0  0  0  0  0  0  0  0
   45.4389   21.6170   35.0785 H   0  0  0  0  0  0  0  0  0  0  0  0
   45.2756   19.6681   36.6244 H   0  0  0  0  0  0  0  0  0  0  0  0
   41.8818   18.6851   38.1054 H   0  0  0  0  0  0  0  0  0  0  0  0
   43.6090   18.2388   38.0829 H   0  0  0  0  0  0  0  0  0  0  0  0
   37.6553   25.1231   34.6865 H   0  0  0  0  0  0  0  0  0  0  0  0
   38.0064   24.9586   36.4426 H   0  0  0  0  0  0  0  0  0  0  0  0
   38.1693   27.1604   36.9297 H   0  0  0  0  0  0  0  0  0  0  0  0
   39.1642   28.2701   35.8528 H   0  0  0  0  0  0  0  0  0  0  0  0
   36.4326   27.2158   35.5442 H   0  0  0  0  0  0  0  0  0  0  0  0
   37.2097   28.8543   35.1813 H   0  0  0  0  0  0  0  0  0  0  0  0
   36.4971   26.7780   33.4366 H   0  0  0  0  0  0  0  0  0  0  0  0
   37.2999   28.4324   33.1646 H   0  0  0  0  0  0  0  0  0  0  0  0
   38.2828   25.8245   32.7502 H   0  0  0  0  0  0  0  0  0  0  0  0
   38.9515   27.5213   32.3905 H   0  0  0  0  0  0  0  0  0  0  0  0
   40.3242   25.7975   33.7141 H   0  0  0  0  0  0  0  0  0  0  0  0
   40.2469   27.5609   34.1491 H   0  0  0  0  0  0  0  0  0  0  0  0
  1 10  1  0
  1  5  2  0
  2  1  1  0
  3  2  2  0
  3  4  1  0
  4 13  1  0
  4  5  1  0
  6  7  2  0
  7  8  1  0
  8 12  1  0
  9  8  2  0
 10  9  1  0
 11  6  1  0
 11 10  2  0
 14 13  1  0
 14 15  1  0
 16 15  1  0
 17 16  1  0
 18 17  1  0
 18 19  1  0
 19 14  1  0
  2 20  1  0
  3 21  1  0
  6 22  1  0
  7 23  1  0
 12 24  1  0
 12 25  1  0
 13 26  1  0
 13 27  1  0
 15 28  1  0
 15 29  1  0
 16 30  1  0
 16 31  1  0
 17 32  1  0
 17 33  1  0
 18 34  1  0
 18 35  1  0
 19 36  1  0
 19 37  1  0
M  ISO  8  20  14  21  14  22  14  23  14  26   8  27   8  28  13  29  13
M  ISO  8  30  13  31  13  32  13  33  13  34  13  35  13  36  13  37  13
M  END
>  <minimizedAffinity>  (1) 
-4.02409792

>  <minimizedRMSD>  (1) 
2.5888505

$$$$
