
     RDKit          3D

 29 31  0  0  0  0  0  0  0  0999 V2000
   41.3860   22.0570   36.2300 C   0  0  0  0  0  0  0  0  0  0  0  0
   41.3970   23.3680   35.7390 C   0  0  0  0  0  0  0  0  0  0  0  0
   40.0570   23.8240   35.8200 C   0  0  0  0  0  0  0  0  0  0  0  0
   39.3340   22.7860   36.3420 N   0  0  0  0  0  0  0  0  0  0  0  0
   40.1120   21.7290   36.5910 N   0  0  0  0  0  0  0  0  0  0  0  0
   44.9160   21.0870   35.7790 C   0  0  0  0  0  0  0  0  0  0  0  0
   44.9730   19.8590   36.4020 C   0  0  0  0  0  0  0  0  0  0  0  0
   43.8000   19.3550   36.9810 C   0  0  0  0  0  0  0  0  0  0  0  0
   42.6610   20.0980   36.9020 N   0  0  0  0  0  0  0  0  0  0  0  0
   42.6300   21.3020   36.2840 C   0  0  0  0  0  0  0  0  0  0  0  0
   43.7710   21.7750   35.7300 N   0  0  0  0  0  0  0  0  0  0  0  0
   43.6720   18.1180   37.6590 N   0  0  0  0  0  0  0  0  0  0  0  0
   37.9050   22.8230   36.6030 C   0  0  0  0  0  0  0  0  0  0  0  0
   37.1640   22.0180   35.6410 N   0  0  0  0  0  0  0  0  0  0  0  0
   37.4010   21.9460   34.2980 C   0  0  0  0  0  0  0  0  0  0  0  0
   36.4720   21.0710   33.7680 C   0  0  0  0  0  0  0  0  0  0  0  0
   35.6950   20.6350   34.7980 N   0  0  0  0  0  0  0  0  0  0  0  0
   36.1190   21.2160   35.9490 C   0  0  0  0  0  0  0  0  0  0  0  0
   42.2668   23.9291   35.3668 H   0  0  0  0  0  0  0  0  0  0  0  0
   39.6757   24.8122   35.5233 H   0  0  0  0  0  0  0  0  0  0  0  0
   45.8224   21.5054   35.3171 H   0  0  0  0  0  0  0  0  0  0  0  0
   45.9134   19.2898   36.4438 H   0  0  0  0  0  0  0  0  0  0  0  0
   42.7618   17.8373   38.0509 H   0  0  0  0  0  0  0  0  0  0  0  0
   44.4892   17.4992   37.7601 H   0  0  0  0  0  0  0  0  0  0  0  0
   37.7165   22.4341   37.6145 H   0  0  0  0  0  0  0  0  0  0  0  0
   37.5654   23.8655   36.5139 H   0  0  0  0  0  0  0  0  0  0  0  0
   38.1839   22.4833   33.7427 H   0  0  0  0  0  0  0  0  0  0  0  0
   36.3777   20.7807   32.7112 H   0  0  0  0  0  0  0  0  0  0  0  0
   35.6907   21.0626   36.9505 H   0  0  0  0  0  0  0  0  0  0  0  0
  1 10  1  0
  1  5  2  0
  2  3  2  0
  2  1  1  0
  3  4  1  0
  4  5  1  0
  4 13  1  0
  6  7  2  0
  7  8  1  0
  8 12  1  0
  9  8  2  0
 10  9  1  0
 11  6  1  0
 11 10  2  0
 14 18  1  0
 14 13  1  0
 15 14  1  0
 16 15  2  0
 16 17  1  0
 17 18  2  0
  2 19  1  0
  3 20  1  0
  6 21  1  0
  7 22  1  0
 12 23  1  0
 12 24  1  0
 13 25  1  0
 13 26  1  0
 15 27  1  0
 16 28  1  0
 18 29  1  0
M  ISO  8  19  14  20  14  21  14  22  14  25   8  26   8  27  14  28  14
M  ISO  1  29  14
M  END
>  <minimizedAffinity>  (1) 
-3.75637245

>  <minimizedRMSD>  (1) 
2.43003416

$$$$
