
     RDKit          3D

 23 24  0  0  0  0  0  0  0  0999 V2000
   40.7950   22.6000   36.7980 C   0  0  0  0  0  0  0  0  0  0  0  0
   40.3910   23.4450   35.7550 C   0  0  0  0  0  0  0  0  0  0  0  0
   39.1840   24.0450   36.1820 C   0  0  0  0  0  0  0  0  0  0  0  0
   38.9350   23.5470   37.4180 N   0  0  0  0  0  0  0  0  0  0  0  0
   39.8760   22.7060   37.7740 N   0  0  0  0  0  0  0  0  0  0  0  0
   44.2150   21.6040   35.8390 C   0  0  0  0  0  0  0  0  0  0  0  0
   44.3040   20.3150   36.3480 C   0  0  0  0  0  0  0  0  0  0  0  0
   43.1720   19.7860   37.0300 C   0  0  0  0  0  0  0  0  0  0  0  0
   42.0590   20.5680   37.1510 N   0  0  0  0  0  0  0  0  0  0  0  0
   42.0220   21.8400   36.6270 C   0  0  0  0  0  0  0  0  0  0  0  0
   43.0970   22.3090   35.9930 N   0  0  0  0  0  0  0  0  0  0  0  0
   43.1000   18.5080   37.6000 N   0  0  0  0  0  0  0  0  0  0  0  0
   37.7840   23.8730   38.2770 C   0  0  0  0  0  0  0  0  0  0  0  0
   38.0270   24.9980   39.0270 O   0  0  0  0  0  0  0  0  0  0  0  0
   40.9083   23.6082   34.7981 H   0  0  0  0  0  0  0  0  0  0  0  0
   38.5714   24.7689   35.6245 H   0  0  0  0  0  0  0  0  0  0  0  0
   45.0714   22.0436   35.3068 H   0  0  0  0  0  0  0  0  0  0  0  0
   45.2217   19.7206   36.2278 H   0  0  0  0  0  0  0  0  0  0  0  0
   42.2390   18.2046   38.0769 H   0  0  0  0  0  0  0  0  0  0  0  0
   43.9081   17.8720   37.5421 H   0  0  0  0  0  0  0  0  0  0  0  0
   36.9017   24.0476   37.6437 H   0  0  0  0  0  0  0  0  0  0  0  0
   37.6096   23.0293   38.9609 H   0  0  0  0  0  0  0  0  0  0  0  0
   37.9778   24.7701   39.9892 H   0  0  0  0  0  0  0  0  0  0  0  0
  1  5  2  0
  2  3  2  0
  2  1  1  0
  3  4  1  0
  4  5  1  0
  4 13  1  0
  6 11  2  0
  6  7  1  0
  7  8  2  0
  8  9  1  0
  8 12  1  0
 10  1  1  0
 10  9  2  0
 11 10  1  0
 13 14  1  0
  2 15  1  0
  3 16  1  0
  6 17  1  0
  7 18  1  0
 12 19  1  0
 12 20  1  0
 13 21  1  0
 13 22  1  0
 14 23  1  0
M  ISO  7  15  14  16  14  17  14  18  14  21   8  22   8  23   3
M  END
>  <minimizedAffinity>  (1) 
-3.72956228

>  <minimizedRMSD>  (1) 
0.263720036

$$$$
