
     RDKit          3D

 45 49  0  0  0  0  0  0  0  0999 V2000
   42.5260   22.8270   36.6610 C   0  0  0  0  0  0  0  0  0  0  0  0
   39.1650   22.4920   35.4960 C   0  0  0  0  0  0  0  0  0  0  0  0
   39.3130   23.8840   35.3200 C   0  0  0  0  0  0  0  0  0  0  0  0
   40.6290   24.1940   35.7480 C   0  0  0  0  0  0  0  0  0  0  0  0
   41.1820   23.0070   36.1440 N   0  0  0  0  0  0  0  0  0  0  0  0
   40.3200   22.0040   35.9960 N   0  0  0  0  0  0  0  0  0  0  0  0
   36.3980   21.0320   33.5540 C   0  0  0  0  0  0  0  0  0  0  0  0
   35.4640   20.7440   34.5100 C   0  0  0  0  0  0  0  0  0  0  0  0
   35.7780   21.0530   35.8600 C   0  0  0  0  0  0  0  0  0  0  0  0
   36.9900   21.6170   36.1190 N   0  0  0  0  0  0  0  0  0  0  0  0
   37.8960   21.8880   35.1340 C   0  0  0  0  0  0  0  0  0  0  0  0
   37.5630   21.5840   33.8850 N   0  0  0  0  0  0  0  0  0  0  0  0
   34.9450   20.8280   36.9790 N   0  0  0  0  0  0  0  0  0  0  0  0
   43.3200   24.0330   36.2780 C   0  0  0  0  0  0  0  0  0  0  0  0
   44.1820   24.7140   37.0980 C   0  0  0  0  0  0  0  0  0  0  0  0
   44.7020   25.7500   36.3570 C   0  0  0  0  0  0  0  0  0  0  0  0
   44.1380   25.6720   35.0980 C   0  0  0  0  0  0  0  0  0  0  0  0
   43.3540   24.6470   35.1530 O   0  0  0  0  0  0  0  0  0  0  0  0
   44.5220   26.6650   34.1050 C   0  0  0  0  0  0  0  0  0  0  0  0
   45.7940   27.2140   34.0160 C   0  0  0  0  0  0  0  0  0  0  0  0
   46.1650   28.1500   33.0830 C   0  0  0  0  0  0  0  0  0  0  0  0
   45.2600   28.5970   32.1680 C   0  0  0  0  0  0  0  0  0  0  0  0
   43.9760   28.0980   32.1950 C   0  0  0  0  0  0  0  0  0  0  0  0
   43.1020   28.5710   31.2630 C   0  0  0  0  0  0  0  0  0  0  0  0
   41.8050   28.1100   31.2390 C   0  0  0  0  0  0  0  0  0  0  0  0
   41.4200   27.1590   32.1830 C   0  0  0  0  0  0  0  0  0  0  0  0
   42.3640   26.7340   33.0880 C   0  0  0  0  0  0  0  0  0  0  0  0
   43.6700   27.1630   33.1530 C   0  0  0  0  0  0  0  0  0  0  0  0
   42.4970   22.7288   37.7562 H   0  0  0  0  0  0  0  0  0  0  0  0
   42.9816   21.9156   36.2465 H   0  0  0  0  0  0  0  0  0  0  0  0
   38.5609   24.5858   34.9302 H   0  0  0  0  0  0  0  0  0  0  0  0
   41.1067   25.1848   35.7593 H   0  0  0  0  0  0  0  0  0  0  0  0
   36.1842   20.8049   32.4992 H   0  0  0  0  0  0  0  0  0  0  0  0
   34.4998   20.2874   34.2419 H   0  0  0  0  0  0  0  0  0  0  0  0
   35.2673   21.0891   37.9218 H   0  0  0  0  0  0  0  0  0  0  0  0
   34.0155   20.4029   36.8519 H   0  0  0  0  0  0  0  0  0  0  0  0
   44.4135   24.4775   38.1470 H   0  0  0  0  0  0  0  0  0  0  0  0
   45.4297   26.4993   36.7019 H   0  0  0  0  0  0  0  0  0  0  0  0
   46.5522   26.8778   34.7386 H   0  0  0  0  0  0  0  0  0  0  0  0
   47.1937   28.5394   33.0741 H   0  0  0  0  0  0  0  0  0  0  0  0
   45.5507   29.3467   31.4173 H   0  0  0  0  0  0  0  0  0  0  0  0
   43.4327   29.3213   30.5297 H   0  0  0  0  0  0  0  0  0  0  0  0
   41.0889   28.4834   30.4922 H   0  0  0  0  0  0  0  0  0  0  0  0
   40.3945   26.7616   32.2032 H   0  0  0  0  0  0  0  0  0  0  0  0
   42.0466   25.9833   33.8267 H   0  0  0  0  0  0  0  0  0  0  0  0
  2  6  2  0
  3  2  1  0
  3  4  2  0
  4  5  1  0
  5  1  1  0
  6  5  1  0
  7 12  2  0
  7  8  1  0
  8  9  2  0
  9 10  1  0
  9 13  1  0
 11  2  1  0
 11 10  2  0
 12 11  1  0
 14  1  1  0
 14 15  2  0
 16 15  1  0
 17 18  1  0
 17 16  2  0
 18 14  1  0
 19 17  1  0
 20 19  2  0
 21 20  1  0
 22 23  1  0
 22 21  2  0
 23 28  2  0
 24 23  1  0
 25 24  2  0
 25 26  1  0
 26 27  2  0
 27 28  1  0
 28 19  1  0
  1 29  1  0
  1 30  1  0
  3 31  1  0
  4 32  1  0
  7 33  1  0
  8 34  1  0
 13 35  1  0
 13 36  1  0
 15 37  1  0
 16 38  1  0
 20 39  1  0
 21 40  1  0
 22 41  1  0
 24 42  1  0
 25 43  1  0
 26 44  1  0
 27 45  1  0
M  ISO  8  29   8  30   8  31  14  32  14  33  14  34  14  37  14  38  14
M  ISO  7  39  14  40  14  41  14  42  14  43  14  44  14  45  14
M  END
>  <minimizedAffinity>  (1) 
-5.4894886

>  <minimizedRMSD>  (1) 
2.17033863

$$$$
