
     RDKit          3D

 40 44  0  0  0  0  0  0  0  0999 V2000
   42.5280   22.8280   36.6480 C   0  0  0  0  0  0  0  0  0  0  0  0
   39.1310   22.5240   35.5250 C   0  0  0  0  0  0  0  0  0  0  0  0
   39.2650   23.9170   35.4040 C   0  0  0  0  0  0  0  0  0  0  0  0
   40.5780   24.2230   35.8140 C   0  0  0  0  0  0  0  0  0  0  0  0
   41.1580   23.0230   36.1570 N   0  0  0  0  0  0  0  0  0  0  0  0
   40.3020   22.0210   35.9850 N   0  0  0  0  0  0  0  0  0  0  0  0
   36.3910   21.0240   33.5720 C   0  0  0  0  0  0  0  0  0  0  0  0
   35.4500   20.7260   34.5460 C   0  0  0  0  0  0  0  0  0  0  0  0
   35.7610   21.0430   35.8790 C   0  0  0  0  0  0  0  0  0  0  0  0
   36.9620   21.6230   36.1450 N   0  0  0  0  0  0  0  0  0  0  0  0
   37.8670   21.9040   35.1680 C   0  0  0  0  0  0  0  0  0  0  0  0
   37.5470   21.5920   33.9030 N   0  0  0  0  0  0  0  0  0  0  0  0
   34.9200   20.8060   36.9680 N   0  0  0  0  0  0  0  0  0  0  0  0
   43.2960   24.0310   36.2240 C   0  0  0  0  0  0  0  0  0  0  0  0
   44.2620   24.6660   37.0050 C   0  0  0  0  0  0  0  0  0  0  0  0
   44.7580   25.7350   36.2920 C   0  0  0  0  0  0  0  0  0  0  0  0
   44.0530   25.6990   35.0850 C   0  0  0  0  0  0  0  0  0  0  0  0
   43.2270   24.6960   35.1050 O   0  0  0  0  0  0  0  0  0  0  0  0
   44.0700   26.5060   33.9080 N   0  0  0  0  0  0  0  0  0  0  0  0
   43.3010   26.5220   32.8040 C   0  0  0  0  0  0  0  0  0  0  0  0
   43.6920   27.4660   31.9500 N   0  0  0  0  0  0  0  0  0  0  0  0
   44.7340   28.0970   32.4770 C   0  0  0  0  0  0  0  0  0  0  0  0
   45.5730   29.1440   32.1000 C   0  0  0  0  0  0  0  0  0  0  0  0
   46.5840   29.5690   32.8900 N   0  0  0  0  0  0  0  0  0  0  0  0
   46.7890   28.9690   34.0720 C   0  0  0  0  0  0  0  0  0  0  0  0
   46.0030   27.9400   34.4940 N   0  0  0  0  0  0  0  0  0  0  0  0
   44.9830   27.5020   33.7120 C   0  0  0  0  0  0  0  0  0  0  0  0
   42.5313   22.7403   37.7445 H   0  0  0  0  0  0  0  0  0  0  0  0
   42.9715   21.9061   36.2437 H   0  0  0  0  0  0  0  0  0  0  0  0
   38.4988   24.6266   35.0585 H   0  0  0  0  0  0  0  0  0  0  0  0
   41.0445   25.2185   35.8521 H   0  0  0  0  0  0  0  0  0  0  0  0
   36.1798   20.7890   32.5184 H   0  0  0  0  0  0  0  0  0  0  0  0
   34.4906   20.2564   34.2834 H   0  0  0  0  0  0  0  0  0  0  0  0
   35.2209   21.0678   37.9176 H   0  0  0  0  0  0  0  0  0  0  0  0
   33.9987   20.3694   36.8217 H   0  0  0  0  0  0  0  0  0  0  0  0
   44.5738   24.3648   38.0160 H   0  0  0  0  0  0  0  0  0  0  0  0
   45.5318   26.4529   36.6014 H   0  0  0  0  0  0  0  0  0  0  0  0
   42.4553   25.8407   32.6288 H   0  0  0  0  0  0  0  0  0  0  0  0
   45.4077   29.6388   31.1316 H   0  0  0  0  0  0  0  0  0  0  0  0
   47.6110   29.3161   34.7154 H   0  0  0  0  0  0  0  0  0  0  0  0
  2  6  2  0
  3  2  1  0
  3  4  2  0
  4  5  1  0
  5  1  1  0
  6  5  1  0
  7 12  2  0
  7  8  1  0
  8  9  2  0
  9 10  1  0
  9 13  1  0
 11  2  1  0
 11 10  2  0
 12 11  1  0
 14  1  1  0
 14 15  2  0
 16 15  1  0
 17 18  1  0
 17 16  2  0
 18 14  1  0
 19 17  1  0
 20 19  1  0
 21 22  1  0
 21 20  2  0
 22 27  2  0
 23 22  1  0
 23 24  2  0
 24 25  1  0
 25 26  2  0
 27 19  1  0
 27 26  1  0
  1 28  1  0
  1 29  1  0
  3 30  1  0
  4 31  1  0
  7 32  1  0
  8 33  1  0
 13 34  1  0
 13 35  1  0
 15 36  1  0
 16 37  1  0
 20 38  1  0
 23 39  1  0
 25 40  1  0
M  ISO  8  28   8  29   8  30  14  31  14  32  14  33  14  36  14  37  14
M  ISO  3  38  14  39  14  40  14
M  END
>  <minimizedAffinity>  (1) 
-5.4267807

>  <minimizedRMSD>  (1) 
1.36129153

$$$$
