
     RDKit          3D

 36 39  0  0  0  0  0  0  0  0999 V2000
   39.0920   22.5460   35.5120 C   0  0  0  0  0  0  0  0  0  0  0  0
   39.2090   23.9350   35.3870 C   0  0  0  0  0  0  0  0  0  0  0  0
   40.5250   24.2540   35.7990 C   0  0  0  0  0  0  0  0  0  0  0  0
   41.1120   23.0640   36.1430 N   0  0  0  0  0  0  0  0  0  0  0  0
   40.2710   22.0540   35.9740 N   0  0  0  0  0  0  0  0  0  0  0  0
   36.3730   20.9930   33.5660 C   0  0  0  0  0  0  0  0  0  0  0  0
   35.4350   20.6940   34.5400 C   0  0  0  0  0  0  0  0  0  0  0  0
   35.7390   21.0270   35.8850 C   0  0  0  0  0  0  0  0  0  0  0  0
   36.9320   21.6200   36.1180 N   0  0  0  0  0  0  0  0  0  0  0  0
   37.8350   21.9060   35.1580 C   0  0  0  0  0  0  0  0  0  0  0  0
   37.5200   21.5790   33.8940 N   0  0  0  0  0  0  0  0  0  0  0  0
   34.9050   20.7930   36.9870 N   0  0  0  0  0  0  0  0  0  0  0  0
   42.4870   22.8890   36.6340 C   0  0  0  0  0  0  0  0  0  0  0  0
   43.2470   24.0790   36.1800 C   0  0  0  0  0  0  0  0  0  0  0  0
   44.3110   24.6230   36.8640 C   0  0  0  0  0  0  0  0  0  0  0  0
   44.7820   25.7110   36.1700 C   0  0  0  0  0  0  0  0  0  0  0  0
   43.9620   25.7800   35.0670 C   0  0  0  0  0  0  0  0  0  0  0  0
   43.0940   24.8130   35.1260 O   0  0  0  0  0  0  0  0  0  0  0  0
   43.8160   26.6440   33.8700 C   0  0  0  0  0  0  0  0  0  0  0  0
   42.5810   27.0140   33.5680 C   0  0  0  0  0  0  0  0  0  0  0  0
   42.1350   27.7920   32.5450 C   0  0  0  0  0  0  0  0  0  0  0  0
   43.3210   28.1960   31.7610 C   0  0  0  0  0  0  0  0  0  0  0  0
   44.8090   27.3710   32.6620 S   0  0  0  0  0  0  0  0  0  0  0  0
   38.4358   24.6360   35.0394 H   0  0  0  0  0  0  0  0  0  0  0  0
   40.9833   25.2533   35.8357 H   0  0  0  0  0  0  0  0  0  0  0  0
   36.1675   20.7440   32.5144 H   0  0  0  0  0  0  0  0  0  0  0  0
   34.4815   20.2121   34.2782 H   0  0  0  0  0  0  0  0  0  0  0  0
   35.2096   21.0695   37.9313 H   0  0  0  0  0  0  0  0  0  0  0  0
   33.9875   20.3446   36.8525 H   0  0  0  0  0  0  0  0  0  0  0  0
   42.4943   22.8289   37.7323 H   0  0  0  0  0  0  0  0  0  0  0  0
   42.9330   21.9598   36.2497 H   0  0  0  0  0  0  0  0  0  0  0  0
   44.7186   24.2467   37.8139 H   0  0  0  0  0  0  0  0  0  0  0  0
   45.6197   26.3730   36.4345 H   0  0  0  0  0  0  0  0  0  0  0  0
   41.8001   26.6364   34.2444 H   0  0  0  0  0  0  0  0  0  0  0  0
   41.0901   28.0680   32.3402 H   0  0  0  0  0  0  0  0  0  0  0  0
   43.3476   28.8284   30.8614 H   0  0  0  0  0  0  0  0  0  0  0  0
  1  5  2  0
  2  1  1  0
  2  3  2  0
  3  4  1  0
  4 13  1  0
  5  4  1  0
  6 11  2  0
  6  7  1  0
  7  8  2  0
  8  9  1  0
  8 12  1  0
 10  1  1  0
 10  9  2  0
 11 10  1  0
 14 13  1  0
 14 15  2  0
 16 15  1  0
 17 18  1  0
 17 16  2  0
 18 14  1  0
 19 17  1  0
 20 19  2  0
 21 20  1  0
 22 21  2  0
 22 23  1  0
 23 19  1  0
  2 24  1  0
  3 25  1  0
  6 26  1  0
  7 27  1  0
 12 28  1  0
 12 29  1  0
 13 30  1  0
 13 31  1  0
 15 32  1  0
 16 33  1  0
 20 34  1  0
 21 35  1  0
 22 36  1  0
M  ISO  8  24  14  25  14  26  14  27  14  30   8  31   8  32  14  33  14
M  ISO  3  34  14  35  14  36  14
M  END
>  <minimizedAffinity>  (1) 
-5.11412668

>  <minimizedRMSD>  (1) 
1.30946338

$$$$
