
     RDKit          3D

 37 40  0  0  0  0  0  0  0  0999 V2000
   39.2220   22.4250   35.4680 C   0  0  0  0  0  0  0  0  0  0  0  0
   39.3840   23.8220   35.4250 C   0  0  0  0  0  0  0  0  0  0  0  0
   40.7270   24.0590   35.8110 C   0  0  0  0  0  0  0  0  0  0  0  0
   41.2850   22.8420   36.0560 N   0  0  0  0  0  0  0  0  0  0  0  0
   40.4040   21.8720   35.8560 N   0  0  0  0  0  0  0  0  0  0  0  0
   36.4060   21.0480   33.5330 C   0  0  0  0  0  0  0  0  0  0  0  0
   35.4710   20.7790   34.5020 C   0  0  0  0  0  0  0  0  0  0  0  0
   35.8070   21.0740   35.8440 C   0  0  0  0  0  0  0  0  0  0  0  0
   37.0320   21.6050   36.1030 N   0  0  0  0  0  0  0  0  0  0  0  0
   37.9350   21.8590   35.1220 C   0  0  0  0  0  0  0  0  0  0  0  0
   37.5900   21.5700   33.8600 N   0  0  0  0  0  0  0  0  0  0  0  0
   34.9750   20.8630   36.9550 N   0  0  0  0  0  0  0  0  0  0  0  0
   42.6600   22.5860   36.4820 C   0  0  0  0  0  0  0  0  0  0  0  0
   43.4140   23.8550   36.2740 C   0  0  0  0  0  0  0  0  0  0  0  0
   44.1510   24.5000   37.2440 C   0  0  0  0  0  0  0  0  0  0  0  0
   44.7070   25.6380   36.6960 C   0  0  0  0  0  0  0  0  0  0  0  0
   44.2690   25.6240   35.3900 C   0  0  0  0  0  0  0  0  0  0  0  0
   43.5280   24.5760   35.2000 O   0  0  0  0  0  0  0  0  0  0  0  0
   44.5840   26.6230   34.3780 C   0  0  0  0  0  0  0  0  0  0  0  0
   45.5690   27.5530   34.5660 C   0  0  0  0  0  0  0  0  0  0  0  0
   45.8940   28.5250   33.6130 C   0  0  0  0  0  0  0  0  0  0  0  0
   45.1940   28.5380   32.4500 N   0  0  0  0  0  0  0  0  0  0  0  0
   44.2320   27.6260   32.2730 C   0  0  0  0  0  0  0  0  0  0  0  0
   43.9280   26.6920   33.2040 N   0  0  0  0  0  0  0  0  0  0  0  0
   38.6278   24.5720   35.1498 H   0  0  0  0  0  0  0  0  0  0  0  0
   41.2225   25.0374   35.8961 H   0  0  0  0  0  0  0  0  0  0  0  0
   36.1774   20.8316   32.4790 H   0  0  0  0  0  0  0  0  0  0  0  0
   34.4926   20.3481   34.2431 H   0  0  0  0  0  0  0  0  0  0  0  0
   35.3047   21.1088   37.8994 H   0  0  0  0  0  0  0  0  0  0  0  0
   34.0349   20.4624   36.8257 H   0  0  0  0  0  0  0  0  0  0  0  0
   42.6814   22.3017   37.5444 H   0  0  0  0  0  0  0  0  0  0  0  0
   43.1061   21.7610   35.9073 H   0  0  0  0  0  0  0  0  0  0  0  0
   44.2755   24.1631   38.2837 H   0  0  0  0  0  0  0  0  0  0  0  0
   45.3501   26.3828   37.1876 H   0  0  0  0  0  0  0  0  0  0  0  0
   46.1323   27.5362   35.5107 H   0  0  0  0  0  0  0  0  0  0  0  0
   46.6933   29.2570   33.8009 H   0  0  0  0  0  0  0  0  0  0  0  0
   43.6639   27.6354   31.3311 H   0  0  0  0  0  0  0  0  0  0  0  0
  1  5  2  0
  2  1  1  0
  2  3  2  0
  3  4  1  0
  4 13  1  0
  5  4  1  0
  6 11  2  0
  6  7  1  0
  7  8  2  0
  8  9  1  0
  8 12  1  0
 10  1  1  0
 10  9  2  0
 11 10  1  0
 14 13  1  0
 14 15  2  0
 16 15  1  0
 17 16  2  0
 18 17  1  0
 18 14  1  0
 19 20  2  0
 19 17  1  0
 21 20  1  0
 22 21  2  0
 23 22  1  0
 23 24  2  0
 24 19  1  0
  2 25  1  0
  3 26  1  0
  6 27  1  0
  7 28  1  0
 12 29  1  0
 12 30  1  0
 13 31  1  0
 13 32  1  0
 15 33  1  0
 16 34  1  0
 20 35  1  0
 21 36  1  0
 23 37  1  0
M  ISO  8  25  14  26  14  27  14  28  14  31   8  32   8  33  14  34  14
M  ISO  3  35  14  36  14  37  14
M  END
>  <minimizedAffinity>  (1) 
-4.99109459

>  <minimizedRMSD>  (1) 
1.45304728

$$$$
