
     RDKit          3D

 38 41  0  0  0  0  0  0  0  0999 V2000
   39.2120   22.4430   35.4860 C   0  0  0  0  0  0  0  0  0  0  0  0
   39.3580   23.8310   35.4190 C   0  0  0  0  0  0  0  0  0  0  0  0
   40.6920   24.0930   35.8120 C   0  0  0  0  0  0  0  0  0  0  0  0
   41.2540   22.8770   36.0850 N   0  0  0  0  0  0  0  0  0  0  0  0
   40.3830   21.8950   35.8950 N   0  0  0  0  0  0  0  0  0  0  0  0
   36.4080   21.0430   33.5330 C   0  0  0  0  0  0  0  0  0  0  0  0
   35.4680   20.7670   34.5030 C   0  0  0  0  0  0  0  0  0  0  0  0
   35.7950   21.0640   35.8510 C   0  0  0  0  0  0  0  0  0  0  0  0
   37.0110   21.6020   36.1130 N   0  0  0  0  0  0  0  0  0  0  0  0
   37.9180   21.8620   35.1320 C   0  0  0  0  0  0  0  0  0  0  0  0
   37.5780   21.5700   33.8700 N   0  0  0  0  0  0  0  0  0  0  0  0
   34.9600   20.8480   36.9610 N   0  0  0  0  0  0  0  0  0  0  0  0
   42.6330   22.6380   36.5330 C   0  0  0  0  0  0  0  0  0  0  0  0
   43.3830   23.8870   36.2740 C   0  0  0  0  0  0  0  0  0  0  0  0
   44.1860   24.5430   37.1860 C   0  0  0  0  0  0  0  0  0  0  0  0
   44.7230   25.6680   36.5970 C   0  0  0  0  0  0  0  0  0  0  0  0
   44.2080   25.6500   35.3140 C   0  0  0  0  0  0  0  0  0  0  0  0
   43.4480   24.6030   35.1940 O   0  0  0  0  0  0  0  0  0  0  0  0
   44.4220   26.5850   34.2320 C   0  0  0  0  0  0  0  0  0  0  0  0
   43.5610   26.6170   33.1750 C   0  0  0  0  0  0  0  0  0  0  0  0
   43.7730   27.5200   32.1370 C   0  0  0  0  0  0  0  0  0  0  0  0
   44.8510   28.3920   32.1610 C   0  0  0  0  0  0  0  0  0  0  0  0
   45.6990   28.3150   33.2650 C   0  0  0  0  0  0  0  0  0  0  0  0
   45.4720   27.4360   34.2520 N   0  0  0  0  0  0  0  0  0  0  0  0
   38.5954   24.5663   35.1227 H   0  0  0  0  0  0  0  0  0  0  0  0
   41.1787   25.0769   35.8834 H   0  0  0  0  0  0  0  0  0  0  0  0
   36.1875   20.8258   32.4774 H   0  0  0  0  0  0  0  0  0  0  0  0
   34.4937   20.3296   34.2396 H   0  0  0  0  0  0  0  0  0  0  0  0
   35.2853   21.0963   37.9062 H   0  0  0  0  0  0  0  0  0  0  0  0
   34.0229   20.4414   36.8291 H   0  0  0  0  0  0  0  0  0  0  0  0
   42.6477   22.4020   37.6073 H   0  0  0  0  0  0  0  0  0  0  0  0
   43.0821   21.7872   35.9996 H   0  0  0  0  0  0  0  0  0  0  0  0
   44.3687   24.2186   38.2211 H   0  0  0  0  0  0  0  0  0  0  0  0
   45.4032   26.4080   37.0440 H   0  0  0  0  0  0  0  0  0  0  0  0
   42.7015   25.9313   33.1427 H   0  0  0  0  0  0  0  0  0  0  0  0
   43.0760   27.5422   31.2863 H   0  0  0  0  0  0  0  0  0  0  0  0
   45.0287   29.1106   31.3473 H   0  0  0  0  0  0  0  0  0  0  0  0
   46.5683   28.9861   33.3274 H   0  0  0  0  0  0  0  0  0  0  0  0
  1  5  2  0
  2  1  1  0
  2  3  2  0
  3  4  1  0
  4 13  1  0
  5  4  1  0
  6 11  2  0
  6  7  1  0
  7  8  2  0
  8  9  1  0
  8 12  1  0
 10  1  1  0
 10  9  2  0
 11 10  1  0
 14 13  1  0
 14 15  2  0
 16 15  1  0
 17 16  2  0
 18 17  1  0
 18 14  1  0
 19 24  1  0
 19 17  1  0
 20 19  2  0
 21 22  2  0
 21 20  1  0
 22 23  1  0
 23 24  2  0
  2 25  1  0
  3 26  1  0
  6 27  1  0
  7 28  1  0
 12 29  1  0
 12 30  1  0
 13 31  1  0
 13 32  1  0
 15 33  1  0
 16 34  1  0
 20 35  1  0
 21 36  1  0
 22 37  1  0
 23 38  1  0
M  ISO  8  25  14  26  14  27  14  28  14  31   8  32   8  33  14  34  14
M  ISO  4  35  14  36  14  37  14  38  14
M  END
>  <minimizedAffinity>  (1) 
-4.94745636

>  <minimizedRMSD>  (1) 
1.29078686

$$$$
