
     RDKit          3D

 45 48  0  0  0  0  0  0  0  0999 V2000
   39.1840   22.4620   35.5000 C   0  0  0  0  0  0  0  0  0  0  0  0
   39.3420   23.8420   35.4020 C   0  0  0  0  0  0  0  0  0  0  0  0
   40.6700   24.1160   35.8080 C   0  0  0  0  0  0  0  0  0  0  0  0
   41.2240   22.9060   36.1220 N   0  0  0  0  0  0  0  0  0  0  0  0
   40.3570   21.9220   35.9440 N   0  0  0  0  0  0  0  0  0  0  0  0
   36.4010   21.0370   33.5510 C   0  0  0  0  0  0  0  0  0  0  0  0
   35.4610   20.7530   34.5140 C   0  0  0  0  0  0  0  0  0  0  0  0
   35.7830   21.0530   35.8470 C   0  0  0  0  0  0  0  0  0  0  0  0
   36.9990   21.6050   36.1130 N   0  0  0  0  0  0  0  0  0  0  0  0
   37.9060   21.8730   35.1440 C   0  0  0  0  0  0  0  0  0  0  0  0
   37.5710   21.5770   33.8870 N   0  0  0  0  0  0  0  0  0  0  0  0
   34.9460   20.8320   36.9690 N   0  0  0  0  0  0  0  0  0  0  0  0
   42.5860   22.6880   36.5930 C   0  0  0  0  0  0  0  0  0  0  0  0
   43.3750   23.9080   36.2600 C   0  0  0  0  0  0  0  0  0  0  0  0
   44.1700   24.5860   37.1560 C   0  0  0  0  0  0  0  0  0  0  0  0
   44.7280   25.6550   36.4580 C   0  0  0  0  0  0  0  0  0  0  0  0
   44.2460   25.5750   35.1710 C   0  0  0  0  0  0  0  0  0  0  0  0
   43.4560   24.5230   35.1240 O   0  0  0  0  0  0  0  0  0  0  0  0
   44.6060   26.5460   34.0860 C   0  0  0  0  0  0  0  0  0  0  0  0
   45.3670   25.8670   32.9860 C   0  0  0  0  0  0  0  0  0  0  0  0
   46.7820   25.5350   33.3430 C   0  0  0  0  0  0  0  0  0  0  0  0
   47.4870   26.7240   33.9320 C   0  0  0  0  0  0  0  0  0  0  0  0
   46.6460   27.9900   33.8430 C   0  0  0  0  0  0  0  0  0  0  0  0
   45.3580   27.7360   34.5800 C   0  0  0  0  0  0  0  0  0  0  0  0
   38.5870   24.5721   35.0750 H   0  0  0  0  0  0  0  0  0  0  0  0
   41.1568   25.1010   35.8602 H   0  0  0  0  0  0  0  0  0  0  0  0
   36.1847   20.8164   32.4953 H   0  0  0  0  0  0  0  0  0  0  0  0
   34.4912   20.3066   34.2490 H   0  0  0  0  0  0  0  0  0  0  0  0
   35.2717   21.0861   37.9125 H   0  0  0  0  0  0  0  0  0  0  0  0
   34.0119   20.4172   36.8410 H   0  0  0  0  0  0  0  0  0  0  0  0
   42.5859   22.5260   37.6810 H   0  0  0  0  0  0  0  0  0  0  0  0
   43.0244   21.8000   36.1142 H   0  0  0  0  0  0  0  0  0  0  0  0
   44.3327   24.3337   38.2142 H   0  0  0  0  0  0  0  0  0  0  0  0
   45.4178   26.4134   36.8568 H   0  0  0  0  0  0  0  0  0  0  0  0
   43.6511   26.9203   33.6884 H   0  0  0  0  0  0  0  0  0  0  0  0
   45.3778   26.5326   32.1103 H   0  0  0  0  0  0  0  0  0  0  0  0
   44.8561   24.9137   32.7856 H   0  0  0  0  0  0  0  0  0  0  0  0
   46.7841   24.7164   34.0777 H   0  0  0  0  0  0  0  0  0  0  0  0
   47.3113   25.2349   32.4266 H   0  0  0  0  0  0  0  0  0  0  0  0
   47.7070   26.5178   34.9899 H   0  0  0  0  0  0  0  0  0  0  0  0
   48.4103   26.8894   33.3575 H   0  0  0  0  0  0  0  0  0  0  0  0
   47.1836   28.8303   34.3065 H   0  0  0  0  0  0  0  0  0  0  0  0
   46.4449   28.2461   32.7923 H   0  0  0  0  0  0  0  0  0  0  0  0
   44.7154   28.6221   34.4708 H   0  0  0  0  0  0  0  0  0  0  0  0
   45.6232   27.5347   35.6284 H   0  0  0  0  0  0  0  0  0  0  0  0
  1  5  2  0
  2  1  1  0
  2  3  2  0
  3  4  1  0
  4 13  1  0
  5  4  1  0
  6 11  2  0
  6  7  1  0
  7  8  2  0
  8  9  1  0
  8 12  1  0
 10  1  1  0
 10  9  2  0
 11 10  1  0
 14 13  1  0
 14 15  2  0
 16 15  1  0
 17 16  2  0
 18 17  1  0
 18 14  1  0
 19 24  1  0
 19 17  1  0
 20 21  1  0
 20 19  1  0
 21 22  1  0
 23 22  1  0
 23 24  1  0
  2 25  1  0
  3 26  1  0
  6 27  1  0
  7 28  1  0
 12 29  1  0
 12 30  1  0
 13 31  1  0
 13 32  1  0
 15 33  1  0
 16 34  1  0
 19 35  1  0
 20 36  1  0
 20 37  1  0
 21 38  1  0
 21 39  1  0
 22 40  1  0
 22 41  1  0
 23 42  1  0
 23 43  1  0
 24 44  1  0
 24 45  1  0
M  ISO  8  25  14  26  14  27  14  28  14  31   8  32   8  33  14  34  14
M  ISO  8  35  13  36  13  37  13  38  13  39  13  40  13  41  13  42  13
M  ISO  3  43  13  44  13  45  13
M  END
>  <minimizedAffinity>  (1) 
-4.93292427

>  <minimizedRMSD>  (1) 
1.38017178

$$$$
