
     RDKit          3D

 36 39  0  0  0  0  0  0  0  0999 V2000
   39.2130   22.4750   35.5000 C   0  0  0  0  0  0  0  0  0  0  0  0
   39.3800   23.8500   35.3840 C   0  0  0  0  0  0  0  0  0  0  0  0
   40.7240   24.0870   35.7930 C   0  0  0  0  0  0  0  0  0  0  0  0
   41.2580   22.8800   36.1200 N   0  0  0  0  0  0  0  0  0  0  0  0
   40.3710   21.9030   35.9510 N   0  0  0  0  0  0  0  0  0  0  0  0
   36.4190   21.0470   33.5500 C   0  0  0  0  0  0  0  0  0  0  0  0
   35.4840   20.7700   34.5120 C   0  0  0  0  0  0  0  0  0  0  0  0
   35.8050   21.0730   35.8420 C   0  0  0  0  0  0  0  0  0  0  0  0
   37.0210   21.6250   36.1210 N   0  0  0  0  0  0  0  0  0  0  0  0
   37.9250   21.8870   35.1520 C   0  0  0  0  0  0  0  0  0  0  0  0
   37.5820   21.5830   33.8840 N   0  0  0  0  0  0  0  0  0  0  0  0
   34.9610   20.8450   36.9570 N   0  0  0  0  0  0  0  0  0  0  0  0
   42.6170   22.6420   36.5930 C   0  0  0  0  0  0  0  0  0  0  0  0
   43.4000   23.8710   36.2920 C   0  0  0  0  0  0  0  0  0  0  0  0
   44.1430   24.5900   37.2230 C   0  0  0  0  0  0  0  0  0  0  0  0
   44.7260   25.6610   36.5790 C   0  0  0  0  0  0  0  0  0  0  0  0
   44.3050   25.5420   35.2730 C   0  0  0  0  0  0  0  0  0  0  0  0
   43.5430   24.4910   35.1640 O   0  0  0  0  0  0  0  0  0  0  0  0
   44.6810   26.4680   34.2130 C   0  0  0  0  0  0  0  0  0  0  0  0
   45.3580   27.6640   34.3800 C   0  0  0  0  0  0  0  0  0  0  0  0
   45.5180   28.2420   33.1320 C   0  0  0  0  0  0  0  0  0  0  0  0
   44.9250   27.3550   32.2630 C   0  0  0  0  0  0  0  0  0  0  0  0
   44.4410   26.3210   32.9330 O   0  0  0  0  0  0  0  0  0  0  0  0
   38.6387   24.5910   35.0503 H   0  0  0  0  0  0  0  0  0  0  0  0
   41.2330   25.0612   35.8361 H   0  0  0  0  0  0  0  0  0  0  0  0
   36.2022   20.8229   32.4951 H   0  0  0  0  0  0  0  0  0  0  0  0
   34.5132   20.3244   34.2492 H   0  0  0  0  0  0  0  0  0  0  0  0
   35.2782   21.0990   37.9035 H   0  0  0  0  0  0  0  0  0  0  0  0
   34.0303   20.4252   36.8211 H   0  0  0  0  0  0  0  0  0  0  0  0
   42.6127   22.4519   37.6764 H   0  0  0  0  0  0  0  0  0  0  0  0
   43.0578   21.7632   36.0996 H   0  0  0  0  0  0  0  0  0  0  0  0
   44.2475   24.3458   38.2905 H   0  0  0  0  0  0  0  0  0  0  0  0
   45.3787   26.4343   37.0102 H   0  0  0  0  0  0  0  0  0  0  0  0
   45.7073   28.0816   35.3358 H   0  0  0  0  0  0  0  0  0  0  0  0
   46.0089   29.1961   32.8896 H   0  0  0  0  0  0  0  0  0  0  0  0
   44.8624   27.4859   31.1726 H   0  0  0  0  0  0  0  0  0  0  0  0
  1  5  2  0
  2  1  1  0
  2  3  2  0
  3  4  1  0
  4 13  1  0
  5  4  1  0
  6 11  2  0
  6  7  1  0
  7  8  2  0
  8  9  1  0
  8 12  1  0
 10  1  1  0
 10  9  2  0
 11 10  1  0
 14 13  1  0
 14 15  2  0
 16 15  1  0
 17 16  2  0
 18 17  1  0
 18 14  1  0
 19 20  2  0
 19 17  1  0
 21 20  1  0
 22 23  1  0
 22 21  2  0
 23 19  1  0
  2 24  1  0
  3 25  1  0
  6 26  1  0
  7 27  1  0
 12 28  1  0
 12 29  1  0
 13 30  1  0
 13 31  1  0
 15 32  1  0
 16 33  1  0
 20 34  1  0
 21 35  1  0
 22 36  1  0
M  ISO  8  24  14  25  14  26  14  27  14  30   8  31   8  32  14  33  14
M  ISO  3  34  14  35  14  36  14
M  END
>  <minimizedAffinity>  (1) 
-4.86739159

>  <minimizedRMSD>  (1) 
1.02768958

$$$$
