
     RDKit          3D

 34 37  0  0  0  0  0  0  0  0999 V2000
   39.2260   22.4350   35.4960 C   0  0  0  0  0  0  0  0  0  0  0  0
   39.3960   23.8110   35.3990 C   0  0  0  0  0  0  0  0  0  0  0  0
   40.7230   24.0800   35.8050 C   0  0  0  0  0  0  0  0  0  0  0  0
   41.2670   22.8720   36.1180 N   0  0  0  0  0  0  0  0  0  0  0  0
   40.3880   21.8830   35.9390 N   0  0  0  0  0  0  0  0  0  0  0  0
   36.4160   21.0550   33.5350 C   0  0  0  0  0  0  0  0  0  0  0  0
   35.4790   20.7800   34.4940 C   0  0  0  0  0  0  0  0  0  0  0  0
   35.8050   21.0690   35.8380 C   0  0  0  0  0  0  0  0  0  0  0  0
   37.0250   21.5990   36.0920 N   0  0  0  0  0  0  0  0  0  0  0  0
   37.9330   21.8620   35.1350 C   0  0  0  0  0  0  0  0  0  0  0  0
   37.5890   21.5760   33.8790 N   0  0  0  0  0  0  0  0  0  0  0  0
   34.9650   20.8530   36.9610 N   0  0  0  0  0  0  0  0  0  0  0  0
   42.6270   22.6340   36.5920 C   0  0  0  0  0  0  0  0  0  0  0  0
   43.4020   23.8710   36.3090 C   0  0  0  0  0  0  0  0  0  0  0  0
   44.1530   24.5650   37.2400 C   0  0  0  0  0  0  0  0  0  0  0  0
   44.7250   25.6520   36.6120 C   0  0  0  0  0  0  0  0  0  0  0  0
   44.2900   25.5730   35.3040 C   0  0  0  0  0  0  0  0  0  0  0  0
   43.5270   24.5200   35.1860 O   0  0  0  0  0  0  0  0  0  0  0  0
   44.5230   26.4020   34.1240 C   0  0  0  0  0  0  0  0  0  0  0  0
   44.2120   26.0960   32.8560 N   0  0  0  0  0  0  0  0  0  0  0  0
   44.5770   27.0890   32.1030 O   0  0  0  0  0  0  0  0  0  0  0  0
   45.1160   28.0260   32.8600 C   0  0  0  0  0  0  0  0  0  0  0  0
   45.0970   27.6210   34.1500 N   0  0  0  0  0  0  0  0  0  0  0  0
   38.6459   24.5457   35.0710 H   0  0  0  0  0  0  0  0  0  0  0  0
   41.2146   25.0626   35.8572 H   0  0  0  0  0  0  0  0  0  0  0  0
   36.1977   20.8444   32.4777 H   0  0  0  0  0  0  0  0  0  0  0  0
   34.5034   20.3478   34.2269 H   0  0  0  0  0  0  0  0  0  0  0  0
   35.2950   21.0976   37.9056 H   0  0  0  0  0  0  0  0  0  0  0  0
   34.0253   20.4516   36.8316 H   0  0  0  0  0  0  0  0  0  0  0  0
   42.6212   22.4295   37.6728 H   0  0  0  0  0  0  0  0  0  0  0  0
   43.0741   21.7638   36.0892 H   0  0  0  0  0  0  0  0  0  0  0  0
   44.2736   24.2963   38.2998 H   0  0  0  0  0  0  0  0  0  0  0  0
   45.3828   26.4139   37.0556 H   0  0  0  0  0  0  0  0  0  0  0  0
   45.5171   28.9845   32.4989 H   0  0  0  0  0  0  0  0  0  0  0  0
  1  5  2  0
  2  1  1  0
  2  3  2  0
  3  4  1  0
  4 13  1  0
  5  4  1  0
  6 11  2  0
  6  7  1  0
  7  8  2  0
  8  9  1  0
  8 12  1  0
 10  1  1  0
 10  9  2  0
 11 10  1  0
 14 13  1  0
 14 15  2  0
 16 15  1  0
 17 16  2  0
 18 17  1  0
 18 14  1  0
 19 23  1  0
 19 17  1  0
 20 19  2  0
 21 20  1  0
 21 22  1  0
 22 23  2  0
  2 24  1  0
  3 25  1  0
  6 26  1  0
  7 27  1  0
 12 28  1  0
 12 29  1  0
 13 30  1  0
 13 31  1  0
 15 32  1  0
 16 33  1  0
 22 34  1  0
M  ISO  8  24  14  25  14  26  14  27  14  30   8  31   8  32  14  33  14
M  ISO  1  34  14
M  END
>  <minimizedAffinity>  (1) 
-4.78866768

>  <minimizedRMSD>  (1) 
1.06472552

$$$$
