
     RDKit          3D

 36 39  0  0  0  0  0  0  0  0999 V2000
   39.1860   22.4720   35.5160 C   0  0  0  0  0  0  0  0  0  0  0  0
   39.3500   23.8490   35.3690 C   0  0  0  0  0  0  0  0  0  0  0  0
   40.6730   24.1380   35.7850 C   0  0  0  0  0  0  0  0  0  0  0  0
   41.2160   22.9290   36.1510 N   0  0  0  0  0  0  0  0  0  0  0  0
   40.3440   21.9480   35.9950 N   0  0  0  0  0  0  0  0  0  0  0  0
   36.4080   21.0420   33.5490 C   0  0  0  0  0  0  0  0  0  0  0  0
   35.4680   20.7590   34.5170 C   0  0  0  0  0  0  0  0  0  0  0  0
   35.7870   21.0590   35.8660 C   0  0  0  0  0  0  0  0  0  0  0  0
   36.9990   21.6100   36.1200 N   0  0  0  0  0  0  0  0  0  0  0  0
   37.9060   21.8810   35.1590 C   0  0  0  0  0  0  0  0  0  0  0  0
   37.5760   21.5840   33.8880 N   0  0  0  0  0  0  0  0  0  0  0  0
   34.9480   20.8340   36.9620 N   0  0  0  0  0  0  0  0  0  0  0  0
   42.5780   22.7130   36.6550 C   0  0  0  0  0  0  0  0  0  0  0  0
   43.3750   23.9050   36.2460 C   0  0  0  0  0  0  0  0  0  0  0  0
   44.1550   24.6730   37.0960 C   0  0  0  0  0  0  0  0  0  0  0  0
   44.7370   25.6820   36.3610 C   0  0  0  0  0  0  0  0  0  0  0  0
   44.2670   25.4730   35.0600 C   0  0  0  0  0  0  0  0  0  0  0  0
   43.4870   24.4360   35.0540 O   0  0  0  0  0  0  0  0  0  0  0  0
   44.5890   26.2690   33.9110 N   0  0  0  0  0  0  0  0  0  0  0  0
   44.4830   25.8970   32.6590 N   0  0  0  0  0  0  0  0  0  0  0  0
   44.8560   26.8530   31.7980 C   0  0  0  0  0  0  0  0  0  0  0  0
   45.2320   27.9220   32.5580 C   0  0  0  0  0  0  0  0  0  0  0  0
   45.0570   27.5330   33.8690 C   0  0  0  0  0  0  0  0  0  0  0  0
   38.6016   24.5673   35.0031 H   0  0  0  0  0  0  0  0  0  0  0  0
   41.1629   25.1226   35.8100 H   0  0  0  0  0  0  0  0  0  0  0  0
   36.1925   20.8194   32.4935 H   0  0  0  0  0  0  0  0  0  0  0  0
   34.4983   20.3133   34.2507 H   0  0  0  0  0  0  0  0  0  0  0  0
   35.2621   21.0833   37.9107 H   0  0  0  0  0  0  0  0  0  0  0  0
   34.0160   20.4190   36.8205 H   0  0  0  0  0  0  0  0  0  0  0  0
   42.5674   22.6209   37.7511 H   0  0  0  0  0  0  0  0  0  0  0  0
   43.0103   21.7869   36.2483 H   0  0  0  0  0  0  0  0  0  0  0  0
   44.2870   24.5051   38.1751 H   0  0  0  0  0  0  0  0  0  0  0  0
   45.4159   26.4714   36.7157 H   0  0  0  0  0  0  0  0  0  0  0  0
   44.8586   26.7891   30.6999 H   0  0  0  0  0  0  0  0  0  0  0  0
   45.5993   28.8945   32.1985 H   0  0  0  0  0  0  0  0  0  0  0  0
   45.2674   28.1594   34.7484 H   0  0  0  0  0  0  0  0  0  0  0  0
  1  5  2  0
  2  1  1  0
  2  3  2  0
  3  4  1  0
  4 13  1  0
  5  4  1  0
  6 11  2  0
  6  7  1  0
  7  8  2  0
  8  9  1  0
  8 12  1  0
 10  1  1  0
 10  9  2  0
 11 10  1  0
 14 13  1  0
 14 15  2  0
 16 15  1  0
 17 16  2  0
 18 17  1  0
 18 14  1  0
 19 17  1  0
 20 19  1  0
 21 22  1  0
 21 20  2  0
 22 23  2  0
 23 19  1  0
  2 24  1  0
  3 25  1  0
  6 26  1  0
  7 27  1  0
 12 28  1  0
 12 29  1  0
 13 30  1  0
 13 31  1  0
 15 32  1  0
 16 33  1  0
 21 34  1  0
 22 35  1  0
 23 36  1  0
M  ISO  8  24  14  25  14  26  14  27  14  30   8  31   8  32  14  33  14
M  ISO  3  34  14  35  14  36  14
M  END
>  <minimizedAffinity>  (1) 
-4.76034498

>  <minimizedRMSD>  (1) 
0.868911624

$$$$
