
     RDKit          3D

 30 32  0  0  0  0  0  0  0  0999 V2000
   39.1170   22.5730   35.4770 C   0  0  0  0  0  0  0  0  0  0  0  0
   39.2620   23.9360   35.2490 C   0  0  0  0  0  0  0  0  0  0  0  0
   40.5820   24.2530   35.6850 C   0  0  0  0  0  0  0  0  0  0  0  0
   41.1290   23.0940   36.1360 N   0  0  0  0  0  0  0  0  0  0  0  0
   40.2720   22.0790   36.0210 N   0  0  0  0  0  0  0  0  0  0  0  0
   36.3900   20.9920   33.5500 C   0  0  0  0  0  0  0  0  0  0  0  0
   35.4620   20.6960   34.5230 C   0  0  0  0  0  0  0  0  0  0  0  0
   35.7680   21.0380   35.8500 C   0  0  0  0  0  0  0  0  0  0  0  0
   36.9580   21.6390   36.0980 N   0  0  0  0  0  0  0  0  0  0  0  0
   37.8610   21.9250   35.1330 C   0  0  0  0  0  0  0  0  0  0  0  0
   37.5470   21.5880   33.8670 N   0  0  0  0  0  0  0  0  0  0  0  0
   34.9400   20.8120   36.9720 N   0  0  0  0  0  0  0  0  0  0  0  0
   42.4690   22.9410   36.6790 C   0  0  0  0  0  0  0  0  0  0  0  0
   43.3240   23.9640   36.0400 C   0  0  0  0  0  0  0  0  0  0  0  0
   44.0770   24.9100   36.7070 C   0  0  0  0  0  0  0  0  0  0  0  0
   44.7350   25.6810   35.7750 C   0  0  0  0  0  0  0  0  0  0  0  0
   44.3490   25.1610   34.5510 C   0  0  0  0  0  0  0  0  0  0  0  0
   43.5350   24.1740   34.7770 O   0  0  0  0  0  0  0  0  0  0  0  0
   44.7280   25.5600   32.8520 S   0  0  0  0  0  0  0  0  0  0  0  0
   38.5170   24.6240   34.8228 H   0  0  0  0  0  0  0  0  0  0  0  0
   41.0631   25.2419   35.6609 H   0  0  0  0  0  0  0  0  0  0  0  0
   36.1791   20.7363   32.5011 H   0  0  0  0  0  0  0  0  0  0  0  0
   34.5102   20.2067   34.2687 H   0  0  0  0  0  0  0  0  0  0  0  0
   35.2537   21.0999   37.9099 H   0  0  0  0  0  0  0  0  0  0  0  0
   34.0226   20.3593   36.8522 H   0  0  0  0  0  0  0  0  0  0  0  0
   42.4527   23.0917   37.7685 H   0  0  0  0  0  0  0  0  0  0  0  0
   42.8562   21.9310   36.4792 H   0  0  0  0  0  0  0  0  0  0  0  0
   44.1405   25.0278   37.7988 H   0  0  0  0  0  0  0  0  0  0  0  0
   45.4167   26.5239   35.9616 H   0  0  0  0  0  0  0  0  0  0  0  0
   45.6712   26.5530   32.8156 H   0  0  0  0  0  0  0  0  0  0  0  0
  1  5  2  0
  2  1  1  0
  2  3  2  0
  3  4  1  0
  4 13  1  0
  5  4  1  0
  6 11  2  0
  6  7  1  0
  7  8  2  0
  8  9  1  0
  8 12  1  0
 10  1  1  0
 10  9  2  0
 11 10  1  0
 14 13  1  0
 14 15  2  0
 16 15  1  0
 17 18  1  0
 17 16  2  0
 18 14  1  0
 19 17  1  0
  2 20  1  0
  3 21  1  0
  6 22  1  0
  7 23  1  0
 12 24  1  0
 12 25  1  0
 13 26  1  0
 13 27  1  0
 15 28  1  0
 16 29  1  0
 19 30  1  0
M  ISO  8  20  14  21  14  22  14  23  14  26   8  27   8  28  14  29  14
M  ISO  1  30  11
M  END
>  <minimizedAffinity>  (1) 
-4.54098558

>  <minimizedRMSD>  (1) 
0.116683312

$$$$
