
     RDKit          3D

 38 40  0  0  0  0  0  0  0  0999 V2000
   39.1180   22.5660   35.4780 C   0  0  0  0  0  0  0  0  0  0  0  0
   39.2640   23.9320   35.2600 C   0  0  0  0  0  0  0  0  0  0  0  0
   40.5730   24.2650   35.6800 C   0  0  0  0  0  0  0  0  0  0  0  0
   41.1330   23.0950   36.1220 N   0  0  0  0  0  0  0  0  0  0  0  0
   40.2790   22.0830   36.0060 N   0  0  0  0  0  0  0  0  0  0  0  0
   36.3860   20.9970   33.5530 C   0  0  0  0  0  0  0  0  0  0  0  0
   35.4610   20.7010   34.5210 C   0  0  0  0  0  0  0  0  0  0  0  0
   35.7640   21.0390   35.8570 C   0  0  0  0  0  0  0  0  0  0  0  0
   36.9610   21.6390   36.1020 N   0  0  0  0  0  0  0  0  0  0  0  0
   37.8560   21.9210   35.1380 C   0  0  0  0  0  0  0  0  0  0  0  0
   37.5320   21.5840   33.8740 N   0  0  0  0  0  0  0  0  0  0  0  0
   34.9370   20.8110   36.9740 N   0  0  0  0  0  0  0  0  0  0  0  0
   42.4890   22.9230   36.6600 C   0  0  0  0  0  0  0  0  0  0  0  0
   43.3280   23.9790   36.0180 C   0  0  0  0  0  0  0  0  0  0  0  0
   44.0980   24.9030   36.7160 C   0  0  0  0  0  0  0  0  0  0  0  0
   44.7260   25.7080   35.7870 C   0  0  0  0  0  0  0  0  0  0  0  0
   44.3060   25.2310   34.5440 C   0  0  0  0  0  0  0  0  0  0  0  0
   43.5020   24.2340   34.7610 O   0  0  0  0  0  0  0  0  0  0  0  0
   44.7290   25.7950   33.2360 C   0  0  0  0  0  0  0  0  0  0  0  0
   45.0710   27.2750   33.3630 C   0  0  0  0  0  0  0  0  0  0  0  0
   43.6430   25.6870   32.1980 C   0  0  0  0  0  0  0  0  0  0  0  0
   38.5110   24.6173   34.8436 H   0  0  0  0  0  0  0  0  0  0  0  0
   41.0444   25.2586   35.6566 H   0  0  0  0  0  0  0  0  0  0  0  0
   36.1765   20.7460   32.5027 H   0  0  0  0  0  0  0  0  0  0  0  0
   34.5092   20.2136   34.2632 H   0  0  0  0  0  0  0  0  0  0  0  0
   35.2498   21.0958   37.9131 H   0  0  0  0  0  0  0  0  0  0  0  0
   34.0193   20.3595   36.8518 H   0  0  0  0  0  0  0  0  0  0  0  0
   42.4850   23.0508   37.7525 H   0  0  0  0  0  0  0  0  0  0  0  0
   42.8798   21.9166   36.4489 H   0  0  0  0  0  0  0  0  0  0  0  0
   44.1899   24.9786   37.8095 H   0  0  0  0  0  0  0  0  0  0  0  0
   45.4108   26.5460   35.9839 H   0  0  0  0  0  0  0  0  0  0  0  0
   45.6081   25.2103   32.9272 H   0  0  0  0  0  0  0  0  0  0  0  0
   45.1338   27.5468   34.4270 H   0  0  0  0  0  0  0  0  0  0  0  0
   46.0381   27.4709   32.8768 H   0  0  0  0  0  0  0  0  0  0  0  0
   44.2879   27.8753   32.8768 H   0  0  0  0  0  0  0  0  0  0  0  0
   42.6674   25.5900   32.6968 H   0  0  0  0  0  0  0  0  0  0  0  0
   43.6453   26.5898   31.5696 H   0  0  0  0  0  0  0  0  0  0  0  0
   43.8231   24.8023   31.5696 H   0  0  0  0  0  0  0  0  0  0  0  0
  1  5  2  0
  2  1  1  0
  2  3  2  0
  3  4  1  0
  4 13  1  0
  5  4  1  0
  6 11  2  0
  6  7  1  0
  7  8  2  0
  8  9  1  0
  8 12  1  0
 10  1  1  0
 10  9  2  0
 11 10  1  0
 14 13  1  0
 14 15  2  0
 16 15  1  0
 17 18  1  0
 17 16  2  0
 18 14  1  0
 19 20  1  0
 19 17  1  0
 21 19  1  0
  2 22  1  0
  3 23  1  0
  6 24  1  0
  7 25  1  0
 12 26  1  0
 12 27  1  0
 13 28  1  0
 13 29  1  0
 15 30  1  0
 16 31  1  0
 19 32  1  0
 20 33  1  0
 20 34  1  0
 20 35  1  0
 21 36  1  0
 21 37  1  0
 21 38  1  0
M  ISO  8  22  14  23  14  24  14  25  14  28   8  29   8  30  14  31  14
M  ISO  7  32   8  33   8  34   8  35   8  36   8  37   8  38   8
M  END
>  <minimizedAffinity>  (1) 
-4.51600552

>  <minimizedRMSD>  (1) 
0.192303732

$$$$
