
     RDKit          3D

 30 32  0  0  0  0  0  0  0  0999 V2000
   39.1090   22.5800   35.4740 C   0  0  0  0  0  0  0  0  0  0  0  0
   39.2260   23.9590   35.2180 C   0  0  0  0  0  0  0  0  0  0  0  0
   40.5330   24.3190   35.6500 C   0  0  0  0  0  0  0  0  0  0  0  0
   41.1010   23.1630   36.1250 N   0  0  0  0  0  0  0  0  0  0  0  0
   40.2620   22.1460   36.0200 N   0  0  0  0  0  0  0  0  0  0  0  0
   36.3890   20.9870   33.5540 C   0  0  0  0  0  0  0  0  0  0  0  0
   35.4620   20.6890   34.5260 C   0  0  0  0  0  0  0  0  0  0  0  0
   35.7690   21.0380   35.8600 C   0  0  0  0  0  0  0  0  0  0  0  0
   36.9600   21.6480   36.1170 N   0  0  0  0  0  0  0  0  0  0  0  0
   37.8530   21.9260   35.1270 C   0  0  0  0  0  0  0  0  0  0  0  0
   37.5280   21.5820   33.8770 N   0  0  0  0  0  0  0  0  0  0  0  0
   34.9370   20.8070   36.9680 N   0  0  0  0  0  0  0  0  0  0  0  0
   42.4460   23.0420   36.6760 C   0  0  0  0  0  0  0  0  0  0  0  0
   43.3040   24.0190   35.9520 C   0  0  0  0  0  0  0  0  0  0  0  0
   44.0440   25.0280   36.5550 C   0  0  0  0  0  0  0  0  0  0  0  0
   44.7060   25.7210   35.5640 C   0  0  0  0  0  0  0  0  0  0  0  0
   44.3340   25.0940   34.3740 C   0  0  0  0  0  0  0  0  0  0  0  0
   43.5180   24.1120   34.6740 O   0  0  0  0  0  0  0  0  0  0  0  0
   44.6670   25.3300   33.0360 O   0  0  0  0  0  0  0  0  0  0  0  0
   38.4659   24.6202   34.7763 H   0  0  0  0  0  0  0  0  0  0  0  0
   40.9932   25.3173   35.6114 H   0  0  0  0  0  0  0  0  0  0  0  0
   36.1837   20.7302   32.5043 H   0  0  0  0  0  0  0  0  0  0  0  0
   34.5124   20.1949   34.2726 H   0  0  0  0  0  0  0  0  0  0  0  0
   35.2408   21.0950   37.9091 H   0  0  0  0  0  0  0  0  0  0  0  0
   34.0231   20.3496   36.8393 H   0  0  0  0  0  0  0  0  0  0  0  0
   42.4356   23.2731   37.7514 H   0  0  0  0  0  0  0  0  0  0  0  0
   42.8290   22.0181   36.5537 H   0  0  0  0  0  0  0  0  0  0  0  0
   44.0932   25.2374   37.6338 H   0  0  0  0  0  0  0  0  0  0  0  0
   45.3808   26.5812   35.6850 H   0  0  0  0  0  0  0  0  0  0  0  0
   45.2823   26.0694   32.8020 H   0  0  0  0  0  0  0  0  0  0  0  0
  1  5  2  0
  2  1  1  0
  2  3  2  0
  3  4  1  0
  4 13  1  0
  5  4  1  0
  6 11  2  0
  6  7  1  0
  7  8  2  0
  8  9  1  0
  8 12  1  0
 10  1  1  0
 10  9  2  0
 11 10  1  0
 14 15  2  0
 14 13  1  0
 16 15  1  0
 17 18  1  0
 17 16  2  0
 18 14  1  0
 19 17  1  0
  2 20  1  0
  3 21  1  0
  6 22  1  0
  7 23  1  0
 12 24  1  0
 12 25  1  0
 13 26  1  0
 13 27  1  0
 15 28  1  0
 16 29  1  0
 19 30  1  0
M  ISO  8  20  14  21  14  22  14  23  14  26   8  27   8  28  14  29  14
M  ISO  1  30   3
M  END
>  <minimizedAffinity>  (1) 
-4.47736597

>  <minimizedRMSD>  (1) 
0.0148664452

$$$$
