
     RDKit          3D

 31 33  0  0  0  0  0  0  0  0999 V2000
   39.1270   22.5530   35.4780 C   0  0  0  0  0  0  0  0  0  0  0  0
   39.2610   23.9380   35.2470 C   0  0  0  0  0  0  0  0  0  0  0  0
   40.5710   24.2690   35.6860 C   0  0  0  0  0  0  0  0  0  0  0  0
   41.1220   23.1080   36.1350 N   0  0  0  0  0  0  0  0  0  0  0  0
   40.2740   22.0940   36.0150 N   0  0  0  0  0  0  0  0  0  0  0  0
   36.3950   21.0030   33.5450 C   0  0  0  0  0  0  0  0  0  0  0  0
   35.4640   20.7090   34.5310 C   0  0  0  0  0  0  0  0  0  0  0  0
   35.7710   21.0420   35.8670 C   0  0  0  0  0  0  0  0  0  0  0  0
   36.9660   21.6340   36.1090 N   0  0  0  0  0  0  0  0  0  0  0  0
   37.8630   21.9130   35.1210 C   0  0  0  0  0  0  0  0  0  0  0  0
   37.5430   21.5850   33.8650 N   0  0  0  0  0  0  0  0  0  0  0  0
   34.9410   20.8150   36.9680 N   0  0  0  0  0  0  0  0  0  0  0  0
   42.4650   22.9760   36.6810 C   0  0  0  0  0  0  0  0  0  0  0  0
   43.3200   23.9930   36.0270 C   0  0  0  0  0  0  0  0  0  0  0  0
   44.0670   24.9510   36.6880 C   0  0  0  0  0  0  0  0  0  0  0  0
   44.7250   25.7090   35.7440 C   0  0  0  0  0  0  0  0  0  0  0  0
   44.3410   25.1660   34.5210 C   0  0  0  0  0  0  0  0  0  0  0  0
   43.5300   24.1800   34.7590 O   0  0  0  0  0  0  0  0  0  0  0  0
   44.7840   25.6390   33.2070 C   0  0  0  0  0  0  0  0  0  0  0  0
   45.7910   26.4130   33.1370 O   0  0  0  0  0  0  0  0  0  0  0  0
   38.5102   24.6178   34.8178 H   0  0  0  0  0  0  0  0  0  0  0  0
   41.0440   25.2619   35.6670 H   0  0  0  0  0  0  0  0  0  0  0  0
   36.1804   20.7528   32.4955 H   0  0  0  0  0  0  0  0  0  0  0  0
   34.5084   20.2273   34.2767 H   0  0  0  0  0  0  0  0  0  0  0  0
   35.2490   21.0923   37.9110 H   0  0  0  0  0  0  0  0  0  0  0  0
   34.0212   20.3704   36.8366 H   0  0  0  0  0  0  0  0  0  0  0  0
   42.4458   23.1457   37.7677 H   0  0  0  0  0  0  0  0  0  0  0  0
   42.8583   21.9656   36.4954 H   0  0  0  0  0  0  0  0  0  0  0  0
   44.1257   25.0847   37.7783 H   0  0  0  0  0  0  0  0  0  0  0  0
   45.4042   26.5565   35.9184 H   0  0  0  0  0  0  0  0  0  0  0  0
   44.2536   25.3294   32.2944 H   0  0  0  0  0  0  0  0  0  0  0  0
  1  5  2  0
  2  1  1  0
  2  3  2  0
  3  4  1  0
  4 13  1  0
  5  4  1  0
  6 11  2  0
  6  7  1  0
  7  8  2  0
  8  9  1  0
  8 12  1  0
 10  1  1  0
 10  9  2  0
 11 10  1  0
 14 13  1  0
 14 15  2  0
 16 15  1  0
 17 18  1  0
 17 16  2  0
 18 14  1  0
 19 17  1  0
 20 19  2  0
  2 21  1  0
  3 22  1  0
  6 23  1  0
  7 24  1  0
 12 25  1  0
 12 26  1  0
 13 27  1  0
 13 28  1  0
 15 29  1  0
 16 30  1  0
 19 31  1  0
M  ISO  8  21  14  22  14  23  14  24  14  27   8  28   8  29  14  30  14
M  ISO  1  31   6
M  END
>  <minimizedAffinity>  (1) 
-4.38841629

>  <minimizedRMSD>  (1) 
0.209463179

$$$$
