
     RDKit          3D

 38 41  0  0  1  0  0  0  0  0999 V2000
   38.3690   23.6560   36.0570 N   0  0  0  0  0  0  0  0  0  0  0  0
   37.4310   24.0260   37.1280 C   0  0  0  0  0  0  0  0  0  0  0  0
   38.0910   23.4330   38.3640 C   0  0  0  0  0  0  0  0  0  0  0  0
   39.4940   23.0380   37.9210 C   0  0  0  0  0  0  0  0  0  0  0  0
   39.6100   23.9700   36.7020 C   0  0  1  0  0  0  0  0  0  0  0  0
   40.8360   23.7310   35.9590 C   0  0  0  0  0  0  0  0  0  0  0  0
   41.3370   24.4980   34.9330 C   0  0  0  0  0  0  0  0  0  0  0  0
   42.4940   24.2780   34.2220 C   0  0  0  0  0  0  0  0  0  0  0  0
   43.2670   23.1780   34.5380 C   0  0  0  0  0  0  0  0  0  0  0  0
   42.8290   22.3660   35.5510 C   0  0  0  0  0  0  0  0  0  0  0  0
   43.6340   21.2800   35.8250 C   0  0  0  0  0  0  0  0  0  0  0  0
   43.2820   20.3980   36.8190 C   0  0  0  0  0  0  0  0  0  0  0  0
   42.1360   20.6240   37.5180 C   0  0  0  0  0  0  0  0  0  0  0  0
   41.3680   21.7240   37.2040 C   0  0  0  0  0  0  0  0  0  0  0  0
   41.6580   22.6460   36.2240 C   0  0  0  0  0  0  0  0  0  0  0  0
   38.0630   23.1470   34.7690 C   0  0  0  0  0  0  0  0  0  0  0  0
   37.9640   21.7880   34.4900 C   0  0  0  0  0  0  0  0  0  0  0  0
   37.6660   21.4120   33.1740 C   0  0  0  0  0  0  0  0  0  0  0  0
   37.4880   22.4010   32.2410 N   0  0  0  0  0  0  0  0  0  0  0  0
   37.5910   23.7000   32.5510 C   0  0  0  0  0  0  0  0  0  0  0  0
   37.8760   24.0870   33.8020 N   0  0  0  0  0  0  0  0  0  0  0  0
   37.3364   25.1186   37.2135 H   0  0  0  0  0  0  0  0  0  0  0  0
   36.4073   23.6604   36.9597 H   0  0  0  0  0  0  0  0  0  0  0  0
   38.1376   24.1789   39.1711 H   0  0  0  0  0  0  0  0  0  0  0  0
   37.5280   22.5734   38.7567 H   0  0  0  0  0  0  0  0  0  0  0  0
   40.2503   23.2606   38.6881 H   0  0  0  0  0  0  0  0  0  0  0  0
   39.6525   21.9674   37.7244 H   0  0  0  0  0  0  0  0  0  0  0  0
   39.7165   25.0492   36.8864 H   0  0  0  0  0  0  0  0  0  0  0  0
   40.7487   25.3834   34.6503 H   0  0  0  0  0  0  0  0  0  0  0  0
   42.7974   24.9645   33.4179 H   0  0  0  0  0  0  0  0  0  0  0  0
   44.1997   22.9618   33.9965 H   0  0  0  0  0  0  0  0  0  0  0  0
   44.5570   21.1198   35.2485 H   0  0  0  0  0  0  0  0  0  0  0  0
   43.9141   19.5266   37.0451 H   0  0  0  0  0  0  0  0  0  0  0  0
   41.8277   19.9388   38.3214 H   0  0  0  0  0  0  0  0  0  0  0  0
   40.4466   21.8782   37.7847 H   0  0  0  0  0  0  0  0  0  0  0  0
   38.1147   21.0338   35.2764 H   0  0  0  0  0  0  0  0  0  0  0  0
   37.5771   20.3513   32.8963 H   0  0  0  0  0  0  0  0  0  0  0  0
   37.4398   24.4586   31.7690 H   0  0  0  0  0  0  0  0  0  0  0  0
  1  5  1  0
  1  2  1  0
  2  3  1  0
  4  3  1  0
  5  4  1  0
  6 15  1  0
  6  5  1  0
  7  6  2  0
  8  9  2  0
  8  7  1  0
  9 10  1  0
 10 11  1  0
 10 15  2  0
 11 12  2  0
 12 13  1  0
 14 13  2  0
 15 14  1  0
 16  1  1  0
 17 16  2  0
 18 17  1  0
 19 20  1  0
 19 18  2  0
 20 21  2  0
 21 16  1  0
  2 22  1  0
  2 23  1  0
  3 24  1  0
  3 25  1  0
  4 26  1  0
  4 27  1  0
  5 28  1  1
  7 29  1  0
  8 30  1  0
  9 31  1  0
 11 32  1  0
 12 33  1  0
 13 34  1  0
 14 35  1  0
 17 36  1  0
 18 37  1  0
 20 38  1  0
M  ISO  8  22  13  23  13  24  13  25  13  26  13  27  13  28  13  29  14
M  ISO  8  30  14  31  14  32  14  33  14  34  14  35  14  36  14  37  14
M  ISO  1  38  14
M  END
>  <minimizedAffinity>  (1) 
-4.89106607

>  <minimizedRMSD>  (1) 
1.12827277

$$$$
