
     RDKit          3D

 36 39  0  0  1  0  0  0  0  0999 V2000
   38.3720   23.6930   36.0530 N   0  0  0  0  0  0  0  0  0  0  0  0
   37.3670   23.9710   37.0870 C   0  0  0  0  0  0  0  0  0  0  0  0
   38.0600   23.3950   38.3220 C   0  0  0  0  0  0  0  0  0  0  0  0
   39.4720   23.0610   37.9050 C   0  0  0  0  0  0  0  0  0  0  0  0
   39.6340   23.9950   36.7220 C   0  0  1  0  0  0  0  0  0  0  0  0
   40.7990   23.6730   35.8770 C   0  0  0  0  0  0  0  0  0  0  0  0
   41.1470   24.4200   34.7900 N   0  0  0  0  0  0  0  0  0  0  0  0
   42.2160   24.1220   34.0210 C   0  0  0  0  0  0  0  0  0  0  0  0
   43.0080   23.0610   34.2820 N   0  0  0  0  0  0  0  0  0  0  0  0
   42.6960   22.2990   35.3470 C   0  0  0  0  0  0  0  0  0  0  0  0
   43.4750   21.1830   35.6740 C   0  0  0  0  0  0  0  0  0  0  0  0
   43.2210   20.3550   36.7460 C   0  0  0  0  0  0  0  0  0  0  0  0
   42.1340   20.6510   37.5350 C   0  0  0  0  0  0  0  0  0  0  0  0
   41.3530   21.7460   37.2310 C   0  0  0  0  0  0  0  0  0  0  0  0
   41.5940   22.5840   36.1620 C   0  0  0  0  0  0  0  0  0  0  0  0
   38.1640   23.2370   34.7230 C   0  0  0  0  0  0  0  0  0  0  0  0
   38.2100   21.8650   34.3850 C   0  0  0  0  0  0  0  0  0  0  0  0
   37.9980   21.4870   33.0680 C   0  0  0  0  0  0  0  0  0  0  0  0
   37.7480   22.4910   32.1470 N   0  0  0  0  0  0  0  0  0  0  0  0
   37.7110   23.7880   32.5130 C   0  0  0  0  0  0  0  0  0  0  0  0
   37.9160   24.1590   33.7790 N   0  0  0  0  0  0  0  0  0  0  0  0
   37.1827   25.0503   37.1926 H   0  0  0  0  0  0  0  0  0  0  0  0
   36.3733   23.5458   36.8824 H   0  0  0  0  0  0  0  0  0  0  0  0
   38.0691   24.1375   39.1335 H   0  0  0  0  0  0  0  0  0  0  0  0
   37.5337   22.5034   38.6937 H   0  0  0  0  0  0  0  0  0  0  0  0
   40.1956   23.2853   38.7025 H   0  0  0  0  0  0  0  0  0  0  0  0
   39.6461   21.9985   37.6796 H   0  0  0  0  0  0  0  0  0  0  0  0
   39.8176   25.0494   36.9760 H   0  0  0  0  0  0  0  0  0  0  0  0
   42.4480   24.7623   33.1572 H   0  0  0  0  0  0  0  0  0  0  0  0
   44.3419   20.9531   35.0371 H   0  0  0  0  0  0  0  0  0  0  0  0
   43.8640   19.4892   36.9627 H   0  0  0  0  0  0  0  0  0  0  0  0
   41.8896   20.0192   38.4017 H   0  0  0  0  0  0  0  0  0  0  0  0
   40.4896   21.9635   37.8770 H   0  0  0  0  0  0  0  0  0  0  0  0
   38.4113   21.1074   35.1567 H   0  0  0  0  0  0  0  0  0  0  0  0
   38.0272   20.4297   32.7659 H   0  0  0  0  0  0  0  0  0  0  0  0
   37.5077   24.5566   31.7527 H   0  0  0  0  0  0  0  0  0  0  0  0
  1  5  1  0
  1  2  1  0
  2  3  1  0
  4  3  1  0
  5  4  1  0
  6 15  1  0
  6  5  1  0
  7  6  2  0
  8  9  2  0
  8  7  1  0
  9 10  1  0
 10 11  1  0
 10 15  2  0
 11 12  2  0
 12 13  1  0
 14 13  2  0
 15 14  1  0
 16  1  1  0
 17 16  2  0
 18 17  1  0
 19 20  1  0
 19 18  2  0
 20 21  2  0
 21 16  1  0
  2 22  1  0
  2 23  1  0
  3 24  1  0
  3 25  1  0
  4 26  1  0
  4 27  1  0
  5 28  1  1
  8 29  1  0
 11 30  1  0
 12 31  1  0
 13 32  1  0
 14 33  1  0
 17 34  1  0
 18 35  1  0
 20 36  1  0
M  ISO  8  22  13  23  13  24  13  25  13  26  13  27  13  28  13  29  14
M  ISO  7  30  14  31  14  32  14  33  14  34  14  35  14  36  14
M  END
>  <minimizedAffinity>  (1) 
-4.67242765

>  <minimizedRMSD>  (1) 
1.28099716

$$$$
