
     RDKit          3D

 23 24  0  0  1  0  0  0  0  0999 V2000
   38.4360   22.7710   36.2410 N   0  0  0  0  0  0  0  0  0  0  0  0
   38.1870   23.7050   37.3410 C   0  0  0  0  0  0  0  0  0  0  0  0
   39.2810   23.2830   38.3440 C   0  0  0  0  0  0  0  0  0  0  0  0
   40.2300   22.4130   37.5590 C   0  0  0  0  0  0  0  0  0  0  0  0
   39.8720   22.8160   36.1440 C   0  0  2  0  0  0  0  0  0  0  0  0
   37.4920   22.0290   35.4880 C   0  0  0  0  0  0  0  0  0  0  0  0
   36.4080   21.3570   36.0590 C   0  0  0  0  0  0  0  0  0  0  0  0
   35.5310   20.6540   35.2500 C   0  0  0  0  0  0  0  0  0  0  0  0
   35.7810   20.6560   33.9050 N   0  0  0  0  0  0  0  0  0  0  0  0
   36.8300   21.3090   33.3730 C   0  0  0  0  0  0  0  0  0  0  0  0
   37.6900   21.9960   34.1430 N   0  0  0  0  0  0  0  0  0  0  0  0
   40.3540   24.0770   35.8310 O   0  0  0  0  0  0  0  0  0  0  0  0
   38.3151   24.7494   37.0202 H   0  0  0  0  0  0  0  0  0  0  0  0
   37.1644   23.6659   37.7445 H   0  0  0  0  0  0  0  0  0  0  0  0
   39.8048   24.1670   38.7367 H   0  0  0  0  0  0  0  0  0  0  0  0
   38.8592   22.7510   39.2095 H   0  0  0  0  0  0  0  0  0  0  0  0
   41.2797   22.6437   37.7932 H   0  0  0  0  0  0  0  0  0  0  0  0
   40.1395   21.3362   37.7646 H   0  0  0  0  0  0  0  0  0  0  0  0
   40.2960   22.1871   35.3473 H   0  0  0  0  0  0  0  0  0  0  0  0
   36.2518   21.3863   37.1475 H   0  0  0  0  0  0  0  0  0  0  0  0
   34.6690   20.1162   35.6715 H   0  0  0  0  0  0  0  0  0  0  0  0
   36.9868   21.2798   32.2846 H   0  0  0  0  0  0  0  0  0  0  0  0
   40.5440   24.5742   36.6657 H   0  0  0  0  0  0  0  0  0  0  0  0
  1  2  1  0
  2  3  1  0
  4  3  1  0
  5  1  1  0
  5  4  1  0
  6  7  2  0
  6  1  1  0
  8  7  1  0
  9  8  2  0
 10  9  1  0
 10 11  2  0
 11  6  1  0
 12  5  1  0
  2 13  1  0
  2 14  1  0
  3 15  1  0
  3 16  1  0
  4 17  1  0
  4 18  1  0
  5 19  1  6
  7 20  1  0
  8 21  1  0
 10 22  1  0
 12 23  1  0
M  ISO  8  13  13  14  13  15  13  16  13  17  13  18  13  19  13  20  14
M  ISO  3  21  14  22  14  23   3
M  END
>  <minimizedAffinity>  (1) 
-3.70091558

>  <minimizedRMSD>  (1) 
1.04932153

$$$$
