
     RDKit          3D

 24 25  0  0  1  0  0  0  0  0999 V2000
   38.4610   22.7360   36.2350 N   0  0  0  0  0  0  0  0  0  0  0  0
   38.2480   23.6840   37.3080 C   0  0  0  0  0  0  0  0  0  0  0  0
   39.3310   23.2670   38.3120 C   0  0  0  0  0  0  0  0  0  0  0  0
   40.2380   22.3260   37.5660 C   0  0  0  0  0  0  0  0  0  0  0  0
   39.9100   22.7100   36.1340 C   0  0  2  0  0  0  0  0  0  0  0  0
   37.5060   22.0070   35.4690 C   0  0  0  0  0  0  0  0  0  0  0  0
   36.4140   21.3500   36.0600 C   0  0  0  0  0  0  0  0  0  0  0  0
   35.5170   20.6580   35.2680 C   0  0  0  0  0  0  0  0  0  0  0  0
   35.7560   20.6560   33.9160 N   0  0  0  0  0  0  0  0  0  0  0  0
   36.8150   21.2960   33.3670 C   0  0  0  0  0  0  0  0  0  0  0  0
   37.6890   21.9710   34.1410 N   0  0  0  0  0  0  0  0  0  0  0  0
   40.4520   23.9680   35.7550 N   0  0  0  0  0  0  0  0  0  0  0  0
   38.3967   24.7183   36.9645 H   0  0  0  0  0  0  0  0  0  0  0  0
   37.2282   23.6699   37.7201 H   0  0  0  0  0  0  0  0  0  0  0  0
   39.8926   24.1473   38.6579 H   0  0  0  0  0  0  0  0  0  0  0  0
   38.8964   22.7906   39.2031 H   0  0  0  0  0  0  0  0  0  0  0  0
   41.2966   22.5074   37.8036 H   0  0  0  0  0  0  0  0  0  0  0  0
   40.0914   21.2617   37.8021 H   0  0  0  0  0  0  0  0  0  0  0  0
   40.3223   22.0399   35.3652 H   0  0  0  0  0  0  0  0  0  0  0  0
   36.2731   21.3861   37.1503 H   0  0  0  0  0  0  0  0  0  0  0  0
   34.6523   20.1335   35.7006 H   0  0  0  0  0  0  0  0  0  0  0  0
   36.9643   21.2651   32.2776 H   0  0  0  0  0  0  0  0  0  0  0  0
   40.6854   24.5097   36.5994 H   0  0  0  0  0  0  0  0  0  0  0  0
   41.3041   23.8202   35.1955 H   0  0  0  0  0  0  0  0  0  0  0  0
  1  2  1  0
  2  3  1  0
  4  3  1  0
  5  1  1  0
  5  4  1  0
  6  7  2  0
  6  1  1  0
  8  7  1  0
  9  8  2  0
 10  9  1  0
 10 11  2  0
 11  6  1  0
 12  5  1  0
  2 13  1  0
  2 14  1  0
  3 15  1  0
  3 16  1  0
  4 17  1  0
  4 18  1  0
  5 19  1  6
  7 20  1  0
  8 21  1  0
 10 22  1  0
 12 23  1  0
 12 24  1  0
M  ISO  8  13  13  14  13  15  13  16  13  17  13  18  13  19  13  20  14
M  ISO  4  21  14  22  14  23   5  24   5
M  END
>  <minimizedAffinity>  (1) 
-3.66754985

>  <minimizedRMSD>  (1) 
1.08395171

$$$$
