
     RDKit          3D

 24 25  0  0  1  0  0  0  0  0999 V2000
   38.5780   23.6380   36.2740 N   0  0  0  0  0  0  0  0  0  0  0  0
   37.9650   24.8080   36.9130 C   0  0  0  0  0  0  0  0  0  0  0  0
   37.9700   24.3990   38.3770 C   0  0  0  0  0  0  0  0  0  0  0  0
   38.8010   23.1330   38.4630 C   0  0  0  0  0  0  0  0  0  0  0  0
   39.6470   23.3310   37.1960 C   0  0  1  0  0  0  0  0  0  0  0  0
   38.2030   22.9940   35.0660 C   0  0  0  0  0  0  0  0  0  0  0  0
   37.3150   21.9060   35.0270 C   0  0  0  0  0  0  0  0  0  0  0  0
   37.0030   21.3360   33.8010 C   0  0  0  0  0  0  0  0  0  0  0  0
   37.5900   21.8790   32.6830 N   0  0  0  0  0  0  0  0  0  0  0  0
   38.4330   22.9180   32.7530 C   0  0  0  0  0  0  0  0  0  0  0  0
   38.7370   23.4700   33.9270 N   0  0  0  0  0  0  0  0  0  0  0  0
   40.3590   22.0820   36.8680 C   0  0  0  0  0  0  0  0  0  0  0  0
   41.2230   21.5360   37.5620 O   0  0  0  0  0  0  0  0  0  0  0  0
   38.5651   25.7150   36.7482 H   0  0  0  0  0  0  0  0  0  0  0  0
   36.9672   25.0577   36.5230 H   0  0  0  0  0  0  0  0  0  0  0  0
   38.4196   25.1922   38.9924 H   0  0  0  0  0  0  0  0  0  0  0  0
   36.9483   24.2324   38.7488 H   0  0  0  0  0  0  0  0  0  0  0  0
   39.4181   23.1030   39.3731 H   0  0  0  0  0  0  0  0  0  0  0  0
   38.2343   22.1918   38.5173 H   0  0  0  0  0  0  0  0  0  0  0  0
   40.4461   24.0861   37.2315 H   0  0  0  0  0  0  0  0  0  0  0  0
   36.8737   21.5120   35.9544 H   0  0  0  0  0  0  0  0  0  0  0  0
   36.3127   20.4828   33.7267 H   0  0  0  0  0  0  0  0  0  0  0  0
   38.8790   23.3197   31.8312 H   0  0  0  0  0  0  0  0  0  0  0  0
   40.0969   21.5917   35.9188 H   0  0  0  0  0  0  0  0  0  0  0  0
  1  2  1  0
  1  5  1  0
  2  3  1  0
  3  4  1  0
  5  4  1  0
  6  1  1  0
  7  6  2  0
  8  7  1  0
  9 10  1  0
  9  8  2  0
 10 11  2  0
 11  6  1  0
 12  5  1  0
 12 13  2  0
  2 14  1  0
  2 15  1  0
  3 16  1  0
  3 17  1  0
  4 18  1  0
  4 19  1  0
  5 20  1  1
  7 21  1  0
  8 22  1  0
 10 23  1  0
 12 24  1  0
M  ISO  8  14  13  15  13  16  13  17  13  18  13  19  13  20  13  21  14
M  ISO  3  22  14  23  14  24   6
M  END
>  <minimizedAffinity>  (1) 
-3.53842616

>  <minimizedRMSD>  (1) 
1.14182663

$$$$
