
     RDKit          3D

 38 41  0  0  1  0  0  0  0  0999 V2000
   38.5240   23.6550   36.1330 N   0  0  0  0  0  0  0  0  0  0  0  0
   37.7310   24.1120   37.2710 C   0  0  0  0  0  0  0  0  0  0  0  0
   38.4190   23.3840   38.4290 C   0  0  0  0  0  0  0  0  0  0  0  0
   39.7090   22.8250   37.8390 C   0  0  0  0  0  0  0  0  0  0  0  0
   39.8680   23.7370   36.6340 C   0  0  1  0  0  0  0  0  0  0  0  0
   38.0390   23.2350   34.8450 C   0  0  0  0  0  0  0  0  0  0  0  0
   37.6640   21.9200   34.5690 C   0  0  0  0  0  0  0  0  0  0  0  0
   37.2070   21.6270   33.2820 C   0  0  0  0  0  0  0  0  0  0  0  0
   37.1540   22.6500   32.3630 N   0  0  0  0  0  0  0  0  0  0  0  0
   37.5240   23.9000   32.6690 C   0  0  0  0  0  0  0  0  0  0  0  0
   37.9660   24.2140   33.8940 N   0  0  0  0  0  0  0  0  0  0  0  0
   40.8780   23.2600   35.6510 C   0  0  0  0  0  0  0  0  0  0  0  0
   42.2100   23.7320   35.8660 N   0  0  0  0  0  0  0  0  0  0  0  0
   43.2300   23.2900   36.6230 C   0  0  0  0  0  0  0  0  0  0  0  0
   44.3140   24.1080   36.4780 N   0  0  0  0  0  0  0  0  0  0  0  0
   43.9470   25.0530   35.6280 C   0  0  0  0  0  0  0  0  0  0  0  0
   44.6700   26.1220   35.1440 C   0  0  0  0  0  0  0  0  0  0  0  0
   44.0560   26.9480   34.2770 N   0  0  0  0  0  0  0  0  0  0  0  0
   42.7980   26.7660   33.8790 C   0  0  0  0  0  0  0  0  0  0  0  0
   42.1120   25.7250   34.3560 N   0  0  0  0  0  0  0  0  0  0  0  0
   42.6550   24.8550   35.2270 C   0  0  0  0  0  0  0  0  0  0  0  0
   46.0160   26.4440   35.4760 N   0  0  0  0  0  0  0  0  0  0  0  0
   37.7900   25.2039   37.3902 H   0  0  0  0  0  0  0  0  0  0  0  0
   36.6548   23.9018   37.1831 H   0  0  0  0  0  0  0  0  0  0  0  0
   38.6409   24.0844   39.2476 H   0  0  0  0  0  0  0  0  0  0  0  0
   37.7836   22.5924   38.8527 H   0  0  0  0  0  0  0  0  0  0  0  0
   40.5528   22.9220   38.5380 H   0  0  0  0  0  0  0  0  0  0  0  0
   39.6829   21.7504   37.6053 H   0  0  0  0  0  0  0  0  0  0  0  0
   40.2413   24.7473   36.8576 H   0  0  0  0  0  0  0  0  0  0  0  0
   37.7262   21.1385   35.3406 H   0  0  0  0  0  0  0  0  0  0  0  0
   36.8980   20.6068   33.0105 H   0  0  0  0  0  0  0  0  0  0  0  0
   37.4639   24.6840   31.8998 H   0  0  0  0  0  0  0  0  0  0  0  0
   40.5590   23.5868   34.6503 H   0  0  0  0  0  0  0  0  0  0  0  0
   40.9206   22.1667   35.7648 H   0  0  0  0  0  0  0  0  0  0  0  0
   43.1961   22.3983   37.2662 H   0  0  0  0  0  0  0  0  0  0  0  0
   42.3313   27.4633   33.1677 H   0  0  0  0  0  0  0  0  0  0  0  0
   46.4665   27.2698   35.0564 H   0  0  0  0  0  0  0  0  0  0  0  0
   46.5396   25.8513   36.1359 H   0  0  0  0  0  0  0  0  0  0  0  0
  1  5  1  0
  1  2  1  0
  2  3  1  0
  4  3  1  0
  5  4  1  0
  6  1  1  0
  7  6  2  0
  8  7  1  0
  9 10  1  0
  9  8  2  0
 10 11  2  0
 11  6  1  0
 12 13  1  0
 12  5  1  0
 13 14  1  0
 15 14  2  0
 16 15  1  0
 17 22  1  0
 17 16  2  0
 18 17  1  0
 19 18  2  0
 19 20  1  0
 20 21  2  0
 21 16  1  0
 21 13  1  0
  2 23  1  0
  2 24  1  0
  3 25  1  0
  3 26  1  0
  4 27  1  0
  4 28  1  0
  5 29  1  1
  7 30  1  0
  8 31  1  0
 10 32  1  0
 12 33  1  0
 12 34  1  0
 14 35  1  0
 19 36  1  0
 22 37  1  0
 22 38  1  0
M  ISO  8  23  13  24  13  25  13  26  13  27  13  28  13  29  13  30  14
M  ISO  6  31  14  32  14  33   8  34   8  35  14  36  14
M  END
>  <minimizedAffinity>  (1) 
-4.7857132

>  <minimizedRMSD>  (1) 
1.71317852

$$$$
