
     RDKit          3D

 39 42  0  0  1  0  0  0  0  0999 V2000
   38.5330   23.6390   36.2160 N   0  0  0  0  0  0  0  0  0  0  0  0
   37.7720   24.1750   37.3450 C   0  0  0  0  0  0  0  0  0  0  0  0
   38.4280   23.4600   38.5240 C   0  0  0  0  0  0  0  0  0  0  0  0
   39.6870   22.8120   37.9430 C   0  0  0  0  0  0  0  0  0  0  0  0
   39.8940   23.6830   36.7180 C   0  0  1  0  0  0  0  0  0  0  0  0
   38.0330   23.1970   34.9520 C   0  0  0  0  0  0  0  0  0  0  0  0
   37.6160   21.8870   34.7270 C   0  0  0  0  0  0  0  0  0  0  0  0
   37.1420   21.5570   33.4540 C   0  0  0  0  0  0  0  0  0  0  0  0
   37.1160   22.5500   32.4980 N   0  0  0  0  0  0  0  0  0  0  0  0
   37.5250   23.7900   32.7610 C   0  0  0  0  0  0  0  0  0  0  0  0
   37.9850   24.1340   33.9730 N   0  0  0  0  0  0  0  0  0  0  0  0
   40.8780   23.1720   35.7520 C   0  0  0  0  0  0  0  0  0  0  0  0
   42.2520   23.6630   35.8690 C   0  0  0  0  0  0  0  0  0  0  0  0
   43.3800   23.2350   36.5340 C   0  0  0  0  0  0  0  0  0  0  0  0
   44.4200   24.0680   36.3140 N   0  0  0  0  0  0  0  0  0  0  0  0
   43.9620   25.0300   35.5070 C   0  0  0  0  0  0  0  0  0  0  0  0
   44.6900   26.1170   35.0110 C   0  0  0  0  0  0  0  0  0  0  0  0
   44.0130   26.9980   34.1860 C   0  0  0  0  0  0  0  0  0  0  0  0
   42.6900   26.8260   33.8660 C   0  0  0  0  0  0  0  0  0  0  0  0
   41.9890   25.7450   34.3680 C   0  0  0  0  0  0  0  0  0  0  0  0
   42.6330   24.8280   35.2060 C   0  0  0  0  0  0  0  0  0  0  0  0
   37.8855   25.2663   37.4237 H   0  0  0  0  0  0  0  0  0  0  0  0
   36.6866   24.0126   37.2707 H   0  0  0  0  0  0  0  0  0  0  0  0
   38.6923   24.1788   39.3137 H   0  0  0  0  0  0  0  0  0  0  0  0
   37.7568   22.7198   38.9839 H   0  0  0  0  0  0  0  0  0  0  0  0
   40.5371   22.8773   38.6381 H   0  0  0  0  0  0  0  0  0  0  0  0
   39.5988   21.7354   37.7351 H   0  0  0  0  0  0  0  0  0  0  0  0
   40.3173   24.6776   36.9222 H   0  0  0  0  0  0  0  0  0  0  0  0
   37.6585   21.1341   35.5278 H   0  0  0  0  0  0  0  0  0  0  0  0
   36.8006   20.5373   33.2224 H   0  0  0  0  0  0  0  0  0  0  0  0
   37.4846   24.5492   31.9661 H   0  0  0  0  0  0  0  0  0  0  0  0
   40.5188   23.4325   34.7455 H   0  0  0  0  0  0  0  0  0  0  0  0
   40.9449   22.0941   35.9609 H   0  0  0  0  0  0  0  0  0  0  0  0
   43.4274   22.3330   37.1619 H   0  0  0  0  0  0  0  0  0  0  0  0
   45.3741   23.9797   36.6920 H   0  0  0  0  0  0  0  0  0  0  0  0
   45.7501   26.2643   35.2648 H   0  0  0  0  0  0  0  0  0  0  0  0
   44.5526   27.8634   33.7738 H   0  0  0  0  0  0  0  0  0  0  0  0
   42.1858   27.5497   33.2086 H   0  0  0  0  0  0  0  0  0  0  0  0
   40.9288   25.6064   34.1095 H   0  0  0  0  0  0  0  0  0  0  0  0
  1  5  1  0
  1  2  1  0
  2  3  1  0
  4  3  1  0
  5  4  1  0
  6  1  1  0
  7  6  2  0
  8  7  1  0
  9 10  1  0
  9  8  2  0
 10 11  2  0
 11  6  1  0
 12 13  1  0
 12  5  1  0
 13 14  2  0
 15 14  1  0
 16 15  1  0
 17 16  2  0
 18 17  1  0
 19 18  2  0
 19 20  1  0
 20 21  2  0
 21 16  1  0
 21 13  1  0
  2 22  1  0
  2 23  1  0
  3 24  1  0
  3 25  1  0
  4 26  1  0
  4 27  1  0
  5 28  1  1
  7 29  1  0
  8 30  1  0
 10 31  1  0
 12 32  1  0
 12 33  1  0
 14 34  1  0
 15 35  1  0
 17 36  1  0
 18 37  1  0
 19 38  1  0
 20 39  1  0
M  ISO  8  22  13  23  13  24  13  25  13  26  13  27  13  28  13  29  14
M  ISO  8  30  14  31  14  32   8  33   8  34  14  35   9  36  14  37  14
M  ISO  2  38  14  39  14
M  END
>  <minimizedAffinity>  (1) 
-4.7811985

>  <minimizedRMSD>  (1) 
1.39141917

$$$$
