
     RDKit          3D

 35 37  0  0  1  0  0  0  0  0999 V2000
   38.4580   23.6170   36.1010 N   0  0  0  0  0  0  0  0  0  0  0  0
   37.6450   24.0270   37.2550 C   0  0  0  0  0  0  0  0  0  0  0  0
   38.3580   23.3190   38.4020 C   0  0  0  0  0  0  0  0  0  0  0  0
   39.6750   22.8040   37.8080 C   0  0  0  0  0  0  0  0  0  0  0  0
   39.7940   23.7370   36.6360 C   0  0  1  0  0  0  0  0  0  0  0  0
   38.0050   23.2160   34.8140 C   0  0  0  0  0  0  0  0  0  0  0  0
   37.6270   21.9030   34.5220 C   0  0  0  0  0  0  0  0  0  0  0  0
   37.1960   21.6010   33.2350 C   0  0  0  0  0  0  0  0  0  0  0  0
   37.1690   22.6260   32.3200 N   0  0  0  0  0  0  0  0  0  0  0  0
   37.5380   23.8760   32.6290 C   0  0  0  0  0  0  0  0  0  0  0  0
   37.9580   24.1950   33.8630 N   0  0  0  0  0  0  0  0  0  0  0  0
   40.8400   23.3330   35.6430 C   0  0  0  0  0  0  0  0  0  0  0  0
   42.0950   24.0050   35.7750 N   0  0  0  0  0  0  0  0  0  0  0  0
   43.1470   23.5950   36.5210 C   0  0  0  0  0  0  0  0  0  0  0  0
   44.3050   24.3310   36.5640 C   0  0  0  0  0  0  0  0  0  0  0  0
   44.4760   25.5030   35.8750 C   0  0  0  0  0  0  0  0  0  0  0  0
   45.5050   26.2130   35.8780 O   0  0  0  0  0  0  0  0  0  0  0  0
   43.4130   25.9040   35.1290 N   0  0  0  0  0  0  0  0  0  0  0  0
   42.2850   25.1720   35.0960 C   0  0  0  0  0  0  0  0  0  0  0  0
   41.3240   25.6040   34.3750 O   0  0  0  0  0  0  0  0  0  0  0  0
   37.6585   25.1189   37.3874 H   0  0  0  0  0  0  0  0  0  0  0  0
   36.5793   23.7697   37.1647 H   0  0  0  0  0  0  0  0  0  0  0  0
   38.5559   24.0221   39.2245 H   0  0  0  0  0  0  0  0  0  0  0  0
   37.7505   22.5021   38.8188 H   0  0  0  0  0  0  0  0  0  0  0  0
   40.5144   22.9164   38.5099 H   0  0  0  0  0  0  0  0  0  0  0  0
   39.6915   21.7325   37.5596 H   0  0  0  0  0  0  0  0  0  0  0  0
   40.1140   24.7555   36.9012 H   0  0  0  0  0  0  0  0  0  0  0  0
   37.6696   21.1226   35.2960 H   0  0  0  0  0  0  0  0  0  0  0  0
   36.8886   20.5813   32.9599 H   0  0  0  0  0  0  0  0  0  0  0  0
   37.4959   24.6570   31.8555 H   0  0  0  0  0  0  0  0  0  0  0  0
   40.4492   23.5363   34.6350 H   0  0  0  0  0  0  0  0  0  0  0  0
   41.0425   22.2678   35.8285 H   0  0  0  0  0  0  0  0  0  0  0  0
   43.0734   22.6620   37.0991 H   0  0  0  0  0  0  0  0  0  0  0  0
   45.1366   23.9617   37.1820 H   0  0  0  0  0  0  0  0  0  0  0  0
   43.4717   26.7761   34.5841 H   0  0  0  0  0  0  0  0  0  0  0  0
  1  5  1  0
  1  2  1  0
  2  3  1  0
  4  3  1  0
  5  4  1  0
  6  1  1  0
  7  6  2  0
  8  7  1  0
  9 10  1  0
  9  8  2  0
 10 11  2  0
 11  6  1  0
 12 13  1  0
 12  5  1  0
 13 14  1  0
 14 15  2  0
 16 17  2  0
 16 15  1  0
 18 16  1  0
 19 18  1  0
 19 13  1  0
 20 19  2  0
  2 21  1  0
  2 22  1  0
  3 23  1  0
  3 24  1  0
  4 25  1  0
  4 26  1  0
  5 27  1  1
  7 28  1  0
  8 29  1  0
 10 30  1  0
 12 31  1  0
 12 32  1  0
 14 33  1  0
 15 34  1  0
 18 35  1  0
M  ISO  8  21  13  22  13  23  13  24  13  25  13  26  13  27  13  28  14
M  ISO  7  29  14  30  14  31   8  32   8  33  14  34  14  35   9
M  END
>  <minimizedAffinity>  (1) 
-4.7492342

>  <minimizedRMSD>  (1) 
1.60680044

$$$$
