
     RDKit          3D

 36 38  0  0  1  0  0  0  0  0999 V2000
   38.4310   23.5960   36.1130 N   0  0  0  0  0  0  0  0  0  0  0  0
   37.6180   24.1230   37.2120 C   0  0  0  0  0  0  0  0  0  0  0  0
   38.2730   23.4360   38.4220 C   0  0  0  0  0  0  0  0  0  0  0  0
   39.5730   22.8320   37.8780 C   0  0  0  0  0  0  0  0  0  0  0  0
   39.7560   23.6830   36.6440 C   0  0  1  0  0  0  0  0  0  0  0  0
   37.9720   23.1240   34.8390 C   0  0  0  0  0  0  0  0  0  0  0  0
   37.5280   21.8050   34.6460 C   0  0  0  0  0  0  0  0  0  0  0  0
   37.1000   21.4460   33.3680 C   0  0  0  0  0  0  0  0  0  0  0  0
   37.1380   22.3910   32.3790 N   0  0  0  0  0  0  0  0  0  0  0  0
   37.5690   23.6380   32.6040 C   0  0  0  0  0  0  0  0  0  0  0  0
   37.9950   24.0400   33.8260 N   0  0  0  0  0  0  0  0  0  0  0  0
   40.8050   23.1580   35.7060 C   0  0  0  0  0  0  0  0  0  0  0  0
   42.0760   23.8630   35.8080 N   0  0  0  0  0  0  0  0  0  0  0  0
   43.0640   23.4850   36.6410 C   0  0  0  0  0  0  0  0  0  0  0  0
   44.2710   24.1480   36.7430 C   0  0  0  0  0  0  0  0  0  0  0  0
   44.4440   25.2680   35.9260 C   0  0  0  0  0  0  0  0  0  0  0  0
   45.6390   26.0110   35.9560 N   0  0  0  0  0  0  0  0  0  0  0  0
   43.4590   25.6590   35.0860 N   0  0  0  0  0  0  0  0  0  0  0  0
   42.3000   24.9580   35.0390 C   0  0  0  0  0  0  0  0  0  0  0  0
   41.4360   25.3890   34.2290 O   0  0  0  0  0  0  0  0  0  0  0  0
   37.6934   25.2183   37.2803 H   0  0  0  0  0  0  0  0  0  0  0  0
   36.5401   23.9286   37.1105 H   0  0  0  0  0  0  0  0  0  0  0  0
   38.4885   24.1691   39.2133 H   0  0  0  0  0  0  0  0  0  0  0  0
   37.6182   22.6738   38.8695 H   0  0  0  0  0  0  0  0  0  0  0  0
   40.4070   22.9522   38.5850 H   0  0  0  0  0  0  0  0  0  0  0  0
   39.5410   21.7479   37.6946 H   0  0  0  0  0  0  0  0  0  0  0  0
   40.1219   24.7033   36.8312 H   0  0  0  0  0  0  0  0  0  0  0  0
   37.5183   21.0808   35.4739 H   0  0  0  0  0  0  0  0  0  0  0  0
   36.7404   20.4274   33.1600 H   0  0  0  0  0  0  0  0  0  0  0  0
   37.5777   24.3579   31.7723 H   0  0  0  0  0  0  0  0  0  0  0  0
   40.4328   23.2571   34.6756 H   0  0  0  0  0  0  0  0  0  0  0  0
   40.9917   22.1094   35.9810 H   0  0  0  0  0  0  0  0  0  0  0  0
   42.9009   22.6005   37.2743 H   0  0  0  0  0  0  0  0  0  0  0  0
   45.0578   23.8108   37.4338 H   0  0  0  0  0  0  0  0  0  0  0  0
   45.7491   26.8341   35.3466 H   0  0  0  0  0  0  0  0  0  0  0  0
   46.4034   25.7317   36.5873 H   0  0  0  0  0  0  0  0  0  0  0  0
  1  5  1  0
  1  2  1  0
  2  3  1  0
  4  3  1  0
  5  4  1  0
  6  1  1  0
  7  6  2  0
  8  7  1  0
  9 10  1  0
  9  8  2  0
 10 11  2  0
 11  6  1  0
 12 13  1  0
 12  5  1  0
 13 14  1  0
 14 15  2  0
 16 17  1  0
 16 15  1  0
 18 16  2  0
 19 18  1  0
 19 13  1  0
 20 19  2  0
  2 21  1  0
  2 22  1  0
  3 23  1  0
  3 24  1  0
  4 25  1  0
  4 26  1  0
  5 27  1  1
  7 28  1  0
  8 29  1  0
 10 30  1  0
 12 31  1  0
 12 32  1  0
 14 33  1  0
 15 34  1  0
 17 35  1  0
 17 36  1  0
M  ISO  8  21  13  22  13  23  13  24  13  25  13  26  13  27  13  28  14
M  ISO  6  29  14  30  14  31   8  32   8  33  14  34  14
M  END
>  <minimizedAffinity>  (1) 
-4.60311413

>  <minimizedRMSD>  (1) 
1.35030532

$$$$
