
     RDKit          3D

 35 37  0  0  1  0  0  0  0  0999 V2000
   38.6990   23.5760   36.3990 N   0  0  0  0  0  0  0  0  0  0  0  0
   38.1250   24.8070   36.9220 C   0  0  0  0  0  0  0  0  0  0  0  0
   37.9030   24.4540   38.4000 C   0  0  0  0  0  0  0  0  0  0  0  0
   38.6980   23.1560   38.6100 C   0  0  0  0  0  0  0  0  0  0  0  0
   39.6380   23.2160   37.4380 C   0  0  1  0  0  0  0  0  0  0  0  0
   38.3930   22.9140   35.1690 C   0  0  0  0  0  0  0  0  0  0  0  0
   37.3700   21.9460   35.0680 C   0  0  0  0  0  0  0  0  0  0  0  0
   37.1520   21.3630   33.8310 C   0  0  0  0  0  0  0  0  0  0  0  0
   37.9260   21.7460   32.7770 N   0  0  0  0  0  0  0  0  0  0  0  0
   38.8930   22.6740   32.9110 C   0  0  0  0  0  0  0  0  0  0  0  0
   39.1550   23.2790   34.0950 N   0  0  0  0  0  0  0  0  0  0  0  0
   40.3440   21.9340   37.1590 C   0  0  0  0  0  0  0  0  0  0  0  0
   41.7590   22.0820   36.7550 C   0  0  0  0  0  0  0  0  0  0  0  0
   42.3500   23.3150   36.5540 C   0  0  0  0  0  0  0  0  0  0  0  0
   43.6860   23.4460   36.1730 C   0  0  0  0  0  0  0  0  0  0  0  0
   44.3780   22.2700   36.0080 C   0  0  0  0  0  0  0  0  0  0  0  0
   43.8410   21.0130   36.1940 C   0  0  0  0  0  0  0  0  0  0  0  0
   42.4990   20.9100   36.5760 C   0  0  0  0  0  0  0  0  0  0  0  0
   38.8223   25.6508   36.8131 H   0  0  0  0  0  0  0  0  0  0  0  0
   37.2107   25.1263   36.4004 H   0  0  0  0  0  0  0  0  0  0  0  0
   38.2847   25.2534   39.0521 H   0  0  0  0  0  0  0  0  0  0  0  0
   36.8374   24.3359   38.6460 H   0  0  0  0  0  0  0  0  0  0  0  0
   39.2410   23.1629   39.5666 H   0  0  0  0  0  0  0  0  0  0  0  0
   38.0831   22.2451   38.6576 H   0  0  0  0  0  0  0  0  0  0  0  0
   40.4850   23.9050   37.5716 H   0  0  0  0  0  0  0  0  0  0  0  0
   36.7661   21.6643   35.9432 H   0  0  0  0  0  0  0  0  0  0  0  0
   36.3671   20.6033   33.7014 H   0  0  0  0  0  0  0  0  0  0  0  0
   39.4903   22.9501   32.0295 H   0  0  0  0  0  0  0  0  0  0  0  0
   40.3106   21.3192   38.0706 H   0  0  0  0  0  0  0  0  0  0  0  0
   39.8244   21.4728   36.3061 H   0  0  0  0  0  0  0  0  0  0  0  0
   41.7471   24.2235   36.6992 H   0  0  0  0  0  0  0  0  0  0  0  0
   44.1555   24.4281   36.0148 H   0  0  0  0  0  0  0  0  0  0  0  0
   45.4338   22.3357   35.7066 H   0  0  0  0  0  0  0  0  0  0  0  0
   44.4541   20.1119   36.0453 H   0  0  0  0  0  0  0  0  0  0  0  0
   42.0350   19.9250   36.7325 H   0  0  0  0  0  0  0  0  0  0  0  0
  1  2  1  0
  1  5  1  0
  2  3  1  0
  3  4  1  0
  5  4  1  0
  6  1  1  0
  7  6  2  0
  8  7  1  0
  9 10  1  0
  9  8  2  0
 10 11  2  0
 11  6  1  0
 12  5  1  0
 13 12  1  0
 14 13  2  0
 15 14  1  0
 16 15  2  0
 16 17  1  0
 17 18  2  0
 18 13  1  0
  2 19  1  0
  2 20  1  0
  3 21  1  0
  3 22  1  0
  4 23  1  0
  4 24  1  0
  5 25  1  1
  7 26  1  0
  8 27  1  0
 10 28  1  0
 12 29  1  0
 12 30  1  0
 14 31  1  0
 15 32  1  0
 16 33  1  0
 17 34  1  0
 18 35  1  0
M  ISO  8  19  13  20  13  21  13  22  13  23  13  24  13  25  13  26  14
M  ISO  8  27  14  28  14  29   8  30   8  31  14  32  14  33  14  34  14
M  ISO  1  35  14
M  END
>  <minimizedAffinity>  (1) 
-4.57971859

>  <minimizedRMSD>  (1) 
1.2188077

$$$$
