
     RDKit          3D

 41 43  0  0  1  0  0  0  0  0999 V2000
   38.7110   23.4660   36.0300 N   0  0  0  0  0  0  0  0  0  0  0  0
   38.1450   24.1160   37.2060 C   0  0  0  0  0  0  0  0  0  0  0  0
   38.8600   23.4080   38.3530 C   0  0  0  0  0  0  0  0  0  0  0  0
   39.9800   22.6090   37.6850 C   0  0  0  0  0  0  0  0  0  0  0  0
   40.1130   23.3790   36.3830 C   0  0  1  0  0  0  0  0  0  0  0  0
   38.0450   23.0350   34.8530 C   0  0  0  0  0  0  0  0  0  0  0  0
   37.4500   21.7660   34.7570 C   0  0  0  0  0  0  0  0  0  0  0  0
   36.8150   21.4120   33.5710 C   0  0  0  0  0  0  0  0  0  0  0  0
   36.8100   22.3410   32.5570 N   0  0  0  0  0  0  0  0  0  0  0  0
   37.3860   23.5390   32.6840 C   0  0  0  0  0  0  0  0  0  0  0  0
   38.0120   23.9120   33.8210 N   0  0  0  0  0  0  0  0  0  0  0  0
   40.9530   22.7060   35.3640 C   0  0  0  0  0  0  0  0  0  0  0  0
   42.2210   23.3880   34.9930 C   0  0  0  0  0  0  0  0  0  0  0  0
   42.0560   24.8970   35.1640 C   0  0  0  0  0  0  0  0  0  0  0  0
   43.4100   25.5520   34.9040 C   0  0  0  0  0  0  0  0  0  0  0  0
   44.2400   25.3170   36.1300 C   0  0  0  0  0  0  0  0  0  0  0  0
   43.7840   24.0770   36.8420 C   0  0  0  0  0  0  0  0  0  0  0  0
   43.3660   22.9840   35.8630 C   0  0  0  0  0  0  0  0  0  0  0  0
   38.3628   25.1942   37.2074 H   0  0  0  0  0  0  0  0  0  0  0  0
   37.0488   24.0429   37.2617 H   0  0  0  0  0  0  0  0  0  0  0  0
   39.2760   24.1403   39.0606 H   0  0  0  0  0  0  0  0  0  0  0  0
   38.1800   22.7646   38.9306 H   0  0  0  0  0  0  0  0  0  0  0  0
   40.9091   22.6382   38.2732 H   0  0  0  0  0  0  0  0  0  0  0  0
   39.7766   21.5342   37.5689 H   0  0  0  0  0  0  0  0  0  0  0  0
   40.6362   24.3434   36.4620 H   0  0  0  0  0  0  0  0  0  0  0  0
   37.4856   21.0652   35.6041 H   0  0  0  0  0  0  0  0  0  0  0  0
   36.3364   20.4291   33.4492 H   0  0  0  0  0  0  0  0  0  0  0  0
   37.3496   24.2419   31.8386 H   0  0  0  0  0  0  0  0  0  0  0  0
   41.2106   21.7084   35.7493 H   0  0  0  0  0  0  0  0  0  0  0  0
   40.3471   22.6992   34.4460 H   0  0  0  0  0  0  0  0  0  0  0  0
   42.4352   23.1029   33.9524 H   0  0  0  0  0  0  0  0  0  0  0  0
   41.3142   25.2752   34.4452 H   0  0  0  0  0  0  0  0  0  0  0  0
   41.7075   25.1305   36.1809 H   0  0  0  0  0  0  0  0  0  0  0  0
   43.8908   25.0950   34.0265 H   0  0  0  0  0  0  0  0  0  0  0  0
   43.2987   26.6271   34.6995 H   0  0  0  0  0  0  0  0  0  0  0  0
   45.2938   25.1997   35.8371 H   0  0  0  0  0  0  0  0  0  0  0  0
   44.1286   26.1775   36.8061 H   0  0  0  0  0  0  0  0  0  0  0  0
   44.6084   23.7006   37.4654 H   0  0  0  0  0  0  0  0  0  0  0  0
   42.9105   24.3374   37.4577 H   0  0  0  0  0  0  0  0  0  0  0  0
   43.0730   22.0925   36.4368 H   0  0  0  0  0  0  0  0  0  0  0  0
   44.2250   22.7844   35.2055 H   0  0  0  0  0  0  0  0  0  0  0  0
  1  5  1  0
  1  2  1  0
  2  3  1  0
  4  3  1  0
  5  4  1  0
  6  1  1  0
  7  6  2  0
  8  7  1  0
  9 10  1  0
  9  8  2  0
 10 11  2  0
 11  6  1  0
 12  5  1  0
 13 14  1  0
 13 12  1  0
 13 18  1  0
 15 14  1  0
 15 16  1  0
 16 17  1  0
 18 17  1  0
  2 19  1  0
  2 20  1  0
  3 21  1  0
  3 22  1  0
  4 23  1  0
  4 24  1  0
  5 25  1  1
  7 26  1  0
  8 27  1  0
 10 28  1  0
 12 29  1  0
 12 30  1  0
 13 31  1  0
 14 32  1  0
 14 33  1  0
 15 34  1  0
 15 35  1  0
 16 36  1  0
 16 37  1  0
 17 38  1  0
 17 39  1  0
 18 40  1  0
 18 41  1  0
M  ISO  8  19  13  20  13  21  13  22  13  23  13  24  13  25  13  26  14
M  ISO  8  27  14  28  14  29   8  30   8  31  13  32  13  33  13  34  13
M  ISO  7  35  13  36  13  37  13  38  13  39  13  40  13  41  13
M  END
>  <minimizedAffinity>  (1) 
-4.47866106

>  <minimizedRMSD>  (1) 
0.908530354

$$$$
