
     RDKit          3D

 33 35  0  0  1  0  0  0  0  0999 V2000
   38.4320   23.5910   36.1090 N   0  0  0  0  0  0  0  0  0  0  0  0
   37.6420   24.1370   37.2140 C   0  0  0  0  0  0  0  0  0  0  0  0
   38.2940   23.4540   38.4290 C   0  0  0  0  0  0  0  0  0  0  0  0
   39.5930   22.8440   37.8830 C   0  0  0  0  0  0  0  0  0  0  0  0
   39.7700   23.6490   36.6440 C   0  0  1  0  0  0  0  0  0  0  0  0
   37.9750   23.1300   34.8440 C   0  0  0  0  0  0  0  0  0  0  0  0
   37.5370   21.8210   34.6410 C   0  0  0  0  0  0  0  0  0  0  0  0
   37.1020   21.4360   33.3770 C   0  0  0  0  0  0  0  0  0  0  0  0
   37.1320   22.3920   32.3900 N   0  0  0  0  0  0  0  0  0  0  0  0
   37.5560   23.6310   32.6210 C   0  0  0  0  0  0  0  0  0  0  0  0
   37.9810   24.0280   33.8320 N   0  0  0  0  0  0  0  0  0  0  0  0
   40.8050   23.1590   35.6940 C   0  0  0  0  0  0  0  0  0  0  0  0
   42.0690   23.8970   35.6990 C   0  0  0  0  0  0  0  0  0  0  0  0
   43.0990   23.5250   36.5680 C   0  0  0  0  0  0  0  0  0  0  0  0
   44.3370   24.1460   36.6640 C   0  0  0  0  0  0  0  0  0  0  0  0
   44.5600   25.2080   35.8360 N   0  0  0  0  0  0  0  0  0  0  0  0
   43.5710   25.5840   34.9850 C   0  0  0  0  0  0  0  0  0  0  0  0
   42.3840   24.9550   34.9240 N   0  0  0  0  0  0  0  0  0  0  0  0
   37.7350   25.2316   37.2712 H   0  0  0  0  0  0  0  0  0  0  0  0
   36.5612   23.9532   37.1244 H   0  0  0  0  0  0  0  0  0  0  0  0
   38.5123   24.1900   39.2168 H   0  0  0  0  0  0  0  0  0  0  0  0
   37.6374   22.6970   38.8828 H   0  0  0  0  0  0  0  0  0  0  0  0
   40.4318   22.9829   38.5810 H   0  0  0  0  0  0  0  0  0  0  0  0
   39.5568   21.7564   37.7221 H   0  0  0  0  0  0  0  0  0  0  0  0
   40.1594   24.6589   36.8402 H   0  0  0  0  0  0  0  0  0  0  0  0
   37.5357   21.1005   35.4722 H   0  0  0  0  0  0  0  0  0  0  0  0
   36.7501   20.4132   33.1766 H   0  0  0  0  0  0  0  0  0  0  0  0
   37.5588   24.3550   31.7929 H   0  0  0  0  0  0  0  0  0  0  0  0
   40.3853   23.2137   34.6787 H   0  0  0  0  0  0  0  0  0  0  0  0
   41.0520   22.1376   36.0191 H   0  0  0  0  0  0  0  0  0  0  0  0
   42.9128   22.6678   37.2318 H   0  0  0  0  0  0  0  0  0  0  0  0
   45.1021   23.7986   37.3739 H   0  0  0  0  0  0  0  0  0  0  0  0
   43.7483   26.4397   34.3169 H   0  0  0  0  0  0  0  0  0  0  0  0
  1  5  1  0
  1  2  1  0
  2  3  1  0
  4  3  1  0
  5  4  1  0
  6  1  1  0
  7  6  2  0
  8  7  1  0
  9 10  1  0
  9  8  2  0
 10 11  2  0
 11  6  1  0
 12 13  1  0
 12  5  1  0
 13 14  2  0
 14 15  1  0
 16 15  2  0
 17 16  1  0
 18 17  2  0
 18 13  1  0
  2 19  1  0
  2 20  1  0
  3 21  1  0
  3 22  1  0
  4 23  1  0
  4 24  1  0
  5 25  1  1
  7 26  1  0
  8 27  1  0
 10 28  1  0
 12 29  1  0
 12 30  1  0
 14 31  1  0
 15 32  1  0
 17 33  1  0
M  ISO  8  19  13  20  13  21  13  22  13  23  13  24  13  25  13  26  14
M  ISO  7  27  14  28  14  29   8  30   8  31  14  32  14  33  14
M  END
>  <minimizedAffinity>  (1) 
-4.28755283

>  <minimizedRMSD>  (1) 
1.25585759

$$$$
