
     RDKit          3D

 32 34  0  0  1  0  0  0  0  0999 V2000
   38.4340   23.5940   36.1050 N   0  0  0  0  0  0  0  0  0  0  0  0
   37.6470   24.1470   37.2080 C   0  0  0  0  0  0  0  0  0  0  0  0
   38.3060   23.4470   38.4190 C   0  0  0  0  0  0  0  0  0  0  0  0
   39.6090   22.8520   37.8740 C   0  0  0  0  0  0  0  0  0  0  0  0
   39.7650   23.6680   36.6240 C   0  0  1  0  0  0  0  0  0  0  0  0
   37.9610   23.1170   34.8540 C   0  0  0  0  0  0  0  0  0  0  0  0
   37.5130   21.8050   34.6530 C   0  0  0  0  0  0  0  0  0  0  0  0
   37.0680   21.4200   33.3990 C   0  0  0  0  0  0  0  0  0  0  0  0
   37.0880   22.3530   32.4050 N   0  0  0  0  0  0  0  0  0  0  0  0
   37.5220   23.6060   32.6180 C   0  0  0  0  0  0  0  0  0  0  0  0
   37.9640   24.0190   33.8290 N   0  0  0  0  0  0  0  0  0  0  0  0
   40.7960   23.1450   35.6740 C   0  0  0  0  0  0  0  0  0  0  0  0
   42.1310   23.6450   35.8680 C   0  0  0  0  0  0  0  0  0  0  0  0
   43.2130   23.2490   36.5720 C   0  0  0  0  0  0  0  0  0  0  0  0
   44.3870   23.9350   36.5750 C   0  0  0  0  0  0  0  0  0  0  0  0
   44.4010   25.1380   35.7620 C   0  0  0  0  0  0  0  0  0  0  0  0
   42.6520   25.1700   35.0380 S   0  0  0  0  0  0  0  0  0  0  0  0
   37.7489   25.2406   37.2687 H   0  0  0  0  0  0  0  0  0  0  0  0
   36.5633   23.9792   37.1212 H   0  0  0  0  0  0  0  0  0  0  0  0
   38.5172   24.1736   39.2174 H   0  0  0  0  0  0  0  0  0  0  0  0
   37.6526   22.6780   38.8570 H   0  0  0  0  0  0  0  0  0  0  0  0
   40.4488   23.0037   38.5681 H   0  0  0  0  0  0  0  0  0  0  0  0
   39.5915   21.7633   37.7176 H   0  0  0  0  0  0  0  0  0  0  0  0
   40.1376   24.6876   36.8019 H   0  0  0  0  0  0  0  0  0  0  0  0
   37.5146   21.0856   35.4851 H   0  0  0  0  0  0  0  0  0  0  0  0
   36.7107   20.3967   33.2116 H   0  0  0  0  0  0  0  0  0  0  0  0
   37.5182   24.3199   31.7811 H   0  0  0  0  0  0  0  0  0  0  0  0
   40.4808   23.4089   34.6537 H   0  0  0  0  0  0  0  0  0  0  0  0
   40.8511   22.0616   35.8565 H   0  0  0  0  0  0  0  0  0  0  0  0
   43.1414   22.3290   37.1707 H   0  0  0  0  0  0  0  0  0  0  0  0
   45.2628   23.6026   37.1516 H   0  0  0  0  0  0  0  0  0  0  0  0
   45.2227   25.8524   35.6058 H   0  0  0  0  0  0  0  0  0  0  0  0
  1  5  1  0
  1  2  1  0
  2  3  1  0
  4  3  1  0
  5  4  1  0
  6  1  1  0
  7  6  2  0
  8  7  1  0
  9 10  1  0
  9  8  2  0
 10 11  2  0
 11  6  1  0
 12 13  1  0
 12  5  1  0
 13 14  2  0
 14 15  1  0
 16 15  2  0
 17 16  1  0
 17 13  1  0
  2 18  1  0
  2 19  1  0
  3 20  1  0
  3 21  1  0
  4 22  1  0
  4 23  1  0
  5 24  1  1
  7 25  1  0
  8 26  1  0
 10 27  1  0
 12 28  1  0
 12 29  1  0
 14 30  1  0
 15 31  1  0
 16 32  1  0
M  ISO  8  18  13  19  13  20  13  21  13  22  13  23  13  24  13  25  14
M  ISO  7  26  14  27  14  28   8  29   8  30  14  31  14  32  14
M  END
>  <minimizedAffinity>  (1) 
-4.26439905

>  <minimizedRMSD>  (1) 
1.06676888

$$$$
