
     RDKit          3D

 32 34  0  0  1  0  0  0  0  0999 V2000
   38.4390   23.6460   36.0840 N   0  0  0  0  0  0  0  0  0  0  0  0
   37.6200   24.1700   37.1770 C   0  0  0  0  0  0  0  0  0  0  0  0
   38.2260   23.4440   38.3830 C   0  0  0  0  0  0  0  0  0  0  0  0
   39.5310   22.8480   37.8710 C   0  0  0  0  0  0  0  0  0  0  0  0
   39.7610   23.7040   36.6390 C   0  0  1  0  0  0  0  0  0  0  0  0
   37.9880   23.1980   34.7950 C   0  0  0  0  0  0  0  0  0  0  0  0
   37.5810   21.8850   34.5530 C   0  0  0  0  0  0  0  0  0  0  0  0
   37.1610   21.5590   33.2640 C   0  0  0  0  0  0  0  0  0  0  0  0
   37.1700   22.5400   32.3080 N   0  0  0  0  0  0  0  0  0  0  0  0
   37.5710   23.7990   32.5800 C   0  0  0  0  0  0  0  0  0  0  0  0
   37.9850   24.1530   33.8180 N   0  0  0  0  0  0  0  0  0  0  0  0
   40.7880   23.1580   35.7130 C   0  0  0  0  0  0  0  0  0  0  0  0
   42.1250   23.7310   35.8410 C   0  0  0  0  0  0  0  0  0  0  0  0
   43.1320   23.0880   36.5660 C   0  0  0  0  0  0  0  0  0  0  0  0
   44.2940   23.8290   36.5350 C   0  0  0  0  0  0  0  0  0  0  0  0
   43.9890   24.9140   35.7930 N   0  0  0  0  0  0  0  0  0  0  0  0
   42.7270   24.8480   35.3940 N   0  0  0  0  0  0  0  0  0  0  0  0
   37.7238   25.2611   37.2703 H   0  0  0  0  0  0  0  0  0  0  0  0
   36.5400   24.0054   37.0488 H   0  0  0  0  0  0  0  0  0  0  0  0
   38.4197   24.1516   39.2027 H   0  0  0  0  0  0  0  0  0  0  0  0
   37.5500   22.6743   38.7838 H   0  0  0  0  0  0  0  0  0  0  0  0
   40.3444   22.9624   38.6027 H   0  0  0  0  0  0  0  0  0  0  0  0
   39.4960   21.7657   37.6774 H   0  0  0  0  0  0  0  0  0  0  0  0
   40.1565   24.7098   36.8438 H   0  0  0  0  0  0  0  0  0  0  0  0
   37.5913   21.1311   35.3540 H   0  0  0  0  0  0  0  0  0  0  0  0
   36.8304   20.5385   33.0206 H   0  0  0  0  0  0  0  0  0  0  0  0
   37.5611   24.5528   31.7789 H   0  0  0  0  0  0  0  0  0  0  0  0
   40.4423   23.3335   34.6836 H   0  0  0  0  0  0  0  0  0  0  0  0
   40.8915   22.0944   35.9737 H   0  0  0  0  0  0  0  0  0  0  0  0
   43.0141   22.1267   37.0875 H   0  0  0  0  0  0  0  0  0  0  0  0
   45.2567   23.5890   37.0100 H   0  0  0  0  0  0  0  0  0  0  0  0
   44.6405   25.6799   35.5698 H   0  0  0  0  0  0  0  0  0  0  0  0
  1  5  1  0
  1  2  1  0
  2  3  1  0
  4  3  1  0
  5  4  1  0
  6  1  1  0
  7  6  2  0
  8  7  1  0
  9 10  1  0
  9  8  2  0
 10 11  2  0
 11  6  1  0
 12 13  1  0
 12  5  1  0
 13 14  1  0
 15 14  2  0
 16 15  1  0
 17 16  1  0
 17 13  2  0
  2 18  1  0
  2 19  1  0
  3 20  1  0
  3 21  1  0
  4 22  1  0
  4 23  1  0
  5 24  1  1
  7 25  1  0
  8 26  1  0
 10 27  1  0
 12 28  1  0
 12 29  1  0
 14 30  1  0
 15 31  1  0
 16 32  1  0
M  ISO  8  18  13  19  13  20  13  21  13  22  13  23  13  24  13  25  14
M  ISO  7  26  14  27  14  28   8  29   8  30  14  31  14  32   9
M  END
>  <minimizedAffinity>  (1) 
-4.09016132

>  <minimizedRMSD>  (1) 
0.889429152

$$$$
