
     RDKit          3D

 30 32  0  0  1  0  0  0  0  0999 V2000
   38.4670   23.5910   36.0940 N   0  0  0  0  0  0  0  0  0  0  0  0
   37.6900   24.1480   37.2020 C   0  0  0  0  0  0  0  0  0  0  0  0
   38.3660   23.4840   38.4070 C   0  0  0  0  0  0  0  0  0  0  0  0
   39.6450   22.8350   37.8600 C   0  0  0  0  0  0  0  0  0  0  0  0
   39.8170   23.6430   36.6060 C   0  0  1  0  0  0  0  0  0  0  0  0
   37.9720   23.1250   34.8410 C   0  0  0  0  0  0  0  0  0  0  0  0
   37.5130   21.8000   34.6640 C   0  0  0  0  0  0  0  0  0  0  0  0
   37.0440   21.4130   33.4160 C   0  0  0  0  0  0  0  0  0  0  0  0
   37.0550   22.3620   32.4140 N   0  0  0  0  0  0  0  0  0  0  0  0
   37.4970   23.6040   32.6260 C   0  0  0  0  0  0  0  0  0  0  0  0
   37.9620   24.0140   33.8280 N   0  0  0  0  0  0  0  0  0  0  0  0
   40.8180   23.1110   35.6410 C   0  0  0  0  0  0  0  0  0  0  0  0
   42.1480   23.6990   35.8560 C   0  0  0  0  0  0  0  0  0  0  0  0
   42.6890   24.8370   35.3840 N   0  0  0  0  0  0  0  0  0  0  0  0
   43.9210   24.9700   35.8380 O   0  0  0  0  0  0  0  0  0  0  0  0
   44.2180   23.9320   36.6130 C   0  0  0  0  0  0  0  0  0  0  0  0
   43.1370   23.1560   36.6230 N   0  0  0  0  0  0  0  0  0  0  0  0
   37.7776   25.2437   37.2444 H   0  0  0  0  0  0  0  0  0  0  0  0
   36.6083   23.9605   37.1326 H   0  0  0  0  0  0  0  0  0  0  0  0
   38.6138   24.2362   39.1704 H   0  0  0  0  0  0  0  0  0  0  0  0
   37.7075   22.7438   38.8851 H   0  0  0  0  0  0  0  0  0  0  0  0
   40.4945   22.9591   38.5477 H   0  0  0  0  0  0  0  0  0  0  0  0
   39.5907   21.7464   37.7115 H   0  0  0  0  0  0  0  0  0  0  0  0
   40.2237   24.6489   36.7869 H   0  0  0  0  0  0  0  0  0  0  0  0
   37.5272   21.0870   35.5015 H   0  0  0  0  0  0  0  0  0  0  0  0
   36.6785   20.3917   33.2332 H   0  0  0  0  0  0  0  0  0  0  0  0
   37.4824   24.3207   31.7916 H   0  0  0  0  0  0  0  0  0  0  0  0
   40.4863   23.3445   34.6185 H   0  0  0  0  0  0  0  0  0  0  0  0
   40.8956   22.0242   35.7923 H   0  0  0  0  0  0  0  0  0  0  0  0
   45.1664   23.7508   37.1400 H   0  0  0  0  0  0  0  0  0  0  0  0
  1  5  1  0
  1  2  1  0
  2  3  1  0
  4  3  1  0
  5  4  1  0
  6  1  1  0
  7  6  2  0
  8  7  1  0
  9 10  1  0
  9  8  2  0
 10 11  2  0
 11  6  1  0
 12 13  1  0
 12  5  1  0
 13 17  1  0
 14 15  1  0
 14 13  2  0
 15 16  1  0
 16 17  2  0
  2 18  1  0
  2 19  1  0
  3 20  1  0
  3 21  1  0
  4 22  1  0
  4 23  1  0
  5 24  1  1
  7 25  1  0
  8 26  1  0
 10 27  1  0
 12 28  1  0
 12 29  1  0
 16 30  1  0
M  ISO  8  18  13  19  13  20  13  21  13  22  13  23  13  24  13  25  14
M  ISO  5  26  14  27  14  28   8  29   8  30  14
M  END
>  <minimizedAffinity>  (1) 
-4.03244305

>  <minimizedRMSD>  (1) 
0.836855769

$$$$
