
     RDKit          3D

 31 33  0  0  1  0  0  0  0  0999 V2000
   38.4440   23.5940   36.1170 N   0  0  0  0  0  0  0  0  0  0  0  0
   37.6570   24.0990   37.2400 C   0  0  0  0  0  0  0  0  0  0  0  0
   38.3490   23.4560   38.4360 C   0  0  0  0  0  0  0  0  0  0  0  0
   39.6400   22.8500   37.8680 C   0  0  0  0  0  0  0  0  0  0  0  0
   39.7900   23.6810   36.6250 C   0  0  1  0  0  0  0  0  0  0  0  0
   37.9700   23.1370   34.8540 C   0  0  0  0  0  0  0  0  0  0  0  0
   37.5280   21.8140   34.6640 C   0  0  0  0  0  0  0  0  0  0  0  0
   37.0790   21.4390   33.4020 C   0  0  0  0  0  0  0  0  0  0  0  0
   37.0960   22.3850   32.4210 N   0  0  0  0  0  0  0  0  0  0  0  0
   37.5250   23.6370   32.6390 C   0  0  0  0  0  0  0  0  0  0  0  0
   37.9640   24.0330   33.8410 N   0  0  0  0  0  0  0  0  0  0  0  0
   40.8150   23.1730   35.6820 C   0  0  0  0  0  0  0  0  0  0  0  0
   42.1290   23.8460   35.7550 C   0  0  0  0  0  0  0  0  0  0  0  0
   42.4600   24.9970   34.8460 C   0  0  0  0  0  0  0  0  0  0  0  0
   44.1150   25.4060   35.3540 S   0  0  0  0  0  0  0  0  0  0  0  0
   44.1530   24.0270   36.6790 C   0  0  0  0  0  0  0  0  0  0  0  0
   43.1050   23.5010   36.6090 N   0  0  0  0  0  0  0  0  0  0  0  0
   37.7019   25.1966   37.2964 H   0  0  0  0  0  0  0  0  0  0  0  0
   36.5855   23.8601   37.1700 H   0  0  0  0  0  0  0  0  0  0  0  0
   38.5804   24.2116   39.2012 H   0  0  0  0  0  0  0  0  0  0  0  0
   37.7160   22.6993   38.9225 H   0  0  0  0  0  0  0  0  0  0  0  0
   40.4900   22.9829   38.5535 H   0  0  0  0  0  0  0  0  0  0  0  0
   39.6079   21.7635   37.6992 H   0  0  0  0  0  0  0  0  0  0  0  0
   40.1562   24.7038   36.7976 H   0  0  0  0  0  0  0  0  0  0  0  0
   37.5375   21.0931   35.4948 H   0  0  0  0  0  0  0  0  0  0  0  0
   36.7235   20.4172   33.2032 H   0  0  0  0  0  0  0  0  0  0  0  0
   37.5161   24.3580   31.8083 H   0  0  0  0  0  0  0  0  0  0  0  0
   40.4269   23.2951   34.6600 H   0  0  0  0  0  0  0  0  0  0  0  0
   40.9940   22.1247   35.9630 H   0  0  0  0  0  0  0  0  0  0  0  0
   41.8392   25.4652   34.0679 H   0  0  0  0  0  0  0  0  0  0  0  0
   44.9798   23.7794   37.3610 H   0  0  0  0  0  0  0  0  0  0  0  0
  1  5  1  0
  1  2  1  0
  2  3  1  0
  4  3  1  0
  5  4  1  0
  6  1  1  0
  7  6  2  0
  8  7  1  0
  9 10  1  0
  9  8  2  0
 10 11  2  0
 11  6  1  0
 12 13  1  0
 12  5  1  0
 13 17  1  0
 14 15  1  0
 14 13  2  0
 15 16  1  0
 17 16  2  0
  2 18  1  0
  2 19  1  0
  3 20  1  0
  3 21  1  0
  4 22  1  0
  4 23  1  0
  5 24  1  1
  7 25  1  0
  8 26  1  0
 10 27  1  0
 12 28  1  0
 12 29  1  0
 14 30  1  0
 16 31  1  0
M  ISO  8  18  13  19  13  20  13  21  13  22  13  23  13  24  13  25  14
M  ISO  6  26  14  27  14  28   8  29   8  30  14  31  14
M  END
>  <minimizedAffinity>  (1) 
-4.03056145

>  <minimizedRMSD>  (1) 
1.00249469

$$$$
