
     RDKit          3D

 27 28  0  0  1  0  0  0  0  0999 V2000
   38.6040   23.4840   36.0770 N   0  0  0  0  0  0  0  0  0  0  0  0
   37.9690   24.0620   37.2610 C   0  0  0  0  0  0  0  0  0  0  0  0
   38.7500   23.3790   38.3930 C   0  0  0  0  0  0  0  0  0  0  0  0
   39.9230   22.6930   37.7010 C   0  0  0  0  0  0  0  0  0  0  0  0
   40.0070   23.5190   36.4470 C   0  0  1  0  0  0  0  0  0  0  0  0
   37.9750   23.0160   34.8840 C   0  0  0  0  0  0  0  0  0  0  0  0
   37.3760   21.7570   34.7980 C   0  0  0  0  0  0  0  0  0  0  0  0
   36.7870   21.3920   33.5900 C   0  0  0  0  0  0  0  0  0  0  0  0
   36.8290   22.2930   32.5520 N   0  0  0  0  0  0  0  0  0  0  0  0
   37.4130   23.4910   32.6760 C   0  0  0  0  0  0  0  0  0  0  0  0
   37.9870   23.8660   33.8270 N   0  0  0  0  0  0  0  0  0  0  0  0
   40.8940   22.9170   35.3990 C   0  0  0  0  0  0  0  0  0  0  0  0
   41.2650   23.8730   34.4040 N   0  0  0  0  0  0  0  0  0  0  0  0
   38.0927   25.1546   37.2901 H   0  0  0  0  0  0  0  0  0  0  0  0
   36.8814   23.9040   37.3083 H   0  0  0  0  0  0  0  0  0  0  0  0
   39.1100   24.1231   39.1187 H   0  0  0  0  0  0  0  0  0  0  0  0
   38.1273   22.6679   38.9557 H   0  0  0  0  0  0  0  0  0  0  0  0
   40.8450   22.7611   38.2971 H   0  0  0  0  0  0  0  0  0  0  0  0
   39.7959   21.6129   37.5362 H   0  0  0  0  0  0  0  0  0  0  0  0
   40.4488   24.5188   36.5702 H   0  0  0  0  0  0  0  0  0  0  0  0
   37.3697   21.0734   35.6598 H   0  0  0  0  0  0  0  0  0  0  0  0
   36.3024   20.4118   33.4697 H   0  0  0  0  0  0  0  0  0  0  0  0
   37.4218   24.1795   31.8181 H   0  0  0  0  0  0  0  0  0  0  0  0
   41.8052   22.5334   35.8813 H   0  0  0  0  0  0  0  0  0  0  0  0
   40.3374   22.1074   34.9042 H   0  0  0  0  0  0  0  0  0  0  0  0
   41.5988   24.7331   34.8619 H   0  0  0  0  0  0  0  0  0  0  0  0
   42.0158   23.4832   33.8164 H   0  0  0  0  0  0  0  0  0  0  0  0
  1  5  1  0
  1  2  1  0
  2  3  1  0
  4  3  1  0
  5  4  1  0
  6  1  1  0
  7  6  2  0
  8  7  1  0
  9 10  1  0
  9  8  2  0
 10 11  2  0
 11  6  1  0
 12  5  1  0
 13 12  1  0
  2 14  1  0
  2 15  1  0
  3 16  1  0
  3 17  1  0
  4 18  1  0
  4 19  1  0
  5 20  1  1
  7 21  1  0
  8 22  1  0
 10 23  1  0
 12 24  1  0
 12 25  1  0
 13 26  1  0
 13 27  1  0
M  ISO  8  14  13  15  13  16  13  17  13  18  13  19  13  20  13  21  14
M  ISO  6  22  14  23  14  24   8  25   8  26   5  27   5
M  END
>  <minimizedAffinity>  (1) 
-3.33303881

>  <minimizedRMSD>  (1) 
0.174385548

$$$$
