
     RDKit          3D

 48 51  0  0  1  0  0  0  0  0999 V2000
   38.5440   23.5800   36.0970 N   0  0  0  0  0  0  0  0  0  0  0  0
   37.7990   23.9690   37.2730 C   0  0  0  0  0  0  0  0  0  0  0  0
   38.5880   23.2670   38.3580 C   0  0  0  0  0  0  0  0  0  0  0  0
   39.8850   22.8180   37.6800 C   0  0  0  0  0  0  0  0  0  0  0  0
   39.9290   23.7430   36.5130 C   0  0  1  0  0  0  0  0  0  0  0  0
   38.0000   23.1430   34.8440 C   0  0  0  0  0  0  0  0  0  0  0  0
   37.6270   21.8890   34.5060 C   0  0  0  0  0  0  0  0  0  0  0  0
   37.1210   21.6590   33.2210 C   0  0  0  0  0  0  0  0  0  0  0  0
   37.0310   22.7540   32.3570 N   0  0  0  0  0  0  0  0  0  0  0  0
   37.4000   23.9670   32.7070 C   0  0  0  0  0  0  0  0  0  0  0  0
   37.8470   24.0430   33.9120 N   0  0  0  0  0  0  0  0  0  0  0  0
   40.8720   23.4080   35.3770 C   0  0  0  0  0  0  0  0  0  0  0  0
   42.2470   23.7260   35.5950 C   0  0  0  0  0  0  0  0  0  0  0  0
   43.1240   22.9760   36.3210 N   0  0  0  0  0  0  0  0  0  0  0  0
   44.4220   23.3340   36.5220 C   0  0  0  0  0  0  0  0  0  0  0  0
   44.9430   24.4730   36.0150 N   0  0  0  0  0  0  0  0  0  0  0  0
   44.1160   25.2500   35.2900 C   0  0  0  0  0  0  0  0  0  0  0  0
   44.6160   26.3920   34.7410 C   0  0  0  0  0  0  0  0  0  0  0  0
   43.8480   27.2140   33.9610 C   0  0  0  0  0  0  0  0  0  0  0  0
   42.5360   26.8540   33.7400 C   0  0  0  0  0  0  0  0  0  0  0  0
   42.0560   25.6730   34.3290 C   0  0  0  0  0  0  0  0  0  0  0  0
   42.7860   24.8610   35.0930 C   0  0  0  0  0  0  0  0  0  0  0  0
   40.8740   25.6410   33.8060 C   0  0  0  0  0  0  0  0  0  0  0  0
   41.0760   25.7200   32.2530 C   0  0  0  0  0  0  0  0  0  0  0  0
   40.1230   26.9250   34.3490 C   0  0  0  0  0  0  0  0  0  0  0  0
   37.8034   25.0602   37.4117 H   0  0  0  0  0  0  0  0  0  0  0  0
   36.7320   23.7031   37.2432 H   0  0  0  0  0  0  0  0  0  0  0  0
   38.8042   23.9575   39.1866 H   0  0  0  0  0  0  0  0  0  0  0  0
   38.0335   22.4204   38.7890 H   0  0  0  0  0  0  0  0  0  0  0  0
   40.7547   22.9570   38.3390 H   0  0  0  0  0  0  0  0  0  0  0  0
   39.9128   21.7508   37.4147 H   0  0  0  0  0  0  0  0  0  0  0  0
   40.3044   24.7425   36.7779 H   0  0  0  0  0  0  0  0  0  0  0  0
   37.7192   21.0638   35.2274 H   0  0  0  0  0  0  0  0  0  0  0  0
   36.8060   20.6541   32.9032 H   0  0  0  0  0  0  0  0  0  0  0  0
   37.3330   24.8344   32.0339 H   0  0  0  0  0  0  0  0  0  0  0  0
   40.5357   23.9585   34.4860 H   0  0  0  0  0  0  0  0  0  0  0  0
   40.8323   22.3140   35.2692 H   0  0  0  0  0  0  0  0  0  0  0  0
   45.0690   22.6732   37.1177 H   0  0  0  0  0  0  0  0  0  0  0  0
   45.6658   26.6611   34.9296 H   0  0  0  0  0  0  0  0  0  0  0  0
   44.2650   28.1334   33.5241 H   0  0  0  0  0  0  0  0  0  0  0  0
   41.8794   27.4780   33.1160 H   0  0  0  0  0  0  0  0  0  0  0  0
   40.2950   24.7390   34.0534 H   0  0  0  0  0  0  0  0  0  0  0  0
   42.0798   26.1126   32.0333 H   0  0  0  0  0  0  0  0  0  0  0  0
   40.9721   24.7150   31.8181 H   0  0  0  0  0  0  0  0  0  0  0  0
   40.3178   26.3879   31.8181 H   0  0  0  0  0  0  0  0  0  0  0  0
   40.1287   26.9153   35.4489 H   0  0  0  0  0  0  0  0  0  0  0  0
   40.6346   27.8293   33.9876 H   0  0  0  0  0  0  0  0  0  0  0  0
   39.0841   26.9224   33.9876 H   0  0  0  0  0  0  0  0  0  0  0  0
  1  5  1  0
  1  2  1  0
  2  3  1  0
  4  3  1  0
  5  4  1  0
  6  1  1  0
  7  6  2  0
  8  7  1  0
  9 10  1  0
  9  8  2  0
 10 11  2  0
 11  6  1  0
 12 13  1  0
 12  5  1  0
 13 14  2  0
 14 15  1  0
 16 15  2  0
 17 16  1  0
 18 17  2  0
 19 18  1  0
 20 19  2  0
 20 21  1  0
 21 22  2  0
 22 17  1  0
 22 13  1  0
 23 21  1  0
 23 25  1  0
 24 23  1  0
  2 26  1  0
  2 27  1  0
  3 28  1  0
  3 29  1  0
  4 30  1  0
  4 31  1  0
  5 32  1  1
  7 33  1  0
  8 34  1  0
 10 35  1  0
 12 36  1  0
 12 37  1  0
 15 38  1  0
 18 39  1  0
 19 40  1  0
 20 41  1  0
 23 42  1  0
 24 43  1  0
 24 44  1  0
 24 45  1  0
 25 46  1  0
 25 47  1  0
 25 48  1  0
M  ISO  8  26  13  27  13  28  13  29  13  30  13  31  13  32  13  33  14
M  ISO  8  34  14  35  14  36   8  37   8  38  14  39  14  40  14  41  14
M  ISO  7  42   8  43   8  44   8  45   8  46   8  47   8  48   8
M  END
>  <minimizedAffinity>  (1) 
-5.01250124

>  <minimizedRMSD>  (1) 
0.594370902

$$$$
