
     RDKit          3D

 45 48  0  0  1  0  0  0  0  0999 V2000
   38.5710   23.6260   36.0940 N   0  0  0  0  0  0  0  0  0  0  0  0
   37.8080   23.9850   37.2750 C   0  0  0  0  0  0  0  0  0  0  0  0
   38.5720   23.2750   38.3750 C   0  0  0  0  0  0  0  0  0  0  0  0
   39.8690   22.8450   37.7210 C   0  0  0  0  0  0  0  0  0  0  0  0
   39.9370   23.7860   36.5330 C   0  0  1  0  0  0  0  0  0  0  0  0
   38.0380   23.2270   34.8480 C   0  0  0  0  0  0  0  0  0  0  0  0
   37.7470   21.8950   34.5010 C   0  0  0  0  0  0  0  0  0  0  0  0
   37.2630   21.6280   33.2250 C   0  0  0  0  0  0  0  0  0  0  0  0
   37.1040   22.7230   32.3770 N   0  0  0  0  0  0  0  0  0  0  0  0
   37.3870   23.9620   32.7400 C   0  0  0  0  0  0  0  0  0  0  0  0
   37.8590   24.2550   33.9770 N   0  0  0  0  0  0  0  0  0  0  0  0
   40.9630   23.3510   35.4560 C   0  0  0  0  0  0  0  0  0  0  0  0
   42.3020   23.8250   35.6390 C   0  0  0  0  0  0  0  0  0  0  0  0
   43.1590   23.4620   36.6080 N   0  0  0  0  0  0  0  0  0  0  0  0
   44.3480   24.1570   36.8600 C   0  0  0  0  0  0  0  0  0  0  0  0
   44.7350   25.2350   36.1810 N   0  0  0  0  0  0  0  0  0  0  0  0
   43.9130   25.6520   35.1840 C   0  0  0  0  0  0  0  0  0  0  0  0
   44.3080   26.7250   34.4210 C   0  0  0  0  0  0  0  0  0  0  0  0
   43.5250   27.0880   33.3450 C   0  0  0  0  0  0  0  0  0  0  0  0
   42.4030   26.3770   33.0520 C   0  0  0  0  0  0  0  0  0  0  0  0
   42.0330   25.3020   33.8450 C   0  0  0  0  0  0  0  0  0  0  0  0
   42.7410   24.8990   34.9660 C   0  0  0  0  0  0  0  0  0  0  0  0
   41.1850   24.4440   32.9960 C   0  0  0  0  0  0  0  0  0  0  0  0
   40.6320   25.5240   31.9230 C   0  0  0  0  0  0  0  0  0  0  0  0
   37.8028   25.0738   37.4312 H   0  0  0  0  0  0  0  0  0  0  0  0
   36.7467   23.7012   37.2192 H   0  0  0  0  0  0  0  0  0  0  0  0
   38.7680   23.9576   39.2150 H   0  0  0  0  0  0  0  0  0  0  0  0
   38.0118   22.4246   38.7909 H   0  0  0  0  0  0  0  0  0  0  0  0
   40.7257   22.9879   38.3960 H   0  0  0  0  0  0  0  0  0  0  0  0
   39.9025   21.7793   37.4507 H   0  0  0  0  0  0  0  0  0  0  0  0
   40.2703   24.8112   36.7518 H   0  0  0  0  0  0  0  0  0  0  0  0
   37.8993   21.0808   35.2248 H   0  0  0  0  0  0  0  0  0  0  0  0
   37.0182   20.6055   32.9015 H   0  0  0  0  0  0  0  0  0  0  0  0
   37.2354   24.7783   32.0185 H   0  0  0  0  0  0  0  0  0  0  0  0
   40.6057   23.7182   34.4826 H   0  0  0  0  0  0  0  0  0  0  0  0
   41.0231   22.2550   35.5281 H   0  0  0  0  0  0  0  0  0  0  0  0
   45.0007   23.7910   37.6662 H   0  0  0  0  0  0  0  0  0  0  0  0
   45.2261   27.2806   34.6626 H   0  0  0  0  0  0  0  0  0  0  0  0
   43.8076   27.9513   32.7247 H   0  0  0  0  0  0  0  0  0  0  0  0
   41.7879   26.6558   32.1837 H   0  0  0  0  0  0  0  0  0  0  0  0
   41.7720   23.6526   32.5071 H   0  0  0  0  0  0  0  0  0  0  0  0
   40.3983   23.9016   33.5409 H   0  0  0  0  0  0  0  0  0  0  0  0
   40.1937   26.3800   32.4570 H   0  0  0  0  0  0  0  0  0  0  0  0
   41.4628   25.8721   31.2917 H   0  0  0  0  0  0  0  0  0  0  0  0
   39.8639   25.0534   31.2917 H   0  0  0  0  0  0  0  0  0  0  0  0
  1  5  1  0
  1  2  1  0
  2  3  1  0
  4  3  1  0
  5  4  1  0
  6  1  1  0
  7  6  2  0
  8  7  1  0
  9 10  1  0
  9  8  2  0
 10 11  2  0
 11  6  1  0
 12 13  1  0
 12  5  1  0
 13 14  2  0
 14 15  1  0
 16 15  2  0
 17 16  1  0
 18 17  2  0
 19 18  1  0
 20 19  2  0
 20 21  1  0
 21 22  2  0
 22 17  1  0
 22 13  1  0
 23 21  1  0
 24 23  1  0
  2 25  1  0
  2 26  1  0
  3 27  1  0
  3 28  1  0
  4 29  1  0
  4 30  1  0
  5 31  1  1
  7 32  1  0
  8 33  1  0
 10 34  1  0
 12 35  1  0
 12 36  1  0
 15 37  1  0
 18 38  1  0
 19 39  1  0
 20 40  1  0
 23 41  1  0
 23 42  1  0
 24 43  1  0
 24 44  1  0
 24 45  1  0
M  ISO  8  25  13  26  13  27  13  28  13  29  13  30  13  31  13  32  14
M  ISO  8  33  14  34  14  35   8  36   8  37  14  38  14  39  14  40  14
M  ISO  5  41   8  42   8  43   8  44   8  45   8
M  END
>  <minimizedAffinity>  (1) 
-4.60601568

>  <minimizedRMSD>  (1) 
0.422822177

$$$$
