
     RDKit          3D

 22 22  0  0  0  0  0  0  0  0999 V2000
   39.4910   23.0450   36.9990 C   0  0  0  0  0  0  0  0  0  0  0  0
   38.7460   23.1530   38.1950 C   0  0  0  0  0  0  0  0  0  0  0  0
   37.9700   24.3210   38.3750 C   0  0  0  0  0  0  0  0  0  0  0  0
   37.9880   25.2670   37.3920 N   0  0  0  0  0  0  0  0  0  0  0  0
   38.7230   25.1150   36.2620 C   0  0  0  0  0  0  0  0  0  0  0  0
   39.4690   24.0100   36.0660 N   0  0  0  0  0  0  0  0  0  0  0  0
   38.7200   26.1510   35.2240 C   0  0  0  0  0  0  0  0  0  0  0  0
   38.0630   27.4390   35.7120 C   0  0  0  0  0  0  0  0  0  0  0  0
   37.9480   25.6570   33.9990 C   0  0  0  0  0  0  0  0  0  0  0  0
   40.1190   26.5460   34.7780 C   0  0  0  0  0  0  0  0  0  0  0  0
   40.1042   22.1479   36.8283 H   0  0  0  0  0  0  0  0  0  0  0  0
   38.7690   22.3593   38.9562 H   0  0  0  0  0  0  0  0  0  0  0  0
   37.3673   24.4634   39.2841 H   0  0  0  0  0  0  0  0  0  0  0  0
   38.0558   27.4530   36.8119 H   0  0  0  0  0  0  0  0  0  0  0  0
   38.6299   28.3043   35.3379 H   0  0  0  0  0  0  0  0  0  0  0  0
   37.0297   27.4881   35.3379 H   0  0  0  0  0  0  0  0  0  0  0  0
   37.0635   25.0910   34.3267 H   0  0  0  0  0  0  0  0  0  0  0  0
   37.6286   26.5189   33.3948 H   0  0  0  0  0  0  0  0  0  0  0  0
   38.5968   25.0059   33.3948 H   0  0  0  0  0  0  0  0  0  0  0  0
   40.7491   26.7239   35.6619 H   0  0  0  0  0  0  0  0  0  0  0  0
   40.5540   25.7356   34.1747 H   0  0  0  0  0  0  0  0  0  0  0  0
   40.0659   27.4643   34.1747 H   0  0  0  0  0  0  0  0  0  0  0  0
  1  2  2  0
  2  3  1  0
  4  3  2  0
  5  4  1  0
  6  5  2  0
  6  1  1  0
  7  8  1  0
  7  5  1  0
  9  7  1  0
 10  7  1  0
  1 11  1  0
  2 12  1  0
  3 13  1  0
  8 14  1  0
  8 15  1  0
  8 16  1  0
  9 17  1  0
  9 18  1  0
  9 19  1  0
 10 20  1  0
 10 21  1  0
 10 22  1  0
M  ISO  8  11  14  12  14  13  14  14   8  15   8  16   8  17   8  18   8
M  ISO  4  19   8  20   8  21   8  22   8
M  END
>  <minimizedAffinity>  (1) 
-3.40423465

>  <minimizedRMSD>  (1) 
3.56938982

$$$$
