
     RDKit          3D

 35 36  0  0  0  0  0  0  0  0999 V2000
   38.2990   25.6020   34.8370 C   0  0  0  0  0  0  0  0  0  0  0  0
   39.8920   23.0250   36.8880 C   0  0  0  0  0  0  0  0  0  0  0  0
   39.2010   23.1110   38.1240 C   0  0  0  0  0  0  0  0  0  0  0  0
   38.1810   24.0700   38.2360 C   0  0  0  0  0  0  0  0  0  0  0  0
   37.9060   24.8660   37.1580 N   0  0  0  0  0  0  0  0  0  0  0  0
   38.5900   24.7470   36.0030 C   0  0  0  0  0  0  0  0  0  0  0  0
   39.5780   23.8320   35.8640 N   0  0  0  0  0  0  0  0  0  0  0  0
   37.0590   26.4620   35.1130 C   0  0  0  0  0  0  0  0  0  0  0  0
   38.0100   24.7450   33.6150 C   0  0  0  0  0  0  0  0  0  0  0  0
   39.4130   26.5630   34.4990 C   0  0  0  0  0  0  0  0  0  0  0  0
   39.1280   27.8660   30.4300 C   0  0  0  0  0  0  0  0  0  0  0  0
   38.0520   27.9930   31.3000 C   0  0  0  0  0  0  0  0  0  0  0  0
   38.1850   27.5600   32.6060 C   0  0  0  0  0  0  0  0  0  0  0  0
   39.3810   26.9970   33.0670 C   0  0  0  0  0  0  0  0  0  0  0  0
   40.4540   26.8690   32.2080 C   0  0  0  0  0  0  0  0  0  0  0  0
   40.3190   27.3020   30.9030 C   0  0  0  0  0  0  0  0  0  0  0  0
   38.9960   28.4050   28.7650 S   0  0  0  0  0  0  0  0  0  0  0  0
   39.3730   27.2820   27.8350 O   0  0  0  0  0  0  0  0  0  0  0  0
   37.5650   28.7520   28.4950 O   0  0  0  0  0  0  0  0  0  0  0  0
   40.6973   22.2854   36.7678 H   0  0  0  0  0  0  0  0  0  0  0  0
   39.4552   22.4496   38.9654 H   0  0  0  0  0  0  0  0  0  0  0  0
   37.6142   24.1789   39.1724 H   0  0  0  0  0  0  0  0  0  0  0  0
   36.9159   26.5612   36.1991 H   0  0  0  0  0  0  0  0  0  0  0  0
   37.1978   27.4587   34.6689 H   0  0  0  0  0  0  0  0  0  0  0  0
   36.1741   25.9827   34.6689 H   0  0  0  0  0  0  0  0  0  0  0  0
   37.6739   23.7484   33.9372 H   0  0  0  0  0  0  0  0  0  0  0  0
   37.2224   25.2203   33.0118 H   0  0  0  0  0  0  0  0  0  0  0  0
   38.9245   24.6463   33.0118 H   0  0  0  0  0  0  0  0  0  0  0  0
   39.3180   27.4524   35.1393 H   0  0  0  0  0  0  0  0  0  0  0  0
   40.3668   26.0421   34.6691 H   0  0  0  0  0  0  0  0  0  0  0  0
   37.1053   28.4330   30.9534 H   0  0  0  0  0  0  0  0  0  0  0  0
   37.3345   27.6597   33.2965 H   0  0  0  0  0  0  0  0  0  0  0  0
   41.4003   26.4298   32.5566 H   0  0  0  0  0  0  0  0  0  0  0  0
   41.1719   27.2007   30.2157 H   0  0  0  0  0  0  0  0  0  0  0  0
   39.8216   29.4803   28.5675 H   0  0  0  0  0  0  0  0  0  0  0  0
  1  8  1  0
  1  6  1  0
  2  3  2  0
  3  4  1  0
  5  4  2  0
  6  5  1  0
  7  6  2  0
  7  2  1  0
  9  1  1  0
 10  1  1  0
 11 16  2  0
 11 12  1  0
 12 13  2  0
 13 14  1  0
 14 10  1  0
 15 14  2  0
 16 15  1  0
 17 11  1  0
 18 17  2  0
 19 17  2  0
  2 20  1  0
  3 21  1  0
  4 22  1  0
  8 23  1  0
  8 24  1  0
  8 25  1  0
  9 26  1  0
  9 27  1  0
  9 28  1  0
 10 29  1  0
 10 30  1  0
 12 31  1  0
 13 32  1  0
 15 33  1  0
 16 34  1  0
 17 35  1  0
M  ISO  8  20  14  21  14  22  14  23   8  24   8  25   8  26   8  27   8
M  ISO  8  28   8  29   8  30   8  31  14  32  14  33  14  34  14  35  11
M  END
>  <minimizedAffinity>  (1) 
-4.49983978

>  <minimizedRMSD>  (1) 
1.64671791

$$$$
