
     RDKit          3D

 36 38  0  0  0  0  0  0  0  0999 V2000
   38.5690   23.2340   36.5860 C   0  0  0  0  0  0  0  0  0  0  0  0
   38.3530   26.8540   36.1050 C   0  0  0  0  0  0  0  0  0  0  0  0
   38.5580   27.0320   34.7300 C   0  0  0  0  0  0  0  0  0  0  0  0
   38.7770   25.8730   33.9550 C   0  0  0  0  0  0  0  0  0  0  0  0
   38.7760   24.6710   34.5760 N   0  0  0  0  0  0  0  0  0  0  0  0
   38.5740   24.5430   35.9030 C   0  0  0  0  0  0  0  0  0  0  0  0
   38.3640   25.6330   36.6590 N   0  0  0  0  0  0  0  0  0  0  0  0
   38.8760   22.1140   35.5730 C   0  0  0  0  0  0  0  0  0  0  0  0
   37.1880   22.9560   37.1440 C   0  0  0  0  0  0  0  0  0  0  0  0
   39.6240   23.1030   37.6480 C   0  0  0  0  0  0  0  0  0  0  0  0
   40.9140   22.5980   37.2070 C   0  0  0  0  0  0  0  0  0  0  0  0
   41.3620   21.3190   37.5620 C   0  0  0  0  0  0  0  0  0  0  0  0
   42.6090   21.1110   37.0480 N   0  0  0  0  0  0  0  0  0  0  0  0
   43.0200   22.2100   36.3540 C   0  0  0  0  0  0  0  0  0  0  0  0
   44.1440   22.5700   35.6380 C   0  0  0  0  0  0  0  0  0  0  0  0
   44.2470   23.8020   35.0250 C   0  0  0  0  0  0  0  0  0  0  0  0
   43.1890   24.7050   35.1340 C   0  0  0  0  0  0  0  0  0  0  0  0
   42.0810   24.3160   35.8560 C   0  0  0  0  0  0  0  0  0  0  0  0
   41.9670   23.0910   36.4710 C   0  0  0  0  0  0  0  0  0  0  0  0
   38.1796   27.7336   36.7424 H   0  0  0  0  0  0  0  0  0  0  0  0
   38.5486   28.0330   34.2740 H   0  0  0  0  0  0  0  0  0  0  0  0
   38.9448   25.9453   32.8703 H   0  0  0  0  0  0  0  0  0  0  0  0
   39.1293   21.1900   36.1135 H   0  0  0  0  0  0  0  0  0  0  0  0
   37.9927   21.9388   34.9412 H   0  0  0  0  0  0  0  0  0  0  0  0
   39.7251   22.4137   34.9412 H   0  0  0  0  0  0  0  0  0  0  0  0
   37.2282   22.9641   38.2432 H   0  0  0  0  0  0  0  0  0  0  0  0
   36.4894   23.7315   36.7969 H   0  0  0  0  0  0  0  0  0  0  0  0
   36.8438   21.9706   36.7969 H   0  0  0  0  0  0  0  0  0  0  0  0
   39.7848   24.0987   38.0871 H   0  0  0  0  0  0  0  0  0  0  0  0
   39.2395   22.3547   38.3567 H   0  0  0  0  0  0  0  0  0  0  0  0
   40.7951   20.5931   38.1634 H   0  0  0  0  0  0  0  0  0  0  0  0
   43.1597   20.2488   37.1671 H   0  0  0  0  0  0  0  0  0  0  0  0
   44.9778   21.8575   35.5541 H   0  0  0  0  0  0  0  0  0  0  0  0
   45.1511   24.0686   34.4580 H   0  0  0  0  0  0  0  0  0  0  0  0
   43.2375   25.6959   34.6589 H   0  0  0  0  0  0  0  0  0  0  0  0
   41.2431   25.0232   35.9451 H   0  0  0  0  0  0  0  0  0  0  0  0
  1  9  1  0
  1 10  1  0
  2  7  2  0
  3  2  1  0
  4  5  1  0
  4  3  2  0
  5  6  2  0
  6  1  1  0
  6  7  1  0
  8  1  1  0
 11 12  2  0
 11 10  1  0
 13 12  1  0
 14 19  2  0
 14 13  1  0
 15 14  1  0
 16 17  1  0
 16 15  2  0
 17 18  2  0
 18 19  1  0
 19 11  1  0
  2 20  1  0
  3 21  1  0
  4 22  1  0
  8 23  1  0
  8 24  1  0
  8 25  1  0
  9 26  1  0
  9 27  1  0
  9 28  1  0
 10 29  1  0
 10 30  1  0
 12 31  1  0
 13 32  1  0
 15 33  1  0
 16 34  1  0
 17 35  1  0
 18 36  1  0
M  ISO  8  20  14  21  14  22  14  23   8  24   8  25   8  26   8  27   8
M  ISO  8  28   8  29   8  30   8  31  14  32   9  33  14  34  14  35  14
M  ISO  1  36  14
M  END
>  <minimizedAffinity>  (1) 
-4.49866486

>  <minimizedRMSD>  (1) 
5.80053806

$$$$
