
     RDKit          3D

 23 24  0  0  0  0  0  0  0  0999 V2000
   39.0440   24.5630   34.7310 N   0  0  0  0  0  0  0  0  0  0  0  0
   39.8340   25.6270   34.5250 C   0  0  0  0  0  0  0  0  0  0  0  0
   39.9510   26.1290   33.2240 C   0  0  0  0  0  0  0  0  0  0  0  0
   40.8100   27.3180   32.8820 C   0  0  0  0  0  0  0  0  0  0  0  0
   39.2560   25.5130   32.2040 C   0  0  0  0  0  0  0  0  0  0  0  0
   39.3040   25.8960   31.0090 O   0  0  0  0  0  0  0  0  0  0  0  0
   38.4760   24.4470   32.4570 N   0  0  0  0  0  0  0  0  0  0  0  0
   38.3780   23.9820   33.7210 C   0  0  0  0  0  0  0  0  0  0  0  0
   37.6560   22.9990   33.9530 O   0  0  0  0  0  0  0  0  0  0  0  0
   38.0230   24.6950   36.9220 C   0  0  0  0  0  0  0  0  0  0  0  0
   38.9880   24.1300   36.0740 C   0  0  0  0  0  0  0  0  0  0  0  0
   39.8400   23.1640   36.6180 C   0  0  0  0  0  0  0  0  0  0  0  0
   39.6920   22.8210   37.9390 N   0  0  0  0  0  0  0  0  0  0  0  0
   38.7530   23.3900   38.7140 C   0  0  0  0  0  0  0  0  0  0  0  0
   37.9180   24.3290   38.2010 N   0  0  0  0  0  0  0  0  0  0  0  0
   40.3774   26.0943   35.3594 H   0  0  0  0  0  0  0  0  0  0  0  0
   41.1570   27.7983   33.8087 H   0  0  0  0  0  0  0  0  0  0  0  0
   41.6782   26.9860   32.2937 H   0  0  0  0  0  0  0  0  0  0  0  0
   40.2221   28.0380   32.2937 H   0  0  0  0  0  0  0  0  0  0  0  0
   37.9580   23.9893   31.6934 H   0  0  0  0  0  0  0  0  0  0  0  0
   37.3374   25.4571   36.5232 H   0  0  0  0  0  0  0  0  0  0  0  0
   40.6145   22.6877   35.9989 H   0  0  0  0  0  0  0  0  0  0  0  0
   38.6607   23.0933   39.7692 H   0  0  0  0  0  0  0  0  0  0  0  0
  1 11  1  0
  2  1  1  0
  3  2  2  0
  4  3  1  0
  5  7  1  0
  5  3  1  0
  6  5  2  0
  7  8  1  0
  8  9  2  0
  8  1  1  0
 10 15  2  0
 11 12  2  0
 11 10  1  0
 12 13  1  0
 13 14  2  0
 15 14  1  0
  2 16  1  0
  4 17  1  0
  4 18  1  0
  4 19  1  0
  7 20  1  0
 10 21  1  0
 12 22  1  0
 14 23  1  0
M  ISO  8  16  14  17   8  18   8  19   8  20   9  21  14  22  14  23  14
M  END
>  <minimizedAffinity>  (1) 
-3.75119138

>  <minimizedRMSD>  (1) 
6.60989046

$$$$
