
     RDKit          3D

 38 39  0  0  0  0  0  0  0  0999 V2000
   39.2130   25.9840   35.0770 C   0  0  0  0  0  0  0  0  0  0  0  0
   38.8980   23.1260   37.3280 C   0  0  0  0  0  0  0  0  0  0  0  0
   40.0780   22.3890   37.1170 C   0  0  0  0  0  0  0  0  0  0  0  0
   40.9940   22.8950   36.1790 C   0  0  0  0  0  0  0  0  0  0  0  0
   40.6940   24.0570   35.5300 N   0  0  0  0  0  0  0  0  0  0  0  0
   39.5340   24.7380   35.7680 C   0  0  0  0  0  0  0  0  0  0  0  0
   38.6580   24.2590   36.6620 N   0  0  0  0  0  0  0  0  0  0  0  0
   40.5130   26.7650   34.7790 C   0  0  0  0  0  0  0  0  0  0  0  0
   38.3860   26.8770   35.9870 C   0  0  0  0  0  0  0  0  0  0  0  0
   38.5670   25.7920   33.7490 C   0  0  0  0  0  0  0  0  0  0  0  0
   37.2470   26.4010   33.5010 C   0  0  0  0  0  0  0  0  0  0  0  0
   37.2190   27.7900   32.9650 C   0  0  0  0  0  0  0  0  0  0  0  0
   36.0460   28.0050   31.9930 C   0  0  0  0  0  0  0  0  0  0  0  0
   36.1870   27.2020   30.7360 C   0  0  0  0  0  0  0  0  0  0  0  0
   37.1050   26.0240   31.0610 C   0  0  0  0  0  0  0  0  0  0  0  0
   36.6120   25.5250   32.4040 C   0  0  0  0  0  0  0  0  0  0  0  0
   38.1582   22.7619   38.0561 H   0  0  0  0  0  0  0  0  0  0  0  0
   40.2753   21.4552   37.6638 H   0  0  0  0  0  0  0  0  0  0  0  0
   41.9350   22.3643   35.9720 H   0  0  0  0  0  0  0  0  0  0  0  0
   40.9928   27.0533   35.7259 H   0  0  0  0  0  0  0  0  0  0  0  0
   41.1982   26.1289   34.1995 H   0  0  0  0  0  0  0  0  0  0  0  0
   40.2732   27.6687   34.1995 H   0  0  0  0  0  0  0  0  0  0  0  0
   38.6084   26.6368   37.0372 H   0  0  0  0  0  0  0  0  0  0  0  0
   38.6345   27.9305   35.7913 H   0  0  0  0  0  0  0  0  0  0  0  0
   37.3165   26.7100   35.7913 H   0  0  0  0  0  0  0  0  0  0  0  0
   39.2561   26.1977   32.9937 H   0  0  0  0  0  0  0  0  0  0  0  0
   38.3708   24.7105   33.7051 H   0  0  0  0  0  0  0  0  0  0  0  0
   36.7450   26.4537   34.4784 H   0  0  0  0  0  0  0  0  0  0  0  0
   37.1189   28.4935   33.8047 H   0  0  0  0  0  0  0  0  0  0  0  0
   38.1552   27.9622   32.4137 H   0  0  0  0  0  0  0  0  0  0  0  0
   35.1128   27.7116   32.4961 H   0  0  0  0  0  0  0  0  0  0  0  0
   36.0367   29.0681   31.7108 H   0  0  0  0  0  0  0  0  0  0  0  0
   36.6309   27.8191   29.9409 H   0  0  0  0  0  0  0  0  0  0  0  0
   35.2067   26.8506   30.3818 H   0  0  0  0  0  0  0  0  0  0  0  0
   37.0159   25.2380   30.2966 H   0  0  0  0  0  0  0  0  0  0  0  0
   38.1664   26.3119   31.0833 H   0  0  0  0  0  0  0  0  0  0  0  0
   35.5158   25.6036   32.4517 H   0  0  0  0  0  0  0  0  0  0  0  0
   36.8936   24.4712   32.5464 H   0  0  0  0  0  0  0  0  0  0  0  0
  1  6  1  0
  1  9  1  0
  3  2  2  0
  4  3  1  0
  5  6  1  0
  5  4  2  0
  6  7  2  0
  7  2  1  0
  8  1  1  0
 10  1  1  0
 11 10  1  0
 12 11  1  0
 13 12  1  0
 14 15  1  0
 14 13  1  0
 15 16  1  0
 16 11  1  0
  2 17  1  0
  3 18  1  0
  4 19  1  0
  8 20  1  0
  8 21  1  0
  8 22  1  0
  9 23  1  0
  9 24  1  0
  9 25  1  0
 10 26  1  0
 10 27  1  0
 11 28  1  0
 12 29  1  0
 12 30  1  0
 13 31  1  0
 13 32  1  0
 14 33  1  0
 14 34  1  0
 15 35  1  0
 15 36  1  0
 16 37  1  0
 16 38  1  0
M  ISO  8  17  14  18  14  19  14  20   8  21   8  22   8  23   8  24   8
M  ISO  8  25   8  26   8  27   8  28  13  29  13  30  13  31  13  32  13
M  ISO  6  33  13  34  13  35  13  36  13  37  13  38  13
M  END
>  <minimizedAffinity>  (1) 
-4.22682047

>  <minimizedRMSD>  (1) 
4.55178881

$$$$
