
     RDKit          3D

 35 36  0  0  0  0  0  0  0  0999 V2000
   40.0740   25.3480   34.2940 C   0  0  0  0  0  0  0  0  0  0  0  0
   43.4410   25.0130   35.7030 C   0  0  0  0  0  0  0  0  0  0  0  0
   43.3710   23.8240   36.4530 C   0  0  0  0  0  0  0  0  0  0  0  0
   42.1440   23.1330   36.4680 C   0  0  0  0  0  0  0  0  0  0  0  0
   41.1070   23.6490   35.7650 N   0  0  0  0  0  0  0  0  0  0  0  0
   41.2080   24.7920   35.0580 C   0  0  0  0  0  0  0  0  0  0  0  0
   42.3720   25.4810   35.0210 N   0  0  0  0  0  0  0  0  0  0  0  0
   40.1840   24.9450   32.8190 C   0  0  0  0  0  0  0  0  0  0  0  0
   40.1280   26.8680   34.3510 C   0  0  0  0  0  0  0  0  0  0  0  0
   38.7360   24.8540   34.7760 C   0  0  0  0  0  0  0  0  0  0  0  0
   37.9000   24.2770   33.7740 N   0  0  0  0  0  0  0  0  0  0  0  0
   37.1610   25.0020   32.9130 C   0  0  0  0  0  0  0  0  0  0  0  0
   36.3480   24.4960   31.9400 C   0  0  0  0  0  0  0  0  0  0  0  0
   35.5510   25.3310   31.0120 C   0  0  0  0  0  0  0  0  0  0  0  0
   36.2500   23.1230   31.7970 C   0  0  0  0  0  0  0  0  0  0  0  0
   35.5240   22.5990   30.9280 O   0  0  0  0  0  0  0  0  0  0  0  0
   36.9950   22.4080   32.6680 N   0  0  0  0  0  0  0  0  0  0  0  0
   37.7880   22.9390   33.6160 C   0  0  0  0  0  0  0  0  0  0  0  0
   38.4090   22.1440   34.3390 O   0  0  0  0  0  0  0  0  0  0  0  0
   44.3868   25.5738   35.6712 H   0  0  0  0  0  0  0  0  0  0  0  0
   44.2434   23.4480   37.0075 H   0  0  0  0  0  0  0  0  0  0  0  0
   42.0303   22.1979   37.0361 H   0  0  0  0  0  0  0  0  0  0  0  0
   40.4731   23.8860   32.7488 H   0  0  0  0  0  0  0  0  0  0  0  0
   39.2125   25.0934   32.3249 H   0  0  0  0  0  0  0  0  0  0  0  0
   40.9454   25.5664   32.3249 H   0  0  0  0  0  0  0  0  0  0  0  0
   40.1396   27.1954   35.4011 H   0  0  0  0  0  0  0  0  0  0  0  0
   41.0393   27.2217   33.8465 H   0  0  0  0  0  0  0  0  0  0  0  0
   39.2441   27.2855   33.8465 H   0  0  0  0  0  0  0  0  0  0  0  0
   38.9139   24.0924   35.5495 H   0  0  0  0  0  0  0  0  0  0  0  0
   38.1999   25.7411   35.1444 H   0  0  0  0  0  0  0  0  0  0  0  0
   37.2172   26.0970   33.0013 H   0  0  0  0  0  0  0  0  0  0  0  0
   34.9050   26.0078   31.5905 H   0  0  0  0  0  0  0  0  0  0  0  0
   36.2277   25.9228   30.3781 H   0  0  0  0  0  0  0  0  0  0  0  0
   34.9283   24.6826   30.3781 H   0  0  0  0  0  0  0  0  0  0  0  0
   36.9527   21.3810   32.6013 H   0  0  0  0  0  0  0  0  0  0  0  0
  1  9  1  0
  1 10  1  0
  1  6  1  0
  2  3  2  0
  3  4  1  0
  5  4  2  0
  6  5  1  0
  7  6  2  0
  7  2  1  0
  8  1  1  0
 11 10  1  0
 12 11  1  0
 13 12  2  0
 14 13  1  0
 15 13  1  0
 15 17  1  0
 16 15  2  0
 17 18  1  0
 18 11  1  0
 18 19  2  0
  2 20  1  0
  3 21  1  0
  4 22  1  0
  8 23  1  0
  8 24  1  0
  8 25  1  0
  9 26  1  0
  9 27  1  0
  9 28  1  0
 10 29  1  0
 10 30  1  0
 12 31  1  0
 14 32  1  0
 14 33  1  0
 14 34  1  0
 17 35  1  0
M  ISO  8  20  14  21  14  22  14  23   8  24   8  25   8  26   8  27   8
M  ISO  8  28   8  29   8  30   8  31  14  32   8  33   8  34   8  35   9
M  END
>  <minimizedAffinity>  (1) 
-4.226789

>  <minimizedRMSD>  (1) 
5.19144058

$$$$
