
     RDKit          3D

 29 30  0  0  0  0  0  0  0  0999 V2000
   38.7260   23.2230   36.6580 C   0  0  0  0  0  0  0  0  0  0  0  0
   38.3430   26.8230   36.1880 C   0  0  0  0  0  0  0  0  0  0  0  0
   39.2570   27.1350   35.1640 C   0  0  0  0  0  0  0  0  0  0  0  0
   40.0170   26.0560   34.6320 C   0  0  0  0  0  0  0  0  0  0  0  0
   39.8160   24.8140   35.1410 N   0  0  0  0  0  0  0  0  0  0  0  0
   38.9250   24.5700   36.1250 C   0  0  0  0  0  0  0  0  0  0  0  0
   38.2020   25.5760   36.6340 N   0  0  0  0  0  0  0  0  0  0  0  0
   38.9410   22.1600   35.5750 C   0  0  0  0  0  0  0  0  0  0  0  0
   37.3140   23.0790   37.1980 C   0  0  0  0  0  0  0  0  0  0  0  0
   39.7050   22.8840   37.7790 C   0  0  0  0  0  0  0  0  0  0  0  0
   41.0390   22.5380   37.2750 C   0  0  0  0  0  0  0  0  0  0  0  0
   41.5280   21.2440   37.4810 C   0  0  0  0  0  0  0  0  0  0  0  0
   42.7620   21.1670   36.9340 N   0  0  0  0  0  0  0  0  0  0  0  0
   43.0590   22.3790   36.3910 C   0  0  0  0  0  0  0  0  0  0  0  0
   41.9900   23.1820   36.6200 N   0  0  0  0  0  0  0  0  0  0  0  0
   37.7329   27.6252   36.6287 H   0  0  0  0  0  0  0  0  0  0  0  0
   39.3779   28.1634   34.7929 H   0  0  0  0  0  0  0  0  0  0  0  0
   40.7490   26.2243   33.8284 H   0  0  0  0  0  0  0  0  0  0  0  0
   39.1377   21.1874   36.0498 H   0  0  0  0  0  0  0  0  0  0  0  0
   38.0395   22.0868   34.9490 H   0  0  0  0  0  0  0  0  0  0  0  0
   39.8001   22.4429   34.9490 H   0  0  0  0  0  0  0  0  0  0  0  0
   37.3400   23.0816   38.2977 H   0  0  0  0  0  0  0  0  0  0  0  0
   36.6985   23.9190   36.8437 H   0  0  0  0  0  0  0  0  0  0  0  0
   36.8807   22.1320   36.8437 H   0  0  0  0  0  0  0  0  0  0  0  0
   39.7945   23.7552   38.4446 H   0  0  0  0  0  0  0  0  0  0  0  0
   39.3113   22.0061   38.3123 H   0  0  0  0  0  0  0  0  0  0  0  0
   40.9999   20.4296   37.9986 H   0  0  0  0  0  0  0  0  0  0  0  0
   43.9865   22.6542   35.8676 H   0  0  0  0  0  0  0  0  0  0  0  0
   41.9273   24.1660   36.3222 H   0  0  0  0  0  0  0  0  0  0  0  0
  1  9  1  0
  1 10  1  0
  2  7  2  0
  3  2  1  0
  4  5  1  0
  4  3  2  0
  5  6  2  0
  6  7  1  0
  6  1  1  0
  8  1  1  0
 11 12  2  0
 11 10  1  0
 13 12  1  0
 14 15  1  0
 14 13  2  0
 15 11  1  0
  2 16  1  0
  3 17  1  0
  4 18  1  0
  8 19  1  0
  8 20  1  0
  8 21  1  0
  9 22  1  0
  9 23  1  0
  9 24  1  0
 10 25  1  0
 10 26  1  0
 12 27  1  0
 14 28  1  0
 15 29  1  0
M  ISO  8  16  14  17  14  18  14  19   8  20   8  21   8  22   8  23   8
M  ISO  6  24   8  25   8  26   8  27  14  28  14  29   9
M  END
>  <minimizedAffinity>  (1) 
-4.11958361

>  <minimizedRMSD>  (1) 
5.57976294

$$$$
