
     RDKit          3D

 29 29  0  0  0  0  0  0  0  0999 V2000
   38.6550   26.4160   35.0170 C   0  0  0  0  0  0  0  0  0  0  0  0
   37.9630   22.9480   35.9550 C   0  0  0  0  0  0  0  0  0  0  0  0
   37.7860   23.0080   37.3480 C   0  0  0  0  0  0  0  0  0  0  0  0
   37.9100   24.2790   37.9630 C   0  0  0  0  0  0  0  0  0  0  0  0
   38.1920   25.3510   37.1680 N   0  0  0  0  0  0  0  0  0  0  0  0
   38.3550   25.2470   35.8320 C   0  0  0  0  0  0  0  0  0  0  0  0
   38.2380   24.0500   35.2450 N   0  0  0  0  0  0  0  0  0  0  0  0
   37.9230   27.6590   35.5050 C   0  0  0  0  0  0  0  0  0  0  0  0
   38.2090   26.1620   33.5680 C   0  0  0  0  0  0  0  0  0  0  0  0
   40.1260   26.7570   34.9850 C   0  0  0  0  0  0  0  0  0  0  0  0
   40.5180   26.9770   33.6250 N   0  0  0  0  0  0  0  0  0  0  0  0
   41.8810   27.4440   33.5360 C   0  0  0  0  0  0  0  0  0  0  0  0
   42.8690   27.2510   34.3730 N   0  0  0  0  0  0  0  0  0  0  0  0
   42.4600   28.2380   32.4820 N   0  0  0  0  0  0  0  0  0  0  0  0
   42.7590   26.6990   35.2600 H   0  0  0  0  0  0  0  0  0  0  0  0
   37.8743   21.9803   35.4395 H   0  0  0  0  0  0  0  0  0  0  0  0
   37.5607   22.1063   37.9363 H   0  0  0  0  0  0  0  0  0  0  0  0
   37.7826   24.3974   39.0492 H   0  0  0  0  0  0  0  0  0  0  0  0
   37.9154   27.6719   36.6049 H   0  0  0  0  0  0  0  0  0  0  0  0
   38.4363   28.5572   35.1313 H   0  0  0  0  0  0  0  0  0  0  0  0
   36.8885   27.6457   35.1313 H   0  0  0  0  0  0  0  0  0  0  0  0
   37.2531   25.6176   33.5687 H   0  0  0  0  0  0  0  0  0  0  0  0
   38.0829   27.1238   33.0492 H   0  0  0  0  0  0  0  0  0  0  0  0
   38.9718   25.5629   33.0492 H   0  0  0  0  0  0  0  0  0  0  0  0
   40.3075   27.6679   35.5743 H   0  0  0  0  0  0  0  0  0  0  0  0
   40.7113   25.9304   35.4142 H   0  0  0  0  0  0  0  0  0  0  0  0
   39.9044   26.8215   32.8125 H   0  0  0  0  0  0  0  0  0  0  0  0
   43.4517   28.5122   32.5292 H   0  0  0  0  0  0  0  0  0  0  0  0
   41.8821   28.5314   31.6814 H   0  0  0  0  0  0  0  0  0  0  0  0
  1  8  1  0
  1  6  1  0
  2  3  2  0
  3  4  1  0
  5  4  2  0
  6  5  1  0
  7  6  2  0
  7  2  1  0
  9  1  1  0
 10  1  1  0
 11 10  1  0
 12 11  1  0
 12 13  2  0
 13 15  1  0
 14 12  1  0
  2 16  1  0
  3 17  1  0
  4 18  1  0
  8 19  1  0
  8 20  1  0
  8 21  1  0
  9 22  1  0
  9 23  1  0
  9 24  1  0
 10 25  1  0
 10 26  1  0
 11 27  1  0
 14 28  1  0
 14 29  1  0
M  ISO  8  16  14  17  14  18  14  19   8  20   8  21   8  22   8  23   8
M  ISO  3  24   8  25   8  26   8
M  END
>  <minimizedAffinity>  (1) 
-4.07945061

>  <minimizedRMSD>  (1) 
1.53482497

$$$$
