
     RDKit          3D

 32 33  0  0  0  0  0  0  0  0999 V2000
   38.7340   25.6480   35.0310 C   0  0  0  0  0  0  0  0  0  0  0  0
   39.5750   22.9190   37.3280 C   0  0  0  0  0  0  0  0  0  0  0  0
   38.7870   23.1790   38.4660 C   0  0  0  0  0  0  0  0  0  0  0  0
   37.9610   24.3120   38.4270 C   0  0  0  0  0  0  0  0  0  0  0  0
   37.9680   25.0850   37.3070 N   0  0  0  0  0  0  0  0  0  0  0  0
   38.7490   24.7900   36.2310 C   0  0  0  0  0  0  0  0  0  0  0  0
   39.5570   23.7030   36.2400 N   0  0  0  0  0  0  0  0  0  0  0  0
   37.3750   26.3220   34.8580 C   0  0  0  0  0  0  0  0  0  0  0  0
   38.9770   24.7980   33.7990 C   0  0  0  0  0  0  0  0  0  0  0  0
   39.7620   26.7550   35.1100 C   0  0  0  0  0  0  0  0  0  0  0  0
   40.7790   26.6760   34.0910 N   0  0  0  0  0  0  0  0  0  0  0  0
   40.4570   27.2840   32.9120 C   0  0  0  0  0  0  0  0  0  0  0  0
   41.3520   27.2770   31.8500 C   0  0  0  0  0  0  0  0  0  0  0  0
   42.5710   26.6590   31.9720 C   0  0  0  0  0  0  0  0  0  0  0  0
   43.4720   26.5810   31.0860 O   0  0  0  0  0  0  0  0  0  0  0  0
   42.8510   26.0690   33.1550 N   0  0  0  0  0  0  0  0  0  0  0  0
   41.9810   26.0790   34.1810 C   0  0  0  0  0  0  0  0  0  0  0  0
   42.2390   25.5300   35.2840 O   0  0  0  0  0  0  0  0  0  0  0  0
   40.2321   22.0368   37.3317 H   0  0  0  0  0  0  0  0  0  0  0  0
   38.8180   22.5218   39.3475 H   0  0  0  0  0  0  0  0  0  0  0  0
   37.3211   24.5702   39.2836 H   0  0  0  0  0  0  0  0  0  0  0  0
   36.9434   26.5361   35.8469 H   0  0  0  0  0  0  0  0  0  0  0  0
   37.5003   27.2624   34.3012 H   0  0  0  0  0  0  0  0  0  0  0  0
   36.7022   25.6531   34.3012 H   0  0  0  0  0  0  0  0  0  0  0  0
   39.2674   23.7823   34.1057 H   0  0  0  0  0  0  0  0  0  0  0  0
   38.0564   24.7507   33.1988 H   0  0  0  0  0  0  0  0  0  0  0  0
   39.7835   25.2444   33.1988 H   0  0  0  0  0  0  0  0  0  0  0  0
   39.2425   27.7192   35.0080 H   0  0  0  0  0  0  0  0  0  0  0  0
   40.2705   26.6525   36.0800 H   0  0  0  0  0  0  0  0  0  0  0  0
   39.4826   27.7826   32.8024 H   0  0  0  0  0  0  0  0  0  0  0  0
   41.0818   27.7702   30.9046 H   0  0  0  0  0  0  0  0  0  0  0  0
   43.7586   25.5970   33.2749 H   0  0  0  0  0  0  0  0  0  0  0  0
  1 10  1  0
  1  6  1  0
  2  3  2  0
  4  3  1  0
  5  4  2  0
  6  7  2  0
  6  5  1  0
  7  2  1  0
  8  1  1  0
  9  1  1  0
 11 17  1  0
 11 10  1  0
 12 11  1  0
 13 14  1  0
 13 12  2  0
 14 16  1  0
 15 14  2  0
 16 17  1  0
 17 18  2  0
  2 19  1  0
  3 20  1  0
  4 21  1  0
  8 22  1  0
  8 23  1  0
  8 24  1  0
  9 25  1  0
  9 26  1  0
  9 27  1  0
 10 28  1  0
 10 29  1  0
 12 30  1  0
 13 31  1  0
 16 32  1  0
M  ISO  8  19  14  20  14  21  14  22   8  23   8  24   8  25   8  26   8
M  ISO  6  27   8  28   8  29   8  30  14  31  14  32   9
M  END
>  <minimizedAffinity>  (1) 
-3.93134069

>  <minimizedRMSD>  (1) 
2.18826032

$$$$
