
     RDKit          3D

 30 32  0  0  0  0  0  0  0  0999 V2000
   37.3920   26.9970   34.1210 C   0  0  0  0  0  0  0  0  0  0  0  0
   37.6850   26.3180   32.9310 C   0  0  0  0  0  0  0  0  0  0  0  0
   38.0340   24.9690   33.0340 C   0  0  0  0  0  0  0  0  0  0  0  0
   38.0680   24.3970   34.2840 N   0  0  0  0  0  0  0  0  0  0  0  0
   37.7790   25.0890   35.3970 C   0  0  0  0  0  0  0  0  0  0  0  0
   37.4390   26.3960   35.3140 N   0  0  0  0  0  0  0  0  0  0  0  0
   37.6120   27.0260   31.7100 N   0  0  0  0  0  0  0  0  0  0  0  0
   38.7730   27.5480   31.3070 C   0  0  0  0  0  0  0  0  0  0  0  0
   38.8050   28.2650   30.1110 C   0  0  0  0  0  0  0  0  0  0  0  0
   37.6310   28.4100   29.3840 C   0  0  0  0  0  0  0  0  0  0  0  0
   37.5700   29.0330   28.3070 O   0  0  0  0  0  0  0  0  0  0  0  0
   36.4930   27.8620   29.8390 N   0  0  0  0  0  0  0  0  0  0  0  0
   36.4960   27.1740   30.9980 C   0  0  0  0  0  0  0  0  0  0  0  0
   35.4370   26.6740   31.4030 O   0  0  0  0  0  0  0  0  0  0  0  0
   40.0530   28.8950   29.5650 C   0  0  0  0  0  0  0  0  0  0  0  0
   37.8380   24.4080   36.6870 C   0  0  0  0  0  0  0  0  0  0  0  0
   38.0730   24.9290   37.9660 C   0  0  0  0  0  0  0  0  0  0  0  0
   38.0070   23.8040   38.7610 C   0  0  0  0  0  0  0  0  0  0  0  0
   37.7550   22.6900   38.0490 N   0  0  0  0  0  0  0  0  0  0  0  0
   37.6510   23.0580   36.7630 N   0  0  0  0  0  0  0  0  0  0  0  0
   37.1140   28.0602   34.0719 H   0  0  0  0  0  0  0  0  0  0  0  0
   38.2756   24.3792   32.1375 H   0  0  0  0  0  0  0  0  0  0  0  0
   39.6859   27.4153   31.9062 H   0  0  0  0  0  0  0  0  0  0  0  0
   35.6194   27.9671   29.3035 H   0  0  0  0  0  0  0  0  0  0  0  0
   40.6947   29.2189   30.3976 H   0  0  0  0  0  0  0  0  0  0  0  0
   40.5942   28.1621   28.9486 H   0  0  0  0  0  0  0  0  0  0  0  0
   39.7848   29.7657   28.9486 H   0  0  0  0  0  0  0  0  0  0  0  0
   38.2623   25.9715   38.2614 H   0  0  0  0  0  0  0  0  0  0  0  0
   38.1446   23.8158   39.8523 H   0  0  0  0  0  0  0  0  0  0  0  0
   37.6599   21.7344   38.4214 H   0  0  0  0  0  0  0  0  0  0  0  0
  1  6  2  0
  2  3  2  0
  2  1  1  0
  3  4  1  0
  4  5  2  0
  5 16  1  0
  6  5  1  0
  7  2  1  0
  8  7  1  0
  9  8  2  0
 10 12  1  0
 10  9  1  0
 11 10  2  0
 12 13  1  0
 13 14  2  0
 13  7  1  0
 15  9  1  0
 16 20  2  0
 16 17  1  0
 17 18  2  0
 19 18  1  0
 20 19  1  0
  1 21  1  0
  3 22  1  0
  8 23  1  0
 12 24  1  0
 15 25  1  0
 15 26  1  0
 15 27  1  0
 17 28  1  0
 18 29  1  0
 19 30  1  0
M  ISO  8  21  14  22  14  23  14  24   9  25   8  26   8  27   8  28  14
M  ISO  2  29  14  30   9
M  END
>  <minimizedAffinity>  (1) 
-5.44645643

>  <minimizedRMSD>  (1) 
4.19147205

$$$$
