
     RDKit          3D

 38 40  0  0  0  0  0  0  0  0999 V2000
   38.4150   25.4000   34.9180 C   0  0  0  0  0  0  0  0  0  0  0  0
   39.6910   22.9180   37.2560 C   0  0  0  0  0  0  0  0  0  0  0  0
   38.9740   23.1690   38.4330 C   0  0  0  0  0  0  0  0  0  0  0  0
   38.0260   24.2240   38.4130 C   0  0  0  0  0  0  0  0  0  0  0  0
   37.8760   24.9210   37.2560 N   0  0  0  0  0  0  0  0  0  0  0  0
   38.6050   24.6290   36.1400 C   0  0  0  0  0  0  0  0  0  0  0  0
   39.5010   23.6360   36.1500 N   0  0  0  0  0  0  0  0  0  0  0  0
   37.2680   26.4130   35.0530 C   0  0  0  0  0  0  0  0  0  0  0  0
   38.0950   24.4800   33.7520 C   0  0  0  0  0  0  0  0  0  0  0  0
   39.6260   26.2430   34.5520 C   0  0  0  0  0  0  0  0  0  0  0  0
   40.7460   25.4320   34.1600 N   0  0  0  0  0  0  0  0  0  0  0  0
   42.0560   25.9560   34.3830 C   0  0  0  0  0  0  0  0  0  0  0  0
   42.6290   27.0790   33.8600 C   0  0  0  0  0  0  0  0  0  0  0  0
   43.8870   27.2640   34.2940 N   0  0  0  0  0  0  0  0  0  0  0  0
   44.1690   26.2440   35.1270 C   0  0  0  0  0  0  0  0  0  0  0  0
   45.2970   25.9400   35.8430 C   0  0  0  0  0  0  0  0  0  0  0  0
   45.3330   24.8290   36.6290 C   0  0  0  0  0  0  0  0  0  0  0  0
   44.2390   23.9850   36.7260 C   0  0  0  0  0  0  0  0  0  0  0  0
   43.1070   24.3000   36.0010 C   0  0  0  0  0  0  0  0  0  0  0  0
   43.0590   25.4340   35.1930 C   0  0  0  0  0  0  0  0  0  0  0  0
   40.4319   22.1050   37.2447 H   0  0  0  0  0  0  0  0  0  0  0  0
   39.1402   22.5695   39.3402 H   0  0  0  0  0  0  0  0  0  0  0  0
   37.4315   24.4700   39.3052 H   0  0  0  0  0  0  0  0  0  0  0  0
   37.0625   26.5945   36.1183 H   0  0  0  0  0  0  0  0  0  0  0  0
   37.5546   27.3581   34.5687 H   0  0  0  0  0  0  0  0  0  0  0  0
   36.3655   26.0118   34.5687 H   0  0  0  0  0  0  0  0  0  0  0  0
   37.7563   23.5062   34.1355 H   0  0  0  0  0  0  0  0  0  0  0  0
   37.3002   24.9289   33.1382 H   0  0  0  0  0  0  0  0  0  0  0  0
   38.9968   24.3388   33.1382 H   0  0  0  0  0  0  0  0  0  0  0  0
   39.3579   26.9065   33.7166 H   0  0  0  0  0  0  0  0  0  0  0  0
   39.9190   26.8218   35.4404 H   0  0  0  0  0  0  0  0  0  0  0  0
   40.6087   24.5048   33.7329 H   0  0  0  0  0  0  0  0  0  0  0  0
   42.1177   27.7571   33.1609 H   0  0  0  0  0  0  0  0  0  0  0  0
   44.5160   28.0385   34.0383 H   0  0  0  0  0  0  0  0  0  0  0  0
   46.1775   26.5966   35.7825 H   0  0  0  0  0  0  0  0  0  0  0  0
   46.2464   24.5977   37.1967 H   0  0  0  0  0  0  0  0  0  0  0  0
   44.2712   23.0887   37.3629 H   0  0  0  0  0  0  0  0  0  0  0  0
   42.2266   23.6434   36.0625 H   0  0  0  0  0  0  0  0  0  0  0  0
  1  8  1  0
  1  6  1  0
  2  3  2  0
  4  3  1  0
  5  4  2  0
  6  7  2  0
  6  5  1  0
  7  2  1  0
  9  1  1  0
 10  1  1  0
 11 12  1  0
 11 10  1  0
 12 20  1  0
 13 14  1  0
 13 12  2  0
 14 15  1  0
 15 20  2  0
 15 16  1  0
 16 17  2  0
 17 18  1  0
 19 18  2  0
 20 19  1  0
  2 21  1  0
  3 22  1  0
  4 23  1  0
  8 24  1  0
  8 25  1  0
  8 26  1  0
  9 27  1  0
  9 28  1  0
  9 29  1  0
 10 30  1  0
 10 31  1  0
 11 32  1  0
 13 33  1  0
 14 34  1  0
 16 35  1  0
 17 36  1  0
 18 37  1  0
 19 38  1  0
M  ISO  8  21  14  22  14  23  14  24   8  25   8  26   8  27   8  28   8
M  ISO  8  29   8  30   8  31   8  33  14  34   9  35  14  36  14  37  14
M  ISO  1  38  14
M  END
>  <minimizedAffinity>  (1) 
-4.90330791

>  <minimizedRMSD>  (1) 
2.47336173

$$$$
