
     RDKit          3D

 31 32  0  0  0  0  0  0  0  0999 V2000
   38.4150   25.5910   34.9990 C   0  0  0  0  0  0  0  0  0  0  0  0
   39.5810   22.9580   37.2550 C   0  0  0  0  0  0  0  0  0  0  0  0
   38.8660   23.2050   38.4460 C   0  0  0  0  0  0  0  0  0  0  0  0
   37.9700   24.3000   38.4610 C   0  0  0  0  0  0  0  0  0  0  0  0
   37.8590   25.0390   37.3280 N   0  0  0  0  0  0  0  0  0  0  0  0
   38.5640   24.7720   36.1970 C   0  0  0  0  0  0  0  0  0  0  0  0
   39.4160   23.7330   36.1790 N   0  0  0  0  0  0  0  0  0  0  0  0
   37.2420   26.5650   35.1280 C   0  0  0  0  0  0  0  0  0  0  0  0
   38.1590   24.7210   33.7930 C   0  0  0  0  0  0  0  0  0  0  0  0
   39.6440   26.4580   34.7430 C   0  0  0  0  0  0  0  0  0  0  0  0
   40.7120   25.6980   34.1760 N   0  0  0  0  0  0  0  0  0  0  0  0
   43.8700   27.3520   34.1940 N   0  0  0  0  0  0  0  0  0  0  0  0
   42.5810   27.3020   33.8750 N   0  0  0  0  0  0  0  0  0  0  0  0
   42.0540   26.1480   34.3090 C   0  0  0  0  0  0  0  0  0  0  0  0
   43.0960   25.4740   34.9230 C   0  0  0  0  0  0  0  0  0  0  0  0
   44.2370   26.2360   34.8480 C   0  0  0  0  0  0  0  0  0  0  0  0
   40.2853   22.1142   37.2115 H   0  0  0  0  0  0  0  0  0  0  0  0
   39.0005   22.5680   39.3326 H   0  0  0  0  0  0  0  0  0  0  0  0
   37.3840   24.5438   39.3594 H   0  0  0  0  0  0  0  0  0  0  0  0
   37.0282   26.7425   36.1923 H   0  0  0  0  0  0  0  0  0  0  0  0
   37.5010   27.5173   34.6422 H   0  0  0  0  0  0  0  0  0  0  0  0
   36.3535   26.1353   34.6422 H   0  0  0  0  0  0  0  0  0  0  0  0
   37.8628   23.7144   34.1233 H   0  0  0  0  0  0  0  0  0  0  0  0
   37.3522   25.1607   33.1883 H   0  0  0  0  0  0  0  0  0  0  0  0
   39.0754   24.6536   33.1883 H   0  0  0  0  0  0  0  0  0  0  0  0
   39.3726   27.2665   34.0483 H   0  0  0  0  0  0  0  0  0  0  0  0
   39.9846   26.8667   35.7058 H   0  0  0  0  0  0  0  0  0  0  0  0
   40.5099   24.8236   33.6706 H   0  0  0  0  0  0  0  0  0  0  0  0
   44.4999   28.1360   33.9714 H   0  0  0  0  0  0  0  0  0  0  0  0
   43.0220   24.4839   35.3965 H   0  0  0  0  0  0  0  0  0  0  0  0
   45.2347   25.9869   35.2385 H   0  0  0  0  0  0  0  0  0  0  0  0
  1  8  1  0
  1  6  1  0
  2  3  2  0
  3  4  1  0
  5  4  2  0
  6  5  1  0
  7  6  2  0
  7  2  1  0
  9  1  1  0
 10  1  1  0
 11 14  1  0
 11 10  1  0
 12 16  1  0
 13 12  1  0
 13 14  2  0
 14 15  1  0
 16 15  2  0
  2 17  1  0
  3 18  1  0
  4 19  1  0
  8 20  1  0
  8 21  1  0
  8 22  1  0
  9 23  1  0
  9 24  1  0
  9 25  1  0
 10 26  1  0
 10 27  1  0
 11 28  1  0
 12 29  1  0
 15 30  1  0
 16 31  1  0
M  ISO  8  17  14  18  14  19  14  20   8  21   8  22   8  23   8  24   8
M  ISO  6  25   8  26   8  27   8  29   9  30  14  31  14
M  END
>  <minimizedAffinity>  (1) 
-4.15304661

>  <minimizedRMSD>  (1) 
1.01943636

$$$$
