
     RDKit          3D

 31 32  0  0  0  0  0  0  0  0999 V2000
   38.7720   26.1800   35.1620 C   0  0  0  0  0  0  0  0  0  0  0  0
   39.5140   23.0660   36.9000 C   0  0  0  0  0  0  0  0  0  0  0  0
   38.7440   23.1610   38.0890 C   0  0  0  0  0  0  0  0  0  0  0  0
   37.9650   24.3230   38.2750 C   0  0  0  0  0  0  0  0  0  0  0  0
   38.0040   25.2720   37.3050 N   0  0  0  0  0  0  0  0  0  0  0  0
   38.7550   25.1440   36.1800 C   0  0  0  0  0  0  0  0  0  0  0  0
   39.4910   24.0500   36.0000 N   0  0  0  0  0  0  0  0  0  0  0  0
   37.8940   27.3720   35.5520 C   0  0  0  0  0  0  0  0  0  0  0  0
   38.2500   25.6420   33.8480 C   0  0  0  0  0  0  0  0  0  0  0  0
   40.1500   26.7750   34.9310 C   0  0  0  0  0  0  0  0  0  0  0  0
   41.0120   25.8730   34.2360 N   0  0  0  0  0  0  0  0  0  0  0  0
   42.4090   26.1410   34.4030 C   0  0  0  0  0  0  0  0  0  0  0  0
   43.3690   25.2610   34.9100 C   0  0  0  0  0  0  0  0  0  0  0  0
   44.5770   25.8940   34.9060 N   0  0  0  0  0  0  0  0  0  0  0  0
   44.3910   27.1490   34.4070 C   0  0  0  0  0  0  0  0  0  0  0  0
   43.0940   27.2840   34.1100 N   0  0  0  0  0  0  0  0  0  0  0  0
   40.1335   22.1751   36.7199 H   0  0  0  0  0  0  0  0  0  0  0  0
   38.7542   22.3567   38.8393 H   0  0  0  0  0  0  0  0  0  0  0  0
   37.3472   24.4553   39.1754 H   0  0  0  0  0  0  0  0  0  0  0  0
   37.8404   27.4448   36.6483 H   0  0  0  0  0  0  0  0  0  0  0  0
   38.3285   28.2965   35.1440 H   0  0  0  0  0  0  0  0  0  0  0  0
   36.8822   27.2312   35.1440 H   0  0  0  0  0  0  0  0  0  0  0  0
   37.4962   24.8651   34.0434 H   0  0  0  0  0  0  0  0  0  0  0  0
   37.7925   26.4603   33.2726 H   0  0  0  0  0  0  0  0  0  0  0  0
   39.0817   25.2094   33.2726 H   0  0  0  0  0  0  0  0  0  0  0  0
   40.0448   27.6947   34.3368 H   0  0  0  0  0  0  0  0  0  0  0  0
   40.5986   26.9853   35.9131 H   0  0  0  0  0  0  0  0  0  0  0  0
   40.6583   25.0942   33.6622 H   0  0  0  0  0  0  0  0  0  0  0  0
   43.1821   24.2329   35.2537 H   0  0  0  0  0  0  0  0  0  0  0  0
   45.1694   27.9145   34.2725 H   0  0  0  0  0  0  0  0  0  0  0  0
   42.6700   28.1350   33.7140 H   0  0  0  0  0  0  0  0  0  0  0  0
  1  8  1  0
  1  6  1  0
  2  3  2  0
  3  4  1  0
  5  4  2  0
  6  5  1  0
  7  6  2  0
  7  2  1  0
  9  1  1  0
 10  1  1  0
 11 12  1  0
 11 10  1  0
 12 13  2  0
 14 13  1  0
 15 14  2  0
 16 12  1  0
 16 15  1  0
  2 17  1  0
  3 18  1  0
  4 19  1  0
  8 20  1  0
  8 21  1  0
  8 22  1  0
  9 23  1  0
  9 24  1  0
  9 25  1  0
 10 26  1  0
 10 27  1  0
 11 28  1  0
 13 29  1  0
 15 30  1  0
 16 31  1  0
M  ISO  8  17  14  18  14  19  14  20   8  21   8  22   8  23   8  24   8
M  ISO  6  25   8  26   8  27   8  29  14  30  14  31   9
M  END
>  <minimizedAffinity>  (1) 
-3.96828938

>  <minimizedRMSD>  (1) 
0.941726804

$$$$
