
     RDKit          3D

 27 27  0  0  0  0  0  0  0  0999 V2000
   38.4540   25.7860   34.9620 C   0  0  0  0  0  0  0  0  0  0  0  0
   39.7200   23.0300   36.9980 C   0  0  0  0  0  0  0  0  0  0  0  0
   38.9880   23.1360   38.1990 C   0  0  0  0  0  0  0  0  0  0  0  0
   38.0430   24.1830   38.2980 C   0  0  0  0  0  0  0  0  0  0  0  0
   37.9090   25.0070   37.2300 N   0  0  0  0  0  0  0  0  0  0  0  0
   38.6290   24.8750   36.0900 C   0  0  0  0  0  0  0  0  0  0  0  0
   39.5250   23.8850   35.9940 N   0  0  0  0  0  0  0  0  0  0  0  0
   37.2010   26.6420   35.1230 C   0  0  0  0  0  0  0  0  0  0  0  0
   38.2970   24.9910   33.6810 C   0  0  0  0  0  0  0  0  0  0  0  0
   39.6000   26.7740   34.8210 C   0  0  0  0  0  0  0  0  0  0  0  0
   40.6380   26.2410   33.9720 N   0  0  0  0  0  0  0  0  0  0  0  0
   41.9660   26.3600   34.4660 C   0  0  0  0  0  0  0  0  0  0  0  0
   42.4680   25.4560   35.1720 O   0  0  0  0  0  0  0  0  0  0  0  0
   42.7970   27.4440   34.2220 O   0  0  0  0  0  0  0  0  0  0  0  0
   40.4647   22.2279   36.8879 H   0  0  0  0  0  0  0  0  0  0  0  0
   39.1465   22.4303   39.0278 H   0  0  0  0  0  0  0  0  0  0  0  0
   37.4396   24.3235   39.2069 H   0  0  0  0  0  0  0  0  0  0  0  0
   36.9903   26.7860   36.1930 H   0  0  0  0  0  0  0  0  0  0  0  0
   37.3614   27.6202   34.6460 H   0  0  0  0  0  0  0  0  0  0  0  0
   36.3481   26.1369   34.6460 H   0  0  0  0  0  0  0  0  0  0  0  0
   38.0892   23.9389   33.9256 H   0  0  0  0  0  0  0  0  0  0  0  0
   37.4628   25.4026   33.0939 H   0  0  0  0  0  0  0  0  0  0  0  0
   39.2251   25.0546   33.0939 H   0  0  0  0  0  0  0  0  0  0  0  0
   39.2188   27.7073   34.3811 H   0  0  0  0  0  0  0  0  0  0  0  0
   40.0245   26.9644   35.8178 H   0  0  0  0  0  0  0  0  0  0  0  0
   40.4297   25.8014   33.0641 H   0  0  0  0  0  0  0  0  0  0  0  0
   43.7125   27.4605   34.5985 H   0  0  0  0  0  0  0  0  0  0  0  0
  1  8  1  0
  1  6  1  0
  2  3  2  0
  3  4  1  0
  5  4  2  0
  6  5  1  0
  7  6  2  0
  7  2  1  0
  9  1  1  0
 10  1  1  0
 11 12  1  0
 11 10  1  0
 12 13  2  0
 14 12  1  0
  2 15  1  0
  3 16  1  0
  4 17  1  0
  8 18  1  0
  8 19  1  0
  8 20  1  0
  9 21  1  0
  9 22  1  0
  9 23  1  0
 10 24  1  0
 10 25  1  0
 11 26  1  0
 14 27  1  0
M  ISO  8  15  14  16  14  17  14  18   8  19   8  20   8  21   8  22   8
M  ISO  4  23   8  24   8  25   8  27   3
M  END
>  <minimizedAffinity>  (1) 
-3.91470385

>  <minimizedRMSD>  (1) 
0.892548919

$$$$
