
     RDKit          3D

 28 28  0  0  0  0  0  0  0  0999 V2000
   38.7390   26.1140   35.1990 C   0  0  0  0  0  0  0  0  0  0  0  0
   39.3880   23.0110   37.0230 C   0  0  0  0  0  0  0  0  0  0  0  0
   38.6870   23.1840   38.2280 C   0  0  0  0  0  0  0  0  0  0  0  0
   37.9740   24.4140   38.4030 C   0  0  0  0  0  0  0  0  0  0  0  0
   38.0270   25.3140   37.4040 N   0  0  0  0  0  0  0  0  0  0  0  0
   38.7180   25.1080   36.2530 C   0  0  0  0  0  0  0  0  0  0  0  0
   39.3890   23.9570   36.0820 N   0  0  0  0  0  0  0  0  0  0  0  0
   37.8380   27.2920   35.5090 C   0  0  0  0  0  0  0  0  0  0  0  0
   38.2390   25.4880   33.8960 C   0  0  0  0  0  0  0  0  0  0  0  0
   40.1220   26.6840   34.9550 C   0  0  0  0  0  0  0  0  0  0  0  0
   41.0240   25.6970   34.4150 N   0  0  0  0  0  0  0  0  0  0  0  0
   42.4250   26.0130   34.5310 C   0  0  0  0  0  0  0  0  0  0  0  0
   42.7980   27.3580   34.1850 N   0  0  0  0  0  0  0  0  0  0  0  0
   43.3310   25.2430   34.9000 O   0  0  0  0  0  0  0  0  0  0  0  0
   39.9462   22.0787   36.8521 H   0  0  0  0  0  0  0  0  0  0  0  0
   38.6857   22.4062   39.0059 H   0  0  0  0  0  0  0  0  0  0  0  0
   37.4033   24.6157   39.3215 H   0  0  0  0  0  0  0  0  0  0  0  0
   37.7489   27.4085   36.5992 H   0  0  0  0  0  0  0  0  0  0  0  0
   38.2689   28.2070   35.0764 H   0  0  0  0  0  0  0  0  0  0  0  0
   36.8421   27.1157   35.0764 H   0  0  0  0  0  0  0  0  0  0  0  0
   37.5678   24.6477   34.1269 H   0  0  0  0  0  0  0  0  0  0  0  0
   37.6930   26.2436   33.3120 H   0  0  0  0  0  0  0  0  0  0  0  0
   39.0966   25.1226   33.3120 H   0  0  0  0  0  0  0  0  0  0  0  0
   40.0418   27.5191   34.2436 H   0  0  0  0  0  0  0  0  0  0  0  0
   40.5260   27.0222   35.9206 H   0  0  0  0  0  0  0  0  0  0  0  0
   40.6900   24.8267   33.9769 H   0  0  0  0  0  0  0  0  0  0  0  0
   43.7836   27.6508   34.2455 H   0  0  0  0  0  0  0  0  0  0  0  0
   42.0795   28.0285   33.8766 H   0  0  0  0  0  0  0  0  0  0  0  0
  1  8  1  0
  1  6  1  0
  2  3  2  0
  3  4  1  0
  5  4  2  0
  6  5  1  0
  7  6  2  0
  7  2  1  0
  9  1  1  0
 10  1  1  0
 11 12  1  0
 11 10  1  0
 12 14  2  0
 13 12  1  0
  2 15  1  0
  3 16  1  0
  4 17  1  0
  8 18  1  0
  8 19  1  0
  8 20  1  0
  9 21  1  0
  9 22  1  0
  9 23  1  0
 10 24  1  0
 10 25  1  0
 11 26  1  0
 13 27  1  0
 13 28  1  0
M  ISO  8  15  14  16  14  17  14  18   8  19   8  20   8  21   8  22   8
M  ISO  3  23   8  24   8  25   8
M  END
>  <minimizedAffinity>  (1) 
-3.90523171

>  <minimizedRMSD>  (1) 
0.656299412

$$$$
