
     RDKit          3D

 30 32  0  0  0  0  0  0  0  0999 V2000
   36.4890   27.7040   31.1590 N   0  0  0  0  0  0  0  0  0  0  0  0
   36.9330   28.1540   29.9880 C   0  0  0  0  0  0  0  0  0  0  0  0
   37.1000   29.5250   29.8180 C   0  0  0  0  0  0  0  0  0  0  0  0
   36.8000   30.3740   30.8700 C   0  0  0  0  0  0  0  0  0  0  0  0
   36.9190   31.6240   30.8090 O   0  0  0  0  0  0  0  0  0  0  0  0
   36.3510   29.8800   32.0460 N   0  0  0  0  0  0  0  0  0  0  0  0
   36.2010   28.5440   32.1750 C   0  0  0  0  0  0  0  0  0  0  0  0
   35.7860   28.0760   33.2580 O   0  0  0  0  0  0  0  0  0  0  0  0
   37.4410   25.5300   31.6640 C   0  0  0  0  0  0  0  0  0  0  0  0
   36.3510   26.3010   31.2380 C   0  0  0  0  0  0  0  0  0  0  0  0
   35.1690   25.6140   30.9100 C   0  0  0  0  0  0  0  0  0  0  0  0
   35.1400   24.2480   31.0220 N   0  0  0  0  0  0  0  0  0  0  0  0
   36.2090   23.5560   31.4340 C   0  0  0  0  0  0  0  0  0  0  0  0
   37.3500   24.1970   31.7520 N   0  0  0  0  0  0  0  0  0  0  0  0
   36.0490   22.1450   31.5060 N   0  0  0  0  0  0  0  0  0  0  0  0
   36.6440   21.1040   30.9020 C   0  0  0  0  0  0  0  0  0  0  0  0
   36.0260   19.9810   31.4120 C   0  0  0  0  0  0  0  0  0  0  0  0
   35.0730   20.3320   32.3090 N   0  0  0  0  0  0  0  0  0  0  0  0
   35.1000   21.6970   32.3560 C   0  0  0  0  0  0  0  0  0  0  0  0
   37.5960   30.1380   28.5360 C   0  0  0  0  0  0  0  0  0  0  0  0
   37.1636   27.4556   29.1701 H   0  0  0  0  0  0  0  0  0  0  0  0
   36.1275   30.5109   32.8289 H   0  0  0  0  0  0  0  0  0  0  0  0
   38.3854   26.0273   31.9300 H   0  0  0  0  0  0  0  0  0  0  0  0
   34.2802   26.1647   30.5684 H   0  0  0  0  0  0  0  0  0  0  0  0
   37.4532   21.1391   30.1578 H   0  0  0  0  0  0  0  0  0  0  0  0
   36.2721   18.9466   31.1302 H   0  0  0  0  0  0  0  0  0  0  0  0
   34.4541   22.3283   32.9838 H   0  0  0  0  0  0  0  0  0  0  0  0
   38.2725   30.9741   28.7670 H   0  0  0  0  0  0  0  0  0  0  0  0
   38.1372   29.3790   27.9520 H   0  0  0  0  0  0  0  0  0  0  0  0
   36.7408   30.5089   27.9520 H   0  0  0  0  0  0  0  0  0  0  0  0
  1 10  1  0
  1  7  1  0
  2  1  1  0
  3  2  2  0
  3  4  1  0
  4  6  1  0
  5  4  2  0
  6  7  1  0
  7  8  2  0
  9 14  2  0
 10  9  1  0
 11 12  1  0
 11 10  2  0
 12 13  2  0
 13 15  1  0
 13 14  1  0
 15 19  1  0
 16 17  2  0
 16 15  1  0
 17 18  1  0
 18 19  2  0
 20  3  1  0
  2 21  1  0
  6 22  1  0
  9 23  1  0
 11 24  1  0
 16 25  1  0
 17 26  1  0
 19 27  1  0
 20 28  1  0
 20 29  1  0
 20 30  1  0
M  ISO  8  21  14  22   9  23  14  24  14  25  14  26  14  27  14  28   8
M  ISO  2  29   8  30   8
M  END
>  <minimizedAffinity>  (1) 
-4.82527637

>  <minimizedRMSD>  (1) 
7.38662958

$$$$
