
     RDKit          3D

 31 32  0  0  0  0  0  0  0  0999 V2000
   38.7730   26.1020   35.2010 C   0  0  0  0  0  0  0  0  0  0  0  0
   39.4190   23.0030   37.0090 C   0  0  0  0  0  0  0  0  0  0  0  0
   38.6930   23.1780   38.2150 C   0  0  0  0  0  0  0  0  0  0  0  0
   37.9770   24.3890   38.3880 C   0  0  0  0  0  0  0  0  0  0  0  0
   38.0310   25.3000   37.3950 N   0  0  0  0  0  0  0  0  0  0  0  0
   38.7380   25.1000   36.2500 C   0  0  0  0  0  0  0  0  0  0  0  0
   39.4220   23.9540   36.0730 N   0  0  0  0  0  0  0  0  0  0  0  0
   37.9130   27.3180   35.5570 C   0  0  0  0  0  0  0  0  0  0  0  0
   38.2280   25.5240   33.9070 C   0  0  0  0  0  0  0  0  0  0  0  0
   40.1590   26.6570   34.9290 C   0  0  0  0  0  0  0  0  0  0  0  0
   41.0190   25.6970   34.3310 N   0  0  0  0  0  0  0  0  0  0  0  0
   42.3500   25.6230   34.7210 C   0  0  0  0  0  0  0  0  0  0  0  0
   42.9530   24.8580   35.6530 C   0  0  0  0  0  0  0  0  0  0  0  0
   44.2740   24.9080   35.9130 C   0  0  0  0  0  0  0  0  0  0  0  0
   44.9870   25.8750   35.0810 C   0  0  0  0  0  0  0  0  0  0  0  0
   43.6370   26.5870   34.0260 S   0  0  0  0  0  0  0  0  0  0  0  0
   39.9850   22.0744   36.8438 H   0  0  0  0  0  0  0  0  0  0  0  0
   38.6859   22.3987   38.9913 H   0  0  0  0  0  0  0  0  0  0  0  0
   37.3962   24.5796   39.3025 H   0  0  0  0  0  0  0  0  0  0  0  0
   37.8463   27.4123   36.6509 H   0  0  0  0  0  0  0  0  0  0  0  0
   38.3708   28.2262   35.1379 H   0  0  0  0  0  0  0  0  0  0  0  0
   36.9042   27.1890   35.1379 H   0  0  0  0  0  0  0  0  0  0  0  0
   37.4901   24.7414   34.1371 H   0  0  0  0  0  0  0  0  0  0  0  0
   37.7461   26.3221   33.3232 H   0  0  0  0  0  0  0  0  0  0  0  0
   39.0530   25.0898   33.3232 H   0  0  0  0  0  0  0  0  0  0  0  0
   40.0677   27.5195   34.2524 H   0  0  0  0  0  0  0  0  0  0  0  0
   40.5996   26.9469   35.8943 H   0  0  0  0  0  0  0  0  0  0  0  0
   40.6562   25.0573   33.6098 H   0  0  0  0  0  0  0  0  0  0  0  0
   42.3341   24.1563   36.2314 H   0  0  0  0  0  0  0  0  0  0  0  0
   44.7658   24.2844   36.6741 H   0  0  0  0  0  0  0  0  0  0  0  0
   46.0593   26.1202   35.0804 H   0  0  0  0  0  0  0  0  0  0  0  0
  1  8  1  0
  1  6  1  0
  2  3  2  0
  3  4  1  0
  5  4  2  0
  6  5  1  0
  7  6  2  0
  7  2  1  0
  9  1  1  0
 10  1  1  0
 11 12  1  0
 11 10  1  0
 12 13  2  0
 13 14  1  0
 15 14  2  0
 16 12  1  0
 16 15  1  0
  2 17  1  0
  3 18  1  0
  4 19  1  0
  8 20  1  0
  8 21  1  0
  8 22  1  0
  9 23  1  0
  9 24  1  0
  9 25  1  0
 10 26  1  0
 10 27  1  0
 11 28  1  0
 13 29  1  0
 14 30  1  0
 15 31  1  0
M  ISO  8  17  14  18  14  19  14  20   8  21   8  22   8  23   8  24   8
M  ISO  6  25   8  26   8  27   8  29  14  30  14  31  14
M  END
>  <minimizedAffinity>  (1) 
-3.82035255

>  <minimizedRMSD>  (1) 
1.33292627

$$$$
