
     RDKit          3D

 27 27  0  0  0  0  0  0  0  0999 V2000
   38.5560   25.8850   35.0080 C   0  0  0  0  0  0  0  0  0  0  0  0
   39.7490   23.0290   36.9370 C   0  0  0  0  0  0  0  0  0  0  0  0
   38.9970   23.1230   38.1380 C   0  0  0  0  0  0  0  0  0  0  0  0
   38.0780   24.1870   38.2640 C   0  0  0  0  0  0  0  0  0  0  0  0
   37.9620   25.0640   37.2250 N   0  0  0  0  0  0  0  0  0  0  0  0
   38.7070   24.9310   36.0900 C   0  0  0  0  0  0  0  0  0  0  0  0
   39.5720   23.9320   35.9690 N   0  0  0  0  0  0  0  0  0  0  0  0
   37.2310   26.6330   35.0710 C   0  0  0  0  0  0  0  0  0  0  0  0
   38.6320   25.1770   33.6680 C   0  0  0  0  0  0  0  0  0  0  0  0
   39.6280   26.9890   35.0300 C   0  0  0  0  0  0  0  0  0  0  0  0
   40.9350   26.4430   34.9880 N   0  0  0  0  0  0  0  0  0  0  0  0
   41.7780   26.8450   33.9190 C   0  0  0  0  0  0  0  0  0  0  0  0
   43.0360   27.2310   34.3410 F   0  0  0  0  0  0  0  0  0  0  0  0
   41.8520   25.7770   33.0300 F   0  0  0  0  0  0  0  0  0  0  0  0
   41.1300   27.8740   33.2270 F   0  0  0  0  0  0  0  0  0  0  0  0
   40.4758   22.2141   36.8042 H   0  0  0  0  0  0  0  0  0  0  0  0
   39.1268   22.3883   38.9463 H   0  0  0  0  0  0  0  0  0  0  0  0
   37.4722   24.3059   39.1744 H   0  0  0  0  0  0  0  0  0  0  0  0
   36.9493   26.7920   36.1224 H   0  0  0  0  0  0  0  0  0  0  0  0
   37.3348   27.6058   34.5681 H   0  0  0  0  0  0  0  0  0  0  0  0
   36.4518   26.0415   34.5681 H   0  0  0  0  0  0  0  0  0  0  0  0
   38.7481   24.0953   33.8309 H   0  0  0  0  0  0  0  0  0  0  0  0
   37.7085   25.3654   33.1009 H   0  0  0  0  0  0  0  0  0  0  0  0
   39.4945   25.5571   33.1009 H   0  0  0  0  0  0  0  0  0  0  0  0
   39.4855   27.6434   34.1573 H   0  0  0  0  0  0  0  0  0  0  0  0
   39.5204   27.5567   35.9660 H   0  0  0  0  0  0  0  0  0  0  0  0
   41.4060   26.7017   35.8667 H   0  0  0  0  0  0  0  0  0  0  0  0
  1 10  1  0
  1  8  1  0
  1  6  1  0
  2  3  2  0
  3  4  1  0
  5  4  2  0
  6  5  1  0
  7  6  2  0
  7  2  1  0
  9  1  1  0
 11 10  1  0
 12 13  1  0
 12 11  1  0
 14 12  1  0
 15 12  1  0
  2 16  1  0
  3 17  1  0
  4 18  1  0
  8 19  1  0
  8 20  1  0
  8 21  1  0
  9 22  1  0
  9 23  1  0
  9 24  1  0
 10 25  1  0
 10 26  1  0
 11 27  1  0
M  ISO  8  16  14  17  14  18  14  19   8  20   8  21   8  22   8  23   8
M  ISO  4  24   8  25   8  26   8  27   5
M  END
>  <minimizedAffinity>  (1) 
-3.75128508

>  <minimizedRMSD>  (1) 
1.06175089

$$$$
