
     RDKit          3D

 30 30  0  0  0  0  0  0  0  0999 V2000
   38.7540   25.9990   35.2580 C   0  0  0  0  0  0  0  0  0  0  0  0
   39.4680   22.9660   37.1700 C   0  0  0  0  0  0  0  0  0  0  0  0
   38.7190   23.1330   38.3550 C   0  0  0  0  0  0  0  0  0  0  0  0
   37.9480   24.3180   38.4890 C   0  0  0  0  0  0  0  0  0  0  0  0
   37.9790   25.2220   37.4650 N   0  0  0  0  0  0  0  0  0  0  0  0
   38.7300   25.0030   36.3340 C   0  0  0  0  0  0  0  0  0  0  0  0
   39.4640   23.8760   36.2050 N   0  0  0  0  0  0  0  0  0  0  0  0
   38.1800   27.3440   35.7260 C   0  0  0  0  0  0  0  0  0  0  0  0
   37.9260   25.5070   34.1000 C   0  0  0  0  0  0  0  0  0  0  0  0
   40.1810   26.3150   34.8240 C   0  0  0  0  0  0  0  0  0  0  0  0
   40.6730   25.3090   33.9140 N   0  0  0  0  0  0  0  0  0  0  0  0
   41.6250   25.9700   33.0490 C   0  0  0  0  0  0  0  0  0  0  0  0
   41.6230   27.4590   33.2050 C   0  0  0  0  0  0  0  0  0  0  0  0
   40.0720   22.0554   37.0434 H   0  0  0  0  0  0  0  0  0  0  0  0
   38.7322   22.3707   39.1480 H   0  0  0  0  0  0  0  0  0  0  0  0
   37.3442   24.5025   39.3898 H   0  0  0  0  0  0  0  0  0  0  0  0
   38.1670   27.3745   36.8255 H   0  0  0  0  0  0  0  0  0  0  0  0
   38.8070   28.1631   35.3439 H   0  0  0  0  0  0  0  0  0  0  0  0
   37.1548   27.4580   35.3439 H   0  0  0  0  0  0  0  0  0  0  0  0
   37.0390   24.9799   34.4813 H   0  0  0  0  0  0  0  0  0  0  0  0
   37.6084   26.3630   33.4865 H   0  0  0  0  0  0  0  0  0  0  0  0
   38.5260   24.8188   33.4865 H   0  0  0  0  0  0  0  0  0  0  0  0
   40.1974   27.2940   34.3228 H   0  0  0  0  0  0  0  0  0  0  0  0
   40.8258   26.3310   35.7150 H   0  0  0  0  0  0  0  0  0  0  0  0
   41.1338   24.5506   34.4369 H   0  0  0  0  0  0  0  0  0  0  0  0
   41.3776   25.7268   32.0051 H   0  0  0  0  0  0  0  0  0  0  0  0
   42.6268   25.6117   33.3283 H   0  0  0  0  0  0  0  0  0  0  0  0
   41.6227   27.7156   34.2747 H   0  0  0  0  0  0  0  0  0  0  0  0
   42.5206   27.8789   32.7275 H   0  0  0  0  0  0  0  0  0  0  0  0
   40.7243   27.8765   32.7275 H   0  0  0  0  0  0  0  0  0  0  0  0
  1  8  1  0
  1  6  1  0
  2  3  2  0
  3  4  1  0
  5  4  2  0
  6  5  1  0
  7  6  2  0
  7  2  1  0
  9  1  1  0
 10  1  1  0
 11 10  1  0
 12 13  1  0
 12 11  1  0
  2 14  1  0
  3 15  1  0
  4 16  1  0
  8 17  1  0
  8 18  1  0
  8 19  1  0
  9 20  1  0
  9 21  1  0
  9 22  1  0
 10 23  1  0
 10 24  1  0
 11 25  1  0
 12 26  1  0
 12 27  1  0
 13 28  1  0
 13 29  1  0
 13 30  1  0
M  ISO  8  14  14  15  14  16  14  17   8  18   8  19   8  20   8  21   8
M  ISO  8  22   8  23   8  24   8  25   5  26   8  27   8  28   8  29   8
M  ISO  1  30   8
M  END
>  <minimizedAffinity>  (1) 
-3.31344676

>  <minimizedRMSD>  (1) 
0.393740207

$$$$
