
     RDKit          3D

 27 27  0  0  0  0  0  0  0  0999 V2000
   38.7200   26.1530   35.2180 C   0  0  0  0  0  0  0  0  0  0  0  0
   39.3740   23.0150   37.0000 C   0  0  0  0  0  0  0  0  0  0  0  0
   38.6650   23.1780   38.2190 C   0  0  0  0  0  0  0  0  0  0  0  0
   37.9680   24.3820   38.4000 C   0  0  0  0  0  0  0  0  0  0  0  0
   38.0040   25.3120   37.4280 N   0  0  0  0  0  0  0  0  0  0  0  0
   38.7080   25.1190   36.2540 C   0  0  0  0  0  0  0  0  0  0  0  0
   39.3660   23.9870   36.0760 N   0  0  0  0  0  0  0  0  0  0  0  0
   37.9360   27.3790   35.6210 C   0  0  0  0  0  0  0  0  0  0  0  0
   38.1350   25.6090   33.9490 C   0  0  0  0  0  0  0  0  0  0  0  0
   40.1590   26.6390   34.9560 C   0  0  0  0  0  0  0  0  0  0  0  0
   40.9040   25.6800   34.2210 N   0  0  0  0  0  0  0  0  0  0  0  0
   42.2640   25.6810   34.7270 C   0  0  0  0  0  0  0  0  0  0  0  0
   39.9330   22.0864   36.8123 H   0  0  0  0  0  0  0  0  0  0  0  0
   38.6622   22.3930   38.9895 H   0  0  0  0  0  0  0  0  0  0  0  0
   37.3996   24.5634   39.3241 H   0  0  0  0  0  0  0  0  0  0  0  0
   37.8947   27.4435   36.7183 H   0  0  0  0  0  0  0  0  0  0  0  0
   38.4277   28.2772   35.2191 H   0  0  0  0  0  0  0  0  0  0  0  0
   36.9144   27.3094   35.2191 H   0  0  0  0  0  0  0  0  0  0  0  0
   37.3492   24.8783   34.1912 H   0  0  0  0  0  0  0  0  0  0  0  0
   37.7017   26.4325   33.3624 H   0  0  0  0  0  0  0  0  0  0  0  0
   38.9249   25.1171   33.3624 H   0  0  0  0  0  0  0  0  0  0  0  0
   40.1211   27.5777   34.3839 H   0  0  0  0  0  0  0  0  0  0  0  0
   40.6544   26.7927   35.9260 H   0  0  0  0  0  0  0  0  0  0  0  0
   40.9032   25.9288   33.2215 H   0  0  0  0  0  0  0  0  0  0  0  0
   42.2460   25.6810   35.8269 H   0  0  0  0  0  0  0  0  0  0  0  0
   42.7891   24.7832   34.3689 H   0  0  0  0  0  0  0  0  0  0  0  0
   42.7878   26.5795   34.3689 H   0  0  0  0  0  0  0  0  0  0  0  0
  1  8  1  0
  1  6  1  0
  2  3  2  0
  3  4  1  0
  5  4  2  0
  6  5  1  0
  7  6  2  0
  7  2  1  0
  9  1  1  0
 10  1  1  0
 11 12  1  0
 11 10  1  0
  2 13  1  0
  3 14  1  0
  4 15  1  0
  8 16  1  0
  8 17  1  0
  8 18  1  0
  9 19  1  0
  9 20  1  0
  9 21  1  0
 10 22  1  0
 10 23  1  0
 11 24  1  0
 12 25  1  0
 12 26  1  0
 12 27  1  0
M  ISO  8  13  14  14  14  15  14  16   8  17   8  18   8  19   8  20   8
M  ISO  7  21   8  22   8  23   8  24   5  25   8  26   8  27   8
M  END
>  <minimizedAffinity>  (1) 
-3.2454834

>  <minimizedRMSD>  (1) 
0.298565477

$$$$
