
     RDKit          3D

 48 51  0  0  0  0  0  0  0  0999 V2000
   41.1570   25.2350   34.7090 N   0  0  0  0  0  0  0  0  0  0  0  0
   42.4730   25.1180   35.2390 C   0  0  0  0  0  0  0  0  0  0  0  0
   43.4980   26.0310   34.9470 C   0  0  0  0  0  0  0  0  0  0  0  0
   44.7960   25.9620   35.4300 C   0  0  0  0  0  0  0  0  0  0  0  0
   45.0290   24.8770   36.2700 C   0  0  0  0  0  0  0  0  0  0  0  0
   44.0070   23.9550   36.5670 C   0  0  0  0  0  0  0  0  0  0  0  0
   42.7050   24.0560   36.0510 C   0  0  0  0  0  0  0  0  0  0  0  0
   42.2120   22.8690   36.6530 C   0  0  0  0  0  0  0  0  0  0  0  0
   41.2680   22.4760   37.5550 C   0  0  0  0  0  0  0  0  0  0  0  0
   41.4290   21.1460   37.8190 N   0  0  0  0  0  0  0  0  0  0  0  0
   42.4460   20.5990   37.1400 C   0  0  0  0  0  0  0  0  0  0  0  0
   42.9140   19.3080   37.1390 C   0  0  0  0  0  0  0  0  0  0  0  0
   43.9940   19.0640   36.3170 C   0  0  0  0  0  0  0  0  0  0  0  0
   44.5580   20.0600   35.5510 C   0  0  0  0  0  0  0  0  0  0  0  0
   44.0290   21.3290   35.6090 C   0  0  0  0  0  0  0  0  0  0  0  0
   42.9340   21.6850   36.4100 C   0  0  0  0  0  0  0  0  0  0  0  0
   40.4220   26.4750   34.9150 C   0  0  0  0  0  0  0  0  0  0  0  0
   38.9300   26.2580   34.9060 C   0  0  0  0  0  0  0  0  0  0  0  0
   38.0010   22.8960   35.9520 C   0  0  0  0  0  0  0  0  0  0  0  0
   37.7540   23.0040   37.3040 C   0  0  0  0  0  0  0  0  0  0  0  0
   37.9030   24.2590   37.8820 C   0  0  0  0  0  0  0  0  0  0  0  0
   38.2800   25.2810   37.0830 N   0  0  0  0  0  0  0  0  0  0  0  0
   38.5180   25.1340   35.7550 C   0  0  0  0  0  0  0  0  0  0  0  0
   38.3700   23.9320   35.2210 N   0  0  0  0  0  0  0  0  0  0  0  0
   38.2920   27.5610   35.3810 C   0  0  0  0  0  0  0  0  0  0  0  0
   38.4950   26.0390   33.4780 C   0  0  0  0  0  0  0  0  0  0  0  0
   40.7315   24.4549   34.1881 H   0  0  0  0  0  0  0  0  0  0  0  0
   43.2515   26.8704   34.2802 H   0  0  0  0  0  0  0  0  0  0  0  0
   45.5715   26.6984   35.1725 H   0  0  0  0  0  0  0  0  0  0  0  0
   46.0279   24.7375   36.7091 H   0  0  0  0  0  0  0  0  0  0  0  0
   44.2402   23.1139   37.2365 H   0  0  0  0  0  0  0  0  0  0  0  0
   40.4998   23.1262   37.9989 H   0  0  0  0  0  0  0  0  0  0  0  0
   40.8314   20.6188   38.4715 H   0  0  0  0  0  0  0  0  0  0  0  0
   42.4568   18.5192   37.7544 H   0  0  0  0  0  0  0  0  0  0  0  0
   44.4154   18.0489   36.2720 H   0  0  0  0  0  0  0  0  0  0  0  0
   45.4194   19.8441   34.9018 H   0  0  0  0  0  0  0  0  0  0  0  0
   44.4927   22.1112   34.9900 H   0  0  0  0  0  0  0  0  0  0  0  0
   40.7124   26.9024   35.8861 H   0  0  0  0  0  0  0  0  0  0  0  0
   40.6701   27.1572   34.0885 H   0  0  0  0  0  0  0  0  0  0  0  0
   37.8871   21.9155   35.4666 H   0  0  0  0  0  0  0  0  0  0  0  0
   37.4510   22.1315   37.9015 H   0  0  0  0  0  0  0  0  0  0  0  0
   37.7199   24.4151   38.9554 H   0  0  0  0  0  0  0  0  0  0  0  0
   38.2807   27.5841   36.4807 H   0  0  0  0  0  0  0  0  0  0  0  0
   38.8744   28.4138   35.0023 H   0  0  0  0  0  0  0  0  0  0  0  0
   37.2612   27.6239   35.0023 H   0  0  0  0  0  0  0  0  0  0  0  0
   37.5126   25.5444   33.4657 H   0  0  0  0  0  0  0  0  0  0  0  0
   38.4238   27.0087   32.9636 H   0  0  0  0  0  0  0  0  0  0  0  0
   39.2315   25.4043   32.9636 H   0  0  0  0  0  0  0  0  0  0  0  0
  1 17  1  0
  1  2  1  0
  2  7  1  0
  3  2  2  0
  3  4  1  0
  4  5  2  0
  5  6  1  0
  7  6  2  0
  7  8  1  0
  8  9  2  0
  9 10  1  0
 11 10  1  0
 12 11  2  0
 13 12  1  0
 14 15  1  0
 14 13  2  0
 15 16  2  0
 16  8  1  0
 16 11  1  0
 18 17  1  0
 18 25  1  0
 18 23  1  0
 19 20  2  0
 20 21  1  0
 22 21  2  0
 23 22  1  0
 24 23  2  0
 24 19  1  0
 26 18  1  0
  1 27  1  0
  3 28  1  0
  4 29  1  0
  5 30  1  0
  6 31  1  0
  9 32  1  0
 10 33  1  0
 12 34  1  0
 13 35  1  0
 14 36  1  0
 15 37  1  0
 17 38  1  0
 17 39  1  0
 19 40  1  0
 20 41  1  0
 21 42  1  0
 25 43  1  0
 25 44  1  0
 25 45  1  0
 26 46  1  0
 26 47  1  0
 26 48  1  0
M  ISO  8  28  14  29  14  30  14  31  14  32  14  33   9  34  14  35  14
M  ISO  8  36  14  37  14  38   8  39   8  40  14  41  14  42  14  43   8
M  ISO  5  44   8  45   8  46   8  47   8  48   8
M  END
>  <minimizedAffinity>  (1) 
-5.79169512

>  <minimizedRMSD>  (1) 
1.3273946

$$$$
