
     RDKit          3D

 41 43  0  0  0  0  0  0  0  0999 V2000
   40.4360   26.4830   34.9990 C   0  0  0  0  0  0  0  0  0  0  0  0
   41.1240   25.2190   34.7640 N   0  0  0  0  0  0  0  0  0  0  0  0
   42.4680   25.0700   35.1640 C   0  0  0  0  0  0  0  0  0  0  0  0
   43.5180   25.8360   34.6060 C   0  0  0  0  0  0  0  0  0  0  0  0
   44.8550   25.7770   34.9720 C   0  0  0  0  0  0  0  0  0  0  0  0
   45.1270   24.8690   35.9870 C   0  0  0  0  0  0  0  0  0  0  0  0
   44.1010   24.0890   36.5650 C   0  0  0  0  0  0  0  0  0  0  0  0
   42.7640   24.1840   36.1440 C   0  0  0  0  0  0  0  0  0  0  0  0
   42.1230   23.0060   36.6600 C   0  0  0  0  0  0  0  0  0  0  0  0
   42.7690   21.7830   36.7240 C   0  0  0  0  0  0  0  0  0  0  0  0
   42.0710   20.8200   37.3890 C   0  0  0  0  0  0  0  0  0  0  0  0
   40.9480   21.4650   37.7540 N   0  0  0  0  0  0  0  0  0  0  0  0
   41.0150   22.7010   37.3240 N   0  0  0  0  0  0  0  0  0  0  0  0
   38.9350   26.3330   34.9090 C   0  0  0  0  0  0  0  0  0  0  0  0
   38.0450   22.8190   35.1940 C   0  0  0  0  0  0  0  0  0  0  0  0
   37.6090   22.6730   36.4860 C   0  0  0  0  0  0  0  0  0  0  0  0
   37.6040   23.8040   37.3000 C   0  0  0  0  0  0  0  0  0  0  0  0
   38.0370   24.9630   36.7500 N   0  0  0  0  0  0  0  0  0  0  0  0
   38.4670   25.0860   35.4730 C   0  0  0  0  0  0  0  0  0  0  0  0
   38.4450   23.9940   34.7560 N   0  0  0  0  0  0  0  0  0  0  0  0
   38.3700   27.5310   35.7010 C   0  0  0  0  0  0  0  0  0  0  0  0
   38.5020   26.4840   33.4840 C   0  0  0  0  0  0  0  0  0  0  0  0
   40.6972   26.8488   36.0030 H   0  0  0  0  0  0  0  0  0  0  0  0
   40.7546   27.1940   34.2225 H   0  0  0  0  0  0  0  0  0  0  0  0
   40.6305   24.4384   34.3079 H   0  0  0  0  0  0  0  0  0  0  0  0
   43.2498   26.5440   33.8080 H   0  0  0  0  0  0  0  0  0  0  0  0
   45.6320   26.3957   34.4993 H   0  0  0  0  0  0  0  0  0  0  0  0
   46.1601   24.7552   36.3473 H   0  0  0  0  0  0  0  0  0  0  0  0
   44.3569   23.3848   37.3704 H   0  0  0  0  0  0  0  0  0  0  0  0
   43.7583   21.6045   36.2775 H   0  0  0  0  0  0  0  0  0  0  0  0
   42.3551   19.7746   37.5800 H   0  0  0  0  0  0  0  0  0  0  0  0
   40.1654   21.0552   38.2836 H   0  0  0  0  0  0  0  0  0  0  0  0
   38.0605   21.9496   34.5202 H   0  0  0  0  0  0  0  0  0  0  0  0
   37.2747   21.6966   36.8667 H   0  0  0  0  0  0  0  0  0  0  0  0
   37.2629   23.7572   38.3447 H   0  0  0  0  0  0  0  0  0  0  0  0
   38.4628   27.3342   36.7793 H   0  0  0  0  0  0  0  0  0  0  0  0
   38.9346   28.4394   35.4441 H   0  0  0  0  0  0  0  0  0  0  0  0
   37.3099   27.6732   35.4441 H   0  0  0  0  0  0  0  0  0  0  0  0
   37.4638   26.8461   33.4527 H   0  0  0  0  0  0  0  0  0  0  0  0
   39.1578   27.2065   32.9761 H   0  0  0  0  0  0  0  0  0  0  0  0
   38.5663   25.5104   32.9761 H   0  0  0  0  0  0  0  0  0  0  0  0
  2  1  1  0
  2  3  1  0
  3  8  2  0
  4  5  2  0
  4  3  1  0
  5  6  1  0
  6  7  2  0
  8  7  1  0
  8  9  1  0
  9 10  1  0
  9 13  2  0
 10 11  2  0
 11 12  1  0
 13 12  1  0
 14  1  1  0
 14 19  1  0
 14 21  1  0
 15 16  2  0
 16 17  1  0
 18 17  2  0
 19 18  1  0
 20 15  1  0
 20 19  2  0
 22 14  1  0
  1 23  1  0
  1 24  1  0
  2 25  1  0
  4 26  1  0
  5 27  1  0
  6 28  1  0
  7 29  1  0
 10 30  1  0
 11 31  1  0
 12 32  1  0
 15 33  1  0
 16 34  1  0
 17 35  1  0
 21 36  1  0
 21 37  1  0
 21 38  1  0
 22 39  1  0
 22 40  1  0
 22 41  1  0
M  ISO  8  23   8  24   8  26  14  27  14  28  14  29  14  30  14  31  14
M  ISO  8  32   9  33  14  34  14  35  14  36   8  37   8  38   8  39   8
M  ISO  2  40   8  41   8
M  END
>  <minimizedAffinity>  (1) 
-5.42994452

>  <minimizedRMSD>  (1) 
1.59537148

$$$$
