
     RDKit          3D

 30 32  0  0  0  0  0  0  0  0999 V2000
   38.1800   25.8600   32.5360 N   0  0  0  0  0  0  0  0  0  0  0  0
   39.3900   26.4080   32.2990 C   0  0  0  0  0  0  0  0  0  0  0  0
   39.5720   27.1010   31.0950 C   0  0  0  0  0  0  0  0  0  0  0  0
   38.5200   27.1970   30.2020 C   0  0  0  0  0  0  0  0  0  0  0  0
   38.6320   27.8040   29.1130 O   0  0  0  0  0  0  0  0  0  0  0  0
   37.3430   26.6340   30.4870 N   0  0  0  0  0  0  0  0  0  0  0  0
   37.1750   25.9710   31.6450 C   0  0  0  0  0  0  0  0  0  0  0  0
   36.0850   25.4530   31.9050 O   0  0  0  0  0  0  0  0  0  0  0  0
   37.7960   25.9380   34.9250 C   0  0  0  0  0  0  0  0  0  0  0  0
   38.0830   25.1830   33.7690 C   0  0  0  0  0  0  0  0  0  0  0  0
   38.2580   23.7950   33.9070 C   0  0  0  0  0  0  0  0  0  0  0  0
   38.1360   23.2590   35.1710 N   0  0  0  0  0  0  0  0  0  0  0  0
   37.8640   24.0070   36.2410 C   0  0  0  0  0  0  0  0  0  0  0  0
   37.6950   25.3370   36.1180 N   0  0  0  0  0  0  0  0  0  0  0  0
   37.7340   23.4220   37.6020 C   0  0  0  0  0  0  0  0  0  0  0  0
   39.0590   23.2920   38.4030 C   0  0  0  0  0  0  0  0  0  0  0  0
   38.0390   24.2830   38.8130 C   0  0  0  0  0  0  0  0  0  0  0  0
   40.8920   27.7500   30.7380 C   0  0  0  0  0  0  0  0  0  0  0  0
   40.2080   26.3136   33.0283 H   0  0  0  0  0  0  0  0  0  0  0  0
   36.5626   26.7077   29.8188 H   0  0  0  0  0  0  0  0  0  0  0  0
   37.6543   27.0260   34.8467 H   0  0  0  0  0  0  0  0  0  0  0  0
   38.4841   23.1598   33.0379 H   0  0  0  0  0  0  0  0  0  0  0  0
   36.8935   22.7759   37.3084 H   0  0  0  0  0  0  0  0  0  0  0  0
   39.2420   22.4021   39.0231 H   0  0  0  0  0  0  0  0  0  0  0  0
   40.1287   23.3354   38.1501 H   0  0  0  0  0  0  0  0  0  0  0  0
   38.2400   25.3562   38.6796 H   0  0  0  0  0  0  0  0  0  0  0  0
   37.5106   24.4890   39.7555 H   0  0  0  0  0  0  0  0  0  0  0  0
   41.4313   28.0151   31.6594 H   0  0  0  0  0  0  0  0  0  0  0  0
   41.4983   27.0473   30.1476 H   0  0  0  0  0  0  0  0  0  0  0  0
   40.7057   28.6592   30.1476 H   0  0  0  0  0  0  0  0  0  0  0  0
  1 10  1  0
  2  1  1  0
  3  2  2  0
  4  6  1  0
  4  3  1  0
  5  4  2  0
  6  7  1  0
  7  8  2  0
  7  1  1  0
  9 14  2  0
 10 11  2  0
 10  9  1  0
 11 12  1  0
 12 13  2  0
 13 15  1  0
 14 13  1  0
 15 16  1  0
 15 17  1  0
 16 17  1  0
 18  3  1  0
  2 19  1  0
  6 20  1  0
  9 21  1  0
 11 22  1  0
 15 23  1  0
 16 24  1  0
 16 25  1  0
 17 26  1  0
 17 27  1  0
 18 28  1  0
 18 29  1  0
 18 30  1  0
M  ISO  8  19  14  20   9  21  14  22  14  23  13  24  13  25  13  26  13
M  ISO  4  27  13  28   8  29   8  30   8
M  END
>  <minimizedAffinity>  (1) 
-4.60797262

>  <minimizedRMSD>  (1) 
2.76982713

$$$$
