
     RDKit          3D

 41 42  0  0  0  0  0  0  0  0999 V2000
   39.9880   24.7320   34.2760 C   0  0  0  0  0  0  0  0  0  0  0  0
   40.6960   23.8610   35.1940 N   0  0  0  0  0  0  0  0  0  0  0  0
   42.0560   24.1360   35.5090 C   0  0  0  0  0  0  0  0  0  0  0  0
   42.7090   25.3180   35.1600 C   0  0  0  0  0  0  0  0  0  0  0  0
   44.0150   25.6420   35.4620 C   0  0  0  0  0  0  0  0  0  0  0  0
   44.7070   24.6760   36.1830 C   0  0  0  0  0  0  0  0  0  0  0  0
   44.0830   23.4730   36.5520 C   0  0  0  0  0  0  0  0  0  0  0  0
   42.7490   23.1820   36.2170 C   0  0  0  0  0  0  0  0  0  0  0  0
   42.5410   21.8500   36.5620 N   0  0  0  0  0  0  0  0  0  0  0  0
   41.8250   21.1670   37.5590 C   0  0  0  0  0  0  0  0  0  0  0  0
   40.7100   21.8260   37.7830 N   0  0  0  0  0  0  0  0  0  0  0  0
   42.3810   19.9470   38.1150 N   0  0  0  0  0  0  0  0  0  0  0  0
   40.0980   21.4060   38.5090 H   0  0  0  0  0  0  0  0  0  0  0  0
   38.7850   25.3790   34.9370 C   0  0  0  0  0  0  0  0  0  0  0  0
   37.3300   22.7370   36.9670 C   0  0  0  0  0  0  0  0  0  0  0  0
   37.4120   23.1980   38.2630 C   0  0  0  0  0  0  0  0  0  0  0  0
   37.9800   24.4610   38.4600 C   0  0  0  0  0  0  0  0  0  0  0  0
   38.4080   25.1330   37.3610 N   0  0  0  0  0  0  0  0  0  0  0  0
   38.3160   24.6480   36.0980 C   0  0  0  0  0  0  0  0  0  0  0  0
   37.7740   23.4580   35.9570 N   0  0  0  0  0  0  0  0  0  0  0  0
   39.2530   26.7910   35.3390 C   0  0  0  0  0  0  0  0  0  0  0  0
   37.6990   25.5290   33.9120 C   0  0  0  0  0  0  0  0  0  0  0  0
   39.6466   24.1404   33.4138 H   0  0  0  0  0  0  0  0  0  0  0  0
   40.6760   25.5289   33.9573 H   0  0  0  0  0  0  0  0  0  0  0  0
   40.2188   23.0507   35.6142 H   0  0  0  0  0  0  0  0  0  0  0  0
   42.1290   26.0600   34.5916 H   0  0  0  0  0  0  0  0  0  0  0  0
   44.4744   26.5933   35.1554 H   0  0  0  0  0  0  0  0  0  0  0  0
   45.7543   24.8555   36.4676 H   0  0  0  0  0  0  0  0  0  0  0  0
   44.6594   22.7311   37.1242 H   0  0  0  0  0  0  0  0  0  0  0  0
   43.0347   21.2046   35.9291 H   0  0  0  0  0  0  0  0  0  0  0  0
   41.8686   19.4342   38.8467 H   0  0  0  0  0  0  0  0  0  0  0  0
   43.2880   19.5940   37.7778 H   0  0  0  0  0  0  0  0  0  0  0  0
   36.8861   21.7496   36.7719 H   0  0  0  0  0  0  0  0  0  0  0  0
   37.0456   22.5971   39.1084 H   0  0  0  0  0  0  0  0  0  0  0  0
   38.0762   24.8931   39.4670 H   0  0  0  0  0  0  0  0  0  0  0  0
   39.2792   26.8702   36.4358 H   0  0  0  0  0  0  0  0  0  0  0  0
   40.2595   26.9728   34.9341 H   0  0  0  0  0  0  0  0  0  0  0  0
   38.5544   27.5380   34.9341 H   0  0  0  0  0  0  0  0  0  0  0  0
   36.7321   25.6626   34.4191 H   0  0  0  0  0  0  0  0  0  0  0  0
   37.9074   26.4069   33.2828 H   0  0  0  0  0  0  0  0  0  0  0  0
   37.6616   24.6275   33.2828 H   0  0  0  0  0  0  0  0  0  0  0  0
  1 14  1  0
  1  2  1  0
  2  3  1  0
  3  8  2  0
  4  5  2  0
  4  3  1  0
  5  6  1  0
  6  7  2  0
  8  7  1  0
  8  9  1  0
  9 10  1  0
 10 11  2  0
 10 12  1  0
 11 13  1  0
 14 21  1  0
 14 19  1  0
 15 16  2  0
 16 17  1  0
 18 17  2  0
 19 18  1  0
 20 19  2  0
 20 15  1  0
 22 14  1  0
  1 23  1  0
  1 24  1  0
  2 25  1  0
  4 26  1  0
  5 27  1  0
  6 28  1  0
  7 29  1  0
  9 30  1  0
 12 31  1  0
 12 32  1  0
 15 33  1  0
 16 34  1  0
 17 35  1  0
 21 36  1  0
 21 37  1  0
 21 38  1  0
 22 39  1  0
 22 40  1  0
 22 41  1  0
M  ISO  8  23   8  24   8  26  14  27  14  28  14  29  14  33  14  34  14
M  ISO  7  35  14  36   8  37   8  38   8  39   8  40   8  41   8
M  END
>  <minimizedAffinity>  (1) 
-5.20479059

>  <minimizedRMSD>  (1) 
1.31323099

$$$$
