
     RDKit          3D

 50 53  0  0  0  0  0  0  0  0999 V2000
   39.0610   26.9170   35.0510 N   0  0  0  0  0  0  0  0  0  0  0  0
   38.9420   25.6540   35.7080 C   0  0  0  0  0  0  0  0  0  0  0  0
   38.0640   25.4210   36.7620 C   0  0  0  0  0  0  0  0  0  0  0  0
   37.9440   24.2140   37.4430 C   0  0  0  0  0  0  0  0  0  0  0  0
   38.7910   23.2150   36.9790 C   0  0  0  0  0  0  0  0  0  0  0  0
   39.6830   23.4420   35.9140 C   0  0  0  0  0  0  0  0  0  0  0  0
   39.7810   24.6800   35.2490 C   0  0  0  0  0  0  0  0  0  0  0  0
   40.7770   24.1830   34.3650 C   0  0  0  0  0  0  0  0  0  0  0  0
   40.1610   23.3000   33.4660 C   0  0  0  0  0  0  0  0  0  0  0  0
   40.8690   22.6520   32.4450 C   0  0  0  0  0  0  0  0  0  0  0  0
   42.2140   22.9400   32.3840 C   0  0  0  0  0  0  0  0  0  0  0  0
   42.8390   23.8000   33.2550 C   0  0  0  0  0  0  0  0  0  0  0  0
   44.1800   24.1390   33.2370 C   0  0  0  0  0  0  0  0  0  0  0  0
   44.7280   25.0310   34.1480 C   0  0  0  0  0  0  0  0  0  0  0  0
   43.9460   25.6240   35.1250 C   0  0  0  0  0  0  0  0  0  0  0  0
   42.5870   25.3280   35.2030 C   0  0  0  0  0  0  0  0  0  0  0  0
   42.1260   24.4290   34.2530 C   0  0  0  0  0  0  0  0  0  0  0  0
   38.9960   26.9410   33.5930 C   0  0  0  0  0  0  0  0  0  0  0  0
   37.5830   27.1340   33.1010 C   0  0  0  0  0  0  0  0  0  0  0  0
   36.3870   29.4130   30.5280 C   0  0  0  0  0  0  0  0  0  0  0  0
   37.3600   29.3760   29.5500 C   0  0  0  0  0  0  0  0  0  0  0  0
   38.4620   28.5530   29.7650 C   0  0  0  0  0  0  0  0  0  0  0  0
   38.5010   27.8460   30.9170 N   0  0  0  0  0  0  0  0  0  0  0  0
   37.5230   27.9100   31.8570 C   0  0  0  0  0  0  0  0  0  0  0  0
   36.4840   28.7000   31.6340 N   0  0  0  0  0  0  0  0  0  0  0  0
   36.9970   25.7390   32.8980 C   0  0  0  0  0  0  0  0  0  0  0  0
   36.7820   27.8030   34.1900 C   0  0  0  0  0  0  0  0  0  0  0  0
   39.1889   27.7851   35.5903 H   0  0  0  0  0  0  0  0  0  0  0  0
   37.4174   26.2521   37.0800 H   0  0  0  0  0  0  0  0  0  0  0  0
   37.2407   24.0637   38.2753 H   0  0  0  0  0  0  0  0  0  0  0  0
   38.7638   22.2237   37.4550 H   0  0  0  0  0  0  0  0  0  0  0  0
   40.3320   22.6164   35.5866 H   0  0  0  0  0  0  0  0  0  0  0  0
   39.0823   23.1091   33.5661 H   0  0  0  0  0  0  0  0  0  0  0  0
   40.3835   21.9606   31.7405 H   0  0  0  0  0  0  0  0  0  0  0  0
   42.8174   22.4586   31.6004 H   0  0  0  0  0  0  0  0  0  0  0  0
   44.8331   23.6869   32.4760 H   0  0  0  0  0  0  0  0  0  0  0  0
   45.8002   25.2707   34.0932 H   0  0  0  0  0  0  0  0  0  0  0  0
   44.3977   26.3284   35.8390 H   0  0  0  0  0  0  0  0  0  0  0  0
   41.9281   25.7745   35.9622 H   0  0  0  0  0  0  0  0  0  0  0  0
   39.6189   27.7682   33.2219 H   0  0  0  0  0  0  0  0  0  0  0  0
   39.3610   25.9737   33.2173 H   0  0  0  0  0  0  0  0  0  0  0  0
   35.5058   30.0549   30.3814 H   0  0  0  0  0  0  0  0  0  0  0  0
   37.2680   29.9759   28.6326 H   0  0  0  0  0  0  0  0  0  0  0  0
   39.2720   28.4804   29.0243 H   0  0  0  0  0  0  0  0  0  0  0  0
   36.8028   25.2768   33.8771 H   0  0  0  0  0  0  0  0  0  0  0  0
   36.0549   25.8154   32.3353 H   0  0  0  0  0  0  0  0  0  0  0  0
   37.7110   25.1197   32.3353 H   0  0  0  0  0  0  0  0  0  0  0  0
   37.1620   27.4856   35.1723 H   0  0  0  0  0  0  0  0  0  0  0  0
   36.8757   28.8950   34.0959 H   0  0  0  0  0  0  0  0  0  0  0  0
   35.7242   27.5163   34.0959 H   0  0  0  0  0  0  0  0  0  0  0  0
  1  2  1  0
  2  3  2  0
  3  4  1  0
  5  4  2  0
  6  5  1  0
  7  2  1  0
  7  6  2  0
  8  7  1  0
  9  8  2  0
 10  9  1  0
 11 10  2  0
 11 12  1  0
 12 17  2  0
 13 12  1  0
 13 14  2  0
 14 15  1  0
 15 16  2  0
 17  8  1  0
 17 16  1  0
 18  1  1  0
 19 18  1  0
 19 27  1  0
 20 25  2  0
 21 22  2  0
 21 20  1  0
 22 23  1  0
 23 24  2  0
 24 19  1  0
 25 24  1  0
 26 19  1  0
  1 28  1  0
  3 29  1  0
  4 30  1  0
  5 31  1  0
  6 32  1  0
  9 33  1  0
 10 34  1  0
 11 35  1  0
 13 36  1  0
 14 37  1  0
 15 38  1  0
 16 39  1  0
 18 40  1  0
 18 41  1  0
 20 42  1  0
 21 43  1  0
 22 44  1  0
 26 45  1  0
 26 46  1  0
 26 47  1  0
 27 48  1  0
 27 49  1  0
 27 50  1  0
M  ISO  8  29  14  30  14  31  14  32  14  33  14  34  14  35  14  36  14
M  ISO  8  37  14  38  14  39  14  40   8  41   8  42  14  43  14  44  14
M  ISO  6  45   8  46   8  47   8  48   8  49   8  50   8
M  END
>  <minimizedAffinity>  (1) 
-4.96231461

>  <minimizedRMSD>  (1) 
5.70767879

$$$$
