
     RDKit          3D

 37 38  0  0  0  0  0  0  0  0999 V2000
   39.8800   25.7020   34.7020 C   0  0  0  0  0  0  0  0  0  0  0  0
   40.4170   24.4020   35.0770 N   0  0  0  0  0  0  0  0  0  0  0  0
   41.7960   24.2780   35.3670 C   0  0  0  0  0  0  0  0  0  0  0  0
   42.8100   25.0730   34.7790 C   0  0  0  0  0  0  0  0  0  0  0  0
   44.1670   25.0510   35.0720 C   0  0  0  0  0  0  0  0  0  0  0  0
   44.4670   24.1200   36.0660 C   0  0  0  0  0  0  0  0  0  0  0  0
   43.5170   23.2940   36.6910 C   0  0  0  0  0  0  0  0  0  0  0  0
   42.1540   23.3680   36.3310 C   0  0  0  0  0  0  0  0  0  0  0  0
   41.4990   22.1300   36.8320 C   0  0  0  0  0  0  0  0  0  0  0  0
   40.3920   21.7350   36.1630 F   0  0  0  0  0  0  0  0  0  0  0  0
   42.2030   21.3020   37.6060 F   0  0  0  0  0  0  0  0  0  0  0  0
   40.6980   22.6810   38.0300 F   0  0  0  0  0  0  0  0  0  0  0  0
   38.5010   25.9320   35.2740 C   0  0  0  0  0  0  0  0  0  0  0  0
   37.4030   22.8670   36.9000 C   0  0  0  0  0  0  0  0  0  0  0  0
   37.5010   23.1260   38.2390 C   0  0  0  0  0  0  0  0  0  0  0  0
   37.9490   24.3870   38.6240 C   0  0  0  0  0  0  0  0  0  0  0  0
   38.2560   25.2600   37.6380 N   0  0  0  0  0  0  0  0  0  0  0  0
   38.1570   24.9890   36.3170 C   0  0  0  0  0  0  0  0  0  0  0  0
   37.7300   23.7920   36.0320 N   0  0  0  0  0  0  0  0  0  0  0  0
   38.5150   27.3670   35.8360 C   0  0  0  0  0  0  0  0  0  0  0  0
   37.5050   25.8870   34.1550 C   0  0  0  0  0  0  0  0  0  0  0  0
   40.5548   26.4861   35.0760 H   0  0  0  0  0  0  0  0  0  0  0  0
   39.8020   25.7334   33.6052 H   0  0  0  0  0  0  0  0  0  0  0  0
   39.7986   23.5800   35.1307 H   0  0  0  0  0  0  0  0  0  0  0  0
   42.4872   25.7857   34.0058 H   0  0  0  0  0  0  0  0  0  0  0  0
   44.9147   25.6903   34.5798 H   0  0  0  0  0  0  0  0  0  0  0  0
   45.5165   24.0259   36.3818 H   0  0  0  0  0  0  0  0  0  0  0  0
   43.8383   22.5839   37.4672 H   0  0  0  0  0  0  0  0  0  0  0  0
   37.0505   21.8846   36.5526 H   0  0  0  0  0  0  0  0  0  0  0  0
   37.2350   22.3642   38.9866 H   0  0  0  0  0  0  0  0  0  0  0  0
   38.0489   24.6612   39.6846 H   0  0  0  0  0  0  0  0  0  0  0  0
   38.5146   27.3302   36.9354 H   0  0  0  0  0  0  0  0  0  0  0  0
   39.4183   27.8887   35.4869 H   0  0  0  0  0  0  0  0  0  0  0  0
   37.6221   27.9062   35.4869 H   0  0  0  0  0  0  0  0  0  0  0  0
   36.4878   25.8410   34.5712 H   0  0  0  0  0  0  0  0  0  0  0  0
   37.6076   26.7907   33.5363 H   0  0  0  0  0  0  0  0  0  0  0  0
   37.6886   24.9962   33.5363 H   0  0  0  0  0  0  0  0  0  0  0  0
  1  2  1  0
  1 13  1  0
  2  3  1  0
  3  8  2  0
  4  5  2  0
  4  3  1  0
  5  6  1  0
  6  7  2  0
  8  7  1  0
  8  9  1  0
  9 11  1  0
  9 12  1  0
 10  9  1  0
 13 20  1  0
 13 18  1  0
 14 15  2  0
 15 16  1  0
 17 16  2  0
 18 17  1  0
 19 18  2  0
 19 14  1  0
 21 13  1  0
  1 22  1  0
  1 23  1  0
  2 24  1  0
  4 25  1  0
  5 26  1  0
  6 27  1  0
  7 28  1  0
 14 29  1  0
 15 30  1  0
 16 31  1  0
 20 32  1  0
 20 33  1  0
 20 34  1  0
 21 35  1  0
 21 36  1  0
 21 37  1  0
M  ISO  8  22   8  23   8  25  14  26  14  27  14  28  14  29  14  30  14
M  ISO  7  31  14  32   8  33   8  34   8  35   8  36   8  37   8
M  END
>  <minimizedAffinity>  (1) 
-4.92664242

>  <minimizedRMSD>  (1) 
1.00157559

$$$$
