
     RDKit          3D

 43 44  0  0  0  0  0  0  0  0999 V2000
   38.6500   26.1040   35.1020 C   0  0  0  0  0  0  0  0  0  0  0  0
   37.7570   22.8530   36.4520 C   0  0  0  0  0  0  0  0  0  0  0  0
   37.6740   23.0450   37.8050 C   0  0  0  0  0  0  0  0  0  0  0  0
   37.9210   24.3240   38.2970 C   0  0  0  0  0  0  0  0  0  0  0  0
   38.2310   25.2780   37.3880 N   0  0  0  0  0  0  0  0  0  0  0  0
   38.3110   25.0600   36.0510 C   0  0  0  0  0  0  0  0  0  0  0  0
   38.0650   23.8390   35.6340 N   0  0  0  0  0  0  0  0  0  0  0  0
   38.2490   27.4850   35.6490 C   0  0  0  0  0  0  0  0  0  0  0  0
   37.9430   25.9060   33.8000 C   0  0  0  0  0  0  0  0  0  0  0  0
   40.1400   26.1930   34.8290 C   0  0  0  0  0  0  0  0  0  0  0  0
   40.7370   24.8800   34.6710 N   0  0  0  0  0  0  0  0  0  0  0  0
   41.9900   24.6140   35.2760 C   0  0  0  0  0  0  0  0  0  0  0  0
   43.0910   25.4920   35.2250 C   0  0  0  0  0  0  0  0  0  0  0  0
   44.3250   25.2870   35.8240 C   0  0  0  0  0  0  0  0  0  0  0  0
   44.4060   24.0860   36.5230 C   0  0  0  0  0  0  0  0  0  0  0  0
   43.3320   23.1810   36.5970 C   0  0  0  0  0  0  0  0  0  0  0  0
   42.1030   23.4280   35.9670 C   0  0  0  0  0  0  0  0  0  0  0  0
   41.4040   22.1360   36.0970 C   0  0  0  0  0  0  0  0  0  0  0  0
   42.4260   20.9950   35.6480 C   0  0  0  0  0  0  0  0  0  0  0  0
   41.1450   21.7660   37.5080 C   0  0  0  0  0  0  0  0  0  0  0  0
   37.5621   21.8526   36.0383 H   0  0  0  0  0  0  0  0  0  0  0  0
   37.4204   22.2156   38.4816 H   0  0  0  0  0  0  0  0  0  0  0  0
   37.8668   24.5484   39.3725 H   0  0  0  0  0  0  0  0  0  0  0  0
   38.2563   27.4600   36.7487 H   0  0  0  0  0  0  0  0  0  0  0  0
   38.9645   28.2416   35.2947 H   0  0  0  0  0  0  0  0  0  0  0  0
   37.2395   27.7407   35.2947 H   0  0  0  0  0  0  0  0  0  0  0  0
   36.8997   25.6138   33.9900 H   0  0  0  0  0  0  0  0  0  0  0  0
   37.9623   26.8441   33.2259 H   0  0  0  0  0  0  0  0  0  0  0  0
   38.4467   25.1144   33.2259 H   0  0  0  0  0  0  0  0  0  0  0  0
   40.2993   26.7702   33.9063 H   0  0  0  0  0  0  0  0  0  0  0  0
   40.6171   26.6848   35.6895 H   0  0  0  0  0  0  0  0  0  0  0  0
   40.2558   24.1505   34.1258 H   0  0  0  0  0  0  0  0  0  0  0  0
   42.9597   26.4255   34.6582 H   0  0  0  0  0  0  0  0  0  0  0  0
   45.1574   26.0027   35.7537 H   0  0  0  0  0  0  0  0  0  0  0  0
   45.3456   23.8352   37.0370 H   0  0  0  0  0  0  0  0  0  0  0  0
   43.4597   22.2492   37.1674 H   0  0  0  0  0  0  0  0  0  0  0  0
   40.4723   22.2237   35.5188 H   0  0  0  0  0  0  0  0  0  0  0  0
   42.8554   20.5156   36.5401 H   0  0  0  0  0  0  0  0  0  0  0  0
   41.8944   20.2423   35.0473 H   0  0  0  0  0  0  0  0  0  0  0  0
   43.2325   21.4408   35.0473 H   0  0  0  0  0  0  0  0  0  0  0  0
   41.6473   22.4836   38.1734 H   0  0  0  0  0  0  0  0  0  0  0  0
   40.0619   21.7849   37.6991 H   0  0  0  0  0  0  0  0  0  0  0  0
   41.5335   20.7548   37.6991 H   0  0  0  0  0  0  0  0  0  0  0  0
  1  8  1  0
  1  6  1  0
  2  3  2  0
  3  4  1  0
  5  4  2  0
  6  5  1  0
  7  6  2  0
  7  2  1  0
  9  1  1  0
 10  1  1  0
 11 10  1  0
 11 12  1  0
 12 17  1  0
 13 12  2  0
 13 14  1  0
 14 15  2  0
 15 16  1  0
 17 18  1  0
 17 16  2  0
 18 20  1  0
 19 18  1  0
  2 21  1  0
  3 22  1  0
  4 23  1  0
  8 24  1  0
  8 25  1  0
  8 26  1  0
  9 27  1  0
  9 28  1  0
  9 29  1  0
 10 30  1  0
 10 31  1  0
 11 32  1  0
 13 33  1  0
 14 34  1  0
 15 35  1  0
 16 36  1  0
 18 37  1  0
 19 38  1  0
 19 39  1  0
 19 40  1  0
 20 41  1  0
 20 42  1  0
 20 43  1  0
M  ISO  8  21  14  22  14  23  14  24   8  25   8  26   8  27   8  28   8
M  ISO  8  29   8  30   8  31   8  33  14  34  14  35  14  36  14  37   8
M  ISO  6  38   8  39   8  40   8  41   8  42   8  43   8
M  END
>  <minimizedAffinity>  (1) 
-4.82663012

>  <minimizedRMSD>  (1) 
0.45847863

$$$$
