
     RDKit          3D

 40 42  0  0  0  0  0  0  0  0999 V2000
   40.3190   26.6190   35.0110 C   0  0  0  0  0  0  0  0  0  0  0  0
   41.0650   25.4400   34.6270 N   0  0  0  0  0  0  0  0  0  0  0  0
   42.4440   25.3240   34.9330 C   0  0  0  0  0  0  0  0  0  0  0  0
   43.4180   26.1520   34.3670 C   0  0  0  0  0  0  0  0  0  0  0  0
   44.7770   26.1410   34.6530 C   0  0  0  0  0  0  0  0  0  0  0  0
   45.1510   25.2000   35.6050 C   0  0  0  0  0  0  0  0  0  0  0  0
   44.1890   24.3520   36.1920 C   0  0  0  0  0  0  0  0  0  0  0  0
   42.8130   24.3960   35.8600 C   0  0  0  0  0  0  0  0  0  0  0  0
   42.2620   23.2080   36.3670 N   0  0  0  0  0  0  0  0  0  0  0  0
   43.0210   22.0820   36.5570 C   0  0  0  0  0  0  0  0  0  0  0  0
   42.3770   21.1020   37.2040 N   0  0  0  0  0  0  0  0  0  0  0  0
   41.1490   21.6110   37.4470 C   0  0  0  0  0  0  0  0  0  0  0  0
   41.1560   22.8310   36.9340 N   0  0  0  0  0  0  0  0  0  0  0  0
   38.8290   26.4110   34.9270 C   0  0  0  0  0  0  0  0  0  0  0  0
   37.9930   22.8660   35.1710 C   0  0  0  0  0  0  0  0  0  0  0  0
   37.6370   22.6840   36.4830 C   0  0  0  0  0  0  0  0  0  0  0  0
   37.6710   23.7980   37.3240 C   0  0  0  0  0  0  0  0  0  0  0  0
   38.0570   24.9780   36.7810 N   0  0  0  0  0  0  0  0  0  0  0  0
   38.4070   25.1340   35.4850 C   0  0  0  0  0  0  0  0  0  0  0  0
   38.3550   24.0560   34.7390 N   0  0  0  0  0  0  0  0  0  0  0  0
   38.1970   27.5730   35.7060 C   0  0  0  0  0  0  0  0  0  0  0  0
   38.3950   26.5350   33.4980 C   0  0  0  0  0  0  0  0  0  0  0  0
   40.5810   26.8805   36.0469 H   0  0  0  0  0  0  0  0  0  0  0  0
   40.5842   27.4253   34.3113 H   0  0  0  0  0  0  0  0  0  0  0  0
   40.5886   24.6767   34.1258 H   0  0  0  0  0  0  0  0  0  0  0  0
   43.0741   26.8843   33.6217 H   0  0  0  0  0  0  0  0  0  0  0  0
   45.4952   26.8184   34.1680 H   0  0  0  0  0  0  0  0  0  0  0  0
   46.2065   25.1159   35.9032 H   0  0  0  0  0  0  0  0  0  0  0  0
   44.5234   23.6216   36.9435 H   0  0  0  0  0  0  0  0  0  0  0  0
   44.0611   21.9920   36.2106 H   0  0  0  0  0  0  0  0  0  0  0  0
   40.3154   21.1138   37.9645 H   0  0  0  0  0  0  0  0  0  0  0  0
   37.9760   22.0135   34.4761 H   0  0  0  0  0  0  0  0  0  0  0  0
   37.3354   21.6954   36.8593 H   0  0  0  0  0  0  0  0  0  0  0  0
   37.3952   23.7208   38.3861 H   0  0  0  0  0  0  0  0  0  0  0  0
   38.2975   27.3882   36.7857 H   0  0  0  0  0  0  0  0  0  0  0  0
   38.7093   28.5108   35.4453 H   0  0  0  0  0  0  0  0  0  0  0  0
   37.1313   27.6526   35.4453 H   0  0  0  0  0  0  0  0  0  0  0  0
   37.3379   26.8370   33.4607 H   0  0  0  0  0  0  0  0  0  0  0  0
   39.0110   27.2931   32.9922 H   0  0  0  0  0  0  0  0  0  0  0  0
   38.5175   25.5659   32.9922 H   0  0  0  0  0  0  0  0  0  0  0  0
  2  3  1  0
  2  1  1  0
  3  8  2  0
  4  5  2  0
  4  3  1  0
  5  6  1  0
  6  7  2  0
  8  7  1  0
  8  9  1  0
  9 10  1  0
  9 13  1  0
 10 11  2  0
 11 12  1  0
 13 12  2  0
 14  1  1  0
 14 19  1  0
 14 21  1  0
 15 16  2  0
 16 17  1  0
 18 17  2  0
 19 18  1  0
 20 15  1  0
 20 19  2  0
 22 14  1  0
  1 23  1  0
  1 24  1  0
  2 25  1  0
  4 26  1  0
  5 27  1  0
  6 28  1  0
  7 29  1  0
 10 30  1  0
 12 31  1  0
 15 32  1  0
 16 33  1  0
 17 34  1  0
 21 35  1  0
 21 36  1  0
 21 37  1  0
 22 38  1  0
 22 39  1  0
 22 40  1  0
M  ISO  8  23   8  24   8  26  14  27  14  28  14  29  14  30  14  31  14
M  ISO  8  32  14  33  14  34  14  35   8  36   8  37   8  38   8  39   8
M  ISO  1  40   8
M  END
>  <minimizedAffinity>  (1) 
-4.80979204

>  <minimizedRMSD>  (1) 
1.66098106

$$$$
