
     RDKit          3D

 37 38  0  0  0  0  0  0  0  0999 V2000
   39.8000   25.8460   34.6160 C   0  0  0  0  0  0  0  0  0  0  0  0
   40.3180   24.5070   34.8260 N   0  0  0  0  0  0  0  0  0  0  0  0
   41.5990   24.3180   35.3970 C   0  0  0  0  0  0  0  0  0  0  0  0
   42.7140   25.0950   35.0830 C   0  0  0  0  0  0  0  0  0  0  0  0
   43.9810   24.9860   35.6330 C   0  0  0  0  0  0  0  0  0  0  0  0
   44.1050   23.9900   36.5980 C   0  0  0  0  0  0  0  0  0  0  0  0
   42.9920   23.1820   36.9420 C   0  0  0  0  0  0  0  0  0  0  0  0
   41.7320   23.3400   36.3360 C   0  0  0  0  0  0  0  0  0  0  0  0
   40.9880   22.1660   36.6630 C   0  0  0  0  0  0  0  0  0  0  0  0
   40.5070   21.7390   35.6030 O   0  0  0  0  0  0  0  0  0  0  0  0
   40.7710   21.5380   37.8610 O   0  0  0  0  0  0  0  0  0  0  0  0
   38.4310   26.0200   35.2440 C   0  0  0  0  0  0  0  0  0  0  0  0
   37.4020   22.8700   36.7540 C   0  0  0  0  0  0  0  0  0  0  0  0
   37.5800   23.0540   38.1010 C   0  0  0  0  0  0  0  0  0  0  0  0
   38.0640   24.2920   38.5290 C   0  0  0  0  0  0  0  0  0  0  0  0
   38.3230   25.2220   37.5720 N   0  0  0  0  0  0  0  0  0  0  0  0
   38.1420   25.0210   36.2520 C   0  0  0  0  0  0  0  0  0  0  0  0
   37.6850   23.8440   35.9180 N   0  0  0  0  0  0  0  0  0  0  0  0
   38.4470   27.4270   35.8710 C   0  0  0  0  0  0  0  0  0  0  0  0
   37.3960   26.0060   34.1590 C   0  0  0  0  0  0  0  0  0  0  0  0
   40.4938   26.5717   35.0656 H   0  0  0  0  0  0  0  0  0  0  0  0
   39.7051   26.0121   33.5328 H   0  0  0  0  0  0  0  0  0  0  0  0
   39.7506   23.6901   34.5582 H   0  0  0  0  0  0  0  0  0  0  0  0
   42.5729   25.8747   34.3200 H   0  0  0  0  0  0  0  0  0  0  0  0
   44.8188   25.6323   35.3324 H   0  0  0  0  0  0  0  0  0  0  0  0
   45.0723   23.8291   37.0965 H   0  0  0  0  0  0  0  0  0  0  0  0
   43.1179   22.4042   37.7096 H   0  0  0  0  0  0  0  0  0  0  0  0
   40.2173   20.7181   37.8969 H   0  0  0  0  0  0  0  0  0  0  0  0
   37.0233   21.9097   36.3739 H   0  0  0  0  0  0  0  0  0  0  0  0
   37.3495   22.2539   38.8198 H   0  0  0  0  0  0  0  0  0  0  0  0
   38.2287   24.5056   39.5954 H   0  0  0  0  0  0  0  0  0  0  0  0
   38.4460   27.3398   36.9675 H   0  0  0  0  0  0  0  0  0  0  0  0
   39.3513   27.9627   35.5466 H   0  0  0  0  0  0  0  0  0  0  0  0
   37.5551   27.9832   35.5466 H   0  0  0  0  0  0  0  0  0  0  0  0
   36.3926   25.9924   34.6096 H   0  0  0  0  0  0  0  0  0  0  0  0
   37.5059   26.9057   33.5358 H   0  0  0  0  0  0  0  0  0  0  0  0
   37.5302   25.1096   33.5358 H   0  0  0  0  0  0  0  0  0  0  0  0
  1  2  1  0
  1 12  1  0
  2  3  1  0
  3  8  1  0
  4  3  2  0
  4  5  1  0
  5  6  2  0
  6  7  1  0
  8  9  1  0
  8  7  2  0
  9 11  1  0
 10  9  2  0
 12 19  1  0
 12 17  1  0
 13 14  2  0
 14 15  1  0
 16 15  2  0
 17 16  1  0
 18 17  2  0
 18 13  1  0
 20 12  1  0
  1 21  1  0
  1 22  1  0
  2 23  1  0
  4 24  1  0
  5 25  1  0
  6 26  1  0
  7 27  1  0
 11 28  1  0
 13 29  1  0
 14 30  1  0
 15 31  1  0
 19 32  1  0
 19 33  1  0
 19 34  1  0
 20 35  1  0
 20 36  1  0
 20 37  1  0
M  ISO  8  21   8  22   8  24  14  25  14  26  14  27  14  28   3  29  14
M  ISO  8  30  14  31  14  32   8  33   8  34   8  35   8  36   8  37   8
M  END
>  <minimizedAffinity>  (1) 
-4.80739307

>  <minimizedRMSD>  (1) 
0.699799895

$$$$
