
     RDKit          3D

 49 51  0  0  0  0  0  0  0  0999 V2000
   40.6090   26.2130   34.6820 C   0  0  0  0  0  0  0  0  0  0  0  0
   41.2070   24.8780   34.6990 N   0  0  0  0  0  0  0  0  0  0  0  0
   42.4630   24.7010   35.3160 C   0  0  0  0  0  0  0  0  0  0  0  0
   43.4310   25.7370   35.3680 C   0  0  0  0  0  0  0  0  0  0  0  0
   44.6630   25.6530   35.9820 C   0  0  0  0  0  0  0  0  0  0  0  0
   44.9230   24.4310   36.5870 C   0  0  0  0  0  0  0  0  0  0  0  0
   43.9630   23.3800   36.5420 C   0  0  0  0  0  0  0  0  0  0  0  0
   42.7480   23.5100   35.9060 C   0  0  0  0  0  0  0  0  0  0  0  0
   42.2640   22.2000   35.9170 N   0  0  0  0  0  0  0  0  0  0  0  0
   42.7890   21.2680   34.9240 C   0  0  0  0  0  0  0  0  0  0  0  0
   43.7360   20.3470   35.6890 C   0  0  0  0  0  0  0  0  0  0  0  0
   42.7760   19.5990   36.6430 C   0  0  0  0  0  0  0  0  0  0  0  0
   42.3380   20.6620   37.6730 C   0  0  0  0  0  0  0  0  0  0  0  0
   41.4050   21.6330   36.9300 C   0  0  0  0  0  0  0  0  0  0  0  0
   39.1100   26.1600   34.8160 C   0  0  0  0  0  0  0  0  0  0  0  0
   37.9460   22.7190   34.7020 C   0  0  0  0  0  0  0  0  0  0  0  0
   37.7680   22.3550   36.0110 C   0  0  0  0  0  0  0  0  0  0  0  0
   38.0470   23.3140   36.9830 C   0  0  0  0  0  0  0  0  0  0  0  0
   38.4710   24.5200   36.5510 N   0  0  0  0  0  0  0  0  0  0  0  0
   38.6430   24.8500   35.2390 C   0  0  0  0  0  0  0  0  0  0  0  0
   38.3680   23.9200   34.3450 N   0  0  0  0  0  0  0  0  0  0  0  0
   38.7400   27.2310   35.8490 C   0  0  0  0  0  0  0  0  0  0  0  0
   38.4860   26.5580   33.5050 C   0  0  0  0  0  0  0  0  0  0  0  0
   41.0201   26.7972   35.5184 H   0  0  0  0  0  0  0  0  0  0  0  0
   40.8480   26.6807   33.7155 H   0  0  0  0  0  0  0  0  0  0  0  0
   40.7188   24.0803   34.2674 H   0  0  0  0  0  0  0  0  0  0  0  0
   43.1773   26.6880   34.8768 H   0  0  0  0  0  0  0  0  0  0  0  0
   45.3810   26.4863   35.9915 H   0  0  0  0  0  0  0  0  0  0  0  0
   45.8798   24.2729   37.1062 H   0  0  0  0  0  0  0  0  0  0  0  0
   44.2013   22.4260   37.0350 H   0  0  0  0  0  0  0  0  0  0  0  0
   43.3331   21.8109   34.1371 H   0  0  0  0  0  0  0  0  0  0  0  0
   41.9848   20.7050   34.4277 H   0  0  0  0  0  0  0  0  0  0  0  0
   44.2460   19.6481   35.0097 H   0  0  0  0  0  0  0  0  0  0  0  0
   44.5433   20.8825   36.2100 H   0  0  0  0  0  0  0  0  0  0  0  0
   41.9063   19.2113   36.0923 H   0  0  0  0  0  0  0  0  0  0  0  0
   43.2559   18.7315   37.1195 H   0  0  0  0  0  0  0  0  0  0  0  0
   41.8031   20.1848   38.5073 H   0  0  0  0  0  0  0  0  0  0  0  0
   43.2068   21.1893   38.0938 H   0  0  0  0  0  0  0  0  0  0  0  0
   41.0252   22.4121   37.6073 H   0  0  0  0  0  0  0  0  0  0  0  0
   40.5117   21.1431   36.5154 H   0  0  0  0  0  0  0  0  0  0  0  0
   37.7287   21.9813   33.9155 H   0  0  0  0  0  0  0  0  0  0  0  0
   37.4194   21.3478   36.2833 H   0  0  0  0  0  0  0  0  0  0  0  0
   37.9269   23.0974   38.0548 H   0  0  0  0  0  0  0  0  0  0  0  0
   38.8797   26.8267   36.8624 H   0  0  0  0  0  0  0  0  0  0  0  0
   39.3864   28.1106   35.7128 H   0  0  0  0  0  0  0  0  0  0  0  0
   37.6885   27.5240   35.7128 H   0  0  0  0  0  0  0  0  0  0  0  0
   37.5726   27.1406   33.6956 H   0  0  0  0  0  0  0  0  0  0  0  0
   39.1977   27.1693   32.9308 H   0  0  0  0  0  0  0  0  0  0  0  0
   38.2318   25.6549   32.9308 H   0  0  0  0  0  0  0  0  0  0  0  0
  1  2  1  0
  1 15  1  0
  2  3  1  0
  3  4  2  0
  3  8  1  0
  4  5  1  0
  5  6  2  0
  7  6  1  0
  8  9  1  0
  8  7  2  0
  9 14  1  0
 10 11  1  0
 10  9  1  0
 11 12  1  0
 12 13  1  0
 14 13  1  0
 15 20  1  0
 15 22  1  0
 16 17  2  0
 17 18  1  0
 19 18  2  0
 20 19  1  0
 21 16  1  0
 21 20  2  0
 23 15  1  0
  1 24  1  0
  1 25  1  0
  2 26  1  0
  4 27  1  0
  5 28  1  0
  6 29  1  0
  7 30  1  0
 10 31  1  0
 10 32  1  0
 11 33  1  0
 11 34  1  0
 12 35  1  0
 12 36  1  0
 13 37  1  0
 13 38  1  0
 14 39  1  0
 14 40  1  0
 16 41  1  0
 17 42  1  0
 18 43  1  0
 22 44  1  0
 22 45  1  0
 22 46  1  0
 23 47  1  0
 23 48  1  0
 23 49  1  0
M  ISO  8  24   8  25   8  27  14  28  14  29  14  30  14  31  13  32  13
M  ISO  8  33  13  34  13  35  13  36  13  37  13  38  13  39  13  40  13
M  ISO  8  41  14  42  14  43  14  44   8  45   8  46   8  47   8  48   8
M  ISO  1  49   8
M  END
>  <minimizedAffinity>  (1) 
-4.80090952

>  <minimizedRMSD>  (1) 
1.38785791

$$$$
