
     RDKit          3D

 42 44  0  0  0  0  0  0  0  0999 V2000
   40.4070   26.5680   34.8760 C   0  0  0  0  0  0  0  0  0  0  0  0
   41.0840   25.4230   34.2850 N   0  0  0  0  0  0  0  0  0  0  0  0
   42.0600   24.7210   35.0300 C   0  0  0  0  0  0  0  0  0  0  0  0
   41.7270   23.6790   35.9140 C   0  0  0  0  0  0  0  0  0  0  0  0
   42.6270   22.9040   36.6350 C   0  0  0  0  0  0  0  0  0  0  0  0
   43.9580   23.2340   36.4190 C   0  0  0  0  0  0  0  0  0  0  0  0
   44.3210   24.2730   35.5410 C   0  0  0  0  0  0  0  0  0  0  0  0
   43.3660   25.0420   34.8340 C   0  0  0  0  0  0  0  0  0  0  0  0
   44.0580   26.2140   34.3750 C   0  0  0  0  0  0  0  0  0  0  0  0
   45.2120   26.7330   34.9880 C   0  0  0  0  0  0  0  0  0  0  0  0
   46.0150   27.7530   34.5340 C   0  0  0  0  0  0  0  0  0  0  0  0
   45.6880   28.3460   33.3640 N   0  0  0  0  0  0  0  0  0  0  0  0
   44.5950   27.8800   32.7480 C   0  0  0  0  0  0  0  0  0  0  0  0
   43.8700   26.8960   33.2460 N   0  0  0  0  0  0  0  0  0  0  0  0
   38.9100   26.4140   34.8940 C   0  0  0  0  0  0  0  0  0  0  0  0
   38.0350   22.8730   34.7190 C   0  0  0  0  0  0  0  0  0  0  0  0
   37.7350   22.5270   36.0070 C   0  0  0  0  0  0  0  0  0  0  0  0
   37.8210   23.5210   36.9800 C   0  0  0  0  0  0  0  0  0  0  0  0
   38.2000   24.7580   36.5780 N   0  0  0  0  0  0  0  0  0  0  0  0
   38.4960   25.0760   35.2960 C   0  0  0  0  0  0  0  0  0  0  0  0
   38.3960   24.1060   34.4210 N   0  0  0  0  0  0  0  0  0  0  0  0
   38.3760   27.4620   35.8630 C   0  0  0  0  0  0  0  0  0  0  0  0
   38.3700   26.7420   33.5280 C   0  0  0  0  0  0  0  0  0  0  0  0
   40.6611   27.4659   34.2935 H   0  0  0  0  0  0  0  0  0  0  0  0
   40.7444   26.6502   35.9197 H   0  0  0  0  0  0  0  0  0  0  0  0
   40.8529   25.1247   33.3266 H   0  0  0  0  0  0  0  0  0  0  0  0
   40.6577   23.4577   36.0465 H   0  0  0  0  0  0  0  0  0  0  0  0
   42.3126   22.1000   37.3167 H   0  0  0  0  0  0  0  0  0  0  0  0
   44.7447   22.6726   36.9443 H   0  0  0  0  0  0  0  0  0  0  0  0
   45.3888   24.4959   35.3989 H   0  0  0  0  0  0  0  0  0  0  0  0
   45.5067   26.2695   35.9411 H   0  0  0  0  0  0  0  0  0  0  0  0
   46.8971   28.0767   35.1059 H   0  0  0  0  0  0  0  0  0  0  0  0
   44.2902   28.3330   31.7931 H   0  0  0  0  0  0  0  0  0  0  0  0
   37.9747   22.1157   33.9234 H   0  0  0  0  0  0  0  0  0  0  0  0
   37.4363   21.5005   36.2662 H   0  0  0  0  0  0  0  0  0  0  0  0
   37.5899   23.3092   38.0344 H   0  0  0  0  0  0  0  0  0  0  0  0
   38.5469   27.1266   36.8966 H   0  0  0  0  0  0  0  0  0  0  0  0
   38.8981   28.4157   35.6959 H   0  0  0  0  0  0  0  0  0  0  0  0
   37.2976   27.6002   35.6959 H   0  0  0  0  0  0  0  0  0  0  0  0
   37.4339   27.3106   33.6306 H   0  0  0  0  0  0  0  0  0  0  0  0
   39.1070   27.3452   32.9775 H   0  0  0  0  0  0  0  0  0  0  0  0
   38.1744   25.8099   32.9775 H   0  0  0  0  0  0  0  0  0  0  0  0
  1 15  1  0
  2  1  1  0
  2  3  1  0
  3  4  2  0
  4  5  1  0
  6  5  2  0
  7  6  1  0
  8  3  1  0
  8  7  2  0
  9  8  1  0
  9 10  2  0
 11 10  1  0
 12 11  2  0
 13 14  2  0
 13 12  1  0
 14  9  1  0
 15 20  1  0
 15 22  1  0
 16 17  2  0
 17 18  1  0
 19 18  2  0
 20 19  1  0
 21 16  1  0
 21 20  2  0
 23 15  1  0
  1 24  1  0
  1 25  1  0
  2 26  1  0
  4 27  1  0
  5 28  1  0
  6 29  1  0
  7 30  1  0
 10 31  1  0
 11 32  1  0
 13 33  1  0
 16 34  1  0
 17 35  1  0
 18 36  1  0
 22 37  1  0
 22 38  1  0
 22 39  1  0
 23 40  1  0
 23 41  1  0
 23 42  1  0
M  ISO  8  24   8  25   8  27  14  28  14  29  14  30  14  31  14  32  14
M  ISO  8  33  14  34  14  35  14  36  14  37   8  38   8  39   8  40   8
M  ISO  2  41   8  42   8
M  END
>  <minimizedAffinity>  (1) 
-4.72870159

>  <minimizedRMSD>  (1) 
4.44694519

$$$$
