
     RDKit          3D

 43 45  0  0  0  0  0  0  0  0999 V2000
   40.3820   26.5940   34.9170 C   0  0  0  0  0  0  0  0  0  0  0  0
   41.0800   25.4680   34.3130 N   0  0  0  0  0  0  0  0  0  0  0  0
   42.0430   24.7430   35.0490 C   0  0  0  0  0  0  0  0  0  0  0  0
   41.6960   23.6990   35.9160 C   0  0  0  0  0  0  0  0  0  0  0  0
   42.5610   22.8850   36.6350 C   0  0  0  0  0  0  0  0  0  0  0  0
   43.9020   23.1860   36.4240 C   0  0  0  0  0  0  0  0  0  0  0  0
   44.2850   24.2330   35.5580 C   0  0  0  0  0  0  0  0  0  0  0  0
   43.3560   25.0360   34.8600 C   0  0  0  0  0  0  0  0  0  0  0  0
   44.0790   26.1980   34.4150 C   0  0  0  0  0  0  0  0  0  0  0  0
   45.2400   26.6970   35.0270 C   0  0  0  0  0  0  0  0  0  0  0  0
   46.0650   27.6910   34.6050 C   0  0  0  0  0  0  0  0  0  0  0  0
   45.7580   28.3170   33.4260 C   0  0  0  0  0  0  0  0  0  0  0  0
   44.6290   27.8590   32.7930 C   0  0  0  0  0  0  0  0  0  0  0  0
   43.8950   26.8840   33.2900 N   0  0  0  0  0  0  0  0  0  0  0  0
   38.8850   26.4160   34.8810 C   0  0  0  0  0  0  0  0  0  0  0  0
   38.0170   22.8750   34.7380 C   0  0  0  0  0  0  0  0  0  0  0  0
   37.7280   22.5310   36.0320 C   0  0  0  0  0  0  0  0  0  0  0  0
   37.8200   23.5340   36.9910 C   0  0  0  0  0  0  0  0  0  0  0  0
   38.1910   24.7700   36.5800 N   0  0  0  0  0  0  0  0  0  0  0  0
   38.4750   25.0810   35.2950 C   0  0  0  0  0  0  0  0  0  0  0  0
   38.3730   24.1080   34.4250 N   0  0  0  0  0  0  0  0  0  0  0  0
   38.3220   27.4750   35.8330 C   0  0  0  0  0  0  0  0  0  0  0  0
   38.3700   26.7240   33.5060 C   0  0  0  0  0  0  0  0  0  0  0  0
   40.7031   26.6902   35.9647 H   0  0  0  0  0  0  0  0  0  0  0  0
   40.6307   27.4969   34.3400 H   0  0  0  0  0  0  0  0  0  0  0  0
   40.8699   25.1981   33.3415 H   0  0  0  0  0  0  0  0  0  0  0  0
   40.6209   23.5026   36.0409 H   0  0  0  0  0  0  0  0  0  0  0  0
   42.2195   22.0820   37.3048 H   0  0  0  0  0  0  0  0  0  0  0  0
   44.6764   22.5992   36.9398 H   0  0  0  0  0  0  0  0  0  0  0  0
   45.3579   24.4330   35.4203 H   0  0  0  0  0  0  0  0  0  0  0  0
   45.5198   26.2183   35.9771 H   0  0  0  0  0  0  0  0  0  0  0  0
   46.9494   27.9830   35.1904 H   0  0  0  0  0  0  0  0  0  0  0  0
   46.3735   29.1306   33.0147 H   0  0  0  0  0  0  0  0  0  0  0  0
   44.3277   28.3205   31.8410 H   0  0  0  0  0  0  0  0  0  0  0  0
   37.9516   22.1129   33.9475 H   0  0  0  0  0  0  0  0  0  0  0  0
   37.4356   21.5053   36.3011 H   0  0  0  0  0  0  0  0  0  0  0  0
   37.5986   23.3301   38.0490 H   0  0  0  0  0  0  0  0  0  0  0  0
   38.4899   27.1593   36.8733 H   0  0  0  0  0  0  0  0  0  0  0  0
   38.8289   28.4348   35.6548 H   0  0  0  0  0  0  0  0  0  0  0  0
   37.2428   27.5916   35.6548 H   0  0  0  0  0  0  0  0  0  0  0  0
   37.4284   27.2871   33.5848 H   0  0  0  0  0  0  0  0  0  0  0  0
   39.1130   27.3262   32.9625 H   0  0  0  0  0  0  0  0  0  0  0  0
   38.1910   25.7845   32.9625 H   0  0  0  0  0  0  0  0  0  0  0  0
  2  1  1  0
  2  3  1  0
  3  4  2  0
  4  5  1  0
  6  5  2  0
  7  6  1  0
  8  3  1  0
  8  7  2  0
  9  8  1  0
  9 10  2  0
 11 10  1  0
 12 11  2  0
 13 14  2  0
 13 12  1  0
 14  9  1  0
 15  1  1  0
 15 20  1  0
 15 22  1  0
 16 17  2  0
 17 18  1  0
 19 18  2  0
 20 19  1  0
 21 16  1  0
 21 20  2  0
 23 15  1  0
  1 24  1  0
  1 25  1  0
  2 26  1  0
  4 27  1  0
  5 28  1  0
  6 29  1  0
  7 30  1  0
 10 31  1  0
 11 32  1  0
 12 33  1  0
 13 34  1  0
 16 35  1  0
 17 36  1  0
 18 37  1  0
 22 38  1  0
 22 39  1  0
 22 40  1  0
 23 41  1  0
 23 42  1  0
 23 43  1  0
M  ISO  8  24   8  25   8  27  14  28  14  29  14  30  14  31  14  32  14
M  ISO  8  33  14  34  14  35  14  36  14  37  14  38   8  39   8  40   8
M  ISO  3  41   8  42   8  43   8
M  END
>  <minimizedAffinity>  (1) 
-4.71640444

>  <minimizedRMSD>  (1) 
4.4357605

$$$$
