
     RDKit          3D

 32 33  0  0  0  0  0  0  0  0999 V2000
   36.0780   27.9010   31.6740 N   0  0  0  0  0  0  0  0  0  0  0  0
   35.7060   28.3790   32.8620 C   0  0  0  0  0  0  0  0  0  0  0  0
   35.7470   29.7590   33.1080 C   0  0  0  0  0  0  0  0  0  0  0  0
   36.1790   30.5870   32.0930 C   0  0  0  0  0  0  0  0  0  0  0  0
   36.2540   31.8300   32.2080 O   0  0  0  0  0  0  0  0  0  0  0  0
   36.5490   30.0690   30.8990 N   0  0  0  0  0  0  0  0  0  0  0  0
   36.4950   28.7420   30.7040 C   0  0  0  0  0  0  0  0  0  0  0  0
   36.8360   28.2720   29.6040 O   0  0  0  0  0  0  0  0  0  0  0  0
   37.0360   25.7210   32.0500 C   0  0  0  0  0  0  0  0  0  0  0  0
   35.9940   26.5040   31.5410 C   0  0  0  0  0  0  0  0  0  0  0  0
   34.9340   25.8460   30.9330 C   0  0  0  0  0  0  0  0  0  0  0  0
   34.9490   24.4760   30.8550 N   0  0  0  0  0  0  0  0  0  0  0  0
   35.9690   23.7630   31.3570 C   0  0  0  0  0  0  0  0  0  0  0  0
   37.0100   24.3880   31.9530 N   0  0  0  0  0  0  0  0  0  0  0  0
   35.9580   22.2810   31.2580 C   0  0  0  0  0  0  0  0  0  0  0  0
   35.2340   21.6380   32.4150 C   0  0  0  0  0  0  0  0  0  0  0  0
   37.4180   21.8470   31.2580 C   0  0  0  0  0  0  0  0  0  0  0  0
   35.3450   30.3760   34.4190 C   0  0  0  0  0  0  0  0  0  0  0  0
   35.3667   27.6902   33.6497 H   0  0  0  0  0  0  0  0  0  0  0  0
   36.8707   30.6902   30.1430 H   0  0  0  0  0  0  0  0  0  0  0  0
   37.8913   26.2108   32.5384 H   0  0  0  0  0  0  0  0  0  0  0  0
   34.0904   26.4169   30.5178 H   0  0  0  0  0  0  0  0  0  0  0  0
   35.4268   21.9678   30.3471 H   0  0  0  0  0  0  0  0  0  0  0  0
   35.6527   22.0099   33.3618 H   0  0  0  0  0  0  0  0  0  0  0  0
   34.1643   21.8892   32.3634 H   0  0  0  0  0  0  0  0  0  0  0  0
   35.3571   20.5461   32.3634 H   0  0  0  0  0  0  0  0  0  0  0  0
   37.7695   21.7425   32.2951 H   0  0  0  0  0  0  0  0  0  0  0  0
   37.5136   20.8816   30.7395 H   0  0  0  0  0  0  0  0  0  0  0  0
   38.0254   22.6034   30.7395 H   0  0  0  0  0  0  0  0  0  0  0  0
   35.7406   29.7689   35.2466 H   0  0  0  0  0  0  0  0  0  0  0  0
   35.7527   31.3955   34.4847 H   0  0  0  0  0  0  0  0  0  0  0  0
   34.2477   30.4150   34.4847 H   0  0  0  0  0  0  0  0  0  0  0  0
  1  2  1  0
  2  3  2  0
  3 18  1  0
  4  5  2  0
  4  3  1  0
  6  4  1  0
  7  6  1  0
  7  1  1  0
  8  7  2  0
 10  1  1  0
 10  9  2  0
 11 10  1  0
 12 11  2  0
 12 13  1  0
 13 14  2  0
 14  9  1  0
 15 17  1  0
 15 13  1  0
 15 16  1  0
  2 19  1  0
  6 20  1  0
  9 21  1  0
 11 22  1  0
 15 23  1  0
 16 24  1  0
 16 25  1  0
 16 26  1  0
 17 27  1  0
 17 28  1  0
 17 29  1  0
 18 30  1  0
 18 31  1  0
 18 32  1  0
M  ISO  8  19  14  20   9  21  14  22  14  23   8  24   8  25   8  26   8
M  ISO  6  27   8  28   8  29   8  30   8  31   8  32   8
M  END
>  <minimizedAffinity>  (1) 
-4.46365213

>  <minimizedRMSD>  (1) 
7.02643394

$$$$
