
     RDKit          3D

 40 41  0  0  0  0  0  0  0  0999 V2000
   38.6390   26.1270   35.1300 C   0  0  0  0  0  0  0  0  0  0  0  0
   37.7050   22.8760   36.4650 C   0  0  0  0  0  0  0  0  0  0  0  0
   37.6510   23.0510   37.8220 C   0  0  0  0  0  0  0  0  0  0  0  0
   37.9360   24.3240   38.3170 C   0  0  0  0  0  0  0  0  0  0  0  0
   38.2450   25.2840   37.4130 N   0  0  0  0  0  0  0  0  0  0  0  0
   38.2950   25.0860   36.0750 C   0  0  0  0  0  0  0  0  0  0  0  0
   38.0170   23.8740   35.6660 N   0  0  0  0  0  0  0  0  0  0  0  0
   38.1980   27.5060   35.6590 C   0  0  0  0  0  0  0  0  0  0  0  0
   37.9650   25.9000   33.8060 C   0  0  0  0  0  0  0  0  0  0  0  0
   40.1310   26.2420   34.8960 C   0  0  0  0  0  0  0  0  0  0  0  0
   40.7400   24.9500   34.6410 N   0  0  0  0  0  0  0  0  0  0  0  0
   41.9790   24.6260   35.2530 C   0  0  0  0  0  0  0  0  0  0  0  0
   43.1220   25.4450   35.1860 C   0  0  0  0  0  0  0  0  0  0  0  0
   44.3390   25.2000   35.8000 C   0  0  0  0  0  0  0  0  0  0  0  0
   44.3580   24.0220   36.5370 C   0  0  0  0  0  0  0  0  0  0  0  0
   43.2480   23.1650   36.6380 C   0  0  0  0  0  0  0  0  0  0  0  0
   42.0390   23.4660   35.9810 C   0  0  0  0  0  0  0  0  0  0  0  0
   41.2580   22.2100   35.9960 C   0  0  0  0  0  0  0  0  0  0  0  0
   41.1280   21.7280   37.4830 C   0  0  0  0  0  0  0  0  0  0  0  0
   37.4844   21.8871   36.0367 H   0  0  0  0  0  0  0  0  0  0  0  0
   37.3930   22.2205   38.4955 H   0  0  0  0  0  0  0  0  0  0  0  0
   37.9108   24.5388   39.3955 H   0  0  0  0  0  0  0  0  0  0  0  0
   38.2015   27.4950   36.7589 H   0  0  0  0  0  0  0  0  0  0  0  0
   38.8944   28.2771   35.2978 H   0  0  0  0  0  0  0  0  0  0  0  0
   37.1834   27.7300   35.2978 H   0  0  0  0  0  0  0  0  0  0  0  0
   36.9347   25.5530   33.9738 H   0  0  0  0  0  0  0  0  0  0  0  0
   37.9468   26.8416   33.2376 H   0  0  0  0  0  0  0  0  0  0  0  0
   38.5202   25.1393   33.2376 H   0  0  0  0  0  0  0  0  0  0  0  0
   40.3055   26.8949   34.0281 H   0  0  0  0  0  0  0  0  0  0  0  0
   40.5873   26.6604   35.8052 H   0  0  0  0  0  0  0  0  0  0  0  0
   40.2761   24.2721   34.0197 H   0  0  0  0  0  0  0  0  0  0  0  0
   43.0409   26.3660   34.5900 H   0  0  0  0  0  0  0  0  0  0  0  0
   45.2055   25.8719   35.7128 H   0  0  0  0  0  0  0  0  0  0  0  0
   45.2831   23.7477   37.0651 H   0  0  0  0  0  0  0  0  0  0  0  0
   43.3248   22.2466   37.2385 H   0  0  0  0  0  0  0  0  0  0  0  0
   40.2579   22.3889   35.5743 H   0  0  0  0  0  0  0  0  0  0  0  0
   41.7636   21.4423   35.3918 H   0  0  0  0  0  0  0  0  0  0  0  0
   41.3536   22.5646   38.1607 H   0  0  0  0  0  0  0  0  0  0  0  0
   40.1024   21.3746   37.6656 H   0  0  0  0  0  0  0  0  0  0  0  0
   41.8368   20.9068   37.6656 H   0  0  0  0  0  0  0  0  0  0  0  0
  1  8  1  0
  1  6  1  0
  2  3  2  0
  3  4  1  0
  5  4  2  0
  6  5  1  0
  7  6  2  0
  7  2  1  0
  9  1  1  0
 10  1  1  0
 11 10  1  0
 11 12  1  0
 12 17  1  0
 13 12  2  0
 13 14  1  0
 14 15  2  0
 15 16  1  0
 17 18  1  0
 17 16  2  0
 18 19  1  0
  2 20  1  0
  3 21  1  0
  4 22  1  0
  8 23  1  0
  8 24  1  0
  8 25  1  0
  9 26  1  0
  9 27  1  0
  9 28  1  0
 10 29  1  0
 10 30  1  0
 11 31  1  0
 13 32  1  0
 14 33  1  0
 15 34  1  0
 16 35  1  0
 18 36  1  0
 18 37  1  0
 19 38  1  0
 19 39  1  0
 19 40  1  0
M  ISO  8  20  14  21  14  22  14  23   8  24   8  25   8  26   8  27   8
M  ISO  8  28   8  29   8  30   8  32  14  33  14  34  14  35  14  36   8
M  ISO  4  37   8  38   8  39   8  40   8
M  END
>  <minimizedAffinity>  (1) 
-4.68820095

>  <minimizedRMSD>  (1) 
0.503382981

$$$$
