
     RDKit          3D

 41 43  0  0  0  0  0  0  0  0999 V2000
   40.4850   26.5280   35.0110 C   0  0  0  0  0  0  0  0  0  0  0  0
   41.1870   25.4290   34.3780 N   0  0  0  0  0  0  0  0  0  0  0  0
   42.0400   24.5890   35.1340 C   0  0  0  0  0  0  0  0  0  0  0  0
   41.5650   23.4790   35.8440 C   0  0  0  0  0  0  0  0  0  0  0  0
   42.3310   22.5780   36.5690 C   0  0  0  0  0  0  0  0  0  0  0  0
   43.6930   22.8540   36.5470 C   0  0  0  0  0  0  0  0  0  0  0  0
   44.2080   23.9610   35.8450 C   0  0  0  0  0  0  0  0  0  0  0  0
   43.3760   24.8590   35.1250 C   0  0  0  0  0  0  0  0  0  0  0  0
   44.1510   26.0060   34.8760 N   0  0  0  0  0  0  0  0  0  0  0  0
   44.0580   27.0320   34.0750 N   0  0  0  0  0  0  0  0  0  0  0  0
   45.1430   27.7990   34.0180 C   0  0  0  0  0  0  0  0  0  0  0  0
   46.0740   27.2450   34.8640 C   0  0  0  0  0  0  0  0  0  0  0  0
   45.4250   26.1580   35.3610 C   0  0  0  0  0  0  0  0  0  0  0  0
   38.9840   26.3800   34.9110 C   0  0  0  0  0  0  0  0  0  0  0  0
   37.9710   22.8900   34.6890 C   0  0  0  0  0  0  0  0  0  0  0  0
   37.6640   22.5330   35.9770 C   0  0  0  0  0  0  0  0  0  0  0  0
   37.7990   23.5110   36.9600 C   0  0  0  0  0  0  0  0  0  0  0  0
   38.2210   24.7380   36.5770 N   0  0  0  0  0  0  0  0  0  0  0  0
   38.5210   25.0650   35.2990 C   0  0  0  0  0  0  0  0  0  0  0  0
   38.3770   24.1130   34.4110 N   0  0  0  0  0  0  0  0  0  0  0  0
   38.4040   27.4600   35.8350 C   0  0  0  0  0  0  0  0  0  0  0  0
   38.5520   26.7140   33.5150 C   0  0  0  0  0  0  0  0  0  0  0  0
   40.7674   26.5637   36.0735 H   0  0  0  0  0  0  0  0  0  0  0  0
   40.7684   27.4545   34.4901 H   0  0  0  0  0  0  0  0  0  0  0  0
   41.0643   25.2577   33.3698 H   0  0  0  0  0  0  0  0  0  0  0  0
   40.4790   23.3048   35.8248 H   0  0  0  0  0  0  0  0  0  0  0  0
   41.9001   21.7236   37.1115 H   0  0  0  0  0  0  0  0  0  0  0  0
   44.3843   22.1929   37.0901 H   0  0  0  0  0  0  0  0  0  0  0  0
   45.2939   24.1364   35.8547 H   0  0  0  0  0  0  0  0  0  0  0  0
   45.2712   28.7058   33.4087 H   0  0  0  0  0  0  0  0  0  0  0  0
   47.0933   27.5948   35.0848 H   0  0  0  0  0  0  0  0  0  0  0  0
   45.8795   25.4652   36.0846 H   0  0  0  0  0  0  0  0  0  0  0  0
   37.8777   22.1495   33.8809 H   0  0  0  0  0  0  0  0  0  0  0  0
   37.3250   21.5161   36.2239 H   0  0  0  0  0  0  0  0  0  0  0  0
   37.5699   23.2926   38.0135 H   0  0  0  0  0  0  0  0  0  0  0  0
   38.5608   27.1680   36.8839 H   0  0  0  0  0  0  0  0  0  0  0  0
   38.9091   28.4179   35.6416 H   0  0  0  0  0  0  0  0  0  0  0  0
   37.3265   27.5680   35.6416 H   0  0  0  0  0  0  0  0  0  0  0  0
   37.6822   27.3865   33.5513 H   0  0  0  0  0  0  0  0  0  0  0  0
   39.3777   27.2109   32.9846 H   0  0  0  0  0  0  0  0  0  0  0  0
   38.2790   25.7898   32.9846 H   0  0  0  0  0  0  0  0  0  0  0  0
  2  1  1  0
  2  3  1  0
  3  4  2  0
  4  5  1  0
  6  5  2  0
  7  6  1  0
  8  3  1  0
  8  7  2  0
  9  8  1  0
  9 13  1  0
 10  9  1  0
 11 10  2  0
 11 12  1  0
 12 13  2  0
 14  1  1  0
 14 19  1  0
 14 21  1  0
 15 16  2  0
 16 17  1  0
 18 17  2  0
 19 18  1  0
 20 15  1  0
 20 19  2  0
 22 14  1  0
  1 23  1  0
  1 24  1  0
  2 25  1  0
  4 26  1  0
  5 27  1  0
  6 28  1  0
  7 29  1  0
 11 30  1  0
 12 31  1  0
 13 32  1  0
 15 33  1  0
 16 34  1  0
 17 35  1  0
 21 36  1  0
 21 37  1  0
 21 38  1  0
 22 39  1  0
 22 40  1  0
 22 41  1  0
M  ISO  8  23   8  24   8  26  14  27  14  28  14  29  14  30  14  31  14
M  ISO  8  32  14  33  14  34  14  35  14  36   8  37   8  38   8  39   8
M  ISO  2  40   8  41   8
M  END
>  <minimizedAffinity>  (1) 
-4.647645

>  <minimizedRMSD>  (1) 
3.8752327

$$$$
