
     RDKit          3D

 41 43  0  0  0  0  0  0  0  0999 V2000
   40.4940   26.5340   34.8830 C   0  0  0  0  0  0  0  0  0  0  0  0
   41.1470   25.4080   34.2330 N   0  0  0  0  0  0  0  0  0  0  0  0
   42.1460   24.6850   34.9260 C   0  0  0  0  0  0  0  0  0  0  0  0
   41.8780   23.7200   35.9030 C   0  0  0  0  0  0  0  0  0  0  0  0
   42.8150   22.9610   36.5830 C   0  0  0  0  0  0  0  0  0  0  0  0
   44.1370   23.2100   36.2250 C   0  0  0  0  0  0  0  0  0  0  0  0
   44.4420   24.1800   35.2390 C   0  0  0  0  0  0  0  0  0  0  0  0
   43.4450   24.9300   34.5870 C   0  0  0  0  0  0  0  0  0  0  0  0
   44.1750   26.0000   33.9380 C   0  0  0  0  0  0  0  0  0  0  0  0
   44.1460   26.2060   32.6030 C   0  0  0  0  0  0  0  0  0  0  0  0
   44.7230   27.2670   31.9750 C   0  0  0  0  0  0  0  0  0  0  0  0
   45.3970   28.2000   32.8530 C   0  0  0  0  0  0  0  0  0  0  0  0
   45.0980   27.3860   34.5720 S   0  0  0  0  0  0  0  0  0  0  0  0
   38.9870   26.3780   34.8910 C   0  0  0  0  0  0  0  0  0  0  0  0
   38.1040   22.8570   34.6950 C   0  0  0  0  0  0  0  0  0  0  0  0
   37.7590   22.5050   35.9730 C   0  0  0  0  0  0  0  0  0  0  0  0
   37.8220   23.5010   36.9490 C   0  0  0  0  0  0  0  0  0  0  0  0
   38.2170   24.7350   36.5600 N   0  0  0  0  0  0  0  0  0  0  0  0
   38.5560   25.0530   35.2870 C   0  0  0  0  0  0  0  0  0  0  0  0
   38.4820   24.0870   34.3980 N   0  0  0  0  0  0  0  0  0  0  0  0
   38.4720   27.4380   35.8840 C   0  0  0  0  0  0  0  0  0  0  0  0
   38.4640   26.7390   33.5330 C   0  0  0  0  0  0  0  0  0  0  0  0
   40.7542   27.4569   34.3440 H   0  0  0  0  0  0  0  0  0  0  0  0
   40.8404   26.5764   35.9262 H   0  0  0  0  0  0  0  0  0  0  0  0
   40.8835   25.1390   33.2743 H   0  0  0  0  0  0  0  0  0  0  0  0
   40.8212   23.5479   36.1550 H   0  0  0  0  0  0  0  0  0  0  0  0
   42.5367   22.2194   37.3463 H   0  0  0  0  0  0  0  0  0  0  0  0
   44.9497   22.6500   36.7108 H   0  0  0  0  0  0  0  0  0  0  0  0
   45.4953   24.3534   34.9733 H   0  0  0  0  0  0  0  0  0  0  0  0
   43.6205   25.4661   31.9814 H   0  0  0  0  0  0  0  0  0  0  0  0
   44.6804   27.4048   30.8845 H   0  0  0  0  0  0  0  0  0  0  0  0
   45.9358   29.1262   32.6045 H   0  0  0  0  0  0  0  0  0  0  0  0
   38.0654   22.0988   33.8989 H   0  0  0  0  0  0  0  0  0  0  0  0
   37.4453   21.4800   36.2200 H   0  0  0  0  0  0  0  0  0  0  0  0
   37.5600   23.2901   37.9963 H   0  0  0  0  0  0  0  0  0  0  0  0
   38.6415   27.0891   36.9133 H   0  0  0  0  0  0  0  0  0  0  0  0
   39.0113   28.3832   35.7237 H   0  0  0  0  0  0  0  0  0  0  0  0
   37.3956   27.5983   35.7237 H   0  0  0  0  0  0  0  0  0  0  0  0
   37.5630   27.3609   33.6405 H   0  0  0  0  0  0  0  0  0  0  0  0
   39.2328   27.2996   32.9811 H   0  0  0  0  0  0  0  0  0  0  0  0
   38.2124   25.8213   32.9811 H   0  0  0  0  0  0  0  0  0  0  0  0
  1 14  1  0
  2  1  1  0
  2  3  1  0
  3  4  2  0
  4  5  1  0
  6  5  2  0
  7  6  1  0
  8  3  1  0
  8  7  2  0
  9 13  1  0
  9  8  1  0
 10  9  2  0
 11 10  1  0
 11 12  2  0
 12 13  1  0
 14 19  1  0
 14 21  1  0
 15 16  2  0
 16 17  1  0
 18 17  2  0
 19 18  1  0
 20 15  1  0
 20 19  2  0
 22 14  1  0
  1 23  1  0
  1 24  1  0
  2 25  1  0
  4 26  1  0
  5 27  1  0
  6 28  1  0
  7 29  1  0
 10 30  1  0
 11 31  1  0
 12 32  1  0
 15 33  1  0
 16 34  1  0
 17 35  1  0
 21 36  1  0
 21 37  1  0
 21 38  1  0
 22 39  1  0
 22 40  1  0
 22 41  1  0
M  ISO  8  23   8  24   8  26  14  27  14  28  14  29  14  30  14  31  14
M  ISO  8  32  14  33  14  34  14  35  14  36   8  37   8  38   8  39   8
M  ISO  2  40   8  41   8
M  END
>  <minimizedAffinity>  (1) 
-4.39591312

>  <minimizedRMSD>  (1) 
4.12259388

$$$$
