
     RDKit          3D

 47 50  0  0  0  0  0  0  0  0999 V2000
   42.2340   24.4750   35.4200 N   0  0  0  0  0  0  0  0  0  0  0  0
   43.5620   24.3660   35.8970 C   0  0  0  0  0  0  0  0  0  0  0  0
   44.2040   25.4000   36.5970 C   0  0  0  0  0  0  0  0  0  0  0  0
   45.4930   25.3490   37.1090 C   0  0  0  0  0  0  0  0  0  0  0  0
   46.1560   24.1510   36.8840 C   0  0  0  0  0  0  0  0  0  0  0  0
   45.5240   23.1040   36.1840 C   0  0  0  0  0  0  0  0  0  0  0  0
   44.2170   23.1950   35.6720 C   0  0  0  0  0  0  0  0  0  0  0  0
   44.1300   22.0190   34.9160 N   0  0  0  0  0  0  0  0  0  0  0  0
   44.2310   21.7700   33.6000 C   0  0  0  0  0  0  0  0  0  0  0  0
   43.9350   20.4510   33.3830 N   0  0  0  0  0  0  0  0  0  0  0  0
   43.6470   19.8710   34.5720 C   0  0  0  0  0  0  0  0  0  0  0  0
   43.3010   18.5460   34.7200 C   0  0  0  0  0  0  0  0  0  0  0  0
   43.0460   18.1640   36.0070 N   0  0  0  0  0  0  0  0  0  0  0  0
   43.1460   19.0720   36.9970 C   0  0  0  0  0  0  0  0  0  0  0  0
   43.4910   20.3430   36.7450 N   0  0  0  0  0  0  0  0  0  0  0  0
   43.7680   20.8480   35.5310 C   0  0  0  0  0  0  0  0  0  0  0  0
   43.2090   17.6260   33.6420 N   0  0  0  0  0  0  0  0  0  0  0  0
   41.7930   25.7080   34.7880 C   0  0  0  0  0  0  0  0  0  0  0  0
   40.3160   25.6630   34.4520 C   0  0  0  0  0  0  0  0  0  0  0  0
   38.9990   22.2830   34.4820 C   0  0  0  0  0  0  0  0  0  0  0  0
   38.4590   22.1230   35.7320 C   0  0  0  0  0  0  0  0  0  0  0  0
   38.5350   23.2040   36.6150 C   0  0  0  0  0  0  0  0  0  0  0  0
   39.1380   24.3300   36.1670 N   0  0  0  0  0  0  0  0  0  0  0  0
   39.6650   24.4420   34.9200 C   0  0  0  0  0  0  0  0  0  0  0  0
   39.5800   23.4050   34.1020 N   0  0  0  0  0  0  0  0  0  0  0  0
   39.7000   26.8990   35.1320 C   0  0  0  0  0  0  0  0  0  0  0  0
   40.1570   25.8480   32.9720 C   0  0  0  0  0  0  0  0  0  0  0  0
   41.5823   23.6837   35.5202 H   0  0  0  0  0  0  0  0  0  0  0  0
   43.6371   26.3297   36.7529 H   0  0  0  0  0  0  0  0  0  0  0  0
   45.9518   26.1901   37.6494 H   0  0  0  0  0  0  0  0  0  0  0  0
   47.1829   24.0176   37.2550 H   0  0  0  0  0  0  0  0  0  0  0  0
   46.0810   22.1680   36.0301 H   0  0  0  0  0  0  0  0  0  0  0  0
   44.5054   22.5026   32.8267 H   0  0  0  0  0  0  0  0  0  0  0  0
   42.9405   18.7646   38.0330 H   0  0  0  0  0  0  0  0  0  0  0  0
   42.9445   16.6469   33.8217 H   0  0  0  0  0  0  0  0  0  0  0  0
   43.4068   17.9379   32.6805 H   0  0  0  0  0  0  0  0  0  0  0  0
   41.9779   26.5474   35.4745 H   0  0  0  0  0  0  0  0  0  0  0  0
   42.3560   25.8362   33.8517 H   0  0  0  0  0  0  0  0  0  0  0  0
   38.9460   21.4459   33.7704 H   0  0  0  0  0  0  0  0  0  0  0  0
   37.9827   21.1772   36.0296 H   0  0  0  0  0  0  0  0  0  0  0  0
   38.1216   23.1421   37.6325 H   0  0  0  0  0  0  0  0  0  0  0  0
   39.7576   26.7834   36.2244 H   0  0  0  0  0  0  0  0  0  0  0  0
   40.2549   27.7991   34.8288 H   0  0  0  0  0  0  0  0  0  0  0  0
   38.6472   26.9978   34.8288 H   0  0  0  0  0  0  0  0  0  0  0  0
   39.4512   26.6693   32.7789 H   0  0  0  0  0  0  0  0  0  0  0  0
   41.1328   26.0906   32.5259 H   0  0  0  0  0  0  0  0  0  0  0  0
   39.7705   24.9198   32.5259 H   0  0  0  0  0  0  0  0  0  0  0  0
  1  2  1  0
  2  3  2  0
  3  4  1  0
  5  4  2  0
  6  5  1  0
  7  2  1  0
  7  6  2  0
  8 16  1  0
  8  7  1  0
  9  8  1  0
 10  9  2  0
 10 11  1  0
 11 12  2  0
 11 16  1  0
 12 13  1  0
 13 14  2  0
 15 14  1  0
 16 15  2  0
 17 12  1  0
 18  1  1  0
 19 18  1  0
 19 24  1  0
 19 26  1  0
 20 21  2  0
 21 22  1  0
 23 22  2  0
 24 23  1  0
 25 20  1  0
 25 24  2  0
 27 19  1  0
  1 28  1  0
  3 29  1  0
  4 30  1  0
  5 31  1  0
  6 32  1  0
  9 33  1  0
 14 34  1  0
 17 35  1  0
 17 36  1  0
 18 37  1  0
 18 38  1  0
 20 39  1  0
 21 40  1  0
 22 41  1  0
 26 42  1  0
 26 43  1  0
 26 44  1  0
 27 45  1  0
 27 46  1  0
 27 47  1  0
M  ISO  8  29  14  30  14  31  14  32  14  33  14  34  14  37   8  38   8
M  ISO  8  39  14  40  14  41  14  42   8  43   8  44   8  45   8  46   8
M  ISO  1  47   8
M  END
>  <minimizedAffinity>  (1) 
-4.30145597

>  <minimizedRMSD>  (1) 
2.83239102

$$$$
