
     RDKit          3D

 47 49  0  0  0  0  0  0  0  0999 V2000
   40.6260   24.8850   34.7500 N   0  0  0  0  0  0  0  0  0  0  0  0
   42.0360   24.7250   34.7130 C   0  0  0  0  0  0  0  0  0  0  0  0
   42.9210   25.7130   35.1590 C   0  0  0  0  0  0  0  0  0  0  0  0
   44.3080   25.6170   35.1680 C   0  0  0  0  0  0  0  0  0  0  0  0
   44.7990   24.4080   34.6830 C   0  0  0  0  0  0  0  0  0  0  0  0
   43.9160   23.4070   34.2320 C   0  0  0  0  0  0  0  0  0  0  0  0
   42.5290   23.5500   34.2340 C   0  0  0  0  0  0  0  0  0  0  0  0
   42.1450   22.3960   33.5440 N   0  0  0  0  0  0  0  0  0  0  0  0
   42.7770   21.2930   34.0470 C   0  0  0  0  0  0  0  0  0  0  0  0
   42.4620   20.0120   33.5900 C   0  0  0  0  0  0  0  0  0  0  0  0
   43.0860   18.7500   34.0660 C   0  0  0  0  0  0  0  0  0  0  0  0
   41.4870   19.8480   32.6050 C   0  0  0  0  0  0  0  0  0  0  0  0
   41.1120   18.7570   32.1140 O   0  0  0  0  0  0  0  0  0  0  0  0
   40.9260   20.9930   32.1770 N   0  0  0  0  0  0  0  0  0  0  0  0
   41.2110   22.2600   32.6010 C   0  0  0  0  0  0  0  0  0  0  0  0
   40.6540   23.2920   32.1580 O   0  0  0  0  0  0  0  0  0  0  0  0
   40.0670   26.2230   34.8700 C   0  0  0  0  0  0  0  0  0  0  0  0
   38.5950   26.1800   35.2190 C   0  0  0  0  0  0  0  0  0  0  0  0
   37.7430   22.9020   36.5380 C   0  0  0  0  0  0  0  0  0  0  0  0
   37.6660   23.0720   37.9020 C   0  0  0  0  0  0  0  0  0  0  0  0
   37.9110   24.3550   38.4010 C   0  0  0  0  0  0  0  0  0  0  0  0
   38.2050   25.3310   37.5080 N   0  0  0  0  0  0  0  0  0  0  0  0
   38.2720   25.1160   36.1680 C   0  0  0  0  0  0  0  0  0  0  0  0
   38.0360   23.8940   35.7170 N   0  0  0  0  0  0  0  0  0  0  0  0
   38.2670   27.5570   35.8190 C   0  0  0  0  0  0  0  0  0  0  0  0
   37.8030   26.0380   33.9490 C   0  0  0  0  0  0  0  0  0  0  0  0
   40.0064   24.0642   34.6926 H   0  0  0  0  0  0  0  0  0  0  0  0
   42.4805   26.6479   35.5356 H   0  0  0  0  0  0  0  0  0  0  0  0
   44.9608   26.4262   35.5272 H   0  0  0  0  0  0  0  0  0  0  0  0
   45.8845   24.2329   34.6516 H   0  0  0  0  0  0  0  0  0  0  0  0
   44.3428   22.4642   33.8591 H   0  0  0  0  0  0  0  0  0  0  0  0
   43.5458   21.4168   34.8240 H   0  0  0  0  0  0  0  0  0  0  0  0
   43.0927   18.7364   35.1659 H   0  0  0  0  0  0  0  0  0  0  0  0
   42.5085   17.8917   33.6922 H   0  0  0  0  0  0  0  0  0  0  0  0
   44.1187   18.6878   33.6922 H   0  0  0  0  0  0  0  0  0  0  0  0
   40.2020   20.9049   31.4497 H   0  0  0  0  0  0  0  0  0  0  0  0
   40.6060   26.7660   35.6604 H   0  0  0  0  0  0  0  0  0  0  0  0
   40.1771   26.7312   33.9007 H   0  0  0  0  0  0  0  0  0  0  0  0
   37.5536   21.9037   36.1167 H   0  0  0  0  0  0  0  0  0  0  0  0
   37.4220   22.2337   38.5712 H   0  0  0  0  0  0  0  0  0  0  0  0
   37.8667   24.5646   39.4799 H   0  0  0  0  0  0  0  0  0  0  0  0
   38.2826   27.4917   36.9169 H   0  0  0  0  0  0  0  0  0  0  0  0
   39.0156   28.2904   35.4847 H   0  0  0  0  0  0  0  0  0  0  0  0
   37.2682   27.8742   35.4847 H   0  0  0  0  0  0  0  0  0  0  0  0
   36.7475   25.8488   34.1943 H   0  0  0  0  0  0  0  0  0  0  0  0
   37.8825   26.9647   33.3617 H   0  0  0  0  0  0  0  0  0  0  0  0
   38.1995   25.1966   33.3617 H   0  0  0  0  0  0  0  0  0  0  0  0
  1 17  1  0
  2  1  1  0
  2  3  2  0
  3  4  1  0
  5  4  2  0
  6  7  2  0
  6  5  1  0
  7  2  1  0
  8  9  1  0
  8  7  1  0
 10  9  2  0
 10 11  1  0
 12 10  1  0
 13 12  2  0
 14 15  1  0
 14 12  1  0
 15  8  1  0
 16 15  2  0
 17 18  1  0
 18 25  1  0
 18 23  1  0
 19 20  2  0
 20 21  1  0
 22 21  2  0
 23 22  1  0
 24 23  2  0
 24 19  1  0
 26 18  1  0
  1 27  1  0
  3 28  1  0
  4 29  1  0
  5 30  1  0
  6 31  1  0
  9 32  1  0
 11 33  1  0
 11 34  1  0
 11 35  1  0
 14 36  1  0
 17 37  1  0
 17 38  1  0
 19 39  1  0
 20 40  1  0
 21 41  1  0
 25 42  1  0
 25 43  1  0
 25 44  1  0
 26 45  1  0
 26 46  1  0
 26 47  1  0
M  ISO  8  28  14  29  14  30  14  31  14  32  14  33   8  34   8  35   8
M  ISO  8  36   9  37   8  38   8  39  14  40  14  41  14  42   8  43   8
M  ISO  4  44   8  45   8  46   8  47   8
M  END
>  <minimizedAffinity>  (1) 
-3.95541787

>  <minimizedRMSD>  (1) 
2.32069087

$$$$
