
     RDKit          3D

 55 58  0  0  1  0  0  0  0  0999 V2000
   39.1780   26.1840   34.7870 C   0  0  1  0  0  0  0  0  0  0  0  0
   38.5290   22.5950   34.9600 C   0  0  0  0  0  0  0  0  0  0  0  0
   37.7990   22.4350   36.1200 C   0  0  0  0  0  0  0  0  0  0  0  0
   37.5120   23.5700   36.8760 C   0  0  0  0  0  0  0  0  0  0  0  0
   37.9790   24.7500   36.4080 N   0  0  0  0  0  0  0  0  0  0  0  0
   38.6930   24.9000   35.2730 C   0  0  0  0  0  0  0  0  0  0  0  0
   38.9260   23.7950   34.6120 N   0  0  0  0  0  0  0  0  0  0  0  0
   38.4550   27.3260   35.5040 C   0  0  0  0  0  0  0  0  0  0  0  0
   40.6610   26.3690   35.0750 C   0  0  0  0  0  0  0  0  0  0  0  0
   41.4770   25.2650   34.6090 N   0  0  0  0  0  0  0  0  0  0  0  0
   42.7790   25.1030   35.1210 C   0  0  0  0  0  0  0  0  0  0  0  0
   43.9100   25.8290   34.7460 C   0  0  0  0  0  0  0  0  0  0  0  0
   45.1960   25.7360   35.2610 C   0  0  0  0  0  0  0  0  0  0  0  0
   45.3270   24.8000   36.2680 C   0  0  0  0  0  0  0  0  0  0  0  0
   44.2170   24.0420   36.6820 C   0  0  0  0  0  0  0  0  0  0  0  0
   42.9370   24.1880   36.1050 C   0  0  0  0  0  0  0  0  0  0  0  0
   42.1610   23.1520   36.7240 C   0  0  0  0  0  0  0  0  0  0  0  0
   41.0770   22.7720   37.3570 N   0  0  0  0  0  0  0  0  0  0  0  0
   41.0640   21.4970   37.6370 O   0  0  0  0  0  0  0  0  0  0  0  0
   42.1790   20.9600   37.1850 C   0  0  0  0  0  0  0  0  0  0  0  0
   42.8590   21.9590   36.6250 N   0  0  0  0  0  0  0  0  0  0  0  0
   38.9840   26.3320   33.3300 C   0  0  0  0  0  0  0  0  0  0  0  0
   37.6780   26.1610   32.6910 C   0  0  0  0  0  0  0  0  0  0  0  0
   37.3300   27.5290   32.0630 C   0  0  0  0  0  0  0  0  0  0  0  0
   36.4820   27.2640   30.8550 C   0  0  0  0  0  0  0  0  0  0  0  0
   35.3340   26.3740   31.2740 C   0  0  0  0  0  0  0  0  0  0  0  0
   35.8750   24.9850   31.4620 C   0  0  0  0  0  0  0  0  0  0  0  0
   37.3920   25.0410   31.7630 C   0  0  0  0  0  0  0  0  0  0  0  0
   38.7752   21.7248   34.3338 H   0  0  0  0  0  0  0  0  0  0  0  0
   37.4536   21.4404   36.4387 H   0  0  0  0  0  0  0  0  0  0  0  0
   36.9330   23.5091   37.8093 H   0  0  0  0  0  0  0  0  0  0  0  0
   38.5417   27.1890   36.5920 H   0  0  0  0  0  0  0  0  0  0  0  0
   38.9106   28.2854   35.2177 H   0  0  0  0  0  0  0  0  0  0  0  0
   37.3929   27.3246   35.2177 H   0  0  0  0  0  0  0  0  0  0  0  0
   41.0013   27.2892   34.5775 H   0  0  0  0  0  0  0  0  0  0  0  0
   40.7769   26.4218   36.1676 H   0  0  0  0  0  0  0  0  0  0  0  0
   41.1078   24.6050   33.9097 H   0  0  0  0  0  0  0  0  0  0  0  0
   43.7648   26.5664   33.9428 H   0  0  0  0  0  0  0  0  0  0  0  0
   46.0334   26.3512   34.9002 H   0  0  0  0  0  0  0  0  0  0  0  0
   46.3044   24.6466   36.7487 H   0  0  0  0  0  0  0  0  0  0  0  0
   44.3517   23.3056   37.4880 H   0  0  0  0  0  0  0  0  0  0  0  0
   42.4848   19.9057   37.2555 H   0  0  0  0  0  0  0  0  0  0  0  0
   39.3164   27.3501   33.0790 H   0  0  0  0  0  0  0  0  0  0  0  0
   39.5425   25.4690   32.9383 H   0  0  0  0  0  0  0  0  0  0  0  0
   37.0267   25.8220   33.5101 H   0  0  0  0  0  0  0  0  0  0  0  0
   36.7736   28.1440   32.7856 H   0  0  0  0  0  0  0  0  0  0  0  0
   38.2446   28.0728   31.7843 H   0  0  0  0  0  0  0  0  0  0  0  0
   37.0811   26.7608   30.0818 H   0  0  0  0  0  0  0  0  0  0  0  0
   36.1005   28.2094   30.4420 H   0  0  0  0  0  0  0  0  0  0  0  0
   34.9030   26.7387   32.2180 H   0  0  0  0  0  0  0  0  0  0  0  0
   34.5447   26.3786   30.5079 H   0  0  0  0  0  0  0  0  0  0  0  0
   35.3549   24.5027   32.3028 H   0  0  0  0  0  0  0  0  0  0  0  0
   35.7121   24.4075   30.5401 H   0  0  0  0  0  0  0  0  0  0  0  0
   37.7080   24.0940   32.2250 H   0  0  0  0  0  0  0  0  0  0  0  0
   37.9434   25.1970   30.8241 H   0  0  0  0  0  0  0  0  0  0  0  0
  1 22  1  6
  1  9  1  0
  1  6  1  0
  1  8  1  0
  2  3  2  0
  3  4  1  0
  5  4  2  0
  6  5  1  0
  7  2  1  0
  7  6  2  0
 10  9  1  0
 10 11  1  0
 11 16  1  0
 12 11  2  0
 12 13  1  0
 13 14  2  0
 14 15  1  0
 16 15  2  0
 16 17  1  0
 17 18  2  0
 18 19  1  0
 20 19  1  0
 21 17  1  0
 21 20  2  0
 23 22  1  0
 24 23  1  0
 25 26  1  0
 25 24  1  0
 26 27  1  0
 27 28  1  0
 28 23  1  0
  2 29  1  0
  3 30  1  0
  4 31  1  0
  8 32  1  0
  8 33  1  0
  8 34  1  0
  9 35  1  0
  9 36  1  0
 10 37  1  0
 12 38  1  0
 13 39  1  0
 14 40  1  0
 15 41  1  0
 20 42  1  0
 22 43  1  0
 22 44  1  0
 23 45  1  0
 24 46  1  0
 24 47  1  0
 25 48  1  0
 25 49  1  0
 26 50  1  0
 26 51  1  0
 27 52  1  0
 27 53  1  0
 28 54  1  0
 28 55  1  0
M  ISO  8  29  14  30  14  31  14  32   8  33   8  34   8  35   8  36   8
M  ISO  8  38  14  39  14  40  14  41  14  42  14  43   8  44   8  45  13
M  ISO  8  46  13  47  13  48  13  49  13  50  13  51  13  52  13  53  13
M  ISO  2  54  13  55  13
M  END
>  <minimizedAffinity>  (1) 
-5.64108658

>  <minimizedRMSD>  (1) 
0.984791934

$$$$
