
     RDKit          3D

 49 52  0  0  1  0  0  0  0  0999 V2000
   38.6790   26.3230   34.9390 C   0  0  1  0  0  0  0  0  0  0  0  0
   37.8690   22.8410   35.4800 C   0  0  0  0  0  0  0  0  0  0  0  0
   37.6540   22.7360   36.8400 C   0  0  0  0  0  0  0  0  0  0  0  0
   37.7790   23.8790   37.6190 C   0  0  0  0  0  0  0  0  0  0  0  0
   38.1070   25.0190   36.9700 N   0  0  0  0  0  0  0  0  0  0  0  0
   38.3180   25.1240   35.6440 C   0  0  0  0  0  0  0  0  0  0  0  0
   38.1820   24.0160   34.9900 N   0  0  0  0  0  0  0  0  0  0  0  0
   38.4010   27.5560   35.8700 C   0  0  0  0  0  0  0  0  0  0  0  0
   40.1700   26.4230   34.6480 C   0  0  0  0  0  0  0  0  0  0  0  0
   40.8120   25.1200   34.8520 N   0  0  0  0  0  0  0  0  0  0  0  0
   42.1920   25.0750   35.1110 C   0  0  0  0  0  0  0  0  0  0  0  0
   43.1660   25.9140   34.5750 C   0  0  0  0  0  0  0  0  0  0  0  0
   44.5300   25.9330   34.8540 C   0  0  0  0  0  0  0  0  0  0  0  0
   44.9230   24.9910   35.7810 C   0  0  0  0  0  0  0  0  0  0  0  0
   43.9820   24.1190   36.3530 C   0  0  0  0  0  0  0  0  0  0  0  0
   42.6110   24.1540   36.0150 C   0  0  0  0  0  0  0  0  0  0  0  0
   42.0570   23.0270   36.7070 C   0  0  0  0  0  0  0  0  0  0  0  0
   41.1030   22.4970   37.4310 N   0  0  0  0  0  0  0  0  0  0  0  0
   41.3180   21.2420   37.7170 O   0  0  0  0  0  0  0  0  0  0  0  0
   42.4560   20.8710   37.1820 C   0  0  0  0  0  0  0  0  0  0  0  0
   42.9250   21.9540   36.5580 N   0  0  0  0  0  0  0  0  0  0  0  0
   37.9240   26.5620   33.7170 C   0  0  0  0  0  0  0  0  0  0  0  0
   37.9760   25.6990   32.5660 C   0  0  0  0  0  0  0  0  0  0  0  0
   39.0000   25.2980   31.7390 C   0  0  0  0  0  0  0  0  0  0  0  0
   38.9130   24.4490   30.6590 C   0  0  0  0  0  0  0  0  0  0  0  0
   37.6710   23.9300   30.3570 C   0  0  0  0  0  0  0  0  0  0  0  0
   36.5810   24.2760   31.1340 C   0  0  0  0  0  0  0  0  0  0  0  0
   36.7410   25.1340   32.2030 C   0  0  0  0  0  0  0  0  0  0  0  0
   37.7800   21.9618   34.8250 H   0  0  0  0  0  0  0  0  0  0  0  0
   37.3900   21.7702   37.2955 H   0  0  0  0  0  0  0  0  0  0  0  0
   37.6195   23.8580   38.7072 H   0  0  0  0  0  0  0  0  0  0  0  0
   38.4713   27.2440   36.9225 H   0  0  0  0  0  0  0  0  0  0  0  0
   39.1446   28.3415   35.6699 H   0  0  0  0  0  0  0  0  0  0  0  0
   37.3923   27.9465   35.6699 H   0  0  0  0  0  0  0  0  0  0  0  0
   40.6239   27.1621   35.3245 H   0  0  0  0  0  0  0  0  0  0  0  0
   40.3127   26.7349   33.6028 H   0  0  0  0  0  0  0  0  0  0  0  0
   40.2597   24.2518   34.8061 H   0  0  0  0  0  0  0  0  0  0  0  0
   42.8141   26.6531   33.8403 H   0  0  0  0  0  0  0  0  0  0  0  0
   45.2302   26.6354   34.3783 H   0  0  0  0  0  0  0  0  0  0  0  0
   45.9808   24.9219   36.0747 H   0  0  0  0  0  0  0  0  0  0  0  0
   44.3259   23.3807   37.0924 H   0  0  0  0  0  0  0  0  0  0  0  0
   42.9251   19.8775   37.2359 H   0  0  0  0  0  0  0  0  0  0  0  0
   36.8669   26.5955   34.0193 H   0  0  0  0  0  0  0  0  0  0  0  0
   38.4233   27.4628   33.3307 H   0  0  0  0  0  0  0  0  0  0  0  0
   39.9983   25.7003   31.9660 H   0  0  0  0  0  0  0  0  0  0  0  0
   39.7996   24.1942   30.0599 H   0  0  0  0  0  0  0  0  0  0  0  0
   37.5488   23.2459   29.5043 H   0  0  0  0  0  0  0  0  0  0  0  0
   35.5867   23.8676   30.9002 H   0  0  0  0  0  0  0  0  0  0  0  0
   35.8551   25.3894   32.8029 H   0  0  0  0  0  0  0  0  0  0  0  0
  1 22  1  6
  1  6  1  0
  1  8  1  0
  2  3  2  0
  3  4  1  0
  5  4  2  0
  6  5  1  0
  7  2  1  0
  7  6  2  0
  9 10  1  0
  9  1  1  0
 10 11  1  0
 11 16  2  0
 12 13  2  0
 12 11  1  0
 13 14  1  0
 14 15  2  0
 16 15  1  0
 16 17  1  0
 17 18  2  0
 18 19  1  0
 20 19  1  0
 21 17  1  0
 21 20  2  0
 23 22  1  0
 24 23  2  0
 25 24  1  0
 26 25  2  0
 26 27  1  0
 27 28  2  0
 28 23  1  0
  2 29  1  0
  3 30  1  0
  4 31  1  0
  8 32  1  0
  8 33  1  0
  8 34  1  0
  9 35  1  0
  9 36  1  0
 10 37  1  0
 12 38  1  0
 13 39  1  0
 14 40  1  0
 15 41  1  0
 20 42  1  0
 22 43  1  0
 22 44  1  0
 24 45  1  0
 25 46  1  0
 26 47  1  0
 27 48  1  0
 28 49  1  0
M  ISO  8  29  14  30  14  31  14  32   8  33   8  34   8  35   8  36   8
M  ISO  8  38  14  39  14  40  14  41  14  42  14  43   8  44   8  45  14
M  ISO  4  46  14  47  14  48  14  49  14
M  END
>  <minimizedAffinity>  (1) 
-5.5227313

>  <minimizedRMSD>  (1) 
0.762414455

$$$$
