
     RDKit          3D

 52 55  0  0  1  0  0  0  0  0999 V2000
   38.6330   26.2200   34.7460 C   0  0  1  0  0  0  0  0  0  0  0  0
   37.8000   22.7500   35.3720 C   0  0  0  0  0  0  0  0  0  0  0  0
   37.6320   22.6600   36.7400 C   0  0  0  0  0  0  0  0  0  0  0  0
   37.8030   23.8280   37.5040 C   0  0  0  0  0  0  0  0  0  0  0  0
   38.1180   24.9500   36.8280 N   0  0  0  0  0  0  0  0  0  0  0  0
   38.2810   25.0230   35.4820 C   0  0  0  0  0  0  0  0  0  0  0  0
   38.1090   23.9010   34.8220 N   0  0  0  0  0  0  0  0  0  0  0  0
   38.4730   27.4490   35.7150 C   0  0  0  0  0  0  0  0  0  0  0  0
   40.0950   26.2820   34.3620 C   0  0  0  0  0  0  0  0  0  0  0  0
   40.7650   25.0490   34.7990 N   0  0  0  0  0  0  0  0  0  0  0  0
   42.1400   25.0460   35.0690 C   0  0  0  0  0  0  0  0  0  0  0  0
   43.0830   25.9110   34.5210 C   0  0  0  0  0  0  0  0  0  0  0  0
   44.4420   25.9720   34.8220 C   0  0  0  0  0  0  0  0  0  0  0  0
   44.8550   25.0650   35.7700 C   0  0  0  0  0  0  0  0  0  0  0  0
   43.9320   24.1750   36.3450 C   0  0  0  0  0  0  0  0  0  0  0  0
   42.5700   24.1580   35.9930 C   0  0  0  0  0  0  0  0  0  0  0  0
   42.0400   23.0230   36.6970 C   0  0  0  0  0  0  0  0  0  0  0  0
   41.1020   22.4850   37.4390 N   0  0  0  0  0  0  0  0  0  0  0  0
   41.3460   21.2310   37.7190 O   0  0  0  0  0  0  0  0  0  0  0  0
   42.4690   20.8750   37.1690 C   0  0  0  0  0  0  0  0  0  0  0  0
   42.9170   21.9570   36.5350 N   0  0  0  0  0  0  0  0  0  0  0  0
   37.7680   26.4610   33.6020 C   0  0  0  0  0  0  0  0  0  0  0  0
   37.5670   27.6200   32.8920 N   0  0  0  0  0  0  0  0  0  0  0  0
   36.3830   28.3600   32.9890 C   0  0  0  0  0  0  0  0  0  0  0  0
   36.1820   29.3440   31.8330 C   0  0  0  0  0  0  0  0  0  0  0  0
   36.1600   28.6670   30.6470 O   0  0  0  0  0  0  0  0  0  0  0  0
   37.0020   27.5730   30.5950 C   0  0  0  0  0  0  0  0  0  0  0  0
   38.1550   27.7540   31.5860 C   0  0  0  0  0  0  0  0  0  0  0  0
   37.6747   21.8563   34.7430 H   0  0  0  0  0  0  0  0  0  0  0  0
   37.3723   21.7036   37.2173 H   0  0  0  0  0  0  0  0  0  0  0  0
   37.6856   23.8258   38.5977 H   0  0  0  0  0  0  0  0  0  0  0  0
   38.5182   27.1020   36.7579 H   0  0  0  0  0  0  0  0  0  0  0  0
   39.2851   28.1681   35.5323 H   0  0  0  0  0  0  0  0  0  0  0  0
   37.5038   27.9362   35.5323 H   0  0  0  0  0  0  0  0  0  0  0  0
   40.1842   26.3814   33.2701 H   0  0  0  0  0  0  0  0  0  0  0  0
   40.5668   27.1493   34.8470 H   0  0  0  0  0  0  0  0  0  0  0  0
   40.2203   24.1815   34.9075 H   0  0  0  0  0  0  0  0  0  0  0  0
   42.7152   26.6240   33.7684 H   0  0  0  0  0  0  0  0  0  0  0  0
   45.1274   26.6858   34.3417 H   0  0  0  0  0  0  0  0  0  0  0  0
   45.9104   25.0363   36.0788 H   0  0  0  0  0  0  0  0  0  0  0  0
   44.2894   23.4616   37.1022 H   0  0  0  0  0  0  0  0  0  0  0  0
   42.9489   19.8864   37.2173 H   0  0  0  0  0  0  0  0  0  0  0  0
   38.1061   25.7352   32.8477 H   0  0  0  0  0  0  0  0  0  0  0  0
   36.8044   26.4380   34.1321 H   0  0  0  0  0  0  0  0  0  0  0  0
   35.5347   27.6598   33.0019 H   0  0  0  0  0  0  0  0  0  0  0  0
   36.4472   28.9541   33.9125 H   0  0  0  0  0  0  0  0  0  0  0  0
   35.2284   29.8756   31.9677 H   0  0  0  0  0  0  0  0  0  0  0  0
   37.0113   30.0666   31.8231 H   0  0  0  0  0  0  0  0  0  0  0  0
   36.4371   26.6655   30.8547 H   0  0  0  0  0  0  0  0  0  0  0  0
   37.4105   27.4790   29.5780 H   0  0  0  0  0  0  0  0  0  0  0  0
   38.9214   26.9808   31.4288 H   0  0  0  0  0  0  0  0  0  0  0  0
   38.6505   28.7281   31.4606 H   0  0  0  0  0  0  0  0  0  0  0  0
  1 22  1  6
  1  6  1  0
  1  8  1  0
  2  3  2  0
  3  4  1  0
  5  4  2  0
  6  5  1  0
  7  2  1  0
  7  6  2  0
  9  1  1  0
  9 10  1  0
 10 11  1  0
 11 16  2  0
 12 13  2  0
 12 11  1  0
 13 14  1  0
 14 15  2  0
 16 15  1  0
 16 17  1  0
 17 18  2  0
 18 19  1  0
 20 19  1  0
 21 17  1  0
 21 20  2  0
 23 24  1  0
 23 22  1  0
 25 24  1  0
 26 25  1  0
 27 26  1  0
 27 28  1  0
 28 23  1  0
  2 29  1  0
  3 30  1  0
  4 31  1  0
  8 32  1  0
  8 33  1  0
  8 34  1  0
  9 35  1  0
  9 36  1  0
 10 37  1  0
 12 38  1  0
 13 39  1  0
 14 40  1  0
 15 41  1  0
 20 42  1  0
 22 43  1  0
 22 44  1  0
 24 45  1  0
 24 46  1  0
 25 47  1  0
 25 48  1  0
 27 49  1  0
 27 50  1  0
 28 51  1  0
 28 52  1  0
M  ISO  8  29  14  30  14  31  14  32   8  33   8  34   8  35   8  36   8
M  ISO  8  38  14  39  14  40  14  41  14  42  14  43   8  44   8  45  13
M  ISO  7  46  13  47  13  48  13  49  13  50  13  51  13  52  13
M  END
>  <minimizedAffinity>  (1) 
-5.44942856

>  <minimizedRMSD>  (1) 
2.40347576

$$$$
