
     RDKit          3D

 46 49  0  0  1  0  0  0  0  0999 V2000
   38.7190   26.1320   34.6380 C   0  0  1  0  0  0  0  0  0  0  0  0
   37.8540   22.6490   35.1450 C   0  0  0  0  0  0  0  0  0  0  0  0
   37.5910   22.5370   36.4960 C   0  0  0  0  0  0  0  0  0  0  0  0
   37.7060   23.6890   37.2790 C   0  0  0  0  0  0  0  0  0  0  0  0
   38.0680   24.8250   36.6410 N   0  0  0  0  0  0  0  0  0  0  0  0
   38.3220   24.9180   35.3230 C   0  0  0  0  0  0  0  0  0  0  0  0
   38.2000   23.8080   34.6310 N   0  0  0  0  0  0  0  0  0  0  0  0
   38.7590   27.2970   35.6790 C   0  0  0  0  0  0  0  0  0  0  0  0
   40.1340   26.0790   34.0940 C   0  0  0  0  0  0  0  0  0  0  0  0
   40.8300   24.8810   34.5820 N   0  0  0  0  0  0  0  0  0  0  0  0
   42.1620   24.9900   35.0140 C   0  0  0  0  0  0  0  0  0  0  0  0
   43.1090   25.8990   34.5460 C   0  0  0  0  0  0  0  0  0  0  0  0
   44.4210   26.0660   34.9890 C   0  0  0  0  0  0  0  0  0  0  0  0
   44.7810   25.2140   36.0140 C   0  0  0  0  0  0  0  0  0  0  0  0
   43.8580   24.2800   36.5160 C   0  0  0  0  0  0  0  0  0  0  0  0
   42.5440   24.1600   36.0160 C   0  0  0  0  0  0  0  0  0  0  0  0
   42.0140   23.0210   36.7070 C   0  0  0  0  0  0  0  0  0  0  0  0
   41.0670   22.4690   37.4220 N   0  0  0  0  0  0  0  0  0  0  0  0
   41.3110   21.2240   37.7190 O   0  0  0  0  0  0  0  0  0  0  0  0
   42.4650   20.8810   37.2000 C   0  0  0  0  0  0  0  0  0  0  0  0
   42.9130   21.9710   36.5740 N   0  0  0  0  0  0  0  0  0  0  0  0
   37.8060   26.5290   33.5640 C   0  0  0  0  0  0  0  0  0  0  0  0
   37.4860   25.6560   32.4660 C   0  0  0  0  0  0  0  0  0  0  0  0
   38.2720   25.1850   31.4030 C   0  0  0  0  0  0  0  0  0  0  0  0
   37.5450   24.3640   30.5730 C   0  0  0  0  0  0  0  0  0  0  0  0
   36.3050   24.3600   31.1740 C   0  0  0  0  0  0  0  0  0  0  0  0
   36.3060   25.0990   32.2390 O   0  0  0  0  0  0  0  0  0  0  0  0
   37.7736   21.7643   34.4962 H   0  0  0  0  0  0  0  0  0  0  0  0
   37.3008   21.5737   36.9409 H   0  0  0  0  0  0  0  0  0  0  0  0
   37.5115   23.6724   38.3615 H   0  0  0  0  0  0  0  0  0  0  0  0
   38.7447   26.8799   36.6968 H   0  0  0  0  0  0  0  0  0  0  0  0
   39.6779   27.8847   35.5365 H   0  0  0  0  0  0  0  0  0  0  0  0
   37.8826   27.9463   35.5365 H   0  0  0  0  0  0  0  0  0  0  0  0
   40.6817   26.9746   34.4227 H   0  0  0  0  0  0  0  0  0  0  0  0
   40.0909   26.0418   32.9955 H   0  0  0  0  0  0  0  0  0  0  0  0
   40.3469   23.9717   34.6071 H   0  0  0  0  0  0  0  0  0  0  0  0
   42.7835   26.5628   33.7315 H   0  0  0  0  0  0  0  0  0  0  0  0
   45.1078   26.8104   34.5598 H   0  0  0  0  0  0  0  0  0  0  0  0
   45.7940   25.2662   36.4395 H   0  0  0  0  0  0  0  0  0  0  0  0
   44.1735   23.6146   37.3331 H   0  0  0  0  0  0  0  0  0  0  0  0
   42.9599   19.9009   37.2666 H   0  0  0  0  0  0  0  0  0  0  0  0
   36.8499   26.7743   34.0494 H   0  0  0  0  0  0  0  0  0  0  0  0
   38.3756   27.3258   33.0633 H   0  0  0  0  0  0  0  0  0  0  0  0
   39.3316   25.4394   31.2532 H   0  0  0  0  0  0  0  0  0  0  0  0
   37.8708   23.8427   29.6608 H   0  0  0  0  0  0  0  0  0  0  0  0
   35.4321   23.8046   30.8004 H   0  0  0  0  0  0  0  0  0  0  0  0
  1 22  1  6
  1  6  1  0
  1  8  1  0
  2  3  2  0
  3  4  1  0
  5  4  2  0
  6  5  1  0
  7  2  1  0
  7  6  2  0
  9 10  1  0
  9  1  1  0
 10 11  1  0
 11 16  2  0
 12 13  2  0
 12 11  1  0
 13 14  1  0
 14 15  2  0
 16 15  1  0
 16 17  1  0
 17 18  2  0
 18 19  1  0
 20 19  1  0
 21 17  1  0
 21 20  2  0
 23 22  1  0
 24 23  2  0
 25 26  2  0
 25 24  1  0
 26 27  1  0
 27 23  1  0
  2 28  1  0
  3 29  1  0
  4 30  1  0
  8 31  1  0
  8 32  1  0
  8 33  1  0
  9 34  1  0
  9 35  1  0
 10 36  1  0
 12 37  1  0
 13 38  1  0
 14 39  1  0
 15 40  1  0
 20 41  1  0
 22 42  1  0
 22 43  1  0
 24 44  1  0
 25 45  1  0
 26 46  1  0
M  ISO  8  28  14  29  14  30  14  31   8  32   8  33   8  34   8  35   8
M  ISO  8  37  14  38  14  39  14  40  14  41  14  42   8  43   8  44  14
M  ISO  2  45  14  46  14
M  END
>  <minimizedAffinity>  (1) 
-5.34546852

>  <minimizedRMSD>  (1) 
1.09658074

$$$$
