
     RDKit          3D

 46 49  0  0  1  0  0  0  0  0999 V2000
   38.4850   26.1310   35.1760 C   0  0  1  0  0  0  0  0  0  0  0  0
   37.7060   22.9720   36.7980 C   0  0  0  0  0  0  0  0  0  0  0  0
   37.7020   23.2500   38.1300 C   0  0  0  0  0  0  0  0  0  0  0  0
   37.9680   24.5590   38.5170 C   0  0  0  0  0  0  0  0  0  0  0  0
   38.2100   25.4450   37.5230 N   0  0  0  0  0  0  0  0  0  0  0  0
   38.2120   25.1580   36.2000 C   0  0  0  0  0  0  0  0  0  0  0  0
   37.9540   23.9150   35.9140 N   0  0  0  0  0  0  0  0  0  0  0  0
   37.9070   27.4980   35.5690 C   0  0  0  0  0  0  0  0  0  0  0  0
   39.9620   26.3440   34.9450 C   0  0  0  0  0  0  0  0  0  0  0  0
   40.6890   25.0810   34.7930 N   0  0  0  0  0  0  0  0  0  0  0  0
   42.0760   25.0580   35.0240 C   0  0  0  0  0  0  0  0  0  0  0  0
   43.0180   25.9080   34.4450 C   0  0  0  0  0  0  0  0  0  0  0  0
   44.3900   25.9490   34.6900 C   0  0  0  0  0  0  0  0  0  0  0  0
   44.8240   25.0260   35.6240 C   0  0  0  0  0  0  0  0  0  0  0  0
   43.9050   24.1510   36.2300 C   0  0  0  0  0  0  0  0  0  0  0  0
   42.5290   24.1590   35.9300 C   0  0  0  0  0  0  0  0  0  0  0  0
   42.0090   23.0420   36.6640 C   0  0  0  0  0  0  0  0  0  0  0  0
   41.0900   22.5230   37.4410 N   0  0  0  0  0  0  0  0  0  0  0  0
   41.3210   21.2740   37.7320 O   0  0  0  0  0  0  0  0  0  0  0  0
   42.4290   20.8950   37.1500 C   0  0  0  0  0  0  0  0  0  0  0  0
   42.8680   21.9660   36.4870 N   0  0  0  0  0  0  0  0  0  0  0  0
   37.8620   25.7330   33.8740 C   0  0  0  0  0  0  0  0  0  0  0  0
   37.6210   26.8390   32.9690 N   0  0  0  0  0  0  0  0  0  0  0  0
   36.5660   27.6690   32.8780 C   0  0  0  0  0  0  0  0  0  0  0  0
   36.7320   28.5970   31.8710 C   0  0  0  0  0  0  0  0  0  0  0  0
   37.9360   28.3120   31.3360 N   0  0  0  0  0  0  0  0  0  0  0  0
   38.4440   27.2750   31.9950 C   0  0  0  0  0  0  0  0  0  0  0  0
   37.4995   21.9471   36.4560 H   0  0  0  0  0  0  0  0  0  0  0  0
   37.4956   22.4669   38.8745 H   0  0  0  0  0  0  0  0  0  0  0  0
   37.9810   24.8585   39.5754 H   0  0  0  0  0  0  0  0  0  0  0  0
   37.8723   27.5800   36.6654 H   0  0  0  0  0  0  0  0  0  0  0  0
   38.5445   28.2965   35.1616 H   0  0  0  0  0  0  0  0  0  0  0  0
   36.8900   27.5969   35.1616 H   0  0  0  0  0  0  0  0  0  0  0  0
   40.0945   26.9407   34.0305 H   0  0  0  0  0  0  0  0  0  0  0  0
   40.3689   26.8626   35.8256 H   0  0  0  0  0  0  0  0  0  0  0  0
   40.1909   24.2216   34.5206 H   0  0  0  0  0  0  0  0  0  0  0  0
   42.6339   26.6301   33.7095 H   0  0  0  0  0  0  0  0  0  0  0  0
   45.0674   26.6533   34.1850 H   0  0  0  0  0  0  0  0  0  0  0  0
   45.8894   24.9763   35.8932 H   0  0  0  0  0  0  0  0  0  0  0  0
   44.2773   23.4284   36.9711 H   0  0  0  0  0  0  0  0  0  0  0  0
   42.8999   19.9020   37.1972 H   0  0  0  0  0  0  0  0  0  0  0  0
   38.5327   25.0183   33.3746 H   0  0  0  0  0  0  0  0  0  0  0  0
   36.8796   25.2995   34.1127 H   0  0  0  0  0  0  0  0  0  0  0  0
   35.6796   27.6143   33.5271 H   0  0  0  0  0  0  0  0  0  0  0  0
   36.0356   29.3938   31.5708 H   0  0  0  0  0  0  0  0  0  0  0  0
   39.4225   26.8251   31.7712 H   0  0  0  0  0  0  0  0  0  0  0  0
  1 22  1  6
  1  8  1  0
  1  6  1  0
  2  3  2  0
  3  4  1  0
  5  4  2  0
  6  5  1  0
  7  6  2  0
  7  2  1  0
  9  1  1  0
 10  9  1  0
 10 11  1  0
 11 16  2  0
 12 13  2  0
 12 11  1  0
 13 14  1  0
 14 15  2  0
 16 15  1  0
 16 17  1  0
 17 18  2  0
 18 19  1  0
 20 19  1  0
 21 17  1  0
 21 20  2  0
 23 22  1  0
 24 23  1  0
 25 24  2  0
 26 25  1  0
 26 27  2  0
 27 23  1  0
  2 28  1  0
  3 29  1  0
  4 30  1  0
  8 31  1  0
  8 32  1  0
  8 33  1  0
  9 34  1  0
  9 35  1  0
 10 36  1  0
 12 37  1  0
 13 38  1  0
 14 39  1  0
 15 40  1  0
 20 41  1  0
 22 42  1  0
 22 43  1  0
 24 44  1  0
 25 45  1  0
 27 46  1  0
M  ISO  8  28  14  29  14  30  14  31   8  32   8  33   8  34   8  35   8
M  ISO  8  37  14  38  14  39  14  40  14  41  14  42   8  43   8  44  14
M  ISO  2  45  14  46  14
M  END
>  <minimizedAffinity>  (1) 
-5.33049393

>  <minimizedRMSD>  (1) 
0.644632638

$$$$
