
     RDKit          3D

 46 49  0  0  1  0  0  0  0  0999 V2000
   38.7860   26.1400   34.6650 C   0  0  1  0  0  0  0  0  0  0  0  0
   37.8840   22.6530   35.0030 C   0  0  0  0  0  0  0  0  0  0  0  0
   37.6280   22.4850   36.3500 C   0  0  0  0  0  0  0  0  0  0  0  0
   37.7590   23.5970   37.1930 C   0  0  0  0  0  0  0  0  0  0  0  0
   38.1330   24.7560   36.6050 N   0  0  0  0  0  0  0  0  0  0  0  0
   38.3810   24.9110   35.2890 C   0  0  0  0  0  0  0  0  0  0  0  0
   38.2390   23.8410   34.5700 N   0  0  0  0  0  0  0  0  0  0  0  0
   38.7520   27.2890   35.7310 C   0  0  0  0  0  0  0  0  0  0  0  0
   40.2390   26.1340   34.1990 C   0  0  0  0  0  0  0  0  0  0  0  0
   40.9070   24.9040   34.6540 N   0  0  0  0  0  0  0  0  0  0  0  0
   42.2450   24.9660   35.0760 C   0  0  0  0  0  0  0  0  0  0  0  0
   43.2160   25.8540   34.6200 C   0  0  0  0  0  0  0  0  0  0  0  0
   44.5290   25.9810   35.0530 C   0  0  0  0  0  0  0  0  0  0  0  0
   44.8750   25.1030   36.0630 C   0  0  0  0  0  0  0  0  0  0  0  0
   43.9300   24.1850   36.5570 C   0  0  0  0  0  0  0  0  0  0  0  0
   42.6110   24.1100   36.0620 C   0  0  0  0  0  0  0  0  0  0  0  0
   42.0540   22.9720   36.7380 C   0  0  0  0  0  0  0  0  0  0  0  0
   41.0870   22.4300   37.4340 N   0  0  0  0  0  0  0  0  0  0  0  0
   41.3160   21.1780   37.7200 O   0  0  0  0  0  0  0  0  0  0  0  0
   42.4660   20.8200   37.2170 C   0  0  0  0  0  0  0  0  0  0  0  0
   42.9360   21.9100   36.6090 N   0  0  0  0  0  0  0  0  0  0  0  0
   37.9280   26.5650   33.5610 C   0  0  0  0  0  0  0  0  0  0  0  0
   37.6440   25.6950   32.4430 C   0  0  0  0  0  0  0  0  0  0  0  0
   36.3370   25.5010   31.9580 C   0  0  0  0  0  0  0  0  0  0  0  0
   36.2710   24.6470   30.9230 N   0  0  0  0  0  0  0  0  0  0  0  0
   37.5370   24.2660   30.7140 C   0  0  0  0  0  0  0  0  0  0  0  0
   38.3130   24.8850   31.6060 N   0  0  0  0  0  0  0  0  0  0  0  0
   37.7922   21.8072   34.3057 H   0  0  0  0  0  0  0  0  0  0  0  0
   37.3294   21.5049   36.7502 H   0  0  0  0  0  0  0  0  0  0  0  0
   37.5680   23.5306   38.2743 H   0  0  0  0  0  0  0  0  0  0  0  0
   38.7649   26.8528   36.7408 H   0  0  0  0  0  0  0  0  0  0  0  0
   39.6314   27.9367   35.6001 H   0  0  0  0  0  0  0  0  0  0  0  0
   37.8359   27.8836   35.6001 H   0  0  0  0  0  0  0  0  0  0  0  0
   40.7597   27.0078   34.6176 H   0  0  0  0  0  0  0  0  0  0  0  0
   40.2666   26.1753   33.1001 H   0  0  0  0  0  0  0  0  0  0  0  0
   40.3990   24.0080   34.6628 H   0  0  0  0  0  0  0  0  0  0  0  0
   42.9043   26.5392   33.8179 H   0  0  0  0  0  0  0  0  0  0  0  0
   45.2311   26.7147   34.6302 H   0  0  0  0  0  0  0  0  0  0  0  0
   45.8920   25.1220   36.4817 H   0  0  0  0  0  0  0  0  0  0  0  0
   44.2318   23.4982   37.3615 H   0  0  0  0  0  0  0  0  0  0  0  0
   42.9447   19.8317   37.2808 H   0  0  0  0  0  0  0  0  0  0  0  0
   36.9561   26.8241   34.0063 H   0  0  0  0  0  0  0  0  0  0  0  0
   38.5252   27.3614   33.0928 H   0  0  0  0  0  0  0  0  0  0  0  0
   35.4548   26.0004   32.3851 H   0  0  0  0  0  0  0  0  0  0  0  0
   37.8791   23.5633   29.9399 H   0  0  0  0  0  0  0  0  0  0  0  0
   39.3337   24.7534   31.6488 H   0  0  0  0  0  0  0  0  0  0  0  0
  1 22  1  6
  1  6  1  0
  1  8  1  0
  2  3  2  0
  3  4  1  0
  5  4  2  0
  6  5  1  0
  7  2  1  0
  7  6  2  0
  9 10  1  0
  9  1  1  0
 10 11  1  0
 11 16  2  0
 12 13  2  0
 12 11  1  0
 13 14  1  0
 14 15  2  0
 16 15  1  0
 16 17  1  0
 17 18  2  0
 18 19  1  0
 20 19  1  0
 21 17  1  0
 21 20  2  0
 23 22  1  0
 24 23  2  0
 25 24  1  0
 26 25  2  0
 26 27  1  0
 27 23  1  0
  2 28  1  0
  3 29  1  0
  4 30  1  0
  8 31  1  0
  8 32  1  0
  8 33  1  0
  9 34  1  0
  9 35  1  0
 10 36  1  0
 12 37  1  0
 13 38  1  0
 14 39  1  0
 15 40  1  0
 20 41  1  0
 22 42  1  0
 22 43  1  0
 24 44  1  0
 26 45  1  0
 27 46  1  0
M  ISO  8  28  14  29  14  30  14  31   8  32   8  33   8  34   8  35   8
M  ISO  8  37  14  38  14  39  14  40  14  41  14  42   8  43   8  44  14
M  ISO  2  45  14  46   9
M  END
>  <minimizedAffinity>  (1) 
-5.32944727

>  <minimizedRMSD>  (1) 
1.06955338

$$$$
