
     RDKit          3D

 45 48  0  0  1  0  0  0  0  0999 V2000
   38.7850   26.1680   34.7130 C   0  0  1  0  0  0  0  0  0  0  0  0
   37.9030   22.6780   35.1790 C   0  0  0  0  0  0  0  0  0  0  0  0
   37.6050   22.5590   36.5140 C   0  0  0  0  0  0  0  0  0  0  0  0
   37.6980   23.7070   37.3100 C   0  0  0  0  0  0  0  0  0  0  0  0
   38.0780   24.8500   36.6920 N   0  0  0  0  0  0  0  0  0  0  0  0
   38.3660   24.9480   35.3750 C   0  0  0  0  0  0  0  0  0  0  0  0
   38.2630   23.8380   34.6720 N   0  0  0  0  0  0  0  0  0  0  0  0
   38.7960   27.3250   35.7560 C   0  0  0  0  0  0  0  0  0  0  0  0
   40.2040   26.1120   34.1860 C   0  0  0  0  0  0  0  0  0  0  0  0
   40.8780   24.8980   34.6560 N   0  0  0  0  0  0  0  0  0  0  0  0
   42.2150   24.9720   35.0780 C   0  0  0  0  0  0  0  0  0  0  0  0
   43.1780   25.8660   34.6140 C   0  0  0  0  0  0  0  0  0  0  0  0
   44.4970   25.9970   35.0480 C   0  0  0  0  0  0  0  0  0  0  0  0
   44.8490   25.1230   36.0570 C   0  0  0  0  0  0  0  0  0  0  0  0
   43.9080   24.2030   36.5520 C   0  0  0  0  0  0  0  0  0  0  0  0
   42.5880   24.1190   36.0630 C   0  0  0  0  0  0  0  0  0  0  0  0
   42.0400   22.9780   36.7390 C   0  0  0  0  0  0  0  0  0  0  0  0
   41.0760   22.4280   37.4330 N   0  0  0  0  0  0  0  0  0  0  0  0
   41.3030   21.1760   37.7270 O   0  0  0  0  0  0  0  0  0  0  0  0
   42.4660   20.8330   37.2210 C   0  0  0  0  0  0  0  0  0  0  0  0
   42.9330   21.9230   36.6110 N   0  0  0  0  0  0  0  0  0  0  0  0
   37.8780   26.5800   33.6330 C   0  0  0  0  0  0  0  0  0  0  0  0
   37.5730   25.6400   32.5540 C   0  0  0  0  0  0  0  0  0  0  0  0
   38.5840   25.3190   31.6110 C   0  0  0  0  0  0  0  0  0  0  0  0
   37.7990   24.1910   30.4490 S   0  0  0  0  0  0  0  0  0  0  0  0
   36.1700   24.3090   31.4170 C   0  0  0  0  0  0  0  0  0  0  0  0
   36.4760   25.0110   32.2310 N   0  0  0  0  0  0  0  0  0  0  0  0
   37.8402   21.7947   34.5264 H   0  0  0  0  0  0  0  0  0  0  0  0
   37.3029   21.5928   36.9443 H   0  0  0  0  0  0  0  0  0  0  0  0
   37.4730   23.6815   38.3864 H   0  0  0  0  0  0  0  0  0  0  0  0
   38.7920   26.9030   36.7718 H   0  0  0  0  0  0  0  0  0  0  0  0
   39.7000   27.9360   35.6163 H   0  0  0  0  0  0  0  0  0  0  0  0
   37.9038   27.9531   35.6163 H   0  0  0  0  0  0  0  0  0  0  0  0
   40.7572   26.9939   34.5412 H   0  0  0  0  0  0  0  0  0  0  0  0
   40.1752   26.1003   33.0864 H   0  0  0  0  0  0  0  0  0  0  0  0
   40.3754   23.9992   34.6764 H   0  0  0  0  0  0  0  0  0  0  0  0
   42.8608   26.5482   33.8115 H   0  0  0  0  0  0  0  0  0  0  0  0
   45.1959   26.7326   34.6233 H   0  0  0  0  0  0  0  0  0  0  0  0
   45.8666   25.1464   36.4741 H   0  0  0  0  0  0  0  0  0  0  0  0
   44.2151   23.5184   37.3564 H   0  0  0  0  0  0  0  0  0  0  0  0
   42.9539   19.8494   37.2870 H   0  0  0  0  0  0  0  0  0  0  0  0
   36.9209   26.8494   34.1035 H   0  0  0  0  0  0  0  0  0  0  0  0
   38.4273   27.3873   33.1265 H   0  0  0  0  0  0  0  0  0  0  0  0
   39.6225   25.6812   31.5941 H   0  0  0  0  0  0  0  0  0  0  0  0
   35.2005   23.8242   31.2298 H   0  0  0  0  0  0  0  0  0  0  0  0
  1 22  1  6
  1  6  1  0
  1  8  1  0
  2  3  2  0
  3  4  1  0
  5  4  2  0
  6  5  1  0
  7  2  1  0
  7  6  2  0
  9 10  1  0
  9  1  1  0
 10 11  1  0
 11 16  2  0
 12 13  2  0
 12 11  1  0
 13 14  1  0
 14 15  2  0
 16 15  1  0
 16 17  1  0
 17 18  2  0
 18 19  1  0
 20 19  1  0
 21 17  1  0
 21 20  2  0
 23 22  1  0
 24 23  2  0
 25 26  1  0
 25 24  1  0
 26 27  2  0
 27 23  1  0
  2 28  1  0
  3 29  1  0
  4 30  1  0
  8 31  1  0
  8 32  1  0
  8 33  1  0
  9 34  1  0
  9 35  1  0
 10 36  1  0
 12 37  1  0
 13 38  1  0
 14 39  1  0
 15 40  1  0
 20 41  1  0
 22 42  1  0
 22 43  1  0
 24 44  1  0
 26 45  1  0
M  ISO  8  28  14  29  14  30  14  31   8  32   8  33   8  34   8  35   8
M  ISO  8  37  14  38  14  39  14  40  14  41  14  42   8  43   8  44  14
M  ISO  1  45  14
M  END
>  <minimizedAffinity>  (1) 
-5.31389618

>  <minimizedRMSD>  (1) 
1.10121059

$$$$
