
     RDKit          3D

 45 48  0  0  1  0  0  0  0  0999 V2000
   38.8000   26.0610   34.5610 C   0  0  1  0  0  0  0  0  0  0  0  0
   37.8750   22.5920   35.0580 C   0  0  0  0  0  0  0  0  0  0  0  0
   37.5850   22.4830   36.3860 C   0  0  0  0  0  0  0  0  0  0  0  0
   37.6990   23.6380   37.1820 C   0  0  0  0  0  0  0  0  0  0  0  0
   38.0900   24.7690   36.5520 N   0  0  0  0  0  0  0  0  0  0  0  0
   38.3730   24.8570   35.2390 C   0  0  0  0  0  0  0  0  0  0  0  0
   38.2480   23.7450   34.5470 N   0  0  0  0  0  0  0  0  0  0  0  0
   38.9370   27.2070   35.6150 C   0  0  0  0  0  0  0  0  0  0  0  0
   40.1850   25.9580   33.9480 C   0  0  0  0  0  0  0  0  0  0  0  0
   40.8940   24.7900   34.4860 N   0  0  0  0  0  0  0  0  0  0  0  0
   42.2050   24.9430   34.9710 C   0  0  0  0  0  0  0  0  0  0  0  0
   43.1490   25.8610   34.5220 C   0  0  0  0  0  0  0  0  0  0  0  0
   44.4360   26.0690   35.0190 C   0  0  0  0  0  0  0  0  0  0  0  0
   44.7690   25.2500   36.0790 C   0  0  0  0  0  0  0  0  0  0  0  0
   43.8460   24.3050   36.5650 C   0  0  0  0  0  0  0  0  0  0  0  0
   42.5570   24.1450   36.0090 C   0  0  0  0  0  0  0  0  0  0  0  0
   42.0220   23.0110   36.7040 C   0  0  0  0  0  0  0  0  0  0  0  0
   41.0710   22.4670   37.4180 N   0  0  0  0  0  0  0  0  0  0  0  0
   41.3110   21.2190   37.7260 O   0  0  0  0  0  0  0  0  0  0  0  0
   42.4670   20.8740   37.2110 C   0  0  0  0  0  0  0  0  0  0  0  0
   42.9180   21.9590   36.5820 N   0  0  0  0  0  0  0  0  0  0  0  0
   37.8560   26.5280   33.5370 C   0  0  0  0  0  0  0  0  0  0  0  0
   37.4910   25.6820   32.4590 N   0  0  0  0  0  0  0  0  0  0  0  0
   38.3870   25.4290   31.4500 C   0  0  0  0  0  0  0  0  0  0  0  0
   37.7940   24.5970   30.5490 N   0  0  0  0  0  0  0  0  0  0  0  0
   36.5670   24.3630   31.0180 C   0  0  0  0  0  0  0  0  0  0  0  0
   36.3780   25.0210   32.1810 N   0  0  0  0  0  0  0  0  0  0  0  0
   37.7963   21.7078   34.4084 H   0  0  0  0  0  0  0  0  0  0  0  0
   37.2718   21.5226   36.8214 H   0  0  0  0  0  0  0  0  0  0  0  0
   37.4815   23.6217   38.2602 H   0  0  0  0  0  0  0  0  0  0  0  0
   38.8861   26.7814   36.6281 H   0  0  0  0  0  0  0  0  0  0  0  0
   39.9024   27.7164   35.4794 H   0  0  0  0  0  0  0  0  0  0  0  0
   38.1189   27.9297   35.4794 H   0  0  0  0  0  0  0  0  0  0  0  0
   40.7549   26.8689   34.1836 H   0  0  0  0  0  0  0  0  0  0  0  0
   40.0869   25.8467   32.8581 H   0  0  0  0  0  0  0  0  0  0  0  0
   40.4356   23.8679   34.5079 H   0  0  0  0  0  0  0  0  0  0  0  0
   42.8455   26.4966   33.6771 H   0  0  0  0  0  0  0  0  0  0  0  0
   45.1244   26.8193   34.6029 H   0  0  0  0  0  0  0  0  0  0  0  0
   45.7610   25.3363   36.5464 H   0  0  0  0  0  0  0  0  0  0  0  0
   44.1397   23.6660   37.4108 H   0  0  0  0  0  0  0  0  0  0  0  0
   42.9610   19.8938   37.2832 H   0  0  0  0  0  0  0  0  0  0  0  0
   36.9254   26.7903   34.0616 H   0  0  0  0  0  0  0  0  0  0  0  0
   38.4088   27.3391   33.0405 H   0  0  0  0  0  0  0  0  0  0  0  0
   39.4091   25.8297   31.3809 H   0  0  0  0  0  0  0  0  0  0  0  0
   35.8171   23.7253   30.5271 H   0  0  0  0  0  0  0  0  0  0  0  0
  1 22  1  6
  1  6  1  0
  1  8  1  0
  2  3  2  0
  3  4  1  0
  5  4  2  0
  6  5  1  0
  7  2  1  0
  7  6  2  0
  9 10  1  0
  9  1  1  0
 10 11  1  0
 11 16  1  0
 12 11  2  0
 12 13  1  0
 13 14  2  0
 14 15  1  0
 16 15  2  0
 16 17  1  0
 17 18  2  0
 18 19  1  0
 20 19  1  0
 21 17  1  0
 21 20  2  0
 23 22  1  0
 24 23  1  0
 25 26  1  0
 25 24  2  0
 26 27  2  0
 27 23  1  0
  2 28  1  0
  3 29  1  0
  4 30  1  0
  8 31  1  0
  8 32  1  0
  8 33  1  0
  9 34  1  0
  9 35  1  0
 10 36  1  0
 12 37  1  0
 13 38  1  0
 14 39  1  0
 15 40  1  0
 20 41  1  0
 22 42  1  0
 22 43  1  0
 24 44  1  0
 26 45  1  0
M  ISO  8  28  14  29  14  30  14  31   8  32   8  33   8  34   8  35   8
M  ISO  8  37  14  38  14  39  14  40  14  41  14  42   8  43   8  44  14
M  ISO  1  45  14
M  END
>  <minimizedAffinity>  (1) 
-5.21516657

>  <minimizedRMSD>  (1) 
1.18753541

$$$$
