
     RDKit          3D

 41 43  0  0  1  0  0  0  0  0999 V2000
   40.4340   26.4650   34.8220 C   0  0  0  0  0  0  0  0  0  0  0  0
   41.0860   25.1540   34.8200 N   0  0  0  0  0  0  0  0  0  0  0  0
   42.4370   25.0640   35.1900 C   0  0  0  0  0  0  0  0  0  0  0  0
   43.4720   25.8800   34.7310 C   0  0  0  0  0  0  0  0  0  0  0  0
   44.8110   25.8560   35.1150 C   0  0  0  0  0  0  0  0  0  0  0  0
   45.1070   24.8980   36.0670 C   0  0  0  0  0  0  0  0  0  0  0  0
   44.0960   24.0550   36.5570 C   0  0  0  0  0  0  0  0  0  0  0  0
   42.7580   24.1290   36.1170 C   0  0  0  0  0  0  0  0  0  0  0  0
   42.1220   23.0170   36.7610 C   0  0  0  0  0  0  0  0  0  0  0  0
   41.1080   22.5220   37.4290 N   0  0  0  0  0  0  0  0  0  0  0  0
   41.2500   21.2550   37.6990 O   0  0  0  0  0  0  0  0  0  0  0  0
   42.3950   20.8390   37.2100 C   0  0  0  0  0  0  0  0  0  0  0  0
   42.9460   21.9090   36.6290 N   0  0  0  0  0  0  0  0  0  0  0  0
   38.9250   26.3470   34.8810 C   0  0  1  0  0  0  0  0  0  0  0  0
   37.9880   22.8500   35.1810 C   0  0  0  0  0  0  0  0  0  0  0  0
   37.6770   22.6740   36.4970 C   0  0  0  0  0  0  0  0  0  0  0  0
   37.7790   23.7780   37.3350 C   0  0  0  0  0  0  0  0  0  0  0  0
   38.1820   24.9380   36.7670 N   0  0  0  0  0  0  0  0  0  0  0  0
   38.4870   25.0960   35.4590 C   0  0  0  0  0  0  0  0  0  0  0  0
   38.3700   24.0260   34.7300 N   0  0  0  0  0  0  0  0  0  0  0  0
   38.4450   27.5270   35.7460 C   0  0  0  0  0  0  0  0  0  0  0  0
   38.3800   26.5400   33.5120 C   0  0  0  0  0  0  0  0  0  0  0  0
   39.2070   25.9840   32.4730 N   0  0  0  0  0  0  0  0  0  0  0  0
   40.7128   27.0019   33.9033 H   0  0  0  0  0  0  0  0  0  0  0  0
   40.7679   27.0097   35.7174 H   0  0  0  0  0  0  0  0  0  0  0  0
   40.5608   24.3098   34.5509 H   0  0  0  0  0  0  0  0  0  0  0  0
   43.1979   26.6317   33.9761 H   0  0  0  0  0  0  0  0  0  0  0  0
   45.5658   26.5387   34.6978 H   0  0  0  0  0  0  0  0  0  0  0  0
   46.1363   24.7958   36.4414 H   0  0  0  0  0  0  0  0  0  0  0  0
   44.3592   23.3045   37.3169 H   0  0  0  0  0  0  0  0  0  0  0  0
   42.8131   19.8231   37.2666 H   0  0  0  0  0  0  0  0  0  0  0  0
   37.9188   21.9987   34.4879 H   0  0  0  0  0  0  0  0  0  0  0  0
   37.3571   21.6942   36.8812 H   0  0  0  0  0  0  0  0  0  0  0  0
   37.5436   23.7120   38.4075 H   0  0  0  0  0  0  0  0  0  0  0  0
   38.5502   27.2683   36.8100 H   0  0  0  0  0  0  0  0  0  0  0  0
   39.0529   28.4162   35.5230 H   0  0  0  0  0  0  0  0  0  0  0  0
   37.3890   27.7394   35.5230 H   0  0  0  0  0  0  0  0  0  0  0  0
   37.3912   26.0608   33.4618 H   0  0  0  0  0  0  0  0  0  0  0  0
   38.3319   27.6249   33.3366 H   0  0  0  0  0  0  0  0  0  0  0  0
   39.9858   25.4604   32.8974 H   0  0  0  0  0  0  0  0  0  0  0  0
   38.6442   25.3490   31.8891 H   0  0  0  0  0  0  0  0  0  0  0  0
 14  1  1  6
  2  1  1  0
  2  3  1  0
  3  8  2  0
  4  5  2  0
  4  3  1  0
  5  6  1  0
  6  7  2  0
  8  7  1  0
  8  9  1  0
  9 10  2  0
 10 11  1  0
 12 11  1  0
 13  9  1  0
 13 12  2  0
 14 22  1  0
 14 19  1  0
 14 21  1  0
 15 16  2  0
 16 17  1  0
 18 17  2  0
 19 18  1  0
 20 15  1  0
 20 19  2  0
 23 22  1  0
  1 24  1  0
  1 25  1  0
  2 26  1  0
  4 27  1  0
  5 28  1  0
  6 29  1  0
  7 30  1  0
 12 31  1  0
 15 32  1  0
 16 33  1  0
 17 34  1  0
 21 35  1  0
 21 36  1  0
 21 37  1  0
 22 38  1  0
 22 39  1  0
 23 40  1  0
 23 41  1  0
M  ISO  8  24   8  25   8  27  14  28  14  29  14  30  14  31  14  32  14
M  ISO  8  33  14  34  14  35   8  36   8  37   8  38   8  39   8  40   5
M  ISO  1  41   5
M  END
>  <minimizedAffinity>  (1) 
-4.84263945

>  <minimizedRMSD>  (1) 
0.564873457

$$$$
