
     RDKit          3D

 40 42  0  0  1  0  0  0  0  0999 V2000
   40.0410   26.3150   34.6950 C   0  0  0  0  0  0  0  0  0  0  0  0
   40.7280   25.0320   34.8570 N   0  0  0  0  0  0  0  0  0  0  0  0
   42.1100   25.0170   35.1060 C   0  0  0  0  0  0  0  0  0  0  0  0
   43.0490   25.8830   34.5420 C   0  0  0  0  0  0  0  0  0  0  0  0
   44.4190   25.9320   34.8000 C   0  0  0  0  0  0  0  0  0  0  0  0
   44.8550   25.0020   35.7260 C   0  0  0  0  0  0  0  0  0  0  0  0
   43.9410   24.1140   36.3130 C   0  0  0  0  0  0  0  0  0  0  0  0
   42.5660   24.1130   36.0030 C   0  0  0  0  0  0  0  0  0  0  0  0
   42.0550   22.9760   36.7120 C   0  0  0  0  0  0  0  0  0  0  0  0
   41.1340   22.4320   37.4680 N   0  0  0  0  0  0  0  0  0  0  0  0
   41.3730   21.1800   37.7450 O   0  0  0  0  0  0  0  0  0  0  0  0
   42.5000   20.8270   37.1640 C   0  0  0  0  0  0  0  0  0  0  0  0
   42.9320   21.9160   36.5250 N   0  0  0  0  0  0  0  0  0  0  0  0
   38.5690   26.2200   35.0380 C   0  0  1  0  0  0  0  0  0  0  0  0
   37.7470   22.8900   36.2390 C   0  0  0  0  0  0  0  0  0  0  0  0
   37.7050   23.0120   37.6040 C   0  0  0  0  0  0  0  0  0  0  0  0
   37.9570   24.2610   38.1480 C   0  0  0  0  0  0  0  0  0  0  0  0
   38.2270   25.2620   37.2760 N   0  0  0  0  0  0  0  0  0  0  0  0
   38.2670   25.1340   35.9370 C   0  0  0  0  0  0  0  0  0  0  0  0
   38.0190   23.9330   35.4820 N   0  0  0  0  0  0  0  0  0  0  0  0
   38.1920   27.5610   35.6780 C   0  0  0  0  0  0  0  0  0  0  0  0
   37.8040   26.1020   33.7570 C   0  0  0  0  0  0  0  0  0  0  0  0
   38.4530   25.3260   32.8050 O   0  0  0  0  0  0  0  0  0  0  0  0
   40.5125   27.0560   35.3573 H   0  0  0  0  0  0  0  0  0  0  0  0
   40.1244   26.6131   33.6395 H   0  0  0  0  0  0  0  0  0  0  0  0
   40.2025   24.1488   34.7890 H   0  0  0  0  0  0  0  0  0  0  0  0
   42.6645   26.6094   33.8109 H   0  0  0  0  0  0  0  0  0  0  0  0
   45.0942   26.6485   34.3093 H   0  0  0  0  0  0  0  0  0  0  0  0
   45.9188   24.9584   36.0024 H   0  0  0  0  0  0  0  0  0  0  0  0
   44.3142   23.3859   37.0482 H   0  0  0  0  0  0  0  0  0  0  0  0
   42.9847   19.8401   37.1980 H   0  0  0  0  0  0  0  0  0  0  0  0
   37.5520   21.9132   35.7723 H   0  0  0  0  0  0  0  0  0  0  0  0
   37.4789   22.1475   38.2455 H   0  0  0  0  0  0  0  0  0  0  0  0
   37.9387   24.4315   39.2346 H   0  0  0  0  0  0  0  0  0  0  0  0
   38.2190   27.4649   36.7735 H   0  0  0  0  0  0  0  0  0  0  0  0
   38.9079   28.3332   35.3599 H   0  0  0  0  0  0  0  0  0  0  0  0
   37.1786   27.8471   35.3599 H   0  0  0  0  0  0  0  0  0  0  0  0
   36.8267   25.6460   33.9735 H   0  0  0  0  0  0  0  0  0  0  0  0
   37.7022   27.1151   33.3408 H   0  0  0  0  0  0  0  0  0  0  0  0
   39.0175   24.6510   33.2586 H   0  0  0  0  0  0  0  0  0  0  0  0
  1  2  1  0
 14  1  1  6
  2  3  1  0
  3  8  2  0
  4  5  2  0
  4  3  1  0
  5  6  1  0
  6  7  2  0
  8  7  1  0
  8  9  1  0
  9 10  2  0
 10 11  1  0
 12 11  1  0
 13  9  1  0
 13 12  2  0
 14 22  1  0
 14 21  1  0
 14 19  1  0
 15 16  2  0
 16 17  1  0
 18 17  2  0
 19 18  1  0
 20 19  2  0
 20 15  1  0
 23 22  1  0
  1 24  1  0
  1 25  1  0
  2 26  1  0
  4 27  1  0
  5 28  1  0
  6 29  1  0
  7 30  1  0
 12 31  1  0
 15 32  1  0
 16 33  1  0
 17 34  1  0
 21 35  1  0
 21 36  1  0
 21 37  1  0
 22 38  1  0
 22 39  1  0
 23 40  1  0
M  ISO  8  24   8  25   8  27  14  28  14  29  14  30  14  31  14  32  14
M  ISO  8  33  14  34  14  35   8  36   8  37   8  38   8  39   8  40   3
M  END
>  <minimizedAffinity>  (1) 
-4.78526497

>  <minimizedRMSD>  (1) 
0.221756458

$$$$
