
     RDKit          3D

 23 24  0  0  0  0  0  0  0  0999 V2000
   38.0070   26.7800   35.3670 C   0  0  0  0  0  0  0  0  0  0  0  0
   38.6660   27.4540   36.1950 O   0  0  0  0  0  0  0  0  0  0  0  0
   38.1430   27.5630   31.6700 C   0  0  0  0  0  0  0  0  0  0  0  0
   38.5550   27.0630   32.9090 C   0  0  0  0  0  0  0  0  0  0  0  0
   37.7080   27.2480   34.0090 C   0  0  0  0  0  0  0  0  0  0  0  0
   36.5370   27.8980   33.8120 N   0  0  0  0  0  0  0  0  0  0  0  0
   36.1640   28.3700   32.6050 C   0  0  0  0  0  0  0  0  0  0  0  0
   36.9630   28.2040   31.5310 N   0  0  0  0  0  0  0  0  0  0  0  0
   37.5650   25.5480   35.7990 O   0  0  0  0  0  0  0  0  0  0  0  0
   38.3640   24.6030   36.4300 C   0  0  0  0  0  0  0  0  0  0  0  0
   39.4370   23.9630   35.8480 C   0  0  0  0  0  0  0  0  0  0  0  0
   40.1450   23.0350   36.6100 C   0  0  0  0  0  0  0  0  0  0  0  0
   39.7550   22.7890   37.9090 C   0  0  0  0  0  0  0  0  0  0  0  0
   38.6710   23.4330   38.5000 C   0  0  0  0  0  0  0  0  0  0  0  0
   37.9750   24.3470   37.7450 C   0  0  0  0  0  0  0  0  0  0  0  0
   38.7925   27.4316   30.7920 H   0  0  0  0  0  0  0  0  0  0  0  0
   39.5164   26.5395   33.0167 H   0  0  0  0  0  0  0  0  0  0  0  0
   35.2027   28.8934   32.4957 H   0  0  0  0  0  0  0  0  0  0  0  0
   39.7271   24.1789   34.8092 H   0  0  0  0  0  0  0  0  0  0  0  0
   41.0066   22.5041   36.1789 H   0  0  0  0  0  0  0  0  0  0  0  0
   40.3218   22.0558   38.5015 H   0  0  0  0  0  0  0  0  0  0  0  0
   38.3806   23.2171   39.5388 H   0  0  0  0  0  0  0  0  0  0  0  0
   37.1126   24.8757   38.1771 H   0  0  0  0  0  0  0  0  0  0  0  0
  1  9  1  0
  1  2  2  0
  3  4  2  0
  4  5  1  0
  5  1  1  0
  6  5  2  0
  7  6  1  0
  8  3  1  0
  8  7  2  0
  9 10  1  0
 10 15  1  0
 11 10  2  0
 11 12  1  0
 12 13  2  0
 13 14  1  0
 15 14  2  0
  3 16  1  0
  4 17  1  0
  7 18  1  0
 11 19  1  0
 12 20  1  0
 13 21  1  0
 14 22  1  0
 15 23  1  0
M  ISO  8  16  14  17  14  18  14  19  14  20  14  21  14  22  14  23  14
M  END
>  <minimizedAffinity>  (1) 
-4.41705275

>  <minimizedRMSD>  (1) 
5.95291758

$$$$
