
     RDKit          3D

 34 37  0  0  0  0  0  0  0  0999 V2000
   41.4180   27.4270   33.2790 C   0  0  0  0  0  0  0  0  0  0  0  0
   41.0860   27.2420   31.9370 C   0  0  0  0  0  0  0  0  0  0  0  0
   40.1460   26.2510   31.6310 C   0  0  0  0  0  0  0  0  0  0  0  0
   39.6030   25.5180   32.6450 N   0  0  0  0  0  0  0  0  0  0  0  0
   39.9540   25.7300   33.9350 C   0  0  0  0  0  0  0  0  0  0  0  0
   40.8620   26.6860   34.2420 N   0  0  0  0  0  0  0  0  0  0  0  0
   39.3520   24.9320   34.9590 N   0  0  0  0  0  0  0  0  0  0  0  0
   38.0520   24.8900   35.2990 C   0  0  0  0  0  0  0  0  0  0  0  0
   37.9430   23.9970   36.3160 N   0  0  0  0  0  0  0  0  0  0  0  0
   39.1470   23.5050   36.5890 C   0  0  0  0  0  0  0  0  0  0  0  0
   39.6140   22.5720   37.5210 C   0  0  0  0  0  0  0  0  0  0  0  0
   40.9310   22.2750   37.5510 N   0  0  0  0  0  0  0  0  0  0  0  0
   41.7890   22.8670   36.6990 C   0  0  0  0  0  0  0  0  0  0  0  0
   41.4010   23.7810   35.7730 N   0  0  0  0  0  0  0  0  0  0  0  0
   40.0730   24.0930   35.7250 C   0  0  0  0  0  0  0  0  0  0  0  0
   41.7080   28.0570   30.9670 N   0  0  0  0  0  0  0  0  0  0  0  0
   43.0310   28.1560   31.0770 C   0  0  0  0  0  0  0  0  0  0  0  0
   43.7150   28.9480   30.1490 C   0  0  0  0  0  0  0  0  0  0  0  0
   43.0130   29.5910   29.1650 C   0  0  0  0  0  0  0  0  0  0  0  0
   43.5670   30.3180   28.2970 O   0  0  0  0  0  0  0  0  0  0  0  0
   41.6770   29.4720   29.0780 N   0  0  0  0  0  0  0  0  0  0  0  0
   41.0370   28.7000   29.9860 C   0  0  0  0  0  0  0  0  0  0  0  0
   39.7940   28.5860   29.9090 O   0  0  0  0  0  0  0  0  0  0  0  0
   45.2190   29.1160   30.2010 C   0  0  0  0  0  0  0  0  0  0  0  0
   42.1530   28.1991   33.5503 H   0  0  0  0  0  0  0  0  0  0  0  0
   39.8495   26.0661   30.5880 H   0  0  0  0  0  0  0  0  0  0  0  0
   37.2349   25.4673   34.8418 H   0  0  0  0  0  0  0  0  0  0  0  0
   38.9174   22.0866   38.2204 H   0  0  0  0  0  0  0  0  0  0  0  0
   42.8540   22.5976   36.7557 H   0  0  0  0  0  0  0  0  0  0  0  0
   43.5720   27.6288   31.8766 H   0  0  0  0  0  0  0  0  0  0  0  0
   41.1523   29.9577   28.3366 H   0  0  0  0  0  0  0  0  0  0  0  0
   45.5478   29.1527   31.2501 H   0  0  0  0  0  0  0  0  0  0  0  0
   45.7006   28.2661   29.6954 H   0  0  0  0  0  0  0  0  0  0  0  0
   45.5012   30.0513   29.6954 H   0  0  0  0  0  0  0  0  0  0  0  0
  1  6  2  0
  2  1  1  0
  3  2  2  0
  3  4  1  0
  4  5  2  0
  5  6  1  0
  5  7  1  0
  7  8  1  0
  7 15  1  0
  8  9  2  0
  9 10  1  0
 10 11  2  0
 11 12  1  0
 13 12  2  0
 14 13  1  0
 15 14  2  0
 15 10  1  0
 16 17  1  0
 16  2  1  0
 18 24  1  0
 18 17  2  0
 19 18  1  0
 20 19  2  0
 21 19  1  0
 21 22  1  0
 22 16  1  0
 23 22  2  0
  1 25  1  0
  3 26  1  0
  8 27  1  0
 11 28  1  0
 13 29  1  0
 17 30  1  0
 21 31  1  0
 24 32  1  0
 24 33  1  0
 24 34  1  0
M  ISO  8  25  14  26  14  27  14  28  14  29  14  30  14  31   9  32   8
M  ISO  2  33   8  34   8
M  END
>  <minimizedAffinity>  (1) 
-4.14232731

>  <minimizedRMSD>  (1) 
6.04238796

$$$$
