
     RDKit          3D

 24 26  0  0  0  0  0  0  0  0999 V2000
   38.5480   24.0340   36.0990 C   0  0  0  0  0  0  0  0  0  0  0  0
   37.9200   24.7120   36.9600 O   0  0  0  0  0  0  0  0  0  0  0  0
   41.3050   21.8050   37.3790 C   0  0  0  0  0  0  0  0  0  0  0  0
   40.0170   22.3130   37.2390 C   0  0  0  0  0  0  0  0  0  0  0  0
   39.8310   23.3880   36.3590 C   0  0  0  0  0  0  0  0  0  0  0  0
   40.9170   23.8680   35.6960 N   0  0  0  0  0  0  0  0  0  0  0  0
   42.1550   23.3500   35.8560 C   0  0  0  0  0  0  0  0  0  0  0  0
   42.3510   22.3050   36.7090 N   0  0  0  0  0  0  0  0  0  0  0  0
   37.9340   23.9370   34.8650 O   0  0  0  0  0  0  0  0  0  0  0  0
   36.6800   25.3670   30.6970 N   0  0  0  0  0  0  0  0  0  0  0  0
   36.2140   24.1230   30.9200 C   0  0  0  0  0  0  0  0  0  0  0  0
   36.6230   23.7780   32.1600 N   0  0  0  0  0  0  0  0  0  0  0  0
   37.3380   24.7860   32.7140 C   0  0  0  0  0  0  0  0  0  0  0  0
   37.9750   24.9660   33.9280 C   0  0  0  0  0  0  0  0  0  0  0  0
   38.6060   26.1330   34.1410 N   0  0  0  0  0  0  0  0  0  0  0  0
   38.6470   27.1330   33.2320 C   0  0  0  0  0  0  0  0  0  0  0  0
   38.0190   26.9340   32.0590 N   0  0  0  0  0  0  0  0  0  0  0  0
   37.3670   25.7870   31.7790 C   0  0  0  0  0  0  0  0  0  0  0  0
   41.4699   20.9615   38.0655 H   0  0  0  0  0  0  0  0  0  0  0  0
   39.1731   21.8852   37.8002 H   0  0  0  0  0  0  0  0  0  0  0  0
   43.0041   23.7715   35.2981 H   0  0  0  0  0  0  0  0  0  0  0  0
   36.5345   25.9121   29.8352 H   0  0  0  0  0  0  0  0  0  0  0  0
   35.6180   23.5093   30.2286 H   0  0  0  0  0  0  0  0  0  0  0  0
   39.1745   28.0748   33.4438 H   0  0  0  0  0  0  0  0  0  0  0  0
  1  5  1  0
  1  2  2  0
  4  3  2  0
  5  4  1  0
  6  7  1  0
  6  5  2  0
  7  8  2  0
  8  3  1  0
  9  1  1  0
 10 11  1  0
 10 18  1  0
 11 12  2  0
 12 13  1  0
 13 14  2  0
 14 15  1  0
 14  9  1  0
 16 15  2  0
 17 16  1  0
 18 17  2  0
 18 13  1  0
  3 19  1  0
  4 20  1  0
  7 21  1  0
 10 22  1  0
 11 23  1  0
 16 24  1  0
M  ISO  6  19  14  20  14  21  14  22   9  23  14  24  14
M  END
>  <minimizedAffinity>  (1) 
-4.16344118

>  <minimizedRMSD>  (1) 
6.78974152

$$$$
