
     RDKit          3D

 20 21  0  0  0  0  0  0  0  0999 V2000
   38.2390   23.7070   34.7650 C   0  0  0  0  0  0  0  0  0  0  0  0
   38.1160   24.7540   34.0770 O   0  0  0  0  0  0  0  0  0  0  0  0
   37.9590   24.2440   38.4800 C   0  0  0  0  0  0  0  0  0  0  0  0
   37.6470   24.3520   37.1230 C   0  0  0  0  0  0  0  0  0  0  0  0
   38.4420   23.6850   36.2040 C   0  0  0  0  0  0  0  0  0  0  0  0
   39.4980   22.9470   36.6510 N   0  0  0  0  0  0  0  0  0  0  0  0
   39.7760   22.8610   37.9830 C   0  0  0  0  0  0  0  0  0  0  0  0
   39.0190   23.5000   38.8910 N   0  0  0  0  0  0  0  0  0  0  0  0
   38.1660   22.5200   34.0270 O   0  0  0  0  0  0  0  0  0  0  0  0
   37.0860   21.6550   34.1430 C   0  0  0  0  0  0  0  0  0  0  0  0
   36.5050   21.1970   32.9880 C   0  0  0  0  0  0  0  0  0  0  0  0
   35.4640   20.3620   33.3820 C   0  0  0  0  0  0  0  0  0  0  0  0
   35.4430   20.3350   34.7370 N   0  0  0  0  0  0  0  0  0  0  0  0
   36.4250   21.1190   35.1860 N   0  0  0  0  0  0  0  0  0  0  0  0
   37.3400   24.7668   39.2240 H   0  0  0  0  0  0  0  0  0  0  0  0
   36.7884   24.9538   36.7904 H   0  0  0  0  0  0  0  0  0  0  0  0
   40.6331   22.2593   38.3196 H   0  0  0  0  0  0  0  0  0  0  0  0
   36.8023   21.4408   31.9574 H   0  0  0  0  0  0  0  0  0  0  0  0
   34.7796   19.8201   32.7127 H   0  0  0  0  0  0  0  0  0  0  0  0
   34.7826   19.8011   35.3199 H   0  0  0  0  0  0  0  0  0  0  0  0
  1  5  1  0
  2  1  2  0
  3  8  2  0
  4  3  1  0
  5  6  1  0
  5  4  2  0
  6  7  2  0
  7  8  1  0
  9 10  1  0
  9  1  1  0
 10 14  2  0
 11 12  2  0
 11 10  1  0
 12 13  1  0
 13 14  1  0
  3 15  1  0
  4 16  1  0
  7 17  1  0
 11 18  1  0
 12 19  1  0
 13 20  1  0
M  ISO  6  15  14  16  14  17  14  18  14  19  14  20   9
M  END
>  <minimizedAffinity>  (1) 
-3.97942019

>  <minimizedRMSD>  (1) 
5.01910543

$$$$
