
     RDKit          3D

 21 22  0  0  0  0  0  0  0  0999 V2000
   38.0240   26.2600   35.8680 C   0  0  0  0  0  0  0  0  0  0  0  0
   38.4280   27.4120   36.1910 O   0  0  0  0  0  0  0  0  0  0  0  0
   38.5680   23.3600   38.2190 C   0  0  0  0  0  0  0  0  0  0  0  0
   38.0410   24.5480   37.7210 C   0  0  0  0  0  0  0  0  0  0  0  0
   38.4910   25.0360   36.5000 C   0  0  0  0  0  0  0  0  0  0  0  0
   39.4470   24.3210   35.8230 N   0  0  0  0  0  0  0  0  0  0  0  0
   39.9430   23.1650   36.3330 C   0  0  0  0  0  0  0  0  0  0  0  0
   39.5160   22.6750   37.5240 N   0  0  0  0  0  0  0  0  0  0  0  0
   37.0870   26.2290   34.8540 O   0  0  0  0  0  0  0  0  0  0  0  0
   37.2800   26.9250   33.6670 C   0  0  0  0  0  0  0  0  0  0  0  0
   36.4580   27.9700   33.3050 C   0  0  0  0  0  0  0  0  0  0  0  0
   36.7120   28.6160   32.1080 C   0  0  0  0  0  0  0  0  0  0  0  0
   37.7340   28.2080   31.3540 N   0  0  0  0  0  0  0  0  0  0  0  0
   38.5470   27.1880   31.6920 C   0  0  0  0  0  0  0  0  0  0  0  0
   38.3140   26.5370   32.8680 N   0  0  0  0  0  0  0  0  0  0  0  0
   38.2142   22.9707   39.1850 H   0  0  0  0  0  0  0  0  0  0  0  0
   37.2748   25.0960   38.2890 H   0  0  0  0  0  0  0  0  0  0  0  0
   40.7085   22.6129   35.7679 H   0  0  0  0  0  0  0  0  0  0  0  0
   35.6231   28.2820   33.9497 H   0  0  0  0  0  0  0  0  0  0  0  0
   36.0795   29.4550   31.7824 H   0  0  0  0  0  0  0  0  0  0  0  0
   39.3776   26.8878   31.0363 H   0  0  0  0  0  0  0  0  0  0  0  0
  1  2  2  0
  1  5  1  0
  4  3  2  0
  5  4  1  0
  6  7  1  0
  6  5  2  0
  7  8  2  0
  8  3  1  0
  9  1  1  0
 10  9  1  0
 11 10  2  0
 12 11  1  0
 13 14  1  0
 13 12  2  0
 14 15  2  0
 15 10  1  0
  3 16  1  0
  4 17  1  0
  7 18  1  0
 11 19  1  0
 12 20  1  0
 14 21  1  0
M  ISO  6  16  14  17  14  18  14  19  14  20  14  21  14
M  END
>  <minimizedAffinity>  (1) 
-3.89819479

>  <minimizedRMSD>  (1) 
6.64006996

$$$$
