
     RDKit          3D

 20 21  0  0  0  0  0  0  0  0999 V2000
   38.1800   27.4230   31.9030 C   0  0  0  0  0  0  0  0  0  0  0  0
   38.4650   26.7880   33.1110 C   0  0  0  0  0  0  0  0  0  0  0  0
   37.7010   27.0890   34.2240 C   0  0  0  0  0  0  0  0  0  0  0  0
   36.6910   28.0050   34.0850 N   0  0  0  0  0  0  0  0  0  0  0  0
   36.4310   28.6090   32.9050 C   0  0  0  0  0  0  0  0  0  0  0  0
   37.1700   28.3250   31.8090 N   0  0  0  0  0  0  0  0  0  0  0  0
   37.8690   26.5160   35.5490 C   0  0  0  0  0  0  0  0  0  0  0  0
   38.4430   27.0910   36.5050 O   0  0  0  0  0  0  0  0  0  0  0  0
   37.3860   25.2480   35.8470 O   0  0  0  0  0  0  0  0  0  0  0  0
   38.0780   24.4250   36.7590 C   0  0  0  0  0  0  0  0  0  0  0  0
   39.1680   23.6320   36.4290 C   0  0  0  0  0  0  0  0  0  0  0  0
   39.5620   22.9800   37.6010 C   0  0  0  0  0  0  0  0  0  0  0  0
   38.6690   23.4310   38.5770 C   0  0  0  0  0  0  0  0  0  0  0  0
   37.8080   24.2850   38.0340 O   0  0  0  0  0  0  0  0  0  0  0  0
   38.7826   27.1896   31.0128 H   0  0  0  0  0  0  0  0  0  0  0  0
   39.2854   26.0583   33.1780 H   0  0  0  0  0  0  0  0  0  0  0  0
   35.6106   29.3385   32.8352 H   0  0  0  0  0  0  0  0  0  0  0  0
   39.6324   23.5352   35.4365 H   0  0  0  0  0  0  0  0  0  0  0  0
   40.3917   22.2689   37.7273 H   0  0  0  0  0  0  0  0  0  0  0  0
   38.6777   23.1255   39.6337 H   0  0  0  0  0  0  0  0  0  0  0  0
  1  2  2  0
  2  3  1  0
  3  7  1  0
  4  3  2  0
  5  4  1  0
  6  1  1  0
  6  5  2  0
  7  9  1  0
  7  8  2  0
  9 10  1  0
 10 14  1  0
 11 10  2  0
 11 12  1  0
 12 13  2  0
 14 13  1  0
  1 15  1  0
  2 16  1  0
  5 17  1  0
 11 18  1  0
 12 19  1  0
 13 20  1  0
M  ISO  6  15  14  16  14  17  14  18  14  19  14  20  14
M  END
>  <minimizedAffinity>  (1) 
-3.84666467

>  <minimizedRMSD>  (1) 
5.55724144

$$$$
