
     RDKit          3D

 16 16  0  0  0  0  0  0  0  0999 V2000
   40.9880   22.1610   37.4910 C   0  0  0  0  0  0  0  0  0  0  0  0
   39.7460   22.7900   37.5020 C   0  0  0  0  0  0  0  0  0  0  0  0
   39.4450   23.6970   36.5020 C   0  0  0  0  0  0  0  0  0  0  0  0
   40.3880   23.9400   35.5370 N   0  0  0  0  0  0  0  0  0  0  0  0
   41.5870   23.3190   35.5450 C   0  0  0  0  0  0  0  0  0  0  0  0
   41.8970   22.4300   36.5150 N   0  0  0  0  0  0  0  0  0  0  0  0
   38.1900   24.4230   36.3860 C   0  0  0  0  0  0  0  0  0  0  0  0
   37.1570   24.1670   37.0230 O   0  0  0  0  0  0  0  0  0  0  0  0
   38.0790   25.5040   35.5030 O   0  0  0  0  0  0  0  0  0  0  0  0
   38.4110   26.8120   35.9880 C   0  0  0  0  0  0  0  0  0  0  0  0
   38.2340   26.8750   37.3660 F   0  0  0  0  0  0  0  0  0  0  0  0
   39.6770   27.1910   35.6490 F   0  0  0  0  0  0  0  0  0  0  0  0
   37.5210   27.7520   35.4630 F   0  0  0  0  0  0  0  0  0  0  0  0
   41.2375   21.4376   38.2812 H   0  0  0  0  0  0  0  0  0  0  0  0
   39.0152   22.5690   38.2939 H   0  0  0  0  0  0  0  0  0  0  0  0
   42.3191   23.5388   34.7540 H   0  0  0  0  0  0  0  0  0  0  0  0
  1  2  2  0
  3  2  1  0
  4  5  1  0
  4  3  2  0
  5  6  2  0
  6  1  1  0
  7  3  1  0
  7  8  2  0
  9 10  1  0
  9  7  1  0
 10 11  1  0
 12 10  1  0
 13 10  1  0
  1 14  1  0
  2 15  1  0
  5 16  1  0
M  ISO  3  14  14  15  14  16  14
M  END
>  <minimizedAffinity>  (1) 
-3.81627774

>  <minimizedRMSD>  (1) 
4.00529909

$$$$
