
     RDKit          3D

 20 21  0  0  0  0  0  0  0  0999 V2000
   38.7060   22.8770   36.1540 C   0  0  0  0  0  0  0  0  0  0  0  0
   39.0770   22.7330   37.3490 O   0  0  0  0  0  0  0  0  0  0  0  0
   36.4850   21.1280   33.6710 C   0  0  0  0  0  0  0  0  0  0  0  0
   37.5570   21.8770   34.1520 C   0  0  0  0  0  0  0  0  0  0  0  0
   37.6460   22.1150   35.5200 C   0  0  0  0  0  0  0  0  0  0  0  0
   36.6780   21.6010   36.3360 N   0  0  0  0  0  0  0  0  0  0  0  0
   35.6560   20.8800   35.8340 C   0  0  0  0  0  0  0  0  0  0  0  0
   35.5500   20.6380   34.5040 N   0  0  0  0  0  0  0  0  0  0  0  0
   39.4110   23.8540   35.4580 O   0  0  0  0  0  0  0  0  0  0  0  0
   38.2680   27.1260   36.2830 N   0  0  0  0  0  0  0  0  0  0  0  0
   38.2730   25.8250   36.4870 N   0  0  0  0  0  0  0  0  0  0  0  0
   39.0970   25.2110   35.6110 C   0  0  0  0  0  0  0  0  0  0  0  0
   39.6670   26.1600   34.7860 C   0  0  0  0  0  0  0  0  0  0  0  0
   39.1140   27.3590   35.2460 C   0  0  0  0  0  0  0  0  0  0  0  0
   36.4022   20.9342   32.5914 H   0  0  0  0  0  0  0  0  0  0  0  0
   38.3183   22.2725   33.4635 H   0  0  0  0  0  0  0  0  0  0  0  0
   34.8923   20.4797   36.5171 H   0  0  0  0  0  0  0  0  0  0  0  0
   37.7282   27.8294   36.8072 H   0  0  0  0  0  0  0  0  0  0  0  0
   40.3833   26.0092   33.9649 H   0  0  0  0  0  0  0  0  0  0  0  0
   39.3333   28.3521   34.8268 H   0  0  0  0  0  0  0  0  0  0  0  0
  1  2  2  0
  3  4  2  0
  3  8  1  0
  4  5  1  0
  5  1  1  0
  5  6  2  0
  7  6  1  0
  8  7  2  0
  9 12  1  0
  9  1  1  0
 10 11  1  0
 12 11  2  0
 13 14  2  0
 13 12  1  0
 14 10  1  0
  3 15  1  0
  4 16  1  0
  7 17  1  0
 10 18  1  0
 13 19  1  0
 14 20  1  0
M  ISO  6  15  14  16  14  17  14  18   9  19  14  20  14
M  END
>  <minimizedAffinity>  (1) 
-3.77339458

>  <minimizedRMSD>  (1) 
5.30629349

$$$$
