
     RDKit          3D

 20 21  0  0  0  0  0  0  0  0999 V2000
   38.4670   23.3560   37.8190 C   0  0  0  0  0  0  0  0  0  0  0  0
   37.9720   24.6100   37.4070 C   0  0  0  0  0  0  0  0  0  0  0  0
   38.5270   25.1680   36.2560 C   0  0  0  0  0  0  0  0  0  0  0  0
   39.4980   24.4820   35.6090 N   0  0  0  0  0  0  0  0  0  0  0  0
   39.9530   23.2880   36.0220 C   0  0  0  0  0  0  0  0  0  0  0  0
   39.4330   22.7160   37.1410 N   0  0  0  0  0  0  0  0  0  0  0  0
   38.1300   26.4480   35.6990 C   0  0  0  0  0  0  0  0  0  0  0  0
   38.7740   27.5220   35.8350 O   0  0  0  0  0  0  0  0  0  0  0  0
   36.9560   26.5660   34.9460 O   0  0  0  0  0  0  0  0  0  0  0  0
   36.9770   26.7330   33.5710 C   0  0  0  0  0  0  0  0  0  0  0  0
   37.0070   27.7680   32.6750 C   0  0  0  0  0  0  0  0  0  0  0  0
   37.0150   27.2980   31.4140 N   0  0  0  0  0  0  0  0  0  0  0  0
   36.9890   25.9440   31.5330 C   0  0  0  0  0  0  0  0  0  0  0  0
   36.9650   25.5770   32.8470 N   0  0  0  0  0  0  0  0  0  0  0  0
   38.0494   22.8881   38.7227 H   0  0  0  0  0  0  0  0  0  0  0  0
   37.1809   25.1268   37.9701 H   0  0  0  0  0  0  0  0  0  0  0  0
   40.7443   22.7739   35.4567 H   0  0  0  0  0  0  0  0  0  0  0  0
   37.0224   28.8336   32.9475 H   0  0  0  0  0  0  0  0  0  0  0  0
   36.9875   25.2412   30.6868 H   0  0  0  0  0  0  0  0  0  0  0  0
   36.9423   24.6167   33.2188 H   0  0  0  0  0  0  0  0  0  0  0  0
  2  1  2  0
  3  2  1  0
  4  5  1  0
  4  3  2  0
  5  6  2  0
  6  1  1  0
  7  8  2  0
  7  3  1  0
  9  7  1  0
 10  9  1  0
 11 10  2  0
 12 13  2  0
 12 11  1  0
 13 14  1  0
 14 10  1  0
  1 15  1  0
  2 16  1  0
  5 17  1  0
 11 18  1  0
 13 19  1  0
 14 20  1  0
M  ISO  6  15  14  16  14  17  14  18  14  19  14  20   9
M  END
>  <minimizedAffinity>  (1) 
-3.67287612

>  <minimizedRMSD>  (1) 
6.1214962

$$$$
