
     RDKit          3D

 16 16  0  0  0  0  0  0  0  0999 V2000
   40.9250   21.8420   37.4720 C   0  0  0  0  0  0  0  0  0  0  0  0
   39.9400   22.8260   37.5400 C   0  0  0  0  0  0  0  0  0  0  0  0
   39.6290   23.5340   36.3780 C   0  0  0  0  0  0  0  0  0  0  0  0
   40.3030   23.2320   35.2280 N   0  0  0  0  0  0  0  0  0  0  0  0
   41.2560   22.2670   35.2020 C   0  0  0  0  0  0  0  0  0  0  0  0
   41.5670   21.5720   36.3290 N   0  0  0  0  0  0  0  0  0  0  0  0
   38.6180   24.5920   36.2970 C   0  0  0  0  0  0  0  0  0  0  0  0
   37.6930   24.7460   37.1380 O   0  0  0  0  0  0  0  0  0  0  0  0
   38.6420   25.5010   35.2490 O   0  0  0  0  0  0  0  0  0  0  0  0
   39.2630   26.7330   35.4190 C   0  0  0  0  0  0  0  0  0  0  0  0
   40.2950   27.0760   34.7790 O   0  0  0  0  0  0  0  0  0  0  0  0
   38.7290   27.6390   36.3370 O   0  0  0  0  0  0  0  0  0  0  0  0
   41.1806   21.2742   38.3788 H   0  0  0  0  0  0  0  0  0  0  0  0
   39.4207   23.0392   38.4860 H   0  0  0  0  0  0  0  0  0  0  0  0
   41.7816   22.0447   34.2616 H   0  0  0  0  0  0  0  0  0  0  0  0
   39.1593   28.5206   36.4699 H   0  0  0  0  0  0  0  0  0  0  0  0
  1  2  2  0
  3  2  1  0
  4  3  2  0
  5  4  1  0
  5  6  2  0
  6  1  1  0
  7  3  1  0
  7  8  2  0
  9 10  1  0
  9  7  1  0
 10 12  1  0
 11 10  2  0
  1 13  1  0
  2 14  1  0
  5 15  1  0
 12 16  1  0
M  ISO  4  13  14  14  14  15  14  16   3
M  END
>  <minimizedAffinity>  (1) 
-3.54004145

>  <minimizedRMSD>  (1) 
4.02162218

$$$$
