
     RDKit          3D

 22 22  0  0  0  0  0  0  0  0999 V2000
   41.0630   22.1020   37.4850 C   0  0  0  0  0  0  0  0  0  0  0  0
   39.7800   22.6460   37.4140 C   0  0  0  0  0  0  0  0  0  0  0  0
   39.5150   23.6120   36.4430 C   0  0  0  0  0  0  0  0  0  0  0  0
   40.5280   23.9880   35.5950 N   0  0  0  0  0  0  0  0  0  0  0  0
   41.7570   23.4280   35.7050 C   0  0  0  0  0  0  0  0  0  0  0  0
   42.0330   22.4930   36.6370 N   0  0  0  0  0  0  0  0  0  0  0  0
   38.2200   24.2630   36.2460 C   0  0  0  0  0  0  0  0  0  0  0  0
   37.2600   24.1630   37.0270 O   0  0  0  0  0  0  0  0  0  0  0  0
   38.0070   25.0620   35.1180 O   0  0  0  0  0  0  0  0  0  0  0  0
   37.5480   26.3860   35.3170 C   0  0  0  0  0  0  0  0  0  0  0  0
   37.0980   26.9660   33.9980 C   0  0  0  0  0  0  0  0  0  0  0  0
   38.7070   27.2240   35.8440 C   0  0  0  0  0  0  0  0  0  0  0  0
   41.2858   21.3405   38.2469 H   0  0  0  0  0  0  0  0  0  0  0  0
   38.9931   22.3196   38.1099 H   0  0  0  0  0  0  0  0  0  0  0  0
   42.5523   23.7451   35.0144 H   0  0  0  0  0  0  0  0  0  0  0  0
   36.7099   26.3875   36.0294 H   0  0  0  0  0  0  0  0  0  0  0  0
   36.4332   27.8229   34.1820 H   0  0  0  0  0  0  0  0  0  0  0  0
   37.9761   27.2995   33.4254 H   0  0  0  0  0  0  0  0  0  0  0  0
   36.5568   26.1983   33.4254 H   0  0  0  0  0  0  0  0  0  0  0  0
   38.6952   27.2155   36.9439 H   0  0  0  0  0  0  0  0  0  0  0  0
   39.6573   26.8028   35.4842 H   0  0  0  0  0  0  0  0  0  0  0  0
   38.6049   28.2585   35.4842 H   0  0  0  0  0  0  0  0  0  0  0  0
  2  1  2  0
  3  2  1  0
  4  5  1  0
  4  3  2  0
  5  6  2  0
  6  1  1  0
  7  3  1  0
  7  8  2  0
  9 10  1  0
  9  7  1  0
 10 12  1  0
 11 10  1  0
  1 13  1  0
  2 14  1  0
  5 15  1  0
 10 16  1  0
 11 17  1  0
 11 18  1  0
 11 19  1  0
 12 20  1  0
 12 21  1  0
 12 22  1  0
M  ISO  8  13  14  14  14  15  14  16   8  17   8  18   8  19   8  20   8
M  ISO  2  21   8  22   8
M  END
>  <minimizedAffinity>  (1) 
-3.42903852

>  <minimizedRMSD>  (1) 
3.67875719

$$$$
