
     RDKit          3D

 25 26  0  0  1  0  0  0  0  0999 V2000
   44.6630   23.8300   36.6420 C   0  0  0  0  0  0  0  0  0  0  0  0
   43.3150   23.8740   36.2960 C   0  0  0  0  0  0  0  0  0  0  0  0
   42.8650   24.8910   35.4650 C   0  0  0  0  0  0  0  0  0  0  0  0
   43.7730   25.8100   35.0210 N   0  0  0  0  0  0  0  0  0  0  0  0
   45.0730   25.7460   35.3690 C   0  0  0  0  0  0  0  0  0  0  0  0
   45.5270   24.7680   36.1730 N   0  0  0  0  0  0  0  0  0  0  0  0
   41.4890   25.0580   35.0270 C   0  0  0  0  0  0  0  0  0  0  0  0
   40.9840   26.1630   34.6890 O   0  0  0  0  0  0  0  0  0  0  0  0
   40.6180   23.9830   34.9490 O   0  0  0  0  0  0  0  0  0  0  0  0
   38.7460   24.8300   36.1370 N   0  0  0  0  0  0  0  0  0  0  0  0
   37.6550   24.2840   36.8940 C   0  0  0  0  0  0  0  0  0  0  0  0
   37.6390   22.7980   36.6540 C   0  0  0  0  0  0  0  0  0  0  0  0
   38.7090   22.6100   35.5990 C   0  0  0  0  0  0  0  0  0  0  0  0
   39.6630   23.7240   35.9450 C   0  0  1  0  0  0  0  0  0  0  0  0
   45.0314   23.0295   37.3003 H   0  0  0  0  0  0  0  0  0  0  0  0
   42.6165   23.1137   36.6757 H   0  0  0  0  0  0  0  0  0  0  0  0
   45.7734   26.5048   34.9900 H   0  0  0  0  0  0  0  0  0  0  0  0
   38.4139   25.1862   35.2294 H   0  0  0  0  0  0  0  0  0  0  0  0
   37.8000   24.4903   37.9647 H   0  0  0  0  0  0  0  0  0  0  0  0
   36.7020   24.7376   36.5839 H   0  0  0  0  0  0  0  0  0  0  0  0
   37.8887   22.2468   37.5726 H   0  0  0  0  0  0  0  0  0  0  0  0
   36.6537   22.4204   36.3432 H   0  0  0  0  0  0  0  0  0  0  0  0
   38.3002   22.7302   34.5849 H   0  0  0  0  0  0  0  0  0  0  0  0
   39.1667   21.6098   35.5945 H   0  0  0  0  0  0  0  0  0  0  0  0
   40.2955   23.4990   36.8164 H   0  0  0  0  0  0  0  0  0  0  0  0
  2  1  2  0
  3  2  1  0
  4  5  1  0
  4  3  2  0
  5  6  2  0
  6  1  1  0
  7  3  1  0
  8  7  2  0
  9  7  1  0
 10 11  1  0
 12 11  1  0
 13 14  1  0
 13 12  1  0
 14  9  1  0
 14 10  1  0
  1 15  1  0
  2 16  1  0
  5 17  1  0
 10 18  1  0
 11 19  1  0
 11 20  1  0
 12 21  1  0
 12 22  1  0
 13 23  1  0
 13 24  1  0
 14 25  1  1
M  ISO  8  15  14  16  14  17  14  18   5  19  13  20  13  21  13  22  13
M  ISO  3  23  13  24  13  25  13
M  END
>  <minimizedAffinity>  (1) 
-3.03950071

>  <minimizedRMSD>  (1) 
4.93837404

$$$$
