
     RDKit          3D

 36 39  0  0  0  0  0  0  0  0999 V2000
   36.6860   27.9580   33.4690 C   0  0  0  0  0  0  0  0  0  0  0  0
   37.5890   27.5250   32.5320 C   0  0  0  0  0  0  0  0  0  0  0  0
   37.6050   28.1410   31.2810 C   0  0  0  0  0  0  0  0  0  0  0  0
   36.7240   29.1730   30.9860 C   0  0  0  0  0  0  0  0  0  0  0  0
   35.8250   29.5990   31.9280 C   0  0  0  0  0  0  0  0  0  0  0  0
   35.8100   28.9920   33.1620 C   0  0  0  0  0  0  0  0  0  0  0  0
   34.8370   29.5000   34.0860 N   0  0  0  0  0  0  0  0  0  0  0  0
   33.5740   29.0700   34.2850 C   0  0  0  0  0  0  0  0  0  0  0  0
   33.0160   29.8470   35.2600 N   0  0  0  0  0  0  0  0  0  0  0  0
   33.9330   30.7370   35.6450 C   0  0  0  0  0  0  0  0  0  0  0  0
   33.9930   31.7550   36.5520 C   0  0  0  0  0  0  0  0  0  0  0  0
   35.0970   32.5190   36.7360 N   0  0  0  0  0  0  0  0  0  0  0  0
   36.2240   32.3170   36.0200 C   0  0  0  0  0  0  0  0  0  0  0  0
   36.1510   31.3160   35.1350 N   0  0  0  0  0  0  0  0  0  0  0  0
   35.0820   30.5390   34.9250 C   0  0  0  0  0  0  0  0  0  0  0  0
   32.8980   32.0770   37.3610 N   0  0  0  0  0  0  0  0  0  0  0  0
   36.6130   27.3900   34.7420 O   0  0  0  0  0  0  0  0  0  0  0  0
   37.7230   26.8720   35.3950 C   0  0  0  0  0  0  0  0  0  0  0  0
   38.5850   27.7220   35.7550 O   0  0  0  0  0  0  0  0  0  0  0  0
   37.9420   23.4460   36.9670 C   0  0  0  0  0  0  0  0  0  0  0  0
   37.8080   24.8350   36.8770 C   0  0  0  0  0  0  0  0  0  0  0  0
   37.8490   25.4430   35.6270 C   0  0  0  0  0  0  0  0  0  0  0  0
   38.0190   24.6490   34.5260 N   0  0  0  0  0  0  0  0  0  0  0  0
   38.1470   23.3080   34.6400 C   0  0  0  0  0  0  0  0  0  0  0  0
   38.1110   22.6980   35.8390 N   0  0  0  0  0  0  0  0  0  0  0  0
   38.2875   26.7072   32.7629 H   0  0  0  0  0  0  0  0  0  0  0  0
   38.3239   27.8055   30.5190 H   0  0  0  0  0  0  0  0  0  0  0  0
   36.7479   29.6491   29.9947 H   0  0  0  0  0  0  0  0  0  0  0  0
   35.1244   30.4159   31.7003 H   0  0  0  0  0  0  0  0  0  0  0  0
   33.0811   28.2410   33.7561 H   0  0  0  0  0  0  0  0  0  0  0  0
   37.1298   32.9267   36.1536 H   0  0  0  0  0  0  0  0  0  0  0  0
   32.9677   32.8499   38.0383 H   0  0  0  0  0  0  0  0  0  0  0  0
   32.0221   31.5412   37.2793 H   0  0  0  0  0  0  0  0  0  0  0  0
   37.9110   22.9549   37.9508 H   0  0  0  0  0  0  0  0  0  0  0  0
   37.6716   25.4403   37.7853 H   0  0  0  0  0  0  0  0  0  0  0  0
   38.2836   22.7019   33.7323 H   0  0  0  0  0  0  0  0  0  0  0  0
  1 17  1  0
  2  1  2  0
  3  2  1  0
  4  3  2  0
  4  5  1  0
  5  6  2  0
  6  1  1  0
  6  7  1  0
  7  8  1  0
  7 15  1  0
  8  9  2  0
  9 10  1  0
 10 11  2  0
 11 12  1  0
 11 16  1  0
 13 12  2  0
 14 13  1  0
 15 14  2  0
 15 10  1  0
 17 18  1  0
 18 22  1  0
 18 19  2  0
 21 20  2  0
 22 21  1  0
 23 24  1  0
 23 22  2  0
 24 25  2  0
 25 20  1  0
  2 26  1  0
  3 27  1  0
  4 28  1  0
  5 29  1  0
  8 30  1  0
 13 31  1  0
 16 32  1  0
 16 33  1  0
 20 34  1  0
 21 35  1  0
 24 36  1  0
M  ISO  8  26  14  27  14  28  14  29  14  30  14  31  14  34  14  35  14
M  ISO  1  36  14
M  END
>  <minimizedAffinity>  (1) 
-5.6103301

>  <minimizedRMSD>  (1) 
1.45380712

$$$$
