
     RDKit          3D

 36 38  0  0  0  0  0  0  0  0999 V2000
   36.8450   27.8560   33.3140 C   0  0  0  0  0  0  0  0  0  0  0  0
   37.6360   27.2720   32.3440 C   0  0  0  0  0  0  0  0  0  0  0  0
   37.7440   27.9140   31.1210 C   0  0  0  0  0  0  0  0  0  0  0  0
   37.0980   29.1000   30.8400 C   0  0  0  0  0  0  0  0  0  0  0  0
   36.3150   29.6670   31.8140 C   0  0  0  0  0  0  0  0  0  0  0  0
   36.1820   29.0590   33.0450 C   0  0  0  0  0  0  0  0  0  0  0  0
   35.3410   29.7560   33.9590 N   0  0  0  0  0  0  0  0  0  0  0  0
   35.6760   30.5940   34.9560 C   0  0  0  0  0  0  0  0  0  0  0  0
   34.6870   31.1660   35.7280 C   0  0  0  0  0  0  0  0  0  0  0  0
   35.1030   32.0840   36.8170 C   0  0  0  0  0  0  0  0  0  0  0  0
   33.3510   30.8970   35.5030 C   0  0  0  0  0  0  0  0  0  0  0  0
   32.4610   31.4220   36.2100 O   0  0  0  0  0  0  0  0  0  0  0  0
   33.0630   30.0510   34.4920 N   0  0  0  0  0  0  0  0  0  0  0  0
   34.0300   29.4780   33.7200 C   0  0  0  0  0  0  0  0  0  0  0  0
   33.5540   28.7220   32.8350 O   0  0  0  0  0  0  0  0  0  0  0  0
   36.6500   27.3130   34.5910 O   0  0  0  0  0  0  0  0  0  0  0  0
   37.7040   26.8420   35.3490 C   0  0  0  0  0  0  0  0  0  0  0  0
   38.5020   27.7140   35.7620 O   0  0  0  0  0  0  0  0  0  0  0  0
   37.9700   23.4640   37.0220 C   0  0  0  0  0  0  0  0  0  0  0  0
   37.8240   24.8390   36.8890 C   0  0  0  0  0  0  0  0  0  0  0  0
   37.8450   25.4140   35.6270 C   0  0  0  0  0  0  0  0  0  0  0  0
   38.0110   24.5800   34.5650 N   0  0  0  0  0  0  0  0  0  0  0  0
   38.1520   23.2410   34.7090 C   0  0  0  0  0  0  0  0  0  0  0  0
   38.1310   22.6760   35.9450 N   0  0  0  0  0  0  0  0  0  0  0  0
   38.1639   26.3264   32.5365 H   0  0  0  0  0  0  0  0  0  0  0  0
   38.3716   27.4586   30.3408 H   0  0  0  0  0  0  0  0  0  0  0  0
   37.2081   29.5807   29.8567 H   0  0  0  0  0  0  0  0  0  0  0  0
   35.7901   30.6123   31.6118 H   0  0  0  0  0  0  0  0  0  0  0  0
   36.7336   30.8220   35.1546 H   0  0  0  0  0  0  0  0  0  0  0  0
   34.8916   31.6176   37.7905 H   0  0  0  0  0  0  0  0  0  0  0  0
   36.1809   32.2868   36.7339 H   0  0  0  0  0  0  0  0  0  0  0  0
   34.5448   33.0282   36.7339 H   0  0  0  0  0  0  0  0  0  0  0  0
   32.0763   29.8299   34.2962 H   0  0  0  0  0  0  0  0  0  0  0  0
   37.9536   23.0127   38.0250 H   0  0  0  0  0  0  0  0  0  0  0  0
   37.6923   25.4692   37.7809 H   0  0  0  0  0  0  0  0  0  0  0  0
   38.2844   22.6066   33.8202 H   0  0  0  0  0  0  0  0  0  0  0  0
  1 16  1  0
  2  1  2  0
  3  2  1  0
  4  3  2  0
  4  5  1  0
  5  6  2  0
  6  1  1  0
  6  7  1  0
  7  8  1  0
  8  9  2  0
  9 10  1  0
 11  9  1  0
 11 12  2  0
 13 11  1  0
 14  7  1  0
 14 13  1  0
 15 14  2  0
 16 17  1  0
 17 21  1  0
 17 18  2  0
 20 19  2  0
 21 20  1  0
 22 23  1  0
 22 21  2  0
 23 24  2  0
 24 19  1  0
  2 25  1  0
  3 26  1  0
  4 27  1  0
  5 28  1  0
  8 29  1  0
 10 30  1  0
 10 31  1  0
 10 32  1  0
 13 33  1  0
 19 34  1  0
 20 35  1  0
 23 36  1  0
M  ISO  8  25  14  26  14  27  14  28  14  29  14  30   8  31   8  32   8
M  ISO  4  33   9  34  14  35  14  36  14
M  END
>  <minimizedAffinity>  (1) 
-5.57177973

>  <minimizedRMSD>  (1) 
1.61429119

$$$$
