
     RDKit          3D

 37 40  0  0  0  0  0  0  0  0999 V2000
   36.5280   27.9890   33.3840 C   0  0  0  0  0  0  0  0  0  0  0  0
   37.1520   27.3030   32.3560 C   0  0  0  0  0  0  0  0  0  0  0  0
   37.1510   27.8660   31.0840 C   0  0  0  0  0  0  0  0  0  0  0  0
   36.5440   29.0860   30.8250 C   0  0  0  0  0  0  0  0  0  0  0  0
   35.9230   29.7620   31.8570 C   0  0  0  0  0  0  0  0  0  0  0  0
   35.9160   29.2180   33.1220 C   0  0  0  0  0  0  0  0  0  0  0  0
   35.2860   29.8790   34.2300 N   0  0  0  0  0  0  0  0  0  0  0  0
   36.0170   30.7120   35.0150 C   0  0  0  0  0  0  0  0  0  0  0  0
   35.2510   31.2380   36.0040 N   0  0  0  0  0  0  0  0  0  0  0  0
   34.0180   30.7250   35.8370 C   0  0  0  0  0  0  0  0  0  0  0  0
   32.7940   30.8520   36.4950 C   0  0  0  0  0  0  0  0  0  0  0  0
   32.7570   31.6010   37.4790 O   0  0  0  0  0  0  0  0  0  0  0  0
   31.7480   30.1490   36.0060 N   0  0  0  0  0  0  0  0  0  0  0  0
   31.8050   29.3390   34.9330 C   0  0  0  0  0  0  0  0  0  0  0  0
   30.6170   28.6630   34.5360 N   0  0  0  0  0  0  0  0  0  0  0  0
   32.9890   29.1940   34.2680 N   0  0  0  0  0  0  0  0  0  0  0  0
   34.0450   29.8870   34.7410 C   0  0  0  0  0  0  0  0  0  0  0  0
   36.4980   27.4750   34.6740 O   0  0  0  0  0  0  0  0  0  0  0  0
   37.6330   27.0110   35.3210 C   0  0  0  0  0  0  0  0  0  0  0  0
   38.4860   27.8740   35.6340 O   0  0  0  0  0  0  0  0  0  0  0  0
   37.8500   23.6290   36.9940 C   0  0  0  0  0  0  0  0  0  0  0  0
   37.6950   24.9970   36.8580 C   0  0  0  0  0  0  0  0  0  0  0  0
   37.7770   25.5850   35.6010 C   0  0  0  0  0  0  0  0  0  0  0  0
   38.0140   24.7630   34.5270 N   0  0  0  0  0  0  0  0  0  0  0  0
   38.1620   23.4350   34.6860 C   0  0  0  0  0  0  0  0  0  0  0  0
   38.0820   22.8540   35.9190 N   0  0  0  0  0  0  0  0  0  0  0  0
   37.6381   26.3337   32.5411 H   0  0  0  0  0  0  0  0  0  0  0  0
   37.6451   27.3290   30.2609 H   0  0  0  0  0  0  0  0  0  0  0  0
   36.5570   29.5100   29.8101 H   0  0  0  0  0  0  0  0  0  0  0  0
   35.4363   30.7304   31.6693 H   0  0  0  0  0  0  0  0  0  0  0  0
   37.0851   30.9307   34.8689 H   0  0  0  0  0  0  0  0  0  0  0  0
   30.8429   30.2399   36.4892 H   0  0  0  0  0  0  0  0  0  0  0  0
   30.6297   28.0364   33.7186 H   0  0  0  0  0  0  0  0  0  0  0  0
   29.7446   28.8004   35.0661 H   0  0  0  0  0  0  0  0  0  0  0  0
   37.7829   23.1701   37.9915 H   0  0  0  0  0  0  0  0  0  0  0  0
   37.5068   25.6198   37.7450 H   0  0  0  0  0  0  0  0  0  0  0  0
   38.3513   22.8046   33.8046 H   0  0  0  0  0  0  0  0  0  0  0  0
  1 18  1  0
  2  1  2  0
  3  2  1  0
  4  3  2  0
  4  5  1  0
  5  6  2  0
  6  1  1  0
  6  7  1  0
  7 17  1  0
  7  8  1  0
  8  9  2  0
 10  9  1  0
 10 11  1  0
 11 12  2  0
 13 11  1  0
 14 13  1  0
 15 14  1  0
 16 17  1  0
 16 14  2  0
 17 10  2  0
 18 19  1  0
 19 23  1  0
 19 20  2  0
 22 21  2  0
 23 22  1  0
 24 25  1  0
 24 23  2  0
 25 26  2  0
 26 21  1  0
  2 27  1  0
  3 28  1  0
  4 29  1  0
  5 30  1  0
  8 31  1  0
 13 32  1  0
 15 33  1  0
 15 34  1  0
 21 35  1  0
 22 36  1  0
 25 37  1  0
M  ISO  8  27  14  28  14  29  14  30  14  31  14  32   9  35  14  36  14
M  ISO  1  37  14
M  END
>  <minimizedAffinity>  (1) 
-5.5369873

>  <minimizedRMSD>  (1) 
1.56128621

$$$$
