
     RDKit          3D

 33 35  0  0  0  0  0  0  0  0999 V2000
   36.4660   28.0720   33.6080 C   0  0  0  0  0  0  0  0  0  0  0  0
   36.9370   27.4020   32.4920 C   0  0  0  0  0  0  0  0  0  0  0  0
   36.8460   28.0270   31.2510 C   0  0  0  0  0  0  0  0  0  0  0  0
   36.2990   29.2860   31.1270 C   0  0  0  0  0  0  0  0  0  0  0  0
   35.8280   29.9580   32.2370 C   0  0  0  0  0  0  0  0  0  0  0  0
   35.9190   29.3420   33.4580 C   0  0  0  0  0  0  0  0  0  0  0  0
   35.4060   30.1140   34.5470 N   0  0  0  0  0  0  0  0  0  0  0  0
   36.0450   30.9120   35.3870 C   0  0  0  0  0  0  0  0  0  0  0  0
   35.3330   31.5710   36.3820 C   0  0  0  0  0  0  0  0  0  0  0  0
   33.9610   31.4020   36.5050 C   0  0  0  0  0  0  0  0  0  0  0  0
   33.3410   32.0060   37.4100 O   0  0  0  0  0  0  0  0  0  0  0  0
   33.3540   30.5780   35.6250 N   0  0  0  0  0  0  0  0  0  0  0  0
   34.0570   29.9340   34.6510 C   0  0  0  0  0  0  0  0  0  0  0  0
   33.3210   29.2180   33.9340 O   0  0  0  0  0  0  0  0  0  0  0  0
   36.5200   27.5180   34.8880 O   0  0  0  0  0  0  0  0  0  0  0  0
   37.6910   26.9710   35.3990 C   0  0  0  0  0  0  0  0  0  0  0  0
   38.6260   27.7850   35.6500 O   0  0  0  0  0  0  0  0  0  0  0  0
   37.8220   23.5150   36.9300 C   0  0  0  0  0  0  0  0  0  0  0  0
   37.6990   24.8990   36.8440 C   0  0  0  0  0  0  0  0  0  0  0  0
   37.8010   25.5360   35.6200 C   0  0  0  0  0  0  0  0  0  0  0  0
   38.0240   24.7510   34.5290 N   0  0  0  0  0  0  0  0  0  0  0  0
   38.1440   23.4060   34.6090 C   0  0  0  0  0  0  0  0  0  0  0  0
   38.0450   22.7870   35.8030 N   0  0  0  0  0  0  0  0  0  0  0  0
   37.3741   26.3967   32.5836 H   0  0  0  0  0  0  0  0  0  0  0  0
   37.2167   27.5075   30.3551 H   0  0  0  0  0  0  0  0  0  0  0  0
   36.2373   29.7590   30.1358 H   0  0  0  0  0  0  0  0  0  0  0  0
   35.3905   30.9629   32.1439 H   0  0  0  0  0  0  0  0  0  0  0  0
   37.1323   31.0528   35.2984 H   0  0  0  0  0  0  0  0  0  0  0  0
   35.8634   32.2347   37.0807 H   0  0  0  0  0  0  0  0  0  0  0  0
   32.3365   30.4326   35.6910 H   0  0  0  0  0  0  0  0  0  0  0  0
   37.7392   23.0125   37.9050 H   0  0  0  0  0  0  0  0  0  0  0  0
   37.5197   25.4896   37.7545 H   0  0  0  0  0  0  0  0  0  0  0  0
   38.3227   22.8159   33.6981 H   0  0  0  0  0  0  0  0  0  0  0  0
  1 15  1  0
  2  1  2  0
  3  2  1  0
  4  3  2  0
  4  5  1  0
  5  6  2  0
  6  1  1  0
  6  7  1  0
  7 13  1  0
  7  8  1  0
  8  9  2  0
  9 10  1  0
 10 11  2  0
 12 10  1  0
 13 12  1  0
 14 13  2  0
 15 16  1  0
 16 20  1  0
 16 17  2  0
 19 18  2  0
 20 19  1  0
 21 22  1  0
 21 20  2  0
 22 23  2  0
 23 18  1  0
  2 24  1  0
  3 25  1  0
  4 26  1  0
  5 27  1  0
  8 28  1  0
  9 29  1  0
 12 30  1  0
 18 31  1  0
 19 32  1  0
 22 33  1  0
M  ISO  8  24  14  25  14  26  14  27  14  28  14  29  14  30   9  31  14
M  ISO  2  32  14  33  14
M  END
>  <minimizedAffinity>  (1) 
-5.4336729

>  <minimizedRMSD>  (1) 
1.38362694

$$$$
