
     RDKit          3D

 25 26  0  0  0  0  0  0  0  0999 V2000
   39.2590   25.1240   34.3500 N   0  0  0  0  0  0  0  0  0  0  0  0
   40.3040   25.9730   34.3470 C   0  0  0  0  0  0  0  0  0  0  0  0
   40.5950   26.6640   33.1680 C   0  0  0  0  0  0  0  0  0  0  0  0
   39.8080   26.4560   32.0530 C   0  0  0  0  0  0  0  0  0  0  0  0
   39.9980   27.0330   30.9550 O   0  0  0  0  0  0  0  0  0  0  0  0
   38.7640   25.5940   32.0930 N   0  0  0  0  0  0  0  0  0  0  0  0
   38.5130   24.9450   33.2480 C   0  0  0  0  0  0  0  0  0  0  0  0
   37.5490   24.1480   33.2900 O   0  0  0  0  0  0  0  0  0  0  0  0
   38.1310   25.0430   36.4820 C   0  0  0  0  0  0  0  0  0  0  0  0
   39.0390   24.4720   35.5820 C   0  0  0  0  0  0  0  0  0  0  0  0
   39.6710   23.2890   35.9580 C   0  0  0  0  0  0  0  0  0  0  0  0
   39.3670   22.7560   37.1870 N   0  0  0  0  0  0  0  0  0  0  0  0
   38.4970   23.3250   38.0230 C   0  0  0  0  0  0  0  0  0  0  0  0
   37.8840   24.4680   37.6640 N   0  0  0  0  0  0  0  0  0  0  0  0
   38.3620   22.5800   39.2210 N   0  0  0  0  0  0  0  0  0  0  0  0
   41.7340   27.6330   33.0500 C   0  0  0  0  0  0  0  0  0  0  0  0
   40.9138   26.1191   35.2508 H   0  0  0  0  0  0  0  0  0  0  0  0
   38.1763   25.4381   31.2616 H   0  0  0  0  0  0  0  0  0  0  0  0
   37.6143   25.9762   36.2135 H   0  0  0  0  0  0  0  0  0  0  0  0
   40.3926   22.7959   35.2901 H   0  0  0  0  0  0  0  0  0  0  0  0
   37.7210   22.9038   39.9593 H   0  0  0  0  0  0  0  0  0  0  0  0
   38.9049   21.7148   39.3533 H   0  0  0  0  0  0  0  0  0  0  0  0
   42.0745   27.9227   34.0550 H   0  0  0  0  0  0  0  0  0  0  0  0
   42.5633   27.1593   32.5042 H   0  0  0  0  0  0  0  0  0  0  0  0
   41.3994   28.5275   32.5042 H   0  0  0  0  0  0  0  0  0  0  0  0
  1 10  1  0
  2  1  1  0
  3  2  2  0
  4  6  1  0
  4  3  1  0
  5  4  2  0
  6  7  1  0
  7  8  2  0
  7  1  1  0
  9 14  2  0
 10 11  2  0
 10  9  1  0
 11 12  1  0
 12 13  2  0
 13 15  1  0
 14 13  1  0
 16  3  1  0
  2 17  1  0
  6 18  1  0
  9 19  1  0
 11 20  1  0
 15 21  1  0
 15 22  1  0
 16 23  1  0
 16 24  1  0
 16 25  1  0
M  ISO  7  17  14  18   9  19  14  20  14  23   8  24   8  25   8
M  END
>  <minimizedAffinity>  (1) 
-4.3137002

>  <minimizedRMSD>  (1) 
0.923881292

$$$$
