
     RDKit          3D

 38 40  0  0  0  0  0  0  0  0999 V2000
   36.7470   27.8380   33.5870 C   0  0  0  0  0  0  0  0  0  0  0  0
   37.4880   27.2950   32.5710 C   0  0  0  0  0  0  0  0  0  0  0  0
   37.4870   27.9050   31.3190 C   0  0  0  0  0  0  0  0  0  0  0  0
   36.7480   29.0550   31.0810 C   0  0  0  0  0  0  0  0  0  0  0  0
   36.0100   29.5900   32.1060 C   0  0  0  0  0  0  0  0  0  0  0  0
   36.0090   28.9930   33.3340 C   0  0  0  0  0  0  0  0  0  0  0  0
   35.1920   29.6550   34.3240 N   0  0  0  0  0  0  0  0  0  0  0  0
   33.8760   29.3860   34.8300 C   0  0  0  0  0  0  0  0  0  0  0  0
   33.0890   30.6810   34.9090 C   0  0  0  0  0  0  0  0  0  0  0  0
   33.7500   31.6640   35.8480 C   0  0  0  0  0  0  0  0  0  0  0  0
   35.1720   31.3170   36.1430 C   0  0  0  0  0  0  0  0  0  0  0  0
   35.8540   30.8090   34.9000 C   0  0  0  0  0  0  0  0  0  0  0  0
   36.6880   27.2970   34.8690 O   0  0  0  0  0  0  0  0  0  0  0  0
   37.8180   26.7940   35.5020 C   0  0  0  0  0  0  0  0  0  0  0  0
   38.7040   27.6360   35.7800 O   0  0  0  0  0  0  0  0  0  0  0  0
   38.0050   23.4430   37.2480 C   0  0  0  0  0  0  0  0  0  0  0  0
   37.9010   24.8270   37.0820 C   0  0  0  0  0  0  0  0  0  0  0  0
   37.9180   25.3730   35.8000 C   0  0  0  0  0  0  0  0  0  0  0  0
   38.0370   24.5120   34.7530 N   0  0  0  0  0  0  0  0  0  0  0  0
   38.1360   23.1760   34.9310 C   0  0  0  0  0  0  0  0  0  0  0  0
   38.1210   22.6370   36.1630 N   0  0  0  0  0  0  0  0  0  0  0  0
   38.0796   26.3837   32.7427 H   0  0  0  0  0  0  0  0  0  0  0  0
   38.0826   27.4673   30.5043 H   0  0  0  0  0  0  0  0  0  0  0  0
   36.7539   29.5290   30.0884 H   0  0  0  0  0  0  0  0  0  0  0  0
   35.4178   30.5017   31.9384 H   0  0  0  0  0  0  0  0  0  0  0  0
   33.3609   28.6846   34.1572 H   0  0  0  0  0  0  0  0  0  0  0  0
   33.9531   28.9424   35.8336 H   0  0  0  0  0  0  0  0  0  0  0  0
   33.0300   31.1272   33.9053 H   0  0  0  0  0  0  0  0  0  0  0  0
   32.0828   30.4552   35.2918 H   0  0  0  0  0  0  0  0  0  0  0  0
   33.7202   32.6630   35.3886 H   0  0  0  0  0  0  0  0  0  0  0  0
   33.1982   31.6351   36.7992 H   0  0  0  0  0  0  0  0  0  0  0  0
   35.6970   32.2135   36.5045 H   0  0  0  0  0  0  0  0  0  0  0  0
   35.1967   30.5307   36.9118 H   0  0  0  0  0  0  0  0  0  0  0  0
   36.8868   30.5297   35.1557 H   0  0  0  0  0  0  0  0  0  0  0  0
   35.8207   31.6154   34.1526 H   0  0  0  0  0  0  0  0  0  0  0  0
   37.9928   23.0076   38.2581 H   0  0  0  0  0  0  0  0  0  0  0  0
   37.8061   25.4827   37.9601 H   0  0  0  0  0  0  0  0  0  0  0  0
   38.2304   22.5188   34.0540 H   0  0  0  0  0  0  0  0  0  0  0  0
  1 13  1  0
  2  1  2  0
  3  2  1  0
  4  3  2  0
  4  5  1  0
  5  6  2  0
  6  1  1  0
  6  7  1  0
  7  8  1  0
  7 12  1  0
  8  9  1  0
  9 10  1  0
 10 11  1  0
 12 11  1  0
 13 14  1  0
 14 15  2  0
 14 18  1  0
 17 16  2  0
 18 17  1  0
 19 20  1  0
 19 18  2  0
 20 21  2  0
 21 16  1  0
  2 22  1  0
  3 23  1  0
  4 24  1  0
  5 25  1  0
  8 26  1  0
  8 27  1  0
  9 28  1  0
  9 29  1  0
 10 30  1  0
 10 31  1  0
 11 32  1  0
 11 33  1  0
 12 34  1  0
 12 35  1  0
 16 36  1  0
 17 37  1  0
 20 38  1  0
M  ISO  8  22  14  23  14  24  14  25  14  26  13  27  13  28  13  29  13
M  ISO  8  30  13  31  13  32  13  33  13  34  13  35  13  36  14  37  14
M  ISO  1  38  14
M  END
>  <minimizedAffinity>  (1) 
-5.08406734

>  <minimizedRMSD>  (1) 
1.14557946

$$$$
