
     RDKit          3D

 35 37  0  0  0  0  0  0  0  0999 V2000
   36.7900   27.7670   33.6110 C   0  0  0  0  0  0  0  0  0  0  0  0
   37.4610   27.1380   32.5850 C   0  0  0  0  0  0  0  0  0  0  0  0
   37.4380   27.7490   31.3410 C   0  0  0  0  0  0  0  0  0  0  0  0
   36.7810   28.9430   31.0940 C   0  0  0  0  0  0  0  0  0  0  0  0
   36.1170   29.5500   32.1410 C   0  0  0  0  0  0  0  0  0  0  0  0
   36.1160   28.9750   33.3960 C   0  0  0  0  0  0  0  0  0  0  0  0
   35.3980   29.6950   34.3920 N   0  0  0  0  0  0  0  0  0  0  0  0
   33.9360   29.6160   34.5150 C   0  0  0  0  0  0  0  0  0  0  0  0
   33.6130   30.5430   35.6710 C   0  0  0  0  0  0  0  0  0  0  0  0
   34.7530   31.5330   35.6000 C   0  0  0  0  0  0  0  0  0  0  0  0
   35.9350   30.5890   35.4120 C   0  0  0  0  0  0  0  0  0  0  0  0
   36.7450   27.2430   34.9090 O   0  0  0  0  0  0  0  0  0  0  0  0
   37.8570   26.7240   35.5400 C   0  0  0  0  0  0  0  0  0  0  0  0
   38.7590   27.5570   35.8070 O   0  0  0  0  0  0  0  0  0  0  0  0
   37.9900   23.3940   37.3080 C   0  0  0  0  0  0  0  0  0  0  0  0
   37.8990   24.7660   37.1390 C   0  0  0  0  0  0  0  0  0  0  0  0
   37.9420   25.3030   35.8550 C   0  0  0  0  0  0  0  0  0  0  0  0
   38.0720   24.4350   34.8010 N   0  0  0  0  0  0  0  0  0  0  0  0
   38.1580   23.1020   34.9980 C   0  0  0  0  0  0  0  0  0  0  0  0
   38.1190   22.5660   36.2370 N   0  0  0  0  0  0  0  0  0  0  0  0
   37.9935   26.1892   32.7466 H   0  0  0  0  0  0  0  0  0  0  0  0
   37.9676   27.2616   30.5091 H   0  0  0  0  0  0  0  0  0  0  0  0
   36.7881   29.3951   30.0912 H   0  0  0  0  0  0  0  0  0  0  0  0
   35.5851   30.4983   31.9742 H   0  0  0  0  0  0  0  0  0  0  0  0
   33.4471   29.9585   33.5911 H   0  0  0  0  0  0  0  0  0  0  0  0
   33.5809   28.5888   34.6848 H   0  0  0  0  0  0  0  0  0  0  0  0
   32.6419   31.0392   35.5274 H   0  0  0  0  0  0  0  0  0  0  0  0
   33.5259   30.0321   36.6413 H   0  0  0  0  0  0  0  0  0  0  0  0
   34.6420   32.2186   34.7470 H   0  0  0  0  0  0  0  0  0  0  0  0
   34.8345   32.1991   36.4716 H   0  0  0  0  0  0  0  0  0  0  0  0
   36.1758   30.0493   36.3397 H   0  0  0  0  0  0  0  0  0  0  0  0
   36.8789   31.0834   35.1389 H   0  0  0  0  0  0  0  0  0  0  0  0
   37.9575   22.9687   38.3220 H   0  0  0  0  0  0  0  0  0  0  0  0
   37.7936   25.4262   38.0125 H   0  0  0  0  0  0  0  0  0  0  0  0
   38.2623   22.4365   34.1284 H   0  0  0  0  0  0  0  0  0  0  0  0
  1 12  1  0
  2  1  2  0
  3  2  1  0
  4  3  2  0
  4  5  1  0
  5  6  2  0
  6  1  1  0
  6  7  1  0
  7  8  1  0
  7 11  1  0
  8  9  1  0
 10  9  1  0
 11 10  1  0
 12 13  1  0
 13 14  2  0
 13 17  1  0
 16 15  2  0
 17 16  1  0
 18 19  1  0
 18 17  2  0
 19 20  2  0
 20 15  1  0
  2 21  1  0
  3 22  1  0
  4 23  1  0
  5 24  1  0
  8 25  1  0
  8 26  1  0
  9 27  1  0
  9 28  1  0
 10 29  1  0
 10 30  1  0
 11 31  1  0
 11 32  1  0
 15 33  1  0
 16 34  1  0
 19 35  1  0
M  ISO  8  21  14  22  14  23  14  24  14  25  13  26  13  27  13  28  13
M  ISO  7  29  13  30  13  31  13  32  13  33  14  34  14  35  14
M  END
>  <minimizedAffinity>  (1) 
-4.910707

>  <minimizedRMSD>  (1) 
0.998169661

$$$$
