
     RDKit          3D

 29 31  0  0  0  0  0  0  0  0999 V2000
   36.7660   27.7890   33.4570 C   0  0  0  0  0  0  0  0  0  0  0  0
   37.4670   27.0970   32.5040 C   0  0  0  0  0  0  0  0  0  0  0  0
   37.5030   27.6280   31.2090 C   0  0  0  0  0  0  0  0  0  0  0  0
   36.8670   28.8020   30.8730 C   0  0  0  0  0  0  0  0  0  0  0  0
   36.1780   29.4640   31.8560 C   0  0  0  0  0  0  0  0  0  0  0  0
   36.1000   28.9940   33.1600 C   0  0  0  0  0  0  0  0  0  0  0  0
   35.3450   29.7340   34.1990 C   0  0  0  0  0  0  0  0  0  0  0  0
   33.9030   29.5240   34.2660 C   0  0  0  0  0  0  0  0  0  0  0  0
   33.5130   30.6630   35.6960 S   0  0  0  0  0  0  0  0  0  0  0  0
   35.3220   31.1860   35.9180 C   0  0  0  0  0  0  0  0  0  0  0  0
   35.9980   30.5490   35.0190 N   0  0  0  0  0  0  0  0  0  0  0  0
   36.6870   27.3160   34.7690 O   0  0  0  0  0  0  0  0  0  0  0  0
   37.7780   26.8630   35.4760 C   0  0  0  0  0  0  0  0  0  0  0  0
   38.6210   27.7300   35.7810 O   0  0  0  0  0  0  0  0  0  0  0  0
   38.0080   23.5710   37.3310 C   0  0  0  0  0  0  0  0  0  0  0  0
   37.8920   24.9430   37.1230 C   0  0  0  0  0  0  0  0  0  0  0  0
   37.8970   25.4490   35.8210 C   0  0  0  0  0  0  0  0  0  0  0  0
   38.0170   24.5580   34.8040 N   0  0  0  0  0  0  0  0  0  0  0  0
   38.1290   23.2400   35.0060 C   0  0  0  0  0  0  0  0  0  0  0  0
   38.1250   22.7380   36.2740 N   0  0  0  0  0  0  0  0  0  0  0  0
   37.9835   26.1570   32.7481 H   0  0  0  0  0  0  0  0  0  0  0  0
   38.0606   27.0867   30.4305 H   0  0  0  0  0  0  0  0  0  0  0  0
   36.9104   29.1967   29.8472 H   0  0  0  0  0  0  0  0  0  0  0  0
   35.6670   30.4043   31.6016 H   0  0  0  0  0  0  0  0  0  0  0  0
   33.2436   28.8871   33.6580 H   0  0  0  0  0  0  0  0  0  0  0  0
   35.7176   31.8913   36.6637 H   0  0  0  0  0  0  0  0  0  0  0  0
   38.0044   23.1664   38.3539 H   0  0  0  0  0  0  0  0  0  0  0  0
   37.7968   25.6255   37.9804 H   0  0  0  0  0  0  0  0  0  0  0  0
   38.2246   22.5596   34.1470 H   0  0  0  0  0  0  0  0  0  0  0  0
  1 12  1  0
  2  1  2  0
  3  2  1  0
  4  3  2  0
  4  5  1  0
  5  6  2  0
  6  1  1  0
  6  7  1  0
  7  8  2  0
  7 11  1  0
  8  9  1  0
  9 10  1  0
 11 10  2  0
 12 13  1  0
 13 14  2  0
 13 17  1  0
 16 15  2  0
 17 16  1  0
 18 19  1  0
 18 17  2  0
 19 20  2  0
 20 15  1  0
  2 21  1  0
  3 22  1  0
  4 23  1  0
  5 24  1  0
  8 25  1  0
 10 26  1  0
 15 27  1  0
 16 28  1  0
 19 29  1  0
M  ISO  8  21  14  22  14  23  14  24  14  25  14  26  14  27  14  28  14
M  ISO  1  29  14
M  END
>  <minimizedAffinity>  (1) 
-4.76575994

>  <minimizedRMSD>  (1) 
1.13551891

$$$$
