
     RDKit          3D

 28 30  0  0  0  0  0  0  0  0999 V2000
   36.8890   27.7150   33.3600 C   0  0  0  0  0  0  0  0  0  0  0  0
   37.6960   27.0690   32.4520 C   0  0  0  0  0  0  0  0  0  0  0  0
   37.8160   27.5790   31.1600 C   0  0  0  0  0  0  0  0  0  0  0  0
   37.1300   28.7340   30.7780 C   0  0  0  0  0  0  0  0  0  0  0  0
   36.3270   29.3700   31.6960 C   0  0  0  0  0  0  0  0  0  0  0  0
   36.2010   28.8770   32.9680 C   0  0  0  0  0  0  0  0  0  0  0  0
   35.3580   29.5230   33.9700 C   0  0  0  0  0  0  0  0  0  0  0  0
   34.0770   29.2970   34.2970 N   0  0  0  0  0  0  0  0  0  0  0  0
   33.7130   30.1150   35.2650 O   0  0  0  0  0  0  0  0  0  0  0  0
   34.7530   30.8800   35.5790 C   0  0  0  0  0  0  0  0  0  0  0  0
   35.7760   30.5140   34.7770 N   0  0  0  0  0  0  0  0  0  0  0  0
   36.7360   27.2480   34.6540 O   0  0  0  0  0  0  0  0  0  0  0  0
   37.7910   26.8210   35.4230 C   0  0  0  0  0  0  0  0  0  0  0  0
   38.6260   27.6990   35.7640 O   0  0  0  0  0  0  0  0  0  0  0  0
   38.0130   23.5640   37.3390 C   0  0  0  0  0  0  0  0  0  0  0  0
   37.8990   24.9300   37.1090 C   0  0  0  0  0  0  0  0  0  0  0  0
   37.9030   25.4090   35.8050 C   0  0  0  0  0  0  0  0  0  0  0  0
   38.0190   24.5100   34.7880 N   0  0  0  0  0  0  0  0  0  0  0  0
   38.1280   23.1790   35.0300 C   0  0  0  0  0  0  0  0  0  0  0  0
   38.1260   22.7020   36.3010 N   0  0  0  0  0  0  0  0  0  0  0  0
   38.2413   26.1589   32.7426 H   0  0  0  0  0  0  0  0  0  0  0  0
   38.4599   27.0646   30.4314 H   0  0  0  0  0  0  0  0  0  0  0  0
   37.2305   29.1298   29.7566 H   0  0  0  0  0  0  0  0  0  0  0  0
   35.7822   30.2808   31.4068 H   0  0  0  0  0  0  0  0  0  0  0  0
   34.7764   31.6653   36.3489 H   0  0  0  0  0  0  0  0  0  0  0  0
   38.0114   23.1811   38.3702 H   0  0  0  0  0  0  0  0  0  0  0  0
   37.8062   25.6276   37.9544 H   0  0  0  0  0  0  0  0  0  0  0  0
   38.2190   22.4787   34.1866 H   0  0  0  0  0  0  0  0  0  0  0  0
  1 12  1  0
  2  1  2  0
  3  2  1  0
  4  3  2  0
  4  5  1  0
  5  6  2  0
  6  1  1  0
  6  7  1  0
  7  8  2  0
  7 11  1  0
  8  9  1  0
  9 10  1  0
 11 10  2  0
 12 13  1  0
 13 14  2  0
 13 17  1  0
 16 15  2  0
 17 16  1  0
 18 19  1  0
 18 17  2  0
 19 20  2  0
 20 15  1  0
  2 21  1  0
  3 22  1  0
  4 23  1  0
  5 24  1  0
 10 25  1  0
 15 26  1  0
 16 27  1  0
 19 28  1  0
M  ISO  8  21  14  22  14  23  14  24  14  25  14  26  14  27  14  28  14
M  END
>  <minimizedAffinity>  (1) 
-4.73901939

>  <minimizedRMSD>  (1) 
1.13221598

$$$$
