
     RDKit          3D

 29 31  0  0  0  0  0  0  0  0999 V2000
   36.8760   27.7170   33.3790 C   0  0  0  0  0  0  0  0  0  0  0  0
   37.7120   27.1380   32.4550 C   0  0  0  0  0  0  0  0  0  0  0  0
   37.8020   27.7000   31.1890 C   0  0  0  0  0  0  0  0  0  0  0  0
   37.0700   28.8290   30.8390 C   0  0  0  0  0  0  0  0  0  0  0  0
   36.2260   29.4100   31.7740 C   0  0  0  0  0  0  0  0  0  0  0  0
   36.1300   28.8570   33.0380 C   0  0  0  0  0  0  0  0  0  0  0  0
   35.2530   29.4830   33.9710 N   0  0  0  0  0  0  0  0  0  0  0  0
   35.6960   30.4970   34.7710 C   0  0  0  0  0  0  0  0  0  0  0  0
   34.7060   30.9290   35.5620 N   0  0  0  0  0  0  0  0  0  0  0  0
   33.6340   30.1890   35.2640 C   0  0  0  0  0  0  0  0  0  0  0  0
   33.9720   29.3030   34.2890 N   0  0  0  0  0  0  0  0  0  0  0  0
   36.7310   27.2120   34.6670 O   0  0  0  0  0  0  0  0  0  0  0  0
   37.7890   26.7580   35.4140 C   0  0  0  0  0  0  0  0  0  0  0  0
   38.6160   27.6260   35.7660 O   0  0  0  0  0  0  0  0  0  0  0  0
   38.0230   23.4490   37.2360 C   0  0  0  0  0  0  0  0  0  0  0  0
   37.9030   24.8260   37.0520 C   0  0  0  0  0  0  0  0  0  0  0  0
   37.9080   25.3370   35.7600 C   0  0  0  0  0  0  0  0  0  0  0  0
   38.0300   24.4620   34.7250 N   0  0  0  0  0  0  0  0  0  0  0  0
   38.1460   23.1260   34.9260 C   0  0  0  0  0  0  0  0  0  0  0  0
   38.1430   22.6200   36.1830 N   0  0  0  0  0  0  0  0  0  0  0  0
   38.2996   26.2449   32.7140 H   0  0  0  0  0  0  0  0  0  0  0  0
   38.4688   27.2408   30.4444 H   0  0  0  0  0  0  0  0  0  0  0  0
   37.1593   29.2576   29.8299 H   0  0  0  0  0  0  0  0  0  0  0  0
   35.6384   30.3024   31.5125 H   0  0  0  0  0  0  0  0  0  0  0  0
   36.7192   30.9009   34.7663 H   0  0  0  0  0  0  0  0  0  0  0  0
   32.6420   30.2812   35.7302 H   0  0  0  0  0  0  0  0  0  0  0  0
   38.0195   23.0351   38.2552 H   0  0  0  0  0  0  0  0  0  0  0  0
   37.8058   25.4981   37.9174 H   0  0  0  0  0  0  0  0  0  0  0  0
   38.2430   22.4494   34.0641 H   0  0  0  0  0  0  0  0  0  0  0  0
  1 12  1  0
  2  1  2  0
  3  2  1  0
  4  3  2  0
  4  5  1  0
  5  6  2  0
  6  1  1  0
  6  7  1  0
  7 11  1  0
  7  8  1  0
  8  9  2  0
 10  9  1  0
 11 10  2  0
 12 13  1  0
 13 17  1  0
 13 14  2  0
 16 15  2  0
 17 16  1  0
 18 19  1  0
 18 17  2  0
 19 20  2  0
 20 15  1  0
  2 21  1  0
  3 22  1  0
  4 23  1  0
  5 24  1  0
  8 25  1  0
 10 26  1  0
 15 27  1  0
 16 28  1  0
 19 29  1  0
M  ISO  8  21  14  22  14  23  14  24  14  25  14  26  14  27  14  28  14
M  ISO  1  29  14
M  END
>  <minimizedAffinity>  (1) 
-4.73264313

>  <minimizedRMSD>  (1) 
1.0701232

$$$$
