
     RDKit          3D

 30 32  0  0  0  0  0  0  0  0999 V2000
   37.2230   27.4050   33.0130 C   0  0  0  0  0  0  0  0  0  0  0  0
   38.1880   26.7850   32.2460 C   0  0  0  0  0  0  0  0  0  0  0  0
   38.5150   27.3410   31.0130 C   0  0  0  0  0  0  0  0  0  0  0  0
   37.9040   28.4860   30.5420 C   0  0  0  0  0  0  0  0  0  0  0  0
   36.9370   29.1010   31.3170 C   0  0  0  0  0  0  0  0  0  0  0  0
   36.6030   28.5640   32.5380 C   0  0  0  0  0  0  0  0  0  0  0  0
   35.6130   29.1700   33.3610 N   0  0  0  0  0  0  0  0  0  0  0  0
   34.3580   29.0600   32.8420 C   0  0  0  0  0  0  0  0  0  0  0  0
   33.4790   29.6860   33.7280 C   0  0  0  0  0  0  0  0  0  0  0  0
   34.2320   30.1480   34.7490 N   0  0  0  0  0  0  0  0  0  0  0  0
   35.5260   29.8340   34.5220 C   0  0  0  0  0  0  0  0  0  0  0  0
   36.8430   26.9070   34.2550 O   0  0  0  0  0  0  0  0  0  0  0  0
   37.7480   26.6620   35.2700 C   0  0  0  0  0  0  0  0  0  0  0  0
   38.3670   27.6740   35.7020 O   0  0  0  0  0  0  0  0  0  0  0  0
   38.1860   23.6320   37.4680 C   0  0  0  0  0  0  0  0  0  0  0  0
   37.9910   24.9630   37.1160 C   0  0  0  0  0  0  0  0  0  0  0  0
   37.9450   25.3140   35.7760 C   0  0  0  0  0  0  0  0  0  0  0  0
   38.0960   24.3160   34.8530 N   0  0  0  0  0  0  0  0  0  0  0  0
   38.2840   23.0330   35.1980 C   0  0  0  0  0  0  0  0  0  0  0  0
   38.3300   22.6810   36.5170 N   0  0  0  0  0  0  0  0  0  0  0  0
   38.6876   25.8717   32.6013 H   0  0  0  0  0  0  0  0  0  0  0  0
   39.2834   26.8536   30.3950 H   0  0  0  0  0  0  0  0  0  0  0  0
   38.1824   28.9038   29.5633 H   0  0  0  0  0  0  0  0  0  0  0  0
   36.4385   30.0138   30.9587 H   0  0  0  0  0  0  0  0  0  0  0  0
   34.0866   28.5674   31.8966 H   0  0  0  0  0  0  0  0  0  0  0  0
   32.3890   29.7835   33.6163 H   0  0  0  0  0  0  0  0  0  0  0  0
   36.3702   30.0826   35.1820 H   0  0  0  0  0  0  0  0  0  0  0  0
   38.2235   23.3496   38.5305 H   0  0  0  0  0  0  0  0  0  0  0  0
   37.8742   25.7311   37.8947 H   0  0  0  0  0  0  0  0  0  0  0  0
   38.4010   22.2651   34.4191 H   0  0  0  0  0  0  0  0  0  0  0  0
  1 12  1  0
  2  1  2  0
  3  2  1  0
  4  3  2  0
  4  5  1  0
  5  6  2  0
  6  1  1  0
  6  7  1  0
  7 11  1  0
  8  7  1  0
  8  9  2  0
  9 10  1  0
 11 10  2  0
 12 13  1  0
 13 14  2  0
 13 17  1  0
 16 15  2  0
 17 16  1  0
 18 19  1  0
 18 17  2  0
 19 20  2  0
 20 15  1  0
  2 21  1  0
  3 22  1  0
  4 23  1  0
  5 24  1  0
  8 25  1  0
  9 26  1  0
 11 27  1  0
 15 28  1  0
 16 29  1  0
 19 30  1  0
M  ISO  8  21  14  22  14  23  14  24  14  25  14  26  14  27  14  28  14
M  ISO  2  29  14  30  14
M  END
>  <minimizedAffinity>  (1) 
-4.62463999

>  <minimizedRMSD>  (1) 
1.34575713

$$$$
