
     RDKit          3D

 24 25  0  0  0  0  0  0  0  0999 V2000
   36.9710   26.5830   34.9090 O   0  0  0  0  0  0  0  0  0  0  0  0
   37.0390   27.2240   33.6830 C   0  0  0  0  0  0  0  0  0  0  0  0
   37.8540   26.7700   32.6560 C   0  0  0  0  0  0  0  0  0  0  0  0
   37.8810   27.4550   31.4500 C   0  0  0  0  0  0  0  0  0  0  0  0
   37.0990   28.5890   31.2650 C   0  0  0  0  0  0  0  0  0  0  0  0
   36.2900   29.0400   32.2830 C   0  0  0  0  0  0  0  0  0  0  0  0
   36.2620   28.3580   33.4860 C   0  0  0  0  0  0  0  0  0  0  0  0
   35.4150   28.8960   34.4450 O   0  0  0  0  0  0  0  0  0  0  0  0
   38.0710   26.4750   35.7550 C   0  0  0  0  0  0  0  0  0  0  0  0
   38.6520   27.5490   36.0180 O   0  0  0  0  0  0  0  0  0  0  0  0
   38.4590   23.3490   37.8410 C   0  0  0  0  0  0  0  0  0  0  0  0
   37.9890   24.5940   37.4410 C   0  0  0  0  0  0  0  0  0  0  0  0
   38.4810   25.1840   36.2750 C   0  0  0  0  0  0  0  0  0  0  0  0
   39.4210   24.4890   35.5710 N   0  0  0  0  0  0  0  0  0  0  0  0
   39.8730   23.2750   35.9690 C   0  0  0  0  0  0  0  0  0  0  0  0
   39.3870   22.7060   37.1110 N   0  0  0  0  0  0  0  0  0  0  0  0
   38.4746   25.8728   32.7971 H   0  0  0  0  0  0  0  0  0  0  0  0
   38.5263   27.0979   30.6338 H   0  0  0  0  0  0  0  0  0  0  0  0
   37.1267   29.1258   30.3053 H   0  0  0  0  0  0  0  0  0  0  0  0
   35.6696   29.9372   32.1408 H   0  0  0  0  0  0  0  0  0  0  0  0
   35.3374   28.4668   35.3337 H   0  0  0  0  0  0  0  0  0  0  0  0
   38.0696   22.8869   38.7601 H   0  0  0  0  0  0  0  0  0  0  0  0
   37.2295   25.1146   38.0428 H   0  0  0  0  0  0  0  0  0  0  0  0
   40.6316   22.7479   35.3718 H   0  0  0  0  0  0  0  0  0  0  0  0
  1  9  1  0
  2  1  1  0
  3  2  2  0
  4  3  1  0
  5  4  2  0
  5  6  1  0
  6  7  2  0
  7  2  1  0
  7  8  1  0
  9 10  2  0
  9 13  1  0
 12 11  2  0
 13 12  1  0
 14 15  1  0
 14 13  2  0
 15 16  2  0
 16 11  1  0
  3 17  1  0
  4 18  1  0
  5 19  1  0
  6 20  1  0
  8 21  1  0
 11 22  1  0
 12 23  1  0
 15 24  1  0
M  ISO  8  17  14  18  14  19  14  20  14  21   3  22  14  23  14  24  14
M  END
>  <minimizedAffinity>  (1) 
-4.32000256

>  <minimizedRMSD>  (1) 
0.249330267

$$$$
