
     RDKit          3D

 41 44  0  0  0  0  0  0  0  0999 V2000
   36.7190   27.4520   34.6780 O   0  0  0  0  0  0  0  0  0  0  0  0
   36.8080   27.9490   33.3940 C   0  0  0  0  0  0  0  0  0  0  0  0
   37.5990   27.3290   32.4700 C   0  0  0  0  0  0  0  0  0  0  0  0
   37.6900   27.8310   31.1740 C   0  0  0  0  0  0  0  0  0  0  0  0
   36.9780   28.9610   30.8210 C   0  0  0  0  0  0  0  0  0  0  0  0
   36.1820   29.5790   31.7630 C   0  0  0  0  0  0  0  0  0  0  0  0
   36.0940   29.0860   33.0330 C   0  0  0  0  0  0  0  0  0  0  0  0
   35.2670   29.7000   34.0770 C   0  0  0  0  0  0  0  0  0  0  0  0
   35.7180   30.6710   34.9370 C   0  0  0  0  0  0  0  0  0  0  0  0
   34.9440   31.2510   35.9190 C   0  0  0  0  0  0  0  0  0  0  0  0
   33.6820   30.8600   36.0600 N   0  0  0  0  0  0  0  0  0  0  0  0
   33.2170   29.9150   35.2350 C   0  0  0  0  0  0  0  0  0  0  0  0
   33.9770   29.3570   34.2830 N   0  0  0  0  0  0  0  0  0  0  0  0
   37.7570   26.8910   35.3710 C   0  0  0  0  0  0  0  0  0  0  0  0
   38.6340   27.7000   35.7920 O   0  0  0  0  0  0  0  0  0  0  0  0
   37.9240   23.4350   36.8750 C   0  0  0  0  0  0  0  0  0  0  0  0
   37.8510   24.8240   36.8180 C   0  0  0  0  0  0  0  0  0  0  0  0
   37.8260   25.4580   35.5920 C   0  0  0  0  0  0  0  0  0  0  0  0
   37.8760   24.6700   34.4750 N   0  0  0  0  0  0  0  0  0  0  0  0
   37.9460   23.3170   34.5290 C   0  0  0  0  0  0  0  0  0  0  0  0
   37.9700   22.7060   35.7180 N   0  0  0  0  0  0  0  0  0  0  0  0
   37.9950   22.5570   33.3260 N   0  0  0  0  0  0  0  0  0  0  0  0
   38.7730   21.4390   33.2220 C   0  0  0  0  0  0  0  0  0  0  0  0
   38.8200   20.6990   32.0490 C   0  0  0  0  0  0  0  0  0  0  0  0
   38.0400   21.1570   31.0060 C   0  0  0  0  0  0  0  0  0  0  0  0
   38.0910   20.4720   29.9380 O   0  0  0  0  0  0  0  0  0  0  0  0
   37.2580   22.2530   31.0640 N   0  0  0  0  0  0  0  0  0  0  0  0
   37.2820   22.9020   32.2430 C   0  0  0  0  0  0  0  0  0  0  0  0
   36.5530   23.9430   32.3320 O   0  0  0  0  0  0  0  0  0  0  0  0
   38.1667   26.4294   32.7502 H   0  0  0  0  0  0  0  0  0  0  0  0
   38.3281   27.3282   30.4323 H   0  0  0  0  0  0  0  0  0  0  0  0
   37.0451   29.3637   29.7996 H   0  0  0  0  0  0  0  0  0  0  0  0
   35.6120   30.4787   31.4879 H   0  0  0  0  0  0  0  0  0  0  0  0
   36.7607   31.0064   34.8360 H   0  0  0  0  0  0  0  0  0  0  0  0
   35.3649   32.0261   36.5763 H   0  0  0  0  0  0  0  0  0  0  0  0
   32.1734   29.5843   35.3421 H   0  0  0  0  0  0  0  0  0  0  0  0
   37.9447   22.9241   37.8490 H   0  0  0  0  0  0  0  0  0  0  0  0
   37.8134   25.4138   37.7458 H   0  0  0  0  0  0  0  0  0  0  0  0
   39.3744   21.1188   34.0856 H   0  0  0  0  0  0  0  0  0  0  0  0
   39.4439   19.7979   31.9554 H   0  0  0  0  0  0  0  0  0  0  0  0
   36.6863   22.5695   30.2679 H   0  0  0  0  0  0  0  0  0  0  0  0
  1 14  1  0
  2  1  1  0
  3  2  2  0
  4  3  1  0
  5  4  2  0
  5  6  1  0
  6  7  2  0
  7  2  1  0
  7  8  1  0
  8 13  1  0
  8  9  2  0
  9 10  1  0
 10 11  2  0
 12 11  1  0
 13 12  2  0
 14 18  1  0
 14 15  2  0
 17 16  2  0
 18 17  1  0
 19 20  1  0
 19 18  2  0
 20 21  2  0
 21 16  1  0
 22 20  1  0
 23 22  1  0
 24 23  2  0
 25 27  1  0
 25 24  1  0
 26 25  2  0
 27 28  1  0
 28 29  2  0
 28 22  1  0
  3 30  1  0
  4 31  1  0
  5 32  1  0
  6 33  1  0
  9 34  1  0
 10 35  1  0
 12 36  1  0
 16 37  1  0
 17 38  1  0
 23 39  1  0
 24 40  1  0
 27 41  1  0
M  ISO  8  30  14  31  14  32  14  33  14  34  14  35  14  36  14  37  14
M  ISO  4  38  14  39  14  40  14  41   9
M  END
>  <minimizedAffinity>  (1) 
-6.25946093

>  <minimizedRMSD>  (1) 
0.492011517

$$$$
