
     RDKit          3D

 45 48  0  0  0  0  0  0  0  0999 V2000
   36.8320   27.8780   33.3690 C   0  0  0  0  0  0  0  0  0  0  0  0
   37.6280   27.2410   32.4590 C   0  0  0  0  0  0  0  0  0  0  0  0
   37.7380   27.7410   31.1610 C   0  0  0  0  0  0  0  0  0  0  0  0
   37.0350   28.8870   30.8010 C   0  0  0  0  0  0  0  0  0  0  0  0
   36.2400   29.5140   31.7300 C   0  0  0  0  0  0  0  0  0  0  0  0
   36.1340   29.0240   32.9970 C   0  0  0  0  0  0  0  0  0  0  0  0
   35.3030   29.6470   34.0280 C   0  0  0  0  0  0  0  0  0  0  0  0
   35.7430   30.6290   34.8790 C   0  0  0  0  0  0  0  0  0  0  0  0
   34.9590   31.2140   35.8500 C   0  0  0  0  0  0  0  0  0  0  0  0
   33.7000   30.8240   35.9910 N   0  0  0  0  0  0  0  0  0  0  0  0
   33.2410   29.8650   35.1710 C   0  0  0  0  0  0  0  0  0  0  0  0
   34.0080   29.3010   34.2330 N   0  0  0  0  0  0  0  0  0  0  0  0
   36.7240   27.3830   34.6540 O   0  0  0  0  0  0  0  0  0  0  0  0
   37.7700   26.8570   35.3790 C   0  0  0  0  0  0  0  0  0  0  0  0
   38.6100   27.6990   35.8030 O   0  0  0  0  0  0  0  0  0  0  0  0
   38.0190   23.4290   36.9380 C   0  0  0  0  0  0  0  0  0  0  0  0
   37.9340   24.8260   36.8590 C   0  0  0  0  0  0  0  0  0  0  0  0
   37.8620   25.4250   35.6170 C   0  0  0  0  0  0  0  0  0  0  0  0
   37.8780   24.6180   34.5110 N   0  0  0  0  0  0  0  0  0  0  0  0
   37.9600   23.2760   34.5930 C   0  0  0  0  0  0  0  0  0  0  0  0
   38.0310   22.6780   35.7900 N   0  0  0  0  0  0  0  0  0  0  0  0
   37.9740   22.4840   33.4180 N   0  0  0  0  0  0  0  0  0  0  0  0
   39.0660   21.6100   33.0760 C   0  0  0  0  0  0  0  0  0  0  0  0
   38.5340   20.4160   32.3030 C   0  0  0  0  0  0  0  0  0  0  0  0
   37.9280   20.8180   31.0530 N   0  0  0  0  0  0  0  0  0  0  0  0
   37.3970   22.1640   31.1100 C   0  0  0  0  0  0  0  0  0  0  0  0
   36.8820   22.5110   32.4860 C   0  0  0  0  0  0  0  0  0  0  0  0
   38.1811   26.3356   32.7493 H   0  0  0  0  0  0  0  0  0  0  0  0
   38.3777   27.2316   30.4253 H   0  0  0  0  0  0  0  0  0  0  0  0
   37.1152   29.2880   29.7799 H   0  0  0  0  0  0  0  0  0  0  0  0
   35.6838   30.4202   31.4481 H   0  0  0  0  0  0  0  0  0  0  0  0
   36.7842   30.9700   34.7805 H   0  0  0  0  0  0  0  0  0  0  0  0
   35.3741   31.9970   36.5017 H   0  0  0  0  0  0  0  0  0  0  0  0
   32.1977   29.5321   35.2748 H   0  0  0  0  0  0  0  0  0  0  0  0
   38.0760   22.9355   37.9194 H   0  0  0  0  0  0  0  0  0  0  0  0
   37.9248   25.4366   37.7739 H   0  0  0  0  0  0  0  0  0  0  0  0
   39.7918   22.1554   32.4549 H   0  0  0  0  0  0  0  0  0  0  0  0
   39.5596   21.2619   33.9954 H   0  0  0  0  0  0  0  0  0  0  0  0
   39.3660   19.7283   32.0914 H   0  0  0  0  0  0  0  0  0  0  0  0
   37.7642   19.9246   32.9161 H   0  0  0  0  0  0  0  0  0  0  0  0
   37.1603   20.1677   30.8324 H   0  0  0  0  0  0  0  0  0  0  0  0
   38.1944   22.8721   30.8403 H   0  0  0  0  0  0  0  0  0  0  0  0
   36.5542   22.2268   30.4060 H   0  0  0  0  0  0  0  0  0  0  0  0
   36.4367   23.5167   32.4696 H   0  0  0  0  0  0  0  0  0  0  0  0
   36.1176   21.7808   32.7902 H   0  0  0  0  0  0  0  0  0  0  0  0
  1 13  1  0
  2  1  2  0
  3  2  1  0
  4  3  2  0
  4  5  1  0
  5  6  2  0
  6  1  1  0
  6  7  1  0
  7 12  1  0
  7  8  2  0
  8  9  1  0
  9 10  2  0
 11 10  1  0
 12 11  2  0
 13 14  1  0
 14 18  1  0
 14 15  2  0
 17 16  2  0
 18 17  1  0
 19 20  1  0
 19 18  2  0
 20 21  2  0
 21 16  1  0
 22 20  1  0
 23 22  1  0
 24 23  1  0
 25 26  1  0
 25 24  1  0
 26 27  1  0
 27 22  1  0
  2 28  1  0
  3 29  1  0
  4 30  1  0
  5 31  1  0
  8 32  1  0
  9 33  1  0
 11 34  1  0
 16 35  1  0
 17 36  1  0
 23 37  1  0
 23 38  1  0
 24 39  1  0
 24 40  1  0
 25 41  1  0
 26 42  1  0
 26 43  1  0
 27 44  1  0
 27 45  1  0
M  ISO  8  28  14  29  14  30  14  31  14  32  14  33  14  34  14  35  14
M  ISO  8  36  14  37  13  38  13  39  13  40  13  41   5  42  13  43  13
M  ISO  2  44  13  45  13
M  END
>  <minimizedAffinity>  (1) 
-5.96459532

>  <minimizedRMSD>  (1) 
0.397089183

$$$$
