
     RDKit          3D

 44 47  0  0  0  0  0  0  0  0999 V2000
   36.7440   27.9970   33.3720 C   0  0  0  0  0  0  0  0  0  0  0  0
   37.5150   27.3770   32.4290 C   0  0  0  0  0  0  0  0  0  0  0  0
   37.5880   27.8940   31.1410 C   0  0  0  0  0  0  0  0  0  0  0  0
   36.8780   29.0380   30.8120 C   0  0  0  0  0  0  0  0  0  0  0  0
   36.1050   29.6530   31.7690 C   0  0  0  0  0  0  0  0  0  0  0  0
   36.0340   29.1480   33.0270 C   0  0  0  0  0  0  0  0  0  0  0  0
   35.2280   29.7560   34.0930 C   0  0  0  0  0  0  0  0  0  0  0  0
   35.6790   30.7040   34.9560 C   0  0  0  0  0  0  0  0  0  0  0  0
   34.9150   31.2730   35.9560 C   0  0  0  0  0  0  0  0  0  0  0  0
   33.6550   30.8850   36.1050 N   0  0  0  0  0  0  0  0  0  0  0  0
   33.1790   29.9520   35.2690 C   0  0  0  0  0  0  0  0  0  0  0  0
   33.9260   29.4070   34.3050 N   0  0  0  0  0  0  0  0  0  0  0  0
   36.6690   27.4870   34.6530 O   0  0  0  0  0  0  0  0  0  0  0  0
   37.7180   26.9230   35.3280 C   0  0  0  0  0  0  0  0  0  0  0  0
   38.5690   27.7390   35.7860 O   0  0  0  0  0  0  0  0  0  0  0  0
   38.0560   23.4130   36.6820 C   0  0  0  0  0  0  0  0  0  0  0  0
   37.9690   24.8040   36.6830 C   0  0  0  0  0  0  0  0  0  0  0  0
   37.8200   25.4860   35.4900 C   0  0  0  0  0  0  0  0  0  0  0  0
   37.7650   24.7400   34.3380 N   0  0  0  0  0  0  0  0  0  0  0  0
   37.8500   23.3870   34.3410 C   0  0  0  0  0  0  0  0  0  0  0  0
   37.9940   22.7350   35.5070 N   0  0  0  0  0  0  0  0  0  0  0  0
   37.7840   22.6210   33.0680 C   0  0  0  0  0  0  0  0  0  0  0  0
   37.0760   23.3830   31.9800 C   0  0  0  0  0  0  0  0  0  0  0  0
   36.0580   22.4050   31.4140 C   0  0  0  0  0  0  0  0  0  0  0  0
   35.6430   21.6210   32.6390 C   0  0  0  0  0  0  0  0  0  0  0  0
   36.9690   21.3390   33.2770 C   0  0  0  0  0  0  0  0  0  0  0  0
   38.0779   26.4686   32.6896 H   0  0  0  0  0  0  0  0  0  0  0  0
   38.2093   27.3952   30.3826 H   0  0  0  0  0  0  0  0  0  0  0  0
   36.9323   29.4507   29.7938 H   0  0  0  0  0  0  0  0  0  0  0  0
   35.5398   30.5613   31.5130 H   0  0  0  0  0  0  0  0  0  0  0  0
   36.7211   31.0403   34.8512 H   0  0  0  0  0  0  0  0  0  0  0  0
   35.3452   32.0374   36.6198 H   0  0  0  0  0  0  0  0  0  0  0  0
   32.1353   29.6230   35.3807 H   0  0  0  0  0  0  0  0  0  0  0  0
   38.1744   22.8665   37.6293 H   0  0  0  0  0  0  0  0  0  0  0  0
   38.0188   25.3583   37.6318 H   0  0  0  0  0  0  0  0  0  0  0  0
   38.8250   22.4196   32.7750 H   0  0  0  0  0  0  0  0  0  0  0  0
   36.5725   24.2693   32.3934 H   0  0  0  0  0  0  0  0  0  0  0  0
   37.7721   23.7471   31.2100 H   0  0  0  0  0  0  0  0  0  0  0  0
   35.2013   22.9343   30.9715 H   0  0  0  0  0  0  0  0  0  0  0  0
   36.4566   21.7760   30.6044 H   0  0  0  0  0  0  0  0  0  0  0  0
   34.9984   22.2194   33.2996 H   0  0  0  0  0  0  0  0  0  0  0  0
   35.0522   20.7203   32.4160 H   0  0  0  0  0  0  0  0  0  0  0  0
   37.4598   20.4839   32.7893 H   0  0  0  0  0  0  0  0  0  0  0  0
   36.8710   21.0778   34.3410 H   0  0  0  0  0  0  0  0  0  0  0  0
  1 13  1  0
  2  1  2  0
  3  2  1  0
  4  3  2  0
  4  5  1  0
  5  6  2  0
  6  1  1  0
  6  7  1  0
  7 12  1  0
  7  8  2  0
  8  9  1  0
  9 10  2  0
 11 10  1  0
 12 11  2  0
 13 14  1  0
 14 18  1  0
 14 15  2  0
 16 17  2  0
 18 17  1  0
 19 20  1  0
 19 18  2  0
 20 21  2  0
 21 16  1  0
 22 26  1  0
 22 20  1  0
 23 22  1  0
 24 23  1  0
 24 25  1  0
 25 26  1  0
  2 27  1  0
  3 28  1  0
  4 29  1  0
  5 30  1  0
  8 31  1  0
  9 32  1  0
 11 33  1  0
 16 34  1  0
 17 35  1  0
 22 36  1  0
 23 37  1  0
 23 38  1  0
 24 39  1  0
 24 40  1  0
 25 41  1  0
 25 42  1  0
 26 43  1  0
 26 44  1  0
M  ISO  8  27  14  28  14  29  14  30  14  31  14  32  14  33  14  34  14
M  ISO  8  35  14  36  13  37  13  38  13  39  13  40  13  41  13  42  13
M  ISO  2  43  13  44  13
M  END
>  <minimizedAffinity>  (1) 
-5.87738132

>  <minimizedRMSD>  (1) 
1.18505764

$$$$
