
     RDKit          3D

 37 40  0  0  0  0  0  0  0  0999 V2000
   36.8920   27.6130   33.3760 C   0  0  0  0  0  0  0  0  0  0  0  0
   37.6780   26.9010   32.5140 C   0  0  0  0  0  0  0  0  0  0  0  0
   37.8110   27.3240   31.1910 C   0  0  0  0  0  0  0  0  0  0  0  0
   37.1500   28.4630   30.7570 C   0  0  0  0  0  0  0  0  0  0  0  0
   36.3680   29.1630   31.6310 C   0  0  0  0  0  0  0  0  0  0  0  0
   36.2300   28.7590   32.9260 C   0  0  0  0  0  0  0  0  0  0  0  0
   35.4100   29.4610   33.9120 C   0  0  0  0  0  0  0  0  0  0  0  0
   35.8810   30.4410   34.7500 C   0  0  0  0  0  0  0  0  0  0  0  0
   35.0960   31.0980   35.6770 C   0  0  0  0  0  0  0  0  0  0  0  0
   33.8140   30.7850   35.7870 N   0  0  0  0  0  0  0  0  0  0  0  0
   33.3250   29.8300   34.9790 C   0  0  0  0  0  0  0  0  0  0  0  0
   34.0900   29.1970   34.0810 N   0  0  0  0  0  0  0  0  0  0  0  0
   36.7580   27.1960   34.6890 O   0  0  0  0  0  0  0  0  0  0  0  0
   37.8210   26.8170   35.4930 C   0  0  0  0  0  0  0  0  0  0  0  0
   38.6570   27.7020   35.7510 O   0  0  0  0  0  0  0  0  0  0  0  0
   37.9580   23.6950   37.6230 C   0  0  0  0  0  0  0  0  0  0  0  0
   37.8760   25.0470   37.3040 C   0  0  0  0  0  0  0  0  0  0  0  0
   37.8990   25.4440   35.9790 C   0  0  0  0  0  0  0  0  0  0  0  0
   38.0040   24.4500   35.0410 N   0  0  0  0  0  0  0  0  0  0  0  0
   38.0840   23.1450   35.3500 C   0  0  0  0  0  0  0  0  0  0  0  0
   38.0620   22.7650   36.6420 N   0  0  0  0  0  0  0  0  0  0  0  0
   38.1890   22.2550   34.2390 N   0  0  0  0  0  0  0  0  0  0  0  0
   39.1440   21.7510   33.4380 C   0  0  0  0  0  0  0  0  0  0  0  0
   38.5590   20.9240   32.5360 N   0  0  0  0  0  0  0  0  0  0  0  0
   37.2410   20.9190   32.7830 C   0  0  0  0  0  0  0  0  0  0  0  0
   37.0300   21.7490   33.8410 N   0  0  0  0  0  0  0  0  0  0  0  0
   38.2031   25.9990   32.8614 H   0  0  0  0  0  0  0  0  0  0  0  0
   38.4405   26.7537   30.4921 H   0  0  0  0  0  0  0  0  0  0  0  0
   37.2548   28.8007   29.7154 H   0  0  0  0  0  0  0  0  0  0  0  0
   35.8422   30.0653   31.2854 H   0  0  0  0  0  0  0  0  0  0  0  0
   36.9431   30.7185   34.6792 H   0  0  0  0  0  0  0  0  0  0  0  0
   35.5329   31.8763   36.3199 H   0  0  0  0  0  0  0  0  0  0  0  0
   32.2617   29.5593   35.0576 H   0  0  0  0  0  0  0  0  0  0  0  0
   37.9383   23.3792   38.6765 H   0  0  0  0  0  0  0  0  0  0  0  0
   37.7931   25.7981   38.1033 H   0  0  0  0  0  0  0  0  0  0  0  0
   40.2195   21.9723   33.5032 H   0  0  0  0  0  0  0  0  0  0  0  0
   36.4750   20.3514   32.2343 H   0  0  0  0  0  0  0  0  0  0  0  0
  1 13  1  0
  2  1  2  0
  3  2  1  0
  4  3  2  0
  4  5  1  0
  5  6  2  0
  6  1  1  0
  6  7  1  0
  7 12  1  0
  7  8  2  0
  8  9  1  0
  9 10  2  0
 11 10  1  0
 12 11  2  0
 13 14  1  0
 14 15  2  0
 14 18  1  0
 17 16  2  0
 18 17  1  0
 19 20  1  0
 19 18  2  0
 20 21  2  0
 21 16  1  0
 22 20  1  0
 23 22  1  0
 24 25  1  0
 24 23  2  0
 25 26  2  0
 26 22  1  0
  2 27  1  0
  3 28  1  0
  4 29  1  0
  5 30  1  0
  8 31  1  0
  9 32  1  0
 11 33  1  0
 16 34  1  0
 17 35  1  0
 23 36  1  0
 25 37  1  0
M  ISO  8  27  14  28  14  29  14  30  14  31  14  32  14  33  14  34  14
M  ISO  3  35  14  36  14  37  14
M  END
>  <minimizedAffinity>  (1) 
-5.7960372

>  <minimizedRMSD>  (1) 
0.315159708

$$$$
