
     RDKit          3D

 39 42  0  0  0  0  0  0  0  0999 V2000
   36.8190   27.8660   33.3570 C   0  0  0  0  0  0  0  0  0  0  0  0
   37.6080   27.2230   32.4440 C   0  0  0  0  0  0  0  0  0  0  0  0
   37.7160   27.7260   31.1500 C   0  0  0  0  0  0  0  0  0  0  0  0
   37.0280   28.8720   30.7860 C   0  0  0  0  0  0  0  0  0  0  0  0
   36.2360   29.5070   31.7180 C   0  0  0  0  0  0  0  0  0  0  0  0
   36.1280   29.0150   32.9920 C   0  0  0  0  0  0  0  0  0  0  0  0
   35.3070   29.6450   34.0220 C   0  0  0  0  0  0  0  0  0  0  0  0
   35.7510   30.6270   34.8730 C   0  0  0  0  0  0  0  0  0  0  0  0
   34.9610   31.2110   35.8420 C   0  0  0  0  0  0  0  0  0  0  0  0
   33.7010   30.8280   35.9830 N   0  0  0  0  0  0  0  0  0  0  0  0
   33.2410   29.8660   35.1590 C   0  0  0  0  0  0  0  0  0  0  0  0
   34.0020   29.3060   34.2300 N   0  0  0  0  0  0  0  0  0  0  0  0
   36.7080   27.3730   34.6420 O   0  0  0  0  0  0  0  0  0  0  0  0
   37.7680   26.8700   35.3780 C   0  0  0  0  0  0  0  0  0  0  0  0
   38.5970   27.7200   35.7990 O   0  0  0  0  0  0  0  0  0  0  0  0
   38.0960   23.4530   36.9310 C   0  0  0  0  0  0  0  0  0  0  0  0
   38.0070   24.8330   36.8520 C   0  0  0  0  0  0  0  0  0  0  0  0
   37.8730   25.4420   35.6200 C   0  0  0  0  0  0  0  0  0  0  0  0
   37.8350   24.6270   34.5210 N   0  0  0  0  0  0  0  0  0  0  0  0
   37.9220   23.2800   34.5970 C   0  0  0  0  0  0  0  0  0  0  0  0
   38.0520   22.6900   35.8040 N   0  0  0  0  0  0  0  0  0  0  0  0
   37.8730   22.4830   33.3750 C   0  0  0  0  0  0  0  0  0  0  0  0
   37.0820   22.9040   32.3260 C   0  0  0  0  0  0  0  0  0  0  0  0
   37.0620   22.1240   31.1900 C   0  0  0  0  0  0  0  0  0  0  0  0
   37.7920   21.0030   31.1270 N   0  0  0  0  0  0  0  0  0  0  0  0
   38.5570   20.6150   32.1640 C   0  0  0  0  0  0  0  0  0  0  0  0
   38.6030   21.3580   33.3090 N   0  0  0  0  0  0  0  0  0  0  0  0
   38.1549   26.3126   32.7303 H   0  0  0  0  0  0  0  0  0  0  0  0
   38.3504   27.2111   30.4136 H   0  0  0  0  0  0  0  0  0  0  0  0
   37.1130   29.2707   29.7643 H   0  0  0  0  0  0  0  0  0  0  0  0
   35.6857   30.4169   31.4365 H   0  0  0  0  0  0  0  0  0  0  0  0
   36.7929   30.9665   34.7770 H   0  0  0  0  0  0  0  0  0  0  0  0
   35.3765   31.9923   36.4954 H   0  0  0  0  0  0  0  0  0  0  0  0
   32.1973   29.5340   35.2612 H   0  0  0  0  0  0  0  0  0  0  0  0
   38.2032   22.9691   37.9130 H   0  0  0  0  0  0  0  0  0  0  0  0
   38.0429   25.4417   37.7675 H   0  0  0  0  0  0  0  0  0  0  0  0
   36.4892   23.8281   32.3938 H   0  0  0  0  0  0  0  0  0  0  0  0
   36.4436   22.4236   30.3310 H   0  0  0  0  0  0  0  0  0  0  0  0
   39.1502   19.6917   32.0888 H   0  0  0  0  0  0  0  0  0  0  0  0
  1 13  1  0
  2  1  2  0
  3  2  1  0
  4  3  2  0
  4  5  1  0
  5  6  2  0
  6  1  1  0
  6  7  1  0
  7 12  1  0
  7  8  2  0
  8  9  1  0
  9 10  2  0
 11 10  1  0
 12 11  2  0
 13 14  1  0
 14 18  1  0
 14 15  2  0
 17 16  2  0
 18 17  1  0
 19 20  1  0
 19 18  2  0
 20 21  2  0
 21 16  1  0
 22 20  1  0
 23 22  2  0
 24 23  1  0
 25 24  2  0
 25 26  1  0
 26 27  2  0
 27 22  1  0
  2 28  1  0
  3 29  1  0
  4 30  1  0
  5 31  1  0
  8 32  1  0
  9 33  1  0
 11 34  1  0
 16 35  1  0
 17 36  1  0
 23 37  1  0
 24 38  1  0
 26 39  1  0
M  ISO  8  28  14  29  14  30  14  31  14  32  14  33  14  34  14  35  14
M  ISO  4  36  14  37  14  38  14  39  14
M  END
>  <minimizedAffinity>  (1) 
-5.70416069

>  <minimizedRMSD>  (1) 
0.525560915

$$$$
