
     RDKit          3D

 38 41  0  0  0  0  0  0  0  0999 V2000
   36.7940   27.6790   33.4490 C   0  0  0  0  0  0  0  0  0  0  0  0
   37.5120   26.9530   32.5400 C   0  0  0  0  0  0  0  0  0  0  0  0
   37.5770   27.3700   31.2110 C   0  0  0  0  0  0  0  0  0  0  0  0
   36.9170   28.5190   30.8140 C   0  0  0  0  0  0  0  0  0  0  0  0
   36.2020   29.2380   31.7370 C   0  0  0  0  0  0  0  0  0  0  0  0
   36.1290   28.8400   33.0410 C   0  0  0  0  0  0  0  0  0  0  0  0
   35.3870   29.5610   34.0700 C   0  0  0  0  0  0  0  0  0  0  0  0
   35.9400   30.5090   34.8950 C   0  0  0  0  0  0  0  0  0  0  0  0
   35.2410   31.1900   35.8680 C   0  0  0  0  0  0  0  0  0  0  0  0
   33.9500   30.9300   36.0380 N   0  0  0  0  0  0  0  0  0  0  0  0
   33.3830   30.0080   35.2450 C   0  0  0  0  0  0  0  0  0  0  0  0
   34.0730   29.3550   34.3060 N   0  0  0  0  0  0  0  0  0  0  0  0
   36.7280   27.2670   34.7660 O   0  0  0  0  0  0  0  0  0  0  0  0
   37.8000   26.8290   35.5040 C   0  0  0  0  0  0  0  0  0  0  0  0
   38.6690   27.7070   35.7500 O   0  0  0  0  0  0  0  0  0  0  0  0
   37.9780   23.6660   37.5460 C   0  0  0  0  0  0  0  0  0  0  0  0
   37.8880   25.0270   37.2670 C   0  0  0  0  0  0  0  0  0  0  0  0
   37.8860   25.4500   35.9480 C   0  0  0  0  0  0  0  0  0  0  0  0
   37.9740   24.4990   34.9750 N   0  0  0  0  0  0  0  0  0  0  0  0
   38.0620   23.1720   35.2510 C   0  0  0  0  0  0  0  0  0  0  0  0
   38.0640   22.7650   36.5300 N   0  0  0  0  0  0  0  0  0  0  0  0
   38.1550   22.2050   34.1580 C   0  0  0  0  0  0  0  0  0  0  0  0
   37.0390   21.6430   33.5260 C   0  0  0  0  0  0  0  0  0  0  0  0
   37.4870   20.7720   32.5390 C   0  0  0  0  0  0  0  0  0  0  0  0
   38.8360   20.8230   32.5950 N   0  0  0  0  0  0  0  0  0  0  0  0
   39.2270   21.6620   33.5420 N   0  0  0  0  0  0  0  0  0  0  0  0
   38.0381   26.0404   32.8568 H   0  0  0  0  0  0  0  0  0  0  0  0
   38.1530   26.7854   30.4785 H   0  0  0  0  0  0  0  0  0  0  0  0
   36.9653   28.8530   29.7670 H   0  0  0  0  0  0  0  0  0  0  0  0
   35.6777   30.1520   31.4212 H   0  0  0  0  0  0  0  0  0  0  0  0
   37.0085   30.7395   34.7715 H   0  0  0  0  0  0  0  0  0  0  0  0
   35.7459   31.9391   36.4956 H   0  0  0  0  0  0  0  0  0  0  0  0
   32.3140   29.7823   35.3725 H   0  0  0  0  0  0  0  0  0  0  0  0
   37.9796   23.3184   38.5896 H   0  0  0  0  0  0  0  0  0  0  0  0
   37.8192   25.7587   38.0854 H   0  0  0  0  0  0  0  0  0  0  0  0
   35.9872   21.8545   33.7689 H   0  0  0  0  0  0  0  0  0  0  0  0
   36.8720   20.1680   31.8557 H   0  0  0  0  0  0  0  0  0  0  0  0
   39.4704   20.2854   31.9872 H   0  0  0  0  0  0  0  0  0  0  0  0
  1 13  1  0
  2  1  2  0
  3  2  1  0
  4  3  2  0
  4  5  1  0
  5  6  2  0
  6  1  1  0
  6  7  1  0
  7 12  1  0
  7  8  2  0
  8  9  1  0
  9 10  2  0
 11 10  1  0
 12 11  2  0
 13 14  1  0
 14 15  2  0
 14 18  1  0
 17 16  2  0
 18 17  1  0
 19 20  1  0
 19 18  2  0
 20 21  2  0
 21 16  1  0
 22 20  1  0
 23 22  1  0
 24 25  1  0
 24 23  2  0
 25 26  1  0
 26 22  2  0
  2 27  1  0
  3 28  1  0
  4 29  1  0
  5 30  1  0
  8 31  1  0
  9 32  1  0
 11 33  1  0
 16 34  1  0
 17 35  1  0
 23 36  1  0
 24 37  1  0
 25 38  1  0
M  ISO  8  27  14  28  14  29  14  30  14  31  14  32  14  33  14  34  14
M  ISO  4  35  14  36  14  37  14  38   9
M  END
>  <minimizedAffinity>  (1) 
-5.57486916

>  <minimizedRMSD>  (1) 
0.521616578

$$$$
