
     RDKit          3D

 38 41  0  0  0  0  0  0  0  0999 V2000
   36.8120   27.6790   33.4220 C   0  0  0  0  0  0  0  0  0  0  0  0
   37.5740   26.9720   32.5340 C   0  0  0  0  0  0  0  0  0  0  0  0
   37.6650   27.3980   31.2120 C   0  0  0  0  0  0  0  0  0  0  0  0
   36.9900   28.5310   30.7930 C   0  0  0  0  0  0  0  0  0  0  0  0
   36.2240   29.2360   31.6980 C   0  0  0  0  0  0  0  0  0  0  0  0
   36.1290   28.8210   33.0080 C   0  0  0  0  0  0  0  0  0  0  0  0
   35.3400   29.5180   34.0070 C   0  0  0  0  0  0  0  0  0  0  0  0
   35.8180   30.5000   34.8230 C   0  0  0  0  0  0  0  0  0  0  0  0
   35.0510   31.1520   35.7690 C   0  0  0  0  0  0  0  0  0  0  0  0
   33.7750   30.8290   35.9150 N   0  0  0  0  0  0  0  0  0  0  0  0
   33.2670   29.8710   35.1320 C   0  0  0  0  0  0  0  0  0  0  0  0
   34.0190   29.2480   34.2230 N   0  0  0  0  0  0  0  0  0  0  0  0
   36.7150   27.2640   34.7340 O   0  0  0  0  0  0  0  0  0  0  0  0
   37.8000   26.8530   35.4990 C   0  0  0  0  0  0  0  0  0  0  0  0
   38.6730   27.7390   35.7280 O   0  0  0  0  0  0  0  0  0  0  0  0
   38.0340   23.7380   37.6190 C   0  0  0  0  0  0  0  0  0  0  0  0
   37.9540   25.0890   37.2990 C   0  0  0  0  0  0  0  0  0  0  0  0
   37.8860   25.4940   35.9800 C   0  0  0  0  0  0  0  0  0  0  0  0
   37.9020   24.5100   35.0320 N   0  0  0  0  0  0  0  0  0  0  0  0
   37.9790   23.1930   35.3310 C   0  0  0  0  0  0  0  0  0  0  0  0
   38.0450   22.8140   36.6270 N   0  0  0  0  0  0  0  0  0  0  0  0
   37.9880   22.2350   34.2450 C   0  0  0  0  0  0  0  0  0  0  0  0
   36.9730   21.5110   33.7270 C   0  0  0  0  0  0  0  0  0  0  0  0
   37.1730   20.6450   32.6900 C   0  0  0  0  0  0  0  0  0  0  0  0
   38.5840   20.6040   32.2260 C   0  0  0  0  0  0  0  0  0  0  0  0
   39.4650   21.8280   33.3500 S   0  0  0  0  0  0  0  0  0  0  0  0
   38.1126   26.0709   32.8626 H   0  0  0  0  0  0  0  0  0  0  0  0
   38.2773   26.8304   30.4958 H   0  0  0  0  0  0  0  0  0  0  0  0
   37.0636   28.8663   29.7479 H   0  0  0  0  0  0  0  0  0  0  0  0
   35.6846   30.1371   31.3708 H   0  0  0  0  0  0  0  0  0  0  0  0
   36.8744   30.7896   34.7224 H   0  0  0  0  0  0  0  0  0  0  0  0
   35.4980   31.9358   36.3981 H   0  0  0  0  0  0  0  0  0  0  0  0
   32.2086   29.5913   35.2396 H   0  0  0  0  0  0  0  0  0  0  0  0
   38.0880   23.4209   38.6709 H   0  0  0  0  0  0  0  0  0  0  0  0
   37.9448   25.8407   38.1021 H   0  0  0  0  0  0  0  0  0  0  0  0
   35.9632   21.6210   34.1492 H   0  0  0  0  0  0  0  0  0  0  0  0
   36.3707   20.0392   32.2435 H   0  0  0  0  0  0  0  0  0  0  0  0
   39.0134   19.9987   31.4141 H   0  0  0  0  0  0  0  0  0  0  0  0
  1 13  1  0
  2  1  2  0
  3  2  1  0
  4  3  2  0
  4  5  1  0
  5  6  2  0
  6  1  1  0
  6  7  1  0
  7 12  1  0
  7  8  2  0
  8  9  1  0
  9 10  2  0
 11 10  1  0
 12 11  2  0
 13 14  1  0
 14 15  2  0
 14 18  1  0
 17 16  2  0
 18 17  1  0
 19 20  1  0
 19 18  2  0
 20 21  2  0
 21 16  1  0
 22 20  1  0
 23 22  2  0
 24 23  1  0
 25 24  2  0
 25 26  1  0
 26 22  1  0
  2 27  1  0
  3 28  1  0
  4 29  1  0
  5 30  1  0
  8 31  1  0
  9 32  1  0
 11 33  1  0
 16 34  1  0
 17 35  1  0
 23 36  1  0
 24 37  1  0
 25 38  1  0
M  ISO  8  27  14  28  14  29  14  30  14  31  14  32  14  33  14  34  14
M  ISO  4  35  14  36  14  37  14  38  14
M  END
>  <minimizedAffinity>  (1) 
-5.57092094

>  <minimizedRMSD>  (1) 
0.325440049

$$$$
