
     RDKit          3D

 36 39  0  0  0  0  0  0  0  0999 V2000
   36.8570   27.6160   33.3780 C   0  0  0  0  0  0  0  0  0  0  0  0
   37.6240   26.8940   32.5060 C   0  0  0  0  0  0  0  0  0  0  0  0
   37.7390   27.3060   31.1790 C   0  0  0  0  0  0  0  0  0  0  0  0
   37.0760   28.4470   30.7460 C   0  0  0  0  0  0  0  0  0  0  0  0
   36.3140   29.1570   31.6320 C   0  0  0  0  0  0  0  0  0  0  0  0
   36.1970   28.7590   32.9330 C   0  0  0  0  0  0  0  0  0  0  0  0
   35.3970   29.4770   33.9270 C   0  0  0  0  0  0  0  0  0  0  0  0
   35.8840   30.4470   34.7600 C   0  0  0  0  0  0  0  0  0  0  0  0
   35.1020   31.1080   35.6900 C   0  0  0  0  0  0  0  0  0  0  0  0
   33.8150   30.8130   35.8060 N   0  0  0  0  0  0  0  0  0  0  0  0
   33.3110   29.8650   35.0000 C   0  0  0  0  0  0  0  0  0  0  0  0
   34.0620   29.2250   34.1030 N   0  0  0  0  0  0  0  0  0  0  0  0
   36.7420   27.2110   34.6930 O   0  0  0  0  0  0  0  0  0  0  0  0
   37.7930   26.8120   35.4830 C   0  0  0  0  0  0  0  0  0  0  0  0
   38.6410   27.7140   35.7410 O   0  0  0  0  0  0  0  0  0  0  0  0
   38.0130   23.7080   37.6100 C   0  0  0  0  0  0  0  0  0  0  0  0
   37.9080   25.0640   37.2950 C   0  0  0  0  0  0  0  0  0  0  0  0
   37.8960   25.4530   35.9690 C   0  0  0  0  0  0  0  0  0  0  0  0
   37.9870   24.4710   35.0220 N   0  0  0  0  0  0  0  0  0  0  0  0
   38.0880   23.1560   35.3270 C   0  0  0  0  0  0  0  0  0  0  0  0
   38.1010   22.7730   36.6140 N   0  0  0  0  0  0  0  0  0  0  0  0
   38.1790   22.2130   34.2170 C   0  0  0  0  0  0  0  0  0  0  0  0
   39.1590   21.6430   33.4820 N   0  0  0  0  0  0  0  0  0  0  0  0
   38.5980   20.8530   32.5970 O   0  0  0  0  0  0  0  0  0  0  0  0
   37.2910   20.8880   32.7270 C   0  0  0  0  0  0  0  0  0  0  0  0
   37.0140   21.7370   33.7400 N   0  0  0  0  0  0  0  0  0  0  0  0
   38.1488   25.9907   32.8505 H   0  0  0  0  0  0  0  0  0  0  0  0
   38.3549   26.7273   30.4749 H   0  0  0  0  0  0  0  0  0  0  0  0
   37.1631   28.7764   29.7001 H   0  0  0  0  0  0  0  0  0  0  0  0
   35.7880   30.0613   31.2920 H   0  0  0  0  0  0  0  0  0  0  0  0
   36.9486   30.7140   34.6866 H   0  0  0  0  0  0  0  0  0  0  0  0
   35.5488   31.8796   36.3342 H   0  0  0  0  0  0  0  0  0  0  0  0
   32.2446   29.6080   35.0821 H   0  0  0  0  0  0  0  0  0  0  0  0
   38.0251   23.3896   38.6628 H   0  0  0  0  0  0  0  0  0  0  0  0
   37.8355   25.8157   38.0948 H   0  0  0  0  0  0  0  0  0  0  0  0
   36.5595   20.3303   32.1238 H   0  0  0  0  0  0  0  0  0  0  0  0
  1 13  1  0
  2  1  2  0
  3  2  1  0
  4  3  2  0
  4  5  1  0
  5  6  2  0
  6  1  1  0
  6  7  1  0
  7 12  1  0
  7  8  2  0
  8  9  1  0
  9 10  2  0
 11 10  1  0
 12 11  2  0
 13 14  1  0
 14 15  2  0
 14 18  1  0
 17 16  2  0
 18 17  1  0
 19 20  1  0
 19 18  2  0
 20 21  2  0
 21 16  1  0
 22 20  1  0
 23 22  2  0
 24 25  1  0
 24 23  1  0
 25 26  2  0
 26 22  1  0
  2 27  1  0
  3 28  1  0
  4 29  1  0
  5 30  1  0
  8 31  1  0
  9 32  1  0
 11 33  1  0
 16 34  1  0
 17 35  1  0
 25 36  1  0
M  ISO  8  27  14  28  14  29  14  30  14  31  14  32  14  33  14  34  14
M  ISO  2  35  14  36  14
M  END
>  <minimizedAffinity>  (1) 
-5.54873943

>  <minimizedRMSD>  (1) 
0.312327147

$$$$
