
     RDKit          3D

 43 45  0  0  0  0  0  0  0  0999 V2000
   36.8330   27.8550   33.3970 C   0  0  0  0  0  0  0  0  0  0  0  0
   37.6280   27.2050   32.4920 C   0  0  0  0  0  0  0  0  0  0  0  0
   37.7370   27.6840   31.1900 C   0  0  0  0  0  0  0  0  0  0  0  0
   37.0370   28.8220   30.8110 C   0  0  0  0  0  0  0  0  0  0  0  0
   36.2440   29.4640   31.7300 C   0  0  0  0  0  0  0  0  0  0  0  0
   36.1360   28.9990   33.0020 C   0  0  0  0  0  0  0  0  0  0  0  0
   35.3090   29.6370   34.0280 C   0  0  0  0  0  0  0  0  0  0  0  0
   35.7570   30.6230   34.8740 C   0  0  0  0  0  0  0  0  0  0  0  0
   34.9720   31.2200   35.8380 C   0  0  0  0  0  0  0  0  0  0  0  0
   33.7080   30.8380   35.9780 N   0  0  0  0  0  0  0  0  0  0  0  0
   33.2480   29.8770   35.1640 C   0  0  0  0  0  0  0  0  0  0  0  0
   34.0140   29.3040   34.2320 N   0  0  0  0  0  0  0  0  0  0  0  0
   36.7260   27.3780   34.6900 O   0  0  0  0  0  0  0  0  0  0  0  0
   37.7730   26.8580   35.4160 C   0  0  0  0  0  0  0  0  0  0  0  0
   38.6150   27.7010   35.8200 O   0  0  0  0  0  0  0  0  0  0  0  0
   38.0100   23.4520   37.0240 C   0  0  0  0  0  0  0  0  0  0  0  0
   37.9260   24.8420   36.9180 C   0  0  0  0  0  0  0  0  0  0  0  0
   37.8610   25.4360   35.6730 C   0  0  0  0  0  0  0  0  0  0  0  0
   37.8830   24.6060   34.5770 N   0  0  0  0  0  0  0  0  0  0  0  0
   37.9630   23.2660   34.6860 C   0  0  0  0  0  0  0  0  0  0  0  0
   38.0260   22.6890   35.8910 N   0  0  0  0  0  0  0  0  0  0  0  0
   37.9830   22.4120   33.4560 C   0  0  0  0  0  0  0  0  0  0  0  0
   39.2570   21.6180   33.3210 C   0  0  0  0  0  0  0  0  0  0  0  0
   36.8620   21.3750   33.5570 C   0  0  0  0  0  0  0  0  0  0  0  0
   37.6720   23.2710   32.2700 C   0  0  0  0  0  0  0  0  0  0  0  0
   38.1811   26.3034   32.7941 H   0  0  0  0  0  0  0  0  0  0  0  0
   38.3763   27.1623   30.4625 H   0  0  0  0  0  0  0  0  0  0  0  0
   37.1171   29.2059   29.7833 H   0  0  0  0  0  0  0  0  0  0  0  0
   35.6892   30.3661   31.4326 H   0  0  0  0  0  0  0  0  0  0  0  0
   36.8012   30.9549   34.7767 H   0  0  0  0  0  0  0  0  0  0  0  0
   35.3892   32.0056   36.4851 H   0  0  0  0  0  0  0  0  0  0  0  0
   32.2031   29.5490   35.2674 H   0  0  0  0  0  0  0  0  0  0  0  0
   38.0629   22.9746   38.0136 H   0  0  0  0  0  0  0  0  0  0  0  0
   37.9116   25.4633   37.8256 H   0  0  0  0  0  0  0  0  0  0  0  0
   39.6458   21.3757   34.3211 H   0  0  0  0  0  0  0  0  0  0  0  0
   39.0525   20.6872   32.7717 H   0  0  0  0  0  0  0  0  0  0  0  0
   40.0026   22.2116   32.7717 H   0  0  0  0  0  0  0  0  0  0  0  0
   36.6437   21.1730   34.6160 H   0  0  0  0  0  0  0  0  0  0  0  0
   35.9584   21.7626   33.0638 H   0  0  0  0  0  0  0  0  0  0  0  0
   37.1782   20.4440   33.0638 H   0  0  0  0  0  0  0  0  0  0  0  0
   37.3161   24.2539   32.6124 H   0  0  0  0  0  0  0  0  0  0  0  0
   38.5802   23.4009   31.6631 H   0  0  0  0  0  0  0  0  0  0  0  0
   36.8912   22.7894   31.6631 H   0  0  0  0  0  0  0  0  0  0  0  0
  1 13  1  0
  2  1  2  0
  3  2  1  0
  4  3  2  0
  4  5  1  0
  5  6  2  0
  6  1  1  0
  6  7  1  0
  7 12  1  0
  7  8  2  0
  8  9  1  0
  9 10  2  0
 11 10  1  0
 12 11  2  0
 13 14  1  0
 14 18  1  0
 14 15  2  0
 17 16  2  0
 18 17  1  0
 19 20  1  0
 19 18  2  0
 20 21  2  0
 21 16  1  0
 22 24  1  0
 22 20  1  0
 23 22  1  0
 25 22  1  0
  2 26  1  0
  3 27  1  0
  4 28  1  0
  5 29  1  0
  8 30  1  0
  9 31  1  0
 11 32  1  0
 16 33  1  0
 17 34  1  0
 23 35  1  0
 23 36  1  0
 23 37  1  0
 24 38  1  0
 24 39  1  0
 24 40  1  0
 25 41  1  0
 25 42  1  0
 25 43  1  0
M  ISO  8  26  14  27  14  28  14  29  14  30  14  31  14  32  14  33  14
M  ISO  8  34  14  35   8  36   8  37   8  38   8  39   8  40   8  41   8
M  ISO  2  42   8  43   8
M  END
>  <minimizedAffinity>  (1) 
-5.45410776

>  <minimizedRMSD>  (1) 
0.263487518

$$$$
