
     RDKit          3D

 34 36  0  0  0  0  0  0  0  0999 V2000
   36.7610   27.7680   33.4290 C   0  0  0  0  0  0  0  0  0  0  0  0
   37.5180   27.0900   32.5160 C   0  0  0  0  0  0  0  0  0  0  0  0
   37.5880   27.5370   31.2000 C   0  0  0  0  0  0  0  0  0  0  0  0
   36.8900   28.6720   30.8170 C   0  0  0  0  0  0  0  0  0  0  0  0
   36.1360   29.3420   31.7430 C   0  0  0  0  0  0  0  0  0  0  0  0
   36.0610   28.9100   33.0310 C   0  0  0  0  0  0  0  0  0  0  0  0
   35.2730   29.5810   34.0670 C   0  0  0  0  0  0  0  0  0  0  0  0
   35.7660   30.5470   34.9070 C   0  0  0  0  0  0  0  0  0  0  0  0
   35.0150   31.1740   35.8790 C   0  0  0  0  0  0  0  0  0  0  0  0
   33.7340   30.8380   36.0310 N   0  0  0  0  0  0  0  0  0  0  0  0
   33.2350   29.8980   35.2210 C   0  0  0  0  0  0  0  0  0  0  0  0
   33.9630   29.2900   34.2780 N   0  0  0  0  0  0  0  0  0  0  0  0
   36.6900   27.3230   34.7370 O   0  0  0  0  0  0  0  0  0  0  0  0
   37.7560   26.8660   35.4630 C   0  0  0  0  0  0  0  0  0  0  0  0
   38.6220   27.7420   35.7510 O   0  0  0  0  0  0  0  0  0  0  0  0
   38.0180   23.6310   37.3770 C   0  0  0  0  0  0  0  0  0  0  0  0
   37.9190   25.0070   37.1560 C   0  0  0  0  0  0  0  0  0  0  0  0
   37.8590   25.4750   35.8580 C   0  0  0  0  0  0  0  0  0  0  0  0
   37.8990   24.5580   34.8440 N   0  0  0  0  0  0  0  0  0  0  0  0
   37.9960   23.2220   35.0670 C   0  0  0  0  0  0  0  0  0  0  0  0
   38.0550   22.7660   36.3340 N   0  0  0  0  0  0  0  0  0  0  0  0
   38.0360   22.2670   33.9300 C   0  0  0  0  0  0  0  0  0  0  0  0
   39.2590   21.6310   33.8430 F   0  0  0  0  0  0  0  0  0  0  0  0
   37.0930   21.2620   34.0750 F   0  0  0  0  0  0  0  0  0  0  0  0
   37.7790   22.8710   32.7130 F   0  0  0  0  0  0  0  0  0  0  0  0
   38.0725   26.1903   32.8212 H   0  0  0  0  0  0  0  0  0  0  0  0
   38.1965   26.9904   30.4645 H   0  0  0  0  0  0  0  0  0  0  0  0
   36.9415   29.0311   29.7785 H   0  0  0  0  0  0  0  0  0  0  0  0
   35.5824   30.2433   31.4410 H   0  0  0  0  0  0  0  0  0  0  0  0
   36.8212   30.8383   34.7991 H   0  0  0  0  0  0  0  0  0  0  0  0
   35.4681   31.9430   36.5219 H   0  0  0  0  0  0  0  0  0  0  0  0
   32.1790   29.6122   35.3354 H   0  0  0  0  0  0  0  0  0  0  0  0
   38.0663   23.2462   38.4064 H   0  0  0  0  0  0  0  0  0  0  0  0
   37.8893   25.7075   38.0036 H   0  0  0  0  0  0  0  0  0  0  0  0
  1 13  1  0
  2  1  2  0
  3  2  1  0
  4  3  2  0
  4  5  1  0
  5  6  2  0
  6  1  1  0
  6  7  1  0
  7 12  1  0
  7  8  2  0
  8  9  1  0
  9 10  2  0
 11 10  1  0
 12 11  2  0
 13 14  1  0
 14 15  2  0
 14 18  1  0
 17 16  2  0
 18 17  1  0
 19 20  1  0
 19 18  2  0
 20 21  2  0
 21 16  1  0
 22 24  1  0
 22 20  1  0
 23 22  1  0
 25 22  1  0
  2 26  1  0
  3 27  1  0
  4 28  1  0
  5 29  1  0
  8 30  1  0
  9 31  1  0
 11 32  1  0
 16 33  1  0
 17 34  1  0
M  ISO  8  26  14  27  14  28  14  29  14  30  14  31  14  32  14  33  14
M  ISO  1  34  14
M  END
>  <minimizedAffinity>  (1) 
-5.36645746

>  <minimizedRMSD>  (1) 
0.284806818

$$$$
