
     RDKit          3D

 38 41  0  0  0  0  0  0  0  0999 V2000
   36.7870   27.6950   33.4220 C   0  0  0  0  0  0  0  0  0  0  0  0
   37.5150   26.9780   32.5140 C   0  0  0  0  0  0  0  0  0  0  0  0
   37.5890   27.4110   31.1920 C   0  0  0  0  0  0  0  0  0  0  0  0
   36.9280   28.5630   30.7980 C   0  0  0  0  0  0  0  0  0  0  0  0
   36.2030   29.2720   31.7190 C   0  0  0  0  0  0  0  0  0  0  0  0
   36.1220   28.8560   33.0200 C   0  0  0  0  0  0  0  0  0  0  0  0
   35.3680   29.5640   34.0480 C   0  0  0  0  0  0  0  0  0  0  0  0
   35.9040   30.5190   34.8760 C   0  0  0  0  0  0  0  0  0  0  0  0
   35.1880   31.1870   35.8480 C   0  0  0  0  0  0  0  0  0  0  0  0
   33.9040   30.9070   36.0130 N   0  0  0  0  0  0  0  0  0  0  0  0
   33.3510   29.9770   35.2200 C   0  0  0  0  0  0  0  0  0  0  0  0
   34.0520   29.3320   34.2770 N   0  0  0  0  0  0  0  0  0  0  0  0
   36.7120   27.2670   34.7350 O   0  0  0  0  0  0  0  0  0  0  0  0
   37.7940   26.8330   35.4780 C   0  0  0  0  0  0  0  0  0  0  0  0
   38.6430   27.7150   35.7610 O   0  0  0  0  0  0  0  0  0  0  0  0
   38.0210   23.6090   37.4270 C   0  0  0  0  0  0  0  0  0  0  0  0
   37.9210   24.9810   37.1810 C   0  0  0  0  0  0  0  0  0  0  0  0
   37.8950   25.4470   35.8780 C   0  0  0  0  0  0  0  0  0  0  0  0
   37.9690   24.5120   34.8760 N   0  0  0  0  0  0  0  0  0  0  0  0
   38.0660   23.1900   35.1090 C   0  0  0  0  0  0  0  0  0  0  0  0
   38.0910   22.7430   36.3880 N   0  0  0  0  0  0  0  0  0  0  0  0
   38.1450   22.2280   33.9710 C   0  0  0  0  0  0  0  0  0  0  0  0
   36.8780   21.4640   33.5780 C   0  0  0  0  0  0  0  0  0  0  0  0
   37.4200   22.5350   32.7100 C   0  0  0  0  0  0  0  0  0  0  0  0
   38.0401   26.0631   32.8258 H   0  0  0  0  0  0  0  0  0  0  0  0
   38.1740   26.8365   30.4587 H   0  0  0  0  0  0  0  0  0  0  0  0
   36.9849   28.9055   29.7542 H   0  0  0  0  0  0  0  0  0  0  0  0
   35.6790   30.1880   31.4085 H   0  0  0  0  0  0  0  0  0  0  0  0
   36.9692   30.7667   34.7572 H   0  0  0  0  0  0  0  0  0  0  0  0
   35.6779   31.9434   36.4787 H   0  0  0  0  0  0  0  0  0  0  0  0
   32.2855   29.7354   35.3480 H   0  0  0  0  0  0  0  0  0  0  0  0
   38.0428   23.2337   38.4608 H   0  0  0  0  0  0  0  0  0  0  0  0
   37.8631   25.6889   38.0209 H   0  0  0  0  0  0  0  0  0  0  0  0
   39.1803   21.9616   34.2300 H   0  0  0  0  0  0  0  0  0  0  0  0
   36.9426   20.4120   33.2631 H   0  0  0  0  0  0  0  0  0  0  0  0
   35.9083   21.2582   34.0547 H   0  0  0  0  0  0  0  0  0  0  0  0
   37.8751   22.2737   31.7433 H   0  0  0  0  0  0  0  0  0  0  0  0
   36.9989   23.4526   32.2733 H   0  0  0  0  0  0  0  0  0  0  0  0
  1 13  1  0
  2  1  2  0
  3  2  1  0
  4  3  2  0
  4  5  1  0
  5  6  2  0
  6  1  1  0
  6  7  1  0
  7 12  1  0
  7  8  2  0
  8  9  1  0
  9 10  2  0
 11 10  1  0
 12 11  2  0
 13 14  1  0
 14 15  2  0
 14 18  1  0
 17 16  2  0
 18 17  1  0
 19 20  1  0
 19 18  2  0
 20 21  2  0
 21 16  1  0
 22 20  1  0
 23 22  1  0
 24 23  1  0
 24 22  1  0
  2 25  1  0
  3 26  1  0
  4 27  1  0
  5 28  1  0
  8 29  1  0
  9 30  1  0
 11 31  1  0
 16 32  1  0
 17 33  1  0
 22 34  1  0
 23 35  1  0
 23 36  1  0
 24 37  1  0
 24 38  1  0
M  ISO  8  25  14  26  14  27  14  28  14  29  14  30  14  31  14  32  14
M  ISO  6  33  14  34  13  35  13  36  13  37  13  38  13
M  END
>  <minimizedAffinity>  (1) 
-5.31440258

>  <minimizedRMSD>  (1) 
0.269964516

$$$$
