
     RDKit          3D

 32 34  0  0  0  0  0  0  0  0999 V2000
   36.8420   27.7820   33.3760 C   0  0  0  0  0  0  0  0  0  0  0  0
   37.6390   27.1260   32.4810 C   0  0  0  0  0  0  0  0  0  0  0  0
   37.7720   27.6150   31.1810 C   0  0  0  0  0  0  0  0  0  0  0  0
   37.0940   28.7650   30.7990 C   0  0  0  0  0  0  0  0  0  0  0  0
   36.2960   29.4130   31.7100 C   0  0  0  0  0  0  0  0  0  0  0  0
   36.1610   28.9390   32.9880 C   0  0  0  0  0  0  0  0  0  0  0  0
   35.3310   29.5800   33.9980 C   0  0  0  0  0  0  0  0  0  0  0  0
   35.7730   30.5640   34.8480 C   0  0  0  0  0  0  0  0  0  0  0  0
   34.9840   31.1690   35.8040 C   0  0  0  0  0  0  0  0  0  0  0  0
   33.7190   30.7960   35.9290 N   0  0  0  0  0  0  0  0  0  0  0  0
   33.2560   29.8370   35.1130 C   0  0  0  0  0  0  0  0  0  0  0  0
   34.0320   29.2570   34.1900 N   0  0  0  0  0  0  0  0  0  0  0  0
   36.7090   27.3010   34.6630 O   0  0  0  0  0  0  0  0  0  0  0  0
   37.7630   26.8830   35.4520 C   0  0  0  0  0  0  0  0  0  0  0  0
   38.5730   27.7780   35.7940 O   0  0  0  0  0  0  0  0  0  0  0  0
   38.0220   23.6230   37.3400 C   0  0  0  0  0  0  0  0  0  0  0  0
   37.9070   24.9970   37.1250 C   0  0  0  0  0  0  0  0  0  0  0  0
   37.8790   25.4810   35.8310 C   0  0  0  0  0  0  0  0  0  0  0  0
   37.9680   24.5670   34.8150 N   0  0  0  0  0  0  0  0  0  0  0  0
   38.0790   23.2420   35.0240 C   0  0  0  0  0  0  0  0  0  0  0  0
   38.1060   22.7680   36.2850 N   0  0  0  0  0  0  0  0  0  0  0  0
   38.1580   22.4380   33.8910 O   0  0  0  0  0  0  0  0  0  0  0  0
   38.1746   26.2144   32.7846 H   0  0  0  0  0  0  0  0  0  0  0  0
   38.4140   27.0895   30.4587 H   0  0  0  0  0  0  0  0  0  0  0  0
   37.1952   29.1539   29.7750 H   0  0  0  0  0  0  0  0  0  0  0  0
   35.7584   30.3244   31.4094 H   0  0  0  0  0  0  0  0  0  0  0  0
   36.8201   30.8895   34.7611 H   0  0  0  0  0  0  0  0  0  0  0  0
   35.4002   31.9520   36.4549 H   0  0  0  0  0  0  0  0  0  0  0  0
   32.2073   29.5180   35.2055 H   0  0  0  0  0  0  0  0  0  0  0  0
   38.0448   23.2295   38.3669 H   0  0  0  0  0  0  0  0  0  0  0  0
   37.8393   25.6885   37.9778 H   0  0  0  0  0  0  0  0  0  0  0  0
   38.2408   21.4560   33.9857 H   0  0  0  0  0  0  0  0  0  0  0  0
  1 13  1  0
  2  1  2  0
  3  2  1  0
  4  3  2  0
  4  5  1  0
  5  6  2  0
  6  1  1  0
  6  7  1  0
  7 12  1  0
  7  8  2  0
  8  9  1  0
  9 10  2  0
 11 10  1  0
 12 11  2  0
 13 14  1  0
 14 15  2  0
 14 18  1  0
 17 16  2  0
 18 17  1  0
 19 20  1  0
 19 18  2  0
 20 21  2  0
 21 16  1  0
 22 20  1  0
  2 23  1  0
  3 24  1  0
  4 25  1  0
  5 26  1  0
  8 27  1  0
  9 28  1  0
 11 29  1  0
 16 30  1  0
 17 31  1  0
 22 32  1  0
M  ISO  8  23  14  24  14  25  14  26  14  27  14  28  14  29  14  30  14
M  ISO  2  31  14  32   3
M  END
>  <minimizedAffinity>  (1) 
-5.13150644

>  <minimizedRMSD>  (1) 
0.0201005321

$$$$
