
     RDKit          3D

 32 34  0  0  0  0  0  0  0  0999 V2000
   39.2810   25.1260   34.3810 N   0  0  0  0  0  0  0  0  0  0  0  0
   40.3190   25.9790   34.3860 C   0  0  0  0  0  0  0  0  0  0  0  0
   40.6370   26.6740   33.2220 C   0  0  0  0  0  0  0  0  0  0  0  0
   39.8640   26.4590   32.0890 C   0  0  0  0  0  0  0  0  0  0  0  0
   40.0690   27.0340   30.9930 O   0  0  0  0  0  0  0  0  0  0  0  0
   38.8190   25.5900   32.1110 N   0  0  0  0  0  0  0  0  0  0  0  0
   38.5520   24.9420   33.2640 C   0  0  0  0  0  0  0  0  0  0  0  0
   37.5980   24.1470   33.2950 O   0  0  0  0  0  0  0  0  0  0  0  0
   38.1240   25.0490   36.4910 C   0  0  0  0  0  0  0  0  0  0  0  0
   39.0500   24.4780   35.6000 C   0  0  0  0  0  0  0  0  0  0  0  0
   39.6760   23.3020   36.0020 C   0  0  0  0  0  0  0  0  0  0  0  0
   39.3720   22.7580   37.2240 N   0  0  0  0  0  0  0  0  0  0  0  0
   38.4860   23.3290   38.0450 C   0  0  0  0  0  0  0  0  0  0  0  0
   37.8780   24.4620   37.6680 N   0  0  0  0  0  0  0  0  0  0  0  0
   38.3470   22.5820   39.2410 N   0  0  0  0  0  0  0  0  0  0  0  0
   41.7610   27.6470   33.1280 C   0  0  0  0  0  0  0  0  0  0  0  0
   43.0550   27.0340   33.5050 C   0  0  0  0  0  0  0  0  0  0  0  0
   43.7630   25.9630   33.0050 C   0  0  0  0  0  0  0  0  0  0  0  0
   44.8970   25.7890   33.6850 N   0  0  0  0  0  0  0  0  0  0  0  0
   44.9350   26.7500   34.6360 C   0  0  0  0  0  0  0  0  0  0  0  0
   43.8190   27.5070   34.5280 N   0  0  0  0  0  0  0  0  0  0  0  0
   40.9119   26.1269   35.3007 H   0  0  0  0  0  0  0  0  0  0  0  0
   38.2462   25.4304   31.2699 H   0  0  0  0  0  0  0  0  0  0  0  0
   37.6017   25.9785   36.2203 H   0  0  0  0  0  0  0  0  0  0  0  0
   40.4094   22.8122   35.3446 H   0  0  0  0  0  0  0  0  0  0  0  0
   37.6965   22.8994   39.9738 H   0  0  0  0  0  0  0  0  0  0  0  0
   38.8965   21.7216   39.3776 H   0  0  0  0  0  0  0  0  0  0  0  0
   41.8290   28.0129   32.0929 H   0  0  0  0  0  0  0  0  0  0  0  0
   41.5577   28.4713   33.8274 H   0  0  0  0  0  0  0  0  0  0  0  0
   43.4376   25.3373   32.1608 H   0  0  0  0  0  0  0  0  0  0  0  0
   45.7386   26.8922   35.3736 H   0  0  0  0  0  0  0  0  0  0  0  0
   43.5845   28.3131   35.1248 H   0  0  0  0  0  0  0  0  0  0  0  0
  1  2  1  0
  1 10  1  0
  3  2  2  0
  4  6  1  0
  4  3  1  0
  5  4  2  0
  6  7  1  0
  7  8  2  0
  7  1  1  0
  9 14  2  0
 10 11  2  0
 10  9  1  0
 11 12  1  0
 12 13  2  0
 13 15  1  0
 14 13  1  0
 16  3  1  0
 16 17  1  0
 17 21  1  0
 18 17  2  0
 18 19  1  0
 19 20  2  0
 21 20  1  0
  2 22  1  0
  6 23  1  0
  9 24  1  0
 11 25  1  0
 15 26  1  0
 15 27  1  0
 16 28  1  0
 16 29  1  0
 18 30  1  0
 20 31  1  0
 21 32  1  0
M  ISO  8  22  14  23   9  24  14  25  14  28   8  29   8  30  14  31  14
M  ISO  1  32   9
M  END
>  <minimizedAffinity>  (1) 
-4.96501064

>  <minimizedRMSD>  (1) 
1.06675363

$$$$
