
     RDKit          3D

 34 36  0  0  0  0  0  0  0  0999 V2000
   36.8510   27.6400   33.3920 C   0  0  0  0  0  0  0  0  0  0  0  0
   37.6300   26.9330   32.5200 C   0  0  0  0  0  0  0  0  0  0  0  0
   37.7410   27.3520   31.1950 C   0  0  0  0  0  0  0  0  0  0  0  0
   37.0650   28.4830   30.7640 C   0  0  0  0  0  0  0  0  0  0  0  0
   36.2840   29.1850   31.6560 C   0  0  0  0  0  0  0  0  0  0  0  0
   36.1690   28.7810   32.9560 C   0  0  0  0  0  0  0  0  0  0  0  0
   35.3630   29.4770   33.9450 C   0  0  0  0  0  0  0  0  0  0  0  0
   35.8370   30.4680   34.7710 C   0  0  0  0  0  0  0  0  0  0  0  0
   35.0510   31.1180   35.7050 C   0  0  0  0  0  0  0  0  0  0  0  0
   33.7720   30.7910   35.8330 N   0  0  0  0  0  0  0  0  0  0  0  0
   33.2830   29.8280   35.0400 C   0  0  0  0  0  0  0  0  0  0  0  0
   34.0380   29.1910   34.1310 N   0  0  0  0  0  0  0  0  0  0  0  0
   36.7390   27.2280   34.7050 O   0  0  0  0  0  0  0  0  0  0  0  0
   37.7960   26.8350   35.4940 C   0  0  0  0  0  0  0  0  0  0  0  0
   38.6500   27.7290   35.7400 O   0  0  0  0  0  0  0  0  0  0  0  0
   38.0010   23.7350   37.6410 C   0  0  0  0  0  0  0  0  0  0  0  0
   37.9100   25.0880   37.3170 C   0  0  0  0  0  0  0  0  0  0  0  0
   37.8850   25.4760   35.9900 C   0  0  0  0  0  0  0  0  0  0  0  0
   37.9510   24.4880   35.0530 N   0  0  0  0  0  0  0  0  0  0  0  0
   38.0390   23.1710   35.3650 C   0  0  0  0  0  0  0  0  0  0  0  0
   38.0630   22.8060   36.6500 N   0  0  0  0  0  0  0  0  0  0  0  0
   38.1070   22.1560   34.3190 C   0  0  0  0  0  0  0  0  0  0  0  0
   39.2200   21.7660   33.8810 O   0  0  0  0  0  0  0  0  0  0  0  0
   36.9500   21.5980   33.7900 O   0  0  0  0  0  0  0  0  0  0  0  0
   38.1676   26.0364   32.8623 H   0  0  0  0  0  0  0  0  0  0  0  0
   38.3661   26.7841   30.4902 H   0  0  0  0  0  0  0  0  0  0  0  0
   37.1513   28.8169   29.7195 H   0  0  0  0  0  0  0  0  0  0  0  0
   35.7460   30.0826   31.3170 H   0  0  0  0  0  0  0  0  0  0  0  0
   36.8944   30.7587   34.6849 H   0  0  0  0  0  0  0  0  0  0  0  0
   35.4854   31.9041   36.3400 H   0  0  0  0  0  0  0  0  0  0  0  0
   32.2234   29.5490   35.1375 H   0  0  0  0  0  0  0  0  0  0  0  0
   38.0226   23.4201   38.6947 H   0  0  0  0  0  0  0  0  0  0  0  0
   37.8583   25.8442   38.1142 H   0  0  0  0  0  0  0  0  0  0  0  0
   37.0117   20.9102   33.0806 H   0  0  0  0  0  0  0  0  0  0  0  0
  1 13  1  0
  2  1  2  0
  3  2  1  0
  4  3  2  0
  4  5  1  0
  5  6  2  0
  6  1  1  0
  6  7  1  0
  7 12  1  0
  7  8  2  0
  8  9  1  0
  9 10  2  0
 11 10  1  0
 12 11  2  0
 13 14  1  0
 14 15  2  0
 14 18  1  0
 17 16  2  0
 18 17  1  0
 19 20  1  0
 19 18  2  0
 20 21  2  0
 21 16  1  0
 22 20  1  0
 23 22  2  0
 24 22  1  0
  2 25  1  0
  3 26  1  0
  4 27  1  0
  5 28  1  0
  8 29  1  0
  9 30  1  0
 11 31  1  0
 16 32  1  0
 17 33  1  0
 24 34  1  0
M  ISO  8  25  14  26  14  27  14  28  14  29  14  30  14  31  14  32  14
M  ISO  2  33  14  34   3
M  END
>  <minimizedAffinity>  (1) 
-5.24714947

>  <minimizedRMSD>  (1) 
0.276166022

$$$$
