
     RDKit          3D

 38 41  0  0  0  0  0  0  0  0999 V2000
   39.4300   25.4390   34.5960 N   0  0  0  0  0  0  0  0  0  0  0  0
   40.6340   26.0210   34.5570 C   0  0  0  0  0  0  0  0  0  0  0  0
   40.9790   26.7740   33.4380 C   0  0  0  0  0  0  0  0  0  0  0  0
   40.0710   26.8990   32.4020 C   0  0  0  0  0  0  0  0  0  0  0  0
   40.2820   27.5520   31.3580 O   0  0  0  0  0  0  0  0  0  0  0  0
   38.8490   26.2980   32.4640 N   0  0  0  0  0  0  0  0  0  0  0  0
   38.5620   25.5780   33.5700 C   0  0  0  0  0  0  0  0  0  0  0  0
   37.4340   25.0200   33.6340 O   0  0  0  0  0  0  0  0  0  0  0  0
   38.2380   25.2230   36.6810 C   0  0  0  0  0  0  0  0  0  0  0  0
   39.1620   24.6970   35.7600 C   0  0  0  0  0  0  0  0  0  0  0  0
   39.7450   23.4790   36.0630 C   0  0  0  0  0  0  0  0  0  0  0  0
   39.3890   22.8610   37.2350 N   0  0  0  0  0  0  0  0  0  0  0  0
   38.5050   23.3880   38.0940 C   0  0  0  0  0  0  0  0  0  0  0  0
   37.9340   24.5750   37.8030 N   0  0  0  0  0  0  0  0  0  0  0  0
   38.3060   22.5620   39.2230 N   0  0  0  0  0  0  0  0  0  0  0  0
   42.3010   27.4550   33.2920 C   0  0  0  0  0  0  0  0  0  0  0  0
   43.2880   26.4330   33.0220 N   0  0  0  0  0  0  0  0  0  0  0  0
   43.4600   25.5170   32.0780 C   0  0  0  0  0  0  0  0  0  0  0  0
   44.5670   24.7770   32.2590 N   0  0  0  0  0  0  0  0  0  0  0  0
   45.1740   25.2190   33.3850 C   0  0  0  0  0  0  0  0  0  0  0  0
   46.3210   24.8180   34.0150 C   0  0  0  0  0  0  0  0  0  0  0  0
   46.6900   25.4520   35.1450 N   0  0  0  0  0  0  0  0  0  0  0  0
   45.8930   26.4540   35.5830 C   0  0  0  0  0  0  0  0  0  0  0  0
   44.7570   26.8670   34.9790 N   0  0  0  0  0  0  0  0  0  0  0  0
   44.3610   26.2520   33.8490 C   0  0  0  0  0  0  0  0  0  0  0  0
   47.0590   23.7360   33.4220 N   0  0  0  0  0  0  0  0  0  0  0  0
   41.3386   25.9066   35.3939 H   0  0  0  0  0  0  0  0  0  0  0  0
   38.1694   26.3897   31.6955 H   0  0  0  0  0  0  0  0  0  0  0  0
   37.7570   26.1894   36.4696 H   0  0  0  0  0  0  0  0  0  0  0  0
   40.4752   23.0181   35.3815 H   0  0  0  0  0  0  0  0  0  0  0  0
   37.6498   22.8502   39.9627 H   0  0  0  0  0  0  0  0  0  0  0  0
   38.8172   21.6717   39.3063 H   0  0  0  0  0  0  0  0  0  0  0  0
   42.2644   28.1716   32.4583 H   0  0  0  0  0  0  0  0  0  0  0  0
   42.5558   28.0078   34.2083 H   0  0  0  0  0  0  0  0  0  0  0  0
   42.7680   25.3776   31.2343 H   0  0  0  0  0  0  0  0  0  0  0  0
   46.1940   26.9739   36.5045 H   0  0  0  0  0  0  0  0  0  0  0  0
   47.9279   23.4025   33.8632 H   0  0  0  0  0  0  0  0  0  0  0  0
   46.7188   23.2943   32.5559 H   0  0  0  0  0  0  0  0  0  0  0  0
  1 10  1  0
  2  1  1  0
  3  2  2  0
  4  6  1  0
  4  3  1  0
  5  4  2  0
  6  7  1  0
  7  8  2  0
  7  1  1  0
  9 14  2  0
 10 11  2  0
 10  9  1  0
 11 12  1  0
 12 13  2  0
 13 15  1  0
 14 13  1  0
 16  3  1  0
 17 16  1  0
 17 25  1  0
 18 19  2  0
 18 17  1  0
 19 20  1  0
 20 25  2  0
 20 21  1  0
 21 22  2  0
 22 23  1  0
 24 23  2  0
 25 24  1  0
 26 21  1  0
  2 27  1  0
  6 28  1  0
  9 29  1  0
 11 30  1  0
 15 31  1  0
 15 32  1  0
 16 33  1  0
 16 34  1  0
 18 35  1  0
 23 36  1  0
 26 37  1  0
 26 38  1  0
M  ISO  8  27  14  28   9  29  14  30  14  33   8  34   8  35  14  36  14
M  END
>  <minimizedAffinity>  (1) 
-4.83071804

>  <minimizedRMSD>  (1) 
1.73174822

$$$$
