
     RDKit          3D

 37 39  0  0  0  0  0  0  0  0999 V2000
   36.8080   27.9110   33.3690 C   0  0  0  0  0  0  0  0  0  0  0  0
   37.5890   27.2850   32.4530 C   0  0  0  0  0  0  0  0  0  0  0  0
   37.6980   27.7880   31.1520 C   0  0  0  0  0  0  0  0  0  0  0  0
   37.0010   28.9330   30.8050 C   0  0  0  0  0  0  0  0  0  0  0  0
   36.2100   29.5640   31.7410 C   0  0  0  0  0  0  0  0  0  0  0  0
   36.1020   29.0720   33.0170 C   0  0  0  0  0  0  0  0  0  0  0  0
   35.2880   29.6860   34.0510 C   0  0  0  0  0  0  0  0  0  0  0  0
   35.7510   30.6600   34.9160 C   0  0  0  0  0  0  0  0  0  0  0  0
   34.9510   31.2250   35.8910 C   0  0  0  0  0  0  0  0  0  0  0  0
   33.6900   30.8420   36.0310 N   0  0  0  0  0  0  0  0  0  0  0  0
   33.2230   29.9020   35.2060 C   0  0  0  0  0  0  0  0  0  0  0  0
   33.9730   29.3290   34.2420 N   0  0  0  0  0  0  0  0  0  0  0  0
   36.7090   27.4100   34.6400 O   0  0  0  0  0  0  0  0  0  0  0  0
   37.7580   26.8720   35.3560 C   0  0  0  0  0  0  0  0  0  0  0  0
   38.6180   27.6980   35.7790 O   0  0  0  0  0  0  0  0  0  0  0  0
   37.9980   23.4190   36.8820 C   0  0  0  0  0  0  0  0  0  0  0  0
   37.9340   24.8150   36.8170 C   0  0  0  0  0  0  0  0  0  0  0  0
   37.8340   25.4450   35.5870 C   0  0  0  0  0  0  0  0  0  0  0  0
   37.8040   24.6390   34.4960 N   0  0  0  0  0  0  0  0  0  0  0  0
   37.8660   23.2890   34.5460 C   0  0  0  0  0  0  0  0  0  0  0  0
   37.9620   22.6950   35.7350 N   0  0  0  0  0  0  0  0  0  0  0  0
   37.8280   22.4850   33.3260 C   0  0  0  0  0  0  0  0  0  0  0  0
   38.3210   21.3170   33.3150 O   0  0  0  0  0  0  0  0  0  0  0  0
   37.2600   22.9740   32.1700 O   0  0  0  0  0  0  0  0  0  0  0  0
   36.1290   22.3060   31.6050 C   0  0  0  0  0  0  0  0  0  0  0  0
   35.3150   21.9430   32.6830 F   0  0  0  0  0  0  0  0  0  0  0  0
   35.3530   23.2000   30.8750 F   0  0  0  0  0  0  0  0  0  0  0  0
   36.4620   21.2540   30.8080 F   0  0  0  0  0  0  0  0  0  0  0  0
   38.1402   26.3759   32.7351 H   0  0  0  0  0  0  0  0  0  0  0  0
   38.3318   27.2784   30.4114 H   0  0  0  0  0  0  0  0  0  0  0  0
   37.0783   29.3379   29.7852 H   0  0  0  0  0  0  0  0  0  0  0  0
   35.6583   30.4736   31.4612 H   0  0  0  0  0  0  0  0  0  0  0  0
   36.7940   30.9975   34.8249 H   0  0  0  0  0  0  0  0  0  0  0  0
   35.3638   31.9982   36.5557 H   0  0  0  0  0  0  0  0  0  0  0  0
   32.1773   29.5794   35.3175 H   0  0  0  0  0  0  0  0  0  0  0  0
   38.0769   22.9123   37.8552 H   0  0  0  0  0  0  0  0  0  0  0  0
   37.9630   25.4115   37.7408 H   0  0  0  0  0  0  0  0  0  0  0  0
  1 13  1  0
  2  1  2  0
  3  2  1  0
  4  3  2  0
  4  5  1  0
  5  6  2  0
  6  1  1  0
  6  7  1  0
  7 12  1  0
  7  8  2  0
  8  9  1  0
  9 10  2  0
 11 10  1  0
 12 11  2  0
 13 14  1  0
 14 18  1  0
 14 15  2  0
 17 16  2  0
 18 17  1  0
 19 20  1  0
 19 18  2  0
 20 21  2  0
 21 16  1  0
 22 20  1  0
 23 22  2  0
 24 22  1  0
 25 24  1  0
 25 26  1  0
 27 25  1  0
 28 25  1  0
  2 29  1  0
  3 30  1  0
  4 31  1  0
  5 32  1  0
  8 33  1  0
  9 34  1  0
 11 35  1  0
 16 36  1  0
 17 37  1  0
M  ISO  8  29  14  30  14  31  14  32  14  33  14  34  14  35  14  36  14
M  ISO  1  37  14
M  END
>  <minimizedAffinity>  (1) 
-5.7472415

>  <minimizedRMSD>  (1) 
1.35443449

$$$$
