
     RDKit          3D

 37 39  0  0  0  0  0  0  0  0999 V2000
   36.8000   27.7040   33.4270 C   0  0  0  0  0  0  0  0  0  0  0  0
   37.5200   26.9890   32.5180 C   0  0  0  0  0  0  0  0  0  0  0  0
   37.5940   27.4140   31.1890 C   0  0  0  0  0  0  0  0  0  0  0  0
   36.9300   28.5680   30.8010 C   0  0  0  0  0  0  0  0  0  0  0  0
   36.2010   29.2850   31.7350 C   0  0  0  0  0  0  0  0  0  0  0  0
   36.1310   28.8680   33.0300 C   0  0  0  0  0  0  0  0  0  0  0  0
   35.3870   29.5690   34.0560 C   0  0  0  0  0  0  0  0  0  0  0  0
   35.9210   30.5220   34.8900 C   0  0  0  0  0  0  0  0  0  0  0  0
   35.2020   31.1850   35.8650 C   0  0  0  0  0  0  0  0  0  0  0  0
   33.9080   30.8970   36.0260 N   0  0  0  0  0  0  0  0  0  0  0  0
   33.3620   29.9760   35.2300 C   0  0  0  0  0  0  0  0  0  0  0  0
   34.0580   29.3290   34.2800 N   0  0  0  0  0  0  0  0  0  0  0  0
   36.7390   27.2700   34.7260 O   0  0  0  0  0  0  0  0  0  0  0  0
   37.7980   26.8300   35.4710 C   0  0  0  0  0  0  0  0  0  0  0  0
   38.6690   27.7010   35.7410 O   0  0  0  0  0  0  0  0  0  0  0  0
   38.0100   23.6290   37.4630 C   0  0  0  0  0  0  0  0  0  0  0  0
   37.9330   24.9960   37.2040 C   0  0  0  0  0  0  0  0  0  0  0  0
   37.8810   25.4440   35.9050 C   0  0  0  0  0  0  0  0  0  0  0  0
   37.9080   24.5050   34.9290 N   0  0  0  0  0  0  0  0  0  0  0  0
   37.9820   23.1660   35.1590 C   0  0  0  0  0  0  0  0  0  0  0  0
   38.0320   22.7510   36.4300 N   0  0  0  0  0  0  0  0  0  0  0  0
   38.0080   22.2050   34.0730 C   0  0  0  0  0  0  0  0  0  0  0  0
   39.1040   21.8030   33.6140 O   0  0  0  0  0  0  0  0  0  0  0  0
   36.8410   21.7160   33.5260 O   0  0  0  0  0  0  0  0  0  0  0  0
   36.5120   22.1290   32.2470 C   0  0  0  0  0  0  0  0  0  0  0  0
   35.4320   22.6710   31.8920 O   0  0  0  0  0  0  0  0  0  0  0  0
   37.3610   21.9960   31.1430 O   0  0  0  0  0  0  0  0  0  0  0  0
   38.0447   26.0743   32.8312 H   0  0  0  0  0  0  0  0  0  0  0  0
   38.1754   26.8368   30.4550 H   0  0  0  0  0  0  0  0  0  0  0  0
   36.9821   28.9119   29.7574 H   0  0  0  0  0  0  0  0  0  0  0  0
   35.6733   30.2001   31.4282 H   0  0  0  0  0  0  0  0  0  0  0  0
   36.9859   30.7719   34.7738 H   0  0  0  0  0  0  0  0  0  0  0  0
   35.6885   31.9399   36.5002 H   0  0  0  0  0  0  0  0  0  0  0  0
   32.2960   29.7359   35.3569 H   0  0  0  0  0  0  0  0  0  0  0  0
   38.0527   23.2642   38.4999 H   0  0  0  0  0  0  0  0  0  0  0  0
   37.9139   25.7148   38.0364 H   0  0  0  0  0  0  0  0  0  0  0  0
   37.0673   22.3116   30.2518 H   0  0  0  0  0  0  0  0  0  0  0  0
  1 13  1  0
  2  1  2  0
  3  2  1  0
  4  3  2  0
  4  5  1  0
  5  6  2  0
  6  1  1  0
  6  7  1  0
  7 12  1  0
  7  8  2  0
  8  9  1  0
  9 10  2  0
 11 10  1  0
 12 11  2  0
 13 14  1  0
 14 15  2  0
 14 18  1  0
 17 16  2  0
 18 17  1  0
 19 20  1  0
 19 18  2  0
 20 21  2  0
 21 16  1  0
 22 20  1  0
 23 22  2  0
 24 22  1  0
 25 24  1  0
 26 25  2  0
 27 25  1  0
  2 28  1  0
  3 29  1  0
  4 30  1  0
  5 31  1  0
  8 32  1  0
  9 33  1  0
 11 34  1  0
 16 35  1  0
 17 36  1  0
 27 37  1  0
M  ISO  8  28  14  29  14  30  14  31  14  32  14  33  14  34  14  35  14
M  ISO  2  36  14  37   3
M  END
>  <minimizedAffinity>  (1) 
-5.35241222

>  <minimizedRMSD>  (1) 
0.906535149

$$$$
