
     RDKit          3D

 27 29  0  0  0  0  0  0  0  0999 V2000
   38.8810   23.4010   34.0240 S   0  0  0  0  0  0  0  0  0  0  0  0
   38.4270   25.0440   34.5420 C   0  0  0  0  0  0  0  0  0  0  0  0
   38.8140   25.6000   35.7360 C   0  0  0  0  0  0  0  0  0  0  0  0
   38.4790   26.8670   36.1680 C   0  0  0  0  0  0  0  0  0  0  0  0
   37.6990   27.6570   35.3580 C   0  0  0  0  0  0  0  0  0  0  0  0
   37.2890   27.1280   34.1430 C   0  0  0  0  0  0  0  0  0  0  0  0
   36.4970   27.9740   33.3600 C   0  0  0  0  0  0  0  0  0  0  0  0
   36.0460   27.5090   32.1230 C   0  0  0  0  0  0  0  0  0  0  0  0
   36.4060   26.2340   31.7320 C   0  0  0  0  0  0  0  0  0  0  0  0
   37.1860   25.4230   32.5230 C   0  0  0  0  0  0  0  0  0  0  0  0
   37.6330   25.8600   33.7310 C   0  0  0  0  0  0  0  0  0  0  0  0
   37.5450   22.2640   34.3580 C   0  0  0  0  0  0  0  0  0  0  0  0
   37.1590   21.8930   35.6840 C   0  0  0  0  0  0  0  0  0  0  0  0
   36.1070   21.0030   35.8140 C   0  0  0  0  0  0  0  0  0  0  0  0
   35.4980   20.5310   34.6980 N   0  0  0  0  0  0  0  0  0  0  0  0
   35.8980   20.9140   33.4480 C   0  0  0  0  0  0  0  0  0  0  0  0
   36.9080   21.7690   33.2910 N   0  0  0  0  0  0  0  0  0  0  0  0
   39.4405   24.9872   36.4008 H   0  0  0  0  0  0  0  0  0  0  0  0
   38.8297   27.2377   37.1425 H   0  0  0  0  0  0  0  0  0  0  0  0
   37.4098   28.6737   35.6626 H   0  0  0  0  0  0  0  0  0  0  0  0
   36.2352   28.9832   33.7108 H   0  0  0  0  0  0  0  0  0  0  0  0
   35.4201   28.1417   31.4765 H   0  0  0  0  0  0  0  0  0  0  0  0
   36.0586   25.8561   30.7591 H   0  0  0  0  0  0  0  0  0  0  0  0
   37.4503   24.4132   32.1760 H   0  0  0  0  0  0  0  0  0  0  0  0
   37.6774   22.2987   36.5653 H   0  0  0  0  0  0  0  0  0  0  0  0
   35.7690   20.6824   36.8105 H   0  0  0  0  0  0  0  0  0  0  0  0
   35.3813   20.5127   32.5637 H   0  0  0  0  0  0  0  0  0  0  0  0
  1 12  1  0
  1  2  1  0
  2  3  2  0
  3  4  1  0
  5  4  2  0
  6  5  1  0
  7  6  2  0
  8  7  1  0
  9  8  2  0
  9 10  1  0
 10 11  2  0
 11  6  1  0
 11  2  1  0
 12 13  2  0
 13 14  1  0
 15 14  2  0
 16 15  1  0
 17 16  2  0
 17 12  1  0
  3 18  1  0
  4 19  1  0
  5 20  1  0
  7 21  1  0
  8 22  1  0
  9 23  1  0
 10 24  1  0
 13 25  1  0
 14 26  1  0
 16 27  1  0
M  ISO  8  18  14  19  14  20  14  21  14  22  14  23  14  24  14  25  14
M  ISO  2  26  14  27  14
M  END
>  <minimizedAffinity>  (1) 
-4.7708354

>  <minimizedRMSD>  (1) 
5.07312012

$$$$
