
     RDKit          3D

 25 27  0  0  0  0  0  0  0  0999 V2000
   38.6840   21.9830   34.0090 S   0  0  0  0  0  0  0  0  0  0  0  0
   38.2780   23.1730   35.3070 C   0  0  0  0  0  0  0  0  0  0  0  0
   37.6720   22.9770   36.5350 C   0  0  0  0  0  0  0  0  0  0  0  0
   37.5960   24.1660   37.1250 N   0  0  0  0  0  0  0  0  0  0  0  0
   38.1100   25.1500   36.3810 C   0  0  0  0  0  0  0  0  0  0  0  0
   38.2290   26.5210   36.6210 C   0  0  0  0  0  0  0  0  0  0  0  0
   38.8250   27.2900   35.6220 C   0  0  0  0  0  0  0  0  0  0  0  0
   39.2710   26.6990   34.4540 C   0  0  0  0  0  0  0  0  0  0  0  0
   39.1320   25.3290   34.2570 C   0  0  0  0  0  0  0  0  0  0  0  0
   38.5480   24.5400   35.2210 C   0  0  0  0  0  0  0  0  0  0  0  0
   37.3620   21.9600   32.7890 C   0  0  0  0  0  0  0  0  0  0  0  0
   36.8510   23.1530   32.1980 C   0  0  0  0  0  0  0  0  0  0  0  0
   35.8360   22.9920   31.2760 C   0  0  0  0  0  0  0  0  0  0  0  0
   35.3880   21.7530   30.9850 N   0  0  0  0  0  0  0  0  0  0  0  0
   35.9030   20.6330   31.5720 C   0  0  0  0  0  0  0  0  0  0  0  0
   36.8890   20.7540   32.4710 N   0  0  0  0  0  0  0  0  0  0  0  0
   37.3198   22.0191   36.9455 H   0  0  0  0  0  0  0  0  0  0  0  0
   37.1842   24.3133   38.0575 H   0  0  0  0  0  0  0  0  0  0  0  0
   37.8686   26.9738   37.5564 H   0  0  0  0  0  0  0  0  0  0  0  0
   38.9412   28.3746   35.7641 H   0  0  0  0  0  0  0  0  0  0  0  0
   39.7396   27.3174   33.6742 H   0  0  0  0  0  0  0  0  0  0  0  0
   39.4919   24.8728   33.3230 H   0  0  0  0  0  0  0  0  0  0  0  0
   37.2436   24.1461   32.4620 H   0  0  0  0  0  0  0  0  0  0  0  0
   35.3947   23.8696   30.7810 H   0  0  0  0  0  0  0  0  0  0  0  0
   35.5115   19.6393   31.3089 H   0  0  0  0  0  0  0  0  0  0  0  0
  1  2  1  0
  2  3  2  0
  3  4  1  0
  5  6  2  0
  5  4  1  0
  7  6  1  0
  8  7  2  0
  9  8  1  0
  9 10  2  0
 10  2  1  0
 10  5  1  0
 11  1  1  0
 12 11  2  0
 13 12  1  0
 14 13  2  0
 14 15  1  0
 15 16  2  0
 16 11  1  0
  3 17  1  0
  4 18  1  0
  6 19  1  0
  7 20  1  0
  8 21  1  0
  9 22  1  0
 12 23  1  0
 13 24  1  0
 15 25  1  0
M  ISO  8  17  14  18   9  19  14  20  14  21  14  22  14  23  14  24  14
M  ISO  1  25  14
M  END
>  <minimizedAffinity>  (1) 
-4.42186832

>  <minimizedRMSD>  (1) 
3.73736262

$$$$
