
     RDKit          3D

 22 24  0  0  0  0  0  0  0  0999 V2000
   38.8500   22.8170   33.6810 S   0  0  0  0  0  0  0  0  0  0  0  0
   38.0130   24.6870   38.2110 N   0  0  0  0  0  0  0  0  0  0  0  0
   38.0880   23.3350   38.1850 C   0  0  0  0  0  0  0  0  0  0  0  0
   38.3170   22.9060   36.9140 N   0  0  0  0  0  0  0  0  0  0  0  0
   38.3770   24.0410   36.1910 C   0  0  0  0  0  0  0  0  0  0  0  0
   38.5940   24.1480   34.8330 C   0  0  0  0  0  0  0  0  0  0  0  0
   38.6160   25.3930   34.3060 N   0  0  0  0  0  0  0  0  0  0  0  0
   38.4400   26.4990   35.0330 C   0  0  0  0  0  0  0  0  0  0  0  0
   38.2280   26.3960   36.3660 N   0  0  0  0  0  0  0  0  0  0  0  0
   38.1930   25.1850   36.9580 C   0  0  0  0  0  0  0  0  0  0  0  0
   37.2990   22.0990   33.1440 C   0  0  0  0  0  0  0  0  0  0  0  0
   36.7070   22.3630   31.8870 C   0  0  0  0  0  0  0  0  0  0  0  0
   35.5060   21.7330   31.6180 C   0  0  0  0  0  0  0  0  0  0  0  0
   34.9530   20.9040   32.5520 N   0  0  0  0  0  0  0  0  0  0  0  0
   35.5530   20.6790   33.7430 C   0  0  0  0  0  0  0  0  0  0  0  0
   36.7180   21.2780   34.0300 N   0  0  0  0  0  0  0  0  0  0  0  0
   37.8447   25.2539   39.0543 H   0  0  0  0  0  0  0  0  0  0  0  0
   37.9797   22.6801   39.0621 H   0  0  0  0  0  0  0  0  0  0  0  0
   38.4671   27.4878   34.5517 H   0  0  0  0  0  0  0  0  0  0  0  0
   37.1796   23.0376   31.1579 H   0  0  0  0  0  0  0  0  0  0  0  0
   34.9983   21.8987   30.6563 H   0  0  0  0  0  0  0  0  0  0  0  0
   35.0856   20.0050   34.4760 H   0  0  0  0  0  0  0  0  0  0  0  0
  1  6  1  0
  3  2  1  0
  4  3  2  0
  5  4  1  0
  5 10  2  0
  6  5  1  0
  7  6  2  0
  7  8  1  0
  8  9  2  0
  9 10  1  0
 10  2  1  0
 11  1  1  0
 11 16  1  0
 12 11  2  0
 13 12  1  0
 13 14  2  0
 14 15  1  0
 15 16  2  0
  2 17  1  0
  3 18  1  0
  8 19  1  0
 12 20  1  0
 13 21  1  0
 15 22  1  0
M  ISO  6  17   9  18  14  19  14  20  14  21  14  22  14
M  END
>  <minimizedAffinity>  (1) 
-4.10727692

>  <minimizedRMSD>  (1) 
3.89987397

$$$$
