
     RDKit          3D

 21 22  0  0  0  0  0  0  0  0999 V2000
   39.0590   22.7350   36.1280 S   0  0  0  0  0  0  0  0  0  0  0  0
   37.6560   21.9230   35.3810 C   0  0  0  0  0  0  0  0  0  0  0  0
   36.5750   21.4060   36.1270 C   0  0  0  0  0  0  0  0  0  0  0  0
   35.5420   20.7960   35.4380 C   0  0  0  0  0  0  0  0  0  0  0  0
   35.6230   20.7290   34.0830 N   0  0  0  0  0  0  0  0  0  0  0  0
   36.6690   21.2320   33.4000 C   0  0  0  0  0  0  0  0  0  0  0  0
   37.6780   21.8250   34.0430 N   0  0  0  0  0  0  0  0  0  0  0  0
   39.0070   24.5100   35.9140 C   0  0  0  0  0  0  0  0  0  0  0  0
   40.0340   24.9610   35.0980 C   0  0  0  0  0  0  0  0  0  0  0  0
   40.1750   26.3140   34.8040 C   0  0  0  0  0  0  0  0  0  0  0  0
   39.2730   27.2120   35.3380 C   0  0  0  0  0  0  0  0  0  0  0  0
   38.2590   26.7520   36.1450 C   0  0  0  0  0  0  0  0  0  0  0  0
   38.1100   25.4140   36.4430 C   0  0  0  0  0  0  0  0  0  0  0  0
   36.5545   21.4858   37.2239 H   0  0  0  0  0  0  0  0  0  0  0  0
   34.6775   20.3761   35.9730 H   0  0  0  0  0  0  0  0  0  0  0  0
   36.6924   21.1537   32.3030 H   0  0  0  0  0  0  0  0  0  0  0  0
   40.7481   24.2381   34.6767 H   0  0  0  0  0  0  0  0  0  0  0  0
   40.9927   26.6624   34.1560 H   0  0  0  0  0  0  0  0  0  0  0  0
   39.3645   28.2863   35.1199 H   0  0  0  0  0  0  0  0  0  0  0  0
   37.5442   27.4743   36.5661 H   0  0  0  0  0  0  0  0  0  0  0  0
   37.2895   25.0735   37.0917 H   0  0  0  0  0  0  0  0  0  0  0  0
  2  3  2  0
  2  1  1  0
  4  3  1  0
  5  4  2  0
  6  7  2  0
  6  5  1  0
  7  2  1  0
  8  1  1  0
  8 13  1  0
  9  8  2  0
 10  9  1  0
 10 11  2  0
 11 12  1  0
 12 13  2  0
  3 14  1  0
  4 15  1  0
  6 16  1  0
  9 17  1  0
 10 18  1  0
 11 19  1  0
 12 20  1  0
 13 21  1  0
M  ISO  8  14  14  15  14  16  14  17  14  18  14  19  14  20  14  21  14
M  END
>  <minimizedAffinity>  (1) 
-4.05312634

>  <minimizedRMSD>  (1) 
1.86615336

$$$$
