
     RDKit          3D

 27 28  0  0  0  0  0  0  0  0999 V2000
   37.5280   25.0890   33.2470 C   0  0  0  0  0  0  0  0  0  0  0  0
   36.9880   26.3330   32.7940 C   0  0  0  0  0  0  0  0  0  0  0  0
   36.1430   26.2990   31.6980 C   0  0  0  0  0  0  0  0  0  0  0  0
   35.8600   25.1110   31.1020 N   0  0  0  0  0  0  0  0  0  0  0  0
   36.3940   23.9420   31.5610 C   0  0  0  0  0  0  0  0  0  0  0  0
   37.2170   23.9500   32.6250 N   0  0  0  0  0  0  0  0  0  0  0  0
   38.6270   24.9210   34.6340 S   0  0  0  0  0  0  0  0  0  0  0  0
   38.0430   23.7040   35.8480 C   0  0  0  0  0  0  0  0  0  0  0  0
   38.7120   22.3940   35.7480 C   0  0  0  0  0  0  0  0  0  0  0  0
   39.8900   22.1380   36.6090 C   0  0  0  0  0  0  0  0  0  0  0  0
   40.0020   22.9540   37.8550 C   0  0  0  0  0  0  0  0  0  0  0  0
   38.5720   23.3510   38.2400 C   0  0  0  0  0  0  0  0  0  0  0  0
   38.1630   24.3730   37.1960 C   0  0  0  0  0  0  0  0  0  0  0  0
   37.2343   27.2799   33.2967 H   0  0  0  0  0  0  0  0  0  0  0  0
   35.7025   27.2298   31.3112 H   0  0  0  0  0  0  0  0  0  0  0  0
   36.1513   22.9929   31.0607 H   0  0  0  0  0  0  0  0  0  0  0  0
   36.9955   23.4284   35.6564 H   0  0  0  0  0  0  0  0  0  0  0  0
   37.9614   21.6262   35.9868 H   0  0  0  0  0  0  0  0  0  0  0  0
   39.1148   22.3730   34.7246 H   0  0  0  0  0  0  0  0  0  0  0  0
   39.8618   21.0792   36.9058 H   0  0  0  0  0  0  0  0  0  0  0  0
   40.7602   22.4220   35.9990 H   0  0  0  0  0  0  0  0  0  0  0  0
   40.4619   22.3604   38.6588 H   0  0  0  0  0  0  0  0  0  0  0  0
   40.6339   23.8404   37.6967 H   0  0  0  0  0  0  0  0  0  0  0  0
   37.9050   22.4768   38.2096 H   0  0  0  0  0  0  0  0  0  0  0  0
   38.5120   23.7527   39.2623 H   0  0  0  0  0  0  0  0  0  0  0  0
   38.9230   25.1666   37.1439 H   0  0  0  0  0  0  0  0  0  0  0  0
   37.1920   24.8088   37.4739 H   0  0  0  0  0  0  0  0  0  0  0  0
  1  7  1  0
  2  1  2  0
  3  2  1  0
  4  5  1  0
  4  3  2  0
  5  6  2  0
  6  1  1  0
  7  8  1  0
  8 13  1  0
  9  8  1  0
  9 10  1  0
 10 11  1  0
 11 12  1  0
 13 12  1  0
  2 14  1  0
  3 15  1  0
  5 16  1  0
  8 17  1  0
  9 18  1  0
  9 19  1  0
 10 20  1  0
 10 21  1  0
 11 22  1  0
 11 23  1  0
 12 24  1  0
 12 25  1  0
 13 26  1  0
 13 27  1  0
M  ISO  8  14  14  15  14  16  14  17  13  18  13  19  13  20  13  21  13
M  ISO  6  22  13  23  13  24  13  25  13  26  13  27  13
M  END
>  <minimizedAffinity>  (1) 
-3.84859347

>  <minimizedRMSD>  (1) 
3.64995766

$$$$
