
     RDKit          3D

 36 39  0  0  0  0  0  0  0  0999 V2000
   39.3690   25.4220   34.5050 N   0  0  0  0  0  0  0  0  0  0  0  0
   40.5310   26.0790   34.4700 C   0  0  0  0  0  0  0  0  0  0  0  0
   40.8610   26.8300   33.3450 C   0  0  0  0  0  0  0  0  0  0  0  0
   39.9680   26.8750   32.2850 C   0  0  0  0  0  0  0  0  0  0  0  0
   40.1610   27.5150   31.2290 O   0  0  0  0  0  0  0  0  0  0  0  0
   38.7850   26.1960   32.3390 N   0  0  0  0  0  0  0  0  0  0  0  0
   38.5140   25.4810   33.4580 C   0  0  0  0  0  0  0  0  0  0  0  0
   37.4330   24.8590   33.5130 O   0  0  0  0  0  0  0  0  0  0  0  0
   38.2350   25.1980   36.6090 C   0  0  0  0  0  0  0  0  0  0  0  0
   39.1290   24.6920   35.6740 C   0  0  0  0  0  0  0  0  0  0  0  0
   39.7300   23.4720   35.9870 C   0  0  0  0  0  0  0  0  0  0  0  0
   39.4100   22.8590   37.1690 N   0  0  0  0  0  0  0  0  0  0  0  0
   38.5510   23.3780   38.0310 C   0  0  0  0  0  0  0  0  0  0  0  0
   37.9640   24.5520   37.7450 N   0  0  0  0  0  0  0  0  0  0  0  0
   38.3730   22.5730   39.1810 N   0  0  0  0  0  0  0  0  0  0  0  0
   42.1380   27.5870   33.2120 C   0  0  0  0  0  0  0  0  0  0  0  0
   43.2150   26.7110   32.7880 N   0  0  0  0  0  0  0  0  0  0  0  0
   43.5280   26.1450   31.6150 C   0  0  0  0  0  0  0  0  0  0  0  0
   44.6410   25.4000   31.7200 N   0  0  0  0  0  0  0  0  0  0  0  0
   45.0640   25.4810   32.9920 C   0  0  0  0  0  0  0  0  0  0  0  0
   46.1310   24.9490   33.7140 C   0  0  0  0  0  0  0  0  0  0  0  0
   46.3100   25.2200   35.0460 N   0  0  0  0  0  0  0  0  0  0  0  0
   45.3930   26.0380   35.6400 C   0  0  0  0  0  0  0  0  0  0  0  0
   44.3690   26.5560   34.9750 N   0  0  0  0  0  0  0  0  0  0  0  0
   44.1740   26.2980   33.6510 C   0  0  0  0  0  0  0  0  0  0  0  0
   41.2225   26.0273   35.3239 H   0  0  0  0  0  0  0  0  0  0  0  0
   38.1191   26.2261   31.5538 H   0  0  0  0  0  0  0  0  0  0  0  0
   37.7366   26.1577   36.4076 H   0  0  0  0  0  0  0  0  0  0  0  0
   40.4495   23.0100   35.2950 H   0  0  0  0  0  0  0  0  0  0  0  0
   37.7270   22.8733   39.9249 H   0  0  0  0  0  0  0  0  0  0  0  0
   38.8894   21.6867   39.2742 H   0  0  0  0  0  0  0  0  0  0  0  0
   42.0079   28.3854   32.4666 H   0  0  0  0  0  0  0  0  0  0  0  0
   42.3972   28.0158   34.1913 H   0  0  0  0  0  0  0  0  0  0  0  0
   42.9499   26.2733   30.6880 H   0  0  0  0  0  0  0  0  0  0  0  0
   46.8497   24.2933   33.2007 H   0  0  0  0  0  0  0  0  0  0  0  0
   45.5072   26.2760   36.7078 H   0  0  0  0  0  0  0  0  0  0  0  0
  1 10  1  0
  2  1  1  0
  3  2  2  0
  4  6  1  0
  4  3  1  0
  5  4  2  0
  6  7  1  0
  7  8  2  0
  7  1  1  0
  9 14  2  0
 10 11  2  0
 10  9  1  0
 11 12  1  0
 12 13  2  0
 13 15  1  0
 14 13  1  0
 16  3  1  0
 17 16  1  0
 17 25  1  0
 18 19  2  0
 18 17  1  0
 19 20  1  0
 20 25  2  0
 20 21  1  0
 21 22  2  0
 22 23  1  0
 24 23  2  0
 25 24  1  0
  2 26  1  0
  6 27  1  0
  9 28  1  0
 11 29  1  0
 15 30  1  0
 15 31  1  0
 16 32  1  0
 16 33  1  0
 18 34  1  0
 21 35  1  0
 23 36  1  0
M  ISO  8  26  14  27   9  28  14  29  14  32   8  33   8  34  14  35  14
M  ISO  1  36  14
M  END
>  <minimizedAffinity>  (1) 
-4.75267363

>  <minimizedRMSD>  (1) 
0.667263389

$$$$
