
     RDKit          3D

 26 27  0  0  0  0  0  0  0  0999 V2000
   37.6960   22.0180   35.1070 C   0  0  0  0  0  0  0  0  0  0  0  0
   36.8050   21.6250   36.1340 C   0  0  0  0  0  0  0  0  0  0  0  0
   35.6840   20.8990   35.7430 C   0  0  0  0  0  0  0  0  0  0  0  0
   35.5010   20.6130   34.4400 N   0  0  0  0  0  0  0  0  0  0  0  0
   36.3730   21.0030   33.4690 C   0  0  0  0  0  0  0  0  0  0  0  0
   37.4480   21.6950   33.8280 N   0  0  0  0  0  0  0  0  0  0  0  0
   39.1850   22.9540   35.4040 S   0  0  0  0  0  0  0  0  0  0  0  0
   39.0860   27.4650   35.8420 N   0  0  0  0  0  0  0  0  0  0  0  0
   39.9100   26.9160   34.7580 C   0  0  0  0  0  0  0  0  0  0  0  0
   40.2460   25.4770   35.0940 C   0  0  0  0  0  0  0  0  0  0  0  0
   38.9260   24.7250   35.1540 C   0  0  0  0  0  0  0  0  0  0  0  0
   38.0620   25.3400   36.2060 C   0  0  0  0  0  0  0  0  0  0  0  0
   37.8020   26.7860   35.7870 C   0  0  0  0  0  0  0  0  0  0  0  0
   36.9893   21.8805   37.1879 H   0  0  0  0  0  0  0  0  0  0  0  0
   34.9531   20.5614   36.4925 H   0  0  0  0  0  0  0  0  0  0  0  0
   36.1912   20.7510   32.4138 H   0  0  0  0  0  0  0  0  0  0  0  0
   39.5381   27.2933   36.7514 H   0  0  0  0  0  0  0  0  0  0  0  0
   40.8365   27.5013   34.6628 H   0  0  0  0  0  0  0  0  0  0  0  0
   39.3618   26.9635   33.8055 H   0  0  0  0  0  0  0  0  0  0  0  0
   40.8929   25.0466   34.3154 H   0  0  0  0  0  0  0  0  0  0  0  0
   40.7852   25.4086   36.0503 H   0  0  0  0  0  0  0  0  0  0  0  0
   38.4055   24.8135   34.1890 H   0  0  0  0  0  0  0  0  0  0  0  0
   37.1110   24.7922   36.2806 H   0  0  0  0  0  0  0  0  0  0  0  0
   38.5545   25.3003   37.1888 H   0  0  0  0  0  0  0  0  0  0  0  0
   37.0904   27.2607   36.4786 H   0  0  0  0  0  0  0  0  0  0  0  0
   37.3660   26.8373   34.7784 H   0  0  0  0  0  0  0  0  0  0  0  0
  1  7  1  0
  1  2  2  0
  3  2  1  0
  4  3  2  0
  5  6  2  0
  5  4  1  0
  6  1  1  0
  9 10  1  0
  9  8  1  0
 10 11  1  0
 11  7  1  0
 11 12  1  0
 13  8  1  0
 13 12  1  0
  2 14  1  0
  3 15  1  0
  5 16  1  0
  8 17  1  0
  9 18  1  0
  9 19  1  0
 10 20  1  0
 10 21  1  0
 11 22  1  0
 12 23  1  0
 12 24  1  0
 13 25  1  0
 13 26  1  0
M  ISO  8  14  14  15  14  16  14  17   5  18  13  19  13  20  13  21  13
M  ISO  5  22  13  23  13  24  13  25  13  26  13
M  END
>  <minimizedAffinity>  (1) 
-3.7444396

>  <minimizedRMSD>  (1) 
2.48001599

$$$$
