
     RDKit          3D

 24 25  0  0  0  0  0  0  0  0999 V2000
   36.6290   21.5900   34.0180 C   0  0  0  0  0  0  0  0  0  0  0  0
   35.6050   20.6680   33.7010 C   0  0  0  0  0  0  0  0  0  0  0  0
   35.1600   20.6160   32.3930 C   0  0  0  0  0  0  0  0  0  0  0  0
   35.7160   21.4470   31.4620 N   0  0  0  0  0  0  0  0  0  0  0  0
   36.6910   22.3140   31.8010 C   0  0  0  0  0  0  0  0  0  0  0  0
   37.1290   22.3750   33.0540 N   0  0  0  0  0  0  0  0  0  0  0  0
   37.3110   21.7790   35.6480 S   0  0  0  0  0  0  0  0  0  0  0  0
   38.4700   23.1600   35.7490 C   0  0  0  0  0  0  0  0  0  0  0  0
   39.6080   22.7220   36.6460 C   0  0  0  0  0  0  0  0  0  0  0  0
   39.2570   23.1660   38.0560 C   0  0  0  0  0  0  0  0  0  0  0  0
   37.8140   23.6750   37.9410 C   0  0  0  0  0  0  0  0  0  0  0  0
   37.8570   24.2800   36.5550 C   0  0  0  0  0  0  0  0  0  0  0  0
   35.1752   20.0116   34.4720 H   0  0  0  0  0  0  0  0  0  0  0  0
   34.3655   19.9120   32.1046 H   0  0  0  0  0  0  0  0  0  0  0  0
   37.1262   22.9743   31.0364 H   0  0  0  0  0  0  0  0  0  0  0  0
   38.7523   23.4578   34.7284 H   0  0  0  0  0  0  0  0  0  0  0  0
   39.7177   21.6281   36.6105 H   0  0  0  0  0  0  0  0  0  0  0  0
   40.5595   23.1669   36.3193 H   0  0  0  0  0  0  0  0  0  0  0  0
   39.3181   22.3212   38.7578 H   0  0  0  0  0  0  0  0  0  0  0  0
   39.9454   23.9331   38.4403 H   0  0  0  0  0  0  0  0  0  0  0  0
   37.0853   22.8535   38.0052 H   0  0  0  0  0  0  0  0  0  0  0  0
   37.5021   24.3659   38.7381 H   0  0  0  0  0  0  0  0  0  0  0  0
   38.4862   25.1819   36.5309 H   0  0  0  0  0  0  0  0  0  0  0  0
   36.8766   24.6122   36.1829 H   0  0  0  0  0  0  0  0  0  0  0  0
  1  7  1  0
  2  1  2  0
  3  2  1  0
  4  5  1  0
  4  3  2  0
  5  6  2  0
  6  1  1  0
  7  8  1  0
  8 12  1  0
  8  9  1  0
  9 10  1  0
 11 10  1  0
 12 11  1  0
  2 13  1  0
  3 14  1  0
  5 15  1  0
  8 16  1  0
  9 17  1  0
  9 18  1  0
 10 19  1  0
 10 20  1  0
 11 21  1  0
 11 22  1  0
 12 23  1  0
 12 24  1  0
M  ISO  8  13  14  14  14  15  14  16  13  17  13  18  13  19  13  20  13
M  ISO  4  21  13  22  13  23  13  24  13
M  END
>  <minimizedAffinity>  (1) 
-3.57145524

>  <minimizedRMSD>  (1) 
2.22599316

$$$$
