
     RDKit          3D

 14 14  0  0  0  0  0  0  0  0999 V2000
   37.6260   22.0760   35.7690 C   0  0  0  0  0  0  0  0  0  0  0  0
   36.4800   21.4390   36.3140 C   0  0  0  0  0  0  0  0  0  0  0  0
   35.6040   20.8310   35.4240 C   0  0  0  0  0  0  0  0  0  0  0  0
   35.8780   20.8740   34.1030 N   0  0  0  0  0  0  0  0  0  0  0  0
   36.9800   21.4890   33.6060 C   0  0  0  0  0  0  0  0  0  0  0  0
   37.8420   22.0850   34.4620 N   0  0  0  0  0  0  0  0  0  0  0  0
   38.8670   22.9120   36.7410 S   0  0  0  0  0  0  0  0  0  0  0  0
   38.2030   23.5290   38.3080 C   0  0  0  0  0  0  0  0  0  0  0  0
   37.6280   24.7620   38.1220 F   0  0  0  0  0  0  0  0  0  0  0  0
   39.3180   23.6460   39.1530 F   0  0  0  0  0  0  0  0  0  0  0  0
   37.2430   22.6990   38.8400 F   0  0  0  0  0  0  0  0  0  0  0  0
   36.2934   21.4275   37.3980 H   0  0  0  0  0  0  0  0  0  0  0  0
   34.7003   20.3220   35.7903 H   0  0  0  0  0  0  0  0  0  0  0  0
   37.1703   21.5031   32.5227 H   0  0  0  0  0  0  0  0  0  0  0  0
  1  2  2  0
  1  7  1  0
  3  2  1  0
  4  3  2  0
  5  4  1  0
  5  6  2  0
  6  1  1  0
  7  8  1  0
  8 11  1  0
  8 10  1  0
  9  8  1  0
  2 12  1  0
  3 13  1  0
  5 14  1  0
M  ISO  3  12  14  13  14  14  14
M  END
>  <minimizedAffinity>  (1) 
-3.57003117

>  <minimizedRMSD>  (1) 
1.71940637

$$$$
