
     RDKit          3D

 18 19  0  0  0  0  0  0  0  0999 V2000
   37.6450   22.0800   34.7840 C   0  0  0  0  0  0  0  0  0  0  0  0
   36.8220   21.6550   35.8490 C   0  0  0  0  0  0  0  0  0  0  0  0
   35.7380   20.8480   35.5390 C   0  0  0  0  0  0  0  0  0  0  0  0
   35.5280   20.5130   34.2400 N   0  0  0  0  0  0  0  0  0  0  0  0
   36.3350   20.9360   33.2420 C   0  0  0  0  0  0  0  0  0  0  0  0
   37.3960   21.7220   33.5220 N   0  0  0  0  0  0  0  0  0  0  0  0
   39.0730   23.1180   35.0160 S   0  0  0  0  0  0  0  0  0  0  0  0
   41.0140   21.5050   37.9020 N   0  0  0  0  0  0  0  0  0  0  0  0
   40.0190   22.1350   37.2900 N   0  0  0  0  0  0  0  0  0  0  0  0
   40.3330   22.2760   35.9820 C   0  0  0  0  0  0  0  0  0  0  0  0
   41.5840   21.7040   35.7710 C   0  0  0  0  0  0  0  0  0  0  0  0
   41.9790   21.2310   37.0050 C   0  0  0  0  0  0  0  0  0  0  0  0
   37.0328   21.9530   36.8867 H   0  0  0  0  0  0  0  0  0  0  0  0
   35.0626   20.4869   36.3285 H   0  0  0  0  0  0  0  0  0  0  0  0
   36.1275   20.6402   32.2030 H   0  0  0  0  0  0  0  0  0  0  0  0
   41.0429   21.2644   38.9031 H   0  0  0  0  0  0  0  0  0  0  0  0
   42.1389   21.6423   34.8232 H   0  0  0  0  0  0  0  0  0  0  0  0
   42.9263   20.7150   37.2203 H   0  0  0  0  0  0  0  0  0  0  0  0
  1  7  1  0
  1  2  2  0
  3  2  1  0
  4  3  2  0
  5  6  2  0
  5  4  1  0
  6  1  1  0
  7 10  1  0
  9  8  1  0
 10  9  2  0
 11 10  1  0
 11 12  2  0
 12  8  1  0
  2 13  1  0
  3 14  1  0
  5 15  1  0
  8 16  1  0
 11 17  1  0
 12 18  1  0
M  ISO  6  13  14  14  14  15  14  16   9  17  14  18  14
M  END
>  <minimizedAffinity>  (1) 
-3.45550942

>  <minimizedRMSD>  (1) 
1.82743156

$$$$
