
     RDKit          3D

 19 20  0  0  0  0  0  0  0  0999 V2000
   37.4930   22.1650   35.4870 C   0  0  0  0  0  0  0  0  0  0  0  0
   36.5370   21.5770   36.3430 C   0  0  0  0  0  0  0  0  0  0  0  0
   35.5790   20.7810   35.7390 C   0  0  0  0  0  0  0  0  0  0  0  0
   35.6070   20.6090   34.3960 N   0  0  0  0  0  0  0  0  0  0  0  0
   36.5400   21.1880   33.6050 C   0  0  0  0  0  0  0  0  0  0  0  0
   37.4890   21.9710   34.1560 N   0  0  0  0  0  0  0  0  0  0  0  0
   38.8130   23.2290   36.0770 S   0  0  0  0  0  0  0  0  0  0  0  0
   40.3230   22.3180   36.3100 C   0  0  0  0  0  0  0  0  0  0  0  0
   40.8840   21.8780   37.5020 C   0  0  0  0  0  0  0  0  0  0  0  0
   42.0750   21.1840   37.4190 C   0  0  0  0  0  0  0  0  0  0  0  0
   42.6700   20.9410   36.2350 N   0  0  0  0  0  0  0  0  0  0  0  0
   42.1150   21.3740   35.0760 C   0  0  0  0  0  0  0  0  0  0  0  0
   40.9380   22.0630   35.1320 N   0  0  0  0  0  0  0  0  0  0  0  0
   36.5524   21.7422   37.4304 H   0  0  0  0  0  0  0  0  0  0  0  0
   34.8016   20.2923   36.3447 H   0  0  0  0  0  0  0  0  0  0  0  0
   36.5241   21.0206   32.5179 H   0  0  0  0  0  0  0  0  0  0  0  0
   40.4004   22.0739   38.4704 H   0  0  0  0  0  0  0  0  0  0  0  0
   42.5496   20.8206   38.3424 H   0  0  0  0  0  0  0  0  0  0  0  0
   42.6032   21.1742   34.1107 H   0  0  0  0  0  0  0  0  0  0  0  0
  1  7  1  0
  1  2  2  0
  3  2  1  0
  4  3  2  0
  5  6  2  0
  5  4  1  0
  6  1  1  0
  7  8  1  0
  8  9  2  0
 10  9  1  0
 11 10  2  0
 12 13  2  0
 12 11  1  0
 13  8  1  0
  2 14  1  0
  3 15  1  0
  5 16  1  0
  9 17  1  0
 10 18  1  0
 12 19  1  0
M  ISO  6  14  14  15  14  16  14  17  14  18  14  19  14
M  END
>  <minimizedAffinity>  (1) 
-3.31401181

>  <minimizedRMSD>  (1) 
1.87397659

$$$$
