
     RDKit          3D

 18 19  0  0  0  0  0  0  0  0999 V2000
   37.6360   22.0050   35.4340 C   0  0  0  0  0  0  0  0  0  0  0  0
   36.5650   21.4500   36.1690 C   0  0  0  0  0  0  0  0  0  0  0  0
   35.5690   20.8120   35.4560 C   0  0  0  0  0  0  0  0  0  0  0  0
   35.6630   20.7510   34.1080 N   0  0  0  0  0  0  0  0  0  0  0  0
   36.7030   21.2950   33.4340 C   0  0  0  0  0  0  0  0  0  0  0  0
   37.6820   21.9180   34.0960 N   0  0  0  0  0  0  0  0  0  0  0  0
   39.0040   22.8620   36.1950 S   0  0  0  0  0  0  0  0  0  0  0  0
   38.8760   24.6240   36.0140 C   0  0  0  0  0  0  0  0  0  0  0  0
   39.7230   25.2550   35.1070 C   0  0  0  0  0  0  0  0  0  0  0  0
   39.4320   26.6040   35.1500 C   0  0  0  0  0  0  0  0  0  0  0  0
   38.4610   26.7750   36.0340 N   0  0  0  0  0  0  0  0  0  0  0  0
   38.1130   25.6100   36.5630 N   0  0  0  0  0  0  0  0  0  0  0  0
   36.5258   21.5231   37.2659 H   0  0  0  0  0  0  0  0  0  0  0  0
   34.7119   20.3601   35.9767 H   0  0  0  0  0  0  0  0  0  0  0  0
   36.7423   21.2239   32.3370 H   0  0  0  0  0  0  0  0  0  0  0  0
   40.4815   24.7700   34.4749 H   0  0  0  0  0  0  0  0  0  0  0  0
   39.9183   27.3931   34.5577 H   0  0  0  0  0  0  0  0  0  0  0  0
   38.0372   27.6821   36.2758 H   0  0  0  0  0  0  0  0  0  0  0  0
  1  2  2  0
  1  7  1  0
  3  2  1  0
  4  3  2  0
  5  6  2  0
  5  4  1  0
  6  1  1  0
  8  7  1  0
  8 12  2  0
  9 10  2  0
  9  8  1  0
 10 11  1  0
 11 12  1  0
  2 13  1  0
  3 14  1  0
  5 15  1  0
  9 16  1  0
 10 17  1  0
 11 18  1  0
M  ISO  6  13  14  14  14  15  14  16  14  17  14  18   9
M  END
>  <minimizedAffinity>  (1) 
-3.26627731

>  <minimizedRMSD>  (1) 
1.57354414

$$$$
