
     RDKit          3D

 18 19  0  0  0  0  0  0  0  0999 V2000
   37.7930   23.5500   33.6580 C   0  0  0  0  0  0  0  0  0  0  0  0
   37.1100   23.5760   32.4230 C   0  0  0  0  0  0  0  0  0  0  0  0
   36.6760   24.8080   31.9590 C   0  0  0  0  0  0  0  0  0  0  0  0
   36.9210   25.9160   32.6960 N   0  0  0  0  0  0  0  0  0  0  0  0
   37.5760   25.8580   33.8720 C   0  0  0  0  0  0  0  0  0  0  0  0
   38.0170   24.6780   34.3620 N   0  0  0  0  0  0  0  0  0  0  0  0
   38.4250   22.0550   34.4110 S   0  0  0  0  0  0  0  0  0  0  0  0
   38.9110   22.4900   36.0840 C   0  0  0  0  0  0  0  0  0  0  0  0
   40.0560   22.5430   36.8210 C   0  0  0  0  0  0  0  0  0  0  0  0
   39.7150   22.9700   38.0650 N   0  0  0  0  0  0  0  0  0  0  0  0
   38.3710   23.1790   38.0980 C   0  0  0  0  0  0  0  0  0  0  0  0
   37.8860   22.8750   36.8590 N   0  0  0  0  0  0  0  0  0  0  0  0
   36.9291   22.6541   31.8508 H   0  0  0  0  0  0  0  0  0  0  0  0
   36.1384   24.8841   31.0023 H   0  0  0  0  0  0  0  0  0  0  0  0
   37.7541   26.7827   34.4405 H   0  0  0  0  0  0  0  0  0  0  0  0
   41.0679   22.2876   36.4735 H   0  0  0  0  0  0  0  0  0  0  0  0
   37.7852   23.5276   38.9613 H   0  0  0  0  0  0  0  0  0  0  0  0
   36.8995   22.9316   36.5681 H   0  0  0  0  0  0  0  0  0  0  0  0
  1  6  1  0
  1  7  1  0
  2  1  2  0
  3  2  1  0
  3  4  2  0
  4  5  1  0
  5  6  2  0
  7  8  1  0
  8  9  2  0
  8 12  1  0
  9 10  1  0
 10 11  2  0
 12 11  1  0
  2 13  1  0
  3 14  1  0
  5 15  1  0
  9 16  1  0
 11 17  1  0
 12 18  1  0
M  ISO  6  13  14  14  14  15  14  16  14  17  14  18   9
M  END
>  <minimizedAffinity>  (1) 
-3.21146703

>  <minimizedRMSD>  (1) 
3.93721533

$$$$
