
     RDKit          3D

 20 21  0  0  0  0  0  0  0  0999 V2000
   37.4870   22.2300   35.2680 C   0  0  0  0  0  0  0  0  0  0  0  0
   36.6110   21.6460   36.2160 C   0  0  0  0  0  0  0  0  0  0  0  0
   35.6470   20.7770   35.7270 C   0  0  0  0  0  0  0  0  0  0  0  0
   35.5860   20.5290   34.3960 N   0  0  0  0  0  0  0  0  0  0  0  0
   36.4400   21.1060   33.5230 C   0  0  0  0  0  0  0  0  0  0  0  0
   37.3910   21.9580   33.9620 N   0  0  0  0  0  0  0  0  0  0  0  0
   38.7840   23.3690   35.7100 S   0  0  0  0  0  0  0  0  0  0  0  0
   40.2950   22.4180   35.9360 C   0  0  0  0  0  0  0  0  0  0  0  0
   41.2040   21.9990   34.9740 C   0  0  0  0  0  0  0  0  0  0  0  0
   42.2920   21.2820   35.3690 C   0  0  0  0  0  0  0  0  0  0  0  0
   42.4520   20.9990   36.7050 C   0  0  0  0  0  0  0  0  0  0  0  0
   41.5570   21.4100   37.6670 C   0  0  0  0  0  0  0  0  0  0  0  0
   40.4760   22.1260   37.2510 N   0  0  0  0  0  0  0  0  0  0  0  0
   36.6916   21.8712   37.2897 H   0  0  0  0  0  0  0  0  0  0  0  0
   34.9375   20.2928   36.4141 H   0  0  0  0  0  0  0  0  0  0  0  0
   36.3603   20.8807   32.4493 H   0  0  0  0  0  0  0  0  0  0  0  0
   41.0482   22.2417   33.9125 H   0  0  0  0  0  0  0  0  0  0  0  0
   43.0307   20.9349   34.6316 H   0  0  0  0  0  0  0  0  0  0  0  0
   43.3328   20.4194   37.0186 H   0  0  0  0  0  0  0  0  0  0  0  0
   41.7091   21.1695   38.7296 H   0  0  0  0  0  0  0  0  0  0  0  0
  1  7  1  0
  1  2  2  0
  3  2  1  0
  4  3  2  0
  5  6  2  0
  5  4  1  0
  6  1  1  0
  7  8  1  0
  8 13  2  0
  9 10  2  0
  9  8  1  0
 10 11  1  0
 11 12  2  0
 13 12  1  0
  2 14  1  0
  3 15  1  0
  5 16  1  0
  9 17  1  0
 10 18  1  0
 11 19  1  0
 12 20  1  0
M  ISO  7  14  14  15  14  16  14  17  14  18  14  19  14  20  14
M  END
>  <minimizedAffinity>  (1) 
-3.20132446

>  <minimizedRMSD>  (1) 
1.99820685

$$$$
