
     RDKit          3D

 20 20  0  0  0  0  0  0  0  0999 V2000
   38.0020   23.1350   34.2820 C   0  0  0  0  0  0  0  0  0  0  0  0
   37.4110   22.5360   33.1500 C   0  0  0  0  0  0  0  0  0  0  0  0
   36.9200   23.3730   32.1680 C   0  0  0  0  0  0  0  0  0  0  0  0
   37.0260   24.7300   32.3300 N   0  0  0  0  0  0  0  0  0  0  0  0
   37.5980   25.2640   33.4260 C   0  0  0  0  0  0  0  0  0  0  0  0
   38.0900   24.4730   34.4070 N   0  0  0  0  0  0  0  0  0  0  0  0
   38.6820   22.2280   35.6530 S   0  0  0  0  0  0  0  0  0  0  0  0
   39.2720   23.2830   36.9710 C   0  0  0  0  0  0  0  0  0  0  0  0
   40.4400   22.5880   37.6580 C   0  0  0  0  0  0  0  0  0  0  0  0
   38.1830   23.4630   38.0070 C   0  0  0  0  0  0  0  0  0  0  0  0
   37.3438   21.4423   33.0532 H   0  0  0  0  0  0  0  0  0  0  0  0
   36.4490   22.9556   31.2658 H   0  0  0  0  0  0  0  0  0  0  0  0
   37.6660   26.3574   33.5248 H   0  0  0  0  0  0  0  0  0  0  0  0
   39.5683   24.2563   36.5528 H   0  0  0  0  0  0  0  0  0  0  0  0
   40.3192   22.6599   38.7490 H   0  0  0  0  0  0  0  0  0  0  0  0
   40.4630   21.5292   37.3606 H   0  0  0  0  0  0  0  0  0  0  0  0
   41.3815   23.0729   37.3606 H   0  0  0  0  0  0  0  0  0  0  0  0
   38.6195   23.3909   39.0141 H   0  0  0  0  0  0  0  0  0  0  0  0
   37.7156   24.4506   37.8798 H   0  0  0  0  0  0  0  0  0  0  0  0
   37.4226   22.6783   37.8798 H   0  0  0  0  0  0  0  0  0  0  0  0
  1  6  2  0
  1  7  1  0
  2  1  1  0
  3  4  1  0
  3  2  2  0
  4  5  2  0
  5  6  1  0
  7  8  1  0
  8  9  1  0
  8 10  1  0
  2 11  1  0
  3 12  1  0
  5 13  1  0
  8 14  1  0
  9 15  1  0
  9 16  1  0
  9 17  1  0
 10 18  1  0
 10 19  1  0
 10 20  1  0
M  ISO  8  11  14  12  14  13  14  14   8  15   8  16   8  17   8  18   8
M  ISO  2  19   8  20   8
M  END
>  <minimizedAffinity>  (1) 
-2.81428981

>  <minimizedRMSD>  (1) 
3.03189683

$$$$
