
     RDKit          3D

 24 25  0  0  0  0  0  0  0  0999 V2000
   38.1300   23.2880   35.7010 S   0  0  0  0  0  0  0  0  0  0  0  0
   37.8680   22.9060   33.9770 C   0  0  0  0  0  0  0  0  0  0  0  0
   37.9470   21.5810   33.4450 C   0  0  0  0  0  0  0  0  0  0  0  0
   37.7190   21.4410   32.0870 C   0  0  0  0  0  0  0  0  0  0  0  0
   37.4370   22.5340   31.3310 N   0  0  0  0  0  0  0  0  0  0  0  0
   37.3690   23.7770   31.8760 C   0  0  0  0  0  0  0  0  0  0  0  0
   37.5860   23.9500   33.1880 N   0  0  0  0  0  0  0  0  0  0  0  0
   42.6760   23.4610   36.1930 C   0  0  0  0  0  0  0  0  0  0  0  0
   41.9660   22.5100   36.9060 C   0  0  0  0  0  0  0  0  0  0  0  0
   40.5950   22.4290   36.7820 C   0  0  0  0  0  0  0  0  0  0  0  0
   39.8990   23.2840   35.9540 C   0  0  0  0  0  0  0  0  0  0  0  0
   40.5770   24.2340   35.2370 C   0  0  0  0  0  0  0  0  0  0  0  0
   41.9540   24.3210   35.3580 C   0  0  0  0  0  0  0  0  0  0  0  0
   44.4100   23.5920   36.3270 S   0  0  0  0  0  0  0  0  0  0  0  0
   45.0130   22.3220   35.7920 O   0  0  0  0  0  0  0  0  0  0  0  0
   44.8620   24.7880   35.5440 O   0  0  0  0  0  0  0  0  0  0  0  0
   38.1776   20.7156   34.0836 H   0  0  0  0  0  0  0  0  0  0  0  0
   37.7661   20.4460   31.6204 H   0  0  0  0  0  0  0  0  0  0  0  0
   37.1354   24.6432   31.2395 H   0  0  0  0  0  0  0  0  0  0  0  0
   42.4976   21.8163   37.5740 H   0  0  0  0  0  0  0  0  0  0  0  0
   40.0459   21.6673   37.3549 H   0  0  0  0  0  0  0  0  0  0  0  0
   40.0333   24.9209   34.5718 H   0  0  0  0  0  0  0  0  0  0  0  0
   42.4946   25.0867   34.7822 H   0  0  0  0  0  0  0  0  0  0  0  0
   44.8076   23.7577   37.6275 H   0  0  0  0  0  0  0  0  0  0  0  0
  1 11  1  0
  2  1  1  0
  3  2  2  0
  4  3  1  0
  5  6  1  0
  5  4  2  0
  6  7  2  0
  7  2  1  0
  8 14  1  0
  8  9  2  0
 10  9  1  0
 11 10  2  0
 12 13  2  0
 12 11  1  0
 13  8  1  0
 15 14  2  0
 16 14  2  0
  3 17  1  0
  4 18  1  0
  6 19  1  0
  9 20  1  0
 10 21  1  0
 12 22  1  0
 13 23  1  0
 14 24  1  0
M  ISO  8  17  14  18  14  19  14  20  14  21  14  22  14  23  14  24  11
M  END
>  <minimizedAffinity>  (1) 
-3.1355927

>  <minimizedRMSD>  (1) 
4.05635643

$$$$
