
     RDKit          3D

 38 41  0  0  0  0  0  0  0  0999 V2000
   42.8130   24.7240   35.5360 C   0  0  0  0  0  0  0  0  0  0  0  0
   42.4100   23.5480   36.1700 C   0  0  0  0  0  0  0  0  0  0  0  0
   41.0880   23.1810   36.2050 C   0  0  0  0  0  0  0  0  0  0  0  0
   40.1250   23.9790   35.6060 C   0  0  0  0  0  0  0  0  0  0  0  0
   40.4880   25.1340   34.9770 C   0  0  0  0  0  0  0  0  0  0  0  0
   41.8240   25.4940   34.9480 C   0  0  0  0  0  0  0  0  0  0  0  0
   44.4950   25.1460   35.4730 S   0  0  0  0  0  0  0  0  0  0  0  0
   45.2320   24.1530   34.6580 O   0  0  0  0  0  0  0  0  0  0  0  0
   44.5970   26.5320   34.8550 O   0  0  0  0  0  0  0  0  0  0  0  0
   45.2080   25.1970   37.0900 C   0  0  0  0  0  0  0  0  0  0  0  0
   44.6740   25.7660   38.2350 C   0  0  0  0  0  0  0  0  0  0  0  0
   45.5410   25.5740   39.2180 N   0  0  0  0  0  0  0  0  0  0  0  0
   46.6310   24.9020   38.7800 C   0  0  0  0  0  0  0  0  0  0  0  0
   47.7960   24.4650   39.4060 C   0  0  0  0  0  0  0  0  0  0  0  0
   48.7320   23.7890   38.6480 C   0  0  0  0  0  0  0  0  0  0  0  0
   48.5520   23.5350   37.3040 C   0  0  0  0  0  0  0  0  0  0  0  0
   47.3800   23.9750   36.6780 C   0  0  0  0  0  0  0  0  0  0  0  0
   46.4300   24.6570   37.4290 C   0  0  0  0  0  0  0  0  0  0  0  0
   38.3720   23.6360   35.5720 S   0  0  0  0  0  0  0  0  0  0  0  0
   38.0110   23.0210   33.9430 C   0  0  0  0  0  0  0  0  0  0  0  0
   38.2070   21.6610   33.5610 C   0  0  0  0  0  0  0  0  0  0  0  0
   37.8860   21.3190   32.2650 C   0  0  0  0  0  0  0  0  0  0  0  0
   37.4080   22.2570   31.4210 N   0  0  0  0  0  0  0  0  0  0  0  0
   37.2320   23.5430   31.8150 C   0  0  0  0  0  0  0  0  0  0  0  0
   37.5310   23.9180   33.0630 N   0  0  0  0  0  0  0  0  0  0  0  0
   43.1634   22.9054   36.6490 H   0  0  0  0  0  0  0  0  0  0  0  0
   40.7911   22.2501   36.7102 H   0  0  0  0  0  0  0  0  0  0  0  0
   39.7288   25.7707   34.4992 H   0  0  0  0  0  0  0  0  0  0  0  0
   42.1106   26.4261   34.4391 H   0  0  0  0  0  0  0  0  0  0  0  0
   43.7063   26.2830   38.3134 H   0  0  0  0  0  0  0  0  0  0  0  0
   45.4037   25.8938   40.1874 H   0  0  0  0  0  0  0  0  0  0  0  0
   47.9662   24.6534   40.4763 H   0  0  0  0  0  0  0  0  0  0  0  0
   49.6552   23.4402   39.1339 H   0  0  0  0  0  0  0  0  0  0  0  0
   49.3197   22.9936   36.7317 H   0  0  0  0  0  0  0  0  0  0  0  0
   47.2133   23.7839   35.6076 H   0  0  0  0  0  0  0  0  0  0  0  0
   38.5977   20.9167   34.2705 H   0  0  0  0  0  0  0  0  0  0  0  0
   38.0192   20.2833   31.9193 H   0  0  0  0  0  0  0  0  0  0  0  0
   36.8401   24.2833   31.1020 H   0  0  0  0  0  0  0  0  0  0  0  0
  1  2  2  0
  2  3  1  0
  4  3  2  0
  5  4  1  0
  6  5  2  0
  6  1  1  0
  7  1  1  0
  7 10  1  0
  8  7  2  0
  9  7  2  0
 10 18  1  0
 10 11  2  0
 11 12  1  0
 13 12  1  0
 13 14  2  0
 15 14  1  0
 16 15  2  0
 17 16  1  0
 17 18  2  0
 18 13  1  0
 19  4  1  0
 20 19  1  0
 21 20  2  0
 22 21  1  0
 23 24  1  0
 23 22  2  0
 24 25  2  0
 25 20  1  0
  2 26  1  0
  3 27  1  0
  5 28  1  0
  6 29  1  0
 11 30  1  0
 12 31  1  0
 14 32  1  0
 15 33  1  0
 16 34  1  0
 17 35  1  0
 21 36  1  0
 22 37  1  0
 24 38  1  0
M  ISO  8  26  14  27  14  28  14  29  14  30  14  31   9  32  14  33  14
M  ISO  5  34  14  35  14  36  14  37  14  38  14
M  END
>  <minimizedAffinity>  (1) 
-5.18514252

>  <minimizedRMSD>  (1) 
1.39949715

$$$$
