
     RDKit          3D

 37 39  0  0  0  0  0  0  0  0999 V2000
   42.7640   24.3110   35.6740 C   0  0  0  0  0  0  0  0  0  0  0  0
   42.2950   23.2310   36.4240 C   0  0  0  0  0  0  0  0  0  0  0  0
   40.9580   22.9300   36.4810 C   0  0  0  0  0  0  0  0  0  0  0  0
   40.0410   23.7060   35.7830 C   0  0  0  0  0  0  0  0  0  0  0  0
   40.4610   24.7660   35.0400 C   0  0  0  0  0  0  0  0  0  0  0  0
   41.8160   25.0600   34.9920 C   0  0  0  0  0  0  0  0  0  0  0  0
   44.4650   24.6560   35.5760 S   0  0  0  0  0  0  0  0  0  0  0  0
   45.1180   23.6780   34.6800 O   0  0  0  0  0  0  0  0  0  0  0  0
   44.6250   26.0710   35.0490 O   0  0  0  0  0  0  0  0  0  0  0  0
   45.1750   24.5930   37.1790 C   0  0  0  0  0  0  0  0  0  0  0  0
   44.8780   25.8090   38.0120 C   0  0  0  0  0  0  0  0  0  0  0  0
   45.7680   25.4990   39.2240 C   0  0  0  0  0  0  0  0  0  0  0  0
   46.9920   24.8420   38.6190 C   0  0  0  0  0  0  0  0  0  0  0  0
   46.6870   24.6540   37.1310 C   0  0  0  0  0  0  0  0  0  0  0  0
   38.2760   23.4410   35.7610 S   0  0  0  0  0  0  0  0  0  0  0  0
   37.8580   22.9270   34.1140 C   0  0  0  0  0  0  0  0  0  0  0  0
   37.8580   21.5470   33.7070 C   0  0  0  0  0  0  0  0  0  0  0  0
   37.5130   21.2850   32.3970 C   0  0  0  0  0  0  0  0  0  0  0  0
   37.1960   22.3000   31.5680 N   0  0  0  0  0  0  0  0  0  0  0  0
   37.2060   23.5900   31.9880 C   0  0  0  0  0  0  0  0  0  0  0  0
   37.5360   23.8850   33.2500 N   0  0  0  0  0  0  0  0  0  0  0  0
   43.0118   22.6091   36.9802 H   0  0  0  0  0  0  0  0  0  0  0  0
   40.6118   22.0743   37.0793 H   0  0  0  0  0  0  0  0  0  0  0  0
   39.7367   25.3808   34.4856 H   0  0  0  0  0  0  0  0  0  0  0  0
   42.1510   25.9184   34.3912 H   0  0  0  0  0  0  0  0  0  0  0  0
   44.7580   23.6621   37.5908 H   0  0  0  0  0  0  0  0  0  0  0  0
   45.1799   26.7381   37.5064 H   0  0  0  0  0  0  0  0  0  0  0  0
   43.8148   25.9768   38.2387 H   0  0  0  0  0  0  0  0  0  0  0  0
   46.0418   26.4227   39.7549 H   0  0  0  0  0  0  0  0  0  0  0  0
   45.2667   24.8601   39.9660 H   0  0  0  0  0  0  0  0  0  0  0  0
   47.8737   25.4868   38.7486 H   0  0  0  0  0  0  0  0  0  0  0  0
   47.2122   23.8809   39.1066 H   0  0  0  0  0  0  0  0  0  0  0  0
   47.1211   23.7221   36.7398 H   0  0  0  0  0  0  0  0  0  0  0  0
   47.0989   25.4320   36.4714 H   0  0  0  0  0  0  0  0  0  0  0  0
   38.1204   20.7397   34.4065 H   0  0  0  0  0  0  0  0  0  0  0  0
   37.4966   20.2485   32.0291 H   0  0  0  0  0  0  0  0  0  0  0  0
   36.9417   24.3963   31.2879 H   0  0  0  0  0  0  0  0  0  0  0  0
  1  2  2  0
  2  3  1  0
  4  3  2  0
  5  4  1  0
  6  5  2  0
  6  1  1  0
  7  1  1  0
  7 10  1  0
  8  7  2  0
  9  7  2  0
 10 11  1  0
 11 12  1  0
 13 12  1  0
 14 10  1  0
 14 13  1  0
 15  4  1  0
 16 15  1  0
 17 16  2  0
 18 17  1  0
 19 20  1  0
 19 18  2  0
 20 21  2  0
 21 16  1  0
  2 22  1  0
  3 23  1  0
  5 24  1  0
  6 25  1  0
 10 26  1  0
 11 27  1  0
 11 28  1  0
 12 29  1  0
 12 30  1  0
 13 31  1  0
 13 32  1  0
 14 33  1  0
 14 34  1  0
 17 35  1  0
 18 36  1  0
 20 37  1  0
M  ISO  8  22  14  23  14  24  14  25  14  26  13  27  13  28  13  29  13
M  ISO  8  30  13  31  13  32  13  33  13  34  13  35  14  36  14  37  14
M  END
>  <minimizedAffinity>  (1) 
-4.83649397

>  <minimizedRMSD>  (1) 
0.898772538

$$$$
