
     RDKit          3D

 31 33  0  0  0  0  0  0  0  0999 V2000
   43.0610   23.9770   35.7300 C   0  0  0  0  0  0  0  0  0  0  0  0
   42.5060   22.9850   36.5360 C   0  0  0  0  0  0  0  0  0  0  0  0
   41.1420   22.8320   36.6130 C   0  0  0  0  0  0  0  0  0  0  0  0
   40.2990   23.6650   35.8880 C   0  0  0  0  0  0  0  0  0  0  0  0
   40.8180   24.6450   35.0890 C   0  0  0  0  0  0  0  0  0  0  0  0
   42.1890   24.7860   35.0220 C   0  0  0  0  0  0  0  0  0  0  0  0
   44.7890   24.1560   35.6220 S   0  0  0  0  0  0  0  0  0  0  0  0
   45.3950   22.8600   35.2470 O   0  0  0  0  0  0  0  0  0  0  0  0
   45.0860   25.2170   34.5750 O   0  0  0  0  0  0  0  0  0  0  0  0
   45.3760   24.7630   37.1780 C   0  0  0  0  0  0  0  0  0  0  0  0
   44.7120   25.6580   38.0150 C   0  0  0  0  0  0  0  0  0  0  0  0
   45.6100   25.7830   39.0770 C   0  0  0  0  0  0  0  0  0  0  0  0
   46.7270   24.9850   38.8360 C   0  0  0  0  0  0  0  0  0  0  0  0
   46.5270   24.3980   37.6810 O   0  0  0  0  0  0  0  0  0  0  0  0
   38.5130   23.5750   35.9000 S   0  0  0  0  0  0  0  0  0  0  0  0
   38.0260   23.0990   34.2510 C   0  0  0  0  0  0  0  0  0  0  0  0
   38.0230   21.7530   33.7930 C   0  0  0  0  0  0  0  0  0  0  0  0
   37.6230   21.5380   32.4960 C   0  0  0  0  0  0  0  0  0  0  0  0
   37.2540   22.5720   31.7130 N   0  0  0  0  0  0  0  0  0  0  0  0
   37.2680   23.8510   32.1820 C   0  0  0  0  0  0  0  0  0  0  0  0
   37.6540   24.0930   33.4420 N   0  0  0  0  0  0  0  0  0  0  0  0
   43.1638   22.3198   37.1146 H   0  0  0  0  0  0  0  0  0  0  0  0
   40.7154   22.0452   37.2525 H   0  0  0  0  0  0  0  0  0  0  0  0
   40.1565   25.3075   34.5114 H   0  0  0  0  0  0  0  0  0  0  0  0
   42.6066   25.5746   34.3788 H   0  0  0  0  0  0  0  0  0  0  0  0
   43.7336   26.1410   37.8752 H   0  0  0  0  0  0  0  0  0  0  0  0
   45.4592   26.4134   39.9658 H   0  0  0  0  0  0  0  0  0  0  0  0
   47.6054   24.8701   39.4880 H   0  0  0  0  0  0  0  0  0  0  0  0
   38.3268   20.9221   34.4467 H   0  0  0  0  0  0  0  0  0  0  0  0
   37.6037   20.5145   32.0934 H   0  0  0  0  0  0  0  0  0  0  0  0
   36.9635   24.6819   31.5287 H   0  0  0  0  0  0  0  0  0  0  0  0
  1  2  2  0
  2  3  1  0
  4 15  1  0
  4  3  2  0
  5  4  1  0
  6  5  2  0
  6  1  1  0
  7  1  1  0
  7 10  1  0
  8  7  2  0
  9  7  2  0
 10 14  1  0
 10 11  2  0
 11 12  1  0
 13 12  2  0
 14 13  1  0
 16 15  1  0
 17 16  2  0
 18 17  1  0
 19 20  1  0
 19 18  2  0
 20 21  2  0
 21 16  1  0
  2 22  1  0
  3 23  1  0
  5 24  1  0
  6 25  1  0
 11 26  1  0
 12 27  1  0
 13 28  1  0
 17 29  1  0
 18 30  1  0
 20 31  1  0
M  ISO  8  22  14  23  14  24  14  25  14  26  14  27  14  28  14  29  14
M  ISO  2  30  14  31  14
M  END
>  <minimizedAffinity>  (1) 
-4.60739326

>  <minimizedRMSD>  (1) 
0.960242987

$$$$
