
     RDKit          3D

 29 31  0  0  0  0  0  0  0  0999 V2000
   42.8830   24.0660   35.7210 C   0  0  0  0  0  0  0  0  0  0  0  0
   42.2220   23.0810   36.4540 C   0  0  0  0  0  0  0  0  0  0  0  0
   40.8480   23.0160   36.4700 C   0  0  0  0  0  0  0  0  0  0  0  0
   40.0960   23.9210   35.7630 C   0  0  0  0  0  0  0  0  0  0  0  0
   40.7090   24.9040   35.0290 C   0  0  0  0  0  0  0  0  0  0  0  0
   42.0850   24.9570   35.0220 C   0  0  0  0  0  0  0  0  0  0  0  0
   44.6150   24.1230   35.6830 S   0  0  0  0  0  0  0  0  0  0  0  0
   45.1480   22.7610   35.4630 O   0  0  0  0  0  0  0  0  0  0  0  0
   45.0240   25.0470   34.5430 O   0  0  0  0  0  0  0  0  0  0  0  0
   45.2840   24.7710   37.1870 C   0  0  0  0  0  0  0  0  0  0  0  0
   46.5030   24.4840   37.6820 N   0  0  0  0  0  0  0  0  0  0  0  0
   46.6690   25.1340   38.8060 O   0  0  0  0  0  0  0  0  0  0  0  0
   45.5990   25.8510   39.0820 C   0  0  0  0  0  0  0  0  0  0  0  0
   44.7360   25.6240   38.0730 N   0  0  0  0  0  0  0  0  0  0  0  0
   38.3090   23.9550   35.7020 S   0  0  0  0  0  0  0  0  0  0  0  0
   37.8670   24.4670   34.0590 C   0  0  0  0  0  0  0  0  0  0  0  0
   37.9680   23.5960   32.9370 C   0  0  0  0  0  0  0  0  0  0  0  0
   37.5960   24.1020   31.7080 C   0  0  0  0  0  0  0  0  0  0  0  0
   37.1570   25.3770   31.6130 N   0  0  0  0  0  0  0  0  0  0  0  0
   37.0750   26.1780   32.7050 C   0  0  0  0  0  0  0  0  0  0  0  0
   37.4270   25.7200   33.9090 N   0  0  0  0  0  0  0  0  0  0  0  0
   42.8069   22.3464   37.0269 H   0  0  0  0  0  0  0  0  0  0  0  0
   40.3469   22.2309   37.0552 H   0  0  0  0  0  0  0  0  0  0  0  0
   40.1150   25.6335   34.4589 H   0  0  0  0  0  0  0  0  0  0  0  0
   42.5748   25.7458   34.4322 H   0  0  0  0  0  0  0  0  0  0  0  0
   45.4426   26.5007   39.9557 H   0  0  0  0  0  0  0  0  0  0  0  0
   38.3278   22.5622   33.0454 H   0  0  0  0  0  0  0  0  0  0  0  0
   37.6565   23.4704   30.8095 H   0  0  0  0  0  0  0  0  0  0  0  0
   36.7160   27.2122   32.5978 H   0  0  0  0  0  0  0  0  0  0  0  0
  1  2  2  0
  2  3  1  0
  4  3  2  0
  5  4  1  0
  6  5  2  0
  6  1  1  0
  7  1  1  0
  7 10  1  0
  8  7  2  0
  9  7  2  0
 10 11  2  0
 10 14  1  0
 11 12  1  0
 12 13  1  0
 14 13  2  0
 15  4  1  0
 16 15  1  0
 17 16  2  0
 18 17  1  0
 19 18  2  0
 19 20  1  0
 20 21  2  0
 21 16  1  0
  2 22  1  0
  3 23  1  0
  5 24  1  0
  6 25  1  0
 13 26  1  0
 17 27  1  0
 18 28  1  0
 20 29  1  0
M  ISO  8  22  14  23  14  24  14  25  14  26  14  27  14  28  14  29  14
M  END
>  <minimizedAffinity>  (1) 
-4.32151461

>  <minimizedRMSD>  (1) 
1.57829332

$$$$
