
     RDKit          3D

 30 32  0  0  0  0  0  0  0  0999 V2000
   43.0520   23.4460   35.7640 C   0  0  0  0  0  0  0  0  0  0  0  0
   42.3630   22.5720   36.6070 C   0  0  0  0  0  0  0  0  0  0  0  0
   40.9950   22.5910   36.6880 C   0  0  0  0  0  0  0  0  0  0  0  0
   40.2670   23.4890   35.9250 C   0  0  0  0  0  0  0  0  0  0  0  0
   40.9050   24.3620   35.0860 C   0  0  0  0  0  0  0  0  0  0  0  0
   42.2860   24.3290   35.0180 C   0  0  0  0  0  0  0  0  0  0  0  0
   44.7810   23.3880   35.6530 S   0  0  0  0  0  0  0  0  0  0  0  0
   45.2290   21.9750   35.6590 O   0  0  0  0  0  0  0  0  0  0  0  0
   45.1890   24.0740   34.3630 O   0  0  0  0  0  0  0  0  0  0  0  0
   45.4200   24.3390   37.0040 C   0  0  0  0  0  0  0  0  0  0  0  0
   44.6420   25.3070   37.7290 C   0  0  0  0  0  0  0  0  0  0  0  0
   45.7990   25.9320   38.9480 S   0  0  0  0  0  0  0  0  0  0  0  0
   47.1760   24.7910   38.3020 C   0  0  0  0  0  0  0  0  0  0  0  0
   46.6610   24.2450   37.4610 N   0  0  0  0  0  0  0  0  0  0  0  0
   38.4860   23.6240   35.9330 S   0  0  0  0  0  0  0  0  0  0  0  0
   37.9340   23.1490   34.3030 C   0  0  0  0  0  0  0  0  0  0  0  0
   37.7590   21.7930   33.9110 C   0  0  0  0  0  0  0  0  0  0  0  0
   37.3290   21.5700   32.6200 C   0  0  0  0  0  0  0  0  0  0  0  0
   37.0970   22.6130   31.7980 N   0  0  0  0  0  0  0  0  0  0  0  0
   37.2700   23.8910   32.1950 C   0  0  0  0  0  0  0  0  0  0  0  0
   37.6900   24.1510   33.4520 N   0  0  0  0  0  0  0  0  0  0  0  0
   42.9293   21.8539   37.2183 H   0  0  0  0  0  0  0  0  0  0  0  0
   40.4746   21.8924   37.3597 H   0  0  0  0  0  0  0  0  0  0  0  0
   40.3306   25.0760   34.4776 H   0  0  0  0  0  0  0  0  0  0  0  0
   42.7978   25.0321   34.3444 H   0  0  0  0  0  0  0  0  0  0  0  0
   43.5917   25.5944   37.5735 H   0  0  0  0  0  0  0  0  0  0  0  0
   48.2117   24.6895   38.6583 H   0  0  0  0  0  0  0  0  0  0  0  0
   37.9571   20.9623   34.6043 H   0  0  0  0  0  0  0  0  0  0  0  0
   37.1754   20.5416   32.2610 H   0  0  0  0  0  0  0  0  0  0  0  0
   37.0697   24.7178   31.4976 H   0  0  0  0  0  0  0  0  0  0  0  0
  1  2  2  0
  2  3  1  0
  4 15  1  0
  4  3  2  0
  5  4  1  0
  6  5  2  0
  6  1  1  0
  7  8  2  0
  7  1  1  0
  7 10  1  0
  9  7  2  0
 10 14  1  0
 10 11  2  0
 11 12  1  0
 13 12  1  0
 14 13  2  0
 16 15  1  0
 17 16  2  0
 18 17  1  0
 19 20  1  0
 19 18  2  0
 20 21  2  0
 21 16  1  0
  2 22  1  0
  3 23  1  0
  5 24  1  0
  6 25  1  0
 11 26  1  0
 13 27  1  0
 17 28  1  0
 18 29  1  0
 20 30  1  0
M  ISO  8  22  14  23  14  24  14  25  14  26  14  27  14  28  14  29  14
M  ISO  1  30  14
M  END
>  <minimizedAffinity>  (1) 
-4.10439396

>  <minimizedRMSD>  (1) 
1.03464031

$$$$
