
     RDKit          3D

 36 37  0  0  0  0  0  0  0  0999 V2000
   41.0110   24.7000   34.5530 C   0  0  0  0  0  0  0  0  0  0  0  0
   39.7830   24.1010   34.2600 C   0  0  0  0  0  0  0  0  0  0  0  0
   38.6210   24.8340   34.3220 C   0  0  0  0  0  0  0  0  0  0  0  0
   38.6400   26.1610   34.6690 C   0  0  0  0  0  0  0  0  0  0  0  0
   39.8320   26.7780   34.9620 C   0  0  0  0  0  0  0  0  0  0  0  0
   40.9960   26.0400   34.9000 C   0  0  0  0  0  0  0  0  0  0  0  0
   42.4880   23.7670   34.4440 S   0  0  0  0  0  0  0  0  0  0  0  0
   42.2910   22.6650   33.4710 O   0  0  0  0  0  0  0  0  0  0  0  0
   43.5820   24.7100   33.9580 O   0  0  0  0  0  0  0  0  0  0  0  0
   43.0660   23.2390   36.0440 C   0  0  0  0  0  0  0  0  0  0  0  0
   43.8260   24.3320   36.7490 C   0  0  0  0  0  0  0  0  0  0  0  0
   41.8260   22.8880   36.8460 C   0  0  0  0  0  0  0  0  0  0  0  0
   43.8640   21.9790   35.8430 C   0  0  0  0  0  0  0  0  0  0  0  0
   37.2030   27.2120   34.7830 S   0  0  0  0  0  0  0  0  0  0  0  0
   36.9220   27.8720   33.1450 C   0  0  0  0  0  0  0  0  0  0  0  0
   37.8230   27.6320   32.0560 C   0  0  0  0  0  0  0  0  0  0  0  0
   37.4880   28.1990   30.8490 C   0  0  0  0  0  0  0  0  0  0  0  0
   36.3630   28.9390   30.7290 N   0  0  0  0  0  0  0  0  0  0  0  0
   35.5370   29.1420   31.7870 C   0  0  0  0  0  0  0  0  0  0  0  0
   35.8170   28.6100   32.9930 N   0  0  0  0  0  0  0  0  0  0  0  0
   39.7456   23.0383   33.9785 H   0  0  0  0  0  0  0  0  0  0  0  0
   37.6616   24.3487   34.0898 H   0  0  0  0  0  0  0  0  0  0  0  0
   39.8579   27.8417   35.2411 H   0  0  0  0  0  0  0  0  0  0  0  0
   41.9493   26.5357   35.1355 H   0  0  0  0  0  0  0  0  0  0  0  0
   43.7339   24.1995   37.8371 H   0  0  0  0  0  0  0  0  0  0  0  0
   44.8869   24.2845   36.4623 H   0  0  0  0  0  0  0  0  0  0  0  0
   43.4121   25.3100   36.4623 H   0  0  0  0  0  0  0  0  0  0  0  0
   42.0537   22.9525   37.9202 H   0  0  0  0  0  0  0  0  0  0  0  0
   41.0182   23.5928   36.5995 H   0  0  0  0  0  0  0  0  0  0  0  0
   41.5075   21.8644   36.5995 H   0  0  0  0  0  0  0  0  0  0  0  0
   44.1325   21.5550   36.8218 H   0  0  0  0  0  0  0  0  0  0  0  0
   43.2626   21.2500   35.2801 H   0  0  0  0  0  0  0  0  0  0  0  0
   44.7801   22.2111   35.2801 H   0  0  0  0  0  0  0  0  0  0  0  0
   38.7333   27.0269   32.1794 H   0  0  0  0  0  0  0  0  0  0  0  0
   38.1396   28.0495   29.9754 H   0  0  0  0  0  0  0  0  0  0  0  0
   34.6281   29.7481   31.6583 H   0  0  0  0  0  0  0  0  0  0  0  0
  1  6  2  0
  2  3  2  0
  2  1  1  0
  3  4  1  0
  4 14  1  0
  4  5  2  0
  6  5  1  0
  7  1  1  0
  7 10  1  0
  8  7  2  0
  9  7  2  0
 10 11  1  0
 10 12  1  0
 13 10  1  0
 15 14  1  0
 16 15  2  0
 17 16  1  0
 18 17  2  0
 18 19  1  0
 19 20  2  0
 20 15  1  0
  2 21  1  0
  3 22  1  0
  5 23  1  0
  6 24  1  0
 11 25  1  0
 11 26  1  0
 11 27  1  0
 12 28  1  0
 12 29  1  0
 12 30  1  0
 13 31  1  0
 13 32  1  0
 13 33  1  0
 16 34  1  0
 17 35  1  0
 19 36  1  0
M  ISO  8  21  14  22  14  23  14  24  14  25   8  26   8  27   8  28   8
M  ISO  8  29   8  30   8  31   8  32   8  33   8  34  14  35  14  36  14
M  END
>  <minimizedAffinity>  (1) 
-4.09103775

>  <minimizedRMSD>  (1) 
4.24555254

$$$$
