
     RDKit          3D

 27 28  0  0  0  0  0  0  0  0999 V2000
   42.7020   23.8740   36.0150 C   0  0  0  0  0  0  0  0  0  0  0  0
   42.1170   22.8420   36.7520 C   0  0  0  0  0  0  0  0  0  0  0  0
   40.7670   22.5920   36.6600 C   0  0  0  0  0  0  0  0  0  0  0  0
   39.9640   23.3580   35.8370 C   0  0  0  0  0  0  0  0  0  0  0  0
   40.5020   24.3720   35.1040 C   0  0  0  0  0  0  0  0  0  0  0  0
   41.8580   24.6170   35.2020 C   0  0  0  0  0  0  0  0  0  0  0  0
   44.4090   24.1590   36.0990 S   0  0  0  0  0  0  0  0  0  0  0  0
   45.1300   22.8670   36.1500 O   0  0  0  0  0  0  0  0  0  0  0  0
   44.8130   24.9590   34.8720 O   0  0  0  0  0  0  0  0  0  0  0  0
   44.7640   25.0940   37.5630 C   0  0  0  0  0  0  0  0  0  0  0  0
   38.2020   23.1330   35.6320 S   0  0  0  0  0  0  0  0  0  0  0  0
   37.9330   22.8210   33.8940 C   0  0  0  0  0  0  0  0  0  0  0  0
   38.1820   21.5520   33.2830 C   0  0  0  0  0  0  0  0  0  0  0  0
   37.9330   21.4470   31.9300 C   0  0  0  0  0  0  0  0  0  0  0  0
   37.4740   22.5200   31.2500 N   0  0  0  0  0  0  0  0  0  0  0  0
   37.2470   23.7050   31.8540 C   0  0  0  0  0  0  0  0  0  0  0  0
   37.4800   23.8420   33.1720 N   0  0  0  0  0  0  0  0  0  0  0  0
   42.7417   22.2228   37.4126 H   0  0  0  0  0  0  0  0  0  0  0  0
   40.3230   21.7747   37.2472 H   0  0  0  0  0  0  0  0  0  0  0  0
   39.8683   24.9847   34.4459 H   0  0  0  0  0  0  0  0  0  0  0  0
   42.2879   25.4378   34.6091 H   0  0  0  0  0  0  0  0  0  0  0  0
   44.5335   24.4868   38.4508 H   0  0  0  0  0  0  0  0  0  0  0  0
   45.8291   25.3689   37.5733 H   0  0  0  0  0  0  0  0  0  0  0  0
   44.1497   26.0065   37.5733 H   0  0  0  0  0  0  0  0  0  0  0  0
   38.5556   20.6974   33.8661 H   0  0  0  0  0  0  0  0  0  0  0  0
   38.1073   20.4946   31.4079 H   0  0  0  0  0  0  0  0  0  0  0  0
   36.8719   24.5580   31.2695 H   0  0  0  0  0  0  0  0  0  0  0  0
  1  7  1  0
  1  2  2  0
  3  2  1  0
  4  3  2  0
  5  6  2  0
  5  4  1  0
  6  1  1  0
  7  8  2  0
  7 10  1  0
  9  7  2  0
 11  4  1  0
 12 11  1  0
 13 12  2  0
 14 13  1  0
 15 16  1  0
 15 14  2  0
 16 17  2  0
 17 12  1  0
  2 18  1  0
  3 19  1  0
  5 20  1  0
  6 21  1  0
 10 22  1  0
 10 23  1  0
 10 24  1  0
 13 25  1  0
 14 26  1  0
 16 27  1  0
M  ISO  8  18  14  19  14  20  14  21  14  22   8  23   8  24   8  25  14
M  ISO  2  26  14  27  14
M  END
>  <minimizedAffinity>  (1) 
-3.39102364

>  <minimizedRMSD>  (1) 
0.479188502

$$$$
