
     RDKit          3D

 33 35  0  0  0  0  0  0  0  0999 V2000
   39.3320   25.3990   34.4900 N   0  0  0  0  0  0  0  0  0  0  0  0
   40.4920   26.0910   34.4890 C   0  0  0  0  0  0  0  0  0  0  0  0
   40.8060   26.8380   33.3390 C   0  0  0  0  0  0  0  0  0  0  0  0
   39.9340   26.8340   32.2760 C   0  0  0  0  0  0  0  0  0  0  0  0
   40.1490   27.4720   31.2280 O   0  0  0  0  0  0  0  0  0  0  0  0
   38.7920   26.1260   32.3290 N   0  0  0  0  0  0  0  0  0  0  0  0
   38.5100   25.4200   33.4370 C   0  0  0  0  0  0  0  0  0  0  0  0
   37.4520   24.7660   33.4840 O   0  0  0  0  0  0  0  0  0  0  0  0
   38.1930   25.2180   36.6180 C   0  0  0  0  0  0  0  0  0  0  0  0
   39.0920   24.6740   35.6860 C   0  0  0  0  0  0  0  0  0  0  0  0
   39.6860   23.4650   35.9920 C   0  0  0  0  0  0  0  0  0  0  0  0
   39.3610   22.8710   37.1880 N   0  0  0  0  0  0  0  0  0  0  0  0
   38.5080   23.4050   38.0550 C   0  0  0  0  0  0  0  0  0  0  0  0
   37.9310   24.5760   37.7590 N   0  0  0  0  0  0  0  0  0  0  0  0
   38.3690   22.5690   39.1950 N   0  0  0  0  0  0  0  0  0  0  0  0
   42.0790   27.6420   33.2470 C   0  0  0  0  0  0  0  0  0  0  0  0
   43.2800   26.7910   33.2590 C   0  0  0  0  0  0  0  0  0  0  0  0
   43.5930   25.7180   32.4580 C   0  0  0  0  0  0  0  0  0  0  0  0
   44.7590   24.9980   32.5780 C   0  0  0  0  0  0  0  0  0  0  0  0
   45.6380   25.3700   33.5360 N   0  0  0  0  0  0  0  0  0  0  0  0
   45.3230   26.4350   34.3270 C   0  0  0  0  0  0  0  0  0  0  0  0
   44.1750   27.1380   34.2030 N   0  0  0  0  0  0  0  0  0  0  0  0
   41.1675   26.0712   35.3570 H   0  0  0  0  0  0  0  0  0  0  0  0
   38.1416   26.1249   31.5303 H   0  0  0  0  0  0  0  0  0  0  0  0
   37.7016   26.1792   36.4065 H   0  0  0  0  0  0  0  0  0  0  0  0
   40.3977   22.9920   35.2993 H   0  0  0  0  0  0  0  0  0  0  0  0
   37.7397   22.8449   39.9623 H   0  0  0  0  0  0  0  0  0  0  0  0
   38.8975   21.6869   39.2543 H   0  0  0  0  0  0  0  0  0  0  0  0
   42.1250   28.3307   34.1035 H   0  0  0  0  0  0  0  0  0  0  0  0
   42.0635   28.1882   32.2923 H   0  0  0  0  0  0  0  0  0  0  0  0
   42.8737   25.4199   31.6810 H   0  0  0  0  0  0  0  0  0  0  0  0
   44.9699   24.1459   31.9151 H   0  0  0  0  0  0  0  0  0  0  0  0
   46.0391   26.7374   35.1053 H   0  0  0  0  0  0  0  0  0  0  0  0
  1 10  1  0
  2  1  1  0
  3  2  2  0
  4  6  1  0
  4  3  1  0
  5  4  2  0
  6  7  1  0
  7  8  2  0
  7  1  1  0
  9 14  2  0
 10 11  2  0
 10  9  1  0
 11 12  1  0
 12 13  2  0
 13 15  1  0
 14 13  1  0
 16 17  1  0
 16  3  1  0
 17 22  2  0
 18 19  2  0
 18 17  1  0
 19 20  1  0
 20 21  2  0
 22 21  1  0
  2 23  1  0
  6 24  1  0
  9 25  1  0
 11 26  1  0
 15 27  1  0
 15 28  1  0
 16 29  1  0
 16 30  1  0
 18 31  1  0
 19 32  1  0
 21 33  1  0
M  ISO  8  23  14  24   9  25  14  26  14  29   8  30   8  31  14  32  14
M  ISO  1  33  14
M  END
>  <minimizedAffinity>  (1) 
-4.54583168

>  <minimizedRMSD>  (1) 
1.07917225

$$$$
