
     RDKit          3D

 47 50  0  0  0  0  0  0  0  0999 V2000
   43.5740   25.8450   34.9090 C   0  0  0  0  0  0  0  0  0  0  0  0
   42.8460   24.7310   35.3110 C   0  0  0  0  0  0  0  0  0  0  0  0
   41.5010   24.6570   35.0920 C   0  0  0  0  0  0  0  0  0  0  0  0
   40.8210   25.6940   34.4620 C   0  0  0  0  0  0  0  0  0  0  0  0
   41.5040   26.7990   34.0570 C   0  0  0  0  0  0  0  0  0  0  0  0
   42.8680   26.8670   34.2820 C   0  0  0  0  0  0  0  0  0  0  0  0
   45.2850   25.9380   35.1870 S   0  0  0  0  0  0  0  0  0  0  0  0
   45.9700   24.9450   34.3150 O   0  0  0  0  0  0  0  0  0  0  0  0
   45.7460   27.3390   34.8350 O   0  0  0  0  0  0  0  0  0  0  0  0
   46.7820   24.9110   38.6470 N   0  0  0  0  0  0  0  0  0  0  0  0
   46.8110   24.9670   37.3350 N   0  0  0  0  0  0  0  0  0  0  0  0
   45.7250   25.5990   36.8580 C   0  0  0  0  0  0  0  0  0  0  0  0
   45.0110   25.9370   37.9850 C   0  0  0  0  0  0  0  0  0  0  0  0
   45.6480   25.5190   39.1120 C   0  0  0  0  0  0  0  0  0  0  0  0
   39.0770   25.7260   34.1170 S   0  0  0  0  0  0  0  0  0  0  0  0
   38.3810   24.2200   34.7760 C   0  0  0  0  0  0  0  0  0  0  0  0
   38.1810   24.0160   36.1640 C   0  0  0  0  0  0  0  0  0  0  0  0
   37.6370   22.8140   36.5390 C   0  0  0  0  0  0  0  0  0  0  0  0
   37.3220   21.8990   35.6050 N   0  0  0  0  0  0  0  0  0  0  0  0
   37.5250   22.1240   34.2900 C   0  0  0  0  0  0  0  0  0  0  0  0
   38.0520   23.2850   33.8950 N   0  0  0  0  0  0  0  0  0  0  0  0
   37.1470   21.0550   33.3260 C   0  0  0  0  0  0  0  0  0  0  0  0
   37.3290   21.6510   31.9490 C   0  0  0  0  0  0  0  0  0  0  0  0
   36.8080   20.7490   30.8590 C   0  0  0  0  0  0  0  0  0  0  0  0
   35.5960   19.9620   31.2350 C   0  0  0  0  0  0  0  0  0  0  0  0
   34.8710   20.6960   32.3390 C   0  0  0  0  0  0  0  0  0  0  0  0
   35.7190   20.6430   33.5870 C   0  0  0  0  0  0  0  0  0  0  0  0
   43.3609   23.8981   35.8122 H   0  0  0  0  0  0  0  0  0  0  0  0
   40.9468   23.7646   35.4183 H   0  0  0  0  0  0  0  0  0  0  0  0
   40.9793   27.6269   33.5576 H   0  0  0  0  0  0  0  0  0  0  0  0
   43.4146   27.7630   33.9526 H   0  0  0  0  0  0  0  0  0  0  0  0
   47.5046   24.4748   39.2372 H   0  0  0  0  0  0  0  0  0  0  0  0
   44.0513   26.4745   37.9757 H   0  0  0  0  0  0  0  0  0  0  0  0
   45.3256   25.6416   40.1565 H   0  0  0  0  0  0  0  0  0  0  0  0
   38.4489   24.7841   36.9045 H   0  0  0  0  0  0  0  0  0  0  0  0
   37.4585   22.5986   37.6028 H   0  0  0  0  0  0  0  0  0  0  0  0
   37.7639   20.1495   33.4234 H   0  0  0  0  0  0  0  0  0  0  0  0
   36.7886   22.6080   31.9040 H   0  0  0  0  0  0  0  0  0  0  0  0
   38.4076   21.7891   31.7831 H   0  0  0  0  0  0  0  0  0  0  0  0
   37.6059   20.0425   30.5867 H   0  0  0  0  0  0  0  0  0  0  0  0
   36.5110   21.4032   30.0260 H   0  0  0  0  0  0  0  0  0  0  0  0
   34.9351   19.8587   30.3618 H   0  0  0  0  0  0  0  0  0  0  0  0
   35.8896   18.9592   31.5788 H   0  0  0  0  0  0  0  0  0  0  0  0
   34.7095   21.7434   32.0444 H   0  0  0  0  0  0  0  0  0  0  0  0
   33.8947   20.2253   32.5266 H   0  0  0  0  0  0  0  0  0  0  0  0
   35.7130   19.6139   33.9755 H   0  0  0  0  0  0  0  0  0  0  0  0
   35.2923   21.3491   34.3145 H   0  0  0  0  0  0  0  0  0  0  0  0
  1  7  1  0
  1  2  2  0
  3  2  1  0
  4  3  2  0
  5  6  2  0
  5  4  1  0
  6  1  1  0
  7 12  1  0
  8  7  2  0
  9  7  2  0
 10 14  1  0
 11 10  1  0
 12 11  2  0
 12 13  1  0
 13 14  2  0
 15  4  1  0
 15 16  1  0
 16 17  2  0
 17 18  1  0
 19 18  2  0
 20 19  1  0
 21 20  2  0
 21 16  1  0
 22 27  1  0
 22 20  1  0
 23 22  1  0
 24 25  1  0
 24 23  1  0
 25 26  1  0
 26 27  1  0
  2 28  1  0
  3 29  1  0
  5 30  1  0
  6 31  1  0
 10 32  1  0
 13 33  1  0
 14 34  1  0
 17 35  1  0
 18 36  1  0
 22 37  1  0
 23 38  1  0
 23 39  1  0
 24 40  1  0
 24 41  1  0
 25 42  1  0
 25 43  1  0
 26 44  1  0
 26 45  1  0
 27 46  1  0
 27 47  1  0
M  ISO  8  28  14  29  14  30  14  31  14  32   9  33  14  34  14  35  14
M  ISO  8  36  14  37  13  38  13  39  13  40  13  41  13  42  13  43  13
M  ISO  4  44  13  45  13  46  13  47  13
M  END
>  <minimizedAffinity>  (1) 
-5.9052763

>  <minimizedRMSD>  (1) 
1.37176347

$$$$
