
     RDKit          3D

 44 47  0  0  0  0  0  0  0  0999 V2000
   43.5730   25.8280   34.9050 C   0  0  0  0  0  0  0  0  0  0  0  0
   42.8490   24.7100   35.2870 C   0  0  0  0  0  0  0  0  0  0  0  0
   41.4920   24.6360   35.0620 C   0  0  0  0  0  0  0  0  0  0  0  0
   40.8190   25.6860   34.4450 C   0  0  0  0  0  0  0  0  0  0  0  0
   41.5040   26.8010   34.0570 C   0  0  0  0  0  0  0  0  0  0  0  0
   42.8680   26.8570   34.2910 C   0  0  0  0  0  0  0  0  0  0  0  0
   45.2790   25.9190   35.1890 S   0  0  0  0  0  0  0  0  0  0  0  0
   45.9650   24.9200   34.3200 O   0  0  0  0  0  0  0  0  0  0  0  0
   45.7500   27.3260   34.8260 O   0  0  0  0  0  0  0  0  0  0  0  0
   46.7640   24.9080   38.6530 N   0  0  0  0  0  0  0  0  0  0  0  0
   46.8130   24.9480   37.3250 N   0  0  0  0  0  0  0  0  0  0  0  0
   45.7200   25.5860   36.8610 C   0  0  0  0  0  0  0  0  0  0  0  0
   44.9920   25.9370   37.9840 C   0  0  0  0  0  0  0  0  0  0  0  0
   45.6370   25.5170   39.1090 C   0  0  0  0  0  0  0  0  0  0  0  0
   39.0800   25.7200   34.0970 S   0  0  0  0  0  0  0  0  0  0  0  0
   38.3800   24.2100   34.7250 C   0  0  0  0  0  0  0  0  0  0  0  0
   38.2170   23.9830   36.1170 C   0  0  0  0  0  0  0  0  0  0  0  0
   37.6680   22.7880   36.5080 C   0  0  0  0  0  0  0  0  0  0  0  0
   37.3090   21.8880   35.5650 N   0  0  0  0  0  0  0  0  0  0  0  0
   37.4790   22.1370   34.2380 C   0  0  0  0  0  0  0  0  0  0  0  0
   38.0100   23.2930   33.8390 N   0  0  0  0  0  0  0  0  0  0  0  0
   37.0420   21.0620   33.2810 C   0  0  0  0  0  0  0  0  0  0  0  0
   36.9670   21.6670   31.8720 C   0  0  0  0  0  0  0  0  0  0  0  0
   35.4820   21.9870   31.7740 C   0  0  0  0  0  0  0  0  0  0  0  0
   34.8670   20.7150   32.3160 C   0  0  0  0  0  0  0  0  0  0  0  0
   35.6930   20.5100   33.5920 C   0  0  0  0  0  0  0  0  0  0  0  0
   43.3646   23.8706   35.7763 H   0  0  0  0  0  0  0  0  0  0  0  0
   40.9358   23.7393   35.3727 H   0  0  0  0  0  0  0  0  0  0  0  0
   40.9835   27.6379   33.5685 H   0  0  0  0  0  0  0  0  0  0  0  0
   43.4183   27.7562   33.9769 H   0  0  0  0  0  0  0  0  0  0  0  0
   47.4806   24.4755   39.2533 H   0  0  0  0  0  0  0  0  0  0  0  0
   44.0332   26.4760   37.9709 H   0  0  0  0  0  0  0  0  0  0  0  0
   45.3169   25.6428   40.1538 H   0  0  0  0  0  0  0  0  0  0  0  0
   38.5203   24.7389   36.8563 H   0  0  0  0  0  0  0  0  0  0  0  0
   37.5217   22.5649   37.5752 H   0  0  0  0  0  0  0  0  0  0  0  0
   37.7752   20.2460   33.3615 H   0  0  0  0  0  0  0  0  0  0  0  0
   37.5825   22.5748   31.7886 H   0  0  0  0  0  0  0  0  0  0  0  0
   37.3434   21.0093   31.0747 H   0  0  0  0  0  0  0  0  0  0  0  0
   35.2162   22.8575   32.3917 H   0  0  0  0  0  0  0  0  0  0  0  0
   35.1450   22.2539   30.7615 H   0  0  0  0  0  0  0  0  0  0  0  0
   33.7990   20.8478   32.5433 H   0  0  0  0  0  0  0  0  0  0  0  0
   34.8937   19.8655   31.6177 H   0  0  0  0  0  0  0  0  0  0  0  0
   35.7620   19.4402   33.8384 H   0  0  0  0  0  0  0  0  0  0  0  0
   35.2366   21.0081   34.4601 H   0  0  0  0  0  0  0  0  0  0  0  0
  1  7  1  0
  1  2  2  0
  3  2  1  0
  4  3  2  0
  5  6  2  0
  5  4  1  0
  6  1  1  0
  7 12  1  0
  8  7  2  0
  9  7  2  0
 10 14  1  0
 11 10  1  0
 12 11  2  0
 12 13  1  0
 13 14  2  0
 15  4  1  0
 15 16  1  0
 16 17  2  0
 17 18  1  0
 19 18  2  0
 20 19  1  0
 21 20  2  0
 21 16  1  0
 22 26  1  0
 22 20  1  0
 23 22  1  0
 24 23  1  0
 24 25  1  0
 25 26  1  0
  2 27  1  0
  3 28  1  0
  5 29  1  0
  6 30  1  0
 10 31  1  0
 13 32  1  0
 14 33  1  0
 17 34  1  0
 18 35  1  0
 22 36  1  0
 23 37  1  0
 23 38  1  0
 24 39  1  0
 24 40  1  0
 25 41  1  0
 25 42  1  0
 26 43  1  0
 26 44  1  0
M  ISO  8  27  14  28  14  29  14  30  14  31   9  32  14  33  14  34  14
M  ISO  8  35  14  36  13  37  13  38  13  39  13  40  13  41  13  42  13
M  ISO  2  43  13  44  13
M  END
>  <minimizedAffinity>  (1) 
-5.77026367

>  <minimizedRMSD>  (1) 
1.19545925

$$$$
