
     RDKit          3D

 41 44  0  0  0  0  0  0  0  0999 V2000
   43.7940   25.7510   34.9650 C   0  0  0  0  0  0  0  0  0  0  0  0
   43.0090   24.6830   35.3720 C   0  0  0  0  0  0  0  0  0  0  0  0
   41.6610   24.6740   35.1520 C   0  0  0  0  0  0  0  0  0  0  0  0
   41.0420   25.7490   34.5090 C   0  0  0  0  0  0  0  0  0  0  0  0
   41.7820   26.8160   34.0960 C   0  0  0  0  0  0  0  0  0  0  0  0
   43.1480   26.7990   34.3310 C   0  0  0  0  0  0  0  0  0  0  0  0
   45.5120   25.7580   35.2470 S   0  0  0  0  0  0  0  0  0  0  0  0
   46.1280   24.6740   34.4290 O   0  0  0  0  0  0  0  0  0  0  0  0
   46.0600   27.1110   34.8520 O   0  0  0  0  0  0  0  0  0  0  0  0
   46.9290   24.8040   38.7650 N   0  0  0  0  0  0  0  0  0  0  0  0
   46.9850   24.8070   37.4510 N   0  0  0  0  0  0  0  0  0  0  0  0
   45.9240   25.4610   36.9360 C   0  0  0  0  0  0  0  0  0  0  0  0
   45.2030   25.8650   38.0420 C   0  0  0  0  0  0  0  0  0  0  0  0
   45.8170   25.4620   39.1840 C   0  0  0  0  0  0  0  0  0  0  0  0
   39.2980   25.8820   34.1520 S   0  0  0  0  0  0  0  0  0  0  0  0
   38.5020   24.5010   34.9300 C   0  0  0  0  0  0  0  0  0  0  0  0
   38.3990   24.3760   36.3330 C   0  0  0  0  0  0  0  0  0  0  0  0
   37.7630   23.2680   36.8500 C   0  0  0  0  0  0  0  0  0  0  0  0
   37.2650   22.3450   36.0000 N   0  0  0  0  0  0  0  0  0  0  0  0
   37.3760   22.4890   34.6600 C   0  0  0  0  0  0  0  0  0  0  0  0
   37.9900   23.5590   34.1650 N   0  0  0  0  0  0  0  0  0  0  0  0
   36.8100   21.4490   33.8620 N   0  0  0  0  0  0  0  0  0  0  0  0
   35.9650   20.4710   34.2250 C   0  0  0  0  0  0  0  0  0  0  0  0
   35.5410   19.5610   33.2730 C   0  0  0  0  0  0  0  0  0  0  0  0
   35.9810   19.6590   31.9700 C   0  0  0  0  0  0  0  0  0  0  0  0
   35.5770   18.8110   31.1160 O   0  0  0  0  0  0  0  0  0  0  0  0
   36.8290   20.6500   31.6370 N   0  0  0  0  0  0  0  0  0  0  0  0
   37.2430   21.5430   32.5780 C   0  0  0  0  0  0  0  0  0  0  0  0
   38.0310   22.4070   32.1120 O   0  0  0  0  0  0  0  0  0  0  0  0
   43.4797   23.8287   35.8806 H   0  0  0  0  0  0  0  0  0  0  0  0
   41.0589   23.8150   35.4831 H   0  0  0  0  0  0  0  0  0  0  0  0
   41.3075   27.6691   33.5890 H   0  0  0  0  0  0  0  0  0  0  0  0
   43.7475   27.6591   33.9980 H   0  0  0  0  0  0  0  0  0  0  0  0
   47.6258   24.3670   39.3851 H   0  0  0  0  0  0  0  0  0  0  0  0
   44.2624   26.4340   38.0034 H   0  0  0  0  0  0  0  0  0  0  0  0
   45.4869   25.6310   40.2196 H   0  0  0  0  0  0  0  0  0  0  0  0
   38.8171   25.1458   36.9983 H   0  0  0  0  0  0  0  0  0  0  0  0
   37.6628   23.1379   37.9377 H   0  0  0  0  0  0  0  0  0  0  0  0
   35.6146   20.3942   35.2649 H   0  0  0  0  0  0  0  0  0  0  0  0
   34.8489   18.7547   33.5573 H   0  0  0  0  0  0  0  0  0  0  0  0
   37.1658   20.7331   30.6672 H   0  0  0  0  0  0  0  0  0  0  0  0
  1  7  1  0
  1  2  2  0
  3  2  1  0
  4  3  2  0
  5  6  2  0
  5  4  1  0
  6  1  1  0
  7 12  1  0
  8  7  2  0
  9  7  2  0
 10 14  1  0
 11 10  1  0
 12 11  2  0
 12 13  1  0
 13 14  2  0
 15  4  1  0
 15 16  1  0
 16 17  2  0
 17 18  1  0
 19 18  2  0
 20 19  1  0
 21 20  2  0
 21 16  1  0
 22 23  1  0
 22 20  1  0
 24 23  2  0
 25 24  1  0
 26 25  2  0
 27 25  1  0
 27 28  1  0
 28 22  1  0
 29 28  2  0
  2 30  1  0
  3 31  1  0
  5 32  1  0
  6 33  1  0
 10 34  1  0
 13 35  1  0
 14 36  1  0
 17 37  1  0
 18 38  1  0
 23 39  1  0
 24 40  1  0
 27 41  1  0
M  ISO  8  30  14  31  14  32  14  33  14  34   9  35  14  36  14  37  14
M  ISO  4  38  14  39  14  40  14  41   9
M  END
>  <minimizedAffinity>  (1) 
-5.74545479

>  <minimizedRMSD>  (1) 
1.42268312

$$$$
