
     RDKit          3D

 40 43  0  0  0  0  0  0  0  0999 V2000
   43.5940   25.8220   34.8910 C   0  0  0  0  0  0  0  0  0  0  0  0
   42.8670   24.6890   35.2600 C   0  0  0  0  0  0  0  0  0  0  0  0
   41.5200   24.6100   35.0300 C   0  0  0  0  0  0  0  0  0  0  0  0
   40.8500   25.6590   34.4230 C   0  0  0  0  0  0  0  0  0  0  0  0
   41.5200   26.7850   34.0470 C   0  0  0  0  0  0  0  0  0  0  0  0
   42.8810   26.8440   34.2880 C   0  0  0  0  0  0  0  0  0  0  0  0
   45.3010   25.9240   35.1800 S   0  0  0  0  0  0  0  0  0  0  0  0
   45.9940   24.9210   34.3240 O   0  0  0  0  0  0  0  0  0  0  0  0
   45.7680   27.3220   34.8350 O   0  0  0  0  0  0  0  0  0  0  0  0
   46.7560   24.9200   38.6760 N   0  0  0  0  0  0  0  0  0  0  0  0
   46.8160   24.9630   37.3540 N   0  0  0  0  0  0  0  0  0  0  0  0
   45.7230   25.5940   36.8700 C   0  0  0  0  0  0  0  0  0  0  0  0
   44.9840   25.9360   37.9840 C   0  0  0  0  0  0  0  0  0  0  0  0
   45.6240   25.5190   39.1130 C   0  0  0  0  0  0  0  0  0  0  0  0
   39.0970   25.7000   34.0600 S   0  0  0  0  0  0  0  0  0  0  0  0
   38.4010   24.1900   34.6870 C   0  0  0  0  0  0  0  0  0  0  0  0
   38.3980   23.8990   36.0730 C   0  0  0  0  0  0  0  0  0  0  0  0
   37.8340   22.6980   36.4670 C   0  0  0  0  0  0  0  0  0  0  0  0
   37.3160   21.8660   35.5240 N   0  0  0  0  0  0  0  0  0  0  0  0
   37.3430   22.1890   34.2220 C   0  0  0  0  0  0  0  0  0  0  0  0
   37.8800   23.3340   33.8270 N   0  0  0  0  0  0  0  0  0  0  0  0
   36.7780   21.2720   33.2420 C   0  0  0  0  0  0  0  0  0  0  0  0
   35.7430   20.4220   33.5940 C   0  0  0  0  0  0  0  0  0  0  0  0
   35.2110   19.5520   32.6560 C   0  0  0  0  0  0  0  0  0  0  0  0
   35.7260   19.5490   31.3770 C   0  0  0  0  0  0  0  0  0  0  0  0
   36.7710   20.4120   31.0290 C   0  0  0  0  0  0  0  0  0  0  0  0
   37.2600   21.2420   31.9730 N   0  0  0  0  0  0  0  0  0  0  0  0
   43.3844   23.8469   35.7429 H   0  0  0  0  0  0  0  0  0  0  0  0
   40.9663   23.7078   35.3291 H   0  0  0  0  0  0  0  0  0  0  0  0
   40.9937   27.6225   33.5658 H   0  0  0  0  0  0  0  0  0  0  0  0
   43.4252   27.7505   33.9846 H   0  0  0  0  0  0  0  0  0  0  0  0
   47.4685   24.4921   39.2843 H   0  0  0  0  0  0  0  0  0  0  0  0
   44.0207   26.4667   37.9639 H   0  0  0  0  0  0  0  0  0  0  0  0
   45.2920   25.6427   40.1544 H   0  0  0  0  0  0  0  0  0  0  0  0
   38.8262   24.5985   36.8061 H   0  0  0  0  0  0  0  0  0  0  0  0
   37.8050   22.4196   37.5308 H   0  0  0  0  0  0  0  0  0  0  0  0
   35.3431   20.4375   34.6186 H   0  0  0  0  0  0  0  0  0  0  0  0
   34.3893   18.8732   32.9279 H   0  0  0  0  0  0  0  0  0  0  0  0
   35.3119   18.8624   30.6239 H   0  0  0  0  0  0  0  0  0  0  0  0
   37.1840   20.4135   30.0095 H   0  0  0  0  0  0  0  0  0  0  0  0
  1  7  1  0
  1  2  2  0
  3  2  1  0
  4  3  2  0
  5  6  2  0
  5  4  1  0
  6  1  1  0
  7 12  1  0
  8  7  2  0
  9  7  2  0
 10 14  1  0
 11 10  1  0
 12 11  2  0
 12 13  1  0
 13 14  2  0
 15  4  1  0
 15 16  1  0
 16 17  2  0
 17 18  1  0
 19 18  2  0
 20 19  1  0
 21 20  2  0
 21 16  1  0
 22 23  2  0
 22 20  1  0
 24 23  1  0
 25 24  2  0
 26 25  1  0
 26 27  2  0
 27 22  1  0
  2 28  1  0
  3 29  1  0
  5 30  1  0
  6 31  1  0
 10 32  1  0
 13 33  1  0
 14 34  1  0
 17 35  1  0
 18 36  1  0
 23 37  1  0
 24 38  1  0
 25 39  1  0
 26 40  1  0
M  ISO  8  28  14  29  14  30  14  31  14  32   9  33  14  34  14  35  14
M  ISO  5  36  14  37  14  38  14  39  14  40  14
M  END
>  <minimizedAffinity>  (1) 
-5.73472309

>  <minimizedRMSD>  (1) 
1.58147085

$$$$
