
     RDKit          3D

 45 48  0  0  0  0  0  0  0  0999 V2000
   43.6300   25.6410   34.9350 C   0  0  0  0  0  0  0  0  0  0  0  0
   42.8700   24.5440   35.3170 C   0  0  0  0  0  0  0  0  0  0  0  0
   41.5190   24.5070   35.0860 C   0  0  0  0  0  0  0  0  0  0  0  0
   40.8840   25.5680   34.4650 C   0  0  0  0  0  0  0  0  0  0  0  0
   41.6000   26.6580   34.0780 C   0  0  0  0  0  0  0  0  0  0  0  0
   42.9580   26.6870   34.3140 C   0  0  0  0  0  0  0  0  0  0  0  0
   45.3440   25.6820   35.2310 S   0  0  0  0  0  0  0  0  0  0  0  0
   45.9880   24.5930   34.4460 O   0  0  0  0  0  0  0  0  0  0  0  0
   45.8680   27.0320   34.7800 O   0  0  0  0  0  0  0  0  0  0  0  0
   46.7610   24.8900   38.7830 N   0  0  0  0  0  0  0  0  0  0  0  0
   46.8250   24.8400   37.4550 N   0  0  0  0  0  0  0  0  0  0  0  0
   45.7450   25.4640   36.9300 C   0  0  0  0  0  0  0  0  0  0  0  0
   45.0070   25.9050   38.0180 C   0  0  0  0  0  0  0  0  0  0  0  0
   45.6300   25.5530   39.1780 C   0  0  0  0  0  0  0  0  0  0  0  0
   39.1330   25.6590   34.0990 S   0  0  0  0  0  0  0  0  0  0  0  0
   38.3830   24.2080   34.7920 C   0  0  0  0  0  0  0  0  0  0  0  0
   38.2640   24.0140   36.2020 C   0  0  0  0  0  0  0  0  0  0  0  0
   37.6640   22.8520   36.6400 C   0  0  0  0  0  0  0  0  0  0  0  0
   37.2220   21.9550   35.7220 N   0  0  0  0  0  0  0  0  0  0  0  0
   37.3540   22.1770   34.4030 C   0  0  0  0  0  0  0  0  0  0  0  0
   37.9260   23.2850   33.9520 N   0  0  0  0  0  0  0  0  0  0  0  0
   36.8730   21.2060   33.4790 N   0  0  0  0  0  0  0  0  0  0  0  0
   35.7500   20.3430   33.7570 C   0  0  0  0  0  0  0  0  0  0  0  0
   35.0760   19.9630   32.4520 C   0  0  0  0  0  0  0  0  0  0  0  0
   35.1260   21.1200   31.5770 N   0  0  0  0  0  0  0  0  0  0  0  0
   36.5020   21.1620   31.0570 C   0  0  0  0  0  0  0  0  0  0  0  0
   37.4990   21.0310   32.1870 C   0  0  0  0  0  0  0  0  0  0  0  0
   43.3587   23.6920   35.8122 H   0  0  0  0  0  0  0  0  0  0  0  0
   40.9358   23.6276   35.3966 H   0  0  0  0  0  0  0  0  0  0  0  0
   41.1021   27.5050   33.5833 H   0  0  0  0  0  0  0  0  0  0  0  0
   43.5312   27.5714   33.9989 H   0  0  0  0  0  0  0  0  0  0  0  0
   47.4615   24.4878   39.4221 H   0  0  0  0  0  0  0  0  0  0  0  0
   44.0581   26.4578   37.9542 H   0  0  0  0  0  0  0  0  0  0  0  0
   45.2971   25.7569   40.2064 H   0  0  0  0  0  0  0  0  0  0  0  0
   38.6378   24.7650   36.9136 H   0  0  0  0  0  0  0  0  0  0  0  0
   37.5455   22.6553   37.7158 H   0  0  0  0  0  0  0  0  0  0  0  0
   36.1021   19.4343   34.2672 H   0  0  0  0  0  0  0  0  0  0  0  0
   35.0320   20.8686   34.4037 H   0  0  0  0  0  0  0  0  0  0  0  0
   35.6071   19.1189   31.9878 H   0  0  0  0  0  0  0  0  0  0  0  0
   34.0339   19.6593   32.6304 H   0  0  0  0  0  0  0  0  0  0  0  0
   34.4525   21.0163   30.8046 H   0  0  0  0  0  0  0  0  0  0  0  0
   36.6468   20.3331   30.3485 H   0  0  0  0  0  0  0  0  0  0  0  0
   36.6621   22.1255   30.5509 H   0  0  0  0  0  0  0  0  0  0  0  0
   37.9553   20.0310   32.1450 H   0  0  0  0  0  0  0  0  0  0  0  0
   38.2583   21.8176   32.0658 H   0  0  0  0  0  0  0  0  0  0  0  0
  1  7  1  0
  1  2  2  0
  3  2  1  0
  4  3  2  0
  5  6  2  0
  5  4  1  0
  6  1  1  0
  7 12  1  0
  8  7  2  0
  9  7  2  0
 10 14  1  0
 11 10  1  0
 12 11  2  0
 12 13  1  0
 13 14  2  0
 15  4  1  0
 15 16  1  0
 16 17  2  0
 17 18  1  0
 19 18  2  0
 20 19  1  0
 21 20  2  0
 21 16  1  0
 22 23  1  0
 22 20  1  0
 24 23  1  0
 25 24  1  0
 26 25  1  0
 26 27  1  0
 27 22  1  0
  2 28  1  0
  3 29  1  0
  5 30  1  0
  6 31  1  0
 10 32  1  0
 13 33  1  0
 14 34  1  0
 17 35  1  0
 18 36  1  0
 23 37  1  0
 23 38  1  0
 24 39  1  0
 24 40  1  0
 25 41  1  0
 26 42  1  0
 26 43  1  0
 27 44  1  0
 27 45  1  0
M  ISO  8  28  14  29  14  30  14  31  14  32   9  33  14  34  14  35  14
M  ISO  8  36  14  37  13  38  13  39  13  40  13  41   5  42  13  43  13
M  ISO  2  44  13  45  13
M  END
>  <minimizedAffinity>  (1) 
-5.72617054

>  <minimizedRMSD>  (1) 
1.32741141

$$$$
