
     RDKit          3D

 38 41  0  0  0  0  0  0  0  0999 V2000
   43.6640   25.8200   34.8860 C   0  0  0  0  0  0  0  0  0  0  0  0
   42.9450   24.6810   35.2620 C   0  0  0  0  0  0  0  0  0  0  0  0
   41.6060   24.5990   35.0110 C   0  0  0  0  0  0  0  0  0  0  0  0
   40.9250   25.6290   34.3830 C   0  0  0  0  0  0  0  0  0  0  0  0
   41.5980   26.7460   34.0060 C   0  0  0  0  0  0  0  0  0  0  0  0
   42.9580   26.8360   34.2590 C   0  0  0  0  0  0  0  0  0  0  0  0
   45.3650   25.9400   35.1970 S   0  0  0  0  0  0  0  0  0  0  0  0
   46.0830   24.9580   34.3380 O   0  0  0  0  0  0  0  0  0  0  0  0
   45.8180   27.3470   34.8610 O   0  0  0  0  0  0  0  0  0  0  0  0
   46.7950   24.9020   38.6750 N   0  0  0  0  0  0  0  0  0  0  0  0
   46.8680   24.9540   37.3560 N   0  0  0  0  0  0  0  0  0  0  0  0
   45.7800   25.5920   36.8750 C   0  0  0  0  0  0  0  0  0  0  0  0
   45.0300   25.9280   37.9920 C   0  0  0  0  0  0  0  0  0  0  0  0
   45.6640   25.4980   39.1190 C   0  0  0  0  0  0  0  0  0  0  0  0
   39.1800   25.6540   33.9940 S   0  0  0  0  0  0  0  0  0  0  0  0
   38.4670   24.2160   34.7600 C   0  0  0  0  0  0  0  0  0  0  0  0
   38.4550   24.0520   36.1630 C   0  0  0  0  0  0  0  0  0  0  0  0
   37.8840   22.9080   36.6910 C   0  0  0  0  0  0  0  0  0  0  0  0
   37.3600   21.9930   35.8360 N   0  0  0  0  0  0  0  0  0  0  0  0
   37.3890   22.1840   34.5080 C   0  0  0  0  0  0  0  0  0  0  0  0
   37.9370   23.2810   33.9810 N   0  0  0  0  0  0  0  0  0  0  0  0
   36.8150   21.1810   33.5680 C   0  0  0  0  0  0  0  0  0  0  0  0
   35.6900   20.4870   33.6980 C   0  0  0  0  0  0  0  0  0  0  0  0
   35.3020   19.5940   32.7300 C   0  0  0  0  0  0  0  0  0  0  0  0
   36.1670   19.4830   31.6290 C   0  0  0  0  0  0  0  0  0  0  0  0
   37.5190   20.6990   32.0640 S   0  0  0  0  0  0  0  0  0  0  0  0
   43.4607   23.8479   35.7620 H   0  0  0  0  0  0  0  0  0  0  0  0
   41.0559   23.6959   35.3138 H   0  0  0  0  0  0  0  0  0  0  0  0
   41.0699   27.5708   33.5052 H   0  0  0  0  0  0  0  0  0  0  0  0
   43.4960   27.7449   33.9518 H   0  0  0  0  0  0  0  0  0  0  0  0
   47.5034   24.4666   39.2828 H   0  0  0  0  0  0  0  0  0  0  0  0
   44.0682   26.4613   37.9714 H   0  0  0  0  0  0  0  0  0  0  0  0
   45.3298   25.6106   40.1609 H   0  0  0  0  0  0  0  0  0  0  0  0
   38.8905   24.8178   36.8217 H   0  0  0  0  0  0  0  0  0  0  0  0
   37.8552   22.7436   37.7783 H   0  0  0  0  0  0  0  0  0  0  0  0
   35.0627   20.6292   34.5904 H   0  0  0  0  0  0  0  0  0  0  0  0
   34.3763   19.0053   32.8112 H   0  0  0  0  0  0  0  0  0  0  0  0
   36.0730   18.8441   30.7385 H   0  0  0  0  0  0  0  0  0  0  0  0
  1  7  1  0
  1  2  2  0
  3  2  1  0
  4  3  2  0
  5  6  2  0
  5  4  1  0
  6  1  1  0
  7 12  1  0
  8  7  2  0
  9  7  2  0
 10 14  1  0
 11 10  1  0
 12 11  2  0
 12 13  1  0
 13 14  2  0
 15  4  1  0
 15 16  1  0
 16 17  2  0
 17 18  1  0
 19 18  2  0
 20 19  1  0
 21 20  2  0
 21 16  1  0
 22 23  2  0
 22 20  1  0
 24 23  1  0
 25 26  1  0
 25 24  2  0
 26 22  1  0
  2 27  1  0
  3 28  1  0
  5 29  1  0
  6 30  1  0
 10 31  1  0
 13 32  1  0
 14 33  1  0
 17 34  1  0
 18 35  1  0
 23 36  1  0
 24 37  1  0
 25 38  1  0
M  ISO  8  27  14  28  14  29  14  30  14  31   9  32  14  33  14  34  14
M  ISO  4  35  14  36  14  37  14  38  14
M  END
>  <minimizedAffinity>  (1) 
-5.5169754

>  <minimizedRMSD>  (1) 
1.25742221

$$$$
