
     RDKit          3D

 38 41  0  0  0  0  0  0  0  0999 V2000
   43.5900   25.6800   34.9470 C   0  0  0  0  0  0  0  0  0  0  0  0
   42.8440   24.5600   35.3190 C   0  0  0  0  0  0  0  0  0  0  0  0
   41.4910   24.5250   35.0980 C   0  0  0  0  0  0  0  0  0  0  0  0
   40.8360   25.6060   34.5000 C   0  0  0  0  0  0  0  0  0  0  0  0
   41.5470   26.7000   34.1340 C   0  0  0  0  0  0  0  0  0  0  0  0
   42.9100   26.7370   34.3540 C   0  0  0  0  0  0  0  0  0  0  0  0
   45.3090   25.7320   35.2240 S   0  0  0  0  0  0  0  0  0  0  0  0
   45.9500   24.6460   34.4280 O   0  0  0  0  0  0  0  0  0  0  0  0
   45.8170   27.0910   34.7870 O   0  0  0  0  0  0  0  0  0  0  0  0
   46.7690   24.8920   38.7460 N   0  0  0  0  0  0  0  0  0  0  0  0
   46.8110   24.8660   37.4280 N   0  0  0  0  0  0  0  0  0  0  0  0
   45.7290   25.4920   36.9160 C   0  0  0  0  0  0  0  0  0  0  0  0
   45.0100   25.9080   38.0130 C   0  0  0  0  0  0  0  0  0  0  0  0
   45.6440   25.5430   39.1640 C   0  0  0  0  0  0  0  0  0  0  0  0
   39.0880   25.6830   34.1600 S   0  0  0  0  0  0  0  0  0  0  0  0
   38.3560   24.2150   34.8360 C   0  0  0  0  0  0  0  0  0  0  0  0
   38.2120   24.0100   36.2270 C   0  0  0  0  0  0  0  0  0  0  0  0
   37.6320   22.8430   36.6580 C   0  0  0  0  0  0  0  0  0  0  0  0
   37.2270   21.9440   35.7420 N   0  0  0  0  0  0  0  0  0  0  0  0
   37.3780   22.1630   34.4070 C   0  0  0  0  0  0  0  0  0  0  0  0
   37.9390   23.2930   33.9750 N   0  0  0  0  0  0  0  0  0  0  0  0
   36.8860   21.0880   33.5540 C   0  0  0  0  0  0  0  0  0  0  0  0
   35.6550   20.5300   33.8360 C   0  0  0  0  0  0  0  0  0  0  0  0
   35.3850   19.5240   32.8970 C   0  0  0  0  0  0  0  0  0  0  0  0
   36.5180   19.5520   32.0860 C   0  0  0  0  0  0  0  0  0  0  0  0
   37.3580   20.4690   32.5030 O   0  0  0  0  0  0  0  0  0  0  0  0
   43.3439   23.7016   35.7916 H   0  0  0  0  0  0  0  0  0  0  0  0
   40.9144   23.6364   35.3946 H   0  0  0  0  0  0  0  0  0  0  0  0
   41.0404   27.5555   33.6634 H   0  0  0  0  0  0  0  0  0  0  0  0
   43.4748   27.6308   34.0504 H   0  0  0  0  0  0  0  0  0  0  0  0
   47.4800   24.4817   39.3681 H   0  0  0  0  0  0  0  0  0  0  0  0
   44.0581   26.4575   37.9680 H   0  0  0  0  0  0  0  0  0  0  0  0
   45.3210   25.7312   40.1985 H   0  0  0  0  0  0  0  0  0  0  0  0
   38.5564   24.7673   36.9467 H   0  0  0  0  0  0  0  0  0  0  0  0
   37.5006   22.6462   37.7322 H   0  0  0  0  0  0  0  0  0  0  0  0
   34.9933   20.8265   34.6632 H   0  0  0  0  0  0  0  0  0  0  0  0
   34.5002   18.8751   32.8199 H   0  0  0  0  0  0  0  0  0  0  0  0
   36.6844   18.8970   31.2181 H   0  0  0  0  0  0  0  0  0  0  0  0
  1  7  1  0
  1  2  2  0
  3  2  1  0
  4  3  2  0
  5  6  2  0
  5  4  1  0
  6  1  1  0
  7 12  1  0
  8  7  2  0
  9  7  2  0
 10 14  1  0
 11 10  1  0
 12 11  2  0
 12 13  1  0
 13 14  2  0
 15  4  1  0
 15 16  1  0
 16 17  2  0
 17 18  1  0
 19 18  2  0
 20 19  1  0
 21 20  2  0
 21 16  1  0
 22 23  2  0
 22 20  1  0
 24 23  1  0
 25 26  1  0
 25 24  2  0
 26 22  1  0
  2 27  1  0
  3 28  1  0
  5 29  1  0
  6 30  1  0
 10 31  1  0
 13 32  1  0
 14 33  1  0
 17 34  1  0
 18 35  1  0
 23 36  1  0
 24 37  1  0
 25 38  1  0
M  ISO  8  27  14  28  14  29  14  30  14  31   9  32  14  33  14  34  14
M  ISO  4  35  14  36  14  37  14  38  14
M  END
>  <minimizedAffinity>  (1) 
-5.50412941

>  <minimizedRMSD>  (1) 
1.30175126

$$$$
