
     RDKit          3D

 34 36  0  0  0  0  0  0  0  0999 V2000
   43.3060   25.4020   35.1050 C   0  0  0  0  0  0  0  0  0  0  0  0
   42.8090   24.1790   35.5260 C   0  0  0  0  0  0  0  0  0  0  0  0
   41.4910   23.8440   35.3410 C   0  0  0  0  0  0  0  0  0  0  0  0
   40.6180   24.7230   34.7250 C   0  0  0  0  0  0  0  0  0  0  0  0
   41.0800   25.9310   34.3020 C   0  0  0  0  0  0  0  0  0  0  0  0
   42.4080   26.2620   34.4910 C   0  0  0  0  0  0  0  0  0  0  0  0
   44.9720   25.8110   35.3460 S   0  0  0  0  0  0  0  0  0  0  0  0
   45.8080   24.9860   34.4280 O   0  0  0  0  0  0  0  0  0  0  0  0
   45.1540   27.2800   35.0220 O   0  0  0  0  0  0  0  0  0  0  0  0
   46.6780   24.8820   38.7330 N   0  0  0  0  0  0  0  0  0  0  0  0
   46.6310   24.8770   37.4070 N   0  0  0  0  0  0  0  0  0  0  0  0
   45.5260   25.5230   36.9910 C   0  0  0  0  0  0  0  0  0  0  0  0
   44.8910   25.9290   38.1530 C   0  0  0  0  0  0  0  0  0  0  0  0
   45.6060   25.5320   39.2440 C   0  0  0  0  0  0  0  0  0  0  0  0
   38.8910   24.4230   34.4200 S   0  0  0  0  0  0  0  0  0  0  0  0
   38.2050   23.7460   35.9110 C   0  0  0  0  0  0  0  0  0  0  0  0
   38.5920   24.2090   37.1950 C   0  0  0  0  0  0  0  0  0  0  0  0
   37.9980   23.6140   38.2880 C   0  0  0  0  0  0  0  0  0  0  0  0
   37.0900   22.6340   38.0950 N   0  0  0  0  0  0  0  0  0  0  0  0
   36.7510   22.2230   36.8620 C   0  0  0  0  0  0  0  0  0  0  0  0
   37.3070   22.7790   35.7940 N   0  0  0  0  0  0  0  0  0  0  0  0
   35.7570   21.1570   36.7830 C   0  0  0  0  0  0  0  0  0  0  0  0
   35.4480   20.6850   35.6640 O   0  0  0  0  0  0  0  0  0  0  0  0
   35.0920   20.5820   37.8330 O   0  0  0  0  0  0  0  0  0  0  0  0
   43.4837   23.4629   36.0179 H   0  0  0  0  0  0  0  0  0  0  0  0
   41.1247   22.8659   35.6863 H   0  0  0  0  0  0  0  0  0  0  0  0
   40.3985   26.6415   33.8113 H   0  0  0  0  0  0  0  0  0  0  0  0
   42.7655   27.2421   34.1422 H   0  0  0  0  0  0  0  0  0  0  0  0
   47.4259   24.4514   39.2952 H   0  0  0  0  0  0  0  0  0  0  0  0
   43.9460   26.4908   38.1903 H   0  0  0  0  0  0  0  0  0  0  0  0
   45.3653   25.7021   40.3038 H   0  0  0  0  0  0  0  0  0  0  0  0
   39.3360   25.0104   37.3139 H   0  0  0  0  0  0  0  0  0  0  0  0
   38.2614   23.9347   39.3067 H   0  0  0  0  0  0  0  0  0  0  0  0
   34.4335   19.8616   37.6671 H   0  0  0  0  0  0  0  0  0  0  0  0
  1  7  1  0
  1  2  2  0
  3  2  1  0
  4  3  2  0
  5  6  2  0
  5  4  1  0
  6  1  1  0
  7 12  1  0
  8  7  2  0
  9  7  2  0
 10 14  1  0
 11 10  1  0
 12 11  2  0
 12 13  1  0
 13 14  2  0
 15  4  1  0
 15 16  1  0
 16 17  2  0
 17 18  1  0
 19 18  2  0
 20 19  1  0
 21 16  1  0
 21 20  2  0
 22 20  1  0
 22 24  1  0
 23 22  2  0
  2 25  1  0
  3 26  1  0
  5 27  1  0
  6 28  1  0
 10 29  1  0
 13 30  1  0
 14 31  1  0
 17 32  1  0
 18 33  1  0
 24 34  1  0
M  ISO  8  25  14  26  14  27  14  28  14  29   9  30  14  31  14  32  14
M  ISO  2  33  14  34   3
M  END
>  <minimizedAffinity>  (1) 
-5.3716135

>  <minimizedRMSD>  (1) 
1.01881897

$$$$
