
     RDKit          3D

 43 45  0  0  0  0  0  0  0  0999 V2000
   43.6200   25.8260   34.8790 C   0  0  0  0  0  0  0  0  0  0  0  0
   42.8820   24.7060   35.2650 C   0  0  0  0  0  0  0  0  0  0  0  0
   41.5380   24.6470   35.0170 C   0  0  0  0  0  0  0  0  0  0  0  0
   40.8710   25.6770   34.3870 C   0  0  0  0  0  0  0  0  0  0  0  0
   41.5740   26.7860   34.0000 C   0  0  0  0  0  0  0  0  0  0  0  0
   42.9300   26.8540   34.2460 C   0  0  0  0  0  0  0  0  0  0  0  0
   45.3240   25.9150   35.1860 S   0  0  0  0  0  0  0  0  0  0  0  0
   46.0180   24.9100   34.3320 O   0  0  0  0  0  0  0  0  0  0  0  0
   45.8010   27.3140   34.8270 O   0  0  0  0  0  0  0  0  0  0  0  0
   46.7620   24.9040   38.6750 N   0  0  0  0  0  0  0  0  0  0  0  0
   46.8240   24.9440   37.3470 N   0  0  0  0  0  0  0  0  0  0  0  0
   45.7420   25.5830   36.8620 C   0  0  0  0  0  0  0  0  0  0  0  0
   44.9990   25.9380   37.9810 C   0  0  0  0  0  0  0  0  0  0  0  0
   45.6310   25.5170   39.1150 C   0  0  0  0  0  0  0  0  0  0  0  0
   39.1340   25.7170   34.0120 S   0  0  0  0  0  0  0  0  0  0  0  0
   38.4370   24.1870   34.5850 C   0  0  0  0  0  0  0  0  0  0  0  0
   38.4610   23.8240   35.9570 C   0  0  0  0  0  0  0  0  0  0  0  0
   37.9000   22.6190   36.3180 C   0  0  0  0  0  0  0  0  0  0  0  0
   37.3540   21.8450   35.3450 N   0  0  0  0  0  0  0  0  0  0  0  0
   37.3480   22.2190   34.0500 C   0  0  0  0  0  0  0  0  0  0  0  0
   37.8870   23.3770   33.6980 N   0  0  0  0  0  0  0  0  0  0  0  0
   36.7170   21.2810   33.0700 C   0  0  0  0  0  0  0  0  0  0  0  0
   35.9790   22.1620   32.0670 C   0  0  0  0  0  0  0  0  0  0  0  0
   35.6530   20.4450   33.7460 C   0  0  0  0  0  0  0  0  0  0  0  0
   37.7060   20.4270   32.3430 C   0  0  0  0  0  0  0  0  0  0  0  0
   43.3831   23.8674   35.7706 H   0  0  0  0  0  0  0  0  0  0  0  0
   40.9745   23.7550   35.3281 H   0  0  0  0  0  0  0  0  0  0  0  0
   41.0609   27.6182   33.4958 H   0  0  0  0  0  0  0  0  0  0  0  0
   43.4834   27.7510   33.9310 H   0  0  0  0  0  0  0  0  0  0  0  0
   47.4705   24.4701   39.2839 H   0  0  0  0  0  0  0  0  0  0  0  0
   44.0416   26.4791   37.9566 H   0  0  0  0  0  0  0  0  0  0  0  0
   45.2986   25.6454   40.1557 H   0  0  0  0  0  0  0  0  0  0  0  0
   38.9143   24.4856   36.7098 H   0  0  0  0  0  0  0  0  0  0  0  0
   37.8944   22.2918   37.3682 H   0  0  0  0  0  0  0  0  0  0  0  0
   35.3637   22.8965   32.6073 H   0  0  0  0  0  0  0  0  0  0  0  0
   36.7090   22.6891   31.4352 H   0  0  0  0  0  0  0  0  0  0  0  0
   35.3321   21.5357   31.4352 H   0  0  0  0  0  0  0  0  0  0  0  0
   35.7595   20.5287   34.8376 H   0  0  0  0  0  0  0  0  0  0  0  0
   34.6580   20.8054   33.4460 H   0  0  0  0  0  0  0  0  0  0  0  0
   35.7677   19.3929   33.4460 H   0  0  0  0  0  0  0  0  0  0  0  0
   38.3301   19.8881   33.0710 H   0  0  0  0  0  0  0  0  0  0  0  0
   37.1707   19.7026   31.7116 H   0  0  0  0  0  0  0  0  0  0  0  0
   38.3447   21.0621   31.7116 H   0  0  0  0  0  0  0  0  0  0  0  0
  1  7  1  0
  1  2  2  0
  3  2  1  0
  4  3  2  0
  5  6  2  0
  5  4  1  0
  6  1  1  0
  7 12  1  0
  8  7  2  0
  9  7  2  0
 10 14  1  0
 11 10  1  0
 12 11  2  0
 12 13  1  0
 13 14  2  0
 15  4  1  0
 15 16  1  0
 16 17  2  0
 17 18  1  0
 19 18  2  0
 20 19  1  0
 21 20  2  0
 21 16  1  0
 22 24  1  0
 22 20  1  0
 23 22  1  0
 25 22  1  0
  2 26  1  0
  3 27  1  0
  5 28  1  0
  6 29  1  0
 10 30  1  0
 13 31  1  0
 14 32  1  0
 17 33  1  0
 18 34  1  0
 23 35  1  0
 23 36  1  0
 23 37  1  0
 24 38  1  0
 24 39  1  0
 24 40  1  0
 25 41  1  0
 25 42  1  0
 25 43  1  0
M  ISO  8  26  14  27  14  28  14  29  14  30   9  31  14  32  14  33  14
M  ISO  8  34  14  35   8  36   8  37   8  38   8  39   8  40   8  41   8
M  ISO  2  42   8  43   8
M  END
>  <minimizedAffinity>  (1) 
-5.27376413

>  <minimizedRMSD>  (1) 
1.36240709

$$$$
