
     RDKit          3D

 23 24  0  0  0  0  0  0  0  0999 V2000
   39.9000   22.5940   37.1720 C   0  0  0  0  0  0  0  0  0  0  0  0
   39.3090   23.3240   38.2250 C   0  0  0  0  0  0  0  0  0  0  0  0
   37.9120   23.5280   38.1700 C   0  0  0  0  0  0  0  0  0  0  0  0
   37.2180   23.0180   37.1210 N   0  0  0  0  0  0  0  0  0  0  0  0
   37.8240   22.3210   36.1300 C   0  0  0  0  0  0  0  0  0  0  0  0
   39.1470   22.1150   36.1590 N   0  0  0  0  0  0  0  0  0  0  0  0
   37.1250   21.7740   35.0180 N   0  0  0  0  0  0  0  0  0  0  0  0
   37.4480   22.0190   33.7180 C   0  0  0  0  0  0  0  0  0  0  0  0
   36.6790   21.4180   32.7480 C   0  0  0  0  0  0  0  0  0  0  0  0
   36.9850   21.6480   31.3280 C   0  0  0  0  0  0  0  0  0  0  0  0
   35.6320   20.6080   33.1030 C   0  0  0  0  0  0  0  0  0  0  0  0
   34.9360   20.0630   32.2070 O   0  0  0  0  0  0  0  0  0  0  0  0
   35.2900   20.3480   34.3710 N   0  0  0  0  0  0  0  0  0  0  0  0
   36.0730   20.9600   35.3020 C   0  0  0  0  0  0  0  0  0  0  0  0
   35.7680   20.7290   36.5150 O   0  0  0  0  0  0  0  0  0  0  0  0
   40.9851   22.4134   37.1765 H   0  0  0  0  0  0  0  0  0  0  0  0
   39.9121   23.7187   39.0559 H   0  0  0  0  0  0  0  0  0  0  0  0
   37.3963   24.0898   38.9627 H   0  0  0  0  0  0  0  0  0  0  0  0
   38.2920   22.6728   33.4532 H   0  0  0  0  0  0  0  0  0  0  0  0
   37.8617   22.3070   31.2439 H   0  0  0  0  0  0  0  0  0  0  0  0
   37.2007   20.6866   30.8390 H   0  0  0  0  0  0  0  0  0  0  0  0
   36.1214   22.1225   30.8390 H   0  0  0  0  0  0  0  0  0  0  0  0
   34.5003   19.7360   34.6215 H   0  0  0  0  0  0  0  0  0  0  0  0
  1  2  2  0
  3  2  1  0
  4  3  2  0
  5  6  2  0
  5  4  1  0
  6  1  1  0
  7 14  1  0
  7  5  1  0
  8  7  1  0
  9 11  1  0
  9  8  2  0
 10  9  1  0
 11 13  1  0
 12 11  2  0
 13 14  1  0
 14 15  2  0
  1 16  1  0
  2 17  1  0
  3 18  1  0
  8 19  1  0
 10 20  1  0
 10 21  1  0
 10 22  1  0
 13 23  1  0
M  ISO  8  16  14  17  14  18  14  19  14  20   8  21   8  22   8  23   9
M  END
>  <minimizedAffinity>  (1) 
-5.03691673

>  <minimizedRMSD>  (1) 
1.74608171

$$$$
