
     RDKit          3D

 37 39  0  0  0  0  0  0  0  0999 V2000
   43.6010   25.6480   34.9870 C   0  0  0  0  0  0  0  0  0  0  0  0
   42.9580   24.4920   35.4010 C   0  0  0  0  0  0  0  0  0  0  0  0
   41.6180   24.2910   35.1720 C   0  0  0  0  0  0  0  0  0  0  0  0
   40.8810   25.2630   34.5100 C   0  0  0  0  0  0  0  0  0  0  0  0
   41.4710   26.4130   34.0860 C   0  0  0  0  0  0  0  0  0  0  0  0
   42.8300   26.5990   34.3280 C   0  0  0  0  0  0  0  0  0  0  0  0
   45.2960   25.8870   35.2840 S   0  0  0  0  0  0  0  0  0  0  0  0
   46.0670   24.9670   34.4030 O   0  0  0  0  0  0  0  0  0  0  0  0
   45.6460   27.3240   34.9630 O   0  0  0  0  0  0  0  0  0  0  0  0
   46.8100   24.8580   38.7290 N   0  0  0  0  0  0  0  0  0  0  0  0
   46.8310   24.8950   37.4160 N   0  0  0  0  0  0  0  0  0  0  0  0
   45.7500   25.5550   36.9560 C   0  0  0  0  0  0  0  0  0  0  0  0
   45.0540   25.9270   38.0870 C   0  0  0  0  0  0  0  0  0  0  0  0
   45.7080   25.4960   39.2030 C   0  0  0  0  0  0  0  0  0  0  0  0
   39.1310   25.1500   34.1360 S   0  0  0  0  0  0  0  0  0  0  0  0
   38.3730   24.2600   35.4680 C   0  0  0  0  0  0  0  0  0  0  0  0
   38.4170   24.7470   36.8000 C   0  0  0  0  0  0  0  0  0  0  0  0
   37.7950   23.9830   37.7730 C   0  0  0  0  0  0  0  0  0  0  0  0
   37.1900   22.8380   37.4300 N   0  0  0  0  0  0  0  0  0  0  0  0
   37.1680   22.4050   36.1470 C   0  0  0  0  0  0  0  0  0  0  0  0
   37.7550   23.1170   35.1920 N   0  0  0  0  0  0  0  0  0  0  0  0
   36.4580   21.1170   35.9120 C   0  0  0  0  0  0  0  0  0  0  0  0
   35.2740   21.0580   36.8470 C   0  0  0  0  0  0  0  0  0  0  0  0
   43.5347   23.7162   35.9259 H   0  0  0  0  0  0  0  0  0  0  0  0
   41.1320   23.3645   35.5116 H   0  0  0  0  0  0  0  0  0  0  0  0
   40.8853   27.1823   33.5614 H   0  0  0  0  0  0  0  0  0  0  0  0
   43.3089   27.5286   33.9866 H   0  0  0  0  0  0  0  0  0  0  0  0
   47.5274   24.4089   39.3160 H   0  0  0  0  0  0  0  0  0  0  0  0
   44.1088   26.4896   38.0885 H   0  0  0  0  0  0  0  0  0  0  0  0
   45.4100   25.6340   40.2528 H   0  0  0  0  0  0  0  0  0  0  0  0
   38.9236   25.6911   37.0490 H   0  0  0  0  0  0  0  0  0  0  0  0
   37.7976   24.3144   38.8219 H   0  0  0  0  0  0  0  0  0  0  0  0
   36.1125   21.0664   34.8689 H   0  0  0  0  0  0  0  0  0  0  0  0
   37.1338   20.2693   36.0982 H   0  0  0  0  0  0  0  0  0  0  0  0
   35.6279   21.0756   37.8884 H   0  0  0  0  0  0  0  0  0  0  0  0
   34.6210   21.9247   36.6669 H   0  0  0  0  0  0  0  0  0  0  0  0
   34.7104   20.1307   36.6669 H   0  0  0  0  0  0  0  0  0  0  0  0
  1  7  1  0
  1  2  2  0
  3  2  1  0
  4  3  2  0
  5  6  2  0
  5  4  1  0
  6  1  1  0
  7 12  1  0
  8  7  2  0
  9  7  2  0
 10 14  1  0
 11 10  1  0
 12 11  2  0
 12 13  1  0
 13 14  2  0
 15  4  1  0
 15 16  1  0
 16 17  2  0
 17 18  1  0
 19 18  2  0
 20 19  1  0
 21 16  1  0
 21 20  2  0
 22 20  1  0
 22 23  1  0
  2 24  1  0
  3 25  1  0
  5 26  1  0
  6 27  1  0
 10 28  1  0
 13 29  1  0
 14 30  1  0
 17 31  1  0
 18 32  1  0
 22 33  1  0
 22 34  1  0
 23 35  1  0
 23 36  1  0
 23 37  1  0
M  ISO  8  24  14  25  14  26  14  27  14  28   9  29  14  30  14  31  14
M  ISO  6  32  14  33   8  34   8  35   8  36   8  37   8
M  END
>  <minimizedAffinity>  (1) 
-4.96113491

>  <minimizedRMSD>  (1) 
0.36375466

$$$$
