
     RDKit          3D

 33 35  0  0  0  0  0  0  0  0999 V2000
   43.6500   25.4180   34.8910 C   0  0  0  0  0  0  0  0  0  0  0  0
   43.2400   24.1230   35.1860 C   0  0  0  0  0  0  0  0  0  0  0  0
   41.9740   23.6970   34.8810 C   0  0  0  0  0  0  0  0  0  0  0  0
   41.0620   24.5500   34.2680 C   0  0  0  0  0  0  0  0  0  0  0  0
   41.4390   25.8290   33.9660 C   0  0  0  0  0  0  0  0  0  0  0  0
   42.7240   26.2440   34.2810 C   0  0  0  0  0  0  0  0  0  0  0  0
   45.2530   25.9420   35.2810 S   0  0  0  0  0  0  0  0  0  0  0  0
   46.2190   25.2440   34.3880 O   0  0  0  0  0  0  0  0  0  0  0  0
   45.3180   27.4490   35.0550 O   0  0  0  0  0  0  0  0  0  0  0  0
   46.7660   24.9260   38.7310 N   0  0  0  0  0  0  0  0  0  0  0  0
   46.8020   24.9810   37.4180 N   0  0  0  0  0  0  0  0  0  0  0  0
   45.7100   25.6000   36.9440 C   0  0  0  0  0  0  0  0  0  0  0  0
   44.9960   25.9250   38.0810 C   0  0  0  0  0  0  0  0  0  0  0  0
   45.6330   25.5150   39.1990 C   0  0  0  0  0  0  0  0  0  0  0  0
   39.3870   24.1400   33.8130 S   0  0  0  0  0  0  0  0  0  0  0  0
   38.5350   23.7060   35.3180 C   0  0  0  0  0  0  0  0  0  0  0  0
   38.7470   24.4360   36.5250 C   0  0  0  0  0  0  0  0  0  0  0  0
   38.0250   24.0000   37.6280 C   0  0  0  0  0  0  0  0  0  0  0  0
   37.1910   22.9550   37.5260 N   0  0  0  0  0  0  0  0  0  0  0  0
   37.0260   22.2960   36.3550 C   0  0  0  0  0  0  0  0  0  0  0  0
   37.6930   22.6720   35.2660 N   0  0  0  0  0  0  0  0  0  0  0  0
   36.1130   21.1670   36.2800 C   0  0  0  0  0  0  0  0  0  0  0  0
   35.0440   21.0550   36.9290 O   0  0  0  0  0  0  0  0  0  0  0  0
   43.9425   23.4298   35.6716 H   0  0  0  0  0  0  0  0  0  0  0  0
   41.6748   22.6668   35.1241 H   0  0  0  0  0  0  0  0  0  0  0  0
   40.7332   26.5188   33.4802 H   0  0  0  0  0  0  0  0  0  0  0  0
   43.0194   27.2746   34.0350 H   0  0  0  0  0  0  0  0  0  0  0  0
   47.4929   24.4975   39.3216 H   0  0  0  0  0  0  0  0  0  0  0  0
   44.0302   26.4515   38.0763 H   0  0  0  0  0  0  0  0  0  0  0  0
   45.3106   25.6305   40.2443 H   0  0  0  0  0  0  0  0  0  0  0  0
   39.4384   25.2899   36.5786 H   0  0  0  0  0  0  0  0  0  0  0  0
   38.1381   24.5159   38.5929 H   0  0  0  0  0  0  0  0  0  0  0  0
   36.3803   20.3448   35.5999 H   0  0  0  0  0  0  0  0  0  0  0  0
  1  2  2  0
  1  7  1  0
  3  2  1  0
  4  3  2  0
  5  4  1  0
  5  6  2  0
  6  1  1  0
  7 12  1  0
  8  7  2  0
  9  7  2  0
 10 14  1  0
 11 10  1  0
 12 11  2  0
 12 13  1  0
 13 14  2  0
 15  4  1  0
 15 16  1  0
 16 17  2  0
 17 18  1  0
 19 18  2  0
 20 19  1  0
 21 16  1  0
 21 20  2  0
 22 20  1  0
 22 23  2  0
  2 24  1  0
  3 25  1  0
  5 26  1  0
  6 27  1  0
 10 28  1  0
 13 29  1  0
 14 30  1  0
 17 31  1  0
 18 32  1  0
 22 33  1  0
M  ISO  8  24  14  25  14  26  14  27  14  28   9  29  14  30  14  31  14
M  ISO  2  32  14  33   6
M  END
>  <minimizedAffinity>  (1) 
-4.72404385

>  <minimizedRMSD>  (1) 
0.850575626

$$$$
