
     RDKit          3D

 23 25  0  0  0  0  0  0  0  0999 V2000
   41.0110   23.3450   36.2100 N   0  0  0  0  0  0  0  0  0  0  0  0
   42.0440   22.5770   36.6270 C   0  0  0  0  0  0  0  0  0  0  0  0
   43.1810   23.1820   36.1880 N   0  0  0  0  0  0  0  0  0  0  0  0
   42.8390   24.2820   35.5250 C   0  0  0  0  0  0  0  0  0  0  0  0
   43.5180   25.2880   34.8620 C   0  0  0  0  0  0  0  0  0  0  0  0
   42.8820   26.3310   34.2510 N   0  0  0  0  0  0  0  0  0  0  0  0
   41.5180   26.3970   34.2880 C   0  0  0  0  0  0  0  0  0  0  0  0
   40.8090   25.4380   34.9230 N   0  0  0  0  0  0  0  0  0  0  0  0
   41.4660   24.4240   35.5150 C   0  0  0  0  0  0  0  0  0  0  0  0
   39.6250   23.0870   36.4490 C   0  0  0  0  0  0  0  0  0  0  0  0
   38.9770   23.5880   37.6050 C   0  0  0  0  0  0  0  0  0  0  0  0
   37.6180   23.2920   37.7670 C   0  0  0  0  0  0  0  0  0  0  0  0
   37.0000   22.5480   36.8150 N   0  0  0  0  0  0  0  0  0  0  0  0
   37.6470   22.0810   35.7160 C   0  0  0  0  0  0  0  0  0  0  0  0
   38.9610   22.3580   35.5440 N   0  0  0  0  0  0  0  0  0  0  0  0
   44.9380   25.2530   34.8020 N   0  0  0  0  0  0  0  0  0  0  0  0
   41.9776   21.6452   37.2077 H   0  0  0  0  0  0  0  0  0  0  0  0
   40.9957   27.2329   33.7997 H   0  0  0  0  0  0  0  0  0  0  0  0
   39.5220   24.1880   38.3486 H   0  0  0  0  0  0  0  0  0  0  0  0
   37.0641   23.6542   38.6456 H   0  0  0  0  0  0  0  0  0  0  0  0
   37.1062   21.4808   34.9695 H   0  0  0  0  0  0  0  0  0  0  0  0
   45.4512   25.9984   34.3102 H   0  0  0  0  0  0  0  0  0  0  0  0
   45.4536   24.4822   35.2504 H   0  0  0  0  0  0  0  0  0  0  0  0
  1 10  1  0
  1  2  1  0
  3  2  2  0
  4  3  1  0
  5  4  2  0
  6  7  2  0
  6  5  1  0
  7  8  1  0
  8  9  2  0
  9  4  1  0
  9  1  1  0
 10 11  2  0
 11 12  1  0
 13 12  2  0
 14 13  1  0
 15 14  2  0
 15 10  1  0
 16  5  1  0
  2 17  1  0
  7 18  1  0
 11 19  1  0
 12 20  1  0
 14 21  1  0
 16 22  1  0
 16 23  1  0
M  ISO  5  17  14  18  14  19  14  20  14  21  14
M  END
>  <minimizedAffinity>  (1) 
-3.64937806

>  <minimizedRMSD>  (1) 
2.80311108

$$$$
