
     RDKit          3D

 37 41  0  0  0  0  0  0  0  0999 V2000
   40.0140   23.1130   36.8400 C   0  0  0  0  0  0  0  0  0  0  0  0
   39.3430   23.1660   38.0660 C   0  0  0  0  0  0  0  0  0  0  0  0
   38.0550   23.7320   38.0420 C   0  0  0  0  0  0  0  0  0  0  0  0
   37.5460   24.1800   36.8820 N   0  0  0  0  0  0  0  0  0  0  0  0
   38.2070   24.1210   35.7100 C   0  0  0  0  0  0  0  0  0  0  0  0
   39.4310   23.5790   35.7550 N   0  0  0  0  0  0  0  0  0  0  0  0
   37.8290   24.5500   34.3640 C   0  0  0  0  0  0  0  0  0  0  0  0
   37.8830   23.7510   33.2760 N   0  0  0  0  0  0  0  0  0  0  0  0
   37.5540   24.0950   32.0450 C   0  0  0  0  0  0  0  0  0  0  0  0
   37.1180   25.3350   31.7710 N   0  0  0  0  0  0  0  0  0  0  0  0
   37.0210   26.2340   32.7830 C   0  0  0  0  0  0  0  0  0  0  0  0
   36.5740   27.5070   32.5040 C   0  0  0  0  0  0  0  0  0  0  0  0
   36.4640   28.4400   33.4970 C   0  0  0  0  0  0  0  0  0  0  0  0
   36.8210   28.0360   34.7840 C   0  0  0  0  0  0  0  0  0  0  0  0
   37.2610   26.7520   35.0110 C   0  0  0  0  0  0  0  0  0  0  0  0
   37.3790   25.8070   34.0340 C   0  0  0  0  0  0  0  0  0  0  0  0
   41.3300   22.5550   36.7280 N   0  0  0  0  0  0  0  0  0  0  0  0
   41.6840   21.2880   37.0870 C   0  0  0  0  0  0  0  0  0  0  0  0
   43.0100   21.1740   36.8290 N   0  0  0  0  0  0  0  0  0  0  0  0
   43.4400   22.3300   36.3330 C   0  0  0  0  0  0  0  0  0  0  0  0
   44.6520   22.8200   35.8940 C   0  0  0  0  0  0  0  0  0  0  0  0
   44.7980   24.1030   35.4170 N   0  0  0  0  0  0  0  0  0  0  0  0
   43.7180   24.9280   35.3720 C   0  0  0  0  0  0  0  0  0  0  0  0
   42.5110   24.4820   35.7970 N   0  0  0  0  0  0  0  0  0  0  0  0
   42.4010   23.2310   36.2550 C   0  0  0  0  0  0  0  0  0  0  0  0
   45.7970   21.9950   35.9440 N   0  0  0  0  0  0  0  0  0  0  0  0
   39.7956   22.7875   38.9944 H   0  0  0  0  0  0  0  0  0  0  0  0
   37.4674   23.8074   38.9688 H   0  0  0  0  0  0  0  0  0  0  0  0
   37.6380   23.3569   31.2337 H   0  0  0  0  0  0  0  0  0  0  0  0
   36.3030   27.7752   31.4722 H   0  0  0  0  0  0  0  0  0  0  0  0
   36.1107   29.4612   33.2912 H   0  0  0  0  0  0  0  0  0  0  0  0
   36.7504   28.7468   35.6206 H   0  0  0  0  0  0  0  0  0  0  0  0
   37.5332   26.4714   36.0392 H   0  0  0  0  0  0  0  0  0  0  0  0
   41.0245   20.5123   37.5033 H   0  0  0  0  0  0  0  0  0  0  0  0
   43.8238   25.9547   34.9916 H   0  0  0  0  0  0  0  0  0  0  0  0
   46.7054   22.3545   35.6178 H   0  0  0  0  0  0  0  0  0  0  0  0
   45.7237   21.0338   36.3067 H   0  0  0  0  0  0  0  0  0  0  0  0
  1  2  2  0
  3  2  1  0
  4  3  2  0
  5  6  2  0
  5  4  1  0
  6  1  1  0
  7  5  1  0
  8  7  2  0
  9  8  1  0
 10  9  2  0
 10 11  1  0
 11 16  2  0
 12 11  1  0
 12 13  2  0
 13 14  1  0
 14 15  2  0
 16  7  1  0
 16 15  1  0
 17  1  1  0
 17 18  1  0
 19 18  2  0
 20 19  1  0
 21 26  1  0
 21 20  2  0
 22 21  1  0
 23 22  2  0
 23 24  1  0
 24 25  2  0
 25 20  1  0
 25 17  1  0
  2 27  1  0
  3 28  1  0
  9 29  1  0
 12 30  1  0
 13 31  1  0
 14 32  1  0
 15 33  1  0
 18 34  1  0
 23 35  1  0
 26 36  1  0
 26 37  1  0
M  ISO  8  27  14  28  14  29  14  30  14  31  14  32  14  33  14  34  14
M  ISO  1  35  14
M  END
>  <minimizedAffinity>  (1) 
-6.16098452

>  <minimizedRMSD>  (1) 
3.52705741

$$$$
