
     RDKit          3D

 36 40  0  0  0  0  0  0  0  0999 V2000
   39.8050   22.5450   36.8790 C   0  0  0  0  0  0  0  0  0  0  0  0
   39.2200   23.2510   37.9490 C   0  0  0  0  0  0  0  0  0  0  0  0
   37.8280   23.3820   37.9830 C   0  0  0  0  0  0  0  0  0  0  0  0
   37.1130   22.8230   36.9810 N   0  0  0  0  0  0  0  0  0  0  0  0
   37.6860   22.1500   35.9630 C   0  0  0  0  0  0  0  0  0  0  0  0
   39.0310   22.0190   35.9250 N   0  0  0  0  0  0  0  0  0  0  0  0
   36.9550   21.5530   34.8980 N   0  0  0  0  0  0  0  0  0  0  0  0
   35.7880   20.8550   34.9670 C   0  0  0  0  0  0  0  0  0  0  0  0
   35.4320   20.4580   33.7100 N   0  0  0  0  0  0  0  0  0  0  0  0
   36.3800   20.9090   32.8700 C   0  0  0  0  0  0  0  0  0  0  0  0
   36.5980   20.8440   31.5090 C   0  0  0  0  0  0  0  0  0  0  0  0
   37.6880   21.4200   30.9200 N   0  0  0  0  0  0  0  0  0  0  0  0
   38.5930   22.0810   31.6990 C   0  0  0  0  0  0  0  0  0  0  0  0
   38.4060   22.1600   33.0250 N   0  0  0  0  0  0  0  0  0  0  0  0
   37.3430   21.5980   33.5880 C   0  0  0  0  0  0  0  0  0  0  0  0
   41.2160   22.3650   36.7700 N   0  0  0  0  0  0  0  0  0  0  0  0
   41.9090   21.3060   37.2220 C   0  0  0  0  0  0  0  0  0  0  0  0
   43.2160   21.5350   36.9150 N   0  0  0  0  0  0  0  0  0  0  0  0
   43.2940   22.7080   36.2930 C   0  0  0  0  0  0  0  0  0  0  0  0
   44.3180   23.4580   35.7550 C   0  0  0  0  0  0  0  0  0  0  0  0
   44.0950   24.6700   35.1550 N   0  0  0  0  0  0  0  0  0  0  0  0
   42.8190   25.1590   35.0840 C   0  0  0  0  0  0  0  0  0  0  0  0
   41.7950   24.4530   35.5990 N   0  0  0  0  0  0  0  0  0  0  0  0
   42.0470   23.2720   36.1780 C   0  0  0  0  0  0  0  0  0  0  0  0
   45.6500   22.9870   35.8090 N   0  0  0  0  0  0  0  0  0  0  0  0
   35.6660   20.1590   30.6770 N   0  0  0  0  0  0  0  0  0  0  0  0
   39.8449   23.6898   38.7408 H   0  0  0  0  0  0  0  0  0  0  0  0
   37.3298   23.9237   38.8006 H   0  0  0  0  0  0  0  0  0  0  0  0
   35.2230   20.6448   35.8871 H   0  0  0  0  0  0  0  0  0  0  0  0
   39.4760   22.5491   31.2394 H   0  0  0  0  0  0  0  0  0  0  0  0
   41.5002   20.4255   37.7393 H   0  0  0  0  0  0  0  0  0  0  0  0
   42.6296   26.1310   34.6051 H   0  0  0  0  0  0  0  0  0  0  0  0
   46.4122   23.5504   35.4059 H   0  0  0  0  0  0  0  0  0  0  0  0
   45.8582   22.0805   36.2515 H   0  0  0  0  0  0  0  0  0  0  0  0
   35.8240   20.1075   29.6605 H   0  0  0  0  0  0  0  0  0  0  0  0
   34.8343   19.7153   31.0921 H   0  0  0  0  0  0  0  0  0  0  0  0
  1  2  2  0
  2  3  1  0
  4  3  2  0
  5  4  1  0
  6  5  2  0
  6  1  1  0
  7  8  1  0
  7  5  1  0
  9  8  2  0
 10 15  2  0
 10  9  1  0
 11 10  1  0
 12 11  2  0
 12 13  1  0
 13 14  2  0
 14 15  1  0
 15  7  1  0
 16  1  1  0
 16 17  1  0
 18 17  2  0
 19 18  1  0
 20 25  1  0
 20 19  2  0
 21 20  1  0
 22 21  2  0
 22 23  1  0
 23 24  2  0
 24 19  1  0
 24 16  1  0
 26 11  1  0
  2 27  1  0
  3 28  1  0
  8 29  1  0
 13 30  1  0
 17 31  1  0
 22 32  1  0
 25 33  1  0
 25 34  1  0
 26 35  1  0
 26 36  1  0
M  ISO  6  27  14  28  14  29  14  30  14  31  14  32  14
M  END
>  <minimizedAffinity>  (1) 
-6.0339818

>  <minimizedRMSD>  (1) 
1.21807897

$$$$
