
     RDKit          3D

 34 37  0  0  0  0  0  0  0  0999 V2000
   39.3820   23.5200   35.7430 C   0  0  0  0  0  0  0  0  0  0  0  0
   38.7410   23.6270   36.9980 C   0  0  0  0  0  0  0  0  0  0  0  0
   37.5580   22.9020   37.1790 C   0  0  0  0  0  0  0  0  0  0  0  0
   37.0920   22.1450   36.1580 N   0  0  0  0  0  0  0  0  0  0  0  0
   37.7350   22.0670   34.9670 C   0  0  0  0  0  0  0  0  0  0  0  0
   38.8830   22.7540   34.7530 N   0  0  0  0  0  0  0  0  0  0  0  0
   37.1450   21.2370   33.9710 N   0  0  0  0  0  0  0  0  0  0  0  0
   37.8340   21.1100   32.8220 C   0  0  0  0  0  0  0  0  0  0  0  0
   37.2600   20.3050   31.8580 C   0  0  0  0  0  0  0  0  0  0  0  0
   36.0500   19.7130   32.1570 C   0  0  0  0  0  0  0  0  0  0  0  0
   35.4230   18.8750   31.1930 N   0  0  0  0  0  0  0  0  0  0  0  0
   35.3990   19.8810   33.3450 N   0  0  0  0  0  0  0  0  0  0  0  0
   35.9660   20.6700   34.2820 C   0  0  0  0  0  0  0  0  0  0  0  0
   35.4250   20.8710   35.3990 O   0  0  0  0  0  0  0  0  0  0  0  0
   40.5950   24.2290   35.4740 N   0  0  0  0  0  0  0  0  0  0  0  0
   41.8300   23.8670   35.8900 C   0  0  0  0  0  0  0  0  0  0  0  0
   42.7020   24.8090   35.4220 N   0  0  0  0  0  0  0  0  0  0  0  0
   41.9970   25.7090   34.7430 C   0  0  0  0  0  0  0  0  0  0  0  0
   42.2990   26.8700   34.0490 C   0  0  0  0  0  0  0  0  0  0  0  0
   41.3430   27.6160   33.4310 N   0  0  0  0  0  0  0  0  0  0  0  0
   40.0380   27.2230   33.4860 C   0  0  0  0  0  0  0  0  0  0  0  0
   39.6980   26.0970   34.1510 N   0  0  0  0  0  0  0  0  0  0  0  0
   40.6600   25.3770   34.7540 C   0  0  0  0  0  0  0  0  0  0  0  0
   43.6370   27.3110   33.9700 N   0  0  0  0  0  0  0  0  0  0  0  0
   39.1555   24.2551   37.8003 H   0  0  0  0  0  0  0  0  0  0  0  0
   37.0157   22.9464   38.1350 H   0  0  0  0  0  0  0  0  0  0  0  0
   38.7967   21.6171   32.6604 H   0  0  0  0  0  0  0  0  0  0  0  0
   37.7497   20.1416   30.8867 H   0  0  0  0  0  0  0  0  0  0  0  0
   34.5197   18.4291   31.4079 H   0  0  0  0  0  0  0  0  0  0  0  0
   35.8724   18.7143   30.2803 H   0  0  0  0  0  0  0  0  0  0  0  0
   42.0843   22.9817   36.4913 H   0  0  0  0  0  0  0  0  0  0  0  0
   39.2618   27.8232   32.9886 H   0  0  0  0  0  0  0  0  0  0  0  0
   43.8655   28.1733   33.4552 H   0  0  0  0  0  0  0  0  0  0  0  0
   44.3852   26.7706   34.4272 H   0  0  0  0  0  0  0  0  0  0  0  0
  1  2  2  0
  2  3  1  0
  4  3  2  0
  5  4  1  0
  6  5  2  0
  6  1  1  0
  7 13  1  0
  7  5  1  0
  8  7  1  0
  9 10  1  0
  9  8  2  0
 10 12  2  0
 11 10  1  0
 12 13  1  0
 13 14  2  0
 15  1  1  0
 15 16  1  0
 17 16  2  0
 18 23  2  0
 18 17  1  0
 19 18  1  0
 20 21  1  0
 20 19  2  0
 21 22  2  0
 22 23  1  0
 23 15  1  0
 24 19  1  0
  2 25  1  0
  3 26  1  0
  8 27  1  0
  9 28  1  0
 11 29  1  0
 11 30  1  0
 16 31  1  0
 21 32  1  0
 24 33  1  0
 24 34  1  0
M  ISO  6  25  14  26  14  27  14  28  14  31  14  32  14
M  END
>  <minimizedAffinity>  (1) 
-5.98128462

>  <minimizedRMSD>  (1) 
1.41236675

$$$$
