
     RDKit          3D

 34 38  0  0  0  0  0  0  0  0999 V2000
   39.7670   22.5500   36.8400 C   0  0  0  0  0  0  0  0  0  0  0  0
   39.1930   23.2210   37.9330 C   0  0  0  0  0  0  0  0  0  0  0  0
   37.8010   23.3490   37.9870 C   0  0  0  0  0  0  0  0  0  0  0  0
   37.0740   22.8120   36.9690 N   0  0  0  0  0  0  0  0  0  0  0  0
   37.6560   22.1630   35.9140 C   0  0  0  0  0  0  0  0  0  0  0  0
   38.9950   22.0360   35.8600 N   0  0  0  0  0  0  0  0  0  0  0  0
   36.8610   21.6120   34.8670 N   0  0  0  0  0  0  0  0  0  0  0  0
   35.8840   20.7020   35.0380 C   0  0  0  0  0  0  0  0  0  0  0  0
   35.3380   20.4040   33.8240 N   0  0  0  0  0  0  0  0  0  0  0  0
   35.9560   21.1140   32.8850 C   0  0  0  0  0  0  0  0  0  0  0  0
   35.8830   21.2720   31.4970 C   0  0  0  0  0  0  0  0  0  0  0  0
   36.7070   22.1240   30.8450 N   0  0  0  0  0  0  0  0  0  0  0  0
   37.6230   22.8410   31.5320 C   0  0  0  0  0  0  0  0  0  0  0  0
   37.7490   22.7370   32.8780 N   0  0  0  0  0  0  0  0  0  0  0  0
   36.9220   21.8820   33.5450 C   0  0  0  0  0  0  0  0  0  0  0  0
   41.1770   22.3810   36.7200 N   0  0  0  0  0  0  0  0  0  0  0  0
   41.8930   21.3220   37.1910 C   0  0  0  0  0  0  0  0  0  0  0  0
   43.1930   21.5630   36.8610 N   0  0  0  0  0  0  0  0  0  0  0  0
   43.2620   22.7200   36.2160 C   0  0  0  0  0  0  0  0  0  0  0  0
   44.2540   23.4930   35.6420 C   0  0  0  0  0  0  0  0  0  0  0  0
   44.0100   24.6910   35.0230 N   0  0  0  0  0  0  0  0  0  0  0  0
   42.7350   25.1520   34.9650 C   0  0  0  0  0  0  0  0  0  0  0  0
   41.7250   24.4440   35.5050 N   0  0  0  0  0  0  0  0  0  0  0  0
   41.9980   23.2650   36.1100 C   0  0  0  0  0  0  0  0  0  0  0  0
   45.5940   23.0330   35.6820 N   0  0  0  0  0  0  0  0  0  0  0  0
   39.8258   23.6375   38.7306 H   0  0  0  0  0  0  0  0  0  0  0  0
   37.3101   23.8665   38.8244 H   0  0  0  0  0  0  0  0  0  0  0  0
   35.5758   20.2687   36.0009 H   0  0  0  0  0  0  0  0  0  0  0  0
   35.1424   20.6932   30.9256 H   0  0  0  0  0  0  0  0  0  0  0  0
   38.2848   23.5281   30.9843 H   0  0  0  0  0  0  0  0  0  0  0  0
   41.5002   20.4472   37.7300 H   0  0  0  0  0  0  0  0  0  0  0  0
   42.5247   26.1128   34.4724 H   0  0  0  0  0  0  0  0  0  0  0  0
   46.3449   23.5970   35.2590 H   0  0  0  0  0  0  0  0  0  0  0  0
   45.8169   22.1348   36.1341 H   0  0  0  0  0  0  0  0  0  0  0  0
  1  2  2  0
  2  3  1  0
  4  3  2  0
  5  4  1  0
  6  5  2  0
  6  1  1  0
  7  8  1  0
  7  5  1  0
  9  8  2  0
 10 15  2  0
 10  9  1  0
 11 10  1  0
 12 11  2  0
 12 13  1  0
 13 14  2  0
 14 15  1  0
 15  7  1  0
 16  1  1  0
 16 17  1  0
 18 17  2  0
 19 18  1  0
 20 25  1  0
 20 19  2  0
 21 20  1  0
 22 21  2  0
 22 23  1  0
 23 24  2  0
 24 19  1  0
 24 16  1  0
  2 26  1  0
  3 27  1  0
  8 28  1  0
 11 29  1  0
 13 30  1  0
 17 31  1  0
 22 32  1  0
 25 33  1  0
 25 34  1  0
M  ISO  7  26  14  27  14  28  14  29  14  30  14  31  14  32  14
M  END
>  <minimizedAffinity>  (1) 
-5.92054415

>  <minimizedRMSD>  (1) 
1.20594227

$$$$
