
     RDKit          3D

 37 41  0  0  0  0  0  0  0  0999 V2000
   39.8210   22.5700   36.9200 C   0  0  0  0  0  0  0  0  0  0  0  0
   39.3100   23.3420   37.9800 C   0  0  0  0  0  0  0  0  0  0  0  0
   37.9260   23.5060   38.0580 C   0  0  0  0  0  0  0  0  0  0  0  0
   37.1520   22.9190   37.1180 N   0  0  0  0  0  0  0  0  0  0  0  0
   37.6580   22.1810   36.1080 C   0  0  0  0  0  0  0  0  0  0  0  0
   39.0050   22.0140   36.0210 N   0  0  0  0  0  0  0  0  0  0  0  0
   41.2270   22.3510   36.7660 N   0  0  0  0  0  0  0  0  0  0  0  0
   41.9190   21.2900   37.2070 C   0  0  0  0  0  0  0  0  0  0  0  0
   43.2180   21.4910   36.8470 N   0  0  0  0  0  0  0  0  0  0  0  0
   43.2990   22.6570   36.2000 C   0  0  0  0  0  0  0  0  0  0  0  0
   44.3100   23.3830   35.6120 C   0  0  0  0  0  0  0  0  0  0  0  0
   44.0880   24.5830   35.0050 N   0  0  0  0  0  0  0  0  0  0  0  0
   42.8280   25.0920   34.9730 C   0  0  0  0  0  0  0  0  0  0  0  0
   41.8050   24.4180   35.5350 N   0  0  0  0  0  0  0  0  0  0  0  0
   42.0500   23.2410   36.1250 C   0  0  0  0  0  0  0  0  0  0  0  0
   45.6400   22.8810   35.6270 N   0  0  0  0  0  0  0  0  0  0  0  0
   36.8010   21.5580   35.1050 C   0  0  0  0  0  0  0  0  0  0  0  0
   35.8490   20.5650   35.2760 C   0  0  0  0  0  0  0  0  0  0  0  0
   35.2800   20.2730   34.0880 N   0  0  0  0  0  0  0  0  0  0  0  0
   35.8470   21.0590   33.1430 C   0  0  0  0  0  0  0  0  0  0  0  0
   35.6440   21.1760   31.7680 C   0  0  0  0  0  0  0  0  0  0  0  0
   36.3560   22.0680   30.9910 C   0  0  0  0  0  0  0  0  0  0  0  0
   37.2930   22.8530   31.6450 C   0  0  0  0  0  0  0  0  0  0  0  0
   37.5050   22.7470   33.0150 C   0  0  0  0  0  0  0  0  0  0  0  0
   36.7910   21.8580   33.7690 C   0  0  0  0  0  0  0  0  0  0  0  0
   39.9792   23.8010   38.7226 H   0  0  0  0  0  0  0  0  0  0  0  0
   37.4751   24.0999   38.8667 H   0  0  0  0  0  0  0  0  0  0  0  0
   41.5159   20.4247   37.7537 H   0  0  0  0  0  0  0  0  0  0  0  0
   42.6420   26.0603   34.4853 H   0  0  0  0  0  0  0  0  0  0  0  0
   46.3993   23.4211   35.1882 H   0  0  0  0  0  0  0  0  0  0  0  0
   45.8443   21.9772   36.0767 H   0  0  0  0  0  0  0  0  0  0  0  0
   35.5960   20.0878   36.2343 H   0  0  0  0  0  0  0  0  0  0  0  0
   34.5417   19.5729   33.9278 H   0  0  0  0  0  0  0  0  0  0  0  0
   34.8907   20.5355   31.2860 H   0  0  0  0  0  0  0  0  0  0  0  0
   36.1881   22.1516   29.9071 H   0  0  0  0  0  0  0  0  0  0  0  0
   37.8835   23.5779   31.0655 H   0  0  0  0  0  0  0  0  0  0  0  0
   38.2575   23.3872   33.4987 H   0  0  0  0  0  0  0  0  0  0  0  0
  1  2  2  0
  2  3  1  0
  4  3  2  0
  5  4  1  0
  6  5  2  0
  6  1  1  0
  7  1  1  0
  7  8  1  0
  9  8  2  0
 10  9  1  0
 11 16  1  0
 11 10  2  0
 12 11  1  0
 13 12  2  0
 13 14  1  0
 14 15  2  0
 15 10  1  0
 15  7  1  0
 17 18  2  0
 17  5  1  0
 19 18  1  0
 20 25  2  0
 20 19  1  0
 21 20  1  0
 22 23  1  0
 22 21  2  0
 23 24  2  0
 24 25  1  0
 25 17  1  0
  2 26  1  0
  3 27  1  0
  8 28  1  0
 13 29  1  0
 16 30  1  0
 16 31  1  0
 18 32  1  0
 19 33  1  0
 21 34  1  0
 22 35  1  0
 23 36  1  0
 24 37  1  0
M  ISO  8  26  14  27  14  28  14  29  14  32  14  33   9  34  14  35  14
M  ISO  2  36  14  37  14
M  END
>  <minimizedAffinity>  (1) 
-5.7483387

>  <minimizedRMSD>  (1) 
1.30537355

$$$$
