
     RDKit          3D

 30 33  0  0  0  0  0  0  0  0999 V2000
   39.7160   22.5360   36.8190 C   0  0  0  0  0  0  0  0  0  0  0  0
   39.1590   23.2300   37.9170 C   0  0  0  0  0  0  0  0  0  0  0  0
   37.7710   23.3560   37.9720 C   0  0  0  0  0  0  0  0  0  0  0  0
   37.0340   22.8110   36.9790 N   0  0  0  0  0  0  0  0  0  0  0  0
   37.5950   22.1500   35.9370 C   0  0  0  0  0  0  0  0  0  0  0  0
   38.9420   22.0220   35.8710 N   0  0  0  0  0  0  0  0  0  0  0  0
   36.8370   21.5680   34.8810 N   0  0  0  0  0  0  0  0  0  0  0  0
   37.2360   21.9140   33.6480 N   0  0  0  0  0  0  0  0  0  0  0  0
   36.4540   21.3110   32.7400 C   0  0  0  0  0  0  0  0  0  0  0  0
   35.5300   20.5580   33.4500 C   0  0  0  0  0  0  0  0  0  0  0  0
   35.7710   20.7220   34.7920 C   0  0  0  0  0  0  0  0  0  0  0  0
   41.1400   22.3710   36.7000 N   0  0  0  0  0  0  0  0  0  0  0  0
   41.8520   21.3200   37.1670 C   0  0  0  0  0  0  0  0  0  0  0  0
   43.1510   21.5630   36.8460 N   0  0  0  0  0  0  0  0  0  0  0  0
   43.2110   22.7350   36.2000 C   0  0  0  0  0  0  0  0  0  0  0  0
   44.2180   23.4960   35.6400 C   0  0  0  0  0  0  0  0  0  0  0  0
   43.9660   24.6940   35.0250 N   0  0  0  0  0  0  0  0  0  0  0  0
   42.6890   25.1630   34.9560 C   0  0  0  0  0  0  0  0  0  0  0  0
   41.6680   24.4480   35.4940 N   0  0  0  0  0  0  0  0  0  0  0  0
   41.9490   23.2850   36.0850 C   0  0  0  0  0  0  0  0  0  0  0  0
   45.5560   23.0410   35.6900 N   0  0  0  0  0  0  0  0  0  0  0  0
   39.7994   23.6570   38.7028 H   0  0  0  0  0  0  0  0  0  0  0  0
   37.2871   23.8871   38.8050 H   0  0  0  0  0  0  0  0  0  0  0  0
   36.5304   21.3968   31.6460 H   0  0  0  0  0  0  0  0  0  0  0  0
   34.7372   19.9342   33.0115 H   0  0  0  0  0  0  0  0  0  0  0  0
   35.2173   20.2644   35.6251 H   0  0  0  0  0  0  0  0  0  0  0  0
   41.4583   20.4425   37.7008 H   0  0  0  0  0  0  0  0  0  0  0  0
   42.4843   26.1246   34.4626 H   0  0  0  0  0  0  0  0  0  0  0  0
   46.3085   23.6073   35.2728 H   0  0  0  0  0  0  0  0  0  0  0  0
   45.7781   22.1433   36.1436 H   0  0  0  0  0  0  0  0  0  0  0  0
  1  2  2  0
  2  3  1  0
  4  3  2  0
  5  4  1  0
  6  5  2  0
  6  1  1  0
  7  5  1  0
  8  7  1  0
  9 10  1  0
  9  8  2  0
 10 11  2  0
 11  7  1  0
 12  1  1  0
 12 13  1  0
 14 13  2  0
 15 14  1  0
 16 21  1  0
 16 15  2  0
 17 16  1  0
 18 17  2  0
 18 19  1  0
 19 20  2  0
 20 15  1  0
 20 12  1  0
  2 22  1  0
  3 23  1  0
  9 24  1  0
 10 25  1  0
 11 26  1  0
 13 27  1  0
 18 28  1  0
 21 29  1  0
 21 30  1  0
M  ISO  7  22  14  23  14  24  14  25  14  26  14  27  14  28  14
M  END
>  <minimizedAffinity>  (1) 
-5.39390326

>  <minimizedRMSD>  (1) 
1.26764083

$$$$
