
     RDKit          3D

 33 36  0  0  0  0  0  0  0  0999 V2000
   39.8190   22.5270   36.7500 C   0  0  0  0  0  0  0  0  0  0  0  0
   39.2010   23.1340   37.8620 C   0  0  0  0  0  0  0  0  0  0  0  0
   37.8080   23.2760   37.8500 C   0  0  0  0  0  0  0  0  0  0  0  0
   37.1280   22.8230   36.7700 N   0  0  0  0  0  0  0  0  0  0  0  0
   37.7400   22.2440   35.7140 C   0  0  0  0  0  0  0  0  0  0  0  0
   39.0900   22.0980   35.7080 N   0  0  0  0  0  0  0  0  0  0  0  0
   41.2390   22.3470   36.6880 N   0  0  0  0  0  0  0  0  0  0  0  0
   41.9100   21.2750   37.1520 C   0  0  0  0  0  0  0  0  0  0  0  0
   43.2210   21.5000   36.8980 N   0  0  0  0  0  0  0  0  0  0  0  0
   43.3400   22.6860   36.2910 C   0  0  0  0  0  0  0  0  0  0  0  0
   44.3750   23.4460   35.7990 C   0  0  0  0  0  0  0  0  0  0  0  0
   44.1720   24.6650   35.2100 N   0  0  0  0  0  0  0  0  0  0  0  0
   42.9070   25.1550   35.1010 C   0  0  0  0  0  0  0  0  0  0  0  0
   41.8570   24.4490   35.5680 N   0  0  0  0  0  0  0  0  0  0  0  0
   42.0860   23.2490   36.1440 C   0  0  0  0  0  0  0  0  0  0  0  0
   45.7090   22.9660   35.8950 N   0  0  0  0  0  0  0  0  0  0  0  0
   36.9960   21.7600   34.5550 C   0  0  0  0  0  0  0  0  0  0  0  0
   37.2900   22.3000   33.3000 C   0  0  0  0  0  0  0  0  0  0  0  0
   36.6200   21.8780   32.1770 C   0  0  0  0  0  0  0  0  0  0  0  0
   35.6430   20.9080   32.2880 C   0  0  0  0  0  0  0  0  0  0  0  0
   35.3330   20.3560   33.5230 C   0  0  0  0  0  0  0  0  0  0  0  0
   36.0100   20.7800   34.6720 C   0  0  0  0  0  0  0  0  0  0  0  0
   39.7972   23.4868   38.7165 H   0  0  0  0  0  0  0  0  0  0  0  0
   37.2804   23.7428   38.6948 H   0  0  0  0  0  0  0  0  0  0  0  0
   41.4775   20.3899   37.6415 H   0  0  0  0  0  0  0  0  0  0  0  0
   42.7397   26.1342   34.6285 H   0  0  0  0  0  0  0  0  0  0  0  0
   46.4875   23.5317   35.5279 H   0  0  0  0  0  0  0  0  0  0  0  0
   45.8974   22.0524   36.3317 H   0  0  0  0  0  0  0  0  0  0  0  0
   38.0677   23.0727   33.2100 H   0  0  0  0  0  0  0  0  0  0  0  0
   36.8605   22.3105   31.1946 H   0  0  0  0  0  0  0  0  0  0  0  0
   35.1059   20.5700   31.3895 H   0  0  0  0  0  0  0  0  0  0  0  0
   34.5535   19.5836   33.5989 H   0  0  0  0  0  0  0  0  0  0  0  0
   35.7681   20.3466   35.6537 H   0  0  0  0  0  0  0  0  0  0  0  0
  1  2  2  0
  3  2  1  0
  4  3  2  0
  5  4  1  0
  6  5  2  0
  6  1  1  0
  7  1  1  0
  7  8  1  0
  9  8  2  0
 10  9  1  0
 11 16  1  0
 11 10  2  0
 12 11  1  0
 13 12  2  0
 13 14  1  0
 14 15  2  0
 15 10  1  0
 15  7  1  0
 17 22  1  0
 17  5  1  0
 18 17  2  0
 19 20  2  0
 19 18  1  0
 20 21  1  0
 21 22  2  0
  2 23  1  0
  3 24  1  0
  8 25  1  0
 13 26  1  0
 16 27  1  0
 16 28  1  0
 18 29  1  0
 19 30  1  0
 20 31  1  0
 21 32  1  0
 22 33  1  0
M  ISO  8  23  14  24  14  25  14  26  14  29  14  30  14  31  14  32  14
M  ISO  1  33  14
M  END
>  <minimizedAffinity>  (1) 
-5.38029909

>  <minimizedRMSD>  (1) 
1.43186212

$$$$
