
     RDKit          3D

 32 34  0  0  0  0  0  0  0  0999 V2000
   39.3450   25.3960   34.4870 N   0  0  0  0  0  0  0  0  0  0  0  0
   40.4960   26.0920   34.4840 C   0  0  0  0  0  0  0  0  0  0  0  0
   40.8050   26.8400   33.3450 C   0  0  0  0  0  0  0  0  0  0  0  0
   39.9340   26.8470   32.2760 C   0  0  0  0  0  0  0  0  0  0  0  0
   40.1160   27.4830   31.2180 O   0  0  0  0  0  0  0  0  0  0  0  0
   38.7800   26.1330   32.3150 N   0  0  0  0  0  0  0  0  0  0  0  0
   38.5030   25.4160   33.4290 C   0  0  0  0  0  0  0  0  0  0  0  0
   37.4480   24.7520   33.4830 O   0  0  0  0  0  0  0  0  0  0  0  0
   38.2090   25.2140   36.6100 C   0  0  0  0  0  0  0  0  0  0  0  0
   39.1110   24.6670   35.6730 C   0  0  0  0  0  0  0  0  0  0  0  0
   39.6980   23.4580   35.9820 C   0  0  0  0  0  0  0  0  0  0  0  0
   39.3680   22.8640   37.1790 N   0  0  0  0  0  0  0  0  0  0  0  0
   38.5110   23.4050   38.0490 C   0  0  0  0  0  0  0  0  0  0  0  0
   37.9320   24.5840   37.7580 N   0  0  0  0  0  0  0  0  0  0  0  0
   38.3740   22.5700   39.1900 N   0  0  0  0  0  0  0  0  0  0  0  0
   42.0500   27.6540   33.2140 C   0  0  0  0  0  0  0  0  0  0  0  0
   43.2370   26.8270   33.2450 N   0  0  0  0  0  0  0  0  0  0  0  0
   44.1330   27.0640   34.2150 N   0  0  0  0  0  0  0  0  0  0  0  0
   45.1200   26.1700   34.0160 C   0  0  0  0  0  0  0  0  0  0  0  0
   44.8270   25.3850   32.9280 C   0  0  0  0  0  0  0  0  0  0  0  0
   43.6100   25.8200   32.4380 C   0  0  0  0  0  0  0  0  0  0  0  0
   41.1727   26.0729   35.3510 H   0  0  0  0  0  0  0  0  0  0  0  0
   38.1305   26.1368   31.5156 H   0  0  0  0  0  0  0  0  0  0  0  0
   37.7239   26.1771   36.3928 H   0  0  0  0  0  0  0  0  0  0  0  0
   40.4097   22.9819   35.2915 H   0  0  0  0  0  0  0  0  0  0  0  0
   37.7459   22.8465   39.9581 H   0  0  0  0  0  0  0  0  0  0  0  0
   38.9027   21.6881   39.2492 H   0  0  0  0  0  0  0  0  0  0  0  0
   42.0948   28.3729   34.0454 H   0  0  0  0  0  0  0  0  0  0  0  0
   42.0194   28.1730   32.2446 H   0  0  0  0  0  0  0  0  0  0  0  0
   46.0263   26.0816   34.6332 H   0  0  0  0  0  0  0  0  0  0  0  0
   45.4423   24.5675   32.5242 H   0  0  0  0  0  0  0  0  0  0  0  0
   43.0622   25.4247   31.5699 H   0  0  0  0  0  0  0  0  0  0  0  0
  1 10  1  0
  2  1  1  0
  3  2  2  0
  4  6  1  0
  4  3  1  0
  5  4  2  0
  6  7  1  0
  7  8  2  0
  7  1  1  0
  9 14  2  0
 10 11  2  0
 10  9  1  0
 11 12  1  0
 12 13  2  0
 13 15  1  0
 14 13  1  0
 16 17  1  0
 16  3  1  0
 17 18  1  0
 19 18  2  0
 20 19  1  0
 21 20  2  0
 21 17  1  0
  2 22  1  0
  6 23  1  0
  9 24  1  0
 11 25  1  0
 15 26  1  0
 15 27  1  0
 16 28  1  0
 16 29  1  0
 19 30  1  0
 20 31  1  0
 21 32  1  0
M  ISO  8  22  14  23   9  24  14  25  14  28   8  29   8  30  14  31  14
M  ISO  1  32  14
M  END
>  <minimizedAffinity>  (1) 
-4.38780689

>  <minimizedRMSD>  (1) 
0.9388116

$$$$
