
     RDKit          3D

 35 38  0  0  0  0  0  0  0  0999 V2000
   41.1790   22.3410   36.6930 N   0  0  0  0  0  0  0  0  0  0  0  0
   41.8880   21.2920   37.1580 C   0  0  0  0  0  0  0  0  0  0  0  0
   43.1960   21.5530   36.8740 N   0  0  0  0  0  0  0  0  0  0  0  0
   43.2650   22.7250   36.2550 C   0  0  0  0  0  0  0  0  0  0  0  0
   44.2770   23.5120   35.7320 C   0  0  0  0  0  0  0  0  0  0  0  0
   44.0380   24.7220   35.1300 N   0  0  0  0  0  0  0  0  0  0  0  0
   42.7640   25.1820   35.0350 C   0  0  0  0  0  0  0  0  0  0  0  0
   41.7390   24.4540   35.5290 N   0  0  0  0  0  0  0  0  0  0  0  0
   42.0040   23.2710   36.1150 C   0  0  0  0  0  0  0  0  0  0  0  0
   39.7620   22.5030   36.7670 C   0  0  0  0  0  0  0  0  0  0  0  0
   39.1500   23.1600   37.8480 C   0  0  0  0  0  0  0  0  0  0  0  0
   37.7570   23.2900   37.8660 C   0  0  0  0  0  0  0  0  0  0  0  0
   37.0680   22.7610   36.8180 N   0  0  0  0  0  0  0  0  0  0  0  0
   37.6800   22.1340   35.7900 C   0  0  0  0  0  0  0  0  0  0  0  0
   39.0230   22.0000   35.7550 N   0  0  0  0  0  0  0  0  0  0  0  0
   36.8860   21.6110   34.7330 N   0  0  0  0  0  0  0  0  0  0  0  0
   35.6700   20.8510   34.8670 C   0  0  0  0  0  0  0  0  0  0  0  0
   35.5900   19.9810   33.6160 C   0  0  0  0  0  0  0  0  0  0  0  0
   36.4850   20.6160   32.6020 C   0  0  0  0  0  0  0  0  0  0  0  0
   37.1530   21.7450   33.3150 C   0  0  0  0  0  0  0  0  0  0  0  0
   45.6170   23.0570   35.8030 N   0  0  0  0  0  0  0  0  0  0  0  0
   41.4896   20.4015   37.6662 H   0  0  0  0  0  0  0  0  0  0  0  0
   42.5659   26.1512   34.5539 H   0  0  0  0  0  0  0  0  0  0  0  0
   39.7582   23.5668   38.6694 H   0  0  0  0  0  0  0  0  0  0  0  0
   37.2400   23.7987   38.6930 H   0  0  0  0  0  0  0  0  0  0  0  0
   35.7070   20.2233   35.7695 H   0  0  0  0  0  0  0  0  0  0  0  0
   34.7905   21.5042   34.9654 H   0  0  0  0  0  0  0  0  0  0  0  0
   35.9331   18.9602   33.8401 H   0  0  0  0  0  0  0  0  0  0  0  0
   34.5566   19.9090   33.2460 H   0  0  0  0  0  0  0  0  0  0  0  0
   35.8973   20.9918   31.7515 H   0  0  0  0  0  0  0  0  0  0  0  0
   37.2144   19.9004   32.1947 H   0  0  0  0  0  0  0  0  0  0  0  0
   38.2377   21.7079   33.1359 H   0  0  0  0  0  0  0  0  0  0  0  0
   36.7667   22.7067   32.9464 H   0  0  0  0  0  0  0  0  0  0  0  0
   46.3780   23.6341   35.4172 H   0  0  0  0  0  0  0  0  0  0  0  0
   45.8301   22.1492   36.2404 H   0  0  0  0  0  0  0  0  0  0  0  0
  1 10  1  0
  1  2  1  0
  3  2  2  0
  4  3  1  0
  5 21  1  0
  5  4  2  0
  6  5  1  0
  7  6  2  0
  7  8  1  0
  8  9  2  0
  9  4  1  0
  9  1  1  0
 10 11  2  0
 11 12  1  0
 13 12  2  0
 14 13  1  0
 15 14  2  0
 15 10  1  0
 16 17  1  0
 16 14  1  0
 18 17  1  0
 19 20  1  0
 19 18  1  0
 20 16  1  0
  2 22  1  0
  7 23  1  0
 11 24  1  0
 12 25  1  0
 17 26  1  0
 17 27  1  0
 18 28  1  0
 18 29  1  0
 19 30  1  0
 19 31  1  0
 20 32  1  0
 20 33  1  0
 21 34  1  0
 21 35  1  0
M  ISO  8  22  14  23  14  24  14  25  14  26  13  27  13  28  13  29  13
M  ISO  4  30  13  31  13  32  13  33  13
M  END
>  <minimizedAffinity>  (1) 
-5.30510664

>  <minimizedRMSD>  (1) 
1.29783559

$$$$
