
     RDKit          3D

 36 39  0  0  0  0  0  0  0  0999 V2000
   40.5830   23.9870   35.5490 N   0  0  0  0  0  0  0  0  0  0  0  0
   41.7860   23.5090   35.9320 C   0  0  0  0  0  0  0  0  0  0  0  0
   42.7150   24.4160   35.5000 N   0  0  0  0  0  0  0  0  0  0  0  0
   42.0800   25.4010   34.8800 C   0  0  0  0  0  0  0  0  0  0  0  0
   42.4530   26.5740   34.2470 C   0  0  0  0  0  0  0  0  0  0  0  0
   41.5540   27.4290   33.6770 N   0  0  0  0  0  0  0  0  0  0  0  0
   40.2280   27.1250   33.7280 C   0  0  0  0  0  0  0  0  0  0  0  0
   39.8110   25.9890   34.3370 N   0  0  0  0  0  0  0  0  0  0  0  0
   40.7290   25.1670   34.8900 C   0  0  0  0  0  0  0  0  0  0  0  0
   39.3240   23.3690   35.7840 C   0  0  0  0  0  0  0  0  0  0  0  0
   38.6660   23.4790   37.0400 C   0  0  0  0  0  0  0  0  0  0  0  0
   37.4260   22.8360   37.1810 C   0  0  0  0  0  0  0  0  0  0  0  0
   36.9200   22.1520   36.1340 N   0  0  0  0  0  0  0  0  0  0  0  0
   37.5670   22.0590   34.9430 C   0  0  0  0  0  0  0  0  0  0  0  0
   38.7640   22.6760   34.7940 N   0  0  0  0  0  0  0  0  0  0  0  0
   37.0020   21.3100   33.8170 C   0  0  0  0  0  0  0  0  0  0  0  0
   35.6810   20.6530   34.1340 C   0  0  0  0  0  0  0  0  0  0  0  0
   35.2950   20.1520   32.7340 C   0  0  0  0  0  0  0  0  0  0  0  0
   35.8800   21.1610   31.7770 C   0  0  0  0  0  0  0  0  0  0  0  0
   36.5940   22.1750   32.6460 C   0  0  0  0  0  0  0  0  0  0  0  0
   43.8270   26.9230   34.1740 N   0  0  0  0  0  0  0  0  0  0  0  0
   41.9806   22.5763   36.4818 H   0  0  0  0  0  0  0  0  0  0  0  0
   39.4923   27.8044   33.2729 H   0  0  0  0  0  0  0  0  0  0  0  0
   39.1120   24.0467   37.8700 H   0  0  0  0  0  0  0  0  0  0  0  0
   36.8749   22.8891   38.1315 H   0  0  0  0  0  0  0  0  0  0  0  0
   37.8221   20.6107   33.5970 H   0  0  0  0  0  0  0  0  0  0  0  0
   35.7974   19.8239   34.8474 H   0  0  0  0  0  0  0  0  0  0  0  0
   34.9393   21.3080   34.6145 H   0  0  0  0  0  0  0  0  0  0  0  0
   35.7207   19.1545   32.5504 H   0  0  0  0  0  0  0  0  0  0  0  0
   34.2052   20.0585   32.6170 H   0  0  0  0  0  0  0  0  0  0  0  0
   35.0826   21.6466   31.1953 H   0  0  0  0  0  0  0  0  0  0  0  0
   36.5623   20.6903   31.0539 H   0  0  0  0  0  0  0  0  0  0  0  0
   37.4691   22.6017   32.1340 H   0  0  0  0  0  0  0  0  0  0  0  0
   35.9853   23.0501   32.9174 H   0  0  0  0  0  0  0  0  0  0  0  0
   44.1128   27.7942   33.7047 H   0  0  0  0  0  0  0  0  0  0  0  0
   44.5381   26.3051   34.5903 H   0  0  0  0  0  0  0  0  0  0  0  0
  1 10  1  0
  1  2  1  0
  3  2  2  0
  4  9  2  0
  4  3  1  0
  5  4  1  0
  6  7  1  0
  6  5  2  0
  7  8  2  0
  8  9  1  0
  9  1  1  0
 10 11  2  0
 11 12  1  0
 13 12  2  0
 14 13  1  0
 15 14  2  0
 15 10  1  0
 16 17  1  0
 16 14  1  0
 18 17  1  0
 19 20  1  0
 19 18  1  0
 20 16  1  0
 21  5  1  0
  2 22  1  0
  7 23  1  0
 11 24  1  0
 12 25  1  0
 16 26  1  0
 17 27  1  0
 17 28  1  0
 18 29  1  0
 18 30  1  0
 19 31  1  0
 19 32  1  0
 20 33  1  0
 20 34  1  0
 21 35  1  0
 21 36  1  0
M  ISO  8  22  14  23  14  24  14  25  14  26  13  27  13  28  13  29  13
M  ISO  5  30  13  31  13  32  13  33  13  34  13
M  END
>  <minimizedAffinity>  (1) 
-5.09722757

>  <minimizedRMSD>  (1) 
1.27796912

$$$$
