
     RDKit          3D

 32 34  0  0  0  0  0  0  0  0999 V2000
   39.3370   25.4030   34.4980 N   0  0  0  0  0  0  0  0  0  0  0  0
   40.4970   26.1010   34.4970 C   0  0  0  0  0  0  0  0  0  0  0  0
   40.8200   26.8430   33.3620 C   0  0  0  0  0  0  0  0  0  0  0  0
   39.9480   26.8420   32.2830 C   0  0  0  0  0  0  0  0  0  0  0  0
   40.1760   27.4890   31.2310 O   0  0  0  0  0  0  0  0  0  0  0  0
   38.8060   26.1350   32.3280 N   0  0  0  0  0  0  0  0  0  0  0  0
   38.5240   25.4300   33.4360 C   0  0  0  0  0  0  0  0  0  0  0  0
   37.4660   24.7740   33.4770 O   0  0  0  0  0  0  0  0  0  0  0  0
   38.2040   25.2060   36.6130 C   0  0  0  0  0  0  0  0  0  0  0  0
   39.0960   24.6860   35.6820 C   0  0  0  0  0  0  0  0  0  0  0  0
   39.6960   23.4700   35.9940 C   0  0  0  0  0  0  0  0  0  0  0  0
   39.3860   22.8540   37.1820 N   0  0  0  0  0  0  0  0  0  0  0  0
   38.5180   23.4000   38.0470 C   0  0  0  0  0  0  0  0  0  0  0  0
   37.9270   24.5840   37.7540 N   0  0  0  0  0  0  0  0  0  0  0  0
   38.3740   22.5700   39.1910 N   0  0  0  0  0  0  0  0  0  0  0  0
   42.0880   27.6460   33.2720 C   0  0  0  0  0  0  0  0  0  0  0  0
   43.2490   26.7710   33.4090 N   0  0  0  0  0  0  0  0  0  0  0  0
   43.5380   25.8760   32.4230 C   0  0  0  0  0  0  0  0  0  0  0  0
   44.6580   25.1860   32.7930 C   0  0  0  0  0  0  0  0  0  0  0  0
   45.0400   25.6570   33.9830 N   0  0  0  0  0  0  0  0  0  0  0  0
   44.1840   26.6220   34.3620 C   0  0  0  0  0  0  0  0  0  0  0  0
   41.1672   26.0831   35.3691 H   0  0  0  0  0  0  0  0  0  0  0  0
   38.1584   26.1338   31.5270 H   0  0  0  0  0  0  0  0  0  0  0  0
   37.7106   26.1653   36.3976 H   0  0  0  0  0  0  0  0  0  0  0  0
   40.4104   23.0072   35.2973 H   0  0  0  0  0  0  0  0  0  0  0  0
   37.7399   22.8490   39.9532 H   0  0  0  0  0  0  0  0  0  0  0  0
   38.9037   21.6892   39.2582 H   0  0  0  0  0  0  0  0  0  0  0  0
   42.1284   28.1535   32.2969 H   0  0  0  0  0  0  0  0  0  0  0  0
   42.1008   28.3894   34.0827 H   0  0  0  0  0  0  0  0  0  0  0  0
   42.9693   25.7338   31.4922 H   0  0  0  0  0  0  0  0  0  0  0  0
   45.1532   24.3901   32.2174 H   0  0  0  0  0  0  0  0  0  0  0  0
   44.2401   27.1956   35.2990 H   0  0  0  0  0  0  0  0  0  0  0  0
  1 10  1  0
  2  1  1  0
  3  2  2  0
  4  6  1  0
  4  3  1  0
  5  4  2  0
  6  7  1  0
  7  8  2  0
  7  1  1  0
  9 14  2  0
 10 11  2  0
 10  9  1  0
 11 12  1  0
 12 13  2  0
 13 15  1  0
 14 13  1  0
 16  3  1  0
 16 17  1  0
 17 21  1  0
 18 19  2  0
 18 17  1  0
 19 20  1  0
 20 21  2  0
  2 22  1  0
  6 23  1  0
  9 24  1  0
 11 25  1  0
 15 26  1  0
 15 27  1  0
 16 28  1  0
 16 29  1  0
 18 30  1  0
 19 31  1  0
 21 32  1  0
M  ISO  8  22  14  23   9  24  14  25  14  28   8  29   8  30  14  31  14
M  ISO  1  32  14
M  END
>  <minimizedAffinity>  (1) 
-4.37177181

>  <minimizedRMSD>  (1) 
1.08377099

$$$$
