
     RDKit          3D

 28 31  0  0  0  0  0  0  0  0999 V2000
   41.1240   22.3980   36.7340 N   0  0  0  0  0  0  0  0  0  0  0  0
   41.8470   21.3340   37.1750 C   0  0  0  0  0  0  0  0  0  0  0  0
   43.1410   21.5620   36.8190 N   0  0  0  0  0  0  0  0  0  0  0  0
   43.1960   22.7360   36.1770 C   0  0  0  0  0  0  0  0  0  0  0  0
   44.1820   23.4960   35.5890 C   0  0  0  0  0  0  0  0  0  0  0  0
   43.9320   24.6990   34.9870 N   0  0  0  0  0  0  0  0  0  0  0  0
   42.6610   25.1730   34.9610 C   0  0  0  0  0  0  0  0  0  0  0  0
   41.6590   24.4710   35.5200 N   0  0  0  0  0  0  0  0  0  0  0  0
   41.9320   23.2840   36.1100 C   0  0  0  0  0  0  0  0  0  0  0  0
   39.7240   22.5720   36.8940 C   0  0  0  0  0  0  0  0  0  0  0  0
   39.1930   23.3170   37.9900 C   0  0  0  0  0  0  0  0  0  0  0  0
   37.8030   23.4430   38.0810 C   0  0  0  0  0  0  0  0  0  0  0  0
   37.0400   22.8560   37.1260 N   0  0  0  0  0  0  0  0  0  0  0  0
   37.5700   22.1570   36.0980 C   0  0  0  0  0  0  0  0  0  0  0  0
   38.9140   22.0240   35.9950 N   0  0  0  0  0  0  0  0  0  0  0  0
   36.7540   21.5220   35.0690 C   0  0  0  0  0  0  0  0  0  0  0  0
   35.6490   20.7550   34.9880 N   0  0  0  0  0  0  0  0  0  0  0  0
   35.4000   20.4960   33.7400 O   0  0  0  0  0  0  0  0  0  0  0  0
   36.2950   21.0590   32.9600 C   0  0  0  0  0  0  0  0  0  0  0  0
   37.1600   21.7120   33.7800 N   0  0  0  0  0  0  0  0  0  0  0  0
   45.5240   23.0180   35.6060 N   0  0  0  0  0  0  0  0  0  0  0  0
   41.4604   20.4574   37.7156 H   0  0  0  0  0  0  0  0  0  0  0  0
   42.4483   26.1387   34.4791 H   0  0  0  0  0  0  0  0  0  0  0  0
   39.8553   23.7768   38.7383 H   0  0  0  0  0  0  0  0  0  0  0  0
   37.3405   24.0041   38.9064 H   0  0  0  0  0  0  0  0  0  0  0  0
   36.3360   21.0113   31.8618 H   0  0  0  0  0  0  0  0  0  0  0  0
   46.2742   23.5737   35.1708 H   0  0  0  0  0  0  0  0  0  0  0  0
   45.7441   22.1168   36.0535 H   0  0  0  0  0  0  0  0  0  0  0  0
  1 10  1  0
  1  2  1  0
  3  2  2  0
  4  3  1  0
  5 21  1  0
  5  4  2  0
  6  5  1  0
  7  6  2  0
  7  8  1  0
  8  9  2  0
  9  4  1  0
  9  1  1  0
 10 11  2  0
 11 12  1  0
 13 12  2  0
 14 13  1  0
 15 14  2  0
 15 10  1  0
 16 14  1  0
 17 16  2  0
 18 17  1  0
 19 18  1  0
 19 20  2  0
 20 16  1  0
  2 22  1  0
  7 23  1  0
 11 24  1  0
 12 25  1  0
 19 26  1  0
 21 27  1  0
 21 28  1  0
M  ISO  5  22  14  23  14  24  14  25  14  26  14
M  END
>  <minimizedAffinity>  (1) 
-4.93713474

>  <minimizedRMSD>  (1) 
1.38071775

$$$$
