
     RDKit          3D

 35 37  0  0  0  0  0  0  0  0999 V2000
   41.3660   22.6940   36.6480 N   0  0  0  0  0  0  0  0  0  0  0  0
   41.5480   21.3780   36.9470 C   0  0  0  0  0  0  0  0  0  0  0  0
   42.8650   21.1110   36.7230 N   0  0  0  0  0  0  0  0  0  0  0  0
   43.4510   22.2270   36.3060 C   0  0  0  0  0  0  0  0  0  0  0  0
   44.7310   22.6100   35.9220 C   0  0  0  0  0  0  0  0  0  0  0  0
   45.0440   23.8760   35.5270 N   0  0  0  0  0  0  0  0  0  0  0  0
   44.0720   24.8230   35.4990 C   0  0  0  0  0  0  0  0  0  0  0  0
   42.8100   24.5080   35.8600 N   0  0  0  0  0  0  0  0  0  0  0  0
   42.5300   23.2500   36.2460 C   0  0  0  0  0  0  0  0  0  0  0  0
   40.1270   23.3990   36.7410 C   0  0  0  0  0  0  0  0  0  0  0  0
   39.1600   23.0610   37.7210 C   0  0  0  0  0  0  0  0  0  0  0  0
   37.9730   23.8050   37.7400 C   0  0  0  0  0  0  0  0  0  0  0  0
   37.8160   24.8070   36.8220 N   0  0  0  0  0  0  0  0  0  0  0  0
   38.7650   25.1000   35.9000 C   0  0  0  0  0  0  0  0  0  0  0  0
   39.9210   24.3940   35.8620 N   0  0  0  0  0  0  0  0  0  0  0  0
   38.5550   26.1950   34.9220 C   0  0  0  0  0  0  0  0  0  0  0  0
   39.9200   26.5810   34.3970 C   0  0  0  0  0  0  0  0  0  0  0  0
   38.0150   27.4450   35.6120 C   0  0  0  0  0  0  0  0  0  0  0  0
   37.6000   25.8470   33.8210 C   0  0  0  0  0  0  0  0  0  0  0  0
   45.7580   21.6280   35.9320 N   0  0  0  0  0  0  0  0  0  0  0  0
   40.7830   20.6706   37.2996 H   0  0  0  0  0  0  0  0  0  0  0  0
   44.3129   25.8483   35.1818 H   0  0  0  0  0  0  0  0  0  0  0  0
   39.3349   22.2460   38.4388 H   0  0  0  0  0  0  0  0  0  0  0  0
   37.1851   23.5883   38.4764 H   0  0  0  0  0  0  0  0  0  0  0  0
   40.5973   26.7725   35.2424 H   0  0  0  0  0  0  0  0  0  0  0  0
   40.3221   25.7613   33.7834 H   0  0  0  0  0  0  0  0  0  0  0  0
   39.8333   27.4899   33.7834 H   0  0  0  0  0  0  0  0  0  0  0  0
   38.0712   27.3149   36.7028 H   0  0  0  0  0  0  0  0  0  0  0  0
   38.6168   28.3166   35.3152 H   0  0  0  0  0  0  0  0  0  0  0  0
   36.9678   27.6042   35.3152 H   0  0  0  0  0  0  0  0  0  0  0  0
   36.6504   25.5010   34.2551 H   0  0  0  0  0  0  0  0  0  0  0  0
   37.4168   26.7362   33.1998 H   0  0  0  0  0  0  0  0  0  0  0  0
   38.0318   25.0484   33.1998 H   0  0  0  0  0  0  0  0  0  0  0  0
   46.7163   21.8821   35.6526 H   0  0  0  0  0  0  0  0  0  0  0  0
   45.5442   20.6621   36.2187 H   0  0  0  0  0  0  0  0  0  0  0  0
  1 10  1  0
  1  2  1  0
  3  2  2  0
  4  3  1  0
  5 20  1  0
  5  4  2  0
  6  5  1  0
  7  6  2  0
  7  8  1  0
  8  9  2  0
  9  4  1  0
  9  1  1  0
 10 11  2  0
 11 12  1  0
 13 12  2  0
 14 13  1  0
 15 14  2  0
 15 10  1  0
 16 18  1  0
 16 14  1  0
 17 16  1  0
 19 16  1  0
  2 21  1  0
  7 22  1  0
 11 23  1  0
 12 24  1  0
 17 25  1  0
 17 26  1  0
 17 27  1  0
 18 28  1  0
 18 29  1  0
 18 30  1  0
 19 31  1  0
 19 32  1  0
 19 33  1  0
 20 34  1  0
 20 35  1  0
M  ISO  8  21  14  22  14  23  14  24  14  25   8  26   8  27   8  28   8
M  ISO  5  29   8  30   8  31   8  32   8  33   8
M  END
>  <minimizedAffinity>  (1) 
-4.76343298

>  <minimizedRMSD>  (1) 
3.37800503

$$$$
