
     RDKit          3D

 29 31  0  0  0  0  0  0  0  0999 V2000
   41.3270   22.5620   36.8380 N   0  0  0  0  0  0  0  0  0  0  0  0
   41.6060   21.2640   37.1210 C   0  0  0  0  0  0  0  0  0  0  0  0
   42.9070   21.0500   36.8150 N   0  0  0  0  0  0  0  0  0  0  0  0
   43.4120   22.2000   36.3530 C   0  0  0  0  0  0  0  0  0  0  0  0
   44.6460   22.6160   35.8900 C   0  0  0  0  0  0  0  0  0  0  0  0
   44.8730   23.9010   35.4680 N   0  0  0  0  0  0  0  0  0  0  0  0
   43.8580   24.8060   35.5010 C   0  0  0  0  0  0  0  0  0  0  0  0
   42.6360   24.4480   35.9450 N   0  0  0  0  0  0  0  0  0  0  0  0
   42.4380   23.1710   36.3560 C   0  0  0  0  0  0  0  0  0  0  0  0
   40.0750   23.2070   37.0110 C   0  0  0  0  0  0  0  0  0  0  0  0
   39.3280   23.0510   38.1920 C   0  0  0  0  0  0  0  0  0  0  0  0
   38.1020   23.7150   38.2990 C   0  0  0  0  0  0  0  0  0  0  0  0
   37.6920   24.4760   37.2600 N   0  0  0  0  0  0  0  0  0  0  0  0
   38.4300   24.6130   36.1290 C   0  0  0  0  0  0  0  0  0  0  0  0
   39.6230   23.9790   36.0010 N   0  0  0  0  0  0  0  0  0  0  0  0
   37.8690   25.4790   35.0580 C   0  0  0  0  0  0  0  0  0  0  0  0
   37.8890   26.9330   35.4310 C   0  0  0  0  0  0  0  0  0  0  0  0
   45.7250   21.7020   35.8420 N   0  0  0  0  0  0  0  0  0  0  0  0
   40.9027   20.5212   37.5255 H   0  0  0  0  0  0  0  0  0  0  0  0
   44.0353   25.8376   35.1630 H   0  0  0  0  0  0  0  0  0  0  0  0
   39.6997   22.4207   39.0133 H   0  0  0  0  0  0  0  0  0  0  0  0
   37.4868   23.6204   39.2059 H   0  0  0  0  0  0  0  0  0  0  0  0
   36.8285   25.1770   34.8679 H   0  0  0  0  0  0  0  0  0  0  0  0
   38.4944   25.3532   34.1619 H   0  0  0  0  0  0  0  0  0  0  0  0
   37.8903   27.0305   36.5267 H   0  0  0  0  0  0  0  0  0  0  0  0
   38.7937   27.4046   35.0198 H   0  0  0  0  0  0  0  0  0  0  0  0
   36.9976   27.4293   35.0198 H   0  0  0  0  0  0  0  0  0  0  0  0
   46.6456   22.0096   35.4973 H   0  0  0  0  0  0  0  0  0  0  0  0
   45.5899   20.7290   36.1517 H   0  0  0  0  0  0  0  0  0  0  0  0
  1 10  1  0
  1  2  1  0
  3  2  2  0
  4  9  2  0
  4  3  1  0
  5  4  1  0
  6  7  1  0
  6  5  2  0
  7  8  2  0
  8  9  1  0
  9  1  1  0
 10 11  2  0
 11 12  1  0
 13 12  2  0
 14 13  1  0
 15 14  2  0
 15 10  1  0
 16 17  1  0
 16 14  1  0
 18  5  1  0
  2 19  1  0
  7 20  1  0
 11 21  1  0
 12 22  1  0
 16 23  1  0
 16 24  1  0
 17 25  1  0
 17 26  1  0
 17 27  1  0
 18 28  1  0
 18 29  1  0
M  ISO  8  19  14  20  14  21  14  22  14  23   8  24   8  25   8  26   8
M  ISO  1  27   8
M  END
>  <minimizedAffinity>  (1) 
-4.30713272

>  <minimizedRMSD>  (1) 
2.8950882

$$$$
