
     RDKit          3D

 26 28  0  0  0  0  0  0  0  0999 V2000
   41.1620   23.4050   36.1140 N   0  0  0  0  0  0  0  0  0  0  0  0
   42.1720   22.6870   36.6350 C   0  0  0  0  0  0  0  0  0  0  0  0
   43.3250   23.3220   36.2990 N   0  0  0  0  0  0  0  0  0  0  0  0
   43.0170   24.3960   35.5920 C   0  0  0  0  0  0  0  0  0  0  0  0
   43.7170   25.4150   34.9730 C   0  0  0  0  0  0  0  0  0  0  0  0
   43.1040   26.4330   34.2770 N   0  0  0  0  0  0  0  0  0  0  0  0
   41.7480   26.4480   34.1860 C   0  0  0  0  0  0  0  0  0  0  0  0
   41.0090   25.4820   34.7670 N   0  0  0  0  0  0  0  0  0  0  0  0
   41.6470   24.4990   35.4430 C   0  0  0  0  0  0  0  0  0  0  0  0
   39.7730   23.1060   36.2200 C   0  0  0  0  0  0  0  0  0  0  0  0
   39.0600   23.3860   37.4220 C   0  0  0  0  0  0  0  0  0  0  0  0
   37.6910   23.0520   37.4210 C   0  0  0  0  0  0  0  0  0  0  0  0
   37.1360   22.4990   36.3170 N   0  0  0  0  0  0  0  0  0  0  0  0
   37.8500   22.2500   35.1960 C   0  0  0  0  0  0  0  0  0  0  0  0
   39.1630   22.5620   35.1740 N   0  0  0  0  0  0  0  0  0  0  0  0
   37.2800   21.6480   33.9710 C   0  0  0  0  0  0  0  0  0  0  0  0
   36.8170   22.6090   33.0650 F   0  0  0  0  0  0  0  0  0  0  0  0
   36.1970   20.8780   34.3540 F   0  0  0  0  0  0  0  0  0  0  0  0
   38.2120   20.9110   33.2730 F   0  0  0  0  0  0  0  0  0  0  0  0
   45.1310   25.4410   35.0380 N   0  0  0  0  0  0  0  0  0  0  0  0
   42.0820   21.7611   37.2220 H   0  0  0  0  0  0  0  0  0  0  0  0
   41.2485   27.2568   33.6325 H   0  0  0  0  0  0  0  0  0  0  0  0
   39.5493   23.8361   38.2984 H   0  0  0  0  0  0  0  0  0  0  0  0
   37.0760   23.2398   38.3134 H   0  0  0  0  0  0  0  0  0  0  0  0
   45.6539   26.1995   34.5773 H   0  0  0  0  0  0  0  0  0  0  0  0
   45.6369   24.7014   35.5459 H   0  0  0  0  0  0  0  0  0  0  0  0
  1 10  1  0
  1  2  1  0
  3  2  2  0
  4  3  1  0
  5 20  1  0
  5  4  2  0
  6  5  1  0
  7  6  2  0
  7  8  1  0
  8  9  2  0
  9  4  1  0
  9  1  1  0
 10 11  2  0
 12 11  1  0
 13 12  2  0
 14 13  1  0
 15 14  2  0
 15 10  1  0
 16 18  1  0
 16 14  1  0
 17 16  1  0
 19 16  1  0
  2 21  1  0
  7 22  1  0
 11 23  1  0
 12 24  1  0
 20 25  1  0
 20 26  1  0
M  ISO  4  21  14  22  14  23  14  24  14
M  END
>  <minimizedAffinity>  (1) 
-4.27162886

>  <minimizedRMSD>  (1) 
0.664381981

$$$$
