
     RDKit          3D

 24 26  0  0  0  0  0  0  0  0999 V2000
   41.1920   23.4140   36.0920 N   0  0  0  0  0  0  0  0  0  0  0  0
   42.2080   22.6860   36.6280 C   0  0  0  0  0  0  0  0  0  0  0  0
   43.3640   23.3190   36.2950 N   0  0  0  0  0  0  0  0  0  0  0  0
   43.0550   24.4040   35.5770 C   0  0  0  0  0  0  0  0  0  0  0  0
   43.7680   25.4120   34.9760 C   0  0  0  0  0  0  0  0  0  0  0  0
   43.1660   26.4190   34.2880 N   0  0  0  0  0  0  0  0  0  0  0  0
   41.8040   26.4450   34.1820 C   0  0  0  0  0  0  0  0  0  0  0  0
   41.0650   25.4730   34.7580 N   0  0  0  0  0  0  0  0  0  0  0  0
   41.6840   24.4950   35.4290 C   0  0  0  0  0  0  0  0  0  0  0  0
   39.8090   23.1130   36.1950 C   0  0  0  0  0  0  0  0  0  0  0  0
   39.0840   23.3820   37.3920 C   0  0  0  0  0  0  0  0  0  0  0  0
   37.7240   23.0570   37.4170 C   0  0  0  0  0  0  0  0  0  0  0  0
   37.1650   22.5030   36.3070 N   0  0  0  0  0  0  0  0  0  0  0  0
   37.8830   22.2610   35.1870 C   0  0  0  0  0  0  0  0  0  0  0  0
   39.2060   22.5680   35.1390 N   0  0  0  0  0  0  0  0  0  0  0  0
   37.1560   21.5330   33.7230 S   0  0  0  0  0  0  0  0  0  0  0  0
   45.1860   25.4250   35.0610 N   0  0  0  0  0  0  0  0  0  0  0  0
   42.1127   21.7624   37.2177 H   0  0  0  0  0  0  0  0  0  0  0  0
   41.3102   27.2569   33.6280 H   0  0  0  0  0  0  0  0  0  0  0  0
   39.5775   23.8302   38.2669 H   0  0  0  0  0  0  0  0  0  0  0  0
   37.1185   23.2454   38.3158 H   0  0  0  0  0  0  0  0  0  0  0  0
   36.2237   20.5994   34.0920 H   0  0  0  0  0  0  0  0  0  0  0  0
   45.7220   26.1805   34.6107 H   0  0  0  0  0  0  0  0  0  0  0  0
   45.6781   24.6789   35.5730 H   0  0  0  0  0  0  0  0  0  0  0  0
  1 10  1  0
  1  2  1  0
  3  2  2  0
  4  3  1  0
  5 17  1  0
  5  4  2  0
  6  5  1  0
  7  6  2  0
  7  8  1  0
  8  9  2  0
  9  4  1  0
  9  1  1  0
 10 11  2  0
 11 12  1  0
 13 12  2  0
 14 13  1  0
 15 14  2  0
 15 10  1  0
 16 14  1  0
  2 18  1  0
  7 19  1  0
 11 20  1  0
 12 21  1  0
 16 22  1  0
 17 23  1  0
 17 24  1  0
M  ISO  5  18  14  19  14  20  14  21  14  22  11
M  END
>  <minimizedAffinity>  (1) 
-3.75260568

>  <minimizedRMSD>  (1) 
0.42129007

$$$$
