
     RDKit          3D

 34 37  0  0  0  0  0  0  0  0999 V2000
   39.3680   23.5620   36.1640 C   0  0  0  0  0  0  0  0  0  0  0  0
   38.7480   24.0410   37.3200 C   0  0  0  0  0  0  0  0  0  0  0  0
   37.5110   23.4900   37.6620 C   0  0  0  0  0  0  0  0  0  0  0  0
   36.9750   22.5310   36.8710 N   0  0  0  0  0  0  0  0  0  0  0  0
   37.5920   22.0850   35.7610 C   0  0  0  0  0  0  0  0  0  0  0  0
   38.7900   22.6090   35.4180 N   0  0  0  0  0  0  0  0  0  0  0  0
   40.6400   24.0620   35.7250 N   0  0  0  0  0  0  0  0  0  0  0  0
   41.8520   23.4860   35.9650 C   0  0  0  0  0  0  0  0  0  0  0  0
   42.7740   24.2770   35.3770 N   0  0  0  0  0  0  0  0  0  0  0  0
   42.1480   25.3080   34.7940 C   0  0  0  0  0  0  0  0  0  0  0  0
   42.5440   26.3990   34.0710 C   0  0  0  0  0  0  0  0  0  0  0  0
   41.6350   27.3140   33.5880 N   0  0  0  0  0  0  0  0  0  0  0  0
   40.2970   27.1420   33.8290 C   0  0  0  0  0  0  0  0  0  0  0  0
   39.8770   26.0750   34.5390 N   0  0  0  0  0  0  0  0  0  0  0  0
   40.7770   25.1990   34.9990 C   0  0  0  0  0  0  0  0  0  0  0  0
   43.9030   26.6240   33.7880 N   0  0  0  0  0  0  0  0  0  0  0  0
   37.0650   21.0970   34.9220 O   0  0  0  0  0  0  0  0  0  0  0  0
   36.5680   21.3490   33.6720 C   0  0  0  0  0  0  0  0  0  0  0  0
   36.9950   22.2830   32.7500 C   0  0  0  0  0  0  0  0  0  0  0  0
   36.3730   22.4050   31.5230 C   0  0  0  0  0  0  0  0  0  0  0  0
   35.2980   21.5840   31.1880 C   0  0  0  0  0  0  0  0  0  0  0  0
   34.8630   20.6480   32.1030 C   0  0  0  0  0  0  0  0  0  0  0  0
   35.4960   20.5350   33.3310 C   0  0  0  0  0  0  0  0  0  0  0  0
   39.2158   24.8221   37.9374 H   0  0  0  0  0  0  0  0  0  0  0  0
   36.9791   23.8309   38.5625 H   0  0  0  0  0  0  0  0  0  0  0  0
   42.0412   22.5595   36.5269 H   0  0  0  0  0  0  0  0  0  0  0  0
   39.5685   27.8712   33.4449 H   0  0  0  0  0  0  0  0  0  0  0  0
   44.1854   27.4505   33.2421 H   0  0  0  0  0  0  0  0  0  0  0  0
   44.6160   25.9623   34.1266 H   0  0  0  0  0  0  0  0  0  0  0  0
   37.8427   22.9395   32.9959 H   0  0  0  0  0  0  0  0  0  0  0  0
   36.7294   23.1570   30.8037 H   0  0  0  0  0  0  0  0  0  0  0  0
   34.8044   21.6808   30.2098 H   0  0  0  0  0  0  0  0  0  0  0  0
   34.0146   19.9919   31.8585 H   0  0  0  0  0  0  0  0  0  0  0  0
   35.1411   19.7835   34.0516 H   0  0  0  0  0  0  0  0  0  0  0  0
  1  2  2  0
  2  3  1  0
  4  3  2  0
  5  4  1  0
  6  5  2  0
  6  1  1  0
  7  8  1  0
  7  1  1  0
  9  8  2  0
 10 15  2  0
 10  9  1  0
 11 10  1  0
 12 13  1  0
 12 11  2  0
 13 14  2  0
 14 15  1  0
 15  7  1  0
 16 11  1  0
 17  5  1  0
 18 17  1  0
 19 18  2  0
 20 19  1  0
 21 20  2  0
 21 22  1  0
 22 23  2  0
 23 18  1  0
  2 24  1  0
  3 25  1  0
  8 26  1  0
 13 27  1  0
 16 28  1  0
 16 29  1  0
 19 30  1  0
 20 31  1  0
 21 32  1  0
 22 33  1  0
 23 34  1  0
M  ISO  8  24  14  25  14  26  14  27  14  30  14  31  14  32  14  33  14
M  ISO  1  34  14
M  END
>  <minimizedAffinity>  (1) 
-5.1839323

>  <minimizedRMSD>  (1) 
1.70379376

$$$$
