
     RDKit          3D

 28 30  0  0  0  0  0  0  0  0999 V2000
   41.2850   22.2010   36.8120 N   0  0  0  0  0  0  0  0  0  0  0  0
   41.9070   21.0720   37.2330 C   0  0  0  0  0  0  0  0  0  0  0  0
   43.2130   21.1990   36.9030 N   0  0  0  0  0  0  0  0  0  0  0  0
   43.3790   22.3860   36.2910 C   0  0  0  0  0  0  0  0  0  0  0  0
   44.4370   23.0590   35.7470 C   0  0  0  0  0  0  0  0  0  0  0  0
   44.3040   24.2970   35.1730 N   0  0  0  0  0  0  0  0  0  0  0  0
   43.0760   24.8860   35.1380 C   0  0  0  0  0  0  0  0  0  0  0  0
   42.0130   24.2510   35.6650 N   0  0  0  0  0  0  0  0  0  0  0  0
   42.1750   23.0420   36.2200 C   0  0  0  0  0  0  0  0  0  0  0  0
   45.7390   22.4810   35.7700 N   0  0  0  0  0  0  0  0  0  0  0  0
   39.8950   22.4990   36.9530 C   0  0  0  0  0  0  0  0  0  0  0  0
   39.3990   23.2060   38.0750 C   0  0  0  0  0  0  0  0  0  0  0  0
   38.0280   23.4530   38.1300 C   0  0  0  0  0  0  0  0  0  0  0  0
   37.2350   23.0100   37.1210 N   0  0  0  0  0  0  0  0  0  0  0  0
   37.7400   22.3350   36.0580 C   0  0  0  0  0  0  0  0  0  0  0  0
   39.0700   22.0790   35.9750 N   0  0  0  0  0  0  0  0  0  0  0  0
   36.9510   21.8690   35.0060 O   0  0  0  0  0  0  0  0  0  0  0  0
   35.9700   20.9260   35.2730 C   0  0  0  0  0  0  0  0  0  0  0  0
   35.5780   20.6820   36.6340 N   0  0  0  0  0  0  0  0  0  0  0  0
   35.4600   20.3170   34.2990 O   0  0  0  0  0  0  0  0  0  0  0  0
   41.4398   20.2175   37.7443 H   0  0  0  0  0  0  0  0  0  0  0  0
   42.9537   25.8786   34.6799 H   0  0  0  0  0  0  0  0  0  0  0  0
   46.5354   22.9892   35.3597 H   0  0  0  0  0  0  0  0  0  0  0  0
   45.8839   21.5549   36.1969 H   0  0  0  0  0  0  0  0  0  0  0  0
   40.0717   23.5483   38.8751 H   0  0  0  0  0  0  0  0  0  0  0  0
   37.5943   23.9999   38.9802 H   0  0  0  0  0  0  0  0  0  0  0  0
   34.8503   19.9837   36.8430 H   0  0  0  0  0  0  0  0  0  0  0  0
   36.0248   21.2055   37.4004 H   0  0  0  0  0  0  0  0  0  0  0  0
  1 11  1  0
  1  2  1  0
  3  2  2  0
  4  3  1  0
  5 10  1  0
  5  4  2  0
  6  5  1  0
  7  6  2  0
  7  8  1  0
  8  9  2  0
  9  4  1  0
  9  1  1  0
 11 12  2  0
 12 13  1  0
 14 13  2  0
 15 14  1  0
 16 15  2  0
 16 11  1  0
 17 18  1  0
 17 15  1  0
 18 19  1  0
 20 18  2  0
  2 21  1  0
  7 22  1  0
 10 23  1  0
 10 24  1  0
 12 25  1  0
 13 26  1  0
 19 27  1  0
 19 28  1  0
M  ISO  4  21  14  22  14  25  14  26  14
M  END
>  <minimizedAffinity>  (1) 
-5.01731443

>  <minimizedRMSD>  (1) 
1.66689742

$$$$
