
     RDKit          3D

 36 38  0  0  0  0  0  0  0  0999 V2000
   41.5870   23.4010   36.0690 N   0  0  0  0  0  0  0  0  0  0  0  0
   41.6060   22.2420   36.7850 C   0  0  0  0  0  0  0  0  0  0  0  0
   40.3290   22.0060   37.1810 N   0  0  0  0  0  0  0  0  0  0  0  0
   39.5610   23.0030   36.7100 C   0  0  0  0  0  0  0  0  0  0  0  0
   38.2270   23.3250   36.7700 C   0  0  0  0  0  0  0  0  0  0  0  0
   37.7130   24.4410   36.1770 N   0  0  0  0  0  0  0  0  0  0  0  0
   38.5440   25.2820   35.4910 C   0  0  0  0  0  0  0  0  0  0  0  0
   39.8590   24.9930   35.4150 N   0  0  0  0  0  0  0  0  0  0  0  0
   40.3310   23.8960   36.0050 C   0  0  0  0  0  0  0  0  0  0  0  0
   37.3230   22.4750   37.4740 N   0  0  0  0  0  0  0  0  0  0  0  0
   42.7260   24.0160   35.4640 C   0  0  0  0  0  0  0  0  0  0  0  0
   42.9600   23.9160   34.0720 C   0  0  0  0  0  0  0  0  0  0  0  0
   44.0960   24.5470   33.5670 C   0  0  0  0  0  0  0  0  0  0  0  0
   44.9140   25.2210   34.4220 N   0  0  0  0  0  0  0  0  0  0  0  0
   44.6630   25.2990   35.7450 C   0  0  0  0  0  0  0  0  0  0  0  0
   43.5670   24.6950   36.2600 N   0  0  0  0  0  0  0  0  0  0  0  0
   45.4720   25.9770   36.6480 O   0  0  0  0  0  0  0  0  0  0  0  0
   46.4110   25.3900   37.4890 C   0  0  0  0  0  0  0  0  0  0  0  0
   45.9570   25.4360   38.9520 C   0  0  0  0  0  0  0  0  0  0  0  0
   47.6680   26.2530   37.4320 C   0  0  0  0  0  0  0  0  0  0  0  0
   46.8160   23.9930   37.1120 C   0  0  0  0  0  0  0  0  0  0  0  0
   42.4859   21.6181   37.0006 H   0  0  0  0  0  0  0  0  0  0  0  0
   38.1444   26.1849   35.0061 H   0  0  0  0  0  0  0  0  0  0  0  0
   36.3222   22.7138   37.5208 H   0  0  0  0  0  0  0  0  0  0  0  0
   37.6712   21.6225   37.9355 H   0  0  0  0  0  0  0  0  0  0  0  0
   42.2731   23.3626   33.4147 H   0  0  0  0  0  0  0  0  0  0  0  0
   44.3283   24.5011   32.4928 H   0  0  0  0  0  0  0  0  0  0  0  0
   46.8334   25.3472   39.6108 H   0  0  0  0  0  0  0  0  0  0  0  0
   45.4464   26.3905   39.1476 H   0  0  0  0  0  0  0  0  0  0  0  0
   45.2653   24.6033   39.1476 H   0  0  0  0  0  0  0  0  0  0  0  0
   48.0020   26.4823   38.4547 H   0  0  0  0  0  0  0  0  0  0  0  0
   48.4625   25.7090   36.9001 H   0  0  0  0  0  0  0  0  0  0  0  0
   47.4458   27.1899   36.9001 H   0  0  0  0  0  0  0  0  0  0  0  0
   46.9873   23.4022   38.0239 H   0  0  0  0  0  0  0  0  0  0  0  0
   46.0160   23.5270   36.5180 H   0  0  0  0  0  0  0  0  0  0  0  0
   47.7412   24.0271   36.5180 H   0  0  0  0  0  0  0  0  0  0  0  0
  1  2  1  0
  2  3  2  0
  4  5  2  0
  4  3  1  0
  5 10  1  0
  6  5  1  0
  7  6  2  0
  8  7  1  0
  8  9  2  0
  9  1  1  0
  9  4  1  0
 11  1  1  0
 11 16  1  0
 12 11  2  0
 13 12  1  0
 13 14  2  0
 14 15  1  0
 15 16  2  0
 15 17  1  0
 17 18  1  0
 18 19  1  0
 20 18  1  0
 21 18  1  0
  2 22  1  0
  7 23  1  0
 10 24  1  0
 10 25  1  0
 12 26  1  0
 13 27  1  0
 19 28  1  0
 19 29  1  0
 19 30  1  0
 20 31  1  0
 20 32  1  0
 20 33  1  0
 21 34  1  0
 21 35  1  0
 21 36  1  0
M  ISO  8  22  14  23  14  26  14  27  14  28   8  29   8  30   8  31   8
M  ISO  5  32   8  33   8  34   8  35   8  36   8
M  END
>  <minimizedAffinity>  (1) 
-4.87569571

>  <minimizedRMSD>  (1) 
7.52730083

$$$$
