
     RDKit          3D

 26 28  0  0  0  0  0  0  0  0999 V2000
   41.1930   22.3730   36.7500 N   0  0  0  0  0  0  0  0  0  0  0  0
   41.8940   21.2850   37.1970 C   0  0  0  0  0  0  0  0  0  0  0  0
   43.1910   21.5170   36.8770 N   0  0  0  0  0  0  0  0  0  0  0  0
   43.2720   22.6890   36.2650 C   0  0  0  0  0  0  0  0  0  0  0  0
   44.2840   23.4480   35.7230 C   0  0  0  0  0  0  0  0  0  0  0  0
   44.0660   24.6600   35.1400 N   0  0  0  0  0  0  0  0  0  0  0  0
   42.7850   25.1640   35.0830 C   0  0  0  0  0  0  0  0  0  0  0  0
   41.7570   24.4570   35.6010 N   0  0  0  0  0  0  0  0  0  0  0  0
   42.0120   23.2650   36.1660 C   0  0  0  0  0  0  0  0  0  0  0  0
   45.6120   22.9870   35.7370 N   0  0  0  0  0  0  0  0  0  0  0  0
   39.7720   22.5590   36.8750 C   0  0  0  0  0  0  0  0  0  0  0  0
   39.2060   23.2100   37.9800 C   0  0  0  0  0  0  0  0  0  0  0  0
   37.8110   23.3240   37.9920 C   0  0  0  0  0  0  0  0  0  0  0  0
   37.0840   22.8130   36.9630 N   0  0  0  0  0  0  0  0  0  0  0  0
   37.6760   22.1850   35.9060 C   0  0  0  0  0  0  0  0  0  0  0  0
   39.0100   22.0610   35.8660 N   0  0  0  0  0  0  0  0  0  0  0  0
   36.9350   21.6610   34.8650 O   0  0  0  0  0  0  0  0  0  0  0  0
   35.8400   20.8720   35.2680 C   0  0  0  0  0  0  0  0  0  0  0  0
   35.4040   20.3030   34.2180 O   0  0  0  0  0  0  0  0  0  0  0  0
   41.4874   20.4018   37.7114 H   0  0  0  0  0  0  0  0  0  0  0  0
   42.5993   26.1423   34.6156 H   0  0  0  0  0  0  0  0  0  0  0  0
   46.3616   23.5634   35.3285 H   0  0  0  0  0  0  0  0  0  0  0  0
   45.8354   22.0729   36.1558 H   0  0  0  0  0  0  0  0  0  0  0  0
   39.8261   23.6105   38.7955 H   0  0  0  0  0  0  0  0  0  0  0  0
   37.3050   23.8249   38.8305 H   0  0  0  0  0  0  0  0  0  0  0  0
   35.4415   20.7687   36.2880 H   0  0  0  0  0  0  0  0  0  0  0  0
  1 11  1  0
  1  2  1  0
  3  2  2  0
  4  3  1  0
  5 10  1  0
  5  4  2  0
  6  5  1  0
  7  6  2  0
  7  8  1  0
  8  9  2  0
  9  4  1  0
  9  1  1  0
 11 12  2  0
 12 13  1  0
 14 13  2  0
 15 14  1  0
 16 15  2  0
 16 11  1  0
 17 18  1  0
 17 15  1  0
 19 18  2  0
  2 20  1  0
  7 21  1  0
 10 22  1  0
 10 23  1  0
 12 24  1  0
 13 25  1  0
 18 26  1  0
M  ISO  5  20  14  21  14  24  14  25  14  26   6
M  END
>  <minimizedAffinity>  (1) 
-4.39123583

>  <minimizedRMSD>  (1) 
1.3554213

$$$$
