
     RDKit          3D

 26 27  0  0  0  0  0  0  0  0999 V2000
   39.2860   25.1420   34.3830 N   0  0  0  0  0  0  0  0  0  0  0  0
   40.3260   25.9780   34.3800 C   0  0  0  0  0  0  0  0  0  0  0  0
   40.6180   26.6700   33.2020 C   0  0  0  0  0  0  0  0  0  0  0  0
   39.8260   26.4660   32.0870 C   0  0  0  0  0  0  0  0  0  0  0  0
   40.0250   27.0520   30.9910 O   0  0  0  0  0  0  0  0  0  0  0  0
   38.7790   25.6120   32.1230 N   0  0  0  0  0  0  0  0  0  0  0  0
   38.5280   24.9610   33.2800 C   0  0  0  0  0  0  0  0  0  0  0  0
   37.5580   24.1690   33.3190 O   0  0  0  0  0  0  0  0  0  0  0  0
   38.1430   25.0510   36.5120 C   0  0  0  0  0  0  0  0  0  0  0  0
   39.0600   24.4870   35.6070 C   0  0  0  0  0  0  0  0  0  0  0  0
   39.6840   23.3090   35.9860 C   0  0  0  0  0  0  0  0  0  0  0  0
   39.3810   22.7610   37.2040 N   0  0  0  0  0  0  0  0  0  0  0  0
   38.5090   23.3160   38.0400 C   0  0  0  0  0  0  0  0  0  0  0  0
   37.8990   24.4570   37.6850 N   0  0  0  0  0  0  0  0  0  0  0  0
   38.3500   22.5810   39.2320 N   0  0  0  0  0  0  0  0  0  0  0  0
   41.7640   27.6240   33.0840 C   0  0  0  0  0  0  0  0  0  0  0  0
   42.6890   27.0250   32.2180 O   0  0  0  0  0  0  0  0  0  0  0  0
   40.9384   26.1189   35.2829 H   0  0  0  0  0  0  0  0  0  0  0  0
   38.1892   25.4618   31.2920 H   0  0  0  0  0  0  0  0  0  0  0  0
   37.6237   25.9857   36.2536 H   0  0  0  0  0  0  0  0  0  0  0  0
   40.4109   22.8220   35.3193 H   0  0  0  0  0  0  0  0  0  0  0  0
   37.6994   22.9124   39.9585 H   0  0  0  0  0  0  0  0  0  0  0  0
   38.8844   21.7124   39.3766 H   0  0  0  0  0  0  0  0  0  0  0  0
   41.4198   28.5828   32.6691 H   0  0  0  0  0  0  0  0  0  0  0  0
   42.2133   27.8315   34.0664 H   0  0  0  0  0  0  0  0  0  0  0  0
   43.3909   26.5705   32.7480 H   0  0  0  0  0  0  0  0  0  0  0  0
  1 10  1  0
  2  1  1  0
  3  2  2  0
  4  6  1  0
  4  3  1  0
  5  4  2  0
  6  7  1  0
  7  8  2  0
  7  1  1  0
  9 14  2  0
 10 11  2  0
 10  9  1  0
 11 12  1  0
 12 13  2  0
 13 15  1  0
 14 13  1  0
 16  3  1  0
 17 16  1  0
  2 18  1  0
  6 19  1  0
  9 20  1  0
 11 21  1  0
 15 22  1  0
 15 23  1  0
 16 24  1  0
 16 25  1  0
 17 26  1  0
M  ISO  7  18  14  19   9  20  14  21  14  24   8  25   8  26   3
M  END
>  <minimizedAffinity>  (1) 
-4.09618616

>  <minimizedRMSD>  (1) 
0.0503195897

$$$$
