
     RDKit          3D

 43 47  0  0  0  0  0  0  0  0999 V2000
   43.2920   23.3060   35.7560 C   0  0  0  0  0  0  0  0  0  0  0  0
   44.1650   22.2550   35.5130 C   0  0  0  0  0  0  0  0  0  0  0  0
   43.8230   21.0140   36.0400 C   0  0  0  0  0  0  0  0  0  0  0  0
   42.6860   20.8860   36.7480 N   0  0  0  0  0  0  0  0  0  0  0  0
   41.8310   21.9180   36.9850 C   0  0  0  0  0  0  0  0  0  0  0  0
   42.1610   23.1350   36.4720 N   0  0  0  0  0  0  0  0  0  0  0  0
   43.5490   24.6330   35.2580 N   0  0  0  0  0  0  0  0  0  0  0  0
   42.6920   25.4120   34.5790 C   0  0  0  0  0  0  0  0  0  0  0  0
   43.3360   26.5760   34.3080 N   0  0  0  0  0  0  0  0  0  0  0  0
   44.5580   26.5040   34.8110 C   0  0  0  0  0  0  0  0  0  0  0  0
   45.6620   27.3370   34.8660 C   0  0  0  0  0  0  0  0  0  0  0  0
   46.8350   26.9600   35.4860 N   0  0  0  0  0  0  0  0  0  0  0  0
   46.9280   25.7310   36.0700 C   0  0  0  0  0  0  0  0  0  0  0  0
   45.8680   24.8940   36.0350 N   0  0  0  0  0  0  0  0  0  0  0  0
   44.7350   25.2730   35.4280 C   0  0  0  0  0  0  0  0  0  0  0  0
   45.5910   28.6090   34.2820 N   0  0  0  0  0  0  0  0  0  0  0  0
   40.6670   21.8350   37.6970 O   0  0  0  0  0  0  0  0  0  0  0  0
   39.7250   22.7940   37.7510 C   0  0  0  0  0  0  0  0  0  0  0  0
   38.9300   23.3210   38.7570 C   0  0  0  0  0  0  0  0  0  0  0  0
   38.0210   24.3230   38.5470 C   0  0  0  0  0  0  0  0  0  0  0  0
   37.8730   24.8540   37.2720 C   0  0  0  0  0  0  0  0  0  0  0  0
   38.6680   24.3210   36.2900 C   0  0  0  0  0  0  0  0  0  0  0  0
   39.5740   23.3210   36.5010 N   0  0  0  0  0  0  0  0  0  0  0  0
   38.4480   24.9310   35.0010 N   0  0  0  0  0  0  0  0  0  0  0  0
   38.0340   24.0100   34.0840 C   0  0  0  0  0  0  0  0  0  0  0  0
   37.7740   24.4270   32.7900 C   0  0  0  0  0  0  0  0  0  0  0  0
   37.9500   25.7790   32.4850 C   0  0  0  0  0  0  0  0  0  0  0  0
   37.7220   26.1980   31.3080 O   0  0  0  0  0  0  0  0  0  0  0  0
   38.3600   26.6380   33.4350 N   0  0  0  0  0  0  0  0  0  0  0  0
   38.6050   26.2010   34.6860 C   0  0  0  0  0  0  0  0  0  0  0  0
   38.9890   26.9640   35.6030 O   0  0  0  0  0  0  0  0  0  0  0  0
   45.0866   22.3970   34.9295 H   0  0  0  0  0  0  0  0  0  0  0  0
   44.4769   20.1442   35.8792 H   0  0  0  0  0  0  0  0  0  0  0  0
   41.6607   25.1551   34.2953 H   0  0  0  0  0  0  0  0  0  0  0  0
   47.8601   25.4232   36.5664 H   0  0  0  0  0  0  0  0  0  0  0  0
   46.4061   29.2378   34.3166 H   0  0  0  0  0  0  0  0  0  0  0  0
   44.7237   28.9151   33.8182 H   0  0  0  0  0  0  0  0  0  0  0  0
   39.0346   22.9142   39.7737 H   0  0  0  0  0  0  0  0  0  0  0  0
   37.4131   24.7043   39.3807 H   0  0  0  0  0  0  0  0  0  0  0  0
   37.1552   25.6604   37.0610 H   0  0  0  0  0  0  0  0  0  0  0  0
   37.9090   22.9546   34.3678 H   0  0  0  0  0  0  0  0  0  0  0  0
   37.4381   23.7136   32.0230 H   0  0  0  0  0  0  0  0  0  0  0  0
   38.4873   27.6340   33.2055 H   0  0  0  0  0  0  0  0  0  0  0  0
  1  6  1  0
  2  1  2  0
  2  3  1  0
  3  4  2  0
  4  5  1  0
  5 17  1  0
  6  5  2  0
  7 15  1  0
  7  1  1  0
  8  7  1  0
  9  8  2  0
  9 10  1  0
 10 11  2  0
 10 15  1  0
 11 12  1  0
 12 13  2  0
 14 13  1  0
 15 14  2  0
 16 11  1  0
 17 18  1  0
 18 19  2  0
 20 19  1  0
 21 20  2  0
 22 23  2  0
 22 21  1  0
 23 18  1  0
 24 22  1  0
 25 24  1  0
 26 25  2  0
 27 26  1  0
 27 29  1  0
 28 27  2  0
 29 30  1  0
 30 24  1  0
 30 31  2  0
  2 32  1  0
  3 33  1  0
  8 34  1  0
 13 35  1  0
 16 36  1  0
 16 37  1  0
 19 38  1  0
 20 39  1  0
 21 40  1  0
 25 41  1  0
 26 42  1  0
 29 43  1  0
M  ISO  8  32  14  33  14  34  14  35  14  38  14  39  14  40  14  41  14
M  ISO  2  42  14  43   9
M  END
>  <minimizedAffinity>  (1) 
-6.94999599

>  <minimizedRMSD>  (1) 
2.95002341

$$$$
