
     RDKit          3D

 49 54  0  0  0  0  0  0  0  0999 V2000
   43.0140   22.9840   36.2370 C   0  0  0  0  0  0  0  0  0  0  0  0
   42.9440   21.6690   36.6860 C   0  0  0  0  0  0  0  0  0  0  0  0
   41.6800   21.1720   37.0000 C   0  0  0  0  0  0  0  0  0  0  0  0
   40.6030   21.9690   36.8590 N   0  0  0  0  0  0  0  0  0  0  0  0
   40.6760   23.2560   36.4210 C   0  0  0  0  0  0  0  0  0  0  0  0
   41.9100   23.7390   36.1140 N   0  0  0  0  0  0  0  0  0  0  0  0
   44.2690   23.5900   35.8900 N   0  0  0  0  0  0  0  0  0  0  0  0
   44.9450   23.4180   34.7380 C   0  0  0  0  0  0  0  0  0  0  0  0
   46.0710   24.1720   34.8320 N   0  0  0  0  0  0  0  0  0  0  0  0
   46.0770   24.7840   36.0090 C   0  0  0  0  0  0  0  0  0  0  0  0
   46.9300   25.6530   36.6540 C   0  0  0  0  0  0  0  0  0  0  0  0
   46.6520   26.1340   37.9200 N   0  0  0  0  0  0  0  0  0  0  0  0
   45.5100   25.7450   38.5520 C   0  0  0  0  0  0  0  0  0  0  0  0
   44.6610   24.8940   37.9350 N   0  0  0  0  0  0  0  0  0  0  0  0
   44.9420   24.4350   36.7070 C   0  0  0  0  0  0  0  0  0  0  0  0
   48.1150   26.0800   36.0420 N   0  0  0  0  0  0  0  0  0  0  0  0
   39.6170   24.0940   36.2670 O   0  0  0  0  0  0  0  0  0  0  0  0
   39.5220   25.0690   35.3250 C   0  0  0  0  0  0  0  0  0  0  0  0
   40.1440   26.2650   35.1180 C   0  0  0  0  0  0  0  0  0  0  0  0
   39.8640   27.0960   34.0650 C   0  0  0  0  0  0  0  0  0  0  0  0
   38.9010   26.7090   33.1590 C   0  0  0  0  0  0  0  0  0  0  0  0
   38.2650   25.5080   33.3470 C   0  0  0  0  0  0  0  0  0  0  0  0
   38.5800   24.7160   34.4160 N   0  0  0  0  0  0  0  0  0  0  0  0
   37.1800   25.0550   32.4890 C   0  0  0  0  0  0  0  0  0  0  0  0
   36.4070   26.0980   31.9530 C   0  0  0  0  0  0  0  0  0  0  0  0
   35.3220   25.9080   31.1240 C   0  0  0  0  0  0  0  0  0  0  0  0
   34.9370   24.6340   30.7740 C   0  0  0  0  0  0  0  0  0  0  0  0
   35.6770   23.5930   31.2900 C   0  0  0  0  0  0  0  0  0  0  0  0
   35.3230   22.2990   31.0120 C   0  0  0  0  0  0  0  0  0  0  0  0
   35.9990   21.1870   31.5290 C   0  0  0  0  0  0  0  0  0  0  0  0
   37.0840   21.4710   32.3680 C   0  0  0  0  0  0  0  0  0  0  0  0
   37.4280   22.7740   32.6360 C   0  0  0  0  0  0  0  0  0  0  0  0
   36.7460   23.8380   32.1110 C   0  0  0  0  0  0  0  0  0  0  0  0
   43.8466   21.0486   36.7887 H   0  0  0  0  0  0  0  0  0  0  0  0
   41.5631   20.1390   37.3595 H   0  0  0  0  0  0  0  0  0  0  0  0
   44.6440   22.7895   33.8869 H   0  0  0  0  0  0  0  0  0  0  0  0
   45.2800   26.1217   39.5596 H   0  0  0  0  0  0  0  0  0  0  0  0
   48.7440   26.7298   36.5349 H   0  0  0  0  0  0  0  0  0  0  0  0
   48.3575   25.7443   35.0989 H   0  0  0  0  0  0  0  0  0  0  0  0
   40.9142   26.5805   35.8372 H   0  0  0  0  0  0  0  0  0  0  0  0
   40.3965   28.0511   33.9457 H   0  0  0  0  0  0  0  0  0  0  0  0
   38.6471   27.3501   32.3020 H   0  0  0  0  0  0  0  0  0  0  0  0
   36.6846   27.1307   32.2107 H   0  0  0  0  0  0  0  0  0  0  0  0
   34.7636   26.7754   30.7420 H   0  0  0  0  0  0  0  0  0  0  0  0
   34.0770   24.4550   30.1119 H   0  0  0  0  0  0  0  0  0  0  0  0
   34.4633   22.1246   30.3483 H   0  0  0  0  0  0  0  0  0  0  0  0
   35.6972   20.1562   31.2914 H   0  0  0  0  0  0  0  0  0  0  0  0
   37.6625   20.6484   32.8137 H   0  0  0  0  0  0  0  0  0  0  0  0
   38.2845   22.9694   33.2980 H   0  0  0  0  0  0  0  0  0  0  0  0
  1  2  2  0
  2  3  1  0
  4  3  2  0
  5  4  1  0
  6  1  1  0
  6  5  2  0
  7  1  1  0
  7 15  1  0
  8  9  2  0
  8  7  1  0
  9 10  1  0
 10 11  1  0
 10 15  2  0
 11 12  2  0
 12 13  1  0
 14 13  2  0
 15 14  1  0
 16 11  1  0
 17  5  1  0
 18 17  1  0
 19 18  2  0
 20 19  1  0
 21 22  1  0
 21 20  2  0
 22 23  2  0
 23 18  1  0
 24 22  1  0
 25 24  2  0
 26 25  1  0
 27 26  2  0
 27 28  1  0
 28 33  2  0
 29 28  1  0
 29 30  2  0
 30 31  1  0
 31 32  2  0
 33 24  1  0
 33 32  1  0
  2 34  1  0
  3 35  1  0
  8 36  1  0
 13 37  1  0
 16 38  1  0
 16 39  1  0
 19 40  1  0
 20 41  1  0
 21 42  1  0
 25 43  1  0
 26 44  1  0
 27 45  1  0
 29 46  1  0
 30 47  1  0
 31 48  1  0
 32 49  1  0
M  ISO  8  34  14  35  14  36  14  37  14  40  14  41  14  42  14  43  14
M  ISO  6  44  14  45  14  46  14  47  14  48  14  49  14
M  END
>  <minimizedAffinity>  (1) 
-6.87783337

>  <minimizedRMSD>  (1) 
1.66616571

$$$$
