
     RDKit          3D

 48 52  0  0  0  0  0  0  0  0999 V2000
   41.8490   23.4480   35.8620 C   0  0  0  0  0  0  0  0  0  0  0  0
   42.1050   22.4060   36.7530 C   0  0  0  0  0  0  0  0  0  0  0  0
   41.0120   21.8670   37.4310 C   0  0  0  0  0  0  0  0  0  0  0  0
   39.7900   22.3630   37.2060 N   0  0  0  0  0  0  0  0  0  0  0  0
   39.5370   23.3840   36.3350 C   0  0  0  0  0  0  0  0  0  0  0  0
   40.6040   23.9100   35.6720 N   0  0  0  0  0  0  0  0  0  0  0  0
   42.9090   24.0690   35.1160 N   0  0  0  0  0  0  0  0  0  0  0  0
   43.0420   24.0570   33.7740 C   0  0  0  0  0  0  0  0  0  0  0  0
   44.1760   24.7600   33.4990 N   0  0  0  0  0  0  0  0  0  0  0  0
   44.7060   25.1780   34.6410 C   0  0  0  0  0  0  0  0  0  0  0  0
   45.8100   25.9060   34.9820 C   0  0  0  0  0  0  0  0  0  0  0  0
   46.1140   26.1950   36.3000 N   0  0  0  0  0  0  0  0  0  0  0  0
   45.2950   25.7440   37.2880 C   0  0  0  0  0  0  0  0  0  0  0  0
   44.1980   25.0230   36.9710 N   0  0  0  0  0  0  0  0  0  0  0  0
   43.9230   24.7560   35.6860 C   0  0  0  0  0  0  0  0  0  0  0  0
   46.6940   26.3990   34.0010 N   0  0  0  0  0  0  0  0  0  0  0  0
   38.3100   23.9140   36.0800 O   0  0  0  0  0  0  0  0  0  0  0  0
   38.0900   25.1510   35.5640 C   0  0  0  0  0  0  0  0  0  0  0  0
   38.1670   26.4310   36.0840 C   0  0  0  0  0  0  0  0  0  0  0  0
   37.8890   27.5510   35.3500 C   0  0  0  0  0  0  0  0  0  0  0  0
   37.5150   27.4060   34.0290 C   0  0  0  0  0  0  0  0  0  0  0  0
   37.4380   26.1360   33.5130 C   0  0  0  0  0  0  0  0  0  0  0  0
   37.7180   25.0230   34.2570 N   0  0  0  0  0  0  0  0  0  0  0  0
   37.0530   25.9510   32.1490 N   0  0  0  0  0  0  0  0  0  0  0  0
   35.9910   26.5880   31.4670 C   0  0  0  0  0  0  0  0  0  0  0  0
   35.0390   25.4900   30.9760 C   0  0  0  0  0  0  0  0  0  0  0  0
   35.5050   24.1160   31.4490 C   0  0  0  0  0  0  0  0  0  0  0  0
   36.9140   23.8300   30.9650 C   0  0  0  0  0  0  0  0  0  0  0  0
   37.7650   25.0320   31.2880 C   0  0  0  0  0  0  0  0  0  0  0  0
   43.1246   22.0259   36.9139 H   0  0  0  0  0  0  0  0  0  0  0  0
   41.1533   21.0416   38.1443 H   0  0  0  0  0  0  0  0  0  0  0  0
   42.3701   23.5763   33.0477 H   0  0  0  0  0  0  0  0  0  0  0  0
   45.5252   25.9656   38.3406 H   0  0  0  0  0  0  0  0  0  0  0  0
   47.5207   26.9459   34.2808 H   0  0  0  0  0  0  0  0  0  0  0  0
   46.5132   26.2123   33.0043 H   0  0  0  0  0  0  0  0  0  0  0  0
   38.4654   26.5533   37.1357 H   0  0  0  0  0  0  0  0  0  0  0  0
   37.9621   28.5501   35.8043 H   0  0  0  0  0  0  0  0  0  0  0  0
   37.2851   28.2837   33.4071 H   0  0  0  0  0  0  0  0  0  0  0  0
   35.4604   27.2687   32.1490 H   0  0  0  0  0  0  0  0  0  0  0  0
   36.3712   27.1799   30.6214 H   0  0  0  0  0  0  0  0  0  0  0  0
   35.0111   25.5023   29.8764 H   0  0  0  0  0  0  0  0  0  0  0  0
   34.0371   25.6829   31.3871 H   0  0  0  0  0  0  0  0  0  0  0  0
   35.4886   24.0882   32.5485 H   0  0  0  0  0  0  0  0  0  0  0  0
   34.8285   23.3527   31.0370 H   0  0  0  0  0  0  0  0  0  0  0  0
   36.9085   23.6563   29.8788 H   0  0  0  0  0  0  0  0  0  0  0  0
   37.3147   22.9319   31.4577 H   0  0  0  0  0  0  0  0  0  0  0  0
   38.6816   24.6984   31.7966 H   0  0  0  0  0  0  0  0  0  0  0  0
   38.0135   25.5496   30.3497 H   0  0  0  0  0  0  0  0  0  0  0  0
  1  2  2  0
  2  3  1  0
  4  3  2  0
  5  4  1  0
  6  1  1  0
  6  5  2  0
  7 15  1  0
  7  1  1  0
  8  7  1  0
  9  8  2  0
  9 10  1  0
 10 11  2  0
 10 15  1  0
 11 12  1  0
 12 13  2  0
 14 13  1  0
 15 14  2  0
 16 11  1  0
 17  5  1  0
 18 17  1  0
 18 19  2  0
 20 19  1  0
 21 20  2  0
 22 21  1  0
 22 23  2  0
 23 18  1  0
 24 22  1  0
 25 24  1  0
 26 27  1  0
 26 25  1  0
 28 29  1  0
 28 27  1  0
 29 24  1  0
  2 30  1  0
  3 31  1  0
  8 32  1  0
 13 33  1  0
 16 34  1  0
 16 35  1  0
 19 36  1  0
 20 37  1  0
 21 38  1  0
 25 39  1  0
 25 40  1  0
 26 41  1  0
 26 42  1  0
 27 43  1  0
 27 44  1  0
 28 45  1  0
 28 46  1  0
 29 47  1  0
 29 48  1  0
M  ISO  8  30  14  31  14  32  14  33  14  36  14  37  14  38  14  39  13
M  ISO  8  40  13  41  13  42  13  43  13  44  13  45  13  46  13  47  13
M  ISO  1  48  13
M  END
>  <minimizedAffinity>  (1) 
-6.84589338

>  <minimizedRMSD>  (1) 
0.234017789

$$$$
