
     RDKit          3D

 44 48  0  0  0  0  0  0  0  0999 V2000
   42.4680   23.3410   35.9850 C   0  0  0  0  0  0  0  0  0  0  0  0
   42.6760   22.1660   36.7100 C   0  0  0  0  0  0  0  0  0  0  0  0
   41.5430   21.4610   37.1190 C   0  0  0  0  0  0  0  0  0  0  0  0
   40.3200   21.9340   36.8070 N   0  0  0  0  0  0  0  0  0  0  0  0
   40.1230   23.0820   36.0990 C   0  0  0  0  0  0  0  0  0  0  0  0
   41.2290   23.7690   35.6990 N   0  0  0  0  0  0  0  0  0  0  0  0
   43.5670   24.1340   35.5210 N   0  0  0  0  0  0  0  0  0  0  0  0
   43.8830   24.3870   34.2400 C   0  0  0  0  0  0  0  0  0  0  0  0
   44.9820   25.1700   34.2520 N   0  0  0  0  0  0  0  0  0  0  0  0
   45.3300   25.3890   35.5120 C   0  0  0  0  0  0  0  0  0  0  0  0
   46.3350   26.0920   36.1370 C   0  0  0  0  0  0  0  0  0  0  0  0
   46.4410   26.1380   37.5240 N   0  0  0  0  0  0  0  0  0  0  0  0
   45.5280   25.4710   38.2740 C   0  0  0  0  0  0  0  0  0  0  0  0
   44.5330   24.7740   37.6970 N   0  0  0  0  0  0  0  0  0  0  0  0
   44.4540   24.7470   36.3490 C   0  0  0  0  0  0  0  0  0  0  0  0
   47.2970   26.7940   35.3880 N   0  0  0  0  0  0  0  0  0  0  0  0
   38.9090   23.5990   35.7600 O   0  0  0  0  0  0  0  0  0  0  0  0
   38.6320   24.9240   35.6410 C   0  0  0  0  0  0  0  0  0  0  0  0
   38.4620   25.9600   36.5390 C   0  0  0  0  0  0  0  0  0  0  0  0
   38.1800   27.2400   36.1500 C   0  0  0  0  0  0  0  0  0  0  0  0
   38.0580   27.5210   34.7980 C   0  0  0  0  0  0  0  0  0  0  0  0
   38.2280   26.4850   33.9160 C   0  0  0  0  0  0  0  0  0  0  0  0
   38.5100   25.2060   34.3120 N   0  0  0  0  0  0  0  0  0  0  0  0
   38.0810   26.8820   32.5450 N   0  0  0  0  0  0  0  0  0  0  0  0
   38.8260   26.5450   31.4760 C   0  0  0  0  0  0  0  0  0  0  0  0
   38.4750   27.0660   30.2460 C   0  0  0  0  0  0  0  0  0  0  0  0
   37.3920   27.9100   30.1090 C   0  0  0  0  0  0  0  0  0  0  0  0
   37.1250   28.3870   28.7910 N   0  0  0  0  0  0  0  0  0  0  0  0
   36.6470   28.2420   31.2030 N   0  0  0  0  0  0  0  0  0  0  0  0
   37.0120   27.7160   32.4050 C   0  0  0  0  0  0  0  0  0  0  0  0
   36.2430   28.1030   33.3240 O   0  0  0  0  0  0  0  0  0  0  0  0
   43.6895   21.8111   36.9486 H   0  0  0  0  0  0  0  0  0  0  0  0
   41.6472   20.5273   37.6911 H   0  0  0  0  0  0  0  0  0  0  0  0
   43.3475   24.0246   33.3501 H   0  0  0  0  0  0  0  0  0  0  0  0
   45.6028   25.5008   39.3711 H   0  0  0  0  0  0  0  0  0  0  0  0
   48.0436   27.3159   35.8687 H   0  0  0  0  0  0  0  0  0  0  0  0
   47.2547   26.7861   34.3589 H   0  0  0  0  0  0  0  0  0  0  0  0
   38.5577   25.7457   37.6137 H   0  0  0  0  0  0  0  0  0  0  0  0
   38.0518   28.0353   36.8990 H   0  0  0  0  0  0  0  0  0  0  0  0
   37.8329   28.5384   34.4455 H   0  0  0  0  0  0  0  0  0  0  0  0
   39.6908   25.8730   31.5791 H   0  0  0  0  0  0  0  0  0  0  0  0
   39.0700   26.8032   29.3589 H   0  0  0  0  0  0  0  0  0  0  0  0
   36.3302   29.0204   28.6237 H   0  0  0  0  0  0  0  0  0  0  0  0
   37.7271   28.0979   28.0069 H   0  0  0  0  0  0  0  0  0  0  0  0
  1  2  2  0
  2  3  1  0
  4  3  2  0
  5  4  1  0
  6  1  1  0
  6  5  2  0
  7  1  1  0
  7 15  1  0
  8  9  2  0
  8  7  1  0
  9 10  1  0
 10 11  1  0
 10 15  2  0
 11 12  2  0
 12 13  1  0
 14 13  2  0
 15 14  1  0
 16 11  1  0
 17  5  1  0
 18 17  1  0
 18 19  2  0
 20 19  1  0
 21 20  2  0
 22 23  2  0
 22 21  1  0
 23 18  1  0
 24 22  1  0
 25 24  1  0
 26 25  2  0
 27 26  1  0
 27 29  2  0
 28 27  1  0
 29 30  1  0
 30 24  1  0
 30 31  2  0
  2 32  1  0
  3 33  1  0
  8 34  1  0
 13 35  1  0
 16 36  1  0
 16 37  1  0
 19 38  1  0
 20 39  1  0
 21 40  1  0
 25 41  1  0
 26 42  1  0
 28 43  1  0
 28 44  1  0
M  ISO  8  32  14  33  14  34  14  35  14  38  14  39  14  40  14  41  14
M  ISO  1  42  14
M  END
>  <minimizedAffinity>  (1) 
-6.73921585

>  <minimizedRMSD>  (1) 
1.3231051

$$$$
