
     RDKit          3D

 47 52  0  0  0  0  0  0  0  0999 V2000
   42.6250   23.2110   36.0110 C   0  0  0  0  0  0  0  0  0  0  0  0
   42.7590   22.0410   36.7470 C   0  0  0  0  0  0  0  0  0  0  0  0
   41.5860   21.3630   37.0740 C   0  0  0  0  0  0  0  0  0  0  0  0
   40.4070   21.8650   36.6670 N   0  0  0  0  0  0  0  0  0  0  0  0
   40.2730   23.0070   35.9490 C   0  0  0  0  0  0  0  0  0  0  0  0
   41.4220   23.6670   35.6320 N   0  0  0  0  0  0  0  0  0  0  0  0
   43.7740   23.9800   35.6260 N   0  0  0  0  0  0  0  0  0  0  0  0
   44.2400   24.1290   34.3550 C   0  0  0  0  0  0  0  0  0  0  0  0
   45.3340   24.9280   34.4400 N   0  0  0  0  0  0  0  0  0  0  0  0
   45.5330   25.2560   35.7100 C   0  0  0  0  0  0  0  0  0  0  0  0
   46.4500   26.0140   36.3850 C   0  0  0  0  0  0  0  0  0  0  0  0
   46.3900   26.1730   37.7650 N   0  0  0  0  0  0  0  0  0  0  0  0
   45.3880   25.5570   38.4710 C   0  0  0  0  0  0  0  0  0  0  0  0
   44.4760   24.8050   37.8230 N   0  0  0  0  0  0  0  0  0  0  0  0
   44.5550   24.6660   36.4820 C   0  0  0  0  0  0  0  0  0  0  0  0
   47.4970   26.6680   35.7070 N   0  0  0  0  0  0  0  0  0  0  0  0
   39.0940   23.5610   35.5110 O   0  0  0  0  0  0  0  0  0  0  0  0
   38.7970   24.8750   35.5430 C   0  0  0  0  0  0  0  0  0  0  0  0
   38.5240   25.7930   36.5160 C   0  0  0  0  0  0  0  0  0  0  0  0
   38.2510   27.1070   36.2470 C   0  0  0  0  0  0  0  0  0  0  0  0
   38.2470   27.5430   34.9420 C   0  0  0  0  0  0  0  0  0  0  0  0
   38.5240   26.6150   33.9460 C   0  0  0  0  0  0  0  0  0  0  0  0
   38.7810   25.3440   34.2850 N   0  0  0  0  0  0  0  0  0  0  0  0
   38.4890   27.2170   32.6160 C   0  0  0  0  0  0  0  0  0  0  0  0
   39.4440   27.0220   31.6920 N   0  0  0  0  0  0  0  0  0  0  0  0
   39.4820   27.5280   30.4750 C   0  0  0  0  0  0  0  0  0  0  0  0
   38.5130   28.3260   30.0360 N   0  0  0  0  0  0  0  0  0  0  0  0
   37.4770   28.6120   30.8680 C   0  0  0  0  0  0  0  0  0  0  0  0
   36.4570   29.4340   30.4480 C   0  0  0  0  0  0  0  0  0  0  0  0
   35.3960   29.7390   31.2720 C   0  0  0  0  0  0  0  0  0  0  0  0
   35.4000   29.1780   32.5540 C   0  0  0  0  0  0  0  0  0  0  0  0
   36.4420   28.3680   32.9150 C   0  0  0  0  0  0  0  0  0  0  0  0
   37.5130   28.0440   32.1190 C   0  0  0  0  0  0  0  0  0  0  0  0
   43.7456   21.6666   37.0576 H   0  0  0  0  0  0  0  0  0  0  0  0
   41.6243   20.4307   37.6566 H   0  0  0  0  0  0  0  0  0  0  0  0
   43.8143   23.6892   33.4410 H   0  0  0  0  0  0  0  0  0  0  0  0
   45.3289   25.6764   39.5629 H   0  0  0  0  0  0  0  0  0  0  0  0
   48.1773   27.2341   36.2338 H   0  0  0  0  0  0  0  0  0  0  0  0
   47.5824   26.5801   34.6843 H   0  0  0  0  0  0  0  0  0  0  0  0
   38.5234   25.4612   37.5648 H   0  0  0  0  0  0  0  0  0  0  0  0
   38.0367   27.8083   37.0669 H   0  0  0  0  0  0  0  0  0  0  0  0
   38.0313   28.5930   34.6952 H   0  0  0  0  0  0  0  0  0  0  0  0
   40.3271   27.2867   29.8135 H   0  0  0  0  0  0  0  0  0  0  0  0
   36.4893   29.8566   29.4329 H   0  0  0  0  0  0  0  0  0  0  0  0
   34.5800   30.3959   30.9364 H   0  0  0  0  0  0  0  0  0  0  0  0
   34.5807   29.3844   33.2584 H   0  0  0  0  0  0  0  0  0  0  0  0
   36.4199   27.9403   33.9282 H   0  0  0  0  0  0  0  0  0  0  0  0
  1  2  2  0
  2  3  1  0
  4  3  2  0
  5  4  1  0
  6  5  2  0
  6  1  1  0
  7  1  1  0
  7 15  1  0
  8  9  2  0
  8  7  1  0
  9 10  1  0
 10 11  1  0
 10 15  2  0
 11 12  2  0
 12 13  1  0
 14 13  2  0
 15 14  1  0
 16 11  1  0
 17 18  1  0
 17  5  1  0
 18 19  2  0
 20 19  1  0
 21 20  2  0
 22 23  2  0
 22 21  1  0
 23 18  1  0
 24 22  1  0
 25 24  2  0
 26 25  1  0
 27 26  2  0
 27 28  1  0
 28 33  2  0
 29 28  1  0
 29 30  2  0
 30 31  1  0
 31 32  2  0
 33 24  1  0
 33 32  1  0
  2 34  1  0
  3 35  1  0
  8 36  1  0
 13 37  1  0
 16 38  1  0
 16 39  1  0
 19 40  1  0
 20 41  1  0
 21 42  1  0
 26 43  1  0
 29 44  1  0
 30 45  1  0
 31 46  1  0
 32 47  1  0
M  ISO  8  34  14  35  14  36  14  37  14  40  14  41  14  42  14  43  14
M  ISO  4  44  14  45  14  46  14  47  14
M  END
>  <minimizedAffinity>  (1) 
-6.62191725

>  <minimizedRMSD>  (1) 
1.92082894

$$$$
