
     RDKit          3D

 47 51  0  0  1  0  0  0  0  0999 V2000
   42.2150   23.4990   35.9490 C   0  0  0  0  0  0  0  0  0  0  0  0
   42.4110   22.3470   36.7110 C   0  0  0  0  0  0  0  0  0  0  0  0
   41.2720   21.6560   37.1220 C   0  0  0  0  0  0  0  0  0  0  0  0
   40.0580   22.1160   36.7760 N   0  0  0  0  0  0  0  0  0  0  0  0
   39.8700   23.2440   36.0300 C   0  0  0  0  0  0  0  0  0  0  0  0
   40.9840   23.9170   35.6290 N   0  0  0  0  0  0  0  0  0  0  0  0
   43.3260   24.2800   35.4780 N   0  0  0  0  0  0  0  0  0  0  0  0
   43.5970   24.5870   34.1990 C   0  0  0  0  0  0  0  0  0  0  0  0
   44.7270   25.3330   34.2080 N   0  0  0  0  0  0  0  0  0  0  0  0
   45.1360   25.4780   35.4610 C   0  0  0  0  0  0  0  0  0  0  0  0
   46.1820   26.1070   36.0820 C   0  0  0  0  0  0  0  0  0  0  0  0
   46.3440   26.0760   37.4640 N   0  0  0  0  0  0  0  0  0  0  0  0
   45.4390   25.4030   38.2170 C   0  0  0  0  0  0  0  0  0  0  0  0
   44.3980   24.7730   37.6450 N   0  0  0  0  0  0  0  0  0  0  0  0
   44.2670   24.8200   36.2990 C   0  0  0  0  0  0  0  0  0  0  0  0
   47.1360   26.8140   35.3170 N   0  0  0  0  0  0  0  0  0  0  0  0
   38.6640   23.7530   35.6520 O   0  0  0  0  0  0  0  0  0  0  0  0
   38.3910   25.0560   35.4680 C   0  0  0  0  0  0  0  0  0  0  0  0
   38.3730   26.1640   36.2990 C   0  0  0  0  0  0  0  0  0  0  0  0
   38.0550   27.4210   35.8710 C   0  0  0  0  0  0  0  0  0  0  0  0
   37.7310   27.6110   34.5360 C   0  0  0  0  0  0  0  0  0  0  0  0
   37.7520   26.5090   33.7200 C   0  0  0  0  0  0  0  0  0  0  0  0
   38.0730   25.2590   34.1630 N   0  0  0  0  0  0  0  0  0  0  0  0
   37.3840   26.8280   32.2860 C   0  0  1  0  0  0  0  0  0  0  0  0
   36.1000   27.5490   32.1790 C   0  0  0  0  0  0  0  0  0  0  0  0
   36.2070   28.9020   31.5180 C   0  0  0  0  0  0  0  0  0  0  0  0
   36.8170   28.6060   30.1470 C   0  0  0  0  0  0  0  0  0  0  0  0
   38.2580   28.3390   30.4390 C   0  0  0  0  0  0  0  0  0  0  0  0
   38.5520   27.4280   31.5580 C   0  0  0  0  0  0  0  0  0  0  0  0
   43.4203   21.9990   36.9760 H   0  0  0  0  0  0  0  0  0  0  0  0
   41.3666   20.7409   37.7251 H   0  0  0  0  0  0  0  0  0  0  0  0
   43.0137   24.2899   33.3150 H   0  0  0  0  0  0  0  0  0  0  0  0
   45.5581   25.3721   39.3101 H   0  0  0  0  0  0  0  0  0  0  0  0
   47.9227   27.2870   35.7843 H   0  0  0  0  0  0  0  0  0  0  0  0
   47.0450   26.8565   34.2919 H   0  0  0  0  0  0  0  0  0  0  0  0
   38.6284   26.0239   37.3597 H   0  0  0  0  0  0  0  0  0  0  0  0
   38.0558   28.2681   36.5728 H   0  0  0  0  0  0  0  0  0  0  0  0
   37.4677   28.6058   34.1472 H   0  0  0  0  0  0  0  0  0  0  0  0
   37.1749   25.8918   31.7476 H   0  0  0  0  0  0  0  0  0  0  0  0
   35.4047   26.9314   31.5915 H   0  0  0  0  0  0  0  0  0  0  0  0
   35.7477   27.7244   33.2062 H   0  0  0  0  0  0  0  0  0  0  0  0
   35.2140   29.3631   31.4113 H   0  0  0  0  0  0  0  0  0  0  0  0
   36.8129   29.6090   32.1037 H   0  0  0  0  0  0  0  0  0  0  0  0
   36.7083   29.4710   29.4763 H   0  0  0  0  0  0  0  0  0  0  0  0
   36.3258   27.7626   29.6396 H   0  0  0  0  0  0  0  0  0  0  0  0
   39.0611   28.8011   29.8461 H   0  0  0  0  0  0  0  0  0  0  0  0
   39.5871   27.1961   31.8492 H   0  0  0  0  0  0  0  0  0  0  0  0
  1  2  2  0
  2  3  1  0
  4  3  2  0
  5  4  1  0
  6  1  1  0
  6  5  2  0
  7  1  1  0
  7 15  1  0
  8  9  2  0
  8  7  1  0
  9 10  1  0
 10 11  1  0
 10 15  2  0
 11 12  2  0
 12 13  1  0
 14 13  2  0
 15 14  1  0
 16 11  1  0
 17  5  1  0
 18 17  1  0
 18 19  2  0
 20 19  1  0
 21 20  2  0
 22 23  2  0
 22 21  1  0
 23 18  1  0
 24 22  1  0
 25 24  1  0
 26 25  1  0
 27 28  1  0
 27 26  1  0
 28 29  2  0
 29 24  1  0
  2 30  1  0
  3 31  1  0
  8 32  1  0
 13 33  1  0
 16 34  1  0
 16 35  1  0
 19 36  1  0
 20 37  1  0
 21 38  1  0
 24 39  1  6
 25 40  1  0
 25 41  1  0
 26 42  1  0
 26 43  1  0
 27 44  1  0
 27 45  1  0
 28 46  1  0
 29 47  1  0
M  ISO  8  30  14  31  14  32  14  33  14  36  14  37  14  38  14  39  13
M  ISO  8  40  13  41  13  42  13  43  13  44  13  45  13  46  13  47  13
M  END
>  <minimizedAffinity>  (1) 
-6.28493214

>  <minimizedRMSD>  (1) 
1.07966399

$$$$
