
     RDKit          3D

 40 44  0  0  0  0  0  0  0  0999 V2000
   42.1250   23.4420   35.9620 C   0  0  0  0  0  0  0  0  0  0  0  0
   42.3510   22.3100   36.7310 C   0  0  0  0  0  0  0  0  0  0  0  0
   41.2220   21.6390   37.2170 C   0  0  0  0  0  0  0  0  0  0  0  0
   39.9980   22.1150   36.9200 N   0  0  0  0  0  0  0  0  0  0  0  0
   39.7870   23.2260   36.1640 C   0  0  0  0  0  0  0  0  0  0  0  0
   40.8860   23.8750   35.6950 N   0  0  0  0  0  0  0  0  0  0  0  0
   43.2180   24.2060   35.4150 N   0  0  0  0  0  0  0  0  0  0  0  0
   43.4420   24.4610   34.1150 C   0  0  0  0  0  0  0  0  0  0  0  0
   44.5700   25.2080   34.0390 N   0  0  0  0  0  0  0  0  0  0  0  0
   45.0240   25.4050   35.2720 C   0  0  0  0  0  0  0  0  0  0  0  0
   46.0970   26.0640   35.8280 C   0  0  0  0  0  0  0  0  0  0  0  0
   46.3070   26.0880   37.1990 N   0  0  0  0  0  0  0  0  0  0  0  0
   45.4370   25.4470   38.0190 C   0  0  0  0  0  0  0  0  0  0  0  0
   44.3760   24.7930   37.4990 N   0  0  0  0  0  0  0  0  0  0  0  0
   44.1860   24.7790   36.1750 C   0  0  0  0  0  0  0  0  0  0  0  0
   47.0100   26.7350   35.0060 N   0  0  0  0  0  0  0  0  0  0  0  0
   38.5670   23.7390   35.8430 O   0  0  0  0  0  0  0  0  0  0  0  0
   38.3040   25.0530   35.6270 C   0  0  0  0  0  0  0  0  0  0  0  0
   38.4410   26.2010   36.3900 C   0  0  0  0  0  0  0  0  0  0  0  0
   38.0930   27.4400   35.9310 C   0  0  0  0  0  0  0  0  0  0  0  0
   37.5800   27.5660   34.6450 C   0  0  0  0  0  0  0  0  0  0  0  0
   37.4490   26.4220   33.9010 C   0  0  0  0  0  0  0  0  0  0  0  0
   37.8000   25.1780   34.3670 N   0  0  0  0  0  0  0  0  0  0  0  0
   36.9120   26.6600   32.5930 N   0  0  0  0  0  0  0  0  0  0  0  0
   37.2750   27.8530   32.0500 C   0  0  0  0  0  0  0  0  0  0  0  0
   36.6750   27.9280   30.7890 C   0  0  0  0  0  0  0  0  0  0  0  0
   35.9760   26.7830   30.6230 N   0  0  0  0  0  0  0  0  0  0  0  0
   36.1210   26.0280   31.7050 C   0  0  0  0  0  0  0  0  0  0  0  0
   43.3694   21.9559   36.9489 H   0  0  0  0  0  0  0  0  0  0  0  0
   41.3337   20.7348   37.8334 H   0  0  0  0  0  0  0  0  0  0  0  0
   42.8241   24.1255   33.2690 H   0  0  0  0  0  0  0  0  0  0  0  0
   45.5957   25.4599   39.1074 H   0  0  0  0  0  0  0  0  0  0  0  0
   47.8126   27.2279   35.4228 H   0  0  0  0  0  0  0  0  0  0  0  0
   46.8792   26.7359   33.9843 H   0  0  0  0  0  0  0  0  0  0  0  0
   38.8471   26.1114   37.4084 H   0  0  0  0  0  0  0  0  0  0  0  0
   38.2171   28.3263   36.5707 H   0  0  0  0  0  0  0  0  0  0  0  0
   37.2901   28.5467   34.2397 H   0  0  0  0  0  0  0  0  0  0  0  0
   37.9186   28.6145   32.5146 H   0  0  0  0  0  0  0  0  0  0  0  0
   36.7561   28.7578   30.0714 H   0  0  0  0  0  0  0  0  0  0  0  0
   35.6651   25.0380   31.8536 H   0  0  0  0  0  0  0  0  0  0  0  0
  1  2  2  0
  2  3  1  0
  4  3  2  0
  5  4  1  0
  6  1  1  0
  6  5  2  0
  7  1  1  0
  7 15  1  0
  8  7  1  0
  9  8  2  0
  9 10  1  0
 10 11  2  0
 10 15  1  0
 11 12  1  0
 12 13  2  0
 14 13  1  0
 15 14  2  0
 16 11  1  0
 17  5  1  0
 18 17  1  0
 18 19  2  0
 20 19  1  0
 21 20  2  0
 22 23  2  0
 22 21  1  0
 23 18  1  0
 24 22  1  0
 25 24  1  0
 26 25  2  0
 27 26  1  0
 27 28  2  0
 28 24  1  0
  2 29  1  0
  3 30  1  0
  8 31  1  0
 13 32  1  0
 16 33  1  0
 16 34  1  0
 19 35  1  0
 20 36  1  0
 21 37  1  0
 25 38  1  0
 26 39  1  0
 28 40  1  0
M  ISO  8  29  14  30  14  31  14  32  14  35  14  36  14  37  14  38  14
M  ISO  2  39  14  40  14
M  END
>  <minimizedAffinity>  (1) 
-6.27802038

>  <minimizedRMSD>  (1) 
0.68493551

$$$$
