
     RDKit          3D

 38 42  0  0  0  0  0  0  0  0999 V2000
   42.0530   23.5440   35.9730 C   0  0  0  0  0  0  0  0  0  0  0  0
   42.3320   22.3430   36.6090 C   0  0  0  0  0  0  0  0  0  0  0  0
   41.2450   21.6390   37.1280 C   0  0  0  0  0  0  0  0  0  0  0  0
   40.0050   22.1410   36.9940 N   0  0  0  0  0  0  0  0  0  0  0  0
   39.7370   23.3200   36.3710 C   0  0  0  0  0  0  0  0  0  0  0  0
   40.7940   24.0100   35.8630 N   0  0  0  0  0  0  0  0  0  0  0  0
   43.1000   24.3550   35.3990 N   0  0  0  0  0  0  0  0  0  0  0  0
   43.2150   24.7190   34.1110 C   0  0  0  0  0  0  0  0  0  0  0  0
   44.3350   25.4760   34.0080 N   0  0  0  0  0  0  0  0  0  0  0  0
   44.8900   25.5700   35.2140 C   0  0  0  0  0  0  0  0  0  0  0  0
   46.0080   26.1870   35.7370 C   0  0  0  0  0  0  0  0  0  0  0  0
   46.3290   26.0980   37.0740 N   0  0  0  0  0  0  0  0  0  0  0  0
   45.5210   25.3800   37.9080 C   0  0  0  0  0  0  0  0  0  0  0  0
   44.4250   24.7670   37.4360 N   0  0  0  0  0  0  0  0  0  0  0  0
   44.1240   24.8620   36.1290 C   0  0  0  0  0  0  0  0  0  0  0  0
   46.8490   26.9300   34.8960 N   0  0  0  0  0  0  0  0  0  0  0  0
   38.5010   23.8670   36.2130 O   0  0  0  0  0  0  0  0  0  0  0  0
   38.2570   25.1430   35.8130 C   0  0  0  0  0  0  0  0  0  0  0  0
   38.4620   26.3900   36.3810 C   0  0  0  0  0  0  0  0  0  0  0  0
   38.1160   27.5510   35.7540 C   0  0  0  0  0  0  0  0  0  0  0  0
   37.5350   27.4890   34.4930 C   0  0  0  0  0  0  0  0  0  0  0  0
   37.3380   26.2500   33.9410 C   0  0  0  0  0  0  0  0  0  0  0  0
   37.6880   25.0890   34.5770 N   0  0  0  0  0  0  0  0  0  0  0  0
   36.7180   26.3040   32.6100 C   0  0  0  0  0  0  0  0  0  0  0  0
   36.5380   27.3080   31.7340 N   0  0  0  0  0  0  0  0  0  0  0  0
   35.9310   26.8650   30.6730 O   0  0  0  0  0  0  0  0  0  0  0  0
   35.7010   25.5650   30.8310 C   0  0  0  0  0  0  0  0  0  0  0  0
   36.1880   25.2080   32.0350 N   0  0  0  0  0  0  0  0  0  0  0  0
   43.3607   21.9641   36.6997 H   0  0  0  0  0  0  0  0  0  0  0  0
   41.4014   20.6798   37.6433 H   0  0  0  0  0  0  0  0  0  0  0  0
   42.5291   24.4528   33.2933 H   0  0  0  0  0  0  0  0  0  0  0  0
   45.7709   25.3034   38.9765 H   0  0  0  0  0  0  0  0  0  0  0  0
   47.6847   27.3924   35.2815 H   0  0  0  0  0  0  0  0  0  0  0  0
   46.6310   27.0133   33.8928 H   0  0  0  0  0  0  0  0  0  0  0  0
   38.9226   26.4461   37.3783 H   0  0  0  0  0  0  0  0  0  0  0  0
   38.2942   28.5219   36.2393 H   0  0  0  0  0  0  0  0  0  0  0  0
   37.2431   28.4035   33.9560 H   0  0  0  0  0  0  0  0  0  0  0  0
   35.2030   24.9011   30.1090 H   0  0  0  0  0  0  0  0  0  0  0  0
  1  2  2  0
  2  3  1  0
  4  3  2  0
  5  4  1  0
  6  1  1  0
  6  5  2  0
  7  1  1  0
  7 15  1  0
  8  7  1  0
  9  8  2  0
  9 10  1  0
 10 11  2  0
 10 15  1  0
 11 12  1  0
 12 13  2  0
 14 13  1  0
 15 14  2  0
 16 11  1  0
 17  5  1  0
 18 17  1  0
 18 19  2  0
 20 19  1  0
 21 20  2  0
 22 21  1  0
 22 23  2  0
 23 18  1  0
 24 22  1  0
 25 24  2  0
 26 27  1  0
 26 25  1  0
 27 28  2  0
 28 24  1  0
  2 29  1  0
  3 30  1  0
  8 31  1  0
 13 32  1  0
 16 33  1  0
 16 34  1  0
 19 35  1  0
 20 36  1  0
 21 37  1  0
 27 38  1  0
M  ISO  8  29  14  30  14  31  14  32  14  35  14  36  14  37  14  38  14
M  END
>  <minimizedAffinity>  (1) 
-6.04307747

>  <minimizedRMSD>  (1) 
0.574615002

$$$$
