
     RDKit          3D

 46 50  0  0  0  0  0  0  0  0999 V2000
   42.2370   23.4770   35.9560 C   0  0  0  0  0  0  0  0  0  0  0  0
   42.4380   22.3240   36.7080 C   0  0  0  0  0  0  0  0  0  0  0  0
   41.2980   21.6260   37.1180 C   0  0  0  0  0  0  0  0  0  0  0  0
   40.0830   22.0880   36.7730 N   0  0  0  0  0  0  0  0  0  0  0  0
   39.8940   23.2200   36.0350 C   0  0  0  0  0  0  0  0  0  0  0  0
   41.0010   23.8970   35.6390 N   0  0  0  0  0  0  0  0  0  0  0  0
   43.3420   24.2650   35.4870 N   0  0  0  0  0  0  0  0  0  0  0  0
   43.6130   24.5740   34.2050 C   0  0  0  0  0  0  0  0  0  0  0  0
   44.7370   25.3290   34.2100 N   0  0  0  0  0  0  0  0  0  0  0  0
   45.1440   25.4750   35.4730 C   0  0  0  0  0  0  0  0  0  0  0  0
   46.1920   26.1180   36.0850 C   0  0  0  0  0  0  0  0  0  0  0  0
   46.3440   26.0830   37.4480 N   0  0  0  0  0  0  0  0  0  0  0  0
   45.4450   25.4020   38.2330 C   0  0  0  0  0  0  0  0  0  0  0  0
   44.4100   24.7660   37.6420 N   0  0  0  0  0  0  0  0  0  0  0  0
   44.2700   24.8060   36.3030 C   0  0  0  0  0  0  0  0  0  0  0  0
   47.1390   26.8270   35.3360 N   0  0  0  0  0  0  0  0  0  0  0  0
   38.6800   23.7220   35.6660 O   0  0  0  0  0  0  0  0  0  0  0  0
   38.4070   25.0410   35.4920 C   0  0  0  0  0  0  0  0  0  0  0  0
   38.3910   26.1420   36.3330 C   0  0  0  0  0  0  0  0  0  0  0  0
   38.0740   27.3970   35.9000 C   0  0  0  0  0  0  0  0  0  0  0  0
   37.7510   27.5890   34.5690 C   0  0  0  0  0  0  0  0  0  0  0  0
   37.7680   26.4940   33.7440 C   0  0  0  0  0  0  0  0  0  0  0  0
   38.0890   25.2330   34.1820 N   0  0  0  0  0  0  0  0  0  0  0  0
   37.4040   26.8130   32.3260 C   0  0  0  0  0  0  0  0  0  0  0  0
   36.3770   27.8570   32.1730 C   0  0  0  0  0  0  0  0  0  0  0  0
   36.4440   28.0750   30.6630 C   0  0  0  0  0  0  0  0  0  0  0  0
   37.9400   28.0170   30.3820 C   0  0  0  0  0  0  0  0  0  0  0  0
   38.5980   27.4650   31.6240 C   0  0  0  0  0  0  0  0  0  0  0  0
   43.4488   21.9769   36.9685 H   0  0  0  0  0  0  0  0  0  0  0  0
   41.3939   20.7082   37.7167 H   0  0  0  0  0  0  0  0  0  0  0  0
   43.0319   24.2708   33.3216 H   0  0  0  0  0  0  0  0  0  0  0  0
   45.5662   25.3751   39.3260 H   0  0  0  0  0  0  0  0  0  0  0  0
   47.9190   27.3037   35.8107 H   0  0  0  0  0  0  0  0  0  0  0  0
   47.0556   26.8719   34.3104 H   0  0  0  0  0  0  0  0  0  0  0  0
   38.6443   25.9987   37.3938 H   0  0  0  0  0  0  0  0  0  0  0  0
   38.0754   28.2449   36.6007 H   0  0  0  0  0  0  0  0  0  0  0  0
   37.4894   28.5862   34.1853 H   0  0  0  0  0  0  0  0  0  0  0  0
   37.0632   25.8475   31.9240 H   0  0  0  0  0  0  0  0  0  0  0  0
   35.3850   27.5036   32.4909 H   0  0  0  0  0  0  0  0  0  0  0  0
   36.5403   28.7601   32.7794 H   0  0  0  0  0  0  0  0  0  0  0  0
   35.9080   27.2803   30.1234 H   0  0  0  0  0  0  0  0  0  0  0  0
   35.9748   29.0148   30.3365 H   0  0  0  0  0  0  0  0  0  0  0  0
   38.1385   27.3580   29.5239 H   0  0  0  0  0  0  0  0  0  0  0  0
   38.3339   29.0146   30.1377 H   0  0  0  0  0  0  0  0  0  0  0  0
   39.3729   26.7251   31.3751 H   0  0  0  0  0  0  0  0  0  0  0  0
   39.1231   28.2179   32.2302 H   0  0  0  0  0  0  0  0  0  0  0  0
  1  2  2  0
  2  3  1  0
  4  3  2  0
  5  4  1  0
  6  1  1  0
  6  5  2  0
  7  1  1  0
  7 15  1  0
  8  9  2  0
  8  7  1  0
  9 10  1  0
 10 11  1  0
 10 15  2  0
 11 12  2  0
 12 13  1  0
 14 13  2  0
 15 14  1  0
 16 11  1  0
 17  5  1  0
 18 17  1  0
 18 19  2  0
 20 19  1  0
 21 20  2  0
 22 23  2  0
 22 21  1  0
 23 18  1  0
 24 22  1  0
 25 24  1  0
 26 25  1  0
 27 26  1  0
 27 28  1  0
 28 24  1  0
  2 29  1  0
  3 30  1  0
  8 31  1  0
 13 32  1  0
 16 33  1  0
 16 34  1  0
 19 35  1  0
 20 36  1  0
 21 37  1  0
 24 38  1  0
 25 39  1  0
 25 40  1  0
 26 41  1  0
 26 42  1  0
 27 43  1  0
 27 44  1  0
 28 45  1  0
 28 46  1  0
M  ISO  8  29  14  30  14  31  14  32  14  35  14  36  14  37  14  38  13
M  ISO  8  39  13  40  13  41  13  42  13  43  13  44  13  45  13  46  13
M  END
>  <minimizedAffinity>  (1) 
-6.00467873

>  <minimizedRMSD>  (1) 
0.916806877

$$$$
