
     RDKit          3D

 43 47  0  0  0  0  0  0  0  0999 V2000
   42.4950   23.3940   35.8940 C   0  0  0  0  0  0  0  0  0  0  0  0
   42.5650   22.2460   36.6690 C   0  0  0  0  0  0  0  0  0  0  0  0
   41.3600   21.6040   36.9620 C   0  0  0  0  0  0  0  0  0  0  0  0
   40.2080   22.1150   36.4910 N   0  0  0  0  0  0  0  0  0  0  0  0
   40.1450   23.2440   35.7290 C   0  0  0  0  0  0  0  0  0  0  0  0
   41.3230   23.8660   35.4460 N   0  0  0  0  0  0  0  0  0  0  0  0
   43.6830   24.1280   35.5370 N   0  0  0  0  0  0  0  0  0  0  0  0
   44.1580   24.3100   34.2850 C   0  0  0  0  0  0  0  0  0  0  0  0
   45.2850   25.0530   34.4040 N   0  0  0  0  0  0  0  0  0  0  0  0
   45.4910   25.3160   35.6870 C   0  0  0  0  0  0  0  0  0  0  0  0
   46.4410   26.0060   36.4110 C   0  0  0  0  0  0  0  0  0  0  0  0
   46.3740   26.1010   37.7940 N   0  0  0  0  0  0  0  0  0  0  0  0
   45.3480   25.5030   38.4500 C   0  0  0  0  0  0  0  0  0  0  0  0
   44.4030   24.8210   37.7820 N   0  0  0  0  0  0  0  0  0  0  0  0
   44.4880   24.7410   36.4320 C   0  0  0  0  0  0  0  0  0  0  0  0
   47.5110   26.6340   35.7610 N   0  0  0  0  0  0  0  0  0  0  0  0
   39.0080   23.8030   35.2280 O   0  0  0  0  0  0  0  0  0  0  0  0
   38.6530   25.1060   35.3520 C   0  0  0  0  0  0  0  0  0  0  0  0
   38.5170   25.9600   36.4170 C   0  0  0  0  0  0  0  0  0  0  0  0
   38.1320   27.2720   36.2760 C   0  0  0  0  0  0  0  0  0  0  0  0
   37.8730   27.7540   35.0220 C   0  0  0  0  0  0  0  0  0  0  0  0
   38.0080   26.9050   33.9530 C   0  0  0  0  0  0  0  0  0  0  0  0
   38.3920   25.5970   34.1100 N   0  0  0  0  0  0  0  0  0  0  0  0
   37.7360   27.3950   32.5970 C   0  0  0  0  0  0  0  0  0  0  0  0
   38.5260   27.1490   31.5040 C   0  0  0  0  0  0  0  0  0  0  0  0
   38.2290   27.6310   30.2460 C   0  0  0  0  0  0  0  0  0  0  0  0
   37.0910   28.4000   30.0420 C   0  0  0  0  0  0  0  0  0  0  0  0
   36.2640   28.6750   31.1120 C   0  0  0  0  0  0  0  0  0  0  0  0
   36.6190   28.1620   32.3420 C   0  0  0  0  0  0  0  0  0  0  0  0
   43.5267   21.8585   37.0364 H   0  0  0  0  0  0  0  0  0  0  0  0
   41.3528   20.6889   37.5723 H   0  0  0  0  0  0  0  0  0  0  0  0
   43.7164   23.9296   33.3521 H   0  0  0  0  0  0  0  0  0  0  0  0
   45.2891   25.5778   39.5459 H   0  0  0  0  0  0  0  0  0  0  0  0
   48.2164   27.1474   36.3085 H   0  0  0  0  0  0  0  0  0  0  0  0
   47.5924   26.5825   34.7355 H   0  0  0  0  0  0  0  0  0  0  0  0
   38.7250   25.5783   37.4275 H   0  0  0  0  0  0  0  0  0  0  0  0
   38.0338   27.9236   37.1568 H   0  0  0  0  0  0  0  0  0  0  0  0
   37.5634   28.7991   34.8743 H   0  0  0  0  0  0  0  0  0  0  0  0
   39.4341   26.5423   31.6355 H   0  0  0  0  0  0  0  0  0  0  0  0
   38.8963   27.4052   29.4012 H   0  0  0  0  0  0  0  0  0  0  0  0
   36.8516   28.7853   29.0399 H   0  0  0  0  0  0  0  0  0  0  0  0
   35.3546   29.2814   30.9883 H   0  0  0  0  0  0  0  0  0  0  0  0
   35.9553   28.3833   33.1908 H   0  0  0  0  0  0  0  0  0  0  0  0
  1  2  2  0
  2  3  1  0
  4  3  2  0
  5  4  1  0
  6  5  2  0
  6  1  1  0
  7  1  1  0
  7 15  1  0
  8  9  2  0
  8  7  1  0
  9 10  1  0
 10 11  1  0
 10 15  2  0
 11 12  2  0
 12 13  1  0
 14 13  2  0
 15 14  1  0
 16 11  1  0
 17 18  1  0
 17  5  1  0
 18 19  2  0
 20 19  1  0
 21 20  2  0
 22 23  2  0
 22 21  1  0
 23 18  1  0
 24 22  1  0
 25 24  2  0
 26 25  1  0
 27 26  2  0
 27 28  1  0
 28 29  2  0
 29 24  1  0
  2 30  1  0
  3 31  1  0
  8 32  1  0
 13 33  1  0
 16 34  1  0
 16 35  1  0
 19 36  1  0
 20 37  1  0
 21 38  1  0
 25 39  1  0
 26 40  1  0
 27 41  1  0
 28 42  1  0
 29 43  1  0
M  ISO  8  30  14  31  14  32  14  33  14  36  14  37  14  38  14  39  14
M  ISO  4  40  14  41  14  42  14  43  14
M  END
>  <minimizedAffinity>  (1) 
-5.9763999

>  <minimizedRMSD>  (1) 
1.50093508

$$$$
