
     RDKit          3D

 41 45  0  0  0  0  0  0  0  0999 V2000
   42.2490   23.3860   36.0230 C   0  0  0  0  0  0  0  0  0  0  0  0
   42.5510   22.1690   36.6130 C   0  0  0  0  0  0  0  0  0  0  0  0
   41.4860   21.4380   37.1460 C   0  0  0  0  0  0  0  0  0  0  0  0
   40.2400   21.9340   37.0680 N   0  0  0  0  0  0  0  0  0  0  0  0
   39.9470   23.1340   36.4860 C   0  0  0  0  0  0  0  0  0  0  0  0
   40.9870   23.8440   35.9670 N   0  0  0  0  0  0  0  0  0  0  0  0
   43.2740   24.2140   35.4440 N   0  0  0  0  0  0  0  0  0  0  0  0
   43.4050   24.5280   34.1400 C   0  0  0  0  0  0  0  0  0  0  0  0
   44.4960   25.3230   34.0360 N   0  0  0  0  0  0  0  0  0  0  0  0
   45.0180   25.4890   35.2470 C   0  0  0  0  0  0  0  0  0  0  0  0
   46.0970   26.1720   35.7580 C   0  0  0  0  0  0  0  0  0  0  0  0
   46.3860   26.1500   37.1080 N   0  0  0  0  0  0  0  0  0  0  0  0
   45.5950   25.4430   37.9540 C   0  0  0  0  0  0  0  0  0  0  0  0
   44.5290   24.7620   37.4860 N   0  0  0  0  0  0  0  0  0  0  0  0
   44.2600   24.7940   36.1680 C   0  0  0  0  0  0  0  0  0  0  0  0
   46.9440   26.9180   34.9200 N   0  0  0  0  0  0  0  0  0  0  0  0
   38.7050   23.6800   36.3820 O   0  0  0  0  0  0  0  0  0  0  0  0
   38.4410   24.9550   36.0130 C   0  0  0  0  0  0  0  0  0  0  0  0
   38.6560   26.1900   36.5830 C   0  0  0  0  0  0  0  0  0  0  0  0
   38.2910   27.3700   36.0040 C   0  0  0  0  0  0  0  0  0  0  0  0
   37.6710   27.3270   34.7750 C   0  0  0  0  0  0  0  0  0  0  0  0
   37.4470   26.1070   34.1880 C   0  0  0  0  0  0  0  0  0  0  0  0
   37.8270   24.9350   34.8000 N   0  0  0  0  0  0  0  0  0  0  0  0
   36.7850   26.0070   32.8720 C   0  0  0  0  0  0  0  0  0  0  0  0
   36.5600   24.8010   32.2620 C   0  0  0  0  0  0  0  0  0  0  0  0
   35.9470   24.6520   31.0350 C   0  0  0  0  0  0  0  0  0  0  0  0
   35.5500   25.7920   30.4100 N   0  0  0  0  0  0  0  0  0  0  0  0
   35.7870   26.9800   31.0370 C   0  0  0  0  0  0  0  0  0  0  0  0
   36.3870   27.0920   32.2340 N   0  0  0  0  0  0  0  0  0  0  0  0
   43.5843   21.7946   36.6597 H   0  0  0  0  0  0  0  0  0  0  0  0
   41.6664   20.4646   37.6254 H   0  0  0  0  0  0  0  0  0  0  0  0
   42.7511   24.2012   33.3180 H   0  0  0  0  0  0  0  0  0  0  0  0
   45.8249   25.4251   39.0296 H   0  0  0  0  0  0  0  0  0  0  0  0
   47.7478   27.4237   35.3187 H   0  0  0  0  0  0  0  0  0  0  0  0
   46.7608   26.9588   33.9073 H   0  0  0  0  0  0  0  0  0  0  0  0
   39.1519   26.2272   37.5642 H   0  0  0  0  0  0  0  0  0  0  0  0
   38.4865   28.3296   36.5050 H   0  0  0  0  0  0  0  0  0  0  0  0
   37.3606   28.2549   34.2724 H   0  0  0  0  0  0  0  0  0  0  0  0
   36.8899   23.8913   32.7851 H   0  0  0  0  0  0  0  0  0  0  0  0
   35.7876   23.6609   30.5853 H   0  0  0  0  0  0  0  0  0  0  0  0
   35.4672   27.9032   30.5315 H   0  0  0  0  0  0  0  0  0  0  0  0
  1  2  2  0
  2  3  1  0
  4  3  2  0
  5  4  1  0
  6  1  1  0
  6  5  2  0
  7  1  1  0
  7 15  1  0
  8  7  1  0
  9  8  2  0
  9 10  1  0
 10 11  2  0
 10 15  1  0
 11 12  1  0
 12 13  2  0
 14 13  1  0
 15 14  2  0
 16 11  1  0
 17  5  1  0
 18 17  1  0
 18 19  2  0
 20 19  1  0
 21 20  2  0
 22 21  1  0
 22 23  2  0
 23 18  1  0
 24 22  1  0
 25 24  2  0
 26 25  1  0
 27 26  2  0
 27 28  1  0
 28 29  2  0
 29 24  1  0
  2 30  1  0
  3 31  1  0
  8 32  1  0
 13 33  1  0
 16 34  1  0
 16 35  1  0
 19 36  1  0
 20 37  1  0
 21 38  1  0
 25 39  1  0
 26 40  1  0
 28 41  1  0
M  ISO  8  30  14  31  14  32  14  33  14  36  14  37  14  38  14  39  14
M  ISO  2  40  14  41  14
M  END
>  <minimizedAffinity>  (1) 
-5.88653231

>  <minimizedRMSD>  (1) 
0.727049589

$$$$
