
     RDKit          3D

 34 37  0  0  0  0  0  0  0  0999 V2000
   41.8390   23.4430   35.8740 C   0  0  0  0  0  0  0  0  0  0  0  0
   42.1150   22.3820   36.7250 C   0  0  0  0  0  0  0  0  0  0  0  0
   41.0480   21.8560   37.4400 C   0  0  0  0  0  0  0  0  0  0  0  0
   39.8200   22.3810   37.2860 N   0  0  0  0  0  0  0  0  0  0  0  0
   39.5520   23.4220   36.4500 C   0  0  0  0  0  0  0  0  0  0  0  0
   40.5960   23.9400   35.7470 N   0  0  0  0  0  0  0  0  0  0  0  0
   42.8720   24.0670   35.0820 N   0  0  0  0  0  0  0  0  0  0  0  0
   42.9830   24.0430   33.7450 C   0  0  0  0  0  0  0  0  0  0  0  0
   44.0920   24.7520   33.4250 N   0  0  0  0  0  0  0  0  0  0  0  0
   44.6460   25.1980   34.5540 C   0  0  0  0  0  0  0  0  0  0  0  0
   45.7550   25.9530   34.8640 C   0  0  0  0  0  0  0  0  0  0  0  0
   46.0790   26.2600   36.1710 N   0  0  0  0  0  0  0  0  0  0  0  0
   45.2870   25.8100   37.1800 C   0  0  0  0  0  0  0  0  0  0  0  0
   44.1940   25.0690   36.8960 N   0  0  0  0  0  0  0  0  0  0  0  0
   43.8940   24.7800   35.6260 C   0  0  0  0  0  0  0  0  0  0  0  0
   46.5900   26.4300   33.8400 N   0  0  0  0  0  0  0  0  0  0  0  0
   38.3270   23.9890   36.2590 O   0  0  0  0  0  0  0  0  0  0  0  0
   38.1090   25.2180   35.7240 C   0  0  0  0  0  0  0  0  0  0  0  0
   38.2790   26.5100   36.1950 C   0  0  0  0  0  0  0  0  0  0  0  0
   37.9790   27.6150   35.4510 C   0  0  0  0  0  0  0  0  0  0  0  0
   37.4820   27.4380   34.1650 C   0  0  0  0  0  0  0  0  0  0  0  0
   37.3160   26.1560   33.7080 C   0  0  0  0  0  0  0  0  0  0  0  0
   37.6220   25.0620   34.4690 N   0  0  0  0  0  0  0  0  0  0  0  0
   36.6680   26.0650   32.0360 S   0  0  0  0  0  0  0  0  0  0  0  0
   43.1324   21.9767   36.8281 H   0  0  0  0  0  0  0  0  0  0  0  0
   41.2064   21.0136   38.1294 H   0  0  0  0  0  0  0  0  0  0  0  0
   42.3018   23.5420   33.0414 H   0  0  0  0  0  0  0  0  0  0  0  0
   45.5355   26.0486   38.2247 H   0  0  0  0  0  0  0  0  0  0  0  0
   47.4193   26.9947   34.0728 H   0  0  0  0  0  0  0  0  0  0  0  0
   46.3729   26.2151   32.8564 H   0  0  0  0  0  0  0  0  0  0  0  0
   38.6727   26.6516   37.2123 H   0  0  0  0  0  0  0  0  0  0  0  0
   38.1276   28.6248   35.8611 H   0  0  0  0  0  0  0  0  0  0  0  0
   37.2292   28.3015   33.5322 H   0  0  0  0  0  0  0  0  0  0  0  0
   35.3121   25.8746   32.0815 H   0  0  0  0  0  0  0  0  0  0  0  0
  1  2  2  0
  2  3  1  0
  4  3  2  0
  5  4  1  0
  6  1  1  0
  6  5  2  0
  7 15  1  0
  7  1  1  0
  8  7  1  0
  9  8  2  0
  9 10  1  0
 10 11  2  0
 10 15  1  0
 11 12  1  0
 12 13  2  0
 14 13  1  0
 15 14  2  0
 16 11  1  0
 17  5  1  0
 18 19  2  0
 18 17  1  0
 20 19  1  0
 21 20  2  0
 22 21  1  0
 22 23  2  0
 23 18  1  0
 24 22  1  0
  2 25  1  0
  3 26  1  0
  8 27  1  0
 13 28  1  0
 16 29  1  0
 16 30  1  0
 19 31  1  0
 20 32  1  0
 21 33  1  0
 24 34  1  0
M  ISO  8  25  14  26  14  27  14  28  14  31  14  32  14  33  14  34  11
M  END
>  <minimizedAffinity>  (1) 
-5.33486271

>  <minimizedRMSD>  (1) 
0.0302410945

$$$$
