
     RDKit          3D

 35 38  0  0  0  0  0  0  0  0999 V2000
   41.8850   23.4140   35.8740 C   0  0  0  0  0  0  0  0  0  0  0  0
   42.1640   22.3390   36.7040 C   0  0  0  0  0  0  0  0  0  0  0  0
   41.0950   21.7950   37.4240 C   0  0  0  0  0  0  0  0  0  0  0  0
   39.8670   22.3350   37.2780 N   0  0  0  0  0  0  0  0  0  0  0  0
   39.6000   23.3930   36.4610 C   0  0  0  0  0  0  0  0  0  0  0  0
   40.6410   23.9180   35.7620 N   0  0  0  0  0  0  0  0  0  0  0  0
   42.9100   24.0480   35.0890 N   0  0  0  0  0  0  0  0  0  0  0  0
   43.0210   24.0240   33.7420 C   0  0  0  0  0  0  0  0  0  0  0  0
   44.1310   24.7530   33.4350 N   0  0  0  0  0  0  0  0  0  0  0  0
   44.6650   25.1980   34.5500 C   0  0  0  0  0  0  0  0  0  0  0  0
   45.7590   25.9560   34.8550 C   0  0  0  0  0  0  0  0  0  0  0  0
   46.0940   26.2750   36.1700 N   0  0  0  0  0  0  0  0  0  0  0  0
   45.3030   25.8150   37.1940 C   0  0  0  0  0  0  0  0  0  0  0  0
   44.2180   25.0640   36.9090 N   0  0  0  0  0  0  0  0  0  0  0  0
   43.9210   24.7730   35.6300 C   0  0  0  0  0  0  0  0  0  0  0  0
   46.6210   26.4530   33.8560 N   0  0  0  0  0  0  0  0  0  0  0  0
   38.3740   23.9630   36.2900 O   0  0  0  0  0  0  0  0  0  0  0  0
   38.1620   25.2200   35.8280 C   0  0  0  0  0  0  0  0  0  0  0  0
   38.3600   26.4880   36.3500 C   0  0  0  0  0  0  0  0  0  0  0  0
   38.0520   27.6280   35.6570 C   0  0  0  0  0  0  0  0  0  0  0  0
   37.5220   27.5220   34.3870 C   0  0  0  0  0  0  0  0  0  0  0  0
   37.3310   26.2600   33.8830 C   0  0  0  0  0  0  0  0  0  0  0  0
   37.6380   25.1270   34.5730 N   0  0  0  0  0  0  0  0  0  0  0  0
   36.7740   26.2600   32.5530 N   0  0  0  0  0  0  0  0  0  0  0  0
   43.1819   21.9315   36.7925 H   0  0  0  0  0  0  0  0  0  0  0  0
   41.2530   20.9405   38.0985 H   0  0  0  0  0  0  0  0  0  0  0  0
   42.3489   23.5168   33.0341 H   0  0  0  0  0  0  0  0  0  0  0  0
   45.5515   26.0565   38.2380 H   0  0  0  0  0  0  0  0  0  0  0  0
   47.4386   27.0222   34.1177 H   0  0  0  0  0  0  0  0  0  0  0  0
   46.4331   26.2469   32.8645 H   0  0  0  0  0  0  0  0  0  0  0  0
   38.7815   26.5827   37.3616 H   0  0  0  0  0  0  0  0  0  0  0  0
   38.2249   28.6167   36.1071 H   0  0  0  0  0  0  0  0  0  0  0  0
   37.2624   28.4158   33.8007 H   0  0  0  0  0  0  0  0  0  0  0  0
   36.5871   25.3681   32.0729 H   0  0  0  0  0  0  0  0  0  0  0  0
   36.5630   27.1519   32.0830 H   0  0  0  0  0  0  0  0  0  0  0  0
  1  2  2  0
  2  3  1  0
  4  3  2  0
  5  4  1  0
  6  1  1  0
  6  5  2  0
  7 15  1  0
  7  1  1  0
  8  7  1  0
  9  8  2  0
  9 10  1  0
 10 11  2  0
 10 15  1  0
 11 12  1  0
 12 13  2  0
 14 13  1  0
 15 14  2  0
 16 11  1  0
 17  5  1  0
 18 17  1  0
 18 19  2  0
 20 19  1  0
 21 20  2  0
 22 21  1  0
 22 23  2  0
 23 18  1  0
 24 22  1  0
  2 25  1  0
  3 26  1  0
  8 27  1  0
 13 28  1  0
 16 29  1  0
 16 30  1  0
 19 31  1  0
 20 32  1  0
 21 33  1  0
 24 34  1  0
 24 35  1  0
M  ISO  7  25  14  26  14  27  14  28  14  31  14  32  14  33  14
M  END
>  <minimizedAffinity>  (1) 
-5.31310368

>  <minimizedRMSD>  (1) 
0.0910352618

$$$$
