
     RDKit          3D

 30 32  0  0  0  0  0  0  0  0999 V2000
   38.4850   23.2530   38.3490 C   0  0  0  0  0  0  0  0  0  0  0  0
   37.9920   24.3910   37.7030 C   0  0  0  0  0  0  0  0  0  0  0  0
   38.6540   24.8460   36.5650 C   0  0  0  0  0  0  0  0  0  0  0  0
   39.7390   24.1680   36.1400 N   0  0  0  0  0  0  0  0  0  0  0  0
   40.2070   23.0710   36.7700 C   0  0  0  0  0  0  0  0  0  0  0  0
   39.5690   22.6140   37.8860 N   0  0  0  0  0  0  0  0  0  0  0  0
   38.1980   26.0000   35.8640 N   0  0  0  0  0  0  0  0  0  0  0  0
   37.0470   25.9990   35.1760 C   0  0  0  0  0  0  0  0  0  0  0  0
   36.9110   27.2430   34.6350 C   0  0  0  0  0  0  0  0  0  0  0  0
   37.9790   27.9820   35.0000 N   0  0  0  0  0  0  0  0  0  0  0  0
   38.7920   27.2060   35.7740 C   0  0  0  0  0  0  0  0  0  0  0  0
   41.3490   22.3340   36.3460 N   0  0  0  0  0  0  0  0  0  0  0  0
   41.8500   21.2300   36.9380 C   0  0  0  0  0  0  0  0  0  0  0  0
   42.9660   20.5930   36.4420 C   0  0  0  0  0  0  0  0  0  0  0  0
   43.4630   19.3710   37.1540 C   0  0  0  0  0  0  0  0  0  0  0  0
   43.5950   21.0810   35.3190 C   0  0  0  0  0  0  0  0  0  0  0  0
   44.6120   20.5140   34.8520 O   0  0  0  0  0  0  0  0  0  0  0  0
   43.0790   22.1820   34.7460 N   0  0  0  0  0  0  0  0  0  0  0  0
   41.9730   22.8100   35.2410 C   0  0  0  0  0  0  0  0  0  0  0  0
   41.5960   23.8370   34.6010 O   0  0  0  0  0  0  0  0  0  0  0  0
   37.9767   22.8770   39.2491 H   0  0  0  0  0  0  0  0  0  0  0  0
   37.1028   24.9143   38.0843 H   0  0  0  0  0  0  0  0  0  0  0  0
   36.3475   25.1569   35.0688 H   0  0  0  0  0  0  0  0  0  0  0  0
   36.0742   27.5853   34.0085 H   0  0  0  0  0  0  0  0  0  0  0  0
   39.7450   27.5061   36.2340 H   0  0  0  0  0  0  0  0  0  0  0  0
   41.3566   20.8300   37.8361 H   0  0  0  0  0  0  0  0  0  0  0  0
   43.3990   19.5284   38.2408 H   0  0  0  0  0  0  0  0  0  0  0  0
   42.8454   18.5056   36.8718 H   0  0  0  0  0  0  0  0  0  0  0  0
   44.5093   19.1823   36.8718 H   0  0  0  0  0  0  0  0  0  0  0  0
   43.5337   22.5647   33.9048 H   0  0  0  0  0  0  0  0  0  0  0  0
  2  1  2  0
  3  2  1  0
  4  3  2  0
  4  5  1  0
  5  6  2  0
  6  1  1  0
  7  3  1  0
  8  7  1  0
  9 10  1  0
  9  8  2  0
 10 11  2  0
 11  7  1  0
 12  5  1  0
 12 13  1  0
 14 13  2  0
 14 15  1  0
 16 14  1  0
 17 16  2  0
 18 19  1  0
 18 16  1  0
 19 12  1  0
 20 19  2  0
  1 21  1  0
  2 22  1  0
  8 23  1  0
  9 24  1  0
 11 25  1  0
 13 26  1  0
 15 27  1  0
 15 28  1  0
 15 29  1  0
 18 30  1  0
M  ISO  8  21  14  22  14  23  14  24  14  25  14  26  14  27   8  28   8
M  ISO  2  29   8  30   9
M  END
>  <minimizedAffinity>  (1) 
-4.72388983

>  <minimizedRMSD>  (1) 
3.40775561

$$$$
