
     RDKit          3D

 27 29  0  0  0  0  0  0  0  0999 V2000
   38.3930   23.6330   38.0120 C   0  0  0  0  0  0  0  0  0  0  0  0
   37.9960   24.5650   37.0230 C   0  0  0  0  0  0  0  0  0  0  0  0
   38.8620   24.7160   35.9260 C   0  0  0  0  0  0  0  0  0  0  0  0
   39.9980   23.9780   35.8770 N   0  0  0  0  0  0  0  0  0  0  0  0
   40.3280   23.1060   36.8420 C   0  0  0  0  0  0  0  0  0  0  0  0
   39.5280   22.9300   37.9110 N   0  0  0  0  0  0  0  0  0  0  0  0
   38.5380   25.6390   34.8770 N   0  0  0  0  0  0  0  0  0  0  0  0
   37.5080   25.3990   34.0470 C   0  0  0  0  0  0  0  0  0  0  0  0
   37.4790   26.4590   33.1820 C   0  0  0  0  0  0  0  0  0  0  0  0
   38.4780   27.3120   33.5010 N   0  0  0  0  0  0  0  0  0  0  0  0
   39.1370   26.7930   34.5640 C   0  0  0  0  0  0  0  0  0  0  0  0
   41.5620   22.3400   36.7370 C   0  0  0  0  0  0  0  0  0  0  0  0
   42.6660   22.8720   36.1040 C   0  0  0  0  0  0  0  0  0  0  0  0
   43.8370   22.1460   36.0020 C   0  0  0  0  0  0  0  0  0  0  0  0
   43.8970   20.8730   36.5450 C   0  0  0  0  0  0  0  0  0  0  0  0
   42.8020   20.3080   37.1900 C   0  0  0  0  0  0  0  0  0  0  0  0
   41.6470   21.0710   37.2690 C   0  0  0  0  0  0  0  0  0  0  0  0
   37.7489   23.4817   38.8908 H   0  0  0  0  0  0  0  0  0  0  0  0
   37.0616   25.1392   37.1083 H   0  0  0  0  0  0  0  0  0  0  0  0
   36.8307   24.5324   34.0604 H   0  0  0  0  0  0  0  0  0  0  0  0
   36.7598   26.5948   32.3608 H   0  0  0  0  0  0  0  0  0  0  0  0
   40.0037   27.2378   35.0749 H   0  0  0  0  0  0  0  0  0  0  0  0
   42.6136   23.8841   35.6763 H   0  0  0  0  0  0  0  0  0  0  0  0
   44.7136   22.5748   35.4943 H   0  0  0  0  0  0  0  0  0  0  0  0
   44.8305   20.2968   36.4643 H   0  0  0  0  0  0  0  0  0  0  0  0
   42.8503   19.2967   37.6201 H   0  0  0  0  0  0  0  0  0  0  0  0
   40.7663   20.6483   37.7747 H   0  0  0  0  0  0  0  0  0  0  0  0
  2  1  2  0
  3  2  1  0
  4  3  2  0
  4  5  1  0
  5  6  2  0
  6  1  1  0
  7  3  1  0
  8  7  1  0
  9 10  1  0
  9  8  2  0
 10 11  2  0
 11  7  1  0
 12  5  1  0
 12 17  1  0
 13 12  2  0
 14 13  1  0
 14 15  2  0
 15 16  1  0
 16 17  2  0
  1 18  1  0
  2 19  1  0
  8 20  1  0
  9 21  1  0
 11 22  1  0
 13 23  1  0
 14 24  1  0
 15 25  1  0
 16 26  1  0
 17 27  1  0
M  ISO  8  18  14  19  14  20  14  21  14  22  14  23  14  24  14  25  14
M  ISO  2  26  14  27  14
M  END
>  <minimizedAffinity>  (1) 
-4.59235287

>  <minimizedRMSD>  (1) 
3.64307356

$$$$
