
     RDKit          3D

 30 32  0  0  0  0  0  0  0  0999 V2000
   38.2080   23.2610   38.3710 C   0  0  0  0  0  0  0  0  0  0  0  0
   37.7330   24.3680   37.6350 C   0  0  0  0  0  0  0  0  0  0  0  0
   38.5520   24.8400   36.6050 C   0  0  0  0  0  0  0  0  0  0  0  0
   39.7250   24.2230   36.3790 N   0  0  0  0  0  0  0  0  0  0  0  0
   40.1490   23.1710   37.0970 C   0  0  0  0  0  0  0  0  0  0  0  0
   39.3810   22.6930   38.0970 N   0  0  0  0  0  0  0  0  0  0  0  0
   38.1420   25.9630   35.8090 N   0  0  0  0  0  0  0  0  0  0  0  0
   37.1190   25.8720   34.9460 C   0  0  0  0  0  0  0  0  0  0  0  0
   37.0060   27.1050   34.3680 C   0  0  0  0  0  0  0  0  0  0  0  0
   37.9460   27.9110   34.8820 N   0  0  0  0  0  0  0  0  0  0  0  0
   38.6690   27.2000   35.7930 C   0  0  0  0  0  0  0  0  0  0  0  0
   43.8870   21.3470   36.2530 C   0  0  0  0  0  0  0  0  0  0  0  0
   43.6900   22.6790   35.9620 C   0  0  0  0  0  0  0  0  0  0  0  0
   42.4530   23.2550   36.2480 C   0  0  0  0  0  0  0  0  0  0  0  0
   41.4300   22.5370   36.8090 C   0  0  0  0  0  0  0  0  0  0  0  0
   41.6440   21.2130   37.0920 C   0  0  0  0  0  0  0  0  0  0  0  0
   42.8710   20.6070   36.8170 C   0  0  0  0  0  0  0  0  0  0  0  0
   45.4810   20.7680   35.8390 S   0  0  0  0  0  0  0  0  0  0  0  0
   45.8390   19.5600   36.6740 O   0  0  0  0  0  0  0  0  0  0  0  0
   46.4820   21.8670   36.1020 O   0  0  0  0  0  0  0  0  0  0  0  0
   37.5947   22.8579   39.1904 H   0  0  0  0  0  0  0  0  0  0  0  0
   36.7641   24.8371   37.8613 H   0  0  0  0  0  0  0  0  0  0  0  0
   36.4984   24.9864   34.7449 H   0  0  0  0  0  0  0  0  0  0  0  0
   36.2654   27.3896   33.6061 H   0  0  0  0  0  0  0  0  0  0  0  0
   39.5144   27.5651   36.3947 H   0  0  0  0  0  0  0  0  0  0  0  0
   44.4951   23.2781   35.5116 H   0  0  0  0  0  0  0  0  0  0  0  0
   42.2936   24.3184   36.0161 H   0  0  0  0  0  0  0  0  0  0  0  0
   40.8358   20.6185   37.5431 H   0  0  0  0  0  0  0  0  0  0  0  0
   43.0260   19.5431   37.0496 H   0  0  0  0  0  0  0  0  0  0  0  0
   45.4991   20.4106   34.5166 H   0  0  0  0  0  0  0  0  0  0  0  0
  2  1  2  0
  3  2  1  0
  4  3  2  0
  4  5  1  0
  5  6  2  0
  6  1  1  0
  7  3  1  0
  8  7  1  0
  9 10  1  0
  9  8  2  0
 10 11  2  0
 11  7  1  0
 12 17  2  0
 13 14  2  0
 13 12  1  0
 14 15  1  0
 15 16  2  0
 15  5  1  0
 17 16  1  0
 18 20  2  0
 18 12  1  0
 18 19  2  0
  1 21  1  0
  2 22  1  0
  8 23  1  0
  9 24  1  0
 11 25  1  0
 13 26  1  0
 14 27  1  0
 16 28  1  0
 17 29  1  0
 18 30  1  0
M  ISO  8  21  14  22  14  23  14  24  14  25  14  26  14  27  14  28  14
M  ISO  2  29  14  30  11
M  END
>  <minimizedAffinity>  (1) 
-4.56104851

>  <minimizedRMSD>  (1) 
4.36414099

$$$$
