
     RDKit          3D

 24 26  0  0  0  0  0  0  0  0999 V2000
   38.2200   23.8790   38.0780 C   0  0  0  0  0  0  0  0  0  0  0  0
   38.0050   24.7980   37.0470 C   0  0  0  0  0  0  0  0  0  0  0  0
   38.8250   24.7680   35.9320 C   0  0  0  0  0  0  0  0  0  0  0  0
   39.8170   23.8290   35.8920 N   0  0  0  0  0  0  0  0  0  0  0  0
   39.9990   22.9560   36.9030 C   0  0  0  0  0  0  0  0  0  0  0  0
   39.2070   22.9800   37.9890 N   0  0  0  0  0  0  0  0  0  0  0  0
   38.6560   25.6850   34.8390 N   0  0  0  0  0  0  0  0  0  0  0  0
   37.5860   25.5760   34.0320 C   0  0  0  0  0  0  0  0  0  0  0  0
   37.7440   26.5960   33.1140 C   0  0  0  0  0  0  0  0  0  0  0  0
   38.8780   27.2720   33.3920 N   0  0  0  0  0  0  0  0  0  0  0  0
   39.4510   26.7000   34.4760 C   0  0  0  0  0  0  0  0  0  0  0  0
   41.0640   22.0050   36.7790 C   0  0  0  0  0  0  0  0  0  0  0  0
   41.7150   21.1950   37.5890 C   0  0  0  0  0  0  0  0  0  0  0  0
   42.7220   20.3650   37.1960 C   0  0  0  0  0  0  0  0  0  0  0  0
   43.0120   20.4590   35.7920 C   0  0  0  0  0  0  0  0  0  0  0  0
   41.7710   21.7550   35.2060 S   0  0  0  0  0  0  0  0  0  0  0  0
   37.5738   23.8950   38.9680 H   0  0  0  0  0  0  0  0  0  0  0  0
   37.1934   25.5368   37.1208 H   0  0  0  0  0  0  0  0  0  0  0  0
   36.7697   24.8410   34.0898 H   0  0  0  0  0  0  0  0  0  0  0  0
   37.0544   26.8214   32.2872 H   0  0  0  0  0  0  0  0  0  0  0  0
   40.3873   27.0084   34.9641 H   0  0  0  0  0  0  0  0  0  0  0  0
   41.4272   21.1882   38.6507 H   0  0  0  0  0  0  0  0  0  0  0  0
   43.2573   19.6927   37.8827 H   0  0  0  0  0  0  0  0  0  0  0  0
   43.7667   19.9135   35.2064 H   0  0  0  0  0  0  0  0  0  0  0  0
  2  1  2  0
  3  2  1  0
  4  3  2  0
  4  5  1  0
  5  6  2  0
  6  1  1  0
  7  3  1  0
  8  7  1  0
  9 10  1  0
  9  8  2  0
 10 11  2  0
 11  7  1  0
 12  5  1  0
 12 13  2  0
 14 13  1  0
 15 14  2  0
 16 15  1  0
 16 12  1  0
  1 17  1  0
  2 18  1  0
  8 19  1  0
  9 20  1  0
 11 21  1  0
 13 22  1  0
 14 23  1  0
 15 24  1  0
M  ISO  8  17  14  18  14  19  14  20  14  21  14  22  14  23  14  24  14
M  END
>  <minimizedAffinity>  (1) 
-4.35273886

>  <minimizedRMSD>  (1) 
3.54077125

$$$$
