
     RDKit          3D

 32 34  0  0  0  0  0  0  0  0999 V2000
   38.5530   23.2130   38.2910 C   0  0  0  0  0  0  0  0  0  0  0  0
   38.0370   24.3860   37.6890 C   0  0  0  0  0  0  0  0  0  0  0  0
   38.6800   24.8270   36.5280 C   0  0  0  0  0  0  0  0  0  0  0  0
   39.7340   24.1210   36.0610 N   0  0  0  0  0  0  0  0  0  0  0  0
   40.1980   23.0060   36.6620 C   0  0  0  0  0  0  0  0  0  0  0  0
   39.5980   22.5600   37.7820 N   0  0  0  0  0  0  0  0  0  0  0  0
   38.2350   25.9990   35.8480 N   0  0  0  0  0  0  0  0  0  0  0  0
   37.0510   26.0010   35.1930 C   0  0  0  0  0  0  0  0  0  0  0  0
   36.9290   27.2570   34.6600 C   0  0  0  0  0  0  0  0  0  0  0  0
   38.0110   27.9750   34.9930 N   0  0  0  0  0  0  0  0  0  0  0  0
   38.8280   27.1910   35.7350 C   0  0  0  0  0  0  0  0  0  0  0  0
   41.3140   22.3300   36.0960 N   0  0  0  0  0  0  0  0  0  0  0  0
   41.5250   22.3850   34.6700 C   0  0  0  0  0  0  0  0  0  0  0  0
   42.0610   21.0660   34.2160 C   0  0  0  0  0  0  0  0  0  0  0  0
   43.3310   20.6530   34.9120 C   0  0  0  0  0  0  0  0  0  0  0  0
   43.4700   21.1770   36.2910 C   0  0  0  0  0  0  0  0  0  0  0  0
   42.1990   21.6110   36.9570 C   0  0  0  0  0  0  0  0  0  0  0  0
   38.0777   22.8291   39.2057 H   0  0  0  0  0  0  0  0  0  0  0  0
   37.1752   24.9226   38.1125 H   0  0  0  0  0  0  0  0  0  0  0  0
   36.3366   25.1690   35.1067 H   0  0  0  0  0  0  0  0  0  0  0  0
   36.0821   27.6173   34.0576 H   0  0  0  0  0  0  0  0  0  0  0  0
   39.7983   27.4810   36.1644 H   0  0  0  0  0  0  0  0  0  0  0  0
   40.5716   22.5922   34.1621 H   0  0  0  0  0  0  0  0  0  0  0  0
   42.2397   23.1849   34.4265 H   0  0  0  0  0  0  0  0  0  0  0  0
   41.2967   20.2977   34.4047 H   0  0  0  0  0  0  0  0  0  0  0  0
   42.3006   21.1686   33.1473 H   0  0  0  0  0  0  0  0  0  0  0  0
   43.3573   19.5542   34.9569 H   0  0  0  0  0  0  0  0  0  0  0  0
   44.1615   21.0776   34.3290 H   0  0  0  0  0  0  0  0  0  0  0  0
   43.9211   20.3862   36.9083 H   0  0  0  0  0  0  0  0  0  0  0  0
   44.0859   22.0843   36.2043 H   0  0  0  0  0  0  0  0  0  0  0  0
   42.4568   22.2582   37.8082 H   0  0  0  0  0  0  0  0  0  0  0  0
   41.6717   20.6971   37.2681 H   0  0  0  0  0  0  0  0  0  0  0  0
  2  1  2  0
  3  2  1  0
  4  3  2  0
  4  5  1  0
  5  6  2  0
  6  1  1  0
  7  3  1  0
  8  7  1  0
  9 10  1  0
  9  8  2  0
 10 11  2  0
 11  7  1  0
 12  5  1  0
 12 17  1  0
 13 12  1  0
 14 13  1  0
 14 15  1  0
 15 16  1  0
 16 17  1  0
  1 18  1  0
  2 19  1  0
  8 20  1  0
  9 21  1  0
 11 22  1  0
 13 23  1  0
 13 24  1  0
 14 25  1  0
 14 26  1  0
 15 27  1  0
 15 28  1  0
 16 29  1  0
 16 30  1  0
 17 31  1  0
 17 32  1  0
M  ISO  8  18  14  19  14  20  14  21  14  22  14  23  13  24  13  25  13
M  ISO  7  26  13  27  13  28  13  29  13  30  13  31  13  32  13
M  END
>  <minimizedAffinity>  (1) 
-4.18269348

>  <minimizedRMSD>  (1) 
3.16181731

$$$$
