
     RDKit          3D

 26 28  0  0  0  0  0  0  0  0999 V2000
   38.4090   23.4450   38.5220 C   0  0  0  0  0  0  0  0  0  0  0  0
   38.0030   24.5480   37.7410 C   0  0  0  0  0  0  0  0  0  0  0  0
   38.6920   24.7460   36.5330 C   0  0  0  0  0  0  0  0  0  0  0  0
   39.6850   23.9000   36.1750 N   0  0  0  0  0  0  0  0  0  0  0  0
   40.0380   22.8510   36.9620 C   0  0  0  0  0  0  0  0  0  0  0  0
   39.4020   22.6280   38.1280 N   0  0  0  0  0  0  0  0  0  0  0  0
   38.3510   25.8420   35.6710 N   0  0  0  0  0  0  0  0  0  0  0  0
   37.1730   25.8600   35.0050 C   0  0  0  0  0  0  0  0  0  0  0  0
   37.1660   27.0200   34.2900 C   0  0  0  0  0  0  0  0  0  0  0  0
   38.3130   27.6810   34.5230 N   0  0  0  0  0  0  0  0  0  0  0  0
   39.0610   26.9480   35.3880 C   0  0  0  0  0  0  0  0  0  0  0  0
   41.1150   21.9590   36.5430 C   0  0  0  0  0  0  0  0  0  0  0  0
   41.4740   21.8980   35.2110 C   0  0  0  0  0  0  0  0  0  0  0  0
   42.5030   21.0450   34.8190 C   0  0  0  0  0  0  0  0  0  0  0  0
   43.1030   20.3000   35.8260 C   0  0  0  0  0  0  0  0  0  0  0  0
   42.7460   20.3600   37.1520 C   0  0  0  0  0  0  0  0  0  0  0  0
   41.7560   21.1970   37.4470 N   0  0  0  0  0  0  0  0  0  0  0  0
   37.9004   23.2484   39.4773 H   0  0  0  0  0  0  0  0  0  0  0  0
   37.1905   25.2169   38.0610 H   0  0  0  0  0  0  0  0  0  0  0  0
   36.3831   25.0950   35.0348 H   0  0  0  0  0  0  0  0  0  0  0  0
   36.3543   27.3599   33.6300 H   0  0  0  0  0  0  0  0  0  0  0  0
   40.0549   27.2087   35.7808 H   0  0  0  0  0  0  0  0  0  0  0  0
   40.9522   22.5172   34.4665 H   0  0  0  0  0  0  0  0  0  0  0  0
   42.8229   20.9657   33.7695 H   0  0  0  0  0  0  0  0  0  0  0  0
   43.9177   19.6169   35.5437 H   0  0  0  0  0  0  0  0  0  0  0  0
   43.2477   19.7538   37.9206 H   0  0  0  0  0  0  0  0  0  0  0  0
  2  1  2  0
  3  2  1  0
  4  3  2  0
  4  5  1  0
  5  6  2  0
  6  1  1  0
  7  3  1  0
  8  7  1  0
  9 10  1  0
  9  8  2  0
 10 11  2  0
 11  7  1  0
 12  5  1  0
 12 17  1  0
 13 12  2  0
 14 13  1  0
 14 15  2  0
 15 16  1  0
 16 17  2  0
  1 18  1  0
  2 19  1  0
  8 20  1  0
  9 21  1  0
 11 22  1  0
 13 23  1  0
 14 24  1  0
 15 25  1  0
 16 26  1  0
M  ISO  8  18  14  19  14  20  14  21  14  22  14  23  14  24  14  25  14
M  ISO  1  26  14
M  END
>  <minimizedAffinity>  (1) 
-4.15189981

>  <minimizedRMSD>  (1) 
3.35630965

$$$$
