
     RDKit          3D

 30 32  0  0  0  0  0  0  0  0999 V2000
   38.3770   22.8820   37.3320 C   0  0  0  0  0  0  0  0  0  0  0  0
   37.7960   24.0930   36.9130 C   0  0  0  0  0  0  0  0  0  0  0  0
   38.5740   24.9200   36.0840 C   0  0  0  0  0  0  0  0  0  0  0  0
   39.8120   24.5210   35.7390 N   0  0  0  0  0  0  0  0  0  0  0  0
   40.3410   23.3510   36.1600 C   0  0  0  0  0  0  0  0  0  0  0  0
   39.6050   22.5390   36.9610 N   0  0  0  0  0  0  0  0  0  0  0  0
   38.0510   26.1720   35.6130 N   0  0  0  0  0  0  0  0  0  0  0  0
   37.0780   26.2160   34.6980 C   0  0  0  0  0  0  0  0  0  0  0  0
   36.8280   27.5400   34.4850 C   0  0  0  0  0  0  0  0  0  0  0  0
   37.6400   28.2760   35.2610 N   0  0  0  0  0  0  0  0  0  0  0  0
   38.4170   27.4180   35.9800 C   0  0  0  0  0  0  0  0  0  0  0  0
   41.6540   22.9600   35.7770 N   0  0  0  0  0  0  0  0  0  0  0  0
   42.4540   23.8130   34.9230 C   0  0  0  0  0  0  0  0  0  0  0  0
   43.9240   23.4710   35.0080 C   0  0  0  0  0  0  0  0  0  0  0  0
   44.2310   22.8260   36.2080 O   0  0  0  0  0  0  0  0  0  0  0  0
   43.6590   21.5690   36.1590 C   0  0  0  0  0  0  0  0  0  0  0  0
   42.1770   21.6990   36.2510 C   0  0  0  0  0  0  0  0  0  0  0  0
   37.8018   22.2050   37.9807 H   0  0  0  0  0  0  0  0  0  0  0  0
   36.7794   24.3796   37.2201 H   0  0  0  0  0  0  0  0  0  0  0  0
   36.5812   25.3610   34.2161 H   0  0  0  0  0  0  0  0  0  0  0  0
   36.0787   27.9417   33.7870 H   0  0  0  0  0  0  0  0  0  0  0  0
   39.1900   27.6878   36.7146 H   0  0  0  0  0  0  0  0  0  0  0  0
   42.3132   24.8592   35.2321 H   0  0  0  0  0  0  0  0  0  0  0  0
   42.1267   23.6608   33.8839 H   0  0  0  0  0  0  0  0  0  0  0  0
   44.1861   22.8092   34.1693 H   0  0  0  0  0  0  0  0  0  0  0  0
   44.4993   24.4074   34.9626 H   0  0  0  0  0  0  0  0  0  0  0  0
   43.9269   21.0799   35.2108 H   0  0  0  0  0  0  0  0  0  0  0  0
   44.0288   20.9625   36.9989 H   0  0  0  0  0  0  0  0  0  0  0  0
   41.8869   21.5817   37.3056 H   0  0  0  0  0  0  0  0  0  0  0  0
   41.7543   20.9207   35.5986 H   0  0  0  0  0  0  0  0  0  0  0  0
  2  1  2  0
  3  2  1  0
  4  3  2  0
  4  5  1  0
  5  6  2  0
  6  1  1  0
  7 11  1  0
  7  3  1  0
  8  7  1  0
  9  8  2  0
  9 10  1  0
 10 11  2  0
 12  5  1  0
 12 17  1  0
 13 14  1  0
 13 12  1  0
 14 15  1  0
 16 15  1  0
 16 17  1  0
  1 18  1  0
  2 19  1  0
  8 20  1  0
  9 21  1  0
 11 22  1  0
 13 23  1  0
 13 24  1  0
 14 25  1  0
 14 26  1  0
 16 27  1  0
 16 28  1  0
 17 29  1  0
 17 30  1  0
M  ISO  8  18  14  19  14  20  14  21  14  22  14  23  13  24  13  25  13
M  ISO  5  26  13  27  13  28  13  29  13  30  13
M  END
>  <minimizedAffinity>  (1) 
-4.0025177

>  <minimizedRMSD>  (1) 
3.45983791

$$$$
