
     RDKit          3D

 22 24  0  0  0  0  0  0  0  0999 V2000
   38.5760   23.2370   38.2930 C   0  0  0  0  0  0  0  0  0  0  0  0
   38.0620   24.3770   37.6720 C   0  0  0  0  0  0  0  0  0  0  0  0
   38.6860   24.8480   36.5280 C   0  0  0  0  0  0  0  0  0  0  0  0
   39.7740   24.1780   36.0580 N   0  0  0  0  0  0  0  0  0  0  0  0
   40.2600   23.0690   36.6750 C   0  0  0  0  0  0  0  0  0  0  0  0
   39.6520   22.6040   37.7980 N   0  0  0  0  0  0  0  0  0  0  0  0
   38.2130   26.0190   35.8320 N   0  0  0  0  0  0  0  0  0  0  0  0
   37.0470   25.9880   35.1680 C   0  0  0  0  0  0  0  0  0  0  0  0
   36.8990   27.2310   34.6350 C   0  0  0  0  0  0  0  0  0  0  0  0
   37.9510   27.9800   34.9740 N   0  0  0  0  0  0  0  0  0  0  0  0
   38.8010   27.2220   35.7390 C   0  0  0  0  0  0  0  0  0  0  0  0
   41.4310   22.4080   36.1080 C   0  0  0  0  0  0  0  0  0  0  0  0
   41.5810   21.6240   35.0260 N   0  0  0  0  0  0  0  0  0  0  0  0
   42.8300   21.2810   34.9470 O   0  0  0  0  0  0  0  0  0  0  0  0
   43.5430   21.7930   35.9230 C   0  0  0  0  0  0  0  0  0  0  0  0
   42.6650   22.5150   36.6730 N   0  0  0  0  0  0  0  0  0  0  0  0
   38.0919   22.8512   39.2023 H   0  0  0  0  0  0  0  0  0  0  0  0
   37.1800   24.8905   38.0824 H   0  0  0  0  0  0  0  0  0  0  0  0
   36.3565   25.1369   35.0744 H   0  0  0  0  0  0  0  0  0  0  0  0
   36.0486   27.5654   34.0227 H   0  0  0  0  0  0  0  0  0  0  0  0
   39.7589   27.5333   36.1812 H   0  0  0  0  0  0  0  0  0  0  0  0
   44.6215   21.6658   36.0981 H   0  0  0  0  0  0  0  0  0  0  0  0
  2  1  2  0
  3  2  1  0
  4  3  2  0
  4  5  1  0
  5  6  2  0
  6  1  1  0
  7  3  1  0
  8  7  1  0
  9 10  1  0
  9  8  2  0
 10 11  2  0
 11  7  1  0
 12 16  1  0
 12  5  1  0
 13 12  2  0
 14 13  1  0
 14 15  1  0
 15 16  2  0
  1 17  1  0
  2 18  1  0
  8 19  1  0
  9 20  1  0
 11 21  1  0
 15 22  1  0
M  ISO  6  17  14  18  14  19  14  20  14  21  14  22  14
M  END
>  <minimizedAffinity>  (1) 
-3.76614046

>  <minimizedRMSD>  (1) 
3.19761515

$$$$
