
     RDKit          3D

 29 31  0  0  0  0  0  0  0  0999 V2000
   40.7540   21.9430   37.6170 C   0  0  0  0  0  0  0  0  0  0  0  0
   39.9850   23.0390   37.1840 C   0  0  0  0  0  0  0  0  0  0  0  0
   40.2110   23.4750   35.8740 C   0  0  0  0  0  0  0  0  0  0  0  0
   41.1360   22.8480   35.0880 N   0  0  0  0  0  0  0  0  0  0  0  0
   41.8440   21.7960   35.5710 C   0  0  0  0  0  0  0  0  0  0  0  0
   41.6490   21.3510   36.8270 N   0  0  0  0  0  0  0  0  0  0  0  0
   39.4780   24.5900   35.3260 N   0  0  0  0  0  0  0  0  0  0  0  0
   38.1550   24.4630   35.0580 C   0  0  0  0  0  0  0  0  0  0  0  0
   37.7790   25.6840   34.5580 C   0  0  0  0  0  0  0  0  0  0  0  0
   38.8490   26.5040   34.5300 N   0  0  0  0  0  0  0  0  0  0  0  0
   39.9110   25.8140   35.0120 C   0  0  0  0  0  0  0  0  0  0  0  0
   42.7880   21.1970   34.6900 N   0  0  0  0  0  0  0  0  0  0  0  0
   43.1680   19.8090   34.7200 C   0  0  0  0  0  0  0  0  0  0  0  0
   44.5150   19.7090   34.0440 C   0  0  0  0  0  0  0  0  0  0  0  0
   44.8820   21.0970   33.6280 C   0  0  0  0  0  0  0  0  0  0  0  0
   43.5480   21.8090   33.6160 C   0  0  0  0  0  0  0  0  0  0  0  0
   40.6119   21.5631   38.6395 H   0  0  0  0  0  0  0  0  0  0  0  0
   39.2474   23.5258   37.8389 H   0  0  0  0  0  0  0  0  0  0  0  0
   37.5222   23.5759   35.2084 H   0  0  0  0  0  0  0  0  0  0  0  0
   36.7635   25.9521   34.2311 H   0  0  0  0  0  0  0  0  0  0  0  0
   40.9381   26.1915   35.1238 H   0  0  0  0  0  0  0  0  0  0  0  0
   43.2397   19.4587   35.7603 H   0  0  0  0  0  0  0  0  0  0  0  0
   42.4219   19.1850   34.2062 H   0  0  0  0  0  0  0  0  0  0  0  0
   45.2638   19.3112   34.7448 H   0  0  0  0  0  0  0  0  0  0  0  0
   44.4780   19.0300   33.1794 H   0  0  0  0  0  0  0  0  0  0  0  0
   45.5704   21.5582   34.3515 H   0  0  0  0  0  0  0  0  0  0  0  0
   45.4049   21.1371   32.6611 H   0  0  0  0  0  0  0  0  0  0  0  0
   43.6820   22.8850   33.8012 H   0  0  0  0  0  0  0  0  0  0  0  0
   43.0391   21.7183   32.6450 H   0  0  0  0  0  0  0  0  0  0  0  0
  2  1  2  0
  3  2  1  0
  4  5  1  0
  4  3  2  0
  5  6  2  0
  6  1  1  0
  7  3  1  0
  8  7  1  0
  9  8  2  0
 10  9  1  0
 10 11  2  0
 11  7  1  0
 12 13  1  0
 12  5  1  0
 14 13  1  0
 15 14  1  0
 16 15  1  0
 16 12  1  0
  1 17  1  0
  2 18  1  0
  8 19  1  0
  9 20  1  0
 11 21  1  0
 13 22  1  0
 13 23  1  0
 14 24  1  0
 14 25  1  0
 15 26  1  0
 15 27  1  0
 16 28  1  0
 16 29  1  0
M  ISO  8  17  14  18  14  19  14  20  14  21  14  22  13  23  13  24  13
M  ISO  5  25  13  26  13  27  13  28  13  29  13
M  END
>  <minimizedAffinity>  (1) 
-3.18334579

>  <minimizedRMSD>  (1) 
1.18012941

$$$$
