
     RDKit          3D

 31 33  0  0  0  0  0  0  0  0999 V2000
   41.6090   21.4510   37.6510 C   0  0  0  0  0  0  0  0  0  0  0  0
   40.7430   22.5300   37.3850 C   0  0  0  0  0  0  0  0  0  0  0  0
   40.5950   22.9090   36.0560 C   0  0  0  0  0  0  0  0  0  0  0  0
   41.2760   22.2370   35.0970 N   0  0  0  0  0  0  0  0  0  0  0  0
   42.0980   21.2060   35.3920 C   0  0  0  0  0  0  0  0  0  0  0  0
   42.2610   20.8160   36.6720 N   0  0  0  0  0  0  0  0  0  0  0  0
   39.7370   23.9950   35.6930 N   0  0  0  0  0  0  0  0  0  0  0  0
   38.3890   23.8690   35.7870 C   0  0  0  0  0  0  0  0  0  0  0  0
   37.8710   25.0660   35.3710 C   0  0  0  0  0  0  0  0  0  0  0  0
   38.8870   25.8770   35.0400 N   0  0  0  0  0  0  0  0  0  0  0  0
   40.0560   25.2110   35.2400 C   0  0  0  0  0  0  0  0  0  0  0  0
   42.8030   20.5100   34.3790 N   0  0  0  0  0  0  0  0  0  0  0  0
   42.9440   21.0430   33.0430 C   0  0  0  0  0  0  0  0  0  0  0  0
   44.2670   20.6750   32.4170 C   0  0  0  0  0  0  0  0  0  0  0  0
   44.5640   19.2710   32.5220 N   0  0  0  0  0  0  0  0  0  0  0  0
   43.5860   18.5430   33.3000 C   0  0  0  0  0  0  0  0  0  0  0  0
   43.4250   19.2240   34.6340 C   0  0  0  0  0  0  0  0  0  0  0  0
   41.7523   21.1227   38.6910 H   0  0  0  0  0  0  0  0  0  0  0  0
   40.2077   23.0495   38.1934 H   0  0  0  0  0  0  0  0  0  0  0  0
   37.8278   22.9863   36.1275 H   0  0  0  0  0  0  0  0  0  0  0  0
   36.8021   25.3199   35.3172 H   0  0  0  0  0  0  0  0  0  0  0  0
   41.0699   25.5991   35.0628 H   0  0  0  0  0  0  0  0  0  0  0  0
   42.1328   20.6449   32.4157 H   0  0  0  0  0  0  0  0  0  0  0  0
   42.8972   22.1399   33.1113 H   0  0  0  0  0  0  0  0  0  0  0  0
   45.0638   21.2412   32.9216 H   0  0  0  0  0  0  0  0  0  0  0  0
   44.2058   20.9207   31.3465 H   0  0  0  0  0  0  0  0  0  0  0  0
   44.5935   18.8700   31.5737 H   0  0  0  0  0  0  0  0  0  0  0  0
   42.6223   18.5357   32.7696 H   0  0  0  0  0  0  0  0  0  0  0  0
   43.9213   17.5057   33.4471 H   0  0  0  0  0  0  0  0  0  0  0  0
   44.4079   19.3664   35.1070 H   0  0  0  0  0  0  0  0  0  0  0  0
   42.8092   18.6170   35.3139 H   0  0  0  0  0  0  0  0  0  0  0  0
  2  1  2  0
  3  2  1  0
  4  5  1  0
  4  3  2  0
  5  6  2  0
  6  1  1  0
  7  8  1  0
  7  3  1  0
  9  8  2  0
 10 11  2  0
 10  9  1  0
 11  7  1  0
 12 17  1  0
 12  5  1  0
 13 12  1  0
 14 15  1  0
 14 13  1  0
 15 16  1  0
 16 17  1  0
  1 18  1  0
  2 19  1  0
  8 20  1  0
  9 21  1  0
 11 22  1  0
 13 23  1  0
 13 24  1  0
 14 25  1  0
 14 26  1  0
 15 27  1  0
 16 28  1  0
 16 29  1  0
 17 30  1  0
 17 31  1  0
M  ISO  8  18  14  19  14  20  14  21  14  22  14  23  13  24  13  25  13
M  ISO  6  26  13  27   5  28  13  29  13  30  13  31  13
M  END
>  <minimizedAffinity>  (1) 
-3.09617543

>  <minimizedRMSD>  (1) 
0.431594044

$$$$
