
     RDKit          3D

 29 30  0  0  0  0  0  0  0  0999 V2000
   40.7580   21.9840   37.5710 C   0  0  0  0  0  0  0  0  0  0  0  0
   39.9910   23.1270   37.3070 C   0  0  0  0  0  0  0  0  0  0  0  0
   40.0110   23.6170   36.0090 C   0  0  0  0  0  0  0  0  0  0  0  0
   40.7540   22.9820   35.0800 N   0  0  0  0  0  0  0  0  0  0  0  0
   41.4850   21.8860   35.3510 C   0  0  0  0  0  0  0  0  0  0  0  0
   41.4820   21.3920   36.6040 N   0  0  0  0  0  0  0  0  0  0  0  0
   39.2520   24.7880   35.6470 N   0  0  0  0  0  0  0  0  0  0  0  0
   37.9150   24.7650   35.6080 C   0  0  0  0  0  0  0  0  0  0  0  0
   37.5410   26.0270   35.2330 C   0  0  0  0  0  0  0  0  0  0  0  0
   38.6450   26.7850   35.0520 N   0  0  0  0  0  0  0  0  0  0  0  0
   39.7270   26.0130   35.3100 C   0  0  0  0  0  0  0  0  0  0  0  0
   42.2450   21.3120   34.2090 C   0  0  0  0  0  0  0  0  0  0  0  0
   42.9810   20.0540   34.6090 C   0  0  0  0  0  0  0  0  0  0  0  0
   43.2980   22.3140   33.7680 C   0  0  0  0  0  0  0  0  0  0  0  0
   41.2330   21.0610   33.1220 C   0  0  0  0  0  0  0  0  0  0  0  0
   40.7681   21.5634   38.5874 H   0  0  0  0  0  0  0  0  0  0  0  0
   39.3985   23.6147   38.0951 H   0  0  0  0  0  0  0  0  0  0  0  0
   37.2561   23.9127   35.8302 H   0  0  0  0  0  0  0  0  0  0  0  0
   36.5045   26.3704   35.0998 H   0  0  0  0  0  0  0  0  0  0  0  0
   40.7823   26.3187   35.2568 H   0  0  0  0  0  0  0  0  0  0  0  0
   43.0210   19.9857   35.7062 H   0  0  0  0  0  0  0  0  0  0  0  0
   42.4536   19.1768   34.2060 H   0  0  0  0  0  0  0  0  0  0  0  0
   44.0041   20.0839   34.2060 H   0  0  0  0  0  0  0  0  0  0  0  0
   43.7703   22.7634   34.6540 H   0  0  0  0  0  0  0  0  0  0  0  0
   44.0623   21.8014   33.1653 H   0  0  0  0  0  0  0  0  0  0  0  0
   42.8240   23.1027   33.1653 H   0  0  0  0  0  0  0  0  0  0  0  0
   40.2602   20.8197   33.5753 H   0  0  0  0  0  0  0  0  0  0  0  0
   41.1336   21.9617   32.4984 H   0  0  0  0  0  0  0  0  0  0  0  0
   41.5661   20.2183   32.4984 H   0  0  0  0  0  0  0  0  0  0  0  0
  2  1  2  0
  3  2  1  0
  4  5  1  0
  4  3  2  0
  5  6  2  0
  6  1  1  0
  7  3  1  0
  8  7  1  0
  9  8  2  0
 10  9  1  0
 10 11  2  0
 11  7  1  0
 12 13  1  0
 12  5  1  0
 14 12  1  0
 15 12  1  0
  1 16  1  0
  2 17  1  0
  8 18  1  0
  9 19  1  0
 11 20  1  0
 13 21  1  0
 13 22  1  0
 13 23  1  0
 14 24  1  0
 14 25  1  0
 14 26  1  0
 15 27  1  0
 15 28  1  0
 15 29  1  0
M  ISO  8  16  14  17  14  18  14  19  14  20  14  21   8  22   8  23   8
M  ISO  6  24   8  25   8  26   8  27   8  28   8  29   8
M  END
>  <minimizedAffinity>  (1) 
-3.0737114

>  <minimizedRMSD>  (1) 
1.27389705

$$$$
