
     RDKit          3D

 24 26  0  0  0  0  0  0  0  0999 V2000
   41.6170   21.4400   37.6420 C   0  0  0  0  0  0  0  0  0  0  0  0
   40.7420   22.5180   37.3860 C   0  0  0  0  0  0  0  0  0  0  0  0
   40.5940   22.9120   36.0600 C   0  0  0  0  0  0  0  0  0  0  0  0
   41.2810   22.2620   35.0740 N   0  0  0  0  0  0  0  0  0  0  0  0
   42.1100   21.2310   35.3810 C   0  0  0  0  0  0  0  0  0  0  0  0
   42.2690   20.8300   36.6630 N   0  0  0  0  0  0  0  0  0  0  0  0
   39.7190   24.0060   35.7000 N   0  0  0  0  0  0  0  0  0  0  0  0
   38.3740   23.8490   35.7930 C   0  0  0  0  0  0  0  0  0  0  0  0
   37.8720   25.0580   35.3800 C   0  0  0  0  0  0  0  0  0  0  0  0
   38.8710   25.8860   35.0620 N   0  0  0  0  0  0  0  0  0  0  0  0
   40.0450   25.2260   35.2620 C   0  0  0  0  0  0  0  0  0  0  0  0
   42.7990   20.5930   34.3100 N   0  0  0  0  0  0  0  0  0  0  0  0
   42.2630   19.9900   33.2560 N   0  0  0  0  0  0  0  0  0  0  0  0
   43.2400   19.5020   32.4530 C   0  0  0  0  0  0  0  0  0  0  0  0
   44.4350   19.8390   33.0760 C   0  0  0  0  0  0  0  0  0  0  0  0
   44.1390   20.5300   34.2510 C   0  0  0  0  0  0  0  0  0  0  0  0
   41.7607   21.0987   38.6778 H   0  0  0  0  0  0  0  0  0  0  0  0
   40.2011   23.0241   38.1992 H   0  0  0  0  0  0  0  0  0  0  0  0
   37.8162   22.9600   36.1226 H   0  0  0  0  0  0  0  0  0  0  0  0
   36.8026   25.3086   35.3197 H   0  0  0  0  0  0  0  0  0  0  0  0
   41.0592   25.6184   35.0962 H   0  0  0  0  0  0  0  0  0  0  0  0
   43.1133   18.9545   31.5074 H   0  0  0  0  0  0  0  0  0  0  0  0
   45.4432   19.6014   32.7057 H   0  0  0  0  0  0  0  0  0  0  0  0
   44.8553   20.9388   34.9789 H   0  0  0  0  0  0  0  0  0  0  0  0
  2  1  2  0
  3  2  1  0
  4  5  1  0
  4  3  2  0
  5  6  2  0
  6  1  1  0
  7  8  1  0
  7  3  1  0
  9  8  2  0
 10 11  2  0
 10  9  1  0
 11  7  1  0
 12  5  1  0
 13 12  1  0
 14 15  1  0
 14 13  2  0
 15 16  2  0
 16 12  1  0
  1 17  1  0
  2 18  1  0
  8 19  1  0
  9 20  1  0
 11 21  1  0
 14 22  1  0
 15 23  1  0
 16 24  1  0
M  ISO  8  17  14  18  14  19  14  20  14  21  14  22  14  23  14  24  14
M  END
>  <minimizedAffinity>  (1) 
-3.05938244

>  <minimizedRMSD>  (1) 
0.389326602

$$$$
