
     RDKit          3D

 27 29  0  0  0  0  0  0  0  0999 V2000
   40.7340   22.0410   37.5300 C   0  0  0  0  0  0  0  0  0  0  0  0
   39.9830   23.2140   37.2810 C   0  0  0  0  0  0  0  0  0  0  0  0
   39.9740   23.6940   35.9620 C   0  0  0  0  0  0  0  0  0  0  0  0
   40.6710   23.0190   35.0220 N   0  0  0  0  0  0  0  0  0  0  0  0
   41.3720   21.9070   35.2980 C   0  0  0  0  0  0  0  0  0  0  0  0
   41.4010   21.4230   36.5530 N   0  0  0  0  0  0  0  0  0  0  0  0
   39.2390   24.8770   35.6200 N   0  0  0  0  0  0  0  0  0  0  0  0
   37.9000   24.8810   35.6110 C   0  0  0  0  0  0  0  0  0  0  0  0
   37.5300   26.1400   35.2500 C   0  0  0  0  0  0  0  0  0  0  0  0
   38.6380   26.8750   35.0460 N   0  0  0  0  0  0  0  0  0  0  0  0
   39.7190   26.0880   35.2760 C   0  0  0  0  0  0  0  0  0  0  0  0
   42.1050   21.2230   34.2400 C   0  0  0  0  0  0  0  0  0  0  0  0
   41.4560   20.8240   33.0930 C   0  0  0  0  0  0  0  0  0  0  0  0
   42.1670   20.1750   32.0990 C   0  0  0  0  0  0  0  0  0  0  0  0
   43.5090   19.9040   32.1980 C   0  0  0  0  0  0  0  0  0  0  0  0
   44.1550   20.3150   33.3670 C   0  0  0  0  0  0  0  0  0  0  0  0
   43.4530   20.9710   34.3810 C   0  0  0  0  0  0  0  0  0  0  0  0
   40.7688   21.6300   38.5497 H   0  0  0  0  0  0  0  0  0  0  0  0
   39.4319   23.7259   38.0836 H   0  0  0  0  0  0  0  0  0  0  0  0
   37.2342   24.0379   35.8474 H   0  0  0  0  0  0  0  0  0  0  0  0
   36.4953   26.4976   35.1427 H   0  0  0  0  0  0  0  0  0  0  0  0
   40.7765   26.3804   35.1973 H   0  0  0  0  0  0  0  0  0  0  0  0
   40.3808   21.0196   32.9679 H   0  0  0  0  0  0  0  0  0  0  0  0
   41.6332   19.8625   31.1894 H   0  0  0  0  0  0  0  0  0  0  0  0
   44.0516   19.3865   31.3932 H   0  0  0  0  0  0  0  0  0  0  0  0
   45.2304   20.1194   33.4903 H   0  0  0  0  0  0  0  0  0  0  0  0
   43.9774   21.2874   35.2947 H   0  0  0  0  0  0  0  0  0  0  0  0
  2  1  2  0
  3  2  1  0
  4  5  1  0
  4  3  2  0
  5  6  2  0
  6  1  1  0
  7  3  1  0
  8  7  1  0
  9  8  2  0
 10  9  1  0
 10 11  2  0
 11  7  1  0
 12 17  1  0
 12  5  1  0
 13 12  2  0
 14 15  2  0
 14 13  1  0
 15 16  1  0
 16 17  2  0
  1 18  1  0
  2 19  1  0
  8 20  1  0
  9 21  1  0
 11 22  1  0
 13 23  1  0
 14 24  1  0
 15 25  1  0
 16 26  1  0
 17 27  1  0
M  ISO  8  18  14  19  14  20  14  21  14  22  14  23  14  24  14  25  14
M  ISO  2  26  14  27  14
M  END
>  <minimizedAffinity>  (1) 
-3.04944324

>  <minimizedRMSD>  (1) 
1.1351558

$$$$
