
     RDKit          3D

 24 26  0  0  0  0  0  0  0  0999 V2000
   40.7520   22.0340   37.5260 C   0  0  0  0  0  0  0  0  0  0  0  0
   40.0040   23.2000   37.2750 C   0  0  0  0  0  0  0  0  0  0  0  0
   39.9900   23.6680   35.9680 C   0  0  0  0  0  0  0  0  0  0  0  0
   40.6840   22.9970   35.0030 N   0  0  0  0  0  0  0  0  0  0  0  0
   41.3900   21.8770   35.2950 C   0  0  0  0  0  0  0  0  0  0  0  0
   41.4200   21.3990   36.5610 N   0  0  0  0  0  0  0  0  0  0  0  0
   39.2540   24.8540   35.6160 N   0  0  0  0  0  0  0  0  0  0  0  0
   37.9140   24.8550   35.5950 C   0  0  0  0  0  0  0  0  0  0  0  0
   37.5600   26.1280   35.2240 C   0  0  0  0  0  0  0  0  0  0  0  0
   38.6700   26.8660   35.0310 N   0  0  0  0  0  0  0  0  0  0  0  0
   39.7510   26.0670   35.2770 C   0  0  0  0  0  0  0  0  0  0  0  0
   42.1000   21.2370   34.1660 C   0  0  0  0  0  0  0  0  0  0  0  0
   43.0830   20.1650   34.4160 C   0  0  0  0  0  0  0  0  0  0  0  0
   43.5910   21.5710   34.1180 C   0  0  0  0  0  0  0  0  0  0  0  0
   40.7869   21.6337   38.5500 H   0  0  0  0  0  0  0  0  0  0  0  0
   39.4562   23.7162   38.0771 H   0  0  0  0  0  0  0  0  0  0  0  0
   37.2419   24.0154   35.8257 H   0  0  0  0  0  0  0  0  0  0  0  0
   36.5283   26.4899   35.1029 H   0  0  0  0  0  0  0  0  0  0  0  0
   40.8115   26.3520   35.2126 H   0  0  0  0  0  0  0  0  0  0  0  0
   41.2321   21.2932   33.4926 H   0  0  0  0  0  0  0  0  0  0  0  0
   43.1912   19.7479   35.4281 H   0  0  0  0  0  0  0  0  0  0  0  0
   43.2665   19.1713   33.9814 H   0  0  0  0  0  0  0  0  0  0  0  0
   44.0803   21.7936   33.1583 H   0  0  0  0  0  0  0  0  0  0  0  0
   44.2557   22.2931   34.6148 H   0  0  0  0  0  0  0  0  0  0  0  0
  2  1  2  0
  3  2  1  0
  4  5  1  0
  4  3  2  0
  5  6  2  0
  6  1  1  0
  7  3  1  0
  8  7  1  0
  9  8  2  0
 10  9  1  0
 10 11  2  0
 11  7  1  0
 12 13  1  0
 12  5  1  0
 14 12  1  0
 14 13  1  0
  1 15  1  0
  2 16  1  0
  8 17  1  0
  9 18  1  0
 11 19  1  0
 12 20  1  0
 13 21  1  0
 13 22  1  0
 14 23  1  0
 14 24  1  0
M  ISO  8  15  14  16  14  17  14  18  14  19  14  20  13  21  13  22  13
M  ISO  2  23  13  24  13
M  END
>  <minimizedAffinity>  (1) 
-2.95583749

>  <minimizedRMSD>  (1) 
1.27259243

$$$$
