
     RDKit          3D

 18 19  0  0  0  0  0  0  0  0999 V2000
   41.8740   21.2990   37.4490 C   0  0  0  0  0  0  0  0  0  0  0  0
   40.9460   22.3550   37.3530 C   0  0  0  0  0  0  0  0  0  0  0  0
   40.6220   22.7780   36.0570 C   0  0  0  0  0  0  0  0  0  0  0  0
   41.1930   22.1770   34.9970 N   0  0  0  0  0  0  0  0  0  0  0  0
   42.0810   21.1630   35.1280 C   0  0  0  0  0  0  0  0  0  0  0  0
   42.4140   20.7320   36.3770 N   0  0  0  0  0  0  0  0  0  0  0  0
   39.6840   23.8500   35.8600 N   0  0  0  0  0  0  0  0  0  0  0  0
   38.3820   23.6940   36.1340 C   0  0  0  0  0  0  0  0  0  0  0  0
   37.7850   24.8810   35.8410 C   0  0  0  0  0  0  0  0  0  0  0  0
   38.7310   25.7450   35.3930 N   0  0  0  0  0  0  0  0  0  0  0  0
   39.9290   25.1030   35.4030 C   0  0  0  0  0  0  0  0  0  0  0  0
   42.5700   20.6610   33.9280 O   0  0  0  0  0  0  0  0  0  0  0  0
   42.1606   20.9322   38.4456 H   0  0  0  0  0  0  0  0  0  0  0  0
   40.5012   22.8208   38.2447 H   0  0  0  0  0  0  0  0  0  0  0  0
   37.8930   22.7870   36.5191 H   0  0  0  0  0  0  0  0  0  0  0  0
   36.7132   25.1035   35.9493 H   0  0  0  0  0  0  0  0  0  0  0  0
   40.9023   25.5169   35.1009 H   0  0  0  0  0  0  0  0  0  0  0  0
   43.2243   19.9180   33.9322 H   0  0  0  0  0  0  0  0  0  0  0  0
  2  1  2  0
  3  2  1  0
  4  5  1  0
  4  3  2  0
  5  6  2  0
  6  1  1  0
  7  3  1  0
  7  8  1  0
  9  8  2  0
 10 11  2  0
 10  9  1  0
 11  7  1  0
 12  5  1  0
  1 13  1  0
  2 14  1  0
  8 15  1  0
  9 16  1  0
 11 17  1  0
 12 18  1  0
M  ISO  6  13  14  14  14  15  14  16  14  17  14  18   3
M  END
>  <minimizedAffinity>  (1) 
-2.81960893

>  <minimizedRMSD>  (1) 
0.0436728336

$$$$
