
     RDKit          3D

 19 20  0  0  0  0  0  0  0  0999 V2000
   41.6280   21.4490   37.6350 C   0  0  0  0  0  0  0  0  0  0  0  0
   40.7640   22.5240   37.3720 C   0  0  0  0  0  0  0  0  0  0  0  0
   40.5910   22.9110   36.0390 C   0  0  0  0  0  0  0  0  0  0  0  0
   41.2620   22.2350   35.0720 N   0  0  0  0  0  0  0  0  0  0  0  0
   42.0870   21.2020   35.3730 C   0  0  0  0  0  0  0  0  0  0  0  0
   42.2700   20.8110   36.6490 N   0  0  0  0  0  0  0  0  0  0  0  0
   39.7280   23.9940   35.6920 N   0  0  0  0  0  0  0  0  0  0  0  0
   38.3920   23.8760   35.8130 C   0  0  0  0  0  0  0  0  0  0  0  0
   37.8800   25.0710   35.4040 C   0  0  0  0  0  0  0  0  0  0  0  0
   38.8860   25.8850   35.0450 N   0  0  0  0  0  0  0  0  0  0  0  0
   40.0590   25.2090   35.2250 C   0  0  0  0  0  0  0  0  0  0  0  0
   42.7580   20.5470   34.2540 C   0  0  0  0  0  0  0  0  0  0  0  0
   43.0640   19.3440   34.3600 O   0  0  0  0  0  0  0  0  0  0  0  0
   41.7807   21.1238   38.6747 H   0  0  0  0  0  0  0  0  0  0  0  0
   40.2404   23.0447   38.1873 H   0  0  0  0  0  0  0  0  0  0  0  0
   37.8313   22.9987   36.1677 H   0  0  0  0  0  0  0  0  0  0  0  0
   36.8110   25.3283   35.3728 H   0  0  0  0  0  0  0  0  0  0  0  0
   41.0736   25.5850   35.0268 H   0  0  0  0  0  0  0  0  0  0  0  0
   42.9890   21.1051   33.3347 H   0  0  0  0  0  0  0  0  0  0  0  0
  2  1  2  0
  3  2  1  0
  4  5  1  0
  4  3  2  0
  5  6  2  0
  6  1  1  0
  7  8  1  0
  7  3  1  0
  9  8  2  0
 10 11  2  0
 10  9  1  0
 11  7  1  0
 12 13  2  0
 12  5  1  0
  1 14  1  0
  2 15  1  0
  8 16  1  0
  9 17  1  0
 11 18  1  0
 12 19  1  0
M  ISO  6  14  14  15  14  16  14  17  14  18  14  19   6
M  END
>  <minimizedAffinity>  (1) 
-2.78837419

>  <minimizedRMSD>  (1) 
0.359845549

$$$$
