
     RDKit          3D

 49 53  0  0  0  0  0  0  0  0999 V2000
   40.9090   21.2100   33.3290 C   0  0  0  0  0  0  0  0  0  0  0  0
   42.2610   21.1960   33.7030 C   0  0  0  0  0  0  0  0  0  0  0  0
   42.6050   21.9270   34.8030 C   0  0  0  0  0  0  0  0  0  0  0  0
   41.6120   22.5580   35.3770 N   0  0  0  0  0  0  0  0  0  0  0  0
   40.3320   22.6270   35.1010 C   0  0  0  0  0  0  0  0  0  0  0  0
   40.0030   21.8940   34.0000 N   0  0  0  0  0  0  0  0  0  0  0  0
   43.9380   22.0100   35.2680 N   0  0  0  0  0  0  0  0  0  0  0  0
   44.6900   23.0800   35.0210 C   0  0  0  0  0  0  0  0  0  0  0  0
   45.9210   22.8500   35.5880 C   0  0  0  0  0  0  0  0  0  0  0  0
   45.8910   21.6440   36.1690 N   0  0  0  0  0  0  0  0  0  0  0  0
   44.6740   21.1230   35.9750 C   0  0  0  0  0  0  0  0  0  0  0  0
   44.3130   19.8600   36.4600 N   0  0  0  0  0  0  0  0  0  0  0  0
   45.1810   18.8180   36.2570 C   0  0  0  0  0  0  0  0  0  0  0  0
   44.7960   17.5750   36.7110 C   0  0  0  0  0  0  0  0  0  0  0  0
   45.6900   16.4270   36.5180 C   0  0  0  0  0  0  0  0  0  0  0  0
   43.5670   17.4510   37.3400 C   0  0  0  0  0  0  0  0  0  0  0  0
   43.2280   16.3030   37.7510 O   0  0  0  0  0  0  0  0  0  0  0  0
   42.7390   18.5150   37.5190 N   0  0  0  0  0  0  0  0  0  0  0  0
   43.0930   19.7500   37.0810 C   0  0  0  0  0  0  0  0  0  0  0  0
   42.3830   20.7700   37.2120 O   0  0  0  0  0  0  0  0  0  0  0  0
   39.5180   23.4070   35.9590 C   0  0  0  0  0  0  0  0  0  0  0  0
   38.9460   22.7780   37.0550 C   0  0  0  0  0  0  0  0  0  0  0  0
   38.1330   23.4390   37.9790 C   0  0  0  0  0  0  0  0  0  0  0  0
   37.8700   24.7740   37.8230 C   0  0  0  0  0  0  0  0  0  0  0  0
   38.4430   25.4020   36.7240 C   0  0  0  0  0  0  0  0  0  0  0  0
   38.1470   26.7200   36.5810 C   0  0  0  0  0  0  0  0  0  0  0  0
   38.6420   27.4200   35.5170 C   0  0  0  0  0  0  0  0  0  0  0  0
   39.4300   26.7310   34.6350 C   0  0  0  0  0  0  0  0  0  0  0  0
   39.7300   25.3820   34.7930 C   0  0  0  0  0  0  0  0  0  0  0  0
   39.2270   24.7150   35.8510 C   0  0  0  0  0  0  0  0  0  0  0  0
   40.6250   24.8680   33.7160 C   0  0  0  0  0  0  0  0  0  0  0  0
   40.9200   25.9800   32.8160 F   0  0  0  0  0  0  0  0  0  0  0  0
   41.9660   24.9750   34.0610 F   0  0  0  0  0  0  0  0  0  0  0  0
   40.1580   24.2920   32.6490 F   0  0  0  0  0  0  0  0  0  0  0  0
   40.5945   20.6318   32.4477 H   0  0  0  0  0  0  0  0  0  0  0  0
   43.0091   20.6225   33.1360 H   0  0  0  0  0  0  0  0  0  0  0  0
   44.3839   23.9797   34.4670 H   0  0  0  0  0  0  0  0  0  0  0  0
   46.7802   23.5365   35.5679 H   0  0  0  0  0  0  0  0  0  0  0  0
   46.1465   18.9683   35.7517 H   0  0  0  0  0  0  0  0  0  0  0  0
   45.9971   16.0326   37.4979 H   0  0  0  0  0  0  0  0  0  0  0  0
   45.1628   15.6422   35.9557 H   0  0  0  0  0  0  0  0  0  0  0  0
   46.5801   16.7458   35.9557 H   0  0  0  0  0  0  0  0  0  0  0  0
   41.8337   18.3822   37.9920 H   0  0  0  0  0  0  0  0  0  0  0  0
   39.1422   21.7059   37.2039 H   0  0  0  0  0  0  0  0  0  0  0  0
   37.7051   22.8885   38.8298 H   0  0  0  0  0  0  0  0  0  0  0  0
   37.2352   25.3230   38.5341 H   0  0  0  0  0  0  0  0  0  0  0  0
   37.5088   27.2238   37.3218 H   0  0  0  0  0  0  0  0  0  0  0  0
   38.4177   28.4876   35.3758 H   0  0  0  0  0  0  0  0  0  0  0  0
   39.8425   27.2655   33.7666 H   0  0  0  0  0  0  0  0  0  0  0  0
  1  2  2  0
  1  6  1  0
  2  3  1  0
  3  7  1  0
  3  4  2  0
  5  4  1  0
  5 21  1  0
  6  5  2  0
  7 11  1  0
  8  7  1  0
  8  9  2  0
  9 10  1  0
 11 10  2  0
 11 12  1  0
 12 19  1  0
 13 12  1  0
 13 14  2  0
 14 16  1  0
 15 14  1  0
 16 18  1  0
 16 17  2  0
 19 20  2  0
 19 18  1  0
 21 22  2  0
 22 23  1  0
 24 23  2  0
 25 24  1  0
 26 25  2  0
 27 26  1  0
 28 29  1  0
 28 27  2  0
 29 30  2  0
 30 21  1  0
 30 25  1  0
 31 33  1  0
 31 29  1  0
 32 31  1  0
 34 31  1  0
  1 35  1  0
  2 36  1  0
  8 37  1  0
  9 38  1  0
 13 39  1  0
 15 40  1  0
 15 41  1  0
 15 42  1  0
 18 43  1  0
 22 44  1  0
 23 45  1  0
 24 46  1  0
 26 47  1  0
 27 48  1  0
 28 49  1  0
M  ISO  8  35  14  36  14  37  14  38  14  39  14  40   8  41   8  42   8
M  ISO  7  43   9  44  14  45  14  46  14  47  14  48  14  49  14
M  END
>  <minimizedAffinity>  (1) 
-6.13892174

>  <minimizedRMSD>  (1) 
3.53947592

$$$$
