
     RDKit          3D

 46 50  0  0  0  0  0  0  0  0999 V2000
   40.8750   21.2150   33.3070 C   0  0  0  0  0  0  0  0  0  0  0  0
   42.2250   21.1780   33.6860 C   0  0  0  0  0  0  0  0  0  0  0  0
   42.5760   21.8970   34.7930 C   0  0  0  0  0  0  0  0  0  0  0  0
   41.5890   22.5350   35.3670 N   0  0  0  0  0  0  0  0  0  0  0  0
   40.3110   22.6250   35.0860 C   0  0  0  0  0  0  0  0  0  0  0  0
   39.9780   21.9060   33.9800 N   0  0  0  0  0  0  0  0  0  0  0  0
   39.5010   23.4040   35.9480 C   0  0  0  0  0  0  0  0  0  0  0  0
   38.9220   22.7800   37.0480 C   0  0  0  0  0  0  0  0  0  0  0  0
   38.1220   23.4380   37.9700 C   0  0  0  0  0  0  0  0  0  0  0  0
   37.8690   24.7690   37.8210 C   0  0  0  0  0  0  0  0  0  0  0  0
   38.4420   25.4070   36.7220 C   0  0  0  0  0  0  0  0  0  0  0  0
   38.1550   26.7270   36.5860 C   0  0  0  0  0  0  0  0  0  0  0  0
   38.6550   27.4250   35.5260 C   0  0  0  0  0  0  0  0  0  0  0  0
   39.4350   26.7360   34.6380 C   0  0  0  0  0  0  0  0  0  0  0  0
   39.7240   25.3820   34.7890 C   0  0  0  0  0  0  0  0  0  0  0  0
   39.2180   24.7160   35.8450 C   0  0  0  0  0  0  0  0  0  0  0  0
   40.6150   24.8680   33.7120 C   0  0  0  0  0  0  0  0  0  0  0  0
   40.9260   25.9860   32.8220 F   0  0  0  0  0  0  0  0  0  0  0  0
   41.9570   24.9530   34.0570 F   0  0  0  0  0  0  0  0  0  0  0  0
   40.1440   24.3090   32.6360 F   0  0  0  0  0  0  0  0  0  0  0  0
   43.9100   21.9590   35.2600 N   0  0  0  0  0  0  0  0  0  0  0  0
   44.6700   23.0260   35.0300 C   0  0  0  0  0  0  0  0  0  0  0  0
   45.8980   22.7780   35.5900 C   0  0  0  0  0  0  0  0  0  0  0  0
   45.8620   21.5550   36.1550 N   0  0  0  0  0  0  0  0  0  0  0  0
   44.6370   21.0560   35.9490 C   0  0  0  0  0  0  0  0  0  0  0  0
   44.2740   19.7880   36.4150 N   0  0  0  0  0  0  0  0  0  0  0  0
   45.1470   18.7530   36.2050 C   0  0  0  0  0  0  0  0  0  0  0  0
   44.7770   17.5350   36.7040 C   0  0  0  0  0  0  0  0  0  0  0  0
   43.5720   17.3810   37.3840 C   0  0  0  0  0  0  0  0  0  0  0  0
   43.2550   16.2520   37.8320 O   0  0  0  0  0  0  0  0  0  0  0  0
   42.7810   18.4530   37.5410 N   0  0  0  0  0  0  0  0  0  0  0  0
   43.0790   19.6780   37.0790 C   0  0  0  0  0  0  0  0  0  0  0  0
   42.3620   20.6990   37.2090 O   0  0  0  0  0  0  0  0  0  0  0  0
   40.5553   20.6490   32.4196 H   0  0  0  0  0  0  0  0  0  0  0  0
   42.9665   20.5970   33.1181 H   0  0  0  0  0  0  0  0  0  0  0  0
   39.1089   21.7059   37.1946 H   0  0  0  0  0  0  0  0  0  0  0  0
   37.6926   22.8870   38.8197 H   0  0  0  0  0  0  0  0  0  0  0  0
   37.2393   25.3166   38.5377 H   0  0  0  0  0  0  0  0  0  0  0  0
   37.5206   27.2325   37.3290 H   0  0  0  0  0  0  0  0  0  0  0  0
   38.4404   28.4954   35.3911 H   0  0  0  0  0  0  0  0  0  0  0  0
   39.8498   27.2720   33.7716 H   0  0  0  0  0  0  0  0  0  0  0  0
   44.3702   23.9371   34.4915 H   0  0  0  0  0  0  0  0  0  0  0  0
   46.7617   23.4591   35.5795 H   0  0  0  0  0  0  0  0  0  0  0  0
   46.0944   18.8944   35.6642 H   0  0  0  0  0  0  0  0  0  0  0  0
   45.4388   16.6671   36.5666 H   0  0  0  0  0  0  0  0  0  0  0  0
   41.8920   18.3290   38.0461 H   0  0  0  0  0  0  0  0  0  0  0  0
  1  2  2  0
  1  6  1  0
  2  3  1  0
  3 21  1  0
  3  4  2  0
  5  4  1  0
  5  7  1  0
  6  5  2  0
  7  8  2  0
  8  9  1  0
 10  9  2  0
 11 10  1  0
 12 11  2  0
 13 12  1  0
 14 15  1  0
 14 13  2  0
 15 16  2  0
 16  7  1  0
 16 11  1  0
 17 19  1  0
 17 15  1  0
 18 17  1  0
 20 17  1  0
 21 25  1  0
 22 21  1  0
 22 23  2  0
 23 24  1  0
 25 24  2  0
 25 26  1  0
 26 32  1  0
 27 26  1  0
 27 28  2  0
 28 29  1  0
 29 31  1  0
 29 30  2  0
 32 33  2  0
 32 31  1  0
  1 34  1  0
  2 35  1  0
  8 36  1  0
  9 37  1  0
 10 38  1  0
 12 39  1  0
 13 40  1  0
 14 41  1  0
 22 42  1  0
 23 43  1  0
 27 44  1  0
 28 45  1  0
 31 46  1  0
M  ISO  8  34  14  35  14  36  14  37  14  38  14  39  14  40  14  41  14
M  ISO  5  42  14  43  14  44  14  45  14  46   9
M  END
>  <minimizedAffinity>  (1) 
-6.0830121

>  <minimizedRMSD>  (1) 
3.35977221

$$$$
