
     RDKit          3D

 50 54  0  0  0  0  0  0  0  0999 V2000
   43.0980   21.2870   35.2360 C   0  0  0  0  0  0  0  0  0  0  0  0
   44.1920   22.0630   35.6490 C   0  0  0  0  0  0  0  0  0  0  0  0
   43.9150   23.1920   36.3640 C   0  0  0  0  0  0  0  0  0  0  0  0
   42.6420   23.4060   36.5760 N   0  0  0  0  0  0  0  0  0  0  0  0
   41.5630   22.7440   36.2340 C   0  0  0  0  0  0  0  0  0  0  0  0
   41.8560   21.6230   35.5200 N   0  0  0  0  0  0  0  0  0  0  0  0
   40.3120   23.2610   36.6560 C   0  0  0  0  0  0  0  0  0  0  0  0
   39.8160   22.8530   37.8870 C   0  0  0  0  0  0  0  0  0  0  0  0
   38.6120   23.2980   38.4140 C   0  0  0  0  0  0  0  0  0  0  0  0
   37.8470   24.1880   37.7100 C   0  0  0  0  0  0  0  0  0  0  0  0
   38.3380   24.6010   36.4750 C   0  0  0  0  0  0  0  0  0  0  0  0
   37.5490   25.4680   35.7880 C   0  0  0  0  0  0  0  0  0  0  0  0
   37.9370   25.9100   34.5580 C   0  0  0  0  0  0  0  0  0  0  0  0
   39.1290   25.4420   34.0740 C   0  0  0  0  0  0  0  0  0  0  0  0
   39.9290   24.5560   34.7890 C   0  0  0  0  0  0  0  0  0  0  0  0
   39.5240   24.1350   36.0010 C   0  0  0  0  0  0  0  0  0  0  0  0
   41.1860   24.2160   34.0660 C   0  0  0  0  0  0  0  0  0  0  0  0
   41.1830   24.9490   32.8010 F   0  0  0  0  0  0  0  0  0  0  0  0
   42.2270   25.0770   34.3940 F   0  0  0  0  0  0  0  0  0  0  0  0
   41.2870   23.1640   33.3090 F   0  0  0  0  0  0  0  0  0  0  0  0
   44.9290   24.0690   36.8160 N   0  0  0  0  0  0  0  0  0  0  0  0
   44.6300   25.2590   37.3310 C   0  0  0  0  0  0  0  0  0  0  0  0
   45.8190   25.8650   37.6590 C   0  0  0  0  0  0  0  0  0  0  0  0
   46.8180   25.0300   37.3360 N   0  0  0  0  0  0  0  0  0  0  0  0
   46.2710   23.9230   36.8170 C   0  0  0  0  0  0  0  0  0  0  0  0
   47.0550   22.8510   36.3770 N   0  0  0  0  0  0  0  0  0  0  0  0
   48.3640   22.6610   37.0180 C   0  0  0  0  0  0  0  0  0  0  0  0
   48.9970   21.3740   36.6040 C   0  0  0  0  0  0  0  0  0  0  0  0
   48.0370   20.3110   36.8360 N   0  0  0  0  0  0  0  0  0  0  0  0
   46.8870   20.4390   35.9680 C   0  0  0  0  0  0  0  0  0  0  0  0
   46.7650   21.8280   35.3870 C   0  0  0  0  0  0  0  0  0  0  0  0
   43.2831   20.3700   34.6574 H   0  0  0  0  0  0  0  0  0  0  0  0
   45.2256   21.7744   35.4074 H   0  0  0  0  0  0  0  0  0  0  0  0
   40.4095   22.1385   38.4762 H   0  0  0  0  0  0  0  0  0  0  0  0
   38.2730   22.9361   39.3959 H   0  0  0  0  0  0  0  0  0  0  0  0
   36.8887   24.5596   38.1020 H   0  0  0  0  0  0  0  0  0  0  0  0
   36.5993   25.8125   36.2232 H   0  0  0  0  0  0  0  0  0  0  0  0
   37.3189   26.6124   33.9795 H   0  0  0  0  0  0  0  0  0  0  0  0
   39.4670   25.7789   33.0829 H   0  0  0  0  0  0  0  0  0  0  0  0
   43.6223   25.6781   37.4682 H   0  0  0  0  0  0  0  0  0  0  0  0
   45.9320   26.8625   38.1087 H   0  0  0  0  0  0  0  0  0  0  0  0
   49.0254   23.4922   36.7323 H   0  0  0  0  0  0  0  0  0  0  0  0
   48.2132   22.6355   38.1073 H   0  0  0  0  0  0  0  0  0  0  0  0
   49.9043   21.1950   37.1996 H   0  0  0  0  0  0  0  0  0  0  0  0
   49.2801   21.4101   35.5417 H   0  0  0  0  0  0  0  0  0  0  0  0
   48.4918   19.4041   36.6580 H   0  0  0  0  0  0  0  0  0  0  0  0
   46.9827   19.7170   35.1437 H   0  0  0  0  0  0  0  0  0  0  0  0
   45.9863   20.2427   36.5682 H   0  0  0  0  0  0  0  0  0  0  0  0
   47.4738   21.9288   34.5518 H   0  0  0  0  0  0  0  0  0  0  0  0
   45.7293   21.9666   35.0433 H   0  0  0  0  0  0  0  0  0  0  0  0
  1  6  2  0
  1  2  1  0
  2  3  2  0
  3  4  1  0
  3 21  1  0
  5  4  2  0
  5  7  1  0
  6  5  1  0
  7  8  2  0
  8  9  1  0
 10  9  2  0
 11 10  1  0
 12 11  2  0
 13 12  1  0
 14 13  2  0
 14 15  1  0
 15 16  2  0
 16 11  1  0
 16  7  1  0
 17 19  1  0
 17 15  1  0
 18 17  1  0
 20 17  1  0
 21 25  1  0
 21 22  1  0
 22 23  2  0
 24 23  1  0
 25 24  2  0
 26 25  1  0
 26 27  1  0
 28 29  1  0
 28 27  1  0
 30 29  1  0
 31 30  1  0
 31 26  1  0
  1 32  1  0
  2 33  1  0
  8 34  1  0
  9 35  1  0
 10 36  1  0
 12 37  1  0
 13 38  1  0
 14 39  1  0
 22 40  1  0
 23 41  1  0
 27 42  1  0
 27 43  1  0
 28 44  1  0
 28 45  1  0
 29 46  1  0
 30 47  1  0
 30 48  1  0
 31 49  1  0
 31 50  1  0
M  ISO  8  32  14  33  14  34  14  35  14  36  14  37  14  38  14  39  14
M  ISO  8  40  14  41  14  42  13  43  13  44  13  45  13  46   5  47  13
M  ISO  3  48  13  49  13  50  13
M  END
>  <minimizedAffinity>  (1) 
-6.0214777

>  <minimizedRMSD>  (1) 
0.342968255

$$$$
