
     RDKit          3D

 39 42  0  0  0  0  0  0  0  0999 V2000
   40.3620   23.2780   36.6550 C   0  0  0  0  0  0  0  0  0  0  0  0
   39.8580   22.8610   37.8820 C   0  0  0  0  0  0  0  0  0  0  0  0
   38.6460   23.2980   38.4000 C   0  0  0  0  0  0  0  0  0  0  0  0
   37.8860   24.1790   37.6940 C   0  0  0  0  0  0  0  0  0  0  0  0
   38.3790   24.6040   36.4620 C   0  0  0  0  0  0  0  0  0  0  0  0
   37.5910   25.4630   35.7710 C   0  0  0  0  0  0  0  0  0  0  0  0
   37.9820   25.9130   34.5420 C   0  0  0  0  0  0  0  0  0  0  0  0
   39.1840   25.4520   34.0700 C   0  0  0  0  0  0  0  0  0  0  0  0
   39.9870   24.5720   34.7890 C   0  0  0  0  0  0  0  0  0  0  0  0
   39.5710   24.1450   36.0030 C   0  0  0  0  0  0  0  0  0  0  0  0
   43.1710   21.3310   35.2460 C   0  0  0  0  0  0  0  0  0  0  0  0
   44.2570   22.1000   35.6910 C   0  0  0  0  0  0  0  0  0  0  0  0
   43.9690   23.2150   36.4200 C   0  0  0  0  0  0  0  0  0  0  0  0
   42.6920   23.4250   36.6150 N   0  0  0  0  0  0  0  0  0  0  0  0
   41.6190   22.7700   36.2440 C   0  0  0  0  0  0  0  0  0  0  0  0
   41.9220   21.6610   35.5150 N   0  0  0  0  0  0  0  0  0  0  0  0
   44.9790   24.0760   36.8980 N   0  0  0  0  0  0  0  0  0  0  0  0
   44.6690   25.2330   37.4870 C   0  0  0  0  0  0  0  0  0  0  0  0
   45.8490   25.8450   37.8260 C   0  0  0  0  0  0  0  0  0  0  0  0
   46.8530   25.0580   37.4410 N   0  0  0  0  0  0  0  0  0  0  0  0
   46.3210   23.9630   36.8670 C   0  0  0  0  0  0  0  0  0  0  0  0
   47.1190   22.8800   36.3200 C   0  0  0  0  0  0  0  0  0  0  0  0
   41.2520   24.2450   34.0740 C   0  0  0  0  0  0  0  0  0  0  0  0
   41.2590   24.9900   32.8170 F   0  0  0  0  0  0  0  0  0  0  0  0
   42.2870   25.1000   34.4250 F   0  0  0  0  0  0  0  0  0  0  0  0
   41.3570   23.1970   33.3100 F   0  0  0  0  0  0  0  0  0  0  0  0
   40.4505   22.1474   38.4734 H   0  0  0  0  0  0  0  0  0  0  0  0
   38.3010   22.9330   39.3786 H   0  0  0  0  0  0  0  0  0  0  0  0
   36.9217   24.5409   38.0803 H   0  0  0  0  0  0  0  0  0  0  0  0
   36.6353   25.7983   36.2003 H   0  0  0  0  0  0  0  0  0  0  0  0
   37.3629   26.6111   33.9594 H   0  0  0  0  0  0  0  0  0  0  0  0
   39.5278   25.7920   33.0819 H   0  0  0  0  0  0  0  0  0  0  0  0
   43.3669   20.4246   34.6543 H   0  0  0  0  0  0  0  0  0  0  0  0
   45.2946   21.8156   35.4617 H   0  0  0  0  0  0  0  0  0  0  0  0
   43.6563   25.6230   37.6670 H   0  0  0  0  0  0  0  0  0  0  0  0
   45.9492   26.8181   38.3291 H   0  0  0  0  0  0  0  0  0  0  0  0
   47.5522   22.2921   37.1426 H   0  0  0  0  0  0  0  0  0  0  0  0
   46.4816   22.2310   35.7015 H   0  0  0  0  0  0  0  0  0  0  0  0
   47.9277   23.2966   35.7015 H   0  0  0  0  0  0  0  0  0  0  0  0
  1  2  2  0
  2  3  1  0
  4  3  2  0
  5  4  1  0
  6  5  2  0
  7  6  1  0
  8  7  2  0
  8  9  1  0
  9 10  2  0
 10  5  1  0
 10  1  1  0
 11 16  2  0
 11 12  1  0
 12 13  2  0
 13 14  1  0
 13 17  1  0
 15 14  2  0
 15  1  1  0
 16 15  1  0
 17 18  1  0
 18 19  2  0
 20 19  1  0
 21 17  1  0
 21 20  2  0
 22 21  1  0
 23 25  1  0
 23  9  1  0
 24 23  1  0
 26 23  1  0
  2 27  1  0
  3 28  1  0
  4 29  1  0
  6 30  1  0
  7 31  1  0
  8 32  1  0
 11 33  1  0
 12 34  1  0
 18 35  1  0
 19 36  1  0
 22 37  1  0
 22 38  1  0
 22 39  1  0
M  ISO  8  27  14  28  14  29  14  30  14  31  14  32  14  33  14  34  14
M  ISO  5  35  14  36  14  37   8  38   8  39   8
M  END
>  <minimizedAffinity>  (1) 
-5.68394852

>  <minimizedRMSD>  (1) 
0.168101177

$$$$
