
     RDKit          3D

 38 41  0  0  0  0  0  0  0  0999 V2000
   40.3510   23.2780   36.6540 C   0  0  0  0  0  0  0  0  0  0  0  0
   39.8420   22.8620   37.8780 C   0  0  0  0  0  0  0  0  0  0  0  0
   38.6350   23.2940   38.3930 C   0  0  0  0  0  0  0  0  0  0  0  0
   37.8770   24.1780   37.6880 C   0  0  0  0  0  0  0  0  0  0  0  0
   38.3720   24.6020   36.4620 C   0  0  0  0  0  0  0  0  0  0  0  0
   37.5830   25.4670   35.7650 C   0  0  0  0  0  0  0  0  0  0  0  0
   37.9780   25.9170   34.5390 C   0  0  0  0  0  0  0  0  0  0  0  0
   39.1810   25.4600   34.0670 C   0  0  0  0  0  0  0  0  0  0  0  0
   39.9810   24.5780   34.7860 C   0  0  0  0  0  0  0  0  0  0  0  0
   39.5640   24.1480   35.9970 C   0  0  0  0  0  0  0  0  0  0  0  0
   43.1620   21.3340   35.2320 C   0  0  0  0  0  0  0  0  0  0  0  0
   44.2500   22.1000   35.6760 C   0  0  0  0  0  0  0  0  0  0  0  0
   43.9560   23.2140   36.4150 C   0  0  0  0  0  0  0  0  0  0  0  0
   42.6820   23.4230   36.6160 N   0  0  0  0  0  0  0  0  0  0  0  0
   41.6050   22.7700   36.2450 C   0  0  0  0  0  0  0  0  0  0  0  0
   41.9150   21.6610   35.5070 N   0  0  0  0  0  0  0  0  0  0  0  0
   44.9650   24.0820   36.9040 N   0  0  0  0  0  0  0  0  0  0  0  0
   44.6600   25.2390   37.4780 C   0  0  0  0  0  0  0  0  0  0  0  0
   45.8390   25.8430   37.8250 C   0  0  0  0  0  0  0  0  0  0  0  0
   46.8450   25.0360   37.4560 N   0  0  0  0  0  0  0  0  0  0  0  0
   46.3110   23.9470   36.8860 C   0  0  0  0  0  0  0  0  0  0  0  0
   47.0470   22.8600   36.3650 N   0  0  0  0  0  0  0  0  0  0  0  0
   41.2470   24.2490   34.0760 C   0  0  0  0  0  0  0  0  0  0  0  0
   41.2590   24.9980   32.8190 F   0  0  0  0  0  0  0  0  0  0  0  0
   42.2810   25.1020   34.4260 F   0  0  0  0  0  0  0  0  0  0  0  0
   41.3540   23.2060   33.3070 F   0  0  0  0  0  0  0  0  0  0  0  0
   40.4334   22.1484   38.4705 H   0  0  0  0  0  0  0  0  0  0  0  0
   38.2877   22.9249   39.3693 H   0  0  0  0  0  0  0  0  0  0  0  0
   36.9128   24.5412   38.0734 H   0  0  0  0  0  0  0  0  0  0  0  0
   36.6263   25.8030   36.1913 H   0  0  0  0  0  0  0  0  0  0  0  0
   37.3592   26.6148   33.9559 H   0  0  0  0  0  0  0  0  0  0  0  0
   39.5273   25.8041   33.0813 H   0  0  0  0  0  0  0  0  0  0  0  0
   43.3558   20.4308   34.6347 H   0  0  0  0  0  0  0  0  0  0  0  0
   45.2876   21.8195   35.4420 H   0  0  0  0  0  0  0  0  0  0  0  0
   43.6486   25.6384   37.6441 H   0  0  0  0  0  0  0  0  0  0  0  0
   45.9430   26.8198   38.3201 H   0  0  0  0  0  0  0  0  0  0  0  0
   48.0761   22.8675   36.4071 H   0  0  0  0  0  0  0  0  0  0  0  0
   46.5546   22.0598   35.9430 H   0  0  0  0  0  0  0  0  0  0  0  0
  1  2  2  0
  2  3  1  0
  4  3  2  0
  5  4  1  0
  6  5  2  0
  7  6  1  0
  8  7  2  0
  8  9  1  0
  9 10  2  0
 10  5  1  0
 10  1  1  0
 11 16  2  0
 11 12  1  0
 12 13  2  0
 13 14  1  0
 13 17  1  0
 15 14  2  0
 15  1  1  0
 16 15  1  0
 17 18  1  0
 18 19  2  0
 20 19  1  0
 21 17  1  0
 21 20  2  0
 22 21  1  0
 23 25  1  0
 23  9  1  0
 24 23  1  0
 26 23  1  0
  2 27  1  0
  3 28  1  0
  4 29  1  0
  6 30  1  0
  7 31  1  0
  8 32  1  0
 11 33  1  0
 12 34  1  0
 18 35  1  0
 19 36  1  0
 22 37  1  0
 22 38  1  0
M  ISO  8  27  14  28  14  29  14  30  14  31  14  32  14  33  14  34  14
M  ISO  2  35  14  36  14
M  END
>  <minimizedAffinity>  (1) 
-5.6414156

>  <minimizedRMSD>  (1) 
0.163949102

$$$$
