
     RDKit          3D

 45 48  0  0  0  0  0  0  0  0999 V2000
   40.5770   23.5460   36.4600 C   0  0  0  0  0  0  0  0  0  0  0  0
   39.9920   22.8000   37.4710 C   0  0  0  0  0  0  0  0  0  0  0  0
   38.7060   23.0120   37.9270 C   0  0  0  0  0  0  0  0  0  0  0  0
   37.9480   23.9970   37.3740 C   0  0  0  0  0  0  0  0  0  0  0  0
   38.5220   24.7510   36.3600 C   0  0  0  0  0  0  0  0  0  0  0  0
   37.7290   25.7210   35.8180 C   0  0  0  0  0  0  0  0  0  0  0  0
   38.2060   26.5100   34.8010 C   0  0  0  0  0  0  0  0  0  0  0  0
   39.5060   26.2510   34.3900 C   0  0  0  0  0  0  0  0  0  0  0  0
   40.2880   25.2640   34.9510 C   0  0  0  0  0  0  0  0  0  0  0  0
   39.7930   24.5060   35.9440 C   0  0  0  0  0  0  0  0  0  0  0  0
   43.6520   22.1630   34.9120 C   0  0  0  0  0  0  0  0  0  0  0  0
   44.6230   22.8660   35.6380 C   0  0  0  0  0  0  0  0  0  0  0  0
   44.1860   23.7480   36.5850 C   0  0  0  0  0  0  0  0  0  0  0  0
   42.8830   23.8220   36.6930 N   0  0  0  0  0  0  0  0  0  0  0  0
   41.9040   23.2250   36.0790 C   0  0  0  0  0  0  0  0  0  0  0  0
   42.3610   22.3380   35.1260 N   0  0  0  0  0  0  0  0  0  0  0  0
   45.0730   24.5250   37.3540 N   0  0  0  0  0  0  0  0  0  0  0  0
   44.6220   25.4990   38.1470 C   0  0  0  0  0  0  0  0  0  0  0  0
   45.7130   26.0700   38.7460 C   0  0  0  0  0  0  0  0  0  0  0  0
   46.7940   25.4370   38.3090 N   0  0  0  0  0  0  0  0  0  0  0  0
   46.4200   24.4800   37.4500 C   0  0  0  0  0  0  0  0  0  0  0  0
   47.3820   23.6350   36.7570 C   0  0  0  0  0  0  0  0  0  0  0  0
   48.5900   23.2600   37.5980 C   0  0  0  0  0  0  0  0  0  0  0  0
   48.0410   24.4570   35.5950 C   0  0  0  0  0  0  0  0  0  0  0  0
   41.6300   25.1920   34.3230 C   0  0  0  0  0  0  0  0  0  0  0  0
   41.6940   26.2060   33.2720 F   0  0  0  0  0  0  0  0  0  0  0  0
   42.5650   25.9630   34.9610 F   0  0  0  0  0  0  0  0  0  0  0  0
   41.8850   24.3640   33.3230 F   0  0  0  0  0  0  0  0  0  0  0  0
   40.5834   21.9967   37.9346 H   0  0  0  0  0  0  0  0  0  0  0  0
   38.2962   22.3870   38.7341 H   0  0  0  0  0  0  0  0  0  0  0  0
   36.9205   24.1883   37.7170 H   0  0  0  0  0  0  0  0  0  0  0  0
   36.7070   25.8705   36.1965 H   0  0  0  0  0  0  0  0  0  0  0  0
   37.5948   27.2997   34.3397 H   0  0  0  0  0  0  0  0  0  0  0  0
   39.9318   26.8610   33.5797 H   0  0  0  0  0  0  0  0  0  0  0  0
   43.9743   21.4458   34.1428 H   0  0  0  0  0  0  0  0  0  0  0  0
   45.6964   22.7133   35.4522 H   0  0  0  0  0  0  0  0  0  0  0  0
   43.5709   25.7888   38.2922 H   0  0  0  0  0  0  0  0  0  0  0  0
   45.6961   26.9049   39.4620 H   0  0  0  0  0  0  0  0  0  0  0  0
   46.8071   22.7462   36.4577 H   0  0  0  0  0  0  0  0  0  0  0  0
   48.3332   23.3397   38.6646 H   0  0  0  0  0  0  0  0  0  0  0  0
   48.8895   22.2266   37.3692 H   0  0  0  0  0  0  0  0  0  0  0  0
   49.4221   23.9421   37.3692 H   0  0  0  0  0  0  0  0  0  0  0  0
   48.6756   25.2486   36.0200 H   0  0  0  0  0  0  0  0  0  0  0  0
   48.6555   23.7876   34.9751 H   0  0  0  0  0  0  0  0  0  0  0  0
   47.2540   24.9112   34.9751 H   0  0  0  0  0  0  0  0  0  0  0  0
  1  2  2  0
  2  3  1  0
  4  3  2  0
  5  4  1  0
  6  5  2  0
  7  6  1  0
  8  7  2  0
  8  9  1  0
  9 10  2  0
 10  5  1  0
 10  1  1  0
 11 16  2  0
 11 12  1  0
 12 13  2  0
 13 14  1  0
 13 17  1  0
 15  1  1  0
 15 14  2  0
 16 15  1  0
 17 21  1  0
 17 18  1  0
 18 19  2  0
 20 19  1  0
 21 20  2  0
 22 21  1  0
 22 23  1  0
 24 22  1  0
 25  9  1  0
 25 27  1  0
 26 25  1  0
 28 25  1  0
  2 29  1  0
  3 30  1  0
  4 31  1  0
  6 32  1  0
  7 33  1  0
  8 34  1  0
 11 35  1  0
 12 36  1  0
 18 37  1  0
 19 38  1  0
 22 39  1  0
 23 40  1  0
 23 41  1  0
 23 42  1  0
 24 43  1  0
 24 44  1  0
 24 45  1  0
M  ISO  8  29  14  30  14  31  14  32  14  33  14  34  14  35  14  36  14
M  ISO  8  37  14  38  14  39   8  40   8  41   8  42   8  43   8  44   8
M  ISO  1  45   8
M  END
>  <minimizedAffinity>  (1) 
-5.6392045

>  <minimizedRMSD>  (1) 
1.19814241

$$$$
