
     RDKit          3D

 37 40  0  0  0  0  0  0  0  0999 V2000
   40.3610   23.2830   36.6540 C   0  0  0  0  0  0  0  0  0  0  0  0
   39.8530   22.8660   37.8770 C   0  0  0  0  0  0  0  0  0  0  0  0
   38.6490   23.2920   38.3930 C   0  0  0  0  0  0  0  0  0  0  0  0
   37.8860   24.1720   37.6880 C   0  0  0  0  0  0  0  0  0  0  0  0
   38.3810   24.5950   36.4610 C   0  0  0  0  0  0  0  0  0  0  0  0
   37.5830   25.4600   35.7610 C   0  0  0  0  0  0  0  0  0  0  0  0
   37.9790   25.9120   34.5340 C   0  0  0  0  0  0  0  0  0  0  0  0
   39.1880   25.4530   34.0690 C   0  0  0  0  0  0  0  0  0  0  0  0
   39.9900   24.5780   34.7880 C   0  0  0  0  0  0  0  0  0  0  0  0
   39.5730   24.1500   35.9910 C   0  0  0  0  0  0  0  0  0  0  0  0
   43.1790   21.3370   35.2380 C   0  0  0  0  0  0  0  0  0  0  0  0
   44.2610   22.1070   35.6830 C   0  0  0  0  0  0  0  0  0  0  0  0
   43.9670   23.2200   36.4200 C   0  0  0  0  0  0  0  0  0  0  0  0
   42.6930   23.4270   36.6180 N   0  0  0  0  0  0  0  0  0  0  0  0
   41.6180   22.7730   36.2470 C   0  0  0  0  0  0  0  0  0  0  0  0
   41.9310   21.6620   35.5110 N   0  0  0  0  0  0  0  0  0  0  0  0
   44.9740   24.0880   36.9040 N   0  0  0  0  0  0  0  0  0  0  0  0
   44.6690   25.2140   37.5410 C   0  0  0  0  0  0  0  0  0  0  0  0
   45.8470   25.8330   37.8680 C   0  0  0  0  0  0  0  0  0  0  0  0
   46.8540   25.0680   37.4210 N   0  0  0  0  0  0  0  0  0  0  0  0
   46.3180   23.9940   36.8280 C   0  0  0  0  0  0  0  0  0  0  0  0
   47.2740   22.7140   36.0940 S   0  0  0  0  0  0  0  0  0  0  0  0
   41.2580   24.2480   34.0750 C   0  0  0  0  0  0  0  0  0  0  0  0
   41.2680   24.9910   32.8180 F   0  0  0  0  0  0  0  0  0  0  0  0
   42.2890   25.1020   34.4220 F   0  0  0  0  0  0  0  0  0  0  0  0
   41.3680   23.2020   33.3090 F   0  0  0  0  0  0  0  0  0  0  0  0
   40.4468   22.1537   38.4686 H   0  0  0  0  0  0  0  0  0  0  0  0
   38.3054   22.9228   39.3706 H   0  0  0  0  0  0  0  0  0  0  0  0
   36.9205   24.5320   38.0729 H   0  0  0  0  0  0  0  0  0  0  0  0
   36.6239   25.7907   36.1862 H   0  0  0  0  0  0  0  0  0  0  0  0
   37.3612   26.6082   33.9478 H   0  0  0  0  0  0  0  0  0  0  0  0
   39.5355   25.7944   33.0828 H   0  0  0  0  0  0  0  0  0  0  0  0
   43.3767   20.4335   34.6425 H   0  0  0  0  0  0  0  0  0  0  0  0
   45.2995   21.8289   35.4501 H   0  0  0  0  0  0  0  0  0  0  0  0
   43.6566   25.5816   37.7647 H   0  0  0  0  0  0  0  0  0  0  0  0
   45.9488   26.7888   38.4028 H   0  0  0  0  0  0  0  0  0  0  0  0
   47.8450   21.9495   37.0771 H   0  0  0  0  0  0  0  0  0  0  0  0
  1  2  2  0
  2  3  1  0
  4  3  2  0
  5  4  1  0
  6  5  2  0
  7  6  1  0
  8  7  2  0
  8  9  1  0
  9 10  2  0
 10  5  1  0
 10  1  1  0
 11 16  2  0
 11 12  1  0
 12 13  2  0
 13 14  1  0
 13 17  1  0
 15 14  2  0
 15  1  1  0
 16 15  1  0
 17 18  1  0
 18 19  2  0
 20 19  1  0
 21 17  1  0
 21 20  2  0
 22 21  1  0
 23 25  1  0
 23  9  1  0
 24 23  1  0
 26 23  1  0
  2 27  1  0
  3 28  1  0
  4 29  1  0
  6 30  1  0
  7 31  1  0
  8 32  1  0
 11 33  1  0
 12 34  1  0
 18 35  1  0
 19 36  1  0
 22 37  1  0
M  ISO  8  27  14  28  14  29  14  30  14  31  14  32  14  33  14  34  14
M  ISO  3  35  14  36  14  37  11
M  END
>  <minimizedAffinity>  (1) 
-5.63733244

>  <minimizedRMSD>  (1) 
0.155938268

$$$$
