
     RDKit          3D

 43 47  0  0  0  0  0  0  0  0999 V2000
   43.1630   21.3420   35.3220 C   0  0  0  0  0  0  0  0  0  0  0  0
   44.2340   22.1330   35.7660 C   0  0  0  0  0  0  0  0  0  0  0  0
   43.9330   23.2590   36.4670 C   0  0  0  0  0  0  0  0  0  0  0  0
   42.6550   23.4590   36.6410 N   0  0  0  0  0  0  0  0  0  0  0  0
   41.5920   22.7860   36.2730 C   0  0  0  0  0  0  0  0  0  0  0  0
   41.9100   21.6660   35.5720 N   0  0  0  0  0  0  0  0  0  0  0  0
   40.3220   23.2930   36.6610 C   0  0  0  0  0  0  0  0  0  0  0  0
   39.7950   22.8740   37.8750 C   0  0  0  0  0  0  0  0  0  0  0  0
   38.5790   23.3030   38.3740 C   0  0  0  0  0  0  0  0  0  0  0  0
   37.8320   24.1860   37.6580 C   0  0  0  0  0  0  0  0  0  0  0  0
   38.3440   24.6160   36.4360 C   0  0  0  0  0  0  0  0  0  0  0  0
   37.5620   25.4760   35.7300 C   0  0  0  0  0  0  0  0  0  0  0  0
   37.9800   25.9240   34.5060 C   0  0  0  0  0  0  0  0  0  0  0  0
   39.1900   25.4650   34.0590 C   0  0  0  0  0  0  0  0  0  0  0  0
   39.9800   24.5880   34.7910 C   0  0  0  0  0  0  0  0  0  0  0  0
   39.5440   24.1620   35.9940 C   0  0  0  0  0  0  0  0  0  0  0  0
   41.2590   24.2630   34.0990 C   0  0  0  0  0  0  0  0  0  0  0  0
   41.2820   24.9980   32.8360 F   0  0  0  0  0  0  0  0  0  0  0  0
   42.2810   25.1350   34.4530 F   0  0  0  0  0  0  0  0  0  0  0  0
   41.3870   23.2050   33.3510 F   0  0  0  0  0  0  0  0  0  0  0  0
   44.9350   24.1380   36.9290 N   0  0  0  0  0  0  0  0  0  0  0  0
   44.6180   25.1730   37.7130 C   0  0  0  0  0  0  0  0  0  0  0  0
   45.7810   25.8290   37.9930 C   0  0  0  0  0  0  0  0  0  0  0  0
   46.7750   25.2090   37.3970 N   0  0  0  0  0  0  0  0  0  0  0  0
   46.2790   24.1320   36.7120 C   0  0  0  0  0  0  0  0  0  0  0  0
   47.0530   23.2000   35.9050 C   0  0  0  0  0  0  0  0  0  0  0  0
   47.8180   22.2910   36.6620 C   0  0  0  0  0  0  0  0  0  0  0  0
   48.5400   21.4250   35.8960 C   0  0  0  0  0  0  0  0  0  0  0  0
   48.2520   21.7600   34.6500 N   0  0  0  0  0  0  0  0  0  0  0  0
   47.4560   22.7120   34.7640 N   0  0  0  0  0  0  0  0  0  0  0  0
   43.3750   20.4268   34.7498 H   0  0  0  0  0  0  0  0  0  0  0  0
   45.2767   21.8531   35.5552 H   0  0  0  0  0  0  0  0  0  0  0  0
   40.3784   22.1596   38.4744 H   0  0  0  0  0  0  0  0  0  0  0  0
   38.2177   22.9323   39.3446 H   0  0  0  0  0  0  0  0  0  0  0  0
   36.8614   24.5464   38.0295 H   0  0  0  0  0  0  0  0  0  0  0  0
   36.5978   25.8101   36.1408 H   0  0  0  0  0  0  0  0  0  0  0  0
   37.3722   26.6202   33.9094 H   0  0  0  0  0  0  0  0  0  0  0  0
   39.5521   25.8055   33.0777 H   0  0  0  0  0  0  0  0  0  0  0  0
   43.6118   25.4441   38.0652 H   0  0  0  0  0  0  0  0  0  0  0  0
   45.8721   26.7306   38.6165 H   0  0  0  0  0  0  0  0  0  0  0  0
   47.8314   22.2811   37.7619 H   0  0  0  0  0  0  0  0  0  0  0  0
   49.2129   20.6250   36.2385 H   0  0  0  0  0  0  0  0  0  0  0  0
   48.6052   21.3316   33.7824 H   0  0  0  0  0  0  0  0  0  0  0  0
  1  6  2  0
  1  2  1  0
  2  3  2  0
  3  4  1  0
  3 21  1  0
  5  4  2  0
  5  7  1  0
  6  5  1  0
  7  8  2  0
  8  9  1  0
 10  9  2  0
 11 10  1  0
 12 11  2  0
 13 12  1  0
 14 13  2  0
 14 15  1  0
 15 16  2  0
 16 11  1  0
 16  7  1  0
 17 19  1  0
 17 15  1  0
 18 17  1  0
 20 17  1  0
 21 22  1  0
 22 23  2  0
 24 23  1  0
 25 21  1  0
 25 24  2  0
 26 27  1  0
 26 25  1  0
 28 27  2  0
 29 30  1  0
 29 28  1  0
 30 26  2  0
  1 31  1  0
  2 32  1  0
  8 33  1  0
  9 34  1  0
 10 35  1  0
 12 36  1  0
 13 37  1  0
 14 38  1  0
 22 39  1  0
 23 40  1  0
 27 41  1  0
 28 42  1  0
 29 43  1  0
M  ISO  8  31  14  32  14  33  14  34  14  35  14  36  14  37  14  38  14
M  ISO  5  39  14  40  14  41  14  42  14  43   9
M  END
>  <minimizedAffinity>  (1) 
-5.57521534

>  <minimizedRMSD>  (1) 
0.238631174

$$$$
