
     RDKit          3D

 31 32  0  0  1  0  0  0  0  0999 V2000
   37.3520   22.0530   34.1090 N   0  0  0  0  0  0  0  0  0  0  0  0
   37.4580   21.9730   35.5520 C   0  0  0  0  0  0  0  0  0  0  0  0
   38.9280   22.3490   35.7770 C   0  0  1  0  0  0  0  0  0  0  0  0
   39.4280   22.8940   34.4570 C   0  0  0  0  0  0  0  0  0  0  0  0
   38.0850   23.2760   33.8260 C   0  0  0  0  0  0  0  0  0  0  0  0
   36.7060   21.1730   33.2060 C   0  0  0  0  0  0  0  0  0  0  0  0
   35.6590   20.3310   33.5980 C   0  0  0  0  0  0  0  0  0  0  0  0
   35.0720   19.4900   32.6530 C   0  0  0  0  0  0  0  0  0  0  0  0
   35.5650   19.5410   31.3670 N   0  0  0  0  0  0  0  0  0  0  0  0
   36.5730   20.3640   31.0250 C   0  0  0  0  0  0  0  0  0  0  0  0
   37.1500   21.1770   31.9210 N   0  0  0  0  0  0  0  0  0  0  0  0
   39.1170   23.3130   36.9040 C   0  0  0  0  0  0  0  0  0  0  0  0
   40.1310   22.6960   37.8660 C   0  0  0  0  0  0  0  0  0  0  0  0
   37.8010   23.3620   37.6800 C   0  0  0  0  0  0  0  0  0  0  0  0
   36.7815   22.6874   36.0440 H   0  0  0  0  0  0  0  0  0  0  0  0
   37.1792   20.9930   35.9666 H   0  0  0  0  0  0  0  0  0  0  0  0
   39.5097   21.4676   36.0847 H   0  0  0  0  0  0  0  0  0  0  0  0
   40.0821   23.7678   34.5936 H   0  0  0  0  0  0  0  0  0  0  0  0
   40.0470   22.2031   33.8659 H   0  0  0  0  0  0  0  0  0  0  0  0
   38.1742   23.4641   32.7459 H   0  0  0  0  0  0  0  0  0  0  0  0
   37.6283   24.2025   34.2042 H   0  0  0  0  0  0  0  0  0  0  0  0
   35.3034   20.3326   34.6389 H   0  0  0  0  0  0  0  0  0  0  0  0
   34.2483   18.8129   32.9233 H   0  0  0  0  0  0  0  0  0  0  0  0
   36.9321   20.3698   29.9853 H   0  0  0  0  0  0  0  0  0  0  0  0
   39.4311   24.2994   36.5319 H   0  0  0  0  0  0  0  0  0  0  0  0
   39.8165   22.8874   38.9026 H   0  0  0  0  0  0  0  0  0  0  0  0
   40.1864   21.6109   37.6940 H   0  0  0  0  0  0  0  0  0  0  0  0
   41.1201   23.1455   37.6940 H   0  0  0  0  0  0  0  0  0  0  0  0
   38.0115   23.3542   38.7597 H   0  0  0  0  0  0  0  0  0  0  0  0
   37.2557   24.2811   37.4194 H   0  0  0  0  0  0  0  0  0  0  0  0
   37.1888   22.4860   37.4194 H   0  0  0  0  0  0  0  0  0  0  0  0
  1  2  1  0
  2  3  1  0
  3 12  1  0
  4  3  1  0
  5  1  1  0
  5  4  1  0
  6  7  2  0
  6  1  1  0
  8  7  1  0
  9  8  2  0
 10  9  1  0
 10 11  2  0
 11  6  1  0
 12 14  1  0
 12 13  1  0
  2 15  1  0
  2 16  1  0
  3 17  1  1
  4 18  1  0
  4 19  1  0
  5 20  1  0
  5 21  1  0
  7 22  1  0
  8 23  1  0
 10 24  1  0
 12 25  1  0
 13 26  1  0
 13 27  1  0
 13 28  1  0
 14 29  1  0
 14 30  1  0
 14 31  1  0
M  ISO  8  15  13  16  13  17  13  18  13  19  13  20  13  21  13  22  14
M  ISO  8  23  14  24  14  25   8  26   8  27   8  28   8  29   8  30   8
M  ISO  1  31   8
M  END
>  <minimizedAffinity>  (1) 
-3.98497534

>  <minimizedRMSD>  (1) 
2.90422797

$$$$
