
     RDKit          3D

 25 26  0  0  1  0  0  0  0  0999 V2000
   38.3840   23.4420   35.7060 N   0  0  0  0  0  0  0  0  0  0  0  0
   37.6450   23.7690   36.9290 C   0  0  0  0  0  0  0  0  0  0  0  0
   38.5330   23.1360   37.9950 C   0  0  1  0  0  0  0  0  0  0  0  0
   39.8260   22.7740   37.2970 C   0  0  0  0  0  0  0  0  0  0  0  0
   39.7670   23.6860   36.0840 C   0  0  0  0  0  0  0  0  0  0  0  0
   37.8700   22.9970   34.4570 C   0  0  0  0  0  0  0  0  0  0  0  0
   37.3660   21.6900   34.2790 C   0  0  0  0  0  0  0  0  0  0  0  0
   36.8770   21.3220   33.0310 C   0  0  0  0  0  0  0  0  0  0  0  0
   36.9130   22.2580   32.0300 N   0  0  0  0  0  0  0  0  0  0  0  0
   37.4020   23.4950   32.2410 C   0  0  0  0  0  0  0  0  0  0  0  0
   37.8790   23.8710   33.4350 N   0  0  0  0  0  0  0  0  0  0  0  0
   38.7390   24.0520   39.1780 C   0  0  0  0  0  0  0  0  0  0  0  0
   37.5606   24.8567   37.0695 H   0  0  0  0  0  0  0  0  0  0  0  0
   36.6059   23.4081   36.9368 H   0  0  0  0  0  0  0  0  0  0  0  0
   38.0648   22.2393   38.4271 H   0  0  0  0  0  0  0  0  0  0  0  0
   40.7004   22.9955   37.9265 H   0  0  0  0  0  0  0  0  0  0  0  0
   39.9269   21.7055   37.0559 H   0  0  0  0  0  0  0  0  0  0  0  0
   40.4729   23.3787   35.2983 H   0  0  0  0  0  0  0  0  0  0  0  0
   40.0383   24.7374   36.2601 H   0  0  0  0  0  0  0  0  0  0  0  0
   37.3605   20.9746   35.1145 H   0  0  0  0  0  0  0  0  0  0  0  0
   36.4747   20.3139   32.8526 H   0  0  0  0  0  0  0  0  0  0  0  0
   37.4099   24.2161   31.4104 H   0  0  0  0  0  0  0  0  0  0  0  0
   38.6108   23.4818   40.1099 H   0  0  0  0  0  0  0  0  0  0  0  0
   39.7544   24.4736   39.1429 H   0  0  0  0  0  0  0  0  0  0  0  0
   38.0019   24.8677   39.1429 H   0  0  0  0  0  0  0  0  0  0  0  0
  1  5  1  0
  1  2  1  0
  2  3  1  0
  3 12  1  0
  4  3  1  0
  5  4  1  0
  6  1  1  0
  7  6  2  0
  8  7  1  0
  9 10  1  0
  9  8  2  0
 10 11  2  0
 11  6  1  0
  2 13  1  0
  2 14  1  0
  3 15  1  1
  4 16  1  0
  4 17  1  0
  5 18  1  0
  5 19  1  0
  7 20  1  0
  8 21  1  0
 10 22  1  0
 12 23  1  0
 12 24  1  0
 12 25  1  0
M  ISO  8  13  13  14  13  15  13  16  13  17  13  18  13  19  13  20  14
M  ISO  5  21  14  22  14  23   8  24   8  25   8
M  END
>  <minimizedAffinity>  (1) 
-3.25091648

>  <minimizedRMSD>  (1) 
0.780405521

$$$$
