
     RDKit          3D

 31 33  0  0  1  0  0  0  0  0999 V2000
   37.3520   22.1180   33.7950 N   0  0  0  0  0  0  0  0  0  0  0  0
   37.6770   22.0240   35.2100 C   0  0  0  0  0  0  0  0  0  0  0  0
   39.0460   22.6610   35.2860 C   0  0  1  0  0  0  0  0  0  0  0  0
   39.2810   23.2820   33.9220 C   0  0  0  0  0  0  0  0  0  0  0  0
   37.8350   23.4520   33.4770 C   0  0  0  0  0  0  0  0  0  0  0  0
   36.7330   21.1670   32.9580 C   0  0  0  0  0  0  0  0  0  0  0  0
   37.4600   20.2460   32.1930 C   0  0  0  0  0  0  0  0  0  0  0  0
   36.7820   19.3410   31.3960 C   0  0  0  0  0  0  0  0  0  0  0  0
   35.4180   19.3830   31.3870 N   0  0  0  0  0  0  0  0  0  0  0  0
   34.7250   20.2900   32.1420 C   0  0  0  0  0  0  0  0  0  0  0  0
   35.3860   21.1670   32.9150 N   0  0  0  0  0  0  0  0  0  0  0  0
   38.9690   23.7420   36.2670 N   0  0  0  0  0  0  0  0  0  0  0  0
   38.1080   23.4260   37.3670 C   0  0  0  0  0  0  0  0  0  0  0  0
   38.8290   23.3280   38.6990 C   0  0  0  0  0  0  0  0  0  0  0  0
   37.9230   24.4660   38.4740 C   0  0  0  0  0  0  0  0  0  0  0  0
   36.9486   22.5775   35.8208 H   0  0  0  0  0  0  0  0  0  0  0  0
   37.6562   20.9929   35.5926 H   0  0  0  0  0  0  0  0  0  0  0  0
   39.8357   21.9458   35.5596 H   0  0  0  0  0  0  0  0  0  0  0  0
   39.8052   24.2464   33.9940 H   0  0  0  0  0  0  0  0  0  0  0  0
   39.9166   22.6961   33.2417 H   0  0  0  0  0  0  0  0  0  0  0  0
   37.7557   23.6762   32.4030 H   0  0  0  0  0  0  0  0  0  0  0  0
   37.2862   24.2824   33.9452 H   0  0  0  0  0  0  0  0  0  0  0  0
   38.5595   20.2423   32.2256 H   0  0  0  0  0  0  0  0  0  0  0  0
   37.3281   18.6068   30.7855 H   0  0  0  0  0  0  0  0  0  0  0  0
   33.6254   20.3007   32.1157 H   0  0  0  0  0  0  0  0  0  0  0  0
   39.9150   23.9258   36.6306 H   0  0  0  0  0  0  0  0  0  0  0  0
   37.4159   22.8205   36.7635 H   0  0  0  0  0  0  0  0  0  0  0  0
   38.5490   22.5407   39.4144 H   0  0  0  0  0  0  0  0  0  0  0  0
   39.8835   23.2323   38.9970 H   0  0  0  0  0  0  0  0  0  0  0  0
   38.3351   25.4783   38.3494 H   0  0  0  0  0  0  0  0  0  0  0  0
   37.0557   24.8817   39.0078 H   0  0  0  0  0  0  0  0  0  0  0  0
  1  2  1  0
  2  3  1  0
  3 12  1  0
  4  3  1  0
  5  1  1  0
  5  4  1  0
  6  1  1  0
  7  6  2  0
  8  7  1  0
  9  8  2  0
  9 10  1  0
 10 11  2  0
 11  6  1  0
 12 13  1  0
 13 15  1  0
 13 14  1  0
 15 14  1  0
  2 16  1  0
  2 17  1  0
  3 18  1  1
  4 19  1  0
  4 20  1  0
  5 21  1  0
  5 22  1  0
  7 23  1  0
  8 24  1  0
 10 25  1  0
 12 26  1  0
 13 27  1  0
 14 28  1  0
 14 29  1  0
 15 30  1  0
 15 31  1  0
M  ISO  8  16  13  17  13  18  13  19  13  20  13  21  13  22  13  23  14
M  ISO  8  24  14  25  14  26   5  27  13  28  13  29  13  30  13  31  13
M  END
>  <minimizedAffinity>  (1) 
-3.94326615

>  <minimizedRMSD>  (1) 
3.01225114

$$$$
