
     RDKit          3D

 57 60  0  0  1  0  0  0  0  0999 V2000
   37.1520   27.1020   31.2860 C   0  0  0  0  0  0  0  0  0  0  0  0
   36.3730   26.0830   32.1120 C   0  0  1  0  0  0  0  0  0  0  0  0
   35.1050   25.6860   31.4050 C   0  0  0  0  0  0  0  0  0  0  0  0
   35.1540   24.4120   30.6530 C   0  0  0  0  0  0  0  0  0  0  0  0
   36.0690   23.3570   31.0810 C   0  0  0  0  0  0  0  0  0  0  0  0
   37.3890   23.8680   31.6090 C   0  0  0  0  0  0  0  0  0  0  0  0
   37.1570   24.9500   32.6220 C   0  0  1  0  0  0  0  0  0  0  0  0
   37.9090   24.9560   33.8860 C   0  0  0  0  0  0  0  0  0  0  0  0
   39.4260   25.2490   33.6710 C   0  0  0  0  0  0  0  0  0  0  0  0
   40.0390   25.5260   34.9950 C   0  0  0  0  0  0  0  0  0  0  0  0
   39.6880   26.9480   35.4120 C   0  0  0  0  0  0  0  0  0  0  0  0
   38.3140   27.2450   34.8470 C   0  0  0  0  0  0  0  0  0  0  0  0
   37.5220   25.9660   34.9070 C   0  0  0  0  0  0  0  0  0  0  0  0
   35.5930   30.2100   32.6450 N   0  0  0  0  0  0  0  0  0  0  0  0
   36.0900   28.9890   32.6310 C   0  0  0  0  0  0  0  0  0  0  0  0
   36.5970   28.4580   31.4570 C   0  0  0  0  0  0  0  0  0  0  0  0
   36.5590   29.2680   30.3120 C   0  0  0  0  0  0  0  0  0  0  0  0
   36.9860   28.9220   29.1720 O   0  0  0  0  0  0  0  0  0  0  0  0
   36.0420   30.5340   30.3500 N   0  0  0  0  0  0  0  0  0  0  0  0
   35.5680   30.9740   31.5280 C   0  0  0  0  0  0  0  0  0  0  0  0
   35.0920   32.1250   31.5760 O   0  0  0  0  0  0  0  0  0  0  0  0
   35.9310   31.2310   34.7990 C   0  0  0  0  0  0  0  0  0  0  0  0
   35.0730   30.6180   33.8870 C   0  0  0  0  0  0  0  0  0  0  0  0
   33.7400   30.4530   34.2680 C   0  0  0  0  0  0  0  0  0  0  0  0
   33.3400   30.8970   35.5040 N   0  0  0  0  0  0  0  0  0  0  0  0
   34.2030   31.4860   36.3560 C   0  0  0  0  0  0  0  0  0  0  0  0
   35.4820   31.6400   35.9840 N   0  0  0  0  0  0  0  0  0  0  0  0
   33.5660   31.8580   37.5650 N   0  0  0  0  0  0  0  0  0  0  0  0
   37.0960   26.8220   30.2237 H   0  0  0  0  0  0  0  0  0  0  0  0
   38.1969   27.1056   31.6296 H   0  0  0  0  0  0  0  0  0  0  0  0
   36.0903   26.5973   33.0424 H   0  0  0  0  0  0  0  0  0  0  0  0
   34.3106   25.6004   32.1610 H   0  0  0  0  0  0  0  0  0  0  0  0
   34.9272   26.4684   30.6525 H   0  0  0  0  0  0  0  0  0  0  0  0
   35.4190   24.6633   29.6154 H   0  0  0  0  0  0  0  0  0  0  0  0
   34.1591   23.9745   30.8226 H   0  0  0  0  0  0  0  0  0  0  0  0
   35.5796   22.7758   31.8764 H   0  0  0  0  0  0  0  0  0  0  0  0
   36.2944   22.7500   30.1918 H   0  0  0  0  0  0  0  0  0  0  0  0
   37.9369   23.0393   32.0813 H   0  0  0  0  0  0  0  0  0  0  0  0
   37.9757   24.2778   30.7736 H   0  0  0  0  0  0  0  0  0  0  0  0
   36.4856   24.6757   33.4490 H   0  0  0  0  0  0  0  0  0  0  0  0
   37.6735   23.9451   34.2501 H   0  0  0  0  0  0  0  0  0  0  0  0
   39.9121   24.3758   33.2113 H   0  0  0  0  0  0  0  0  0  0  0  0
   39.5543   26.1150   33.0050 H   0  0  0  0  0  0  0  0  0  0  0  0
   39.6485   24.8158   35.7388 H   0  0  0  0  0  0  0  0  0  0  0  0
   41.1315   25.4148   34.9310 H   0  0  0  0  0  0  0  0  0  0  0  0
   39.6713   27.0274   36.5090 H   0  0  0  0  0  0  0  0  0  0  0  0
   40.4325   27.6644   35.0346 H   0  0  0  0  0  0  0  0  0  0  0  0
   38.4007   27.5860   33.8048 H   0  0  0  0  0  0  0  0  0  0  0  0
   37.8177   28.0391   35.4242 H   0  0  0  0  0  0  0  0  0  0  0  0
   36.4596   26.2119   34.7624 H   0  0  0  0  0  0  0  0  0  0  0  0
   37.7275   25.5149   35.8890 H   0  0  0  0  0  0  0  0  0  0  0  0
   36.1019   28.3907   33.5540 H   0  0  0  0  0  0  0  0  0  0  0  0
   36.0170   31.1270   29.5082 H   0  0  0  0  0  0  0  0  0  0  0  0
   36.9892   31.3782   34.5371 H   0  0  0  0  0  0  0  0  0  0  0  0
   33.0205   29.9741   33.5876 H   0  0  0  0  0  0  0  0  0  0  0  0
   34.1060   32.3198   38.3107 H   0  0  0  0  0  0  0  0  0  0  0  0
   32.5628   31.6667   37.6986 H   0  0  0  0  0  0  0  0  0  0  0  0
  1 16  1  0
  1  2  1  0
  2  7  1  0
  3  2  1  0
  4  5  1  0
  4  3  1  0
  5  6  1  0
  6  7  1  0
  7  8  1  0
  8 13  1  0
  9  8  1  0
  9 10  1  0
 10 11  1  0
 12 13  1  0
 12 11  1  0
 14 23  1  0
 15 14  1  0
 16 15  2  0
 17 19  1  0
 17 16  1  0
 18 17  2  0
 19 20  1  0
 20 21  2  0
 20 14  1  0
 22 27  2  0
 23 24  2  0
 23 22  1  0
 24 25  1  0
 25 26  2  0
 26 28  1  0
 27 26  1  0
  1 29  1  0
  1 30  1  0
  2 31  1  1
  3 32  1  0
  3 33  1  0
  4 34  1  0
  4 35  1  0
  5 36  1  0
  5 37  1  0
  6 38  1  0
  6 39  1  0
  7 40  1  1
  8 41  1  0
  9 42  1  0
  9 43  1  0
 10 44  1  0
 10 45  1  0
 11 46  1  0
 11 47  1  0
 12 48  1  0
 12 49  1  0
 13 50  1  0
 13 51  1  0
 15 52  1  0
 19 53  1  0
 22 54  1  0
 24 55  1  0
 28 56  1  0
 28 57  1  0
M  ISO  8  29   8  30   8  31  13  32  13  33  13  34  13  35  13  36  13
M  ISO  8  37  13  38  13  39  13  40  13  41  13  42  13  43  13  44  13
M  ISO  8  45  13  46  13  47  13  48  13  49  13  50  13  51  13  52  14
M  ISO  3  53   9  54  14  55  14
M  END
>  <minimizedAffinity>  (1) 
-6.07115936

>  <minimizedRMSD>  (1) 
6.82118416

$$$$
