
     RDKit          3D

 34 35  0  0  1  0  0  0  0  0999 V2000
   36.3230   23.0160   31.1420 N   0  0  0  0  0  0  0  0  0  0  0  0
   35.3510   24.1330   31.0490 C   0  0  0  0  0  0  0  0  0  0  0  0
   36.1940   25.2550   31.5870 C   0  0  1  0  0  0  0  0  0  0  0  0
   37.6240   24.7510   31.7080 C   0  0  0  0  0  0  0  0  0  0  0  0
   37.5560   23.6380   30.6970 C   0  0  0  0  0  0  0  0  0  0  0  0
   36.0550   21.6890   31.5630 C   0  0  0  0  0  0  0  0  0  0  0  0
   35.5860   21.3640   32.8400 C   0  0  0  0  0  0  0  0  0  0  0  0
   35.3580   20.0290   33.1370 C   0  0  0  0  0  0  0  0  0  0  0  0
   35.6070   19.0770   32.1540 N   0  0  0  0  0  0  0  0  0  0  0  0
   36.0620   19.4350   30.9270 C   0  0  0  0  0  0  0  0  0  0  0  0
   36.2830   20.7230   30.6340 N   0  0  0  0  0  0  0  0  0  0  0  0
   36.1270   26.3690   30.6900 N   0  0  0  0  0  0  0  0  0  0  0  0
   37.1610   27.2960   31.0570 C   0  0  0  0  0  0  0  0  0  0  0  0
   36.7820   28.6740   30.8410 N   0  0  0  0  0  0  0  0  0  0  0  0
   37.0550   29.1380   29.5040 C   0  0  0  0  0  0  0  0  0  0  0  0
   37.4950   28.3670   28.5610 N   0  0  0  0  0  0  0  0  0  0  0  0
   36.8390   30.5030   29.1800 N   0  0  0  0  0  0  0  0  0  0  0  0
   37.6920   28.6990   27.6000 H   0  0  0  0  0  0  0  0  0  0  0  0
   35.0392   24.3179   30.0105 H   0  0  0  0  0  0  0  0  0  0  0  0
   34.4026   23.9685   31.5814 H   0  0  0  0  0  0  0  0  0  0  0  0
   35.8318   25.5817   32.5729 H   0  0  0  0  0  0  0  0  0  0  0  0
   38.3593   25.5200   31.4287 H   0  0  0  0  0  0  0  0  0  0  0  0
   37.9428   24.4583   32.7193 H   0  0  0  0  0  0  0  0  0  0  0  0
   38.4153   22.9556   30.7738 H   0  0  0  0  0  0  0  0  0  0  0  0
   37.5796   23.9495   29.6423 H   0  0  0  0  0  0  0  0  0  0  0  0
   35.4027   22.1478   33.5897 H   0  0  0  0  0  0  0  0  0  0  0  0
   34.9882   19.7292   34.1286 H   0  0  0  0  0  0  0  0  0  0  0  0
   36.2507   18.6620   30.1675 H   0  0  0  0  0  0  0  0  0  0  0  0
   35.2062   26.8242   30.7659 H   0  0  0  0  0  0  0  0  0  0  0  0
   37.3935   27.1587   32.1233 H   0  0  0  0  0  0  0  0  0  0  0  0
   38.0326   27.0889   30.4187 H   0  0  0  0  0  0  0  0  0  0  0  0
   36.3588   29.2657   31.5702 H   0  0  0  0  0  0  0  0  0  0  0  0
   37.0316   30.8428   28.2269 H   0  0  0  0  0  0  0  0  0  0  0  0
   36.4897   31.1537   29.8980 H   0  0  0  0  0  0  0  0  0  0  0  0
  1  6  1  0
  2  1  1  0
  2  3  1  0
  3  4  1  0
  5  1  1  0
  5  4  1  0
  6  7  2  0
  7  8  1  0
  9  8  2  0
 10  9  1  0
 11 10  2  0
 11  6  1  0
 12 13  1  0
 12  3  1  0
 14 13  1  0
 15 14  1  0
 16 15  2  0
 17 15  1  0
 18 16  1  0
  2 19  1  0
  2 20  1  0
  3 21  1  1
  4 22  1  0
  4 23  1  0
  5 24  1  0
  5 25  1  0
  7 26  1  0
  8 27  1  0
 10 28  1  0
 12 29  1  0
 13 30  1  0
 13 31  1  0
 14 32  1  0
 17 33  1  0
 17 34  1  0
M  ISO  8  19  13  20  13  21  13  22  13  23  13  24  13  25  13  26  14
M  ISO  5  27  14  28  14  29   5  30   8  31   8
M  END
>  <minimizedAffinity>  (1) 
-4.28527451

>  <minimizedRMSD>  (1) 
5.76575756

$$$$
