
     RDKit          3D

 33 35  0  0  1  0  0  0  0  0999 V2000
   37.4060   23.1180   32.6140 N   0  0  0  0  0  0  0  0  0  0  0  0
   36.9730   24.4450   32.1120 C   0  0  0  0  0  0  0  0  0  0  0  0
   37.3680   25.3150   33.2750 C   0  0  1  0  0  0  0  0  0  0  0  0
   38.1820   24.4610   34.2360 C   0  0  0  0  0  0  0  0  0  0  0  0
   38.6740   23.4200   33.2440 C   0  0  0  0  0  0  0  0  0  0  0  0
   36.7170   21.8970   32.4770 C   0  0  0  0  0  0  0  0  0  0  0  0
   36.1970   21.1740   33.5580 C   0  0  0  0  0  0  0  0  0  0  0  0
   35.5400   19.9800   33.3100 C   0  0  0  0  0  0  0  0  0  0  0  0
   35.4210   19.5460   32.0100 N   0  0  0  0  0  0  0  0  0  0  0  0
   35.9370   20.2700   30.9760 C   0  0  0  0  0  0  0  0  0  0  0  0
   36.5750   21.4280   31.2100 N   0  0  0  0  0  0  0  0  0  0  0  0
   38.1900   26.3940   32.7580 N   0  0  0  0  0  0  0  0  0  0  0  0
   37.6960   26.7220   31.4630 C   0  0  0  0  0  0  0  0  0  0  0  0
   37.0280   28.0140   31.3790 N   0  0  0  0  0  0  0  0  0  0  0  0
   36.7570   28.6950   30.2410 C   0  0  0  0  0  0  0  0  0  0  0  0
   36.1250   29.8590   30.4800 N   0  0  0  0  0  0  0  0  0  0  0  0
   35.9990   29.9040   31.8030 C   0  0  0  0  0  0  0  0  0  0  0  0
   36.5350   28.8140   32.3050 N   0  0  0  0  0  0  0  0  0  0  0  0
   37.5078   24.7267   31.1930 H   0  0  0  0  0  0  0  0  0  0  0  0
   35.9113   24.5067   31.8308 H   0  0  0  0  0  0  0  0  0  0  0  0
   36.4913   25.7288   33.7948 H   0  0  0  0  0  0  0  0  0  0  0  0
   39.0098   25.0237   34.6922 H   0  0  0  0  0  0  0  0  0  0  0  0
   37.6383   24.0715   35.1093 H   0  0  0  0  0  0  0  0  0  0  0  0
   39.1091   22.5422   33.7442 H   0  0  0  0  0  0  0  0  0  0  0  0
   39.4808   23.7427   32.5695 H   0  0  0  0  0  0  0  0  0  0  0  0
   36.3084   21.5480   34.5865 H   0  0  0  0  0  0  0  0  0  0  0  0
   35.1208   19.3893   34.1379 H   0  0  0  0  0  0  0  0  0  0  0  0
   35.8299   19.9033   29.9445 H   0  0  0  0  0  0  0  0  0  0  0  0
   38.1252   27.2141   33.3778 H   0  0  0  0  0  0  0  0  0  0  0  0
   38.5447   26.7282   30.7633 H   0  0  0  0  0  0  0  0  0  0  0  0
   36.9394   25.9627   31.2160 H   0  0  0  0  0  0  0  0  0  0  0  0
   37.0231   28.3377   29.2352 H   0  0  0  0  0  0  0  0  0  0  0  0
   35.5273   30.7142   32.3784 H   0  0  0  0  0  0  0  0  0  0  0  0
  1  5  1  0
  2  1  1  0
  2  3  1  0
  3  4  1  0
  5  4  1  0
  6  1  1  0
  6  7  2  0
  8  7  1  0
  9  8  2  0
 10 11  2  0
 10  9  1  0
 11  6  1  0
 12  3  1  0
 13 12  1  0
 14 13  1  0
 14 18  1  0
 15 16  2  0
 15 14  1  0
 16 17  1  0
 17 18  2  0
  2 19  1  0
  2 20  1  0
  3 21  1  1
  4 22  1  0
  4 23  1  0
  5 24  1  0
  5 25  1  0
  7 26  1  0
  8 27  1  0
 10 28  1  0
 12 29  1  0
 13 30  1  0
 13 31  1  0
 15 32  1  0
 17 33  1  0
M  ISO  8  19  13  20  13  21  13  22  13  23  13  24  13  25  13  26  14
M  ISO  7  27  14  28  14  29   5  30   8  31   8  32  14  33  14
M  END
>  <minimizedAffinity>  (1) 
-3.58885431

>  <minimizedRMSD>  (1) 
4.54501438

$$$$
