
     RDKit          3D

 28 29  0  0  1  0  0  0  0  0999 V2000
   38.4040   22.9470   34.5440 N   0  0  0  0  0  0  0  0  0  0  0  0
   38.2520   24.4180   34.4640 C   0  0  0  0  0  0  0  0  0  0  0  0
   39.0940   24.8340   35.6410 C   0  0  1  0  0  0  0  0  0  0  0  0
   39.8430   23.6060   36.1400 C   0  0  0  0  0  0  0  0  0  0  0  0
   39.8100   22.7930   34.8720 C   0  0  0  0  0  0  0  0  0  0  0  0
   37.3990   21.9740   34.3390 C   0  0  0  0  0  0  0  0  0  0  0  0
   36.5790   21.4880   35.3640 C   0  0  0  0  0  0  0  0  0  0  0  0
   35.6230   20.5320   35.0610 C   0  0  0  0  0  0  0  0  0  0  0  0
   35.5240   20.1000   33.7420 N   0  0  0  0  0  0  0  0  0  0  0  0
   36.3350   20.5920   32.7740 C   0  0  0  0  0  0  0  0  0  0  0  0
   37.2620   21.5180   33.0640 N   0  0  0  0  0  0  0  0  0  0  0  0
   40.0210   25.8470   35.2320 N   0  0  0  0  0  0  0  0  0  0  0  0
   39.2730   27.0760   35.0840 C   0  0  0  0  0  0  0  0  0  0  0  0
   38.8280   27.6010   36.2990 O   0  0  0  0  0  0  0  0  0  0  0  0
   38.6467   24.8181   33.5184 H   0  0  0  0  0  0  0  0  0  0  0  0
   37.2128   24.7777   34.4884 H   0  0  0  0  0  0  0  0  0  0  0  0
   38.4638   25.2425   36.4447 H   0  0  0  0  0  0  0  0  0  0  0  0
   40.8703   23.8456   36.4520 H   0  0  0  0  0  0  0  0  0  0  0  0
   39.4205   23.1184   37.0309 H   0  0  0  0  0  0  0  0  0  0  0  0
   40.0802   21.7414   35.0485 H   0  0  0  0  0  0  0  0  0  0  0  0
   40.5167   23.1059   34.0893 H   0  0  0  0  0  0  0  0  0  0  0  0
   36.6917   21.8590   36.3934 H   0  0  0  0  0  0  0  0  0  0  0  0
   34.9614   20.1263   35.8406 H   0  0  0  0  0  0  0  0  0  0  0  0
   36.2324   20.2288   31.7408 H   0  0  0  0  0  0  0  0  0  0  0  0
   40.7540   25.9637   35.9461 H   0  0  0  0  0  0  0  0  0  0  0  0
   39.9189   27.8215   34.5971 H   0  0  0  0  0  0  0  0  0  0  0  0
   38.3814   26.8446   34.4828 H   0  0  0  0  0  0  0  0  0  0  0  0
   39.2480   27.1055   37.0462 H   0  0  0  0  0  0  0  0  0  0  0  0
  1  5  1  0
  2  1  1  0
  2  3  1  0
  3  4  1  0
  5  4  1  0
  6  1  1  0
  6  7  2  0
  8  7  1  0
  9  8  2  0
 10 11  2  0
 10  9  1  0
 11  6  1  0
 12  3  1  0
 13 12  1  0
 13 14  1  0
  2 15  1  0
  2 16  1  0
  3 17  1  1
  4 18  1  0
  4 19  1  0
  5 20  1  0
  5 21  1  0
  7 22  1  0
  8 23  1  0
 10 24  1  0
 12 25  1  0
 13 26  1  0
 13 27  1  0
 14 28  1  0
M  ISO  8  15  13  16  13  17  13  18  13  19  13  20  13  21  13  22  14
M  ISO  6  23  14  24  14  25   5  26   8  27   8  28   3
M  END
>  <minimizedAffinity>  (1) 
-3.56215763

>  <minimizedRMSD>  (1) 
0.968961298

$$$$
