
     RDKit          3D

 30 32  0  0  0  0  0  0  0  0999 V2000
   37.0700   27.3160   34.7680 C   0  0  0  0  0  0  0  0  0  0  0  0
   37.0260   26.9540   33.4180 C   0  0  0  0  0  0  0  0  0  0  0  0
   37.4950   25.6730   33.0860 C   0  0  0  0  0  0  0  0  0  0  0  0
   37.9610   24.8580   34.0730 N   0  0  0  0  0  0  0  0  0  0  0  0
   37.9830   25.2520   35.3560 C   0  0  0  0  0  0  0  0  0  0  0  0
   37.5400   26.4680   35.6860 N   0  0  0  0  0  0  0  0  0  0  0  0
   38.4670   24.4160   36.4070 N   0  0  0  0  0  0  0  0  0  0  0  0
   38.0560   24.2920   37.6960 C   0  0  0  0  0  0  0  0  0  0  0  0
   38.8370   23.3660   38.2830 N   0  0  0  0  0  0  0  0  0  0  0  0
   39.7460   22.8880   37.4010 C   0  0  0  0  0  0  0  0  0  0  0  0
   40.7530   21.9340   37.5360 C   0  0  0  0  0  0  0  0  0  0  0  0
   41.4830   21.6990   36.4390 N   0  0  0  0  0  0  0  0  0  0  0  0
   41.2440   22.3500   35.2990 C   0  0  0  0  0  0  0  0  0  0  0  0
   40.2750   23.2760   35.1470 N   0  0  0  0  0  0  0  0  0  0  0  0
   39.4980   23.5590   36.2300 C   0  0  0  0  0  0  0  0  0  0  0  0
   36.5170   27.8550   32.3830 C   0  0  0  0  0  0  0  0  0  0  0  0
   37.5540   28.2310   31.3510 C   0  0  0  0  0  0  0  0  0  0  0  0
   35.9050   29.0880   32.9710 C   0  0  0  0  0  0  0  0  0  0  0  0
   36.7137   28.3098   35.0769 H   0  0  0  0  0  0  0  0  0  0  0  0
   37.4862   25.3313   32.0405 H   0  0  0  0  0  0  0  0  0  0  0  0
   37.2348   24.8471   38.1730 H   0  0  0  0  0  0  0  0  0  0  0  0
   40.9363   21.4074   38.4842 H   0  0  0  0  0  0  0  0  0  0  0  0
   41.8762   22.1171   34.4295 H   0  0  0  0  0  0  0  0  0  0  0  0
   35.7349   27.2835   31.8618 H   0  0  0  0  0  0  0  0  0  0  0  0
   38.4718   28.5638   31.8578 H   0  0  0  0  0  0  0  0  0  0  0  0
   37.7788   27.3572   30.7218 H   0  0  0  0  0  0  0  0  0  0  0  0
   37.1665   29.0459   30.7218 H   0  0  0  0  0  0  0  0  0  0  0  0
   35.9362   29.0251   34.0688 H   0  0  0  0  0  0  0  0  0  0  0  0
   36.4690   29.9718   32.6382 H   0  0  0  0  0  0  0  0  0  0  0  0
   34.8600   29.1732   32.6382 H   0  0  0  0  0  0  0  0  0  0  0  0
  1  6  2  0
  2  1  1  0
  3  2  2  0
  3  4  1  0
  4  5  2  0
  5  6  1  0
  5  7  1  0
  7  8  1  0
  8  9  2  0
 10 11  2  0
 10  9  1  0
 12 11  1  0
 13 12  2  0
 14 13  1  0
 14 15  2  0
 15  7  1  0
 15 10  1  0
 16 18  1  0
 16  2  1  0
 17 16  1  0
  1 19  1  0
  3 20  1  0
  8 21  1  0
 11 22  1  0
 13 23  1  0
 16 24  1  0
 17 25  1  0
 17 26  1  0
 17 27  1  0
 18 28  1  0
 18 29  1  0
 18 30  1  0
M  ISO  8  19  14  20  14  21  14  22  14  23  14  24   8  25   8  26   8
M  ISO  4  27   8  28   8  29   8  30   8
M  END
>  <minimizedAffinity>  (1) 
-5.13584232

>  <minimizedRMSD>  (1) 
6.51341009

$$$$
