
     RDKit          3D

 24 26  0  0  0  0  0  0  0  0999 V2000
   36.9740   26.8780   34.2440 C   0  0  0  0  0  0  0  0  0  0  0  0
   36.9360   26.3550   32.9470 C   0  0  0  0  0  0  0  0  0  0  0  0
   37.4160   25.0680   32.7730 C   0  0  0  0  0  0  0  0  0  0  0  0
   37.8950   24.3820   33.8420 N   0  0  0  0  0  0  0  0  0  0  0  0
   37.9190   24.9070   35.0710 C   0  0  0  0  0  0  0  0  0  0  0  0
   37.4550   26.1630   35.2640 N   0  0  0  0  0  0  0  0  0  0  0  0
   38.4100   24.2370   36.2300 N   0  0  0  0  0  0  0  0  0  0  0  0
   38.0240   24.2690   37.5120 C   0  0  0  0  0  0  0  0  0  0  0  0
   38.8260   23.4470   38.2060 N   0  0  0  0  0  0  0  0  0  0  0  0
   39.7330   22.8760   37.4020 C   0  0  0  0  0  0  0  0  0  0  0  0
   40.7530   21.9740   37.6560 C   0  0  0  0  0  0  0  0  0  0  0  0
   41.4890   21.6030   36.5880 N   0  0  0  0  0  0  0  0  0  0  0  0
   41.2310   22.0930   35.3590 C   0  0  0  0  0  0  0  0  0  0  0  0
   40.2370   22.9750   35.0990 N   0  0  0  0  0  0  0  0  0  0  0  0
   39.4670   23.3800   36.1400 C   0  0  0  0  0  0  0  0  0  0  0  0
   36.4070   27.1670   31.8800 C   0  0  0  0  0  0  0  0  0  0  0  0
   35.8320   28.2350   32.1870 O   0  0  0  0  0  0  0  0  0  0  0  0
   36.5410   26.7600   30.5590 O   0  0  0  0  0  0  0  0  0  0  0  0
   36.6009   27.8965   34.4268 H   0  0  0  0  0  0  0  0  0  0  0  0
   37.4093   24.6046   31.7754 H   0  0  0  0  0  0  0  0  0  0  0  0
   37.1955   24.8642   37.9235 H   0  0  0  0  0  0  0  0  0  0  0  0
   40.9506   21.5845   38.6656 H   0  0  0  0  0  0  0  0  0  0  0  0
   41.8619   21.7584   34.5223 H   0  0  0  0  0  0  0  0  0  0  0  0
   37.0013   25.9094   30.3474 H   0  0  0  0  0  0  0  0  0  0  0  0
  1  6  2  0
  2  1  1  0
  3  2  2  0
  3  4  1  0
  4  5  2  0
  5  6  1  0
  5  7  1  0
  7  8  1  0
  8  9  2  0
 10 11  2  0
 10  9  1  0
 12 11  1  0
 13 12  2  0
 14 13  1  0
 14 15  2  0
 15  7  1  0
 15 10  1  0
 16 17  2  0
 16  2  1  0
 18 16  1  0
  1 19  1  0
  3 20  1  0
  8 21  1  0
 11 22  1  0
 13 23  1  0
 18 24  1  0
M  ISO  6  19  14  20  14  21  14  22  14  23  14  24   3
M  END
>  <minimizedAffinity>  (1) 
-4.97120523

>  <minimizedRMSD>  (1) 
6.6318264

$$$$
