
     RDKit          3D

 22 24  0  0  0  0  0  0  0  0999 V2000
   39.7700   22.3160   35.8420 C   0  0  0  0  0  0  0  0  0  0  0  0
   39.4380   22.8090   37.1080 C   0  0  0  0  0  0  0  0  0  0  0  0
   38.4550   23.8130   37.1530 C   0  0  0  0  0  0  0  0  0  0  0  0
   37.8820   24.2520   35.9970 N   0  0  0  0  0  0  0  0  0  0  0  0
   38.2530   23.7290   34.8010 C   0  0  0  0  0  0  0  0  0  0  0  0
   39.1860   22.7720   34.7300 N   0  0  0  0  0  0  0  0  0  0  0  0
   37.6760   24.1630   33.5760 N   0  0  0  0  0  0  0  0  0  0  0  0
   37.4010   23.4770   32.4350 C   0  0  0  0  0  0  0  0  0  0  0  0
   36.8560   24.3300   31.5590 N   0  0  0  0  0  0  0  0  0  0  0  0
   36.7630   25.5650   32.0870 C   0  0  0  0  0  0  0  0  0  0  0  0
   36.2800   26.7680   31.5900 C   0  0  0  0  0  0  0  0  0  0  0  0
   36.3440   27.8240   32.4130 N   0  0  0  0  0  0  0  0  0  0  0  0
   36.8480   27.7010   33.6440 C   0  0  0  0  0  0  0  0  0  0  0  0
   37.3260   26.5380   34.1540 N   0  0  0  0  0  0  0  0  0  0  0  0
   37.2860   25.4350   33.3600 C   0  0  0  0  0  0  0  0  0  0  0  0
   40.0590   22.3190   38.2530 O   0  0  0  0  0  0  0  0  0  0  0  0
   40.5346   21.5295   35.7592 H   0  0  0  0  0  0  0  0  0  0  0  0
   38.1493   24.2429   38.1182 H   0  0  0  0  0  0  0  0  0  0  0  0
   37.5928   22.4078   32.2618 H   0  0  0  0  0  0  0  0  0  0  0  0
   35.8665   26.8502   30.5740 H   0  0  0  0  0  0  0  0  0  0  0  0
   36.8773   28.5962   34.2825 H   0  0  0  0  0  0  0  0  0  0  0  0
   39.8128   22.6784   39.1420 H   0  0  0  0  0  0  0  0  0  0  0  0
  1  2  2  0
  2  3  1  0
  2 16  1  0
  4  3  2  0
  5  4  1  0
  6  5  2  0
  6  1  1  0
  7  5  1  0
  8  7  1  0
  9 10  1  0
  9  8  2  0
 10 15  2  0
 11 10  1  0
 11 12  2  0
 12 13  1  0
 13 14  2  0
 15  7  1  0
 15 14  1  0
  1 17  1  0
  3 18  1  0
  8 19  1  0
 11 20  1  0
 13 21  1  0
 16 22  1  0
M  ISO  6  17  14  18  14  19  14  20  14  21  14  22   3
M  END
>  <minimizedAffinity>  (1) 
-4.75851011

>  <minimizedRMSD>  (1) 
1.36601675

$$$$
