
     RDKit          3D

 34 37  0  0  0  0  0  0  0  0999 V2000
   39.9690   25.0860   34.0480 C   0  0  0  0  0  0  0  0  0  0  0  0
   38.8520   24.9690   34.9050 C   0  0  0  0  0  0  0  0  0  0  0  0
   37.6550   25.5210   34.4730 C   0  0  0  0  0  0  0  0  0  0  0  0
   37.6140   26.1380   33.2620 N   0  0  0  0  0  0  0  0  0  0  0  0
   38.6880   26.2310   32.4710 C   0  0  0  0  0  0  0  0  0  0  0  0
   39.8690   25.7030   32.8670 N   0  0  0  0  0  0  0  0  0  0  0  0
   38.6890   26.8710   31.1930 N   0  0  0  0  0  0  0  0  0  0  0  0
   39.3470   26.6000   30.0540 C   0  0  0  0  0  0  0  0  0  0  0  0
   38.9840   27.5220   29.1440 N   0  0  0  0  0  0  0  0  0  0  0  0
   38.1040   28.3850   29.6620 C   0  0  0  0  0  0  0  0  0  0  0  0
   37.4680   29.4770   29.1020 C   0  0  0  0  0  0  0  0  0  0  0  0
   36.6210   30.1440   29.9280 N   0  0  0  0  0  0  0  0  0  0  0  0
   36.4380   29.7440   31.1950 C   0  0  0  0  0  0  0  0  0  0  0  0
   37.0560   28.6750   31.7550 N   0  0  0  0  0  0  0  0  0  0  0  0
   37.9190   27.9710   30.9600 C   0  0  0  0  0  0  0  0  0  0  0  0
   38.8800   24.3000   36.2300 C   0  0  0  0  0  0  0  0  0  0  0  0
   37.9200   23.1590   36.3530 C   0  0  0  0  0  0  0  0  0  0  0  0
   37.8430   22.9740   37.8670 C   0  0  0  0  0  0  0  0  0  0  0  0
   37.7190   24.3980   38.3600 C   0  0  0  0  0  0  0  0  0  0  0  0
   38.4310   25.2310   37.3370 C   0  0  0  0  0  0  0  0  0  0  0  0
   40.9359   24.6627   34.3577 H   0  0  0  0  0  0  0  0  0  0  0  0
   36.7533   25.4606   35.1001 H   0  0  0  0  0  0  0  0  0  0  0  0
   40.0549   25.7734   29.8940 H   0  0  0  0  0  0  0  0  0  0  0  0
   37.6362   29.7846   28.0594 H   0  0  0  0  0  0  0  0  0  0  0  0
   35.7410   30.3209   31.8207 H   0  0  0  0  0  0  0  0  0  0  0  0
   39.9255   23.9692   36.3167 H   0  0  0  0  0  0  0  0  0  0  0  0
   36.9372   23.4157   35.9308 H   0  0  0  0  0  0  0  0  0  0  0  0
   38.2324   22.2548   35.8100 H   0  0  0  0  0  0  0  0  0  0  0  0
   36.9644   22.3762   38.1511 H   0  0  0  0  0  0  0  0  0  0  0  0
   38.7041   22.4353   38.2892 H   0  0  0  0  0  0  0  0  0  0  0  0
   36.6612   24.6919   38.4284 H   0  0  0  0  0  0  0  0  0  0  0  0
   38.1487   24.5243   39.3647 H   0  0  0  0  0  0  0  0  0  0  0  0
   39.3035   25.7220   37.7927 H   0  0  0  0  0  0  0  0  0  0  0  0
   37.7666   26.0135   36.9417 H   0  0  0  0  0  0  0  0  0  0  0  0
  1  2  2  0
  2 16  1  0
  3  2  1  0
  4  3  2  0
  5  6  2  0
  5  4  1  0
  6  1  1  0
  7  5  1  0
  8  7  1  0
  9 10  1  0
  9  8  2  0
 10 15  2  0
 11 10  1  0
 11 12  2  0
 12 13  1  0
 13 14  2  0
 15  7  1  0
 15 14  1  0
 16 17  1  0
 16 20  1  0
 17 18  1  0
 18 19  1  0
 20 19  1  0
  1 21  1  0
  3 22  1  0
  8 23  1  0
 11 24  1  0
 13 25  1  0
 16 26  1  0
 17 27  1  0
 17 28  1  0
 18 29  1  0
 18 30  1  0
 19 31  1  0
 19 32  1  0
 20 33  1  0
 20 34  1  0
M  ISO  8  21  14  22  14  23  14  24  14  25  14  26  13  27  13  28  13
M  ISO  6  29  13  30  13  31  13  32  13  33  13  34  13
M  END
>  <minimizedAffinity>  (1) 
-4.34626007

>  <minimizedRMSD>  (1) 
4.29125404

$$$$
