
     RDKit          3D

 29 32  0  0  0  0  0  0  0  0999 V2000
   39.2150   25.8680   32.9480 C   0  0  0  0  0  0  0  0  0  0  0  0
   38.1970   25.7720   33.8900 C   0  0  0  0  0  0  0  0  0  0  0  0
   37.0470   26.5390   33.6830 C   0  0  0  0  0  0  0  0  0  0  0  0
   36.9810   27.3330   32.5810 N   0  0  0  0  0  0  0  0  0  0  0  0
   38.0040   27.3960   31.6830 C   0  0  0  0  0  0  0  0  0  0  0  0
   39.0940   26.6600   31.8940 N   0  0  0  0  0  0  0  0  0  0  0  0
   37.9640   28.2140   30.5260 N   0  0  0  0  0  0  0  0  0  0  0  0
   38.4650   28.0270   29.2950 C   0  0  0  0  0  0  0  0  0  0  0  0
   38.1730   29.0820   28.5350 N   0  0  0  0  0  0  0  0  0  0  0  0
   37.4680   29.9860   29.2710 C   0  0  0  0  0  0  0  0  0  0  0  0
   36.9400   31.2310   28.9350 C   0  0  0  0  0  0  0  0  0  0  0  0
   36.2890   31.8650   29.9290 N   0  0  0  0  0  0  0  0  0  0  0  0
   36.1760   31.3170   31.1300 C   0  0  0  0  0  0  0  0  0  0  0  0
   36.6790   30.1140   31.4770 N   0  0  0  0  0  0  0  0  0  0  0  0
   37.3550   29.4110   30.5100 C   0  0  0  0  0  0  0  0  0  0  0  0
   38.1750   24.9590   35.0890 C   0  0  0  0  0  0  0  0  0  0  0  0
   38.0940   23.6160   34.9760 N   0  0  0  0  0  0  0  0  0  0  0  0
   38.0870   23.0660   36.1390 O   0  0  0  0  0  0  0  0  0  0  0  0
   38.1620   24.0070   37.0510 C   0  0  0  0  0  0  0  0  0  0  0  0
   38.2200   25.2200   36.4150 N   0  0  0  0  0  0  0  0  0  0  0  0
   38.1830   23.8220   38.5040 C   0  0  0  0  0  0  0  0  0  0  0  0
   39.4440   23.4370   38.9070 F   0  0  0  0  0  0  0  0  0  0  0  0
   37.2990   22.8350   38.8860 F   0  0  0  0  0  0  0  0  0  0  0  0
   37.9060   25.0260   39.1190 F   0  0  0  0  0  0  0  0  0  0  0  0
   40.1337   25.2777   33.0802 H   0  0  0  0  0  0  0  0  0  0  0  0
   36.2116   26.5011   34.3976 H   0  0  0  0  0  0  0  0  0  0  0  0
   39.0283   27.1417   28.9651 H   0  0  0  0  0  0  0  0  0  0  0  0
   37.0472   31.6649   27.9299 H   0  0  0  0  0  0  0  0  0  0  0  0
   35.6326   31.8840   31.9002 H   0  0  0  0  0  0  0  0  0  0  0  0
  1  2  2  0
  2 16  1  0
  3  2  1  0
  4  3  2  0
  5  6  2  0
  5  4  1  0
  6  1  1  0
  7  5  1  0
  8  7  1  0
  9 10  1  0
  9  8  2  0
 10 15  2  0
 11 10  1  0
 11 12  2  0
 12 13  1  0
 13 14  2  0
 15  7  1  0
 15 14  1  0
 16 20  1  0
 17 16  2  0
 17 18  1  0
 18 19  1  0
 19 21  1  0
 20 19  2  0
 21 23  1  0
 21 22  1  0
 21 24  1  0
  1 25  1  0
  3 26  1  0
  8 27  1  0
 11 28  1  0
 13 29  1  0
M  ISO  5  25  14  26  14  27  14  28  14  29  14
M  END
>  <minimizedAffinity>  (1) 
-5.9334383

>  <minimizedRMSD>  (1) 
2.58613276

$$$$
