
     RDKit          3D

 39 43  0  0  0  0  0  0  0  0999 V2000
   38.8540   27.3010   31.3210 C   0  0  0  0  0  0  0  0  0  0  0  0
   37.9610   27.0800   32.3690 C   0  0  0  0  0  0  0  0  0  0  0  0
   36.8400   27.9090   32.4370 C   0  0  0  0  0  0  0  0  0  0  0  0
   36.6780   28.8720   31.4940 N   0  0  0  0  0  0  0  0  0  0  0  0
   37.5670   29.0510   30.4980 C   0  0  0  0  0  0  0  0  0  0  0  0
   38.6310   28.2620   30.4360 N   0  0  0  0  0  0  0  0  0  0  0  0
   37.4240   30.0530   29.4930 N   0  0  0  0  0  0  0  0  0  0  0  0
   37.7750   30.0680   28.2000 C   0  0  0  0  0  0  0  0  0  0  0  0
   37.4270   31.2440   27.6770 N   0  0  0  0  0  0  0  0  0  0  0  0
   36.8390   32.0240   28.6170 C   0  0  0  0  0  0  0  0  0  0  0  0
   36.3140   33.3080   28.5670 C   0  0  0  0  0  0  0  0  0  0  0  0
   35.7960   33.7770   29.7290 N   0  0  0  0  0  0  0  0  0  0  0  0
   35.8030   33.0370   30.8270 C   0  0  0  0  0  0  0  0  0  0  0  0
   36.3070   31.7860   30.9030 N   0  0  0  0  0  0  0  0  0  0  0  0
   36.8490   31.2500   29.7560 C   0  0  0  0  0  0  0  0  0  0  0  0
   38.0730   26.0750   33.4040 C   0  0  0  0  0  0  0  0  0  0  0  0
   37.6510   24.8240   33.1910 N   0  0  0  0  0  0  0  0  0  0  0  0
   37.8450   24.0990   34.2410 O   0  0  0  0  0  0  0  0  0  0  0  0
   38.3960   24.8310   35.1790 C   0  0  0  0  0  0  0  0  0  0  0  0
   38.5530   26.0990   34.6710 N   0  0  0  0  0  0  0  0  0  0  0  0
   38.7970   24.4430   36.5330 C   0  0  0  0  0  0  0  0  0  0  0  0
   39.6580   23.1750   36.5240 C   0  0  0  0  0  0  0  0  0  0  0  0
   39.7250   22.8960   38.0240 C   0  0  0  0  0  0  0  0  0  0  0  0
   38.4320   23.4170   38.5960 C   0  0  0  0  0  0  0  0  0  0  0  0
   37.6670   23.9900   37.4200 C   0  0  0  0  0  0  0  0  0  0  0  0
   39.7516   26.6720   31.2280 H   0  0  0  0  0  0  0  0  0  0  0  0
   36.1002   27.7840   33.2414 H   0  0  0  0  0  0  0  0  0  0  0  0
   38.2683   29.2466   27.6597 H   0  0  0  0  0  0  0  0  0  0  0  0
   36.3179   33.9065   27.6441 H   0  0  0  0  0  0  0  0  0  0  0  0
   35.3686   33.4707   31.7398 H   0  0  0  0  0  0  0  0  0  0  0  0
   39.2874   25.3586   36.8953 H   0  0  0  0  0  0  0  0  0  0  0  0
   39.1717   22.3542   35.9765 H   0  0  0  0  0  0  0  0  0  0  0  0
   40.6333   23.2782   36.0258 H   0  0  0  0  0  0  0  0  0  0  0  0
   39.8180   21.8157   38.2090 H   0  0  0  0  0  0  0  0  0  0  0  0
   40.5972   23.3801   38.4875 H   0  0  0  0  0  0  0  0  0  0  0  0
   37.8623   22.6003   39.0633 H   0  0  0  0  0  0  0  0  0  0  0  0
   38.6074   24.1738   39.3748 H   0  0  0  0  0  0  0  0  0  0  0  0
   37.0302   24.8335   37.7250 H   0  0  0  0  0  0  0  0  0  0  0  0
   36.9729   23.2822   36.9432 H   0  0  0  0  0  0  0  0  0  0  0  0
  1  2  2  0
  2  3  1  0
  2 16  1  0
  4  3  2  0
  5  4  1  0
  6  5  2  0
  6  1  1  0
  7 15  1  0
  7  5  1  0
  8  7  1  0
  9  8  2  0
  9 10  1  0
 10 15  2  0
 11 10  1  0
 11 12  2  0
 12 13  1  0
 13 14  2  0
 15 14  1  0
 16 20  1  0
 17 16  2  0
 17 18  1  0
 18 19  1  0
 19 21  1  0
 20 19  2  0
 21 25  1  0
 22 21  1  0
 22 23  1  0
 23 24  1  0
 25 24  1  0
  1 26  1  0
  3 27  1  0
  8 28  1  0
 11 29  1  0
 13 30  1  0
 21 31  1  0
 22 32  1  0
 22 33  1  0
 23 34  1  0
 23 35  1  0
 24 36  1  0
 24 37  1  0
 25 38  1  0
 25 39  1  0
M  ISO  8  26  14  27  14  28  14  29  14  30  14  31  13  32  13  33  13
M  ISO  6  34  13  35  13  36  13  37  13  38  13  39  13
M  END
>  <minimizedAffinity>  (1) 
-5.41804886

>  <minimizedRMSD>  (1) 
3.87670493

$$$$
