
     RDKit          3D

 35 38  0  0  0  0  0  0  0  0999 V2000
   38.9440   26.0340   32.3650 C   0  0  0  0  0  0  0  0  0  0  0  0
   38.0250   25.8250   33.4040 C   0  0  0  0  0  0  0  0  0  0  0  0
   36.8990   26.6460   33.4490 C   0  0  0  0  0  0  0  0  0  0  0  0
   36.7480   27.5980   32.4930 N   0  0  0  0  0  0  0  0  0  0  0  0
   37.6620   27.7730   31.4980 C   0  0  0  0  0  0  0  0  0  0  0  0
   38.7270   26.9840   31.4700 N   0  0  0  0  0  0  0  0  0  0  0  0
   37.5200   28.7560   30.4970 N   0  0  0  0  0  0  0  0  0  0  0  0
   37.8760   28.7490   29.1930 C   0  0  0  0  0  0  0  0  0  0  0  0
   37.5370   29.9130   28.6420 N   0  0  0  0  0  0  0  0  0  0  0  0
   36.9500   30.7080   29.5670 C   0  0  0  0  0  0  0  0  0  0  0  0
   36.4280   31.9940   29.4990 C   0  0  0  0  0  0  0  0  0  0  0  0
   35.9120   32.4840   30.6380 N   0  0  0  0  0  0  0  0  0  0  0  0
   35.9160   31.7610   31.7500 C   0  0  0  0  0  0  0  0  0  0  0  0
   36.4110   30.5120   31.8600 N   0  0  0  0  0  0  0  0  0  0  0  0
   36.9510   29.9590   30.7270 C   0  0  0  0  0  0  0  0  0  0  0  0
   38.1060   24.8330   34.4590 C   0  0  0  0  0  0  0  0  0  0  0  0
   37.9700   23.5250   34.1460 N   0  0  0  0  0  0  0  0  0  0  0  0
   38.0710   22.8050   35.2170 O   0  0  0  0  0  0  0  0  0  0  0  0
   38.2700   23.5850   36.2350 C   0  0  0  0  0  0  0  0  0  0  0  0
   38.2980   24.8870   35.7920 N   0  0  0  0  0  0  0  0  0  0  0  0
   38.4480   23.2320   37.6720 C   0  0  0  0  0  0  0  0  0  0  0  0
   37.9810   24.4340   38.4620 C   0  0  0  0  0  0  0  0  0  0  0  0
   39.8800   22.8820   38.0110 C   0  0  0  0  0  0  0  0  0  0  0  0
   39.8456   25.4077   32.2943 H   0  0  0  0  0  0  0  0  0  0  0  0
   36.1478   26.5248   34.2434 H   0  0  0  0  0  0  0  0  0  0  0  0
   38.3673   27.9150   28.6704 H   0  0  0  0  0  0  0  0  0  0  0  0
   36.4369   32.5770   28.5662 H   0  0  0  0  0  0  0  0  0  0  0  0
   35.4817   32.2159   32.6525 H   0  0  0  0  0  0  0  0  0  0  0  0
   37.8649   22.3320   37.9168 H   0  0  0  0  0  0  0  0  0  0  0  0
   38.0640   24.2204   39.5379 H   0  0  0  0  0  0  0  0  0  0  0  0
   38.6069   25.3032   38.2114 H   0  0  0  0  0  0  0  0  0  0  0  0
   36.9325   24.6527   38.2114 H   0  0  0  0  0  0  0  0  0  0  0  0
   40.0013   22.8523   39.1039 H   0  0  0  0  0  0  0  0  0  0  0  0
   40.1268   21.8971   37.5878 H   0  0  0  0  0  0  0  0  0  0  0  0
   40.5533   23.6420   37.5878 H   0  0  0  0  0  0  0  0  0  0  0  0
  1  2  2  0
  2  3  1  0
  2 16  1  0
  4  3  2  0
  5  4  1  0
  6  5  2  0
  6  1  1  0
  7 15  1  0
  7  5  1  0
  8  7  1  0
  9  8  2  0
  9 10  1  0
 10 15  2  0
 11 10  1  0
 11 12  2  0
 12 13  1  0
 13 14  2  0
 15 14  1  0
 16 20  1  0
 17 16  2  0
 17 18  1  0
 18 19  1  0
 19 21  1  0
 20 19  2  0
 21 23  1  0
 21 22  1  0
  1 24  1  0
  3 25  1  0
  8 26  1  0
 11 27  1  0
 13 28  1  0
 21 29  1  0
 22 30  1  0
 22 31  1  0
 22 32  1  0
 23 33  1  0
 23 34  1  0
 23 35  1  0
M  ISO  8  24  14  25  14  26  14  27  14  28  14  29   8  30   8  31   8
M  ISO  4  32   8  33   8  34   8  35   8
M  END
>  <minimizedAffinity>  (1) 
-5.16669369

>  <minimizedRMSD>  (1) 
2.54680467

$$$$
