
     RDKit          3D

 38 42  0  0  0  0  0  0  0  0999 V2000
   40.4600   26.6460   32.3340 C   0  0  0  0  0  0  0  0  0  0  0  0
   40.2380   25.7410   33.3770 C   0  0  0  0  0  0  0  0  0  0  0  0
   38.9490   25.6980   33.9030 C   0  0  0  0  0  0  0  0  0  0  0  0
   37.9910   26.5120   33.3940 N   0  0  0  0  0  0  0  0  0  0  0  0
   38.2420   27.3680   32.3920 C   0  0  0  0  0  0  0  0  0  0  0  0
   39.4710   27.4160   31.8840 N   0  0  0  0  0  0  0  0  0  0  0  0
   37.2620   28.2390   31.8390 N   0  0  0  0  0  0  0  0  0  0  0  0
   37.0770   28.6870   30.5940 C   0  0  0  0  0  0  0  0  0  0  0  0
   36.0080   29.4910   30.5860 N   0  0  0  0  0  0  0  0  0  0  0  0
   35.4790   29.5790   31.8280 C   0  0  0  0  0  0  0  0  0  0  0  0
   34.3810   30.2820   32.3140 C   0  0  0  0  0  0  0  0  0  0  0  0
   34.1450   30.1340   33.6290 N   0  0  0  0  0  0  0  0  0  0  0  0
   34.9160   29.3640   34.3980 C   0  0  0  0  0  0  0  0  0  0  0  0
   35.9840   28.6740   33.9470 N   0  0  0  0  0  0  0  0  0  0  0  0
   36.2840   28.7800   32.6130 C   0  0  0  0  0  0  0  0  0  0  0  0
   41.2100   24.8560   33.9710 C   0  0  0  0  0  0  0  0  0  0  0  0
   42.5270   25.0720   33.7910 N   0  0  0  0  0  0  0  0  0  0  0  0
   43.1880   24.1490   34.4290 O   0  0  0  0  0  0  0  0  0  0  0  0
   42.3550   23.3350   35.0190 C   0  0  0  0  0  0  0  0  0  0  0  0
   41.1020   23.7470   34.7530 N   0  0  0  0  0  0  0  0  0  0  0  0
   42.7450   22.2120   35.8020 N   0  0  0  0  0  0  0  0  0  0  0  0
   43.9850   21.4690   35.5390 C   0  0  0  0  0  0  0  0  0  0  0  0
   44.0150   20.3910   36.5950 C   0  0  0  0  0  0  0  0  0  0  0  0
   42.5620   20.2230   36.9880 C   0  0  0  0  0  0  0  0  0  0  0  0
   42.0470   21.6230   36.9300 C   0  0  0  0  0  0  0  0  0  0  0  0
   41.4598   26.7224   31.8816 H   0  0  0  0  0  0  0  0  0  0  0  0
   38.7096   25.0084   34.7258 H   0  0  0  0  0  0  0  0  0  0  0  0
   37.6992   28.4367   29.7221 H   0  0  0  0  0  0  0  0  0  0  0  0
   33.7518   30.9130   31.6690 H   0  0  0  0  0  0  0  0  0  0  0  0
   34.6656   29.2867   35.4663 H   0  0  0  0  0  0  0  0  0  0  0  0
   43.9660   21.0259   34.5324 H   0  0  0  0  0  0  0  0  0  0  0  0
   44.8743   22.1152   35.5776 H   0  0  0  0  0  0  0  0  0  0  0  0
   44.4203   19.4538   36.1857 H   0  0  0  0  0  0  0  0  0  0  0  0
   44.6572   20.6524   37.4490 H   0  0  0  0  0  0  0  0  0  0  0  0
   42.0303   19.5742   36.2764 H   0  0  0  0  0  0  0  0  0  0  0  0
   42.4259   19.7463   37.9699 H   0  0  0  0  0  0  0  0  0  0  0  0
   42.2808   22.1636   37.8590 H   0  0  0  0  0  0  0  0  0  0  0  0
   40.9535   21.6657   36.8181 H   0  0  0  0  0  0  0  0  0  0  0  0
  1  2  2  0
  2  3  1  0
  2 16  1  0
  4  3  2  0
  5  4  1  0
  6  1  1  0
  6  5  2  0
  7  5  1  0
  7 15  1  0
  8  7  1  0
  9  8  2  0
  9 10  1  0
 10 11  2  0
 10 15  1  0
 11 12  1  0
 12 13  2  0
 14 13  1  0
 15 14  2  0
 16 20  1  0
 17 16  2  0
 17 18  1  0
 18 19  1  0
 19 21  1  0
 20 19  2  0
 21 25  1  0
 22 21  1  0
 22 23  1  0
 23 24  1  0
 25 24  1  0
  1 26  1  0
  3 27  1  0
  8 28  1  0
 11 29  1  0
 13 30  1  0
 22 31  1  0
 22 32  1  0
 23 33  1  0
 23 34  1  0
 24 35  1  0
 24 36  1  0
 25 37  1  0
 25 38  1  0
M  ISO  8  26  14  27  14  28  14  29  14  30  14  31  13  32  13  33  13
M  ISO  5  34  13  35  13  36  13  37  13  38  13
M  END
>  <minimizedAffinity>  (1) 
-4.6066699

>  <minimizedRMSD>  (1) 
2.6564064

$$$$
