
     RDKit          3D

 47 50  0  0  1  0  0  0  0  0999 V2000
   40.3350   27.1650   31.7600 C   0  0  0  0  0  0  0  0  0  0  0  0
   41.8100   26.7850   31.8230 C   0  0  1  0  0  0  0  0  0  0  0  0
   42.2990   26.1870   30.5510 C   0  0  0  0  0  0  0  0  0  0  0  0
   43.0750   27.1000   29.6790 C   0  0  0  0  0  0  0  0  0  0  0  0
   43.9090   28.1370   30.3350 C   0  0  0  0  0  0  0  0  0  0  0  0
   43.1740   28.8500   31.4180 C   0  0  0  0  0  0  0  0  0  0  0  0
   42.6430   27.8720   32.4010 C   0  0  2  0  0  0  0  0  0  0  0  0
   43.7290   27.3240   33.2980 C   0  0  0  0  0  0  0  0  0  0  0  0
   45.1110   27.8350   33.4510 C   0  0  0  0  0  0  0  0  0  0  0  0
   45.7690   26.7160   34.6420 S   0  0  0  0  0  0  0  0  0  0  0  0
   44.1360   25.7120   34.7890 C   0  0  0  0  0  0  0  0  0  0  0  0
   43.2590   26.2640   33.9740 N   0  0  0  0  0  0  0  0  0  0  0  0
   38.5890   24.5180   33.7490 N   0  0  0  0  0  0  0  0  0  0  0  0
   39.4240   25.5380   33.4860 C   0  0  0  0  0  0  0  0  0  0  0  0
   39.4590   26.0420   32.1960 C   0  0  0  0  0  0  0  0  0  0  0  0
   38.6330   25.4780   31.2240 C   0  0  0  0  0  0  0  0  0  0  0  0
   38.5860   25.8560   30.0300 O   0  0  0  0  0  0  0  0  0  0  0  0
   37.8020   24.4440   31.5370 N   0  0  0  0  0  0  0  0  0  0  0  0
   37.8010   23.9890   32.7940 C   0  0  0  0  0  0  0  0  0  0  0  0
   37.0390   23.0420   33.0810 O   0  0  0  0  0  0  0  0  0  0  0  0
   37.8970   24.7800   36.0480 C   0  0  0  0  0  0  0  0  0  0  0  0
   38.6240   24.0720   35.0850 C   0  0  0  0  0  0  0  0  0  0  0  0
   39.3410   22.9630   35.5190 C   0  0  0  0  0  0  0  0  0  0  0  0
   39.2950   22.6310   36.8480 N   0  0  0  0  0  0  0  0  0  0  0  0
   38.5880   23.3350   37.7360 C   0  0  0  0  0  0  0  0  0  0  0  0
   37.8940   24.4060   37.3200 N   0  0  0  0  0  0  0  0  0  0  0  0
   38.7080   22.7810   39.0440 N   0  0  0  0  0  0  0  0  0  0  0  0
   40.1609   28.0293   32.4177 H   0  0  0  0  0  0  0  0  0  0  0  0
   40.0873   27.4085   30.7163 H   0  0  0  0  0  0  0  0  0  0  0  0
   41.9217   25.9620   32.5443 H   0  0  0  0  0  0  0  0  0  0  0  0
   42.9413   25.3303   30.8031 H   0  0  0  0  0  0  0  0  0  0  0  0
   41.4005   25.9112   29.9795 H   0  0  0  0  0  0  0  0  0  0  0  0
   42.3579   27.6195   29.0264 H   0  0  0  0  0  0  0  0  0  0  0  0
   43.7961   26.4475   29.1649 H   0  0  0  0  0  0  0  0  0  0  0  0
   44.7976   27.6548   30.7683 H   0  0  0  0  0  0  0  0  0  0  0  0
   44.1874   28.8785   29.5717 H   0  0  0  0  0  0  0  0  0  0  0  0
   43.8592   29.5433   31.9278 H   0  0  0  0  0  0  0  0  0  0  0  0
   42.3360   29.4099   30.9773 H   0  0  0  0  0  0  0  0  0  0  0  0
   41.9471   28.4592   33.0181 H   0  0  0  0  0  0  0  0  0  0  0  0
   45.5972   28.6869   32.9532 H   0  0  0  0  0  0  0  0  0  0  0  0
   43.9649   24.8378   35.4344 H   0  0  0  0  0  0  0  0  0  0  0  0
   40.0631   25.9616   34.2747 H   0  0  0  0  0  0  0  0  0  0  0  0
   37.1901   24.0237   30.8229 H   0  0  0  0  0  0  0  0  0  0  0  0
   37.3168   25.6638   35.7441 H   0  0  0  0  0  0  0  0  0  0  0  0
   39.9328   22.3645   34.8108 H   0  0  0  0  0  0  0  0  0  0  0  0
   38.2161   23.2190   39.8359 H   0  0  0  0  0  0  0  0  0  0  0  0
   39.2866   21.9428   39.1972 H   0  0  0  0  0  0  0  0  0  0  0  0
  1  2  1  0
  1 15  1  0
  2  7  1  0
  3  2  1  0
  4  5  1  0
  4  3  1  0
  5  6  1  0
  6  7  1  0
  7  8  1  0
  8  9  2  0
  8 12  1  0
  9 10  1  0
 10 11  1  0
 12 11  2  0
 13 22  1  0
 14 13  1  0
 15 14  2  0
 16 18  1  0
 16 15  1  0
 17 16  2  0
 18 19  1  0
 19 20  2  0
 19 13  1  0
 21 26  2  0
 22 23  2  0
 22 21  1  0
 23 24  1  0
 24 25  2  0
 25 27  1  0
 26 25  1  0
  1 28  1  0
  1 29  1  0
  2 30  1  1
  3 31  1  0
  3 32  1  0
  4 33  1  0
  4 34  1  0
  5 35  1  0
  5 36  1  0
  6 37  1  0
  6 38  1  0
  7 39  1  1
  9 40  1  0
 11 41  1  0
 14 42  1  0
 18 43  1  0
 21 44  1  0
 23 45  1  0
 27 46  1  0
 27 47  1  0
M  ISO  8  28   8  29   8  30  13  31  13  32  13  33  13  34  13  35  13
M  ISO  8  36  13  37  13  38  13  39  13  40  14  41  14  42  14  43   9
M  ISO  2  44  14  45  14
M  END
>  <minimizedAffinity>  (1) 
-4.7359972

>  <minimizedRMSD>  (1) 
2.15333486

$$$$
