
     RDKit          3D

 27 30  0  0  0  0  0  0  0  0999 V2000
   39.5660   26.5970   33.2120 C   0  0  0  0  0  0  0  0  0  0  0  0
   39.1340   25.7690   34.2570 C   0  0  0  0  0  0  0  0  0  0  0  0
   37.7830   25.8610   34.6570 C   0  0  0  0  0  0  0  0  0  0  0  0
   36.9680   26.7440   34.0150 N   0  0  0  0  0  0  0  0  0  0  0  0
   37.4340   27.5290   33.0040 C   0  0  0  0  0  0  0  0  0  0  0  0
   38.7070   27.4260   32.6450 N   0  0  0  0  0  0  0  0  0  0  0  0
   36.5980   28.4500   32.3270 N   0  0  0  0  0  0  0  0  0  0  0  0
   36.5840   28.8230   31.0250 C   0  0  0  0  0  0  0  0  0  0  0  0
   35.6010   29.7230   30.8580 N   0  0  0  0  0  0  0  0  0  0  0  0
   34.9650   29.9500   32.0310 C   0  0  0  0  0  0  0  0  0  0  0  0
   33.9060   30.7730   32.3860 C   0  0  0  0  0  0  0  0  0  0  0  0
   33.5350   30.7420   33.6710 N   0  0  0  0  0  0  0  0  0  0  0  0
   34.1540   29.9620   34.5450 C   0  0  0  0  0  0  0  0  0  0  0  0
   35.1890   29.1480   34.2330 N   0  0  0  0  0  0  0  0  0  0  0  0
   35.6190   29.1300   32.9420 C   0  0  0  0  0  0  0  0  0  0  0  0
   39.9160   24.8030   34.9990 C   0  0  0  0  0  0  0  0  0  0  0  0
   41.2460   24.8460   34.9390 N   0  0  0  0  0  0  0  0  0  0  0  0
   41.7630   23.9110   35.6630 O   0  0  0  0  0  0  0  0  0  0  0  0
   40.8140   23.2240   36.2220 C   0  0  0  0  0  0  0  0  0  0  0  0
   39.6260   23.7690   35.8170 N   0  0  0  0  0  0  0  0  0  0  0  0
   41.0050   21.8380   37.3070 S   0  0  0  0  0  0  0  0  0  0  0  0
   40.6098   26.5573   32.8671 H   0  0  0  0  0  0  0  0  0  0  0  0
   37.3958   25.2315   35.4717 H   0  0  0  0  0  0  0  0  0  0  0  0
   37.2604   28.4530   30.2404 H   0  0  0  0  0  0  0  0  0  0  0  0
   33.3992   31.4158   31.6512 H   0  0  0  0  0  0  0  0  0  0  0  0
   33.8052   29.9770   35.5881 H   0  0  0  0  0  0  0  0  0  0  0  0
   40.9462   22.2646   38.6075 H   0  0  0  0  0  0  0  0  0  0  0  0
  1  2  2  0
  2  3  1  0
  2 16  1  0
  4  3  2  0
  5  4  1  0
  6  5  2  0
  6  1  1  0
  7 15  1  0
  7  5  1  0
  8  7  1  0
  9  8  2  0
  9 10  1  0
 10 11  2  0
 10 15  1  0
 11 12  1  0
 12 13  2  0
 14 13  1  0
 15 14  2  0
 16 20  1  0
 17 16  2  0
 17 18  1  0
 18 19  1  0
 19 21  1  0
 20 19  2  0
  1 22  1  0
  3 23  1  0
  8 24  1  0
 11 25  1  0
 13 26  1  0
 21 27  1  0
M  ISO  6  22  14  23  14  24  14  25  14  26  14  27  11
M  END
>  <minimizedAffinity>  (1) 
-4.71387768

>  <minimizedRMSD>  (1) 
1.44839919

$$$$
