
     RDKit          3D

 43 48  0  0  0  0  0  0  0  0999 V2000
   37.9800   26.4140   32.9440 C   0  0  0  0  0  0  0  0  0  0  0  0
   37.8950   25.9030   34.2570 C   0  0  0  0  0  0  0  0  0  0  0  0
   37.0740   26.5830   35.1680 C   0  0  0  0  0  0  0  0  0  0  0  0
   36.4100   27.6890   34.7450 N   0  0  0  0  0  0  0  0  0  0  0  0
   36.5210   28.1490   33.4660 C   0  0  0  0  0  0  0  0  0  0  0  0
   37.2950   27.4990   32.6230 N   0  0  0  0  0  0  0  0  0  0  0  0
   35.8210   29.3050   33.0380 N   0  0  0  0  0  0  0  0  0  0  0  0
   35.2760   29.5780   31.8230 C   0  0  0  0  0  0  0  0  0  0  0  0
   34.7120   30.8000   31.8880 N   0  0  0  0  0  0  0  0  0  0  0  0
   34.8800   31.3280   33.1250 C   0  0  0  0  0  0  0  0  0  0  0  0
   34.4970   32.5360   33.6960 C   0  0  0  0  0  0  0  0  0  0  0  0
   34.8440   32.7180   34.9720 N   0  0  0  0  0  0  0  0  0  0  0  0
   35.5140   31.8010   35.6500 C   0  0  0  0  0  0  0  0  0  0  0  0
   35.8990   30.6170   35.1140 N   0  0  0  0  0  0  0  0  0  0  0  0
   35.5850   30.3560   33.8260 C   0  0  0  0  0  0  0  0  0  0  0  0
   38.5770   24.7310   34.7690 C   0  0  0  0  0  0  0  0  0  0  0  0
   38.5060   23.5760   34.1300 N   0  0  0  0  0  0  0  0  0  0  0  0
   39.1900   22.6750   34.7700 O   0  0  0  0  0  0  0  0  0  0  0  0
   39.7200   23.1990   35.8230 C   0  0  0  0  0  0  0  0  0  0  0  0
   39.3500   24.5060   35.8520 N   0  0  0  0  0  0  0  0  0  0  0  0
   40.7320   22.3460   36.9880 S   0  0  0  0  0  0  0  0  0  0  0  0
   42.4490   22.5540   36.5390 C   0  0  0  0  0  0  0  0  0  0  0  0
   43.0550   23.7600   36.2190 C   0  0  0  0  0  0  0  0  0  0  0  0
   44.3960   23.7600   35.8920 C   0  0  0  0  0  0  0  0  0  0  0  0
   45.1530   22.6030   35.8720 C   0  0  0  0  0  0  0  0  0  0  0  0
   44.5380   21.4150   36.1910 C   0  0  0  0  0  0  0  0  0  0  0  0
   45.3180   20.2560   36.1660 C   0  0  0  0  0  0  0  0  0  0  0  0
   44.7380   19.0370   36.4810 C   0  0  0  0  0  0  0  0  0  0  0  0
   43.3900   18.9800   36.8180 C   0  0  0  0  0  0  0  0  0  0  0  0
   42.6740   20.1570   36.8250 C   0  0  0  0  0  0  0  0  0  0  0  0
   43.1990   21.3970   36.5210 C   0  0  0  0  0  0  0  0  0  0  0  0
   38.6106   25.9141   32.1940 H   0  0  0  0  0  0  0  0  0  0  0  0
   36.9701   26.2277   36.2038 H   0  0  0  0  0  0  0  0  0  0  0  0
   35.2925   28.9184   30.9429 H   0  0  0  0  0  0  0  0  0  0  0  0
   33.9406   33.2973   33.1296 H   0  0  0  0  0  0  0  0  0  0  0  0
   35.7711   32.0092   36.6991 H   0  0  0  0  0  0  0  0  0  0  0  0
   42.4788   24.6970   36.2257 H   0  0  0  0  0  0  0  0  0  0  0  0
   44.8799   24.7147   35.6382 H   0  0  0  0  0  0  0  0  0  0  0  0
   46.2203   22.6321   35.6076 H   0  0  0  0  0  0  0  0  0  0  0  0
   46.3836   20.3104   35.8985 H   0  0  0  0  0  0  0  0  0  0  0  0
   45.3420   18.1178   36.4645 H   0  0  0  0  0  0  0  0  0  0  0  0
   42.9096   18.0234   37.0715 H   0  0  0  0  0  0  0  0  0  0  0  0
   41.6081   20.1050   37.0918 H   0  0  0  0  0  0  0  0  0  0  0  0
  1  2  2  0
  2 16  1  0
  2  3  1  0
  4  3  2  0
  5  4  1  0
  6  1  1  0
  6  5  2  0
  7  5  1  0
  7 15  1  0
  8  9  2  0
  8  7  1  0
  9 10  1  0
 10 11  1  0
 10 15  2  0
 11 12  2  0
 12 13  1  0
 14 13  2  0
 15 14  1  0
 16 20  1  0
 17 16  2  0
 17 18  1  0
 18 19  1  0
 19 20  2  0
 19 21  1  0
 22 21  1  0
 23 22  2  0
 24 23  1  0
 25 24  2  0
 25 26  1  0
 26 31  2  0
 27 26  1  0
 27 28  2  0
 28 29  1  0
 29 30  2  0
 31 22  1  0
 31 30  1  0
  1 32  1  0
  3 33  1  0
  8 34  1  0
 11 35  1  0
 13 36  1  0
 23 37  1  0
 24 38  1  0
 25 39  1  0
 27 40  1  0
 28 41  1  0
 29 42  1  0
 30 43  1  0
M  ISO  8  32  14  33  14  34  14  35  14  36  14  37  14  38  14  39  14
M  ISO  4  40  14  41  14  42  14  43  14
M  END
>  <minimizedAffinity>  (1) 
-6.10602808

>  <minimizedRMSD>  (1) 
1.86878526

$$$$
