
     RDKit          3D

 41 46  0  0  0  0  0  0  0  0999 V2000
   38.1150   26.0560   33.0250 C   0  0  0  0  0  0  0  0  0  0  0  0
   38.0600   25.5390   34.3390 C   0  0  0  0  0  0  0  0  0  0  0  0
   37.2750   26.2130   35.2830 C   0  0  0  0  0  0  0  0  0  0  0  0
   36.6010   27.3330   34.8930 N   0  0  0  0  0  0  0  0  0  0  0  0
   36.6840   27.8000   33.6060 C   0  0  0  0  0  0  0  0  0  0  0  0
   37.4300   27.1480   32.7370 N   0  0  0  0  0  0  0  0  0  0  0  0
   35.9800   28.9620   33.2160 N   0  0  0  0  0  0  0  0  0  0  0  0
   35.3840   29.2460   32.0230 C   0  0  0  0  0  0  0  0  0  0  0  0
   34.8370   30.4730   32.1190 N   0  0  0  0  0  0  0  0  0  0  0  0
   35.0620   30.9930   33.3410 C   0  0  0  0  0  0  0  0  0  0  0  0
   34.7190   32.1980   33.9350 C   0  0  0  0  0  0  0  0  0  0  0  0
   35.1190   32.3810   35.1940 N   0  0  0  0  0  0  0  0  0  0  0  0
   35.8050   31.4610   35.8360 C   0  0  0  0  0  0  0  0  0  0  0  0
   36.1620   30.2680   35.2930 N   0  0  0  0  0  0  0  0  0  0  0  0
   35.7870   30.0170   34.0140 C   0  0  0  0  0  0  0  0  0  0  0  0
   38.7500   24.3560   34.8150 C   0  0  0  0  0  0  0  0  0  0  0  0
   38.7790   23.2480   34.0940 N   0  0  0  0  0  0  0  0  0  0  0  0
   39.4390   22.3210   34.6970 O   0  0  0  0  0  0  0  0  0  0  0  0
   39.8680   22.7870   35.8380 C   0  0  0  0  0  0  0  0  0  0  0  0
   39.4500   24.0750   35.9470 N   0  0  0  0  0  0  0  0  0  0  0  0
   40.8320   21.9090   37.0500 S   0  0  0  0  0  0  0  0  0  0  0  0
   42.5210   21.7570   36.5280 C   0  0  0  0  0  0  0  0  0  0  0  0
   43.0030   20.5190   36.1220 C   0  0  0  0  0  0  0  0  0  0  0  0
   44.2930   20.6770   35.7820 N   0  0  0  0  0  0  0  0  0  0  0  0
   44.6440   21.9640   35.9590 C   0  0  0  0  0  0  0  0  0  0  0  0
   45.8170   22.6770   35.7740 C   0  0  0  0  0  0  0  0  0  0  0  0
   45.8620   24.0280   36.0520 C   0  0  0  0  0  0  0  0  0  0  0  0
   44.7380   24.6760   36.5180 C   0  0  0  0  0  0  0  0  0  0  0  0
   43.5280   24.0180   36.7260 C   0  0  0  0  0  0  0  0  0  0  0  0
   43.5440   22.6600   36.4270 C   0  0  0  0  0  0  0  0  0  0  0  0
   38.7193   25.5564   32.2535 H   0  0  0  0  0  0  0  0  0  0  0  0
   37.2034   25.8467   36.3177 H   0  0  0  0  0  0  0  0  0  0  0  0
   35.3551   28.5904   31.1402 H   0  0  0  0  0  0  0  0  0  0  0  0
   34.1452   32.9652   33.3944 H   0  0  0  0  0  0  0  0  0  0  0  0
   36.1073   31.6695   36.8729 H   0  0  0  0  0  0  0  0  0  0  0  0
   42.4319   19.5796   36.0855 H   0  0  0  0  0  0  0  0  0  0  0  0
   44.9152   19.9309   35.4399 H   0  0  0  0  0  0  0  0  0  0  0  0
   46.7169   22.1640   35.4038 H   0  0  0  0  0  0  0  0  0  0  0  0
   46.7963   24.5887   35.9015 H   0  0  0  0  0  0  0  0  0  0  0  0
   44.7989   25.7529   36.7336 H   0  0  0  0  0  0  0  0  0  0  0  0
   42.6297   24.5326   37.0978 H   0  0  0  0  0  0  0  0  0  0  0  0
  1  2  2  0
  2 16  1  0
  2  3  1  0
  4  3  2  0
  5  4  1  0
  6  1  1  0
  6  5  2  0
  7  5  1  0
  7 15  1  0
  8  9  2  0
  8  7  1  0
  9 10  1  0
 10 11  1  0
 10 15  2  0
 11 12  2  0
 12 13  1  0
 14 13  2  0
 15 14  1  0
 16 20  1  0
 17 18  1  0
 17 16  2  0
 18 19  1  0
 19 20  2  0
 19 21  1  0
 22 21  1  0
 23 22  2  0
 24 25  1  0
 24 23  1  0
 25 30  2  0
 26 25  1  0
 26 27  2  0
 27 28  1  0
 28 29  2  0
 30 22  1  0
 30 29  1  0
  1 31  1  0
  3 32  1  0
  8 33  1  0
 11 34  1  0
 13 35  1  0
 23 36  1  0
 24 37  1  0
 26 38  1  0
 27 39  1  0
 28 40  1  0
 29 41  1  0
M  ISO  8  31  14  32  14  33  14  34  14  35  14  36  14  37   9  38  14
M  ISO  3  39  14  40  14  41  14
M  END
>  <minimizedAffinity>  (1) 
-5.98104143

>  <minimizedRMSD>  (1) 
1.72716022

$$$$
