
     RDKit          3D

 37 41  0  0  0  0  0  0  0  0999 V2000
   36.6780   28.2650   31.7100 C   0  0  0  0  0  0  0  0  0  0  0  0
   36.6330   27.4830   32.8820 C   0  0  0  0  0  0  0  0  0  0  0  0
   36.1500   28.0840   34.0520 C   0  0  0  0  0  0  0  0  0  0  0  0
   35.7480   29.3870   34.0040 N   0  0  0  0  0  0  0  0  0  0  0  0
   35.8110   30.1070   32.8380 C   0  0  0  0  0  0  0  0  0  0  0  0
   36.2690   29.5220   31.7500 N   0  0  0  0  0  0  0  0  0  0  0  0
   35.3930   31.4550   32.8000 N   0  0  0  0  0  0  0  0  0  0  0  0
   34.7700   32.1300   31.8000 C   0  0  0  0  0  0  0  0  0  0  0  0
   34.5670   33.3920   32.2120 N   0  0  0  0  0  0  0  0  0  0  0  0
   35.0430   33.5590   33.4630 C   0  0  0  0  0  0  0  0  0  0  0  0
   35.0770   34.6460   34.3160 C   0  0  0  0  0  0  0  0  0  0  0  0
   35.6390   34.4460   35.5120 N   0  0  0  0  0  0  0  0  0  0  0  0
   36.1380   33.2530   35.8500 C   0  0  0  0  0  0  0  0  0  0  0  0
   36.1160   32.1790   35.0340 N   0  0  0  0  0  0  0  0  0  0  0  0
   35.5560   32.3190   33.8030 C   0  0  0  0  0  0  0  0  0  0  0  0
   37.0410   26.0980   33.0080 C   0  0  0  0  0  0  0  0  0  0  0  0
   36.5530   25.1770   32.1810 N   0  0  0  0  0  0  0  0  0  0  0  0
   37.0500   24.0110   32.4720 O   0  0  0  0  0  0  0  0  0  0  0  0
   37.8660   24.1370   33.4860 C   0  0  0  0  0  0  0  0  0  0  0  0
   37.8880   25.4580   33.8590 N   0  0  0  0  0  0  0  0  0  0  0  0
   38.7690   22.8220   34.2270 S   0  0  0  0  0  0  0  0  0  0  0  0
   38.8090   23.0220   35.9790 C   0  0  0  0  0  0  0  0  0  0  0  0
   37.7040   23.5120   36.6520 C   0  0  0  0  0  0  0  0  0  0  0  0
   37.7850   23.6520   38.0370 C   0  0  0  0  0  0  0  0  0  0  0  0
   38.9480   23.3030   38.7060 C   0  0  0  0  0  0  0  0  0  0  0  0
   40.0520   22.8130   38.0230 C   0  0  0  0  0  0  0  0  0  0  0  0
   39.9630   22.6790   36.6610 C   0  0  0  0  0  0  0  0  0  0  0  0
   37.0504   27.8330   30.7694 H   0  0  0  0  0  0  0  0  0  0  0  0
   36.0959   27.5156   34.9922 H   0  0  0  0  0  0  0  0  0  0  0  0
   34.4818   31.7154   30.8227 H   0  0  0  0  0  0  0  0  0  0  0  0
   34.6637   35.6233   34.0261 H   0  0  0  0  0  0  0  0  0  0  0  0
   36.5906   33.1410   36.8463 H   0  0  0  0  0  0  0  0  0  0  0  0
   36.7866   23.7837   36.1093 H   0  0  0  0  0  0  0  0  0  0  0  0
   36.9237   24.0404   38.6003 H   0  0  0  0  0  0  0  0  0  0  0  0
   38.9965   23.4167   39.7990 H   0  0  0  0  0  0  0  0  0  0  0  0
   40.9729   22.5397   38.5590 H   0  0  0  0  0  0  0  0  0  0  0  0
   40.8260   22.2912   36.0998 H   0  0  0  0  0  0  0  0  0  0  0  0
  1  6  2  0
  1  2  1  0
  2 16  1  0
  2  3  2  0
  4  3  1  0
  5  4  2  0
  6  5  1  0
  7  5  1  0
  7 15  1  0
  8  9  2  0
  8  7  1  0
  9 10  1  0
 10 15  2  0
 10 11  1  0
 11 12  2  0
 12 13  1  0
 14 13  2  0
 15 14  1  0
 16 20  1  0
 17 18  1  0
 17 16  2  0
 18 19  1  0
 19 20  2  0
 19 21  1  0
 21 22  1  0
 22 23  2  0
 22 27  1  0
 23 24  1  0
 24 25  2  0
 26 25  1  0
 27 26  2  0
  1 28  1  0
  3 29  1  0
  8 30  1  0
 11 31  1  0
 13 32  1  0
 23 33  1  0
 24 34  1  0
 25 35  1  0
 26 36  1  0
 27 37  1  0
M  ISO  8  28  14  29  14  30  14  31  14  32  14  33  14  34  14  35  14
M  ISO  2  36  14  37  14
M  END
>  <minimizedAffinity>  (1) 
-5.77448988

>  <minimizedRMSD>  (1) 
4.39387083

$$$$
