
     RDKit          3D

 34 38  0  0  0  0  0  0  0  0999 V2000
   39.5450   26.6050   33.2050 C   0  0  0  0  0  0  0  0  0  0  0  0
   39.1140   25.7830   34.2680 C   0  0  0  0  0  0  0  0  0  0  0  0
   37.7760   25.8840   34.6690 C   0  0  0  0  0  0  0  0  0  0  0  0
   36.9490   26.7560   34.0320 N   0  0  0  0  0  0  0  0  0  0  0  0
   37.4100   27.5330   33.0080 C   0  0  0  0  0  0  0  0  0  0  0  0
   38.6780   27.4290   32.6370 N   0  0  0  0  0  0  0  0  0  0  0  0
   36.5750   28.4480   32.3270 N   0  0  0  0  0  0  0  0  0  0  0  0
   36.5510   28.8230   31.0260 C   0  0  0  0  0  0  0  0  0  0  0  0
   35.5730   29.7220   30.8610 N   0  0  0  0  0  0  0  0  0  0  0  0
   34.9450   29.9510   32.0350 C   0  0  0  0  0  0  0  0  0  0  0  0
   33.8890   30.7770   32.3970 C   0  0  0  0  0  0  0  0  0  0  0  0
   33.5180   30.7490   33.6890 N   0  0  0  0  0  0  0  0  0  0  0  0
   34.1440   29.9700   34.5460 C   0  0  0  0  0  0  0  0  0  0  0  0
   35.1750   29.1530   34.2310 N   0  0  0  0  0  0  0  0  0  0  0  0
   35.5980   29.1330   32.9450 C   0  0  0  0  0  0  0  0  0  0  0  0
   39.9190   24.8290   35.0020 C   0  0  0  0  0  0  0  0  0  0  0  0
   41.2490   24.9030   34.9650 N   0  0  0  0  0  0  0  0  0  0  0  0
   41.7600   23.9600   35.6860 O   0  0  0  0  0  0  0  0  0  0  0  0
   40.8150   23.2510   36.2110 C   0  0  0  0  0  0  0  0  0  0  0  0
   39.6280   23.7680   35.8020 N   0  0  0  0  0  0  0  0  0  0  0  0
   41.0430   21.8540   37.2720 S   0  0  0  0  0  0  0  0  0  0  0  0
   44.6110   20.7150   36.0670 N   0  0  0  0  0  0  0  0  0  0  0  0
   43.6290   21.5730   36.2250 N   0  0  0  0  0  0  0  0  0  0  0  0
   42.5770   21.0370   36.8590 C   0  0  0  0  0  0  0  0  0  0  0  0
   42.9500   19.7350   37.1120 C   0  0  0  0  0  0  0  0  0  0  0  0
   44.2070   19.5590   36.6140 C   0  0  0  0  0  0  0  0  0  0  0  0
   40.5864   26.5618   32.8533 H   0  0  0  0  0  0  0  0  0  0  0  0
   37.3965   25.2624   35.4934 H   0  0  0  0  0  0  0  0  0  0  0  0
   37.2221   28.4515   30.2376 H   0  0  0  0  0  0  0  0  0  0  0  0
   33.3818   31.4215   31.6639 H   0  0  0  0  0  0  0  0  0  0  0  0
   33.8046   29.9845   35.5922 H   0  0  0  0  0  0  0  0  0  0  0  0
   45.5167   20.8953   35.6109 H   0  0  0  0  0  0  0  0  0  0  0  0
   42.3426   18.9740   37.6239 H   0  0  0  0  0  0  0  0  0  0  0  0
   44.7905   18.6274   36.6541 H   0  0  0  0  0  0  0  0  0  0  0  0
  1  2  2  0
  2  3  1  0
  2 16  1  0
  4  3  2  0
  5  4  1  0
  6  5  2  0
  6  1  1  0
  7 15  1  0
  7  5  1  0
  8  7  1  0
  9  8  2  0
  9 10  1  0
 10 11  2  0
 10 15  1  0
 11 12  1  0
 12 13  2  0
 14 13  1  0
 15 14  2  0
 16 20  1  0
 17 16  2  0
 17 18  1  0
 18 19  1  0
 19 21  1  0
 20 19  2  0
 22 23  1  0
 22 26  1  0
 23 24  2  0
 24 25  1  0
 24 21  1  0
 26 25  2  0
  1 27  1  0
  3 28  1  0
  8 29  1  0
 11 30  1  0
 13 31  1  0
 22 32  1  0
 25 33  1  0
 26 34  1  0
M  ISO  8  27  14  28  14  29  14  30  14  31  14  32   9  33  14  34  14
M  END
>  <minimizedAffinity>  (1) 
-5.13798094

>  <minimizedRMSD>  (1) 
0.633245468

$$$$
