
     RDKit          3D

 34 38  0  0  0  0  0  0  0  0999 V2000
   38.1680   25.9240   33.1400 C   0  0  0  0  0  0  0  0  0  0  0  0
   38.0780   25.4290   34.4580 C   0  0  0  0  0  0  0  0  0  0  0  0
   37.2700   26.1230   35.3820 C   0  0  0  0  0  0  0  0  0  0  0  0
   36.6120   27.2420   34.9620 N   0  0  0  0  0  0  0  0  0  0  0  0
   36.7260   27.6900   33.6730 C   0  0  0  0  0  0  0  0  0  0  0  0
   37.4980   27.0150   32.8160 N   0  0  0  0  0  0  0  0  0  0  0  0
   36.0460   28.8460   33.2380 N   0  0  0  0  0  0  0  0  0  0  0  0
   35.4760   29.1210   32.0350 C   0  0  0  0  0  0  0  0  0  0  0  0
   34.9420   30.3460   32.0820 N   0  0  0  0  0  0  0  0  0  0  0  0
   35.1510   30.8980   33.3110 C   0  0  0  0  0  0  0  0  0  0  0  0
   34.8120   32.1130   33.8670 C   0  0  0  0  0  0  0  0  0  0  0  0
   35.1930   32.3160   35.1370 N   0  0  0  0  0  0  0  0  0  0  0  0
   35.8550   31.3940   35.8020 C   0  0  0  0  0  0  0  0  0  0  0  0
   36.2040   30.1920   35.2910 N   0  0  0  0  0  0  0  0  0  0  0  0
   35.8460   29.9210   33.9990 C   0  0  0  0  0  0  0  0  0  0  0  0
   38.7420   24.2550   34.9770 C   0  0  0  0  0  0  0  0  0  0  0  0
   38.3590   23.0430   34.6130 N   0  0  0  0  0  0  0  0  0  0  0  0
   39.0670   22.1300   35.1790 O   0  0  0  0  0  0  0  0  0  0  0  0
   39.9540   22.7030   35.9470 C   0  0  0  0  0  0  0  0  0  0  0  0
   39.7640   24.0540   35.8330 N   0  0  0  0  0  0  0  0  0  0  0  0
   41.1810   21.9080   36.9540 S   0  0  0  0  0  0  0  0  0  0  0  0
   42.7700   22.6060   36.6090 C   0  0  0  0  0  0  0  0  0  0  0  0
   43.7140   21.7270   36.0710 C   0  0  0  0  0  0  0  0  0  0  0  0
   44.8980   22.4100   35.8560 C   0  0  0  0  0  0  0  0  0  0  0  0
   44.6460   23.6770   36.2650 N   0  0  0  0  0  0  0  0  0  0  0  0
   43.4050   23.7880   36.7040 N   0  0  0  0  0  0  0  0  0  0  0  0
   38.7880   25.4081   32.3921 H   0  0  0  0  0  0  0  0  0  0  0  0
   37.1723   25.7698   36.4192 H   0  0  0  0  0  0  0  0  0  0  0  0
   35.4571   28.4469   31.1660 H   0  0  0  0  0  0  0  0  0  0  0  0
   34.2585   32.8755   33.2994 H   0  0  0  0  0  0  0  0  0  0  0  0
   36.1430   31.6152   36.8403 H   0  0  0  0  0  0  0  0  0  0  0  0
   43.5431   20.6624   35.8533 H   0  0  0  0  0  0  0  0  0  0  0  0
   45.8370   22.0121   35.4438 H   0  0  0  0  0  0  0  0  0  0  0  0
   45.3285   24.4479   36.2374 H   0  0  0  0  0  0  0  0  0  0  0  0
  1  2  2  0
  2 16  1  0
  2  3  1  0
  4  3  2  0
  5  4  1  0
  6  1  1  0
  6  5  2  0
  7  5  1  0
  7 15  1  0
  8  9  2  0
  8  7  1  0
  9 10  1  0
 10 11  1  0
 10 15  2  0
 11 12  2  0
 12 13  1  0
 14 13  2  0
 15 14  1  0
 16 20  1  0
 17 16  2  0
 17 18  1  0
 18 19  1  0
 19 21  1  0
 20 19  2  0
 22 26  2  0
 22 21  1  0
 23 22  1  0
 24 23  2  0
 24 25  1  0
 25 26  1  0
  1 27  1  0
  3 28  1  0
  8 29  1  0
 11 30  1  0
 13 31  1  0
 23 32  1  0
 24 33  1  0
 25 34  1  0
M  ISO  8  27  14  28  14  29  14  30  14  31  14  32  14  33  14  34   9
M  END
>  <minimizedAffinity>  (1) 
-5.11476374

>  <minimizedRMSD>  (1) 
1.89426625

$$$$
