
     RDKit          3D

 48 51  0  0  1  0  0  0  0  0999 V2000
   40.2840   27.2080   31.7330 C   0  0  0  0  0  0  0  0  0  0  0  0
   41.7700   26.8360   31.7050 C   0  0  1  0  0  0  0  0  0  0  0  0
   42.1790   26.3470   30.3670 C   0  0  0  0  0  0  0  0  0  0  0  0
   42.9340   27.3170   29.5340 C   0  0  0  0  0  0  0  0  0  0  0  0
   43.8080   28.2970   30.2460 C   0  0  0  0  0  0  0  0  0  0  0  0
   43.0500   28.9760   31.3440 C   0  0  0  0  0  0  0  0  0  0  0  0
   42.5890   27.9320   32.2990 C   0  0  2  0  0  0  0  0  0  0  0  0
   43.7610   27.3980   33.0510 C   0  0  0  0  0  0  0  0  0  0  0  0
   43.8060   26.1170   33.6010 C   0  0  0  0  0  0  0  0  0  0  0  0
   45.0320   25.9040   34.2420 C   0  0  0  0  0  0  0  0  0  0  0  0
   45.6780   27.1260   34.0290 C   0  0  0  0  0  0  0  0  0  0  0  0
   44.9090   27.9210   33.3510 O   0  0  0  0  0  0  0  0  0  0  0  0
   38.6140   24.5190   33.7360 N   0  0  0  0  0  0  0  0  0  0  0  0
   39.4110   25.5510   33.4590 C   0  0  0  0  0  0  0  0  0  0  0  0
   39.4380   26.0620   32.1680 C   0  0  0  0  0  0  0  0  0  0  0  0
   38.6220   25.4700   31.1980 C   0  0  0  0  0  0  0  0  0  0  0  0
   38.5670   25.8490   30.0040 O   0  0  0  0  0  0  0  0  0  0  0  0
   37.8220   24.4200   31.5130 N   0  0  0  0  0  0  0  0  0  0  0  0
   37.8340   23.9660   32.7730 C   0  0  0  0  0  0  0  0  0  0  0  0
   37.0940   22.9960   33.0660 O   0  0  0  0  0  0  0  0  0  0  0  0
   37.9080   24.7630   36.0300 C   0  0  0  0  0  0  0  0  0  0  0  0
   38.6600   24.0780   35.0680 C   0  0  0  0  0  0  0  0  0  0  0  0
   39.4160   22.9900   35.4940 C   0  0  0  0  0  0  0  0  0  0  0  0
   39.3840   22.6490   36.8210 N   0  0  0  0  0  0  0  0  0  0  0  0
   38.6470   23.3340   37.7110 C   0  0  0  0  0  0  0  0  0  0  0  0
   37.9100   24.3910   37.3080 N   0  0  0  0  0  0  0  0  0  0  0  0
   38.7660   22.8020   39.0280 N   0  0  0  0  0  0  0  0  0  0  0  0
   39.9746   27.5167   30.7236 H   0  0  0  0  0  0  0  0  0  0  0  0
   40.1489   28.0275   32.4542 H   0  0  0  0  0  0  0  0  0  0  0  0
   41.9637   25.9701   32.3551 H   0  0  0  0  0  0  0  0  0  0  0  0
   42.8119   25.4587   30.5099 H   0  0  0  0  0  0  0  0  0  0  0  0
   41.2454   26.1440   29.8218 H   0  0  0  0  0  0  0  0  0  0  0  0
   42.2005   27.8920   28.9498 H   0  0  0  0  0  0  0  0  0  0  0  0
   43.6256   26.7011   28.9404 H   0  0  0  0  0  0  0  0  0  0  0  0
   44.6705   27.7668   30.6760 H   0  0  0  0  0  0  0  0  0  0  0  0
   44.1490   29.0566   29.5272 H   0  0  0  0  0  0  0  0  0  0  0  0
   43.7047   29.6925   31.8617 H   0  0  0  0  0  0  0  0  0  0  0  0
   42.1895   29.5236   30.9321 H   0  0  0  0  0  0  0  0  0  0  0  0
   41.8896   28.4327   32.9846 H   0  0  0  0  0  0  0  0  0  0  0  0
   42.9930   25.3786   33.5397 H   0  0  0  0  0  0  0  0  0  0  0  0
   45.3924   25.0108   34.7733 H   0  0  0  0  0  0  0  0  0  0  0  0
   46.6887   27.3761   34.3839 H   0  0  0  0  0  0  0  0  0  0  0  0
   40.0408   25.9933   34.2449 H   0  0  0  0  0  0  0  0  0  0  0  0
   37.2203   23.9829   30.8005 H   0  0  0  0  0  0  0  0  0  0  0  0
   37.3019   25.6280   35.7228 H   0  0  0  0  0  0  0  0  0  0  0  0
   40.0261   22.4161   34.7810 H   0  0  0  0  0  0  0  0  0  0  0  0
   38.2506   23.2358   39.8072 H   0  0  0  0  0  0  0  0  0  0  0  0
   39.3674   21.9838   39.2005 H   0  0  0  0  0  0  0  0  0  0  0  0
  1 15  1  0
  2  1  1  0
  2  7  1  0
  3  2  1  0
  4  5  1  0
  4  3  1  0
  5  6  1  0
  6  7  1  0
  7  8  1  0
  8 12  1  0
  8  9  2  0
  9 10  1  0
 11 10  2  0
 12 11  1  0
 13 22  1  0
 14 13  1  0
 15 14  2  0
 16 18  1  0
 16 15  1  0
 17 16  2  0
 18 19  1  0
 19 20  2  0
 19 13  1  0
 21 26  2  0
 22 23  2  0
 22 21  1  0
 23 24  1  0
 24 25  2  0
 25 27  1  0
 26 25  1  0
  1 28  1  0
  1 29  1  0
  2 30  1  1
  3 31  1  0
  3 32  1  0
  4 33  1  0
  4 34  1  0
  5 35  1  0
  5 36  1  0
  6 37  1  0
  6 38  1  0
  7 39  1  1
  9 40  1  0
 10 41  1  0
 11 42  1  0
 14 43  1  0
 18 44  1  0
 21 45  1  0
 23 46  1  0
 27 47  1  0
 27 48  1  0
M  ISO  8  28   8  29   8  30  13  31  13  32  13  33  13  34  13  35  13
M  ISO  8  36  13  37  13  38  13  39  13  40  14  41  14  42  14  43  14
M  ISO  3  44   9  45  14  46  14
M  END
>  <minimizedAffinity>  (1) 
-4.66986704

>  <minimizedRMSD>  (1) 
1.98231053

$$$$
