
     RDKit          3D

 33 37  0  0  0  0  0  0  0  0999 V2000
   38.3360   26.0380   33.0500 C   0  0  0  0  0  0  0  0  0  0  0  0
   38.2880   25.5470   34.3730 C   0  0  0  0  0  0  0  0  0  0  0  0
   37.4290   26.1810   35.2810 C   0  0  0  0  0  0  0  0  0  0  0  0
   36.6840   27.2360   34.8490 N   0  0  0  0  0  0  0  0  0  0  0  0
   36.7620   27.6770   33.5560 C   0  0  0  0  0  0  0  0  0  0  0  0
   37.5780   27.0660   32.7180 N   0  0  0  0  0  0  0  0  0  0  0  0
   35.9840   28.7760   33.1110 N   0  0  0  0  0  0  0  0  0  0  0  0
   35.3930   28.9830   31.9000 C   0  0  0  0  0  0  0  0  0  0  0  0
   34.7630   30.1650   31.9440 N   0  0  0  0  0  0  0  0  0  0  0  0
   34.9270   30.7470   33.1640 C   0  0  0  0  0  0  0  0  0  0  0  0
   34.4910   31.9390   33.7100 C   0  0  0  0  0  0  0  0  0  0  0  0
   34.8500   32.1920   34.9670 N   0  0  0  0  0  0  0  0  0  0  0  0
   35.5910   31.3310   35.6480 C   0  0  0  0  0  0  0  0  0  0  0  0
   36.0400   30.1540   35.1530 N   0  0  0  0  0  0  0  0  0  0  0  0
   35.7070   29.8340   33.8700 C   0  0  0  0  0  0  0  0  0  0  0  0
   39.0460   24.4330   34.9090 C   0  0  0  0  0  0  0  0  0  0  0  0
   39.5230   23.4880   34.0970 N   0  0  0  0  0  0  0  0  0  0  0  0
   40.1610   22.6000   34.7760 O   0  0  0  0  0  0  0  0  0  0  0  0
   40.1340   22.9100   36.0280 C   0  0  0  0  0  0  0  0  0  0  0  0
   39.4360   24.0680   36.1600 N   0  0  0  0  0  0  0  0  0  0  0  0
   40.8690   22.0080   37.3760 S   0  0  0  0  0  0  0  0  0  0  0  0
   42.4530   21.3310   36.8050 C   0  0  0  0  0  0  0  0  0  0  0  0
   42.8880   19.9210   36.8200 C   0  0  0  0  0  0  0  0  0  0  0  0
   44.5370   20.1380   36.0950 S   0  0  0  0  0  0  0  0  0  0  0  0
   44.3730   22.0300   35.8980 C   0  0  0  0  0  0  0  0  0  0  0  0
   43.1380   22.3690   36.3710 N   0  0  0  0  0  0  0  0  0  0  0  0
   38.9967   25.5697   32.3056 H   0  0  0  0  0  0  0  0  0  0  0  0
   37.3580   25.8333   36.3222 H   0  0  0  0  0  0  0  0  0  0  0  0
   35.4272   28.3000   31.0384 H   0  0  0  0  0  0  0  0  0  0  0  0
   33.8762   32.6458   33.1333 H   0  0  0  0  0  0  0  0  0  0  0  0
   35.8589   31.5892   36.6831 H   0  0  0  0  0  0  0  0  0  0  0  0
   42.3701   19.0142   37.1656 H   0  0  0  0  0  0  0  0  0  0  0  0
   45.1277   22.7146   35.4835 H   0  0  0  0  0  0  0  0  0  0  0  0
  1  2  2  0
  2 16  1  0
  2  3  1  0
  4  3  2  0
  5  4  1  0
  6  1  1  0
  6  5  2  0
  7  5  1  0
  7 15  1  0
  8  9  2  0
  8  7  1  0
  9 10  1  0
 10 11  1  0
 10 15  2  0
 11 12  2  0
 12 13  1  0
 14 13  2  0
 15 14  1  0
 16 20  1  0
 17 18  1  0
 17 16  2  0
 18 19  1  0
 19 20  2  0
 19 21  1  0
 22 23  2  0
 22 21  1  0
 24 23  1  0
 25 24  1  0
 25 26  2  0
 26 22  1  0
  1 27  1  0
  3 28  1  0
  8 29  1  0
 11 30  1  0
 13 31  1  0
 23 32  1  0
 25 33  1  0
M  ISO  7  27  14  28  14  29  14  30  14  31  14  32  14  33  14
M  END
>  <minimizedAffinity>  (1) 
-5.01109552

>  <minimizedRMSD>  (1) 
1.46937299

$$$$
