
     RDKit          3D

 33 36  0  0  0  0  0  0  0  0999 V2000
   37.9490   26.7240   33.0000 C   0  0  0  0  0  0  0  0  0  0  0  0
   38.4090   26.3880   34.2750 C   0  0  0  0  0  0  0  0  0  0  0  0
   37.8410   27.0490   35.3720 C   0  0  0  0  0  0  0  0  0  0  0  0
   36.8750   27.9850   35.1570 N   0  0  0  0  0  0  0  0  0  0  0  0
   36.4520   28.2860   33.8960 C   0  0  0  0  0  0  0  0  0  0  0  0
   37.0050   27.6460   32.8820 N   0  0  0  0  0  0  0  0  0  0  0  0
   35.4550   29.2490   33.6620 N   0  0  0  0  0  0  0  0  0  0  0  0
   34.4840   29.2820   32.7050 C   0  0  0  0  0  0  0  0  0  0  0  0
   33.7680   30.4020   32.8800 N   0  0  0  0  0  0  0  0  0  0  0  0
   34.2370   31.1120   33.9260 C   0  0  0  0  0  0  0  0  0  0  0  0
   33.8640   32.3090   34.5100 C   0  0  0  0  0  0  0  0  0  0  0  0
   34.5820   32.7140   35.5600 N   0  0  0  0  0  0  0  0  0  0  0  0
   35.6050   32.0010   36.0230 C   0  0  0  0  0  0  0  0  0  0  0  0
   35.9940   30.8230   35.4710 N   0  0  0  0  0  0  0  0  0  0  0  0
   35.3090   30.3500   34.3990 C   0  0  0  0  0  0  0  0  0  0  0  0
   39.4250   25.4160   34.6060 C   0  0  0  0  0  0  0  0  0  0  0  0
   40.6750   25.8160   34.8550 N   0  0  0  0  0  0  0  0  0  0  0  0
   41.4320   24.8020   35.1320 O   0  0  0  0  0  0  0  0  0  0  0  0
   40.7140   23.7100   35.0770 C   0  0  0  0  0  0  0  0  0  0  0  0
   39.4460   24.0710   34.7470 N   0  0  0  0  0  0  0  0  0  0  0  0
   41.3070   22.0750   35.3790 S   0  0  0  0  0  0  0  0  0  0  0  0
   41.2750   21.7270   37.1700 C   0  0  0  0  0  0  0  0  0  0  0  0
   40.2330   22.6510   37.8040 C   0  0  0  0  0  0  0  0  0  0  0  0
   38.3637   26.2312   32.1083 H   0  0  0  0  0  0  0  0  0  0  0  0
   38.1712   26.8149   36.3948 H   0  0  0  0  0  0  0  0  0  0  0  0
   34.3175   28.5231   31.9263 H   0  0  0  0  0  0  0  0  0  0  0  0
   33.0173   32.8983   34.1280 H   0  0  0  0  0  0  0  0  0  0  0  0
   36.1608   32.3828   36.8921 H   0  0  0  0  0  0  0  0  0  0  0  0
   40.9988   20.6763   37.3428 H   0  0  0  0  0  0  0  0  0  0  0  0
   42.2661   21.9010   37.6144 H   0  0  0  0  0  0  0  0  0  0  0  0
   40.3048   22.5873   38.8998 H   0  0  0  0  0  0  0  0  0  0  0  0
   40.4185   23.6869   37.4840 H   0  0  0  0  0  0  0  0  0  0  0  0
   39.2267   22.3430   37.4840 H   0  0  0  0  0  0  0  0  0  0  0  0
  1  2  2  0
  2 16  1  0
  2  3  1  0
  4  3  2  0
  5  4  1  0
  6  1  1  0
  6  5  2  0
  7  5  1  0
  7 15  1  0
  8  9  2  0
  8  7  1  0
  9 10  1  0
 10 15  2  0
 10 11  1  0
 11 12  2  0
 12 13  1  0
 14 13  2  0
 15 14  1  0
 16 20  1  0
 16 17  2  0
 17 18  1  0
 19 18  1  0
 19 21  1  0
 20 19  2  0
 21 22  1  0
 22 23  1  0
  1 24  1  0
  3 25  1  0
  8 26  1  0
 11 27  1  0
 13 28  1  0
 22 29  1  0
 22 30  1  0
 23 31  1  0
 23 32  1  0
 23 33  1  0
M  ISO  8  24  14  25  14  26  14  27  14  28  14  29   8  30   8  31   8
M  ISO  2  32   8  33   8
M  END
>  <minimizedAffinity>  (1) 
-4.86000824

>  <minimizedRMSD>  (1) 
1.97131431

$$$$
