
     RDKit          3D

 36 39  0  0  0  0  0  0  0  0999 V2000
   39.5740   26.6360   33.1410 C   0  0  0  0  0  0  0  0  0  0  0  0
   39.1810   25.8030   34.1950 C   0  0  0  0  0  0  0  0  0  0  0  0
   37.8390   25.8810   34.6230 C   0  0  0  0  0  0  0  0  0  0  0  0
   36.9960   26.7480   34.0050 N   0  0  0  0  0  0  0  0  0  0  0  0
   37.4290   27.5410   32.9790 C   0  0  0  0  0  0  0  0  0  0  0  0
   38.6870   27.4510   32.5970 N   0  0  0  0  0  0  0  0  0  0  0  0
   36.5670   28.4480   32.3240 N   0  0  0  0  0  0  0  0  0  0  0  0
   36.5250   28.8220   31.0200 C   0  0  0  0  0  0  0  0  0  0  0  0
   35.5260   29.7150   30.8800 N   0  0  0  0  0  0  0  0  0  0  0  0
   34.9120   29.9320   32.0720 C   0  0  0  0  0  0  0  0  0  0  0  0
   33.8560   30.7430   32.4420 C   0  0  0  0  0  0  0  0  0  0  0  0
   33.5090   30.7050   33.7440 N   0  0  0  0  0  0  0  0  0  0  0  0
   34.1570   29.9280   34.5960 C   0  0  0  0  0  0  0  0  0  0  0  0
   35.1910   29.1270   34.2610 N   0  0  0  0  0  0  0  0  0  0  0  0
   35.5910   29.1170   32.9670 C   0  0  0  0  0  0  0  0  0  0  0  0
   39.9920   24.8450   34.9190 C   0  0  0  0  0  0  0  0  0  0  0  0
   41.3170   25.0380   35.0040 N   0  0  0  0  0  0  0  0  0  0  0  0
   41.8590   24.0760   35.6830 O   0  0  0  0  0  0  0  0  0  0  0  0
   40.9320   23.2410   36.0580 C   0  0  0  0  0  0  0  0  0  0  0  0
   39.7180   23.6960   35.5900 N   0  0  0  0  0  0  0  0  0  0  0  0
   41.2170   21.7880   37.0020 S   0  0  0  0  0  0  0  0  0  0  0  0
   42.8000   21.0700   36.4740 C   0  0  0  0  0  0  0  0  0  0  0  0
   42.9670   19.7630   37.2240 C   0  0  0  0  0  0  0  0  0  0  0  0
   42.6890   20.7570   35.0040 C   0  0  0  0  0  0  0  0  0  0  0  0
   40.6092   26.6126   32.7697 H   0  0  0  0  0  0  0  0  0  0  0  0
   37.4798   25.2473   35.4472 H   0  0  0  0  0  0  0  0  0  0  0  0
   37.1882   28.4606   30.2203 H   0  0  0  0  0  0  0  0  0  0  0  0
   33.3299   31.3816   31.7171 H   0  0  0  0  0  0  0  0  0  0  0  0
   33.8320   29.9349   35.6469 H   0  0  0  0  0  0  0  0  0  0  0  0
   43.6425   21.7507   36.6658 H   0  0  0  0  0  0  0  0  0  0  0  0
   42.9424   19.9558   38.3067 H   0  0  0  0  0  0  0  0  0  0  0  0
   42.1490   19.0786   36.9547 H   0  0  0  0  0  0  0  0  0  0  0  0
   43.9308   19.3063   36.9547 H   0  0  0  0  0  0  0  0  0  0  0  0
   42.3239   19.7274   34.8749 H   0  0  0  0  0  0  0  0  0  0  0  0
   41.9846   21.4577   34.5321 H   0  0  0  0  0  0  0  0  0  0  0  0
   43.6775   20.8574   34.5321 H   0  0  0  0  0  0  0  0  0  0  0  0
  1  2  2  0
  2  3  1  0
  2 16  1  0
  4  3  2  0
  5  4  1  0
  6  5  2  0
  6  1  1  0
  7 15  1  0
  7  5  1  0
  8  7  1  0
  9  8  2  0
  9 10  1  0
 10 11  2  0
 10 15  1  0
 11 12  1  0
 12 13  2  0
 14 13  1  0
 15 14  2  0
 16 17  2  0
 16 20  1  0
 17 18  1  0
 18 19  1  0
 19 21  1  0
 20 19  2  0
 22 21  1  0
 22 23  1  0
 24 22  1  0
  1 25  1  0
  3 26  1  0
  8 27  1  0
 11 28  1  0
 13 29  1  0
 22 30  1  0
 23 31  1  0
 23 32  1  0
 23 33  1  0
 24 34  1  0
 24 35  1  0
 24 36  1  0
M  ISO  8  25  14  26  14  27  14  28  14  29  14  30   8  31   8  32   8
M  ISO  4  33   8  34   8  35   8  36   8
M  END
>  <minimizedAffinity>  (1) 
-4.72080421

>  <minimizedRMSD>  (1) 
0.825751126

$$$$
