
     RDKit          3D

 30 33  0  0  0  0  0  0  0  0999 V2000
   39.6120   26.5830   33.1850 C   0  0  0  0  0  0  0  0  0  0  0  0
   39.1400   25.7520   34.2240 C   0  0  0  0  0  0  0  0  0  0  0  0
   37.7850   25.8560   34.5940 C   0  0  0  0  0  0  0  0  0  0  0  0
   37.0100   26.7550   33.9240 N   0  0  0  0  0  0  0  0  0  0  0  0
   37.5030   27.5370   32.9280 C   0  0  0  0  0  0  0  0  0  0  0  0
   38.7740   27.4220   32.6010 N   0  0  0  0  0  0  0  0  0  0  0  0
   36.6790   28.4660   32.2440 N   0  0  0  0  0  0  0  0  0  0  0  0
   36.7030   28.8450   30.9370 C   0  0  0  0  0  0  0  0  0  0  0  0
   35.7270   29.7520   30.7540 N   0  0  0  0  0  0  0  0  0  0  0  0
   35.0710   29.9740   31.9070 C   0  0  0  0  0  0  0  0  0  0  0  0
   34.0060   30.7990   32.2480 C   0  0  0  0  0  0  0  0  0  0  0  0
   33.6040   30.7620   33.5220 N   0  0  0  0  0  0  0  0  0  0  0  0
   34.1970   29.9730   34.4100 C   0  0  0  0  0  0  0  0  0  0  0  0
   35.2320   29.1560   34.1230 N   0  0  0  0  0  0  0  0  0  0  0  0
   35.6900   29.1510   32.8310 C   0  0  0  0  0  0  0  0  0  0  0  0
   39.9040   24.7790   34.9730 C   0  0  0  0  0  0  0  0  0  0  0  0
   41.2330   24.7110   34.8130 N   0  0  0  0  0  0  0  0  0  0  0  0
   41.7260   23.7790   35.5670 O   0  0  0  0  0  0  0  0  0  0  0  0
   40.7510   23.2140   36.2350 C   0  0  0  0  0  0  0  0  0  0  0  0
   39.5730   23.8240   35.8840 N   0  0  0  0  0  0  0  0  0  0  0  0
   40.9510   21.8940   37.3830 S   0  0  0  0  0  0  0  0  0  0  0  0
   42.5200   21.0610   36.9220 C   0  0  0  0  0  0  0  0  0  0  0  0
   40.6634   26.5330   32.8656 H   0  0  0  0  0  0  0  0  0  0  0  0
   37.3660   25.2322   35.3973 H   0  0  0  0  0  0  0  0  0  0  0  0
   37.3969   28.4754   30.1676 H   0  0  0  0  0  0  0  0  0  0  0  0
   33.5186   31.4495   31.5069 H   0  0  0  0  0  0  0  0  0  0  0  0
   33.8213   29.9861   35.4438 H   0  0  0  0  0  0  0  0  0  0  0  0
   43.0636   20.7724   37.8337 H   0  0  0  0  0  0  0  0  0  0  0  0
   42.2973   20.1624   36.3280 H   0  0  0  0  0  0  0  0  0  0  0  0
   43.1396   21.7489   36.3280 H   0  0  0  0  0  0  0  0  0  0  0  0
  1  2  2  0
  2  3  1  0
  2 16  1  0
  4  3  2  0
  5  4  1  0
  6  5  2  0
  6  1  1  0
  7 15  1  0
  7  5  1  0
  8  7  1  0
  9  8  2  0
  9 10  1  0
 10 11  2  0
 10 15  1  0
 11 12  1  0
 12 13  2  0
 14 13  1  0
 15 14  2  0
 16 20  1  0
 17 16  2  0
 17 18  1  0
 18 19  1  0
 19 21  1  0
 20 19  2  0
 22 21  1  0
  1 23  1  0
  3 24  1  0
  8 25  1  0
 11 26  1  0
 13 27  1  0
 22 28  1  0
 22 29  1  0
 22 30  1  0
M  ISO  8  23  14  24  14  25  14  26  14  27  14  28   8  29   8  30   8
M  END
>  <minimizedAffinity>  (1) 
-4.7131381

>  <minimizedRMSD>  (1) 
0.394435316

$$$$
