
     RDKit          3D

 34 38  0  0  0  0  0  0  0  0999 V2000
   39.3140   26.5680   32.1440 C   0  0  0  0  0  0  0  0  0  0  0  0
   38.4820   26.0430   33.1580 C   0  0  0  0  0  0  0  0  0  0  0  0
   37.2200   26.6320   33.3420 C   0  0  0  0  0  0  0  0  0  0  0  0
   36.8610   27.6710   32.5440 N   0  0  0  0  0  0  0  0  0  0  0  0
   37.6980   28.1470   31.5740 C   0  0  0  0  0  0  0  0  0  0  0  0
   38.8810   27.5810   31.4160 N   0  0  0  0  0  0  0  0  0  0  0  0
   37.3220   29.2290   30.7420 N   0  0  0  0  0  0  0  0  0  0  0  0
   37.6110   29.4600   29.4370 C   0  0  0  0  0  0  0  0  0  0  0  0
   37.0320   30.6190   29.0790 N   0  0  0  0  0  0  0  0  0  0  0  0
   36.3690   31.1530   30.1280 C   0  0  0  0  0  0  0  0  0  0  0  0
   35.6200   32.3140   30.2880 C   0  0  0  0  0  0  0  0  0  0  0  0
   35.0960   32.5270   31.4990 N   0  0  0  0  0  0  0  0  0  0  0  0
   35.2850   31.6750   32.4820 C   0  0  0  0  0  0  0  0  0  0  0  0
   36.0050   30.5340   32.3790 N   0  0  0  0  0  0  0  0  0  0  0  0
   36.5740   30.2460   31.1660 C   0  0  0  0  0  0  0  0  0  0  0  0
   38.7900   24.9440   34.0390 C   0  0  0  0  0  0  0  0  0  0  0  0
   38.5840   23.6830   33.6500 N   0  0  0  0  0  0  0  0  0  0  0  0
   38.9200   22.8650   34.5850 O   0  0  0  0  0  0  0  0  0  0  0  0
   39.3570   23.5390   35.6180 C   0  0  0  0  0  0  0  0  0  0  0  0
   39.2880   24.8680   35.3040 N   0  0  0  0  0  0  0  0  0  0  0  0
   39.9240   22.8380   37.1260 S   0  0  0  0  0  0  0  0  0  0  0  0
   38.8940   23.2350   38.5460 C   0  0  0  0  0  0  0  0  0  0  0  0
   37.4190   23.0850   38.5110 C   0  0  0  0  0  0  0  0  0  0  0  0
   38.0960   24.4570   38.6510 C   0  0  0  0  0  0  0  0  0  0  0  0
   40.3103   26.1382   31.9632 H   0  0  0  0  0  0  0  0  0  0  0  0
   36.5353   26.2588   34.1178 H   0  0  0  0  0  0  0  0  0  0  0  0
   38.2144   28.8114   28.7849 H   0  0  0  0  0  0  0  0  0  0  0  0
   35.4666   33.0213   29.4596 H   0  0  0  0  0  0  0  0  0  0  0  0
   34.8264   31.9054   33.4550 H   0  0  0  0  0  0  0  0  0  0  0  0
   39.6986   22.8081   39.1627 H   0  0  0  0  0  0  0  0  0  0  0  0
   36.9106   22.8092   37.5753 H   0  0  0  0  0  0  0  0  0  0  0  0
   36.6698   22.5126   39.0776 H   0  0  0  0  0  0  0  0  0  0  0  0
   38.0452   25.0031   39.6045 H   0  0  0  0  0  0  0  0  0  0  0  0
   38.0507   25.4112   38.1056 H   0  0  0  0  0  0  0  0  0  0  0  0
  1  2  2  0
  2  3  1  0
  2 16  1  0
  4  3  2  0
  5  4  1  0
  6  5  2  0
  6  1  1  0
  7 15  1  0
  7  5  1  0
  8  7  1  0
  9  8  2  0
  9 10  1  0
 10 11  2  0
 10 15  1  0
 11 12  1  0
 12 13  2  0
 14 13  1  0
 15 14  2  0
 16 20  1  0
 17 16  2  0
 17 18  1  0
 18 19  1  0
 19 21  1  0
 20 19  2  0
 21 22  1  0
 22 24  1  0
 23 22  1  0
 23 24  1  0
  1 25  1  0
  3 26  1  0
  8 27  1  0
 11 28  1  0
 13 29  1  0
 22 30  1  0
 23 31  1  0
 23 32  1  0
 24 33  1  0
 24 34  1  0
M  ISO  8  25  14  26  14  27  14  28  14  29  14  30  13  31  13  32  13
M  ISO  2  33  13  34  13
M  END
>  <minimizedAffinity>  (1) 
-4.68048

>  <minimizedRMSD>  (1) 
2.33560872

$$$$
