
     RDKit          3D

 52 56  0  0  1  0  0  0  0  0999 V2000
   40.9220   25.8330   31.2050 C   0  0  1  0  0  0  0  0  0  0  0  0
   41.4230   25.4140   29.8600 C   0  0  0  0  0  0  0  0  0  0  0  0
   41.9770   26.5010   29.0150 C   0  0  0  0  0  0  0  0  0  0  0  0
   42.6760   27.6090   29.7340 C   0  0  0  0  0  0  0  0  0  0  0  0
   41.8440   28.1380   30.8480 C   0  0  0  0  0  0  0  0  0  0  0  0
   41.5560   27.0260   31.8110 C   0  0  2  0  0  0  0  0  0  0  0  0
   42.7230   26.6830   32.6270 N   0  0  0  0  0  0  0  0  0  0  0  0
   43.8020   27.4770   32.8170 C   0  0  0  0  0  0  0  0  0  0  0  0
   44.7010   26.8500   33.6310 N   0  0  0  0  0  0  0  0  0  0  0  0
   44.1970   25.6510   33.9630 C   0  0  0  0  0  0  0  0  0  0  0  0
   44.6630   24.6330   34.7380 C   0  0  0  0  0  0  0  0  0  0  0  0
   43.8770   23.5380   34.8630 N   0  0  0  0  0  0  0  0  0  0  0  0
   42.6760   23.4470   34.2490 C   0  0  0  0  0  0  0  0  0  0  0  0
   42.1740   24.4450   33.4640 N   0  0  0  0  0  0  0  0  0  0  0  0
   42.9720   25.5470   33.3430 C   0  0  0  0  0  0  0  0  0  0  0  0
   39.3950   25.9320   31.2210 C   0  0  0  0  0  0  0  0  0  0  0  0
   38.2870   23.6400   33.9650 N   0  0  0  0  0  0  0  0  0  0  0  0
   38.8950   24.6860   33.3820 C   0  0  0  0  0  0  0  0  0  0  0  0
   38.7800   24.8320   32.0010 C   0  0  0  0  0  0  0  0  0  0  0  0
   38.0420   23.8880   31.2820 C   0  0  0  0  0  0  0  0  0  0  0  0
   37.8740   23.9220   30.0360 O   0  0  0  0  0  0  0  0  0  0  0  0
   37.4460   22.8500   31.9160 N   0  0  0  0  0  0  0  0  0  0  0  0
   37.5820   22.7460   33.2460 C   0  0  0  0  0  0  0  0  0  0  0  0
   37.0340   21.7910   33.8310 O   0  0  0  0  0  0  0  0  0  0  0  0
   37.6850   24.4150   36.1750 C   0  0  0  0  0  0  0  0  0  0  0  0
   38.4630   23.5830   35.3610 C   0  0  0  0  0  0  0  0  0  0  0  0
   39.3740   22.7370   35.9910 C   0  0  0  0  0  0  0  0  0  0  0  0
   39.4520   22.7740   37.3610 N   0  0  0  0  0  0  0  0  0  0  0  0
   38.6980   23.5770   38.1060 C   0  0  0  0  0  0  0  0  0  0  0  0
   37.8140   24.3980   37.5010 N   0  0  0  0  0  0  0  0  0  0  0  0
   38.9720   23.4220   39.4900 N   0  0  0  0  0  0  0  0  0  0  0  0
   41.2462   25.0174   31.8681 H   0  0  0  0  0  0  0  0  0  0  0  0
   42.2153   24.6662   30.0118 H   0  0  0  0  0  0  0  0  0  0  0  0
   40.5461   25.0292   29.3187 H   0  0  0  0  0  0  0  0  0  0  0  0
   41.1439   26.9425   28.4485 H   0  0  0  0  0  0  0  0  0  0  0  0
   42.7480   26.0238   28.3923 H   0  0  0  0  0  0  0  0  0  0  0  0
   43.6237   27.2292   30.1433 H   0  0  0  0  0  0  0  0  0  0  0  0
   42.8607   28.4251   29.0199 H   0  0  0  0  0  0  0  0  0  0  0  0
   42.3878   28.9423   31.3650 H   0  0  0  0  0  0  0  0  0  0  0  0
   40.9004   28.5391   30.4497 H   0  0  0  0  0  0  0  0  0  0  0  0
   40.7897   27.4333   32.4870 H   0  0  0  0  0  0  0  0  0  0  0  0
   43.9350   28.4780   32.3808 H   0  0  0  0  0  0  0  0  0  0  0  0
   45.6386   24.6978   35.2420 H   0  0  0  0  0  0  0  0  0  0  0  0
   42.0798   22.5330   34.3873 H   0  0  0  0  0  0  0  0  0  0  0  0
   39.1052   26.8929   31.6712 H   0  0  0  0  0  0  0  0  0  0  0  0
   39.0368   25.8572   30.1837 H   0  0  0  0  0  0  0  0  0  0  0  0
   39.4693   25.4092   33.9796 H   0  0  0  0  0  0  0  0  0  0  0  0
   36.8996   22.1550   31.3875 H   0  0  0  0  0  0  0  0  0  0  0  0
   36.9545   25.0946   35.7118 H   0  0  0  0  0  0  0  0  0  0  0  0
   40.0128   22.0585   35.4066 H   0  0  0  0  0  0  0  0  0  0  0  0
   38.4580   23.9847   40.1829 H   0  0  0  0  0  0  0  0  0  0  0  0
   39.6848   22.7468   39.8014 H   0  0  0  0  0  0  0  0  0  0  0  0
  1 16  1  0
  1  6  1  0
  2  1  1  0
  3  4  1  0
  3  2  1  0
  4  5  1  0
  5  6  1  0
  6  7  1  0
  7  8  1  0
  7 15  1  0
  8  9  2  0
  9 10  1  0
 10 11  2  0
 11 12  1  0
 13 12  2  0
 14 13  1  0
 15 14  2  0
 15 10  1  0
 16 19  1  0
 17 26  1  0
 18 17  1  0
 19 18  2  0
 20 22  1  0
 20 19  1  0
 21 20  2  0
 22 23  1  0
 23 24  2  0
 23 17  1  0
 25 30  2  0
 26 27  2  0
 26 25  1  0
 27 28  1  0
 28 29  2  0
 29 31  1  0
 30 29  1  0
  1 32  1  1
  2 33  1  0
  2 34  1  0
  3 35  1  0
  3 36  1  0
  4 37  1  0
  4 38  1  0
  5 39  1  0
  5 40  1  0
  6 41  1  1
  8 42  1  0
 11 43  1  0
 13 44  1  0
 16 45  1  0
 16 46  1  0
 18 47  1  0
 22 48  1  0
 25 49  1  0
 27 50  1  0
 31 51  1  0
 31 52  1  0
M  ISO  8  32  13  33  13  34  13  35  13  36  13  37  13  38  13  39  13
M  ISO  8  40  13  41  13  42  14  43  14  44  14  45   8  46   8  47  14
M  ISO  3  48   9  49  14  50  14
M  END
>  <minimizedAffinity>  (1) 
-4.60362911

>  <minimizedRMSD>  (1) 
2.82807469

$$$$
