
     RDKit          3D

 36 39  0  0  0  0  0  0  0  0999 V2000
   37.8240   22.6940   34.8010 C   0  0  0  0  0  0  0  0  0  0  0  0
   37.2530   21.4670   34.4480 C   0  0  0  0  0  0  0  0  0  0  0  0
   36.8370   21.1440   33.1750 C   0  0  0  0  0  0  0  0  0  0  0  0
   36.9950   22.0890   32.1990 C   0  0  0  0  0  0  0  0  0  0  0  0
   37.5440   23.2920   32.5060 C   0  0  0  0  0  0  0  0  0  0  0  0
   37.9520   23.5860   33.7930 C   0  0  0  0  0  0  0  0  0  0  0  0
   38.5390   24.8830   34.1010 C   0  0  0  0  0  0  0  0  0  0  0  0
   37.8200   25.9770   34.5260 C   0  0  0  0  0  0  0  0  0  0  0  0
   38.3670   27.2080   34.8240 C   0  0  0  0  0  0  0  0  0  0  0  0
   39.7290   27.3830   34.6940 C   0  0  0  0  0  0  0  0  0  0  0  0
   40.4650   26.3160   34.2750 C   0  0  0  0  0  0  0  0  0  0  0  0
   41.8430   26.4380   34.1270 C   0  0  0  0  0  0  0  0  0  0  0  0
   42.6610   25.3890   33.7020 C   0  0  0  0  0  0  0  0  0  0  0  0
   42.0600   24.1640   33.4150 C   0  0  0  0  0  0  0  0  0  0  0  0
   40.6760   24.0210   33.5560 C   0  0  0  0  0  0  0  0  0  0  0  0
   39.9150   25.0900   33.9800 C   0  0  0  0  0  0  0  0  0  0  0  0
   37.3790   23.4220   37.1890 C   0  0  0  0  0  0  0  0  0  0  0  0
   38.2080   22.8840   36.1820 C   0  0  0  0  0  0  0  0  0  0  0  0
   39.5010   22.5090   36.5690 C   0  0  0  0  0  0  0  0  0  0  0  0
   39.8970   22.6750   37.8750 N   0  0  0  0  0  0  0  0  0  0  0  0
   39.0560   23.1950   38.7890 C   0  0  0  0  0  0  0  0  0  0  0  0
   37.7940   23.5700   38.4490 N   0  0  0  0  0  0  0  0  0  0  0  0
   37.1281   20.7113   35.2375 H   0  0  0  0  0  0  0  0  0  0  0  0
   36.3941   20.1622   32.9517 H   0  0  0  0  0  0  0  0  0  0  0  0
   36.6780   21.8748   31.1677 H   0  0  0  0  0  0  0  0  0  0  0  0
   37.6664   24.0469   31.7154 H   0  0  0  0  0  0  0  0  0  0  0  0
   36.7316   25.8616   34.6359 H   0  0  0  0  0  0  0  0  0  0  0  0
   37.7269   28.0371   35.1601 H   0  0  0  0  0  0  0  0  0  0  0  0
   40.2037   28.3491   34.9205 H   0  0  0  0  0  0  0  0  0  0  0  0
   42.3105   27.4071   34.3557 H   0  0  0  0  0  0  0  0  0  0  0  0
   43.7475   25.5251   33.5967 H   0  0  0  0  0  0  0  0  0  0  0  0
   42.6718   23.3138   33.0791 H   0  0  0  0  0  0  0  0  0  0  0  0
   40.1955   23.0579   33.3292 H   0  0  0  0  0  0  0  0  0  0  0  0
   36.3560   23.7299   36.9269 H   0  0  0  0  0  0  0  0  0  0  0  0
   40.1967   22.0834   35.8309 H   0  0  0  0  0  0  0  0  0  0  0  0
   39.3955   23.3185   39.8280 H   0  0  0  0  0  0  0  0  0  0  0  0
  1 18  1  0
  2  1  2  0
  3  2  1  0
  4  5  1  0
  4  3  2  0
  5  6  2  0
  6  7  1  0
  6  1  1  0
  7  8  2  0
  8  9  1  0
 10  9  2  0
 11 10  1  0
 12 11  2  0
 13 12  1  0
 14 15  1  0
 14 13  2  0
 15 16  2  0
 16  7  1  0
 16 11  1  0
 17 22  2  0
 18 19  2  0
 18 17  1  0
 19 20  1  0
 20 21  2  0
 22 21  1  0
  2 23  1  0
  3 24  1  0
  4 25  1  0
  5 26  1  0
  8 27  1  0
  9 28  1  0
 10 29  1  0
 12 30  1  0
 13 31  1  0
 14 32  1  0
 15 33  1  0
 17 34  1  0
 19 35  1  0
 21 36  1  0
M  ISO  8  23  14  24  14  25  14  26  14  27  14  28  14  29  14  30  14
M  ISO  6  31  14  32  14  33  14  34  14  35  14  36  14
M  END
>  <minimizedAffinity>  (1) 
-5.08293295

>  <minimizedRMSD>  (1) 
2.19634628

$$$$
