
     RDKit          3D

 35 37  0  0  0  0  0  0  0  0999 V2000
   37.5720   24.0210   33.2120 C   0  0  0  0  0  0  0  0  0  0  0  0
   37.0460   22.9510   32.4880 C   0  0  0  0  0  0  0  0  0  0  0  0
   36.1680   23.0780   31.4330 C   0  0  0  0  0  0  0  0  0  0  0  0
   35.7920   24.3670   31.0810 C   0  0  0  0  0  0  0  0  0  0  0  0
   36.2820   25.4350   31.7600 C   0  0  0  0  0  0  0  0  0  0  0  0
   37.1580   25.2370   32.8060 C   0  0  0  0  0  0  0  0  0  0  0  0
   38.1430   23.5920   35.6350 C   0  0  0  0  0  0  0  0  0  0  0  0
   38.4830   23.7170   34.2910 C   0  0  0  0  0  0  0  0  0  0  0  0
   39.8520   23.5270   33.9580 C   0  0  0  0  0  0  0  0  0  0  0  0
   40.7510   23.2380   34.9450 N   0  0  0  0  0  0  0  0  0  0  0  0
   40.3460   23.1300   36.2340 C   0  0  0  0  0  0  0  0  0  0  0  0
   39.0370   23.3080   36.5890 N   0  0  0  0  0  0  0  0  0  0  0  0
   37.6700   26.3830   33.5200 N   0  0  0  0  0  0  0  0  0  0  0  0
   37.2840   26.8770   34.8250 C   0  0  0  0  0  0  0  0  0  0  0  0
   38.4660   27.3800   35.6070 C   0  0  0  0  0  0  0  0  0  0  0  0
   39.6920   26.6630   35.1230 C   0  0  0  0  0  0  0  0  0  0  0  0
   39.9800   27.1770   33.7190 C   0  0  0  0  0  0  0  0  0  0  0  0
   38.7090   27.1770   32.8900 C   0  0  0  0  0  0  0  0  0  0  0  0
   37.3531   21.9356   32.7791 H   0  0  0  0  0  0  0  0  0  0  0  0
   35.7833   22.1989   30.8952 H   0  0  0  0  0  0  0  0  0  0  0  0
   35.0926   24.5238   30.2466 H   0  0  0  0  0  0  0  0  0  0  0  0
   35.9814   26.4546   31.4769 H   0  0  0  0  0  0  0  0  0  0  0  0
   37.0916   23.7331   35.9259 H   0  0  0  0  0  0  0  0  0  0  0  0
   40.1849   23.6121   32.9130 H   0  0  0  0  0  0  0  0  0  0  0  0
   41.0867   22.8939   37.0122 H   0  0  0  0  0  0  0  0  0  0  0  0
   36.5668   27.7009   34.6954 H   0  0  0  0  0  0  0  0  0  0  0  0
   36.8344   26.0440   35.3853 H   0  0  0  0  0  0  0  0  0  0  0  0
   38.5821   28.4625   35.4501 H   0  0  0  0  0  0  0  0  0  0  0  0
   38.3170   27.1928   36.6807 H   0  0  0  0  0  0  0  0  0  0  0  0
   40.5426   26.8782   35.7864 H   0  0  0  0  0  0  0  0  0  0  0  0
   39.5354   25.5742   35.1191 H   0  0  0  0  0  0  0  0  0  0  0  0
   40.3734   28.2024   33.7810 H   0  0  0  0  0  0  0  0  0  0  0  0
   40.7205   26.5190   33.2407 H   0  0  0  0  0  0  0  0  0  0  0  0
   38.9285   26.7575   31.8971 H   0  0  0  0  0  0  0  0  0  0  0  0
   38.3504   28.2133   32.8033 H   0  0  0  0  0  0  0  0  0  0  0  0
  1  8  1  0
  2  1  2  0
  3  2  1  0
  4  3  2  0
  4  5  1  0
  5  6  2  0
  6  1  1  0
  6 13  1  0
  7 12  2  0
  8  7  1  0
  9  8  2  0
  9 10  1  0
 10 11  2  0
 11 12  1  0
 13 14  1  0
 14 15  1  0
 16 15  1  0
 17 16  1  0
 18 13  1  0
 18 17  1  0
  2 19  1  0
  3 20  1  0
  4 21  1  0
  5 22  1  0
  7 23  1  0
  9 24  1  0
 11 25  1  0
 14 26  1  0
 14 27  1  0
 15 28  1  0
 15 29  1  0
 16 30  1  0
 16 31  1  0
 17 32  1  0
 17 33  1  0
 18 34  1  0
 18 35  1  0
M  ISO  8  19  14  20  14  21  14  22  14  23  14  24  14  25  14  26  13
M  ISO  8  27  13  28  13  29  13  30  13  31  13  32  13  33  13  34  13
M  ISO  1  35  13
M  END
>  <minimizedAffinity>  (1) 
-4.90765667

>  <minimizedRMSD>  (1) 
1.98730791

$$$$
