
     RDKit          3D

 33 35  0  0  0  0  0  0  0  0999 V2000
   37.1010   22.0700   33.5040 C   0  0  0  0  0  0  0  0  0  0  0  0
   36.4720   20.8850   33.8880 C   0  0  0  0  0  0  0  0  0  0  0  0
   35.3950   20.3340   33.2250 C   0  0  0  0  0  0  0  0  0  0  0  0
   34.9190   21.0060   32.1190 C   0  0  0  0  0  0  0  0  0  0  0  0
   35.5100   22.1710   31.7150 C   0  0  0  0  0  0  0  0  0  0  0  0
   36.5850   22.6780   32.4110 C   0  0  0  0  0  0  0  0  0  0  0  0
   37.1940   23.8900   31.9840 N   0  0  0  0  0  0  0  0  0  0  0  0
   36.8990   25.1000   32.4940 C   0  0  0  0  0  0  0  0  0  0  0  0
   37.4960   26.2700   32.0720 C   0  0  0  0  0  0  0  0  0  0  0  0
   37.1550   27.5960   32.6510 C   0  0  0  0  0  0  0  0  0  0  0  0
   38.4420   26.1680   31.0740 C   0  0  0  0  0  0  0  0  0  0  0  0
   39.0510   27.1710   30.6130 O   0  0  0  0  0  0  0  0  0  0  0  0
   38.7680   24.9800   30.5360 N   0  0  0  0  0  0  0  0  0  0  0  0
   38.1370   23.8880   31.0050 C   0  0  0  0  0  0  0  0  0  0  0  0
   38.4160   22.7380   30.5220 O   0  0  0  0  0  0  0  0  0  0  0  0
   38.1560   23.4070   35.3850 C   0  0  0  0  0  0  0  0  0  0  0  0
   38.2230   22.5230   34.3000 C   0  0  0  0  0  0  0  0  0  0  0  0
   39.5080   22.0370   33.9650 C   0  0  0  0  0  0  0  0  0  0  0  0
   40.6060   22.4330   34.6870 N   0  0  0  0  0  0  0  0  0  0  0  0
   40.4490   23.2930   35.7220 C   0  0  0  0  0  0  0  0  0  0  0  0
   39.2420   23.7780   36.0720 N   0  0  0  0  0  0  0  0  0  0  0  0
   36.8584   20.3583   34.7730 H   0  0  0  0  0  0  0  0  0  0  0  0
   34.9339   19.3951   33.5654 H   0  0  0  0  0  0  0  0  0  0  0  0
   34.0613   20.6037   31.5600 H   0  0  0  0  0  0  0  0  0  0  0  0
   35.1263   22.7042   30.8327 H   0  0  0  0  0  0  0  0  0  0  0  0
   36.1417   25.1593   33.2896 H   0  0  0  0  0  0  0  0  0  0  0  0
   37.1715   27.5319   33.7490 H   0  0  0  0  0  0  0  0  0  0  0  0
   37.8904   28.3424   32.3162 H   0  0  0  0  0  0  0  0  0  0  0  0
   36.1507   27.8950   32.3162 H   0  0  0  0  0  0  0  0  0  0  0  0
   39.4758   24.9082   29.7911 H   0  0  0  0  0  0  0  0  0  0  0  0
   37.1765   23.8098   35.6821 H   0  0  0  0  0  0  0  0  0  0  0  0
   39.6280   21.3393   33.1231 H   0  0  0  0  0  0  0  0  0  0  0  0
   41.3349   23.6050   36.2945 H   0  0  0  0  0  0  0  0  0  0  0  0
  1  2  2  0
  1 17  1  0
  3  2  1  0
  4  3  2  0
  5  4  1  0
  5  6  2  0
  6  1  1  0
  7  6  1  0
  7  8  1  0
  9  8  2  0
  9 10  1  0
 11  9  1  0
 12 11  2  0
 13 14  1  0
 13 11  1  0
 14  7  1  0
 15 14  2  0
 16 21  2  0
 17 16  1  0
 18 17  2  0
 18 19  1  0
 19 20  2  0
 20 21  1  0
  2 22  1  0
  3 23  1  0
  4 24  1  0
  5 25  1  0
  8 26  1  0
 10 27  1  0
 10 28  1  0
 10 29  1  0
 13 30  1  0
 16 31  1  0
 18 32  1  0
 20 33  1  0
M  ISO  8  22  14  23  14  24  14  25  14  26  14  27   8  28   8  29   8
M  ISO  4  30   9  31  14  32  14  33  14
M  END
>  <minimizedAffinity>  (1) 
-4.76473475

>  <minimizedRMSD>  (1) 
2.38989091

$$$$
