
     RDKit          3D

 34 36  0  0  0  0  0  0  0  0999 V2000
   37.8820   22.8790   34.6460 C   0  0  0  0  0  0  0  0  0  0  0  0
   37.5610   21.6140   34.1890 C   0  0  0  0  0  0  0  0  0  0  0  0
   37.1930   21.3410   32.8890 C   0  0  0  0  0  0  0  0  0  0  0  0
   37.1430   22.3790   32.0000 C   0  0  0  0  0  0  0  0  0  0  0  0
   37.4550   23.6570   32.4090 C   0  0  0  0  0  0  0  0  0  0  0  0
   37.8190   23.8830   33.7210 C   0  0  0  0  0  0  0  0  0  0  0  0
   37.3680   23.4090   37.0750 C   0  0  0  0  0  0  0  0  0  0  0  0
   38.2540   23.0210   36.0460 C   0  0  0  0  0  0  0  0  0  0  0  0
   39.5820   22.7570   36.4090 C   0  0  0  0  0  0  0  0  0  0  0  0
   39.9560   22.8840   37.7180 N   0  0  0  0  0  0  0  0  0  0  0  0
   39.0820   23.2550   38.6580 C   0  0  0  0  0  0  0  0  0  0  0  0
   37.7770   23.5210   38.3430 N   0  0  0  0  0  0  0  0  0  0  0  0
   38.1450   25.1960   34.1620 N   0  0  0  0  0  0  0  0  0  0  0  0
   37.4120   26.2480   34.8330 C   0  0  0  0  0  0  0  0  0  0  0  0
   38.2070   26.9240   35.9080 C   0  0  0  0  0  0  0  0  0  0  0  0
   39.5320   27.2900   35.5390 N   0  0  0  0  0  0  0  0  0  0  0  0
   39.9500   26.8750   34.2370 C   0  0  0  0  0  0  0  0  0  0  0  0
   39.5170   25.5060   33.8520 C   0  0  0  0  0  0  0  0  0  0  0  0
   37.6016   20.7784   34.9032 H   0  0  0  0  0  0  0  0  0  0  0  0
   36.9462   20.3160   32.5751 H   0  0  0  0  0  0  0  0  0  0  0  0
   36.8528   22.1929   30.9554 H   0  0  0  0  0  0  0  0  0  0  0  0
   37.4143   24.4922   31.6943 H   0  0  0  0  0  0  0  0  0  0  0  0
   36.3179   23.6239   36.8278 H   0  0  0  0  0  0  0  0  0  0  0  0
   40.3156   22.4508   35.6486 H   0  0  0  0  0  0  0  0  0  0  0  0
   39.4167   23.3481   39.7017 H   0  0  0  0  0  0  0  0  0  0  0  0
   37.1197   27.0018   34.0871 H   0  0  0  0  0  0  0  0  0  0  0  0
   36.5381   25.7840   35.3136 H   0  0  0  0  0  0  0  0  0  0  0  0
   37.6711   27.8377   36.2047 H   0  0  0  0  0  0  0  0  0  0  0  0
   38.3070   26.1910   36.7221 H   0  0  0  0  0  0  0  0  0  0  0  0
   39.5998   28.3169   35.5807 H   0  0  0  0  0  0  0  0  0  0  0  0
   39.5384   27.5835   33.5031 H   0  0  0  0  0  0  0  0  0  0  0  0
   41.0498   26.8594   34.2543 H   0  0  0  0  0  0  0  0  0  0  0  0
   40.1582   24.7837   34.3785 H   0  0  0  0  0  0  0  0  0  0  0  0
   39.6070   25.4496   32.7571 H   0  0  0  0  0  0  0  0  0  0  0  0
  1  8  1  0
  2  1  2  0
  3  2  1  0
  4  5  1  0
  4  3  2  0
  5  6  2  0
  6 13  1  0
  6  1  1  0
  7 12  2  0
  8  9  2  0
  8  7  1  0
  9 10  1  0
 10 11  2  0
 12 11  1  0
 13 14  1  0
 14 15  1  0
 16 15  1  0
 17 16  1  0
 18 13  1  0
 18 17  1  0
  2 19  1  0
  3 20  1  0
  4 21  1  0
  5 22  1  0
  7 23  1  0
  9 24  1  0
 11 25  1  0
 14 26  1  0
 14 27  1  0
 15 28  1  0
 15 29  1  0
 16 30  1  0
 17 31  1  0
 17 32  1  0
 18 33  1  0
 18 34  1  0
M  ISO  8  19  14  20  14  21  14  22  14  23  14  24  14  25  14  26  13
M  ISO  8  27  13  28  13  29  13  30   5  31  13  32  13  33  13  34  13
M  END
>  <minimizedAffinity>  (1) 
-4.65210485

>  <minimizedRMSD>  (1) 
1.4340049

$$$$
