
     RDKit          3D

 29 31  0  0  0  0  0  0  0  0999 V2000
   37.8040   22.6850   34.8260 C   0  0  0  0  0  0  0  0  0  0  0  0
   37.0560   21.5430   34.5820 C   0  0  0  0  0  0  0  0  0  0  0  0
   36.5790   21.1740   33.3530 C   0  0  0  0  0  0  0  0  0  0  0  0
   36.8660   22.0050   32.2850 C   0  0  0  0  0  0  0  0  0  0  0  0
   37.6020   23.1460   32.4780 C   0  0  0  0  0  0  0  0  0  0  0  0
   38.0570   23.4660   33.7410 C   0  0  0  0  0  0  0  0  0  0  0  0
   37.4720   23.6080   37.1700 C   0  0  0  0  0  0  0  0  0  0  0  0
   38.2380   22.9380   36.1930 C   0  0  0  0  0  0  0  0  0  0  0  0
   39.5120   22.4830   36.5700 C   0  0  0  0  0  0  0  0  0  0  0  0
   39.9560   22.7020   37.8440 N   0  0  0  0  0  0  0  0  0  0  0  0
   39.1740   23.3530   38.7410 C   0  0  0  0  0  0  0  0  0  0  0  0
   37.9320   23.8070   38.4090 N   0  0  0  0  0  0  0  0  0  0  0  0
   38.8420   24.6800   33.9580 C   0  0  0  0  0  0  0  0  0  0  0  0
   38.1550   25.8540   34.2760 C   0  0  0  0  0  0  0  0  0  0  0  0
   38.8430   27.0540   34.4970 C   0  0  0  0  0  0  0  0  0  0  0  0
   40.2210   27.0810   34.4010 C   0  0  0  0  0  0  0  0  0  0  0  0
   40.8680   25.8830   34.0810 C   0  0  0  0  0  0  0  0  0  0  0  0
   40.1850   24.7600   33.8760 N   0  0  0  0  0  0  0  0  0  0  0  0
   36.8301   20.8876   35.4360 H   0  0  0  0  0  0  0  0  0  0  0  0
   35.9912   20.2538   33.2201 H   0  0  0  0  0  0  0  0  0  0  0  0
   36.5030   21.7500   31.2784 H   0  0  0  0  0  0  0  0  0  0  0  0
   37.8294   23.8052   31.6273 H   0  0  0  0  0  0  0  0  0  0  0  0
   36.4699   23.9763   36.9051 H   0  0  0  0  0  0  0  0  0  0  0  0
   40.1481   21.9541   35.8450 H   0  0  0  0  0  0  0  0  0  0  0  0
   39.5510   23.5187   39.7610 H   0  0  0  0  0  0  0  0  0  0  0  0
   37.0579   25.8359   34.3540 H   0  0  0  0  0  0  0  0  0  0  0  0
   38.2885   27.9709   34.7459 H   0  0  0  0  0  0  0  0  0  0  0  0
   40.7874   28.0088   34.5697 H   0  0  0  0  0  0  0  0  0  0  0  0
   41.9647   25.8691   33.9971 H   0  0  0  0  0  0  0  0  0  0  0  0
  1  8  1  0
  2  1  2  0
  3  2  1  0
  4  5  1  0
  4  3  2  0
  5  6  2  0
  6 13  1  0
  6  1  1  0
  7 12  2  0
  8  9  2  0
  8  7  1  0
  9 10  1  0
 10 11  2  0
 12 11  1  0
 13 14  2  0
 14 15  1  0
 16 15  2  0
 17 16  1  0
 18 13  1  0
 18 17  2  0
  2 19  1  0
  3 20  1  0
  4 21  1  0
  5 22  1  0
  7 23  1  0
  9 24  1  0
 11 25  1  0
 14 26  1  0
 15 27  1  0
 16 28  1  0
 17 29  1  0
M  ISO  8  19  14  20  14  21  14  22  14  23  14  24  14  25  14  26  14
M  ISO  3  27  14  28  14  29  14
M  END
>  <minimizedAffinity>  (1) 
-4.58348036

>  <minimizedRMSD>  (1) 
1.07963943

$$$$
