
     RDKit          3D

 33 35  0  0  0  0  0  0  0  0999 V2000
   37.8830   22.8860   34.3880 C   0  0  0  0  0  0  0  0  0  0  0  0
   37.2540   21.7000   33.9990 C   0  0  0  0  0  0  0  0  0  0  0  0
   36.5650   21.5490   32.8140 C   0  0  0  0  0  0  0  0  0  0  0  0
   36.4980   22.6290   31.9770 C   0  0  0  0  0  0  0  0  0  0  0  0
   37.1030   23.8120   32.3230 C   0  0  0  0  0  0  0  0  0  0  0  0
   37.7820   23.9170   33.5190 C   0  0  0  0  0  0  0  0  0  0  0  0
   37.9880   23.2930   36.8880 C   0  0  0  0  0  0  0  0  0  0  0  0
   38.5670   22.8810   35.6680 C   0  0  0  0  0  0  0  0  0  0  0  0
   39.8990   22.4360   35.7080 C   0  0  0  0  0  0  0  0  0  0  0  0
   40.5610   22.4240   36.9070 N   0  0  0  0  0  0  0  0  0  0  0  0
   39.9550   22.8290   38.0430 C   0  0  0  0  0  0  0  0  0  0  0  0
   38.6770   23.2640   38.0450 N   0  0  0  0  0  0  0  0  0  0  0  0
   38.4120   25.1380   33.8880 N   0  0  0  0  0  0  0  0  0  0  0  0
   39.8010   25.5140   33.7950 C   0  0  0  0  0  0  0  0  0  0  0  0
   40.2850   26.3460   34.9370 C   0  0  0  0  0  0  0  0  0  0  0  0
   39.3410   27.2000   35.4680 O   0  0  0  0  0  0  0  0  0  0  0  0
   38.1430   26.5890   35.7640 C   0  0  0  0  0  0  0  0  0  0  0  0
   37.5350   26.1470   34.4350 C   0  0  0  0  0  0  0  0  0  0  0  0
   37.3120   20.8364   34.6779 H   0  0  0  0  0  0  0  0  0  0  0  0
   36.0863   20.5941   32.5512 H   0  0  0  0  0  0  0  0  0  0  0  0
   35.9570   22.5493   31.0225 H   0  0  0  0  0  0  0  0  0  0  0  0
   37.0461   24.6769   31.6457 H   0  0  0  0  0  0  0  0  0  0  0  0
   36.9466   23.6471   36.8938 H   0  0  0  0  0  0  0  0  0  0  0  0
   40.4032   22.1019   34.7892 H   0  0  0  0  0  0  0  0  0  0  0  0
   40.5155   22.8040   38.9892 H   0  0  0  0  0  0  0  0  0  0  0  0
   40.4056   24.5959   33.7558 H   0  0  0  0  0  0  0  0  0  0  0  0
   39.9033   26.1289   32.8887 H   0  0  0  0  0  0  0  0  0  0  0  0
   40.6224   25.6689   35.7355 H   0  0  0  0  0  0  0  0  0  0  0  0
   41.0904   26.9812   34.5396 H   0  0  0  0  0  0  0  0  0  0  0  0
   38.3125   25.7165   36.4120 H   0  0  0  0  0  0  0  0  0  0  0  0
   37.4699   27.2761   36.2977 H   0  0  0  0  0  0  0  0  0  0  0  0
   37.4669   27.0025   33.7469 H   0  0  0  0  0  0  0  0  0  0  0  0
   36.5193   25.7501   34.5791 H   0  0  0  0  0  0  0  0  0  0  0  0
  1  8  1  0
  2  1  2  0
  3  2  1  0
  4  5  1  0
  4  3  2  0
  5  6  2  0
  6 13  1  0
  6  1  1  0
  7 12  2  0
  8  9  2  0
  8  7  1  0
  9 10  1  0
 10 11  2  0
 11 12  1  0
 13 18  1  0
 14 13  1  0
 14 15  1  0
 15 16  1  0
 16 17  1  0
 18 17  1  0
  2 19  1  0
  3 20  1  0
  4 21  1  0
  5 22  1  0
  7 23  1  0
  9 24  1  0
 11 25  1  0
 14 26  1  0
 14 27  1  0
 15 28  1  0
 15 29  1  0
 17 30  1  0
 17 31  1  0
 18 32  1  0
 18 33  1  0
M  ISO  8  19  14  20  14  21  14  22  14  23  14  24  14  25  14  26  13
M  ISO  7  27  13  28  13  29  13  30  13  31  13  32  13  33  13
M  END
>  <minimizedAffinity>  (1) 
-4.5531621

>  <minimizedRMSD>  (1) 
1.24546003

$$$$
