
     RDKit          3D

 27 29  0  0  0  0  0  0  0  0999 V2000
   38.0780   23.1140   34.7390 C   0  0  0  0  0  0  0  0  0  0  0  0
   37.9250   21.8690   34.1300 C   0  0  0  0  0  0  0  0  0  0  0  0
   37.6590   21.7100   32.7820 C   0  0  0  0  0  0  0  0  0  0  0  0
   37.5420   22.8460   32.0080 C   0  0  0  0  0  0  0  0  0  0  0  0
   37.6870   24.0760   32.5740 C   0  0  0  0  0  0  0  0  0  0  0  0
   37.9500   24.1810   33.9190 C   0  0  0  0  0  0  0  0  0  0  0  0
   37.4270   23.4500   37.1640 C   0  0  0  0  0  0  0  0  0  0  0  0
   38.3540   23.1370   36.1580 C   0  0  0  0  0  0  0  0  0  0  0  0
   39.6700   22.8200   36.5780 C   0  0  0  0  0  0  0  0  0  0  0  0
   39.9860   22.8280   37.9110 N   0  0  0  0  0  0  0  0  0  0  0  0
   39.0430   23.1370   38.8250 C   0  0  0  0  0  0  0  0  0  0  0  0
   37.7680   23.4480   38.4600 N   0  0  0  0  0  0  0  0  0  0  0  0
   38.0990   25.4770   34.4980 N   0  0  0  0  0  0  0  0  0  0  0  0
   37.2960   26.3830   35.0160 N   0  0  0  0  0  0  0  0  0  0  0  0
   37.9840   27.4520   35.4220 C   0  0  0  0  0  0  0  0  0  0  0  0
   39.3190   27.2000   35.1400 C   0  0  0  0  0  0  0  0  0  0  0  0
   39.3710   25.9390   34.5520 C   0  0  0  0  0  0  0  0  0  0  0  0
   38.0207   20.9676   34.7532 H   0  0  0  0  0  0  0  0  0  0  0  0
   37.5443   20.7089   32.3408 H   0  0  0  0  0  0  0  0  0  0  0  0
   37.3313   22.7580   30.9320 H   0  0  0  0  0  0  0  0  0  0  0  0
   37.5940   24.9820   31.9572 H   0  0  0  0  0  0  0  0  0  0  0  0
   36.3945   23.7034   36.8817 H   0  0  0  0  0  0  0  0  0  0  0  0
   40.4386   22.5672   35.8328 H   0  0  0  0  0  0  0  0  0  0  0  0
   39.3105   23.1378   39.8920 H   0  0  0  0  0  0  0  0  0  0  0  0
   37.5721   28.3583   35.8900 H   0  0  0  0  0  0  0  0  0  0  0  0
   40.1704   27.8666   35.3417 H   0  0  0  0  0  0  0  0  0  0  0  0
   40.2729   25.4176   34.1988 H   0  0  0  0  0  0  0  0  0  0  0  0
  1  8  1  0
  2  1  2  0
  3  2  1  0
  4  5  1  0
  4  3  2  0
  5  6  2  0
  6 13  1  0
  6  1  1  0
  7 12  2  0
  8  9  2  0
  8  7  1  0
  9 10  1  0
 10 11  2  0
 12 11  1  0
 13 17  1  0
 13 14  1  0
 14 15  2  0
 16 15  1  0
 17 16  2  0
  2 18  1  0
  3 19  1  0
  4 20  1  0
  5 21  1  0
  7 22  1  0
  9 23  1  0
 11 24  1  0
 15 25  1  0
 16 26  1  0
 17 27  1  0
M  ISO  8  18  14  19  14  20  14  21  14  22  14  23  14  24  14  25  14
M  ISO  2  26  14  27  14
M  END
>  <minimizedAffinity>  (1) 
-4.46754026

>  <minimizedRMSD>  (1) 
1.50783849

$$$$
