
     RDKit          3D

 27 29  0  0  0  0  0  0  0  0999 V2000
   38.1220   23.2770   34.3270 C   0  0  0  0  0  0  0  0  0  0  0  0
   37.6030   22.1790   33.6300 C   0  0  0  0  0  0  0  0  0  0  0  0
   36.8860   22.2900   32.4580 C   0  0  0  0  0  0  0  0  0  0  0  0
   36.6740   23.5520   31.9540 C   0  0  0  0  0  0  0  0  0  0  0  0
   37.1650   24.6370   32.6090 C   0  0  0  0  0  0  0  0  0  0  0  0
   37.8790   24.4900   33.7800 C   0  0  0  0  0  0  0  0  0  0  0  0
   38.4270   23.2690   36.8420 C   0  0  0  0  0  0  0  0  0  0  0  0
   38.8570   23.0060   35.5440 C   0  0  0  0  0  0  0  0  0  0  0  0
   40.1420   22.4130   35.4120 C   0  0  0  0  0  0  0  0  0  0  0  0
   40.8790   22.1360   36.5360 N   0  0  0  0  0  0  0  0  0  0  0  0
   40.3860   22.4230   37.7590 C   0  0  0  0  0  0  0  0  0  0  0  0
   39.1610   22.9900   37.9200 N   0  0  0  0  0  0  0  0  0  0  0  0
   38.3990   25.6640   34.4730 C   0  0  0  0  0  0  0  0  0  0  0  0
   37.4670   26.4810   35.1050 C   0  0  0  0  0  0  0  0  0  0  0  0
   38.1630   27.5180   35.6900 C   0  0  0  0  0  0  0  0  0  0  0  0
   39.4730   27.3170   35.4100 N   0  0  0  0  0  0  0  0  0  0  0  0
   39.6040   26.2250   34.6940 N   0  0  0  0  0  0  0  0  0  0  0  0
   37.7769   21.1732   34.0400 H   0  0  0  0  0  0  0  0  0  0  0  0
   36.4965   21.3993   31.9432 H   0  0  0  0  0  0  0  0  0  0  0  0
   36.1069   23.6833   31.0206 H   0  0  0  0  0  0  0  0  0  0  0  0
   36.9911   25.6435   32.2007 H   0  0  0  0  0  0  0  0  0  0  0  0
   37.4374   23.7275   36.9847 H   0  0  0  0  0  0  0  0  0  0  0  0
   40.5432   22.1776   34.4152 H   0  0  0  0  0  0  0  0  0  0  0  0
   40.9908   22.1922   38.6483 H   0  0  0  0  0  0  0  0  0  0  0  0
   36.3780   26.3283   35.1329 H   0  0  0  0  0  0  0  0  0  0  0  0
   37.7365   28.3484   36.2719 H   0  0  0  0  0  0  0  0  0  0  0  0
   40.2463   27.9266   35.7122 H   0  0  0  0  0  0  0  0  0  0  0  0
  1  8  1  0
  2  1  2  0
  3  2  1  0
  4  3  2  0
  4  5  1  0
  5  6  2  0
  6  1  1  0
  6 13  1  0
  7 12  2  0
  8  7  1  0
  9  8  2  0
  9 10  1  0
 10 11  2  0
 11 12  1  0
 13 17  2  0
 13 14  1  0
 14 15  2  0
 16 15  1  0
 17 16  1  0
  2 18  1  0
  3 19  1  0
  4 20  1  0
  5 21  1  0
  7 22  1  0
  9 23  1  0
 11 24  1  0
 14 25  1  0
 15 26  1  0
 16 27  1  0
M  ISO  8  18  14  19  14  20  14  21  14  22  14  23  14  24  14  25  14
M  ISO  2  26  14  27   9
M  END
>  <minimizedAffinity>  (1) 
-4.46071768

>  <minimizedRMSD>  (1) 
1.26948118

$$$$
