
     RDKit          3D

 28 30  0  0  0  0  0  0  0  0999 V2000
   37.8640   22.7670   34.7700 C   0  0  0  0  0  0  0  0  0  0  0  0
   37.1530   21.6070   34.4540 C   0  0  0  0  0  0  0  0  0  0  0  0
   36.7170   21.3050   33.1800 C   0  0  0  0  0  0  0  0  0  0  0  0
   37.0020   22.2010   32.1720 C   0  0  0  0  0  0  0  0  0  0  0  0
   37.6930   23.3400   32.4460 C   0  0  0  0  0  0  0  0  0  0  0  0
   38.1180   23.6190   33.7270 C   0  0  0  0  0  0  0  0  0  0  0  0
   37.4480   23.5410   37.1480 C   0  0  0  0  0  0  0  0  0  0  0  0
   38.2580   22.9550   36.1530 C   0  0  0  0  0  0  0  0  0  0  0  0
   39.5410   22.5220   36.5360 C   0  0  0  0  0  0  0  0  0  0  0  0
   39.9280   22.6910   37.8420 N   0  0  0  0  0  0  0  0  0  0  0  0
   39.1030   23.2610   38.7490 C   0  0  0  0  0  0  0  0  0  0  0  0
   37.8690   23.6850   38.4070 N   0  0  0  0  0  0  0  0  0  0  0  0
   38.8640   24.8250   34.0790 C   0  0  0  0  0  0  0  0  0  0  0  0
   40.2300   24.7820   33.7950 C   0  0  0  0  0  0  0  0  0  0  0  0
   40.9850   25.9020   34.1110 C   0  0  0  0  0  0  0  0  0  0  0  0
   40.4590   27.0150   34.6730 N   0  0  0  0  0  0  0  0  0  0  0  0
   39.1230   27.0090   34.9310 C   0  0  0  0  0  0  0  0  0  0  0  0
   38.3660   25.9440   34.6380 N   0  0  0  0  0  0  0  0  0  0  0  0
   36.9288   20.8967   35.2634 H   0  0  0  0  0  0  0  0  0  0  0  0
   36.1598   20.3789   32.9754 H   0  0  0  0  0  0  0  0  0  0  0  0
   36.6699   21.9944   31.1439 H   0  0  0  0  0  0  0  0  0  0  0  0
   37.9157   24.0481   31.6342 H   0  0  0  0  0  0  0  0  0  0  0  0
   36.4400   23.8896   36.8789 H   0  0  0  0  0  0  0  0  0  0  0  0
   40.2191   22.0581   35.8046 H   0  0  0  0  0  0  0  0  0  0  0  0
   39.4453   23.3815   39.7874 H   0  0  0  0  0  0  0  0  0  0  0  0
   40.6903   23.8936   33.3379 H   0  0  0  0  0  0  0  0  0  0  0  0
   42.0633   25.8846   33.8943 H   0  0  0  0  0  0  0  0  0  0  0  0
   38.6568   27.8943   35.3881 H   0  0  0  0  0  0  0  0  0  0  0  0
  1  8  1  0
  2  1  2  0
  3  2  1  0
  4  5  1  0
  4  3  2  0
  5  6  2  0
  6 13  1  0
  6  1  1  0
  7 12  2  0
  8  9  2  0
  8  7  1  0
  9 10  1  0
 10 11  2  0
 12 11  1  0
 13 18  1  0
 14 13  2  0
 14 15  1  0
 15 16  2  0
 16 17  1  0
 18 17  2  0
  2 19  1  0
  3 20  1  0
  4 21  1  0
  5 22  1  0
  7 23  1  0
  9 24  1  0
 11 25  1  0
 14 26  1  0
 15 27  1  0
 17 28  1  0
M  ISO  8  19  14  20  14  21  14  22  14  23  14  24  14  25  14  26  14
M  ISO  2  27  14  28  14
M  END
>  <minimizedAffinity>  (1) 
-4.40162659

>  <minimizedRMSD>  (1) 
1.1142503

$$$$
