
     RDKit          3D

 43 45  0  0  1  0  0  0  0  0999 V2000
   39.9550   27.4630   31.9070 C   0  0  0  0  0  0  0  0  0  0  0  0
   41.2500   27.1340   31.1840 C   0  0  1  0  0  0  0  0  0  0  0  0
   41.7600   28.2840   30.3800 C   0  0  0  0  0  0  0  0  0  0  0  0
   42.8730   29.0570   31.0040 C   0  0  0  0  0  0  0  0  0  0  0  0
   43.8390   28.2730   31.8060 C   0  0  0  0  0  0  0  0  0  0  0  0
   43.1240   27.4230   32.8220 C   0  0  0  0  0  0  0  0  0  0  0  0
   42.2340   26.4780   32.0900 C   0  0  2  0  0  0  0  0  0  0  0  0
   42.9830   25.4900   31.3310 N   0  0  0  0  0  0  0  0  0  0  0  0
   38.5050   24.5680   33.7940 N   0  0  0  0  0  0  0  0  0  0  0  0
   39.2090   25.6710   33.5710 C   0  0  0  0  0  0  0  0  0  0  0  0
   39.2120   26.2330   32.2950 C   0  0  0  0  0  0  0  0  0  0  0  0
   38.4680   25.6090   31.2910 C   0  0  0  0  0  0  0  0  0  0  0  0
   38.3940   26.0200   30.1090 O   0  0  0  0  0  0  0  0  0  0  0  0
   37.7560   24.4730   31.5630 N   0  0  0  0  0  0  0  0  0  0  0  0
   37.8000   23.9920   32.8080 C   0  0  0  0  0  0  0  0  0  0  0  0
   37.1430   22.9420   33.0610 O   0  0  0  0  0  0  0  0  0  0  0  0
   37.8320   24.7800   36.1080 C   0  0  0  0  0  0  0  0  0  0  0  0
   38.5740   24.0910   35.1120 C   0  0  0  0  0  0  0  0  0  0  0  0
   39.3060   23.0030   35.5180 C   0  0  0  0  0  0  0  0  0  0  0  0
   39.2730   22.6540   36.8580 N   0  0  0  0  0  0  0  0  0  0  0  0
   38.5640   23.3250   37.7660 C   0  0  0  0  0  0  0  0  0  0  0  0
   37.8450   24.3910   37.3760 N   0  0  0  0  0  0  0  0  0  0  0  0
   38.6950   22.7720   39.0610 N   0  0  0  0  0  0  0  0  0  0  0  0
   39.3202   28.0682   31.2431 H   0  0  0  0  0  0  0  0  0  0  0  0
   40.2059   28.0153   32.8246 H   0  0  0  0  0  0  0  0  0  0  0  0
   41.0407   26.3697   30.4211 H   0  0  0  0  0  0  0  0  0  0  0  0
   40.9220   28.9752   30.2069 H   0  0  0  0  0  0  0  0  0  0  0  0
   42.1725   27.8497   29.4574 H   0  0  0  0  0  0  0  0  0  0  0  0
   43.4311   29.5541   30.1969 H   0  0  0  0  0  0  0  0  0  0  0  0
   42.3927   29.7484   31.7120 H   0  0  0  0  0  0  0  0  0  0  0  0
   44.4199   27.6222   31.1359 H   0  0  0  0  0  0  0  0  0  0  0  0
   44.5056   28.9698   32.3353 H   0  0  0  0  0  0  0  0  0  0  0  0
   43.8564   26.8593   33.4185 H   0  0  0  0  0  0  0  0  0  0  0  0
   42.5328   28.0557   33.5004 H   0  0  0  0  0  0  0  0  0  0  0  0
   41.6669   25.9826   32.8919 H   0  0  0  0  0  0  0  0  0  0  0  0
   43.4662   24.8526   31.9800 H   0  0  0  0  0  0  0  0  0  0  0  0
   42.3366   24.9506   30.7376 H   0  0  0  0  0  0  0  0  0  0  0  0
   39.7842   26.1370   34.3846 H   0  0  0  0  0  0  0  0  0  0  0  0
   37.2037   24.0038   30.8311 H   0  0  0  0  0  0  0  0  0  0  0  0
   37.2326   25.6566   35.8211 H   0  0  0  0  0  0  0  0  0  0  0  0
   39.9029   22.4237   34.7982 H   0  0  0  0  0  0  0  0  0  0  0  0
   38.1967   23.1977   39.8556 H   0  0  0  0  0  0  0  0  0  0  0  0
   39.2887   21.9435   39.2096 H   0  0  0  0  0  0  0  0  0  0  0  0
  1 11  1  0
  2  1  1  0
  2  7  1  0
  3  4  1  0
  3  2  1  0
  4  5  1  0
  5  6  1  0
  7  6  1  0
  8  7  1  0
  9 18  1  0
 10  9  1  0
 11 10  2  0
 12 14  1  0
 12 11  1  0
 13 12  2  0
 14 15  1  0
 15 16  2  0
 15  9  1  0
 17 22  2  0
 18 19  2  0
 18 17  1  0
 19 20  1  0
 20 21  2  0
 21 23  1  0
 22 21  1  0
  1 24  1  0
  1 25  1  0
  2 26  1  6
  3 27  1  0
  3 28  1  0
  4 29  1  0
  4 30  1  0
  5 31  1  0
  5 32  1  0
  6 33  1  0
  6 34  1  0
  7 35  1  1
  8 36  1  0
  8 37  1  0
 10 38  1  0
 14 39  1  0
 17 40  1  0
 19 41  1  0
 23 42  1  0
 23 43  1  0
M  ISO  8  24   8  25   8  26  13  27  13  28  13  29  13  30  13  31  13
M  ISO  8  32  13  33  13  34  13  35  13  36   5  37   5  38  14  39   9
M  ISO  2  40  14  41  14
M  END
>  <minimizedAffinity>  (1) 
-4.53987598

>  <minimizedRMSD>  (1) 
0.0172821563

$$$$
