
     RDKit          3D

 25 27  0  0  0  0  0  0  0  0999 V2000
   38.0930   23.1720   34.7570 C   0  0  0  0  0  0  0  0  0  0  0  0
   37.8490   21.9570   34.1590 C   0  0  0  0  0  0  0  0  0  0  0  0
   37.5740   21.7890   32.8190 C   0  0  0  0  0  0  0  0  0  0  0  0
   37.5460   22.9310   32.0310 C   0  0  0  0  0  0  0  0  0  0  0  0
   37.7830   24.1480   32.5870 C   0  0  0  0  0  0  0  0  0  0  0  0
   38.0540   24.2700   33.9350 C   0  0  0  0  0  0  0  0  0  0  0  0
   37.4390   23.5170   37.1860 C   0  0  0  0  0  0  0  0  0  0  0  0
   38.3700   23.1870   36.1900 C   0  0  0  0  0  0  0  0  0  0  0  0
   39.6890   22.8370   36.5960 C   0  0  0  0  0  0  0  0  0  0  0  0
   39.9610   22.8480   37.9440 N   0  0  0  0  0  0  0  0  0  0  0  0
   39.0410   23.1690   38.8560 C   0  0  0  0  0  0  0  0  0  0  0  0
   37.7760   23.5060   38.4820 N   0  0  0  0  0  0  0  0  0  0  0  0
   38.3110   25.5710   34.5460 C   0  0  0  0  0  0  0  0  0  0  0  0
   39.4760   26.1760   34.8230 N   0  0  0  0  0  0  0  0  0  0  0  0
   39.2000   27.3410   35.3750 O   0  0  0  0  0  0  0  0  0  0  0  0
   37.9220   27.5200   35.4690 C   0  0  0  0  0  0  0  0  0  0  0  0
   37.3540   26.4270   34.9570 N   0  0  0  0  0  0  0  0  0  0  0  0
   37.8752   21.0588   34.7935 H   0  0  0  0  0  0  0  0  0  0  0  0
   37.3849   20.7928   32.3925 H   0  0  0  0  0  0  0  0  0  0  0  0
   37.3317   22.8509   30.9551 H   0  0  0  0  0  0  0  0  0  0  0  0
   37.7586   25.0477   31.9546 H   0  0  0  0  0  0  0  0  0  0  0  0
   36.4133   23.7898   36.8972 H   0  0  0  0  0  0  0  0  0  0  0  0
   40.4608   22.5681   35.8598 H   0  0  0  0  0  0  0  0  0  0  0  0
   39.3081   23.1612   39.9231 H   0  0  0  0  0  0  0  0  0  0  0  0
   37.4072   28.3975   35.8872 H   0  0  0  0  0  0  0  0  0  0  0  0
  1  8  1  0
  2  1  2  0
  3  2  1  0
  4  5  1  0
  4  3  2  0
  5  6  2  0
  6 13  1  0
  6  1  1  0
  7 12  2  0
  8  9  2  0
  8  7  1  0
  9 10  1  0
 10 11  2  0
 12 11  1  0
 13 14  2  0
 13 17  1  0
 14 15  1  0
 15 16  1  0
 17 16  2  0
  2 18  1  0
  3 19  1  0
  4 20  1  0
  5 21  1  0
  7 22  1  0
  9 23  1  0
 11 24  1  0
 16 25  1  0
M  ISO  8  18  14  19  14  20  14  21  14  22  14  23  14  24  14  25  14
M  END
>  <minimizedAffinity>  (1) 
-4.40136242

>  <minimizedRMSD>  (1) 
1.50983667

$$$$
