
     RDKit          3D

 27 29  0  0  0  0  0  0  0  0999 V2000
   37.9830   23.1090   34.7730 C   0  0  0  0  0  0  0  0  0  0  0  0
   37.6210   21.8890   34.2060 C   0  0  0  0  0  0  0  0  0  0  0  0
   37.2790   21.7330   32.8810 C   0  0  0  0  0  0  0  0  0  0  0  0
   37.2940   22.8400   32.0750 C   0  0  0  0  0  0  0  0  0  0  0  0
   37.6440   24.0550   32.5960 C   0  0  0  0  0  0  0  0  0  0  0  0
   37.9800   24.1740   33.9250 C   0  0  0  0  0  0  0  0  0  0  0  0
   37.4360   23.4740   37.2230 C   0  0  0  0  0  0  0  0  0  0  0  0
   38.3170   23.1290   36.1790 C   0  0  0  0  0  0  0  0  0  0  0  0
   39.6240   22.7780   36.5530 C   0  0  0  0  0  0  0  0  0  0  0  0
   39.9790   22.7850   37.8770 N   0  0  0  0  0  0  0  0  0  0  0  0
   39.0900   23.1220   38.8200 C   0  0  0  0  0  0  0  0  0  0  0  0
   37.8250   23.4670   38.5050 N   0  0  0  0  0  0  0  0  0  0  0  0
   38.3520   25.4760   34.4720 C   0  0  0  0  0  0  0  0  0  0  0  0
   39.5290   26.1230   34.6840 C   0  0  0  0  0  0  0  0  0  0  0  0
   39.2560   27.3220   35.2260 N   0  0  0  0  0  0  0  0  0  0  0  0
   37.9300   27.4740   35.3730 C   0  0  0  0  0  0  0  0  0  0  0  0
   37.3850   26.3320   34.9060 N   0  0  0  0  0  0  0  0  0  0  0  0
   37.6076   20.9998   34.8534 H   0  0  0  0  0  0  0  0  0  0  0  0
   37.0015   20.7465   32.4813 H   0  0  0  0  0  0  0  0  0  0  0  0
   37.0254   22.7522   31.0119 H   0  0  0  0  0  0  0  0  0  0  0  0
   37.6570   24.9437   31.9479 H   0  0  0  0  0  0  0  0  0  0  0  0
   36.4013   23.7566   36.9790 H   0  0  0  0  0  0  0  0  0  0  0  0
   40.3610   22.4982   35.7858 H   0  0  0  0  0  0  0  0  0  0  0  0
   39.3987   23.1173   39.8758 H   0  0  0  0  0  0  0  0  0  0  0  0
   40.5309   25.7326   34.4521 H   0  0  0  0  0  0  0  0  0  0  0  0
   37.4005   28.3450   35.7865 H   0  0  0  0  0  0  0  0  0  0  0  0
   36.3745   26.1339   34.8809 H   0  0  0  0  0  0  0  0  0  0  0  0
  1  8  1  0
  2  1  2  0
  3  2  1  0
  4  5  1  0
  4  3  2  0
  5  6  2  0
  6 13  1  0
  6  1  1  0
  7 12  2  0
  8  9  2  0
  8  7  1  0
  9 10  1  0
 10 11  2  0
 12 11  1  0
 13 14  2  0
 13 17  1  0
 14 15  1  0
 15 16  2  0
 17 16  1  0
  2 18  1  0
  3 19  1  0
  4 20  1  0
  5 21  1  0
  7 22  1  0
  9 23  1  0
 11 24  1  0
 14 25  1  0
 16 26  1  0
 17 27  1  0
M  ISO  8  18  14  19  14  20  14  21  14  22  14  23  14  24  14  25  14
M  ISO  2  26  14  27   9
M  END
>  <minimizedAffinity>  (1) 
-4.36257505

>  <minimizedRMSD>  (1) 
1.49120772

$$$$
