
     RDKit          3D

 42 44  0  0  1  0  0  0  0  0999 V2000
   38.5130   24.5830   33.7970 N   0  0  0  0  0  0  0  0  0  0  0  0
   39.2140   25.6900   33.5690 C   0  0  0  0  0  0  0  0  0  0  0  0
   39.2220   26.2280   32.2970 C   0  0  0  0  0  0  0  0  0  0  0  0
   38.4970   25.6010   31.2870 C   0  0  0  0  0  0  0  0  0  0  0  0
   38.4310   26.0010   30.0960 O   0  0  0  0  0  0  0  0  0  0  0  0
   37.7900   24.4710   31.5540 N   0  0  0  0  0  0  0  0  0  0  0  0
   37.8130   23.9830   32.8130 C   0  0  0  0  0  0  0  0  0  0  0  0
   37.1610   22.9420   33.0560 O   0  0  0  0  0  0  0  0  0  0  0  0
   37.8280   24.7840   36.1080 C   0  0  0  0  0  0  0  0  0  0  0  0
   38.5660   24.1090   35.1270 C   0  0  0  0  0  0  0  0  0  0  0  0
   39.3070   23.0110   35.5280 C   0  0  0  0  0  0  0  0  0  0  0  0
   39.2690   22.6590   36.8600 N   0  0  0  0  0  0  0  0  0  0  0  0
   38.5480   23.3320   37.7680 C   0  0  0  0  0  0  0  0  0  0  0  0
   37.8230   24.4070   37.3720 N   0  0  0  0  0  0  0  0  0  0  0  0
   38.6850   22.7590   39.0630 N   0  0  0  0  0  0  0  0  0  0  0  0
   39.9640   27.4640   31.8930 C   0  0  0  0  0  0  0  0  0  0  0  0
   41.2610   27.1330   31.1600 C   0  0  1  0  0  0  0  0  0  0  0  0
   41.7640   28.3030   30.3930 C   0  0  0  0  0  0  0  0  0  0  0  0
   42.8960   29.0540   31.0140 C   0  0  0  0  0  0  0  0  0  0  0  0
   43.8600   28.2430   31.8140 C   0  0  0  0  0  0  0  0  0  0  0  0
   43.1160   27.4220   32.8310 C   0  0  0  0  0  0  0  0  0  0  0  0
   42.2310   26.4780   32.0720 C   0  0  2  0  0  0  0  0  0  0  0  0
   43.2960   25.3950   31.0620 S   0  0  0  0  0  0  0  0  0  0  0  0
   39.7791   26.1700   34.3816 H   0  0  0  0  0  0  0  0  0  0  0  0
   37.2503   23.9989   30.8146 H   0  0  0  0  0  0  0  0  0  0  0  0
   37.2312   25.6599   35.8136 H   0  0  0  0  0  0  0  0  0  0  0  0
   39.9073   22.4374   34.8064 H   0  0  0  0  0  0  0  0  0  0  0  0
   38.1864   23.1718   39.8642 H   0  0  0  0  0  0  0  0  0  0  0  0
   39.2828   21.9314   39.1993 H   0  0  0  0  0  0  0  0  0  0  0  0
   39.3230   28.0630   31.2294 H   0  0  0  0  0  0  0  0  0  0  0  0
   40.2202   28.0223   32.8055 H   0  0  0  0  0  0  0  0  0  0  0  0
   41.0702   26.3782   30.3829 H   0  0  0  0  0  0  0  0  0  0  0  0
   40.9269   29.0042   30.2609 H   0  0  0  0  0  0  0  0  0  0  0  0
   42.1600   27.8934   29.4520 H   0  0  0  0  0  0  0  0  0  0  0  0
   43.4584   29.5437   30.2054 H   0  0  0  0  0  0  0  0  0  0  0  0
   42.4325   29.7514   31.7273 H   0  0  0  0  0  0  0  0  0  0  0  0
   44.4189   27.5740   31.1431 H   0  0  0  0  0  0  0  0  0  0  0  0
   44.5581   28.9168   32.3324 H   0  0  0  0  0  0  0  0  0  0  0  0
   43.8261   26.8566   33.4524 H   0  0  0  0  0  0  0  0  0  0  0  0
   42.5226   28.0661   33.4966 H   0  0  0  0  0  0  0  0  0  0  0  0
   41.6399   25.9359   32.8248 H   0  0  0  0  0  0  0  0  0  0  0  0
   44.0641   24.6139   31.8847 H   0  0  0  0  0  0  0  0  0  0  0  0
  1 10  1  0
  2  1  1  0
  3  2  2  0
  4  6  1  0
  4  3  1  0
  5  4  2  0
  6  7  1  0
  7  8  2  0
  7  1  1  0
  9 14  2  0
 10 11  2  0
 10  9  1  0
 11 12  1  0
 12 13  2  0
 13 15  1  0
 14 13  1  0
 16  3  1  0
 17 16  1  0
 17 22  1  0
 18 19  1  0
 18 17  1  0
 19 20  1  0
 20 21  1  0
 22 21  1  0
 23 22  1  0
  2 24  1  0
  6 25  1  0
  9 26  1  0
 11 27  1  0
 15 28  1  0
 15 29  1  0
 16 30  1  0
 16 31  1  0
 17 32  1  6
 18 33  1  0
 18 34  1  0
 19 35  1  0
 19 36  1  0
 20 37  1  0
 20 38  1  0
 21 39  1  0
 21 40  1  0
 22 41  1  1
 23 42  1  0
M  ISO  8  24  14  25   9  26  14  27  14  30   8  31   8  32  13  33  13
M  ISO  8  34  13  35  13  36  13  37  13  38  13  39  13  40  13  41  13
M  ISO  1  42  11
M  END
>  <minimizedAffinity>  (1) 
-4.53449059

>  <minimizedRMSD>  (1) 
0.0170704536

$$$$
