
     RDKit          3D

 23 24  0  0  0  0  0  0  0  0999 V2000
   37.7930   22.7010   34.1960 C   0  0  0  0  0  0  0  0  0  0  0  0
   37.0310   21.5730   33.9270 C   0  0  0  0  0  0  0  0  0  0  0  0
   36.2340   21.4380   32.8080 C   0  0  0  0  0  0  0  0  0  0  0  0
   36.2030   22.4870   31.9190 C   0  0  0  0  0  0  0  0  0  0  0  0
   36.9380   23.6050   32.1530 C   0  0  0  0  0  0  0  0  0  0  0  0
   37.7290   23.7120   33.2850 C   0  0  0  0  0  0  0  0  0  0  0  0
   38.1740   23.1650   36.6660 C   0  0  0  0  0  0  0  0  0  0  0  0
   38.5880   22.7030   35.4190 C   0  0  0  0  0  0  0  0  0  0  0  0
   39.9040   22.1870   35.3380 C   0  0  0  0  0  0  0  0  0  0  0  0
   40.6850   22.1710   36.4680 N   0  0  0  0  0  0  0  0  0  0  0  0
   40.2120   22.6370   37.6420 C   0  0  0  0  0  0  0  0  0  0  0  0
   38.9460   23.1410   37.7510 N   0  0  0  0  0  0  0  0  0  0  0  0
   38.5400   24.9260   33.5620 C   0  0  0  0  0  0  0  0  0  0  0  0
   37.0638   20.7404   34.6451 H   0  0  0  0  0  0  0  0  0  0  0  0
   35.6454   20.5252   32.6338 H   0  0  0  0  0  0  0  0  0  0  0  0
   35.5803   22.4203   31.0147 H   0  0  0  0  0  0  0  0  0  0  0  0
   36.9046   24.4367   31.4338 H   0  0  0  0  0  0  0  0  0  0  0  0
   37.1560   23.5710   36.7596 H   0  0  0  0  0  0  0  0  0  0  0  0
   40.2954   21.8044   34.3839 H   0  0  0  0  0  0  0  0  0  0  0  0
   40.8591   22.6109   38.5312 H   0  0  0  0  0  0  0  0  0  0  0  0
   38.6327   25.0648   34.6493 H   0  0  0  0  0  0  0  0  0  0  0  0
   39.5406   24.8070   33.1209 H   0  0  0  0  0  0  0  0  0  0  0  0
   38.0470   25.8048   33.1209 H   0  0  0  0  0  0  0  0  0  0  0  0
  1  8  1  0
  2  1  2  0
  3  2  1  0
  4  5  1  0
  4  3  2  0
  5  6  2  0
  6 13  1  0
  6  1  1  0
  7 12  2  0
  8  7  1  0
  9  8  2  0
  9 10  1  0
 10 11  2  0
 11 12  1  0
  2 14  1  0
  3 15  1  0
  4 16  1  0
  5 17  1  0
  7 18  1  0
  9 19  1  0
 11 20  1  0
 13 21  1  0
 13 22  1  0
 13 23  1  0
M  ISO  8  14  14  15  14  16  14  17  14  18  14  19  14  20  14  21   8
M  ISO  2  22   8  23   8
M  END
>  <minimizedAffinity>  (1) 
-3.49543452

>  <minimizedRMSD>  (1) 
0.0474007465

$$$$
