
     RDKit          3D

 51 54  0  0  1  0  0  0  0  0999 V2000
   41.2870   27.0980   31.2040 C   0  0  1  0  0  0  0  0  0  0  0  0
   41.8120   28.2780   30.4600 C   0  0  0  0  0  0  0  0  0  0  0  0
   42.9300   28.9980   31.1180 C   0  0  0  0  0  0  0  0  0  0  0  0
   43.8570   28.1670   31.9480 C   0  0  0  0  0  0  0  0  0  0  0  0
   43.0390   27.4190   32.9650 C   0  0  0  0  0  0  0  0  0  0  0  0
   42.1960   26.4400   32.1830 C   0  0  2  0  0  0  0  0  0  0  0  0
   43.0290   25.3910   31.6700 N   0  0  0  0  0  0  0  0  0  0  0  0
   43.6510   25.3590   30.4790 C   0  0  0  0  0  0  0  0  0  0  0  0
   44.4400   24.3140   30.0500 C   0  0  0  0  0  0  0  0  0  0  0  0
   44.6180   23.2160   30.8790 C   0  0  0  0  0  0  0  0  0  0  0  0
   45.3290   22.2360   30.5300 O   0  0  0  0  0  0  0  0  0  0  0  0
   43.9800   23.2640   32.0810 N   0  0  0  0  0  0  0  0  0  0  0  0
   43.2180   24.3070   32.4600 C   0  0  0  0  0  0  0  0  0  0  0  0
   42.7180   24.1390   33.6240 O   0  0  0  0  0  0  0  0  0  0  0  0
   39.9370   27.4280   31.8510 C   0  0  0  0  0  0  0  0  0  0  0  0
   38.4800   24.5730   33.7830 N   0  0  0  0  0  0  0  0  0  0  0  0
   39.1900   25.6850   33.5480 C   0  0  0  0  0  0  0  0  0  0  0  0
   39.1960   26.2120   32.2620 C   0  0  0  0  0  0  0  0  0  0  0  0
   38.4600   25.5630   31.2630 C   0  0  0  0  0  0  0  0  0  0  0  0
   38.3910   25.9490   30.0660 O   0  0  0  0  0  0  0  0  0  0  0  0
   37.7530   24.4380   31.5470 N   0  0  0  0  0  0  0  0  0  0  0  0
   37.7810   23.9720   32.8010 C   0  0  0  0  0  0  0  0  0  0  0  0
   37.1300   22.9360   33.0640 O   0  0  0  0  0  0  0  0  0  0  0  0
   37.8090   24.7990   36.0950 C   0  0  0  0  0  0  0  0  0  0  0  0
   38.5420   24.1200   35.1160 C   0  0  0  0  0  0  0  0  0  0  0  0
   39.3010   23.0230   35.5170 C   0  0  0  0  0  0  0  0  0  0  0  0
   39.2860   22.6720   36.8420 N   0  0  0  0  0  0  0  0  0  0  0  0
   38.5750   23.3400   37.7540 C   0  0  0  0  0  0  0  0  0  0  0  0
   37.8410   24.4020   37.3670 N   0  0  0  0  0  0  0  0  0  0  0  0
   38.7280   22.7800   39.0480 N   0  0  0  0  0  0  0  0  0  0  0  0
   41.1762   26.3345   30.4199 H   0  0  0  0  0  0  0  0  0  0  0  0
   40.9840   28.9891   30.3232 H   0  0  0  0  0  0  0  0  0  0  0  0
   42.2176   27.8856   29.5158 H   0  0  0  0  0  0  0  0  0  0  0  0
   43.5272   29.4809   30.3305 H   0  0  0  0  0  0  0  0  0  0  0  0
   42.4545   29.6976   31.8212 H   0  0  0  0  0  0  0  0  0  0  0  0
   44.3936   27.4538   31.3050 H   0  0  0  0  0  0  0  0  0  0  0  0
   44.5930   28.8101   32.4527 H   0  0  0  0  0  0  0  0  0  0  0  0
   43.6967   26.8830   33.6650 H   0  0  0  0  0  0  0  0  0  0  0  0
   42.4152   28.1014   33.5610 H   0  0  0  0  0  0  0  0  0  0  0  0
   41.4778   25.9525   32.8586 H   0  0  0  0  0  0  0  0  0  0  0  0
   43.5224   26.2194   29.8058 H   0  0  0  0  0  0  0  0  0  0  0  0
   44.9228   24.3499   29.0623 H   0  0  0  0  0  0  0  0  0  0  0  0
   44.0848   22.4689   32.7273 H   0  0  0  0  0  0  0  0  0  0  0  0
   40.1141   28.0513   32.7399 H   0  0  0  0  0  0  0  0  0  0  0  0
   39.3268   27.9564   31.1037 H   0  0  0  0  0  0  0  0  0  0  0  0
   39.7564   26.1707   34.3563 H   0  0  0  0  0  0  0  0  0  0  0  0
   37.2098   23.9565   30.8162 H   0  0  0  0  0  0  0  0  0  0  0  0
   37.1996   25.6700   35.8121 H   0  0  0  0  0  0  0  0  0  0  0  0
   39.8971   22.4530   34.7891 H   0  0  0  0  0  0  0  0  0  0  0  0
   38.2347   23.1960   39.8508 H   0  0  0  0  0  0  0  0  0  0  0  0
   39.3324   21.9573   39.1850 H   0  0  0  0  0  0  0  0  0  0  0  0
  1 15  1  0
  1  6  1  0
  2  3  1  0
  2  1  1  0
  3  4  1  0
  4  5  1  0
  6  5  1  0
  7  6  1  0
  7 13  1  0
  8  7  1  0
  9  8  2  0
  9 10  1  0
 10 12  1  0
 11 10  2  0
 12 13  1  0
 13 14  2  0
 15 18  1  0
 16 25  1  0
 17 16  1  0
 18 17  2  0
 19 21  1  0
 19 18  1  0
 20 19  2  0
 21 22  1  0
 22 23  2  0
 22 16  1  0
 24 29  2  0
 25 26  2  0
 25 24  1  0
 26 27  1  0
 27 28  2  0
 28 30  1  0
 29 28  1  0
  1 31  1  6
  2 32  1  0
  2 33  1  0
  3 34  1  0
  3 35  1  0
  4 36  1  0
  4 37  1  0
  5 38  1  0
  5 39  1  0
  6 40  1  1
  8 41  1  0
  9 42  1  0
 12 43  1  0
 15 44  1  0
 15 45  1  0
 17 46  1  0
 21 47  1  0
 24 48  1  0
 26 49  1  0
 30 50  1  0
 30 51  1  0
M  ISO  8  31  13  32  13  33  13  34  13  35  13  36  13  37  13  38  13
M  ISO  8  39  13  40  13  41  14  42  14  43   9  44   8  45   8  46  14
M  ISO  3  47   9  48  14  49  14
M  END
>  <minimizedAffinity>  (1) 
-4.52309561

>  <minimizedRMSD>  (1) 
0.161668062

$$$$
