
     RDKit          3D

 44 48  0  0  0  0  0  0  0  0999 V2000
   38.5340   24.9740   34.1490 C   0  0  0  0  0  0  0  0  0  0  0  0
   37.5760   25.9150   34.5360 C   0  0  0  0  0  0  0  0  0  0  0  0
   37.9450   27.2200   34.9000 C   0  0  0  0  0  0  0  0  0  0  0  0
   39.2900   27.4600   34.8370 C   0  0  0  0  0  0  0  0  0  0  0  0
   40.2650   26.5700   34.4640 C   0  0  0  0  0  0  0  0  0  0  0  0
   39.8560   25.3030   34.1150 C   0  0  0  0  0  0  0  0  0  0  0  0
   40.8440   24.3630   33.7200 N   0  0  0  0  0  0  0  0  0  0  0  0
   40.9840   23.3630   32.8300 C   0  0  0  0  0  0  0  0  0  0  0  0
   42.2020   22.8150   32.9220 N   0  0  0  0  0  0  0  0  0  0  0  0
   42.8960   23.4420   33.8790 C   0  0  0  0  0  0  0  0  0  0  0  0
   44.1820   23.2290   34.3280 C   0  0  0  0  0  0  0  0  0  0  0  0
   44.8660   22.3340   33.8150 O   0  0  0  0  0  0  0  0  0  0  0  0
   44.6560   24.0060   35.3170 N   0  0  0  0  0  0  0  0  0  0  0  0
   43.8450   24.9480   35.8090 C   0  0  0  0  0  0  0  0  0  0  0  0
   44.2980   25.8000   36.8610 N   0  0  0  0  0  0  0  0  0  0  0  0
   42.5910   25.1570   35.3720 N   0  0  0  0  0  0  0  0  0  0  0  0
   42.0440   24.4080   34.3740 C   0  0  0  0  0  0  0  0  0  0  0  0
   37.8450   22.7440   34.8110 C   0  0  0  0  0  0  0  0  0  0  0  0
   37.2900   21.5290   34.4700 C   0  0  0  0  0  0  0  0  0  0  0  0
   36.8510   21.2280   33.1910 C   0  0  0  0  0  0  0  0  0  0  0  0
   36.9790   22.1910   32.2230 C   0  0  0  0  0  0  0  0  0  0  0  0
   37.5250   23.3960   32.5390 C   0  0  0  0  0  0  0  0  0  0  0  0
   37.9580   23.6820   33.8140 C   0  0  0  0  0  0  0  0  0  0  0  0
   37.4540   23.4590   37.2220 C   0  0  0  0  0  0  0  0  0  0  0  0
   38.2580   22.9280   36.1940 C   0  0  0  0  0  0  0  0  0  0  0  0
   39.5620   22.5550   36.5580 C   0  0  0  0  0  0  0  0  0  0  0  0
   39.9790   22.7180   37.8500 N   0  0  0  0  0  0  0  0  0  0  0  0
   39.1690   23.2270   38.7810 C   0  0  0  0  0  0  0  0  0  0  0  0
   37.9090   23.6010   38.4820 N   0  0  0  0  0  0  0  0  0  0  0  0
   36.5142   25.6283   34.5558 H   0  0  0  0  0  0  0  0  0  0  0  0
   37.2155   27.9831   35.2090 H   0  0  0  0  0  0  0  0  0  0  0  0
   39.6243   28.4707   35.1139 H   0  0  0  0  0  0  0  0  0  0  0  0
   41.3269   26.8563   34.4447 H   0  0  0  0  0  0  0  0  0  0  0  0
   40.2046   23.0403   32.1240 H   0  0  0  0  0  0  0  0  0  0  0  0
   45.6105   23.8801   35.6830 H   0  0  0  0  0  0  0  0  0  0  0  0
   43.6738   26.5260   37.2406 H   0  0  0  0  0  0  0  0  0  0  0  0
   45.2491   25.6887   37.2404 H   0  0  0  0  0  0  0  0  0  0  0  0
   37.1909   20.7612   35.2515 H   0  0  0  0  0  0  0  0  0  0  0  0
   36.4129   20.2461   32.9588 H   0  0  0  0  0  0  0  0  0  0  0  0
   36.6416   21.9898   31.1955 H   0  0  0  0  0  0  0  0  0  0  0  0
   37.6231   24.1618   31.7555 H   0  0  0  0  0  0  0  0  0  0  0  0
   36.4240   23.7668   36.9888 H   0  0  0  0  0  0  0  0  0  0  0  0
   40.2455   22.1332   35.8064 H   0  0  0  0  0  0  0  0  0  0  0  0
   39.5366   23.3434   39.8112 H   0  0  0  0  0  0  0  0  0  0  0  0
  1  2  2  0
  2  3  1  0
  4  3  2  0
  5  4  1  0
  6  1  1  0
  6  5  2  0
  7  6  1  0
  7 17  1  0
  8  9  2  0
  8  7  1  0
  9 10  1  0
 10 11  1  0
 10 17  2  0
 11 13  1  0
 12 11  2  0
 13 14  1  0
 14 15  1  0
 16 14  2  0
 17 16  1  0
 18 25  1  0
 19 18  2  0
 20 19  1  0
 21 22  1  0
 21 20  2  0
 22 23  2  0
 23  1  1  0
 23 18  1  0
 24 29  2  0
 25 26  2  0
 25 24  1  0
 26 27  1  0
 27 28  2  0
 29 28  1  0
  2 30  1  0
  3 31  1  0
  4 32  1  0
  5 33  1  0
  8 34  1  0
 13 35  1  0
 15 36  1  0
 15 37  1  0
 19 38  1  0
 20 39  1  0
 21 40  1  0
 22 41  1  0
 24 42  1  0
 26 43  1  0
 28 44  1  0
M  ISO  8  30  14  31  14  32  14  33  14  34  14  35   9  38  14  39  14
M  ISO  5  40  14  41  14  42  14  43  14  44  14
M  END
>  <minimizedAffinity>  (1) 
-5.87876892

>  <minimizedRMSD>  (1) 
1.19902611

$$$$
