
     RDKit          3D

 41 45  0  0  0  0  0  0  0  0999 V2000
   38.0740   25.5380   33.9340 C   0  0  0  0  0  0  0  0  0  0  0  0
   37.0530   26.4440   34.1840 C   0  0  0  0  0  0  0  0  0  0  0  0
   37.2170   27.5200   35.0620 C   0  0  0  0  0  0  0  0  0  0  0  0
   38.4700   27.5830   35.6380 C   0  0  0  0  0  0  0  0  0  0  0  0
   39.5150   26.7150   35.4250 C   0  0  0  0  0  0  0  0  0  0  0  0
   39.2880   25.6740   34.5470 C   0  0  0  0  0  0  0  0  0  0  0  0
   37.5930   24.8260   31.6670 C   0  0  0  0  0  0  0  0  0  0  0  0
   37.2490   23.8130   30.7880 C   0  0  0  0  0  0  0  0  0  0  0  0
   37.0230   22.5110   31.1880 C   0  0  0  0  0  0  0  0  0  0  0  0
   37.1480   22.2150   32.5270 C   0  0  0  0  0  0  0  0  0  0  0  0
   37.4830   23.1940   33.4000 C   0  0  0  0  0  0  0  0  0  0  0  0
   37.7070   24.4900   32.9940 C   0  0  0  0  0  0  0  0  0  0  0  0
   39.0590   26.7570   30.8810 C   0  0  0  0  0  0  0  0  0  0  0  0
   37.8070   26.1550   31.1060 C   0  0  0  0  0  0  0  0  0  0  0  0
   36.6740   26.9120   30.7560 C   0  0  0  0  0  0  0  0  0  0  0  0
   36.8460   28.1640   30.2280 N   0  0  0  0  0  0  0  0  0  0  0  0
   38.0530   28.6820   30.0370 C   0  0  0  0  0  0  0  0  0  0  0  0
   39.1600   27.9940   30.3570 N   0  0  0  0  0  0  0  0  0  0  0  0
   40.3530   24.7660   34.3050 N   0  0  0  0  0  0  0  0  0  0  0  0
   41.3060   24.5690   33.3770 C   0  0  0  0  0  0  0  0  0  0  0  0
   42.0690   23.5080   33.6910 N   0  0  0  0  0  0  0  0  0  0  0  0
   41.6180   22.9880   34.8470 C   0  0  0  0  0  0  0  0  0  0  0  0
   42.1080   21.8960   35.5290 C   0  0  0  0  0  0  0  0  0  0  0  0
   41.4710   21.5790   36.6740 N   0  0  0  0  0  0  0  0  0  0  0  0
   40.4210   22.3210   37.0810 C   0  0  0  0  0  0  0  0  0  0  0  0
   39.9760   23.3810   36.3820 N   0  0  0  0  0  0  0  0  0  0  0  0
   40.5500   23.7750   35.2250 C   0  0  0  0  0  0  0  0  0  0  0  0
   36.0861   26.3119   33.6765 H   0  0  0  0  0  0  0  0  0  0  0  0
   36.4210   28.2490   35.2741 H   0  0  0  0  0  0  0  0  0  0  0  0
   38.6508   28.4117   36.3384 H   0  0  0  0  0  0  0  0  0  0  0  0
   40.4841   26.8437   35.9293 H   0  0  0  0  0  0  0  0  0  0  0  0
   37.1511   24.0572   29.7199 H   0  0  0  0  0  0  0  0  0  0  0  0
   36.7512   21.7335   30.4589 H   0  0  0  0  0  0  0  0  0  0  0  0
   36.9767   21.1892   32.8852 H   0  0  0  0  0  0  0  0  0  0  0  0
   37.5792   22.9460   34.4673 H   0  0  0  0  0  0  0  0  0  0  0  0
   39.9752   26.2054   31.1386 H   0  0  0  0  0  0  0  0  0  0  0  0
   35.6634   26.5038   30.9044 H   0  0  0  0  0  0  0  0  0  0  0  0
   38.1475   29.6912   29.6097 H   0  0  0  0  0  0  0  0  0  0  0  0
   41.4428   25.1925   32.4811 H   0  0  0  0  0  0  0  0  0  0  0  0
   42.9680   21.3171   35.1611 H   0  0  0  0  0  0  0  0  0  0  0  0
   39.9106   22.0502   38.0170 H   0  0  0  0  0  0  0  0  0  0  0  0
  1  2  2  0
  1  6  1  0
  2  3  1  0
  3  4  2  0
  5  4  1  0
  6  5  2  0
  7 12  2  0
  8  9  2  0
  8  7  1  0
  9 10  1  0
 10 11  2  0
 12 11  1  0
 12  1  1  0
 13 14  2  0
 14  7  1  0
 15 14  1  0
 16 15  2  0
 17 16  1  0
 17 18  2  0
 18 13  1  0
 19  6  1  0
 19 27  1  0
 20 21  2  0
 20 19  1  0
 21 22  1  0
 22 27  2  0
 22 23  1  0
 23 24  2  0
 24 25  1  0
 26 25  2  0
 27 26  1  0
  2 28  1  0
  3 29  1  0
  4 30  1  0
  5 31  1  0
  8 32  1  0
  9 33  1  0
 10 34  1  0
 11 35  1  0
 13 36  1  0
 15 37  1  0
 17 38  1  0
 20 39  1  0
 23 40  1  0
 25 41  1  0
M  ISO  8  28  14  29  14  30  14  31  14  32  14  33  14  34  14  35  14
M  ISO  6  36  14  37  14  38  14  39  14  40  14  41  14
M  END
>  <minimizedAffinity>  (1) 
-5.5134964

>  <minimizedRMSD>  (1) 
4.74032974

$$$$
