
     RDKit          3D

 40 43  0  0  0  0  0  0  0  0999 V2000
   38.0490   22.8550   34.7260 C   0  0  0  0  0  0  0  0  0  0  0  0
   37.7320   21.5990   34.2440 C   0  0  0  0  0  0  0  0  0  0  0  0
   37.4330   21.3520   32.9220 C   0  0  0  0  0  0  0  0  0  0  0  0
   37.4510   22.4080   32.0430 C   0  0  0  0  0  0  0  0  0  0  0  0
   37.7610   23.6530   32.4980 C   0  0  0  0  0  0  0  0  0  0  0  0
   38.0590   23.8900   33.8220 C   0  0  0  0  0  0  0  0  0  0  0  0
   38.3770   25.2200   34.3070 C   0  0  0  0  0  0  0  0  0  0  0  0
   37.2460   25.9610   34.6580 C   0  0  0  0  0  0  0  0  0  0  0  0
   37.3460   27.2700   35.1500 C   0  0  0  0  0  0  0  0  0  0  0  0
   38.6450   27.7310   35.2490 C   0  0  0  0  0  0  0  0  0  0  0  0
   39.8000   27.0320   34.9120 C   0  0  0  0  0  0  0  0  0  0  0  0
   39.6200   25.7560   34.4370 C   0  0  0  0  0  0  0  0  0  0  0  0
   40.8460   25.0590   34.0840 C   0  0  0  0  0  0  0  0  0  0  0  0
   41.8240   24.7680   35.0460 C   0  0  0  0  0  0  0  0  0  0  0  0
   43.0190   24.1230   34.8240 C   0  0  0  0  0  0  0  0  0  0  0  0
   43.2810   23.7250   33.5270 C   0  0  0  0  0  0  0  0  0  0  0  0
   42.3770   23.9720   32.5320 C   0  0  0  0  0  0  0  0  0  0  0  0
   41.2030   24.6210   32.8270 C   0  0  0  0  0  0  0  0  0  0  0  0
   37.4330   23.3910   37.1380 C   0  0  0  0  0  0  0  0  0  0  0  0
   38.3380   22.9710   36.1490 C   0  0  0  0  0  0  0  0  0  0  0  0
   39.6300   22.6400   36.5890 C   0  0  0  0  0  0  0  0  0  0  0  0
   39.9460   22.7350   37.9110 N   0  0  0  0  0  0  0  0  0  0  0  0
   39.0400   23.1430   38.8110 C   0  0  0  0  0  0  0  0  0  0  0  0
   37.7830   23.4730   38.4380 N   0  0  0  0  0  0  0  0  0  0  0  0
   37.7178   20.7557   34.9502 H   0  0  0  0  0  0  0  0  0  0  0  0
   37.1864   20.3363   32.5792 H   0  0  0  0  0  0  0  0  0  0  0  0
   37.2168   22.2486   30.9801 H   0  0  0  0  0  0  0  0  0  0  0  0
   37.7739   24.4935   31.7885 H   0  0  0  0  0  0  0  0  0  0  0  0
   36.2510   25.5056   34.5454 H   0  0  0  0  0  0  0  0  0  0  0  0
   36.4711   27.8744   35.4313 H   0  0  0  0  0  0  0  0  0  0  0  0
   38.7794   28.7531   35.6327 H   0  0  0  0  0  0  0  0  0  0  0  0
   40.8005   27.4762   35.0199 H   0  0  0  0  0  0  0  0  0  0  0  0
   41.6156   25.0862   36.0781 H   0  0  0  0  0  0  0  0  0  0  0  0
   43.7317   23.9333   35.6401 H   0  0  0  0  0  0  0  0  0  0  0  0
   44.2226   23.2063   33.2939 H   0  0  0  0  0  0  0  0  0  0  0  0
   42.5885   23.6528   31.5008 H   0  0  0  0  0  0  0  0  0  0  0  0
   40.4985   24.8040   32.0023 H   0  0  0  0  0  0  0  0  0  0  0  0
   36.4082   23.6611   36.8433 H   0  0  0  0  0  0  0  0  0  0  0  0
   40.3875   22.3038   35.8657 H   0  0  0  0  0  0  0  0  0  0  0  0
   39.3243   23.2105   39.8715 H   0  0  0  0  0  0  0  0  0  0  0  0
  1 20  1  0
  2  1  2  0
  3  2  1  0
  4  5  1  0
  4  3  2  0
  5  6  2  0
  6  7  1  0
  6  1  1  0
  7 12  1  0
  7  8  2  0
  8  9  1  0
  9 10  2  0
 11 10  1  0
 12 11  2  0
 13 12  1  0
 13 14  2  0
 15 14  1  0
 16 15  2  0
 17 18  2  0
 17 16  1  0
 18 13  1  0
 19 24  2  0
 20 21  2  0
 20 19  1  0
 21 22  1  0
 22 23  2  0
 24 23  1  0
  2 25  1  0
  3 26  1  0
  4 27  1  0
  5 28  1  0
  8 29  1  0
  9 30  1  0
 10 31  1  0
 11 32  1  0
 14 33  1  0
 15 34  1  0
 16 35  1  0
 17 36  1  0
 18 37  1  0
 19 38  1  0
 21 39  1  0
 23 40  1  0
M  ISO  8  25  14  26  14  27  14  28  14  29  14  30  14  31  14  32  14
M  ISO  8  33  14  34  14  35  14  36  14  37  14  38  14  39  14  40  14
M  END
>  <minimizedAffinity>  (1) 
-5.13946772

>  <minimizedRMSD>  (1) 
1.07649481

$$$$
