
     RDKit          3D

 54 57  0  0  1  0  0  0  0  0999 V2000
   41.4090   27.0180   31.3000 C   0  0  1  0  0  0  0  0  0  0  0  0
   42.0200   28.1880   30.6070 C   0  0  0  0  0  0  0  0  0  0  0  0
   43.1270   28.8460   31.3520 C   0  0  0  0  0  0  0  0  0  0  0  0
   43.9520   27.9890   32.2340 C   0  0  0  0  0  0  0  0  0  0  0  0
   43.0430   27.2470   33.1870 C   0  0  0  0  0  0  0  0  0  0  0  0
   42.2180   26.3250   32.3300 C   0  0  2  0  0  0  0  0  0  0  0  0
   43.0150   25.2020   31.8280 N   0  0  0  0  0  0  0  0  0  0  0  0
   43.7520   25.1950   30.7060 C   0  0  0  0  0  0  0  0  0  0  0  0
   44.4650   24.0770   30.3280 C   0  0  0  0  0  0  0  0  0  0  0  0
   45.2710   24.1070   29.0800 C   0  0  0  0  0  0  0  0  0  0  0  0
   44.4560   22.9220   31.0750 C   0  0  0  0  0  0  0  0  0  0  0  0
   45.0920   21.8960   30.7560 O   0  0  0  0  0  0  0  0  0  0  0  0
   43.7050   22.9690   32.1910 N   0  0  0  0  0  0  0  0  0  0  0  0
   43.0100   24.0610   32.5600 C   0  0  0  0  0  0  0  0  0  0  0  0
   42.3590   23.9090   33.6490 O   0  0  0  0  0  0  0  0  0  0  0  0
   40.0220   27.3820   31.8460 C   0  0  0  0  0  0  0  0  0  0  0  0
   38.5080   24.5710   33.7950 N   0  0  0  0  0  0  0  0  0  0  0  0
   39.2440   25.6620   33.5500 C   0  0  0  0  0  0  0  0  0  0  0  0
   39.2500   26.1850   32.2580 C   0  0  0  0  0  0  0  0  0  0  0  0
   38.4960   25.5650   31.2700 C   0  0  0  0  0  0  0  0  0  0  0  0
   38.4240   25.9490   30.0750 O   0  0  0  0  0  0  0  0  0  0  0  0
   37.7580   24.4580   31.5550 N   0  0  0  0  0  0  0  0  0  0  0  0
   37.7800   23.9860   32.8120 C   0  0  0  0  0  0  0  0  0  0  0  0
   37.1010   22.9660   33.0730 O   0  0  0  0  0  0  0  0  0  0  0  0
   37.8330   24.8000   36.0950 C   0  0  0  0  0  0  0  0  0  0  0  0
   38.5630   24.1100   35.1200 C   0  0  0  0  0  0  0  0  0  0  0  0
   39.3040   23.0010   35.5200 C   0  0  0  0  0  0  0  0  0  0  0  0
   39.2840   22.6400   36.8430 N   0  0  0  0  0  0  0  0  0  0  0  0
   38.5660   23.3330   37.7530 C   0  0  0  0  0  0  0  0  0  0  0  0
   37.8530   24.4010   37.3660 N   0  0  0  0  0  0  0  0  0  0  0  0
   38.7030   22.7670   39.0510 N   0  0  0  0  0  0  0  0  0  0  0  0
   41.3384   26.2637   30.5025 H   0  0  0  0  0  0  0  0  0  0  0  0
   42.4152   27.8446   29.6396 H   0  0  0  0  0  0  0  0  0  0  0  0
   41.2234   28.9400   30.5081 H   0  0  0  0  0  0  0  0  0  0  0  0
   43.7995   29.3023   30.6107 H   0  0  0  0  0  0  0  0  0  0  0  0
   42.6302   29.5556   32.0299 H   0  0  0  0  0  0  0  0  0  0  0  0
   44.5161   27.2674   31.6249 H   0  0  0  0  0  0  0  0  0  0  0  0
   44.6590   28.6112   32.8023 H   0  0  0  0  0  0  0  0  0  0  0  0
   43.6362   26.6690   33.9109 H   0  0  0  0  0  0  0  0  0  0  0  0
   42.4110   27.9373   33.7649 H   0  0  0  0  0  0  0  0  0  0  0  0
   41.4528   25.8847   32.9862 H   0  0  0  0  0  0  0  0  0  0  0  0
   43.7877   26.0969   30.0772 H   0  0  0  0  0  0  0  0  0  0  0  0
   46.3403   24.1468   29.3350 H   0  0  0  0  0  0  0  0  0  0  0  0
   45.0681   23.2007   28.4906 H   0  0  0  0  0  0  0  0  0  0  0  0
   45.0013   24.9957   28.4906 H   0  0  0  0  0  0  0  0  0  0  0  0
   43.6601   22.1319   32.7894 H   0  0  0  0  0  0  0  0  0  0  0  0
   40.1464   28.0407   32.7182 H   0  0  0  0  0  0  0  0  0  0  0  0
   39.4636   27.8834   31.0418 H   0  0  0  0  0  0  0  0  0  0  0  0
   39.8312   26.1354   34.3507 H   0  0  0  0  0  0  0  0  0  0  0  0
   37.1973   23.9943   30.8259 H   0  0  0  0  0  0  0  0  0  0  0  0
   37.2375   25.6796   35.8092 H   0  0  0  0  0  0  0  0  0  0  0  0
   39.8931   22.4264   34.7901 H   0  0  0  0  0  0  0  0  0  0  0  0
   38.2113   23.1893   39.8515 H   0  0  0  0  0  0  0  0  0  0  0  0
   39.2939   21.9349   39.1903 H   0  0  0  0  0  0  0  0  0  0  0  0
  1 16  1  0
  1  6  1  0
  2  1  1  0
  2  3  1  0
  3  4  1  0
  4  5  1  0
  6  5  1  0
  7  6  1  0
  7 14  1  0
  8  7  1  0
  9  8  2  0
  9 11  1  0
 10  9  1  0
 11 13  1  0
 12 11  2  0
 13 14  1  0
 14 15  2  0
 16 19  1  0
 17 26  1  0
 18 17  1  0
 19 18  2  0
 20 22  1  0
 20 19  1  0
 21 20  2  0
 22 23  1  0
 23 24  2  0
 23 17  1  0
 25 30  2  0
 26 27  2  0
 26 25  1  0
 27 28  1  0
 28 29  2  0
 29 31  1  0
 30 29  1  0
  1 32  1  6
  2 33  1  0
  2 34  1  0
  3 35  1  0
  3 36  1  0
  4 37  1  0
  4 38  1  0
  5 39  1  0
  5 40  1  0
  6 41  1  1
  8 42  1  0
 10 43  1  0
 10 44  1  0
 10 45  1  0
 13 46  1  0
 16 47  1  0
 16 48  1  0
 18 49  1  0
 22 50  1  0
 25 51  1  0
 27 52  1  0
 31 53  1  0
 31 54  1  0
M  ISO  8  32  13  33  13  34  13  35  13  36  13  37  13  38  13  39  13
M  ISO  8  40  13  41  13  42  14  43   8  44   8  45   8  46   9  47   8
M  ISO  5  48   8  49  14  50   9  51  14  52  14
M  END
>  <minimizedAffinity>  (1) 
-4.5117321

>  <minimizedRMSD>  (1) 
1.20116436

$$$$
