
     RDKit          3D

 43 46  0  0  0  0  0  0  0  0999 V2000
   38.0160   22.8490   34.6920 C   0  0  0  0  0  0  0  0  0  0  0  0
   37.6800   21.6040   34.2090 C   0  0  0  0  0  0  0  0  0  0  0  0
   37.3510   21.3610   32.8910 C   0  0  0  0  0  0  0  0  0  0  0  0
   37.3630   22.4290   32.0150 C   0  0  0  0  0  0  0  0  0  0  0  0
   37.6920   23.6640   32.4750 C   0  0  0  0  0  0  0  0  0  0  0  0
   38.0180   23.8910   33.7990 C   0  0  0  0  0  0  0  0  0  0  0  0
   38.3610   25.2160   34.2840 C   0  0  0  0  0  0  0  0  0  0  0  0
   37.2470   25.9650   34.6590 C   0  0  0  0  0  0  0  0  0  0  0  0
   37.3890   27.2770   35.1520 C   0  0  0  0  0  0  0  0  0  0  0  0
   38.6740   27.7230   35.2250 C   0  0  0  0  0  0  0  0  0  0  0  0
   39.8130   27.0120   34.8630 C   0  0  0  0  0  0  0  0  0  0  0  0
   39.6150   25.7350   34.3870 C   0  0  0  0  0  0  0  0  0  0  0  0
   40.7890   25.0400   34.0250 N   0  0  0  0  0  0  0  0  0  0  0  0
   41.1170   24.4610   32.7220 C   0  0  0  0  0  0  0  0  0  0  0  0
   41.3360   23.0090   32.9560 C   0  0  0  0  0  0  0  0  0  0  0  0
   42.5750   22.8070   33.7860 C   0  0  0  0  0  0  0  0  0  0  0  0
   42.7480   23.7700   34.8940 C   0  0  0  0  0  0  0  0  0  0  0  0
   41.8170   24.8910   35.0430 C   0  0  0  0  0  0  0  0  0  0  0  0
   37.4500   23.3740   37.1200 C   0  0  0  0  0  0  0  0  0  0  0  0
   38.3330   22.9570   36.1070 C   0  0  0  0  0  0  0  0  0  0  0  0
   39.6280   22.6260   36.5290 C   0  0  0  0  0  0  0  0  0  0  0  0
   39.9670   22.7150   37.8430 N   0  0  0  0  0  0  0  0  0  0  0  0
   39.0760   23.1200   38.7640 C   0  0  0  0  0  0  0  0  0  0  0  0
   37.8150   23.4520   38.4120 N   0  0  0  0  0  0  0  0  0  0  0  0
   37.6735   20.7576   34.9116 H   0  0  0  0  0  0  0  0  0  0  0  0
   37.0876   20.3492   32.5490 H   0  0  0  0  0  0  0  0  0  0  0  0
   37.1086   22.2808   30.9551 H   0  0  0  0  0  0  0  0  0  0  0  0
   37.6992   24.5099   31.7719 H   0  0  0  0  0  0  0  0  0  0  0  0
   36.2427   25.5254   34.5687 H   0  0  0  0  0  0  0  0  0  0  0  0
   36.5294   27.8931   35.4544 H   0  0  0  0  0  0  0  0  0  0  0  0
   38.8252   28.7434   35.6069 H   0  0  0  0  0  0  0  0  0  0  0  0
   40.8194   27.4469   34.9522 H   0  0  0  0  0  0  0  0  0  0  0  0
   42.0294   24.9239   32.3179 H   0  0  0  0  0  0  0  0  0  0  0  0
   40.3111   24.6323   31.9932 H   0  0  0  0  0  0  0  0  0  0  0  0
   40.4686   22.5899   33.4869 H   0  0  0  0  0  0  0  0  0  0  0  0
   41.4602   22.5002   31.9887 H   0  0  0  0  0  0  0  0  0  0  0  0
   42.5366   21.7953   34.2160 H   0  0  0  0  0  0  0  0  0  0  0  0
   43.4277   22.9612   33.1084 H   0  0  0  0  0  0  0  0  0  0  0  0
   43.5763   23.6447   35.6070 H   0  0  0  0  0  0  0  0  0  0  0  0
   41.8921   25.5903   35.8888 H   0  0  0  0  0  0  0  0  0  0  0  0
   36.4207   23.6469   36.8443 H   0  0  0  0  0  0  0  0  0  0  0  0
   40.3744   22.2923   35.7931 H   0  0  0  0  0  0  0  0  0  0  0  0
   39.3781   23.1820   39.8199 H   0  0  0  0  0  0  0  0  0  0  0  0
  1 20  1  0
  2  1  2  0
  3  2  1  0
  4  5  1  0
  4  3  2  0
  5  6  2  0
  6  7  1  0
  6  1  1  0
  7 12  1  0
  7  8  2  0
  8  9  1  0
  9 10  2  0
 11 10  1  0
 12 11  2  0
 13 12  1  0
 13 18  1  0
 14 15  1  0
 14 13  1  0
 15 16  1  0
 16 17  1  0
 17 18  2  0
 19 24  2  0
 20 21  2  0
 20 19  1  0
 21 22  1  0
 22 23  2  0
 24 23  1  0
  2 25  1  0
  3 26  1  0
  4 27  1  0
  5 28  1  0
  8 29  1  0
  9 30  1  0
 10 31  1  0
 11 32  1  0
 14 33  1  0
 14 34  1  0
 15 35  1  0
 15 36  1  0
 16 37  1  0
 16 38  1  0
 17 39  1  0
 18 40  1  0
 19 41  1  0
 21 42  1  0
 23 43  1  0
M  ISO  8  25  14  26  14  27  14  28  14  29  14  30  14  31  14  32  14
M  ISO  8  33  13  34  13  35  13  36  13  37  13  38  13  39  13  40  13
M  ISO  3  41  14  42  14  43  14
M  END
>  <minimizedAffinity>  (1) 
-5.05767059

>  <minimizedRMSD>  (1) 
1.09160578

$$$$
