
     RDKit          3D

 43 46  0  0  0  0  0  0  0  0999 V2000
   38.0270   22.8170   34.7700 C   0  0  0  0  0  0  0  0  0  0  0  0
   37.6900   21.5670   34.3080 C   0  0  0  0  0  0  0  0  0  0  0  0
   37.4010   21.2940   32.9840 C   0  0  0  0  0  0  0  0  0  0  0  0
   37.4570   22.3320   32.0850 C   0  0  0  0  0  0  0  0  0  0  0  0
   37.7890   23.5830   32.5200 C   0  0  0  0  0  0  0  0  0  0  0  0
   38.0740   23.8350   33.8510 C   0  0  0  0  0  0  0  0  0  0  0  0
   38.4210   25.1700   34.3100 C   0  0  0  0  0  0  0  0  0  0  0  0
   37.3060   25.9030   34.7310 C   0  0  0  0  0  0  0  0  0  0  0  0
   37.4330   27.2160   35.2090 C   0  0  0  0  0  0  0  0  0  0  0  0
   38.7330   27.6840   35.2170 C   0  0  0  0  0  0  0  0  0  0  0  0
   39.8670   26.9950   34.8100 C   0  0  0  0  0  0  0  0  0  0  0  0
   39.6700   25.7160   34.3530 C   0  0  0  0  0  0  0  0  0  0  0  0
   40.7950   24.9960   33.9220 N   0  0  0  0  0  0  0  0  0  0  0  0
   41.2050   25.0300   32.5060 C   0  0  0  0  0  0  0  0  0  0  0  0
   42.7280   25.0450   32.4000 C   0  0  0  0  0  0  0  0  0  0  0  0
   43.2610   25.6340   33.5380 O   0  0  0  0  0  0  0  0  0  0  0  0
   43.1320   24.7570   34.6120 C   0  0  0  0  0  0  0  0  0  0  0  0
   41.7420   24.1500   34.6670 C   0  0  0  0  0  0  0  0  0  0  0  0
   37.3890   23.3700   37.1660 C   0  0  0  0  0  0  0  0  0  0  0  0
   38.2990   22.9610   36.1900 C   0  0  0  0  0  0  0  0  0  0  0  0
   39.5940   22.6720   36.6510 C   0  0  0  0  0  0  0  0  0  0  0  0
   39.9030   22.7940   37.9730 N   0  0  0  0  0  0  0  0  0  0  0  0
   38.9730   23.1940   38.8590 C   0  0  0  0  0  0  0  0  0  0  0  0
   37.7270   23.4800   38.4690 N   0  0  0  0  0  0  0  0  0  0  0  0
   37.6480   20.7391   35.0310 H   0  0  0  0  0  0  0  0  0  0  0  0
   37.1344   20.2772   32.6600 H   0  0  0  0  0  0  0  0  0  0  0  0
   37.2358   22.1561   31.0219 H   0  0  0  0  0  0  0  0  0  0  0  0
   37.8310   24.4099   31.7958 H   0  0  0  0  0  0  0  0  0  0  0  0
   36.3091   25.4402   34.6863 H   0  0  0  0  0  0  0  0  0  0  0  0
   36.5762   27.8176   35.5464 H   0  0  0  0  0  0  0  0  0  0  0  0
   38.8851   28.7097   35.5843 H   0  0  0  0  0  0  0  0  0  0  0  0
   40.8681   27.4489   34.8514 H   0  0  0  0  0  0  0  0  0  0  0  0
   40.8135   24.1394   31.9926 H   0  0  0  0  0  0  0  0  0  0  0  0
   40.8029   25.9401   32.0369 H   0  0  0  0  0  0  0  0  0  0  0  0
   43.1004   24.0138   32.3112 H   0  0  0  0  0  0  0  0  0  0  0  0
   43.0300   25.6193   31.5118 H   0  0  0  0  0  0  0  0  0  0  0  0
   43.8713   23.9495   34.5055 H   0  0  0  0  0  0  0  0  0  0  0  0
   43.3009   25.3205   35.5415 H   0  0  0  0  0  0  0  0  0  0  0  0
   41.4178   24.0759   35.7155 H   0  0  0  0  0  0  0  0  0  0  0  0
   41.7665   23.1482   34.2133 H   0  0  0  0  0  0  0  0  0  0  0  0
   36.3595   23.6114   36.8631 H   0  0  0  0  0  0  0  0  0  0  0  0
   40.3656   22.3443   35.9388 H   0  0  0  0  0  0  0  0  0  0  0  0
   39.2424   23.2872   39.9214 H   0  0  0  0  0  0  0  0  0  0  0  0
  1 20  1  0
  2  1  2  0
  3  2  1  0
  4  5  1  0
  4  3  2  0
  5  6  2  0
  6  7  1  0
  6  1  1  0
  7 12  1  0
  7  8  2  0
  8  9  1  0
  9 10  2  0
 11 10  1  0
 12 11  2  0
 13 12  1  0
 13 18  1  0
 14 13  1  0
 15 14  1  0
 15 16  1  0
 16 17  1  0
 17 18  1  0
 19 24  2  0
 20 21  2  0
 20 19  1  0
 21 22  1  0
 22 23  2  0
 24 23  1  0
  2 25  1  0
  3 26  1  0
  4 27  1  0
  5 28  1  0
  8 29  1  0
  9 30  1  0
 10 31  1  0
 11 32  1  0
 14 33  1  0
 14 34  1  0
 15 35  1  0
 15 36  1  0
 17 37  1  0
 17 38  1  0
 18 39  1  0
 18 40  1  0
 19 41  1  0
 21 42  1  0
 23 43  1  0
M  ISO  8  25  14  26  14  27  14  28  14  29  14  30  14  31  14  32  14
M  ISO  8  33  13  34  13  35  13  36  13  37  13  38  13  39  13  40  13
M  ISO  3  41  14  42  14  43  14
M  END
>  <minimizedAffinity>  (1) 
-5.0017271

>  <minimizedRMSD>  (1) 
1.25216401

$$$$
