
     RDKit          3D

 38 41  0  0  0  0  0  0  0  0999 V2000
   37.9240   22.8230   34.8040 C   0  0  0  0  0  0  0  0  0  0  0  0
   37.4910   21.5880   34.3490 C   0  0  0  0  0  0  0  0  0  0  0  0
   37.1330   21.3330   33.0330 C   0  0  0  0  0  0  0  0  0  0  0  0
   37.2150   22.3650   32.1330 C   0  0  0  0  0  0  0  0  0  0  0  0
   37.6350   23.5810   32.5540 C   0  0  0  0  0  0  0  0  0  0  0  0
   37.9860   23.8220   33.8630 C   0  0  0  0  0  0  0  0  0  0  0  0
   38.4320   25.1410   34.3070 C   0  0  0  0  0  0  0  0  0  0  0  0
   37.3920   25.9110   34.8530 C   0  0  0  0  0  0  0  0  0  0  0  0
   37.6320   27.2040   35.3310 C   0  0  0  0  0  0  0  0  0  0  0  0
   38.9400   27.6200   35.2130 C   0  0  0  0  0  0  0  0  0  0  0  0
   39.9770   26.8980   34.6880 C   0  0  0  0  0  0  0  0  0  0  0  0
   39.7070   25.6330   34.2270 C   0  0  0  0  0  0  0  0  0  0  0  0
   40.7230   24.7950   33.6590 C   0  0  0  0  0  0  0  0  0  0  0  0
   41.5860   24.0320   34.4210 C   0  0  0  0  0  0  0  0  0  0  0  0
   42.5810   23.2000   33.9200 C   0  0  0  0  0  0  0  0  0  0  0  0
   42.7180   23.1310   32.5660 N   0  0  0  0  0  0  0  0  0  0  0  0
   41.8760   23.8760   31.8020 C   0  0  0  0  0  0  0  0  0  0  0  0
   40.9180   24.6750   32.3470 N   0  0  0  0  0  0  0  0  0  0  0  0
   37.3890   23.3510   37.2160 C   0  0  0  0  0  0  0  0  0  0  0  0
   38.2630   22.9470   36.2080 C   0  0  0  0  0  0  0  0  0  0  0  0
   39.5820   22.6330   36.5900 C   0  0  0  0  0  0  0  0  0  0  0  0
   39.9510   22.7330   37.9040 N   0  0  0  0  0  0  0  0  0  0  0  0
   39.0680   23.1270   38.8330 C   0  0  0  0  0  0  0  0  0  0  0  0
   37.7900   23.4380   38.5010 N   0  0  0  0  0  0  0  0  0  0  0  0
   37.4274   20.7621   35.0728 H   0  0  0  0  0  0  0  0  0  0  0  0
   36.7939   20.3342   32.7210 H   0  0  0  0  0  0  0  0  0  0  0  0
   36.9421   22.2059   31.0793 H   0  0  0  0  0  0  0  0  0  0  0  0
   37.6979   24.4035   31.8263 H   0  0  0  0  0  0  0  0  0  0  0  0
   36.3761   25.4924   34.9055 H   0  0  0  0  0  0  0  0  0  0  0  0
   36.8425   27.8354   35.7646 H   0  0  0  0  0  0  0  0  0  0  0  0
   39.1736   28.6316   35.5764 H   0  0  0  0  0  0  0  0  0  0  0  0
   40.9929   27.3169   34.6369 H   0  0  0  0  0  0  0  0  0  0  0  0
   41.4772   24.0871   35.5142 H   0  0  0  0  0  0  0  0  0  0  0  0
   43.2322   22.6201   34.5905 H   0  0  0  0  0  0  0  0  0  0  0  0
   41.9719   23.8318   30.7071 H   0  0  0  0  0  0  0  0  0  0  0  0
   36.3501   23.6043   36.9580 H   0  0  0  0  0  0  0  0  0  0  0  0
   40.3129   22.3085   35.8347 H   0  0  0  0  0  0  0  0  0  0  0  0
   39.3858   23.1994   39.8836 H   0  0  0  0  0  0  0  0  0  0  0  0
  1 20  1  0
  2  1  2  0
  3  2  1  0
  4  5  1  0
  4  3  2  0
  5  6  2  0
  6  7  1  0
  6  1  1  0
  7  8  2  0
  8  9  1  0
 10  9  2  0
 11 10  1  0
 12  7  1  0
 12 11  2  0
 13 12  1  0
 13 14  2  0
 15 14  1  0
 16 15  2  0
 17 18  2  0
 17 16  1  0
 18 13  1  0
 19 24  2  0
 20 21  2  0
 20 19  1  0
 21 22  1  0
 22 23  2  0
 24 23  1  0
  2 25  1  0
  3 26  1  0
  4 27  1  0
  5 28  1  0
  8 29  1  0
  9 30  1  0
 10 31  1  0
 11 32  1  0
 14 33  1  0
 15 34  1  0
 17 35  1  0
 19 36  1  0
 21 37  1  0
 23 38  1  0
M  ISO  8  25  14  26  14  27  14  28  14  29  14  30  14  31  14  32  14
M  ISO  6  33  14  34  14  35  14  36  14  37  14  38  14
M  END
>  <minimizedAffinity>  (1) 
-4.96838617

>  <minimizedRMSD>  (1) 
0.810140431

$$$$
