
     RDKit          3D

 37 40  0  0  0  0  0  0  0  0999 V2000
   38.1260   22.8730   34.6960 C   0  0  0  0  0  0  0  0  0  0  0  0
   37.8630   21.6220   34.1860 C   0  0  0  0  0  0  0  0  0  0  0  0
   37.6040   21.3740   32.8530 C   0  0  0  0  0  0  0  0  0  0  0  0
   37.6100   22.4510   31.9900 C   0  0  0  0  0  0  0  0  0  0  0  0
   37.8670   23.6900   32.4730 C   0  0  0  0  0  0  0  0  0  0  0  0
   38.1240   23.9200   33.8070 C   0  0  0  0  0  0  0  0  0  0  0  0
   38.3880   25.2550   34.3170 C   0  0  0  0  0  0  0  0  0  0  0  0
   37.2150   25.9660   34.6210 C   0  0  0  0  0  0  0  0  0  0  0  0
   37.2810   27.2740   35.1260 C   0  0  0  0  0  0  0  0  0  0  0  0
   38.5510   27.7670   35.2840 C   0  0  0  0  0  0  0  0  0  0  0  0
   39.7330   27.1020   34.9970 C   0  0  0  0  0  0  0  0  0  0  0  0
   39.6110   25.8260   34.5060 C   0  0  0  0  0  0  0  0  0  0  0  0
   40.8270   25.0990   34.1800 C   0  0  0  0  0  0  0  0  0  0  0  0
   41.3460   24.5470   33.0020 C   0  0  0  0  0  0  0  0  0  0  0  0
   42.5640   23.9440   33.2300 C   0  0  0  0  0  0  0  0  0  0  0  0
   42.7740   24.1360   34.5460 N   0  0  0  0  0  0  0  0  0  0  0  0
   41.7910   24.7950   35.1030 N   0  0  0  0  0  0  0  0  0  0  0  0
   37.4440   23.3850   37.0890 C   0  0  0  0  0  0  0  0  0  0  0  0
   38.3780   22.9810   36.1280 C   0  0  0  0  0  0  0  0  0  0  0  0
   39.6630   22.6570   36.5940 C   0  0  0  0  0  0  0  0  0  0  0  0
   39.9390   22.7480   37.9290 N   0  0  0  0  0  0  0  0  0  0  0  0
   39.0180   23.1370   38.8040 C   0  0  0  0  0  0  0  0  0  0  0  0
   37.7760   23.4560   38.3980 N   0  0  0  0  0  0  0  0  0  0  0  0
   37.8590   20.7698   34.8815 H   0  0  0  0  0  0  0  0  0  0  0  0
   37.4003   20.3552   32.4918 H   0  0  0  0  0  0  0  0  0  0  0  0
   37.4077   22.3044   30.9187 H   0  0  0  0  0  0  0  0  0  0  0  0
   37.8707   24.5415   31.7767 H   0  0  0  0  0  0  0  0  0  0  0  0
   36.2349   25.4928   34.4616 H   0  0  0  0  0  0  0  0  0  0  0  0
   36.3833   27.8586   35.3758 H   0  0  0  0  0  0  0  0  0  0  0  0
   38.6405   28.7905   35.6770 H   0  0  0  0  0  0  0  0  0  0  0  0
   40.7153   27.5714   35.1542 H   0  0  0  0  0  0  0  0  0  0  0  0
   40.8466   24.5893   32.0228 H   0  0  0  0  0  0  0  0  0  0  0  0
   43.2122   23.4273   32.5069 H   0  0  0  0  0  0  0  0  0  0  0  0
   43.6073   23.8043   35.0525 H   0  0  0  0  0  0  0  0  0  0  0  0
   36.4235   23.6490   36.7744 H   0  0  0  0  0  0  0  0  0  0  0  0
   40.4420   22.3321   35.8886 H   0  0  0  0  0  0  0  0  0  0  0  0
   39.2740   23.1989   39.8720 H   0  0  0  0  0  0  0  0  0  0  0  0
  1 19  1  0
  2  1  2  0
  3  2  1  0
  4  5  1  0
  4  3  2  0
  5  6  2  0
  6  7  1  0
  6  1  1  0
  7 12  1  0
  7  8  2  0
  8  9  1  0
  9 10  2  0
 11 10  1  0
 12 11  2  0
 13 12  1  0
 13 17  2  0
 14 15  2  0
 14 13  1  0
 15 16  1  0
 16 17  1  0
 18 23  2  0
 19 20  2  0
 19 18  1  0
 20 21  1  0
 21 22  2  0
 23 22  1  0
  2 24  1  0
  3 25  1  0
  4 26  1  0
  5 27  1  0
  8 28  1  0
  9 29  1  0
 10 30  1  0
 11 31  1  0
 14 32  1  0
 15 33  1  0
 16 34  1  0
 18 35  1  0
 20 36  1  0
 22 37  1  0
M  ISO  8  24  14  25  14  26  14  27  14  28  14  29  14  30  14  31  14
M  ISO  6  32  14  33  14  34   9  35  14  36  14  37  14
M  END
>  <minimizedAffinity>  (1) 
-4.95436287

>  <minimizedRMSD>  (1) 
1.11933553

$$$$
