
     RDKit          3D

 44 47  0  0  0  0  0  0  0  0999 V2000
   37.9960   22.8040   34.7820 C   0  0  0  0  0  0  0  0  0  0  0  0
   37.6420   21.5520   34.3280 C   0  0  0  0  0  0  0  0  0  0  0  0
   37.3420   21.2730   33.0120 C   0  0  0  0  0  0  0  0  0  0  0  0
   37.4030   22.3120   32.1040 C   0  0  0  0  0  0  0  0  0  0  0  0
   37.7510   23.5630   32.5290 C   0  0  0  0  0  0  0  0  0  0  0  0
   38.0490   23.8160   33.8620 C   0  0  0  0  0  0  0  0  0  0  0  0
   38.4120   25.1510   34.3130 C   0  0  0  0  0  0  0  0  0  0  0  0
   37.3140   25.9020   34.7460 C   0  0  0  0  0  0  0  0  0  0  0  0
   37.4840   27.2140   35.2130 C   0  0  0  0  0  0  0  0  0  0  0  0
   38.7910   27.6600   35.1970 C   0  0  0  0  0  0  0  0  0  0  0  0
   39.8990   26.9580   34.7810 C   0  0  0  0  0  0  0  0  0  0  0  0
   39.6700   25.6800   34.3340 C   0  0  0  0  0  0  0  0  0  0  0  0
   40.7900   24.9310   33.8880 N   0  0  0  0  0  0  0  0  0  0  0  0
   41.1630   24.8410   32.4670 C   0  0  0  0  0  0  0  0  0  0  0  0
   42.6720   24.8780   32.3470 C   0  0  0  0  0  0  0  0  0  0  0  0
   43.2980   23.7670   33.0290 N   0  0  0  0  0  0  0  0  0  0  0  0
   42.3900   23.0900   33.9250 C   0  0  0  0  0  0  0  0  0  0  0  0
   41.7220   24.1760   34.7410 C   0  0  0  0  0  0  0  0  0  0  0  0
   37.3960   23.3690   37.1900 C   0  0  0  0  0  0  0  0  0  0  0  0
   38.2820   22.9530   36.1990 C   0  0  0  0  0  0  0  0  0  0  0  0
   39.5820   22.6510   36.6440 C   0  0  0  0  0  0  0  0  0  0  0  0
   39.9120   22.7730   37.9600 N   0  0  0  0  0  0  0  0  0  0  0  0
   39.0010   23.1830   38.8590 C   0  0  0  0  0  0  0  0  0  0  0  0
   37.7510   23.4800   38.4840 N   0  0  0  0  0  0  0  0  0  0  0  0
   37.5963   20.7292   35.0567 H   0  0  0  0  0  0  0  0  0  0  0  0
   37.0634   20.2570   32.6955 H   0  0  0  0  0  0  0  0  0  0  0  0
   37.1724   22.1331   31.0434 H   0  0  0  0  0  0  0  0  0  0  0  0
   37.7961   24.3864   31.8010 H   0  0  0  0  0  0  0  0  0  0  0  0
   36.3073   25.4594   34.7201 H   0  0  0  0  0  0  0  0  0  0  0  0
   36.6464   27.8354   35.5626 H   0  0  0  0  0  0  0  0  0  0  0  0
   38.9648   28.6855   35.5549 H   0  0  0  0  0  0  0  0  0  0  0  0
   40.9083   27.3947   34.8051 H   0  0  0  0  0  0  0  0  0  0  0  0
   40.7831   23.8987   32.0455 H   0  0  0  0  0  0  0  0  0  0  0  0
   40.7267   25.6868   31.9153 H   0  0  0  0  0  0  0  0  0  0  0  0
   42.9444   24.8397   31.2820 H   0  0  0  0  0  0  0  0  0  0  0  0
   43.0270   25.8076   32.8159 H   0  0  0  0  0  0  0  0  0  0  0  0
   43.6328   23.0931   32.3257 H   0  0  0  0  0  0  0  0  0  0  0  0
   41.6391   22.5250   33.3532 H   0  0  0  0  0  0  0  0  0  0  0  0
   42.9193   22.3711   34.5676 H   0  0  0  0  0  0  0  0  0  0  0  0
   42.4876   24.8578   35.1398 H   0  0  0  0  0  0  0  0  0  0  0  0
   41.1670   23.7187   35.5734 H   0  0  0  0  0  0  0  0  0  0  0  0
   36.3634   23.6172   36.9035 H   0  0  0  0  0  0  0  0  0  0  0  0
   40.3398   22.3129   35.9219 H   0  0  0  0  0  0  0  0  0  0  0  0
   39.2865   23.2757   39.9172 H   0  0  0  0  0  0  0  0  0  0  0  0
  1 20  1  0
  2  1  2  0
  3  2  1  0
  4  5  1  0
  4  3  2  0
  5  6  2  0
  6  7  1  0
  6  1  1  0
  7 12  1  0
  7  8  2  0
  8  9  1  0
 10  9  2  0
 11 10  1  0
 12 11  2  0
 13 12  1  0
 13 18  1  0
 14 13  1  0
 15 14  1  0
 15 16  1  0
 16 17  1  0
 17 18  1  0
 19 24  2  0
 20 21  2  0
 20 19  1  0
 21 22  1  0
 22 23  2  0
 24 23  1  0
  2 25  1  0
  3 26  1  0
  4 27  1  0
  5 28  1  0
  8 29  1  0
  9 30  1  0
 10 31  1  0
 11 32  1  0
 14 33  1  0
 14 34  1  0
 15 35  1  0
 15 36  1  0
 16 37  1  0
 17 38  1  0
 17 39  1  0
 18 40  1  0
 18 41  1  0
 19 42  1  0
 21 43  1  0
 23 44  1  0
M  ISO  8  25  14  26  14  27  14  28  14  29  14  30  14  31  14  32  14
M  ISO  8  33  13  34  13  35  13  36  13  37   5  38  13  39  13  40  13
M  ISO  4  41  13  42  14  43  14  44  14
M  END
>  <minimizedAffinity>  (1) 
-4.93849421

>  <minimizedRMSD>  (1) 
1.08648098

$$$$
