
     RDKit          3D

 53 56  0  0  1  0  0  0  0  0999 V2000
   39.9520   27.4980   31.9100 C   0  0  0  0  0  0  0  0  0  0  0  0
   41.2310   27.1700   31.1440 C   0  0  1  0  0  0  0  0  0  0  0  0
   41.7220   28.3430   30.3730 C   0  0  0  0  0  0  0  0  0  0  0  0
   42.8660   29.0890   30.9890 C   0  0  0  0  0  0  0  0  0  0  0  0
   43.8360   28.2760   31.7770 C   0  0  0  0  0  0  0  0  0  0  0  0
   43.1110   27.4060   32.7790 C   0  0  0  0  0  0  0  0  0  0  0  0
   42.2190   26.4840   32.0120 C   0  0  2  0  0  0  0  0  0  0  0  0
   43.1190   25.5920   31.2740 N   0  0  0  0  0  0  0  0  0  0  0  0
   44.4050   26.1920   31.0490 C   0  0  0  0  0  0  0  0  0  0  0  0
   44.9480   25.5170   29.7940 C   0  0  0  0  0  0  0  0  0  0  0  0
   43.6950   25.3940   28.9690 C   0  0  0  0  0  0  0  0  0  0  0  0
   42.5410   25.4320   29.9440 C   0  0  0  0  0  0  0  0  0  0  0  0
   38.5090   24.5880   33.7940 N   0  0  0  0  0  0  0  0  0  0  0  0
   39.2060   25.6980   33.5750 C   0  0  0  0  0  0  0  0  0  0  0  0
   39.2170   26.2620   32.2980 C   0  0  0  0  0  0  0  0  0  0  0  0
   38.4890   25.6350   31.2950 C   0  0  0  0  0  0  0  0  0  0  0  0
   38.4200   26.0430   30.1110 O   0  0  0  0  0  0  0  0  0  0  0  0
   37.7810   24.4930   31.5540 N   0  0  0  0  0  0  0  0  0  0  0  0
   37.8150   24.0070   32.8010 C   0  0  0  0  0  0  0  0  0  0  0  0
   37.1670   22.9550   33.0540 O   0  0  0  0  0  0  0  0  0  0  0  0
   37.8260   24.7860   36.1030 C   0  0  0  0  0  0  0  0  0  0  0  0
   38.5740   24.1120   35.1210 C   0  0  0  0  0  0  0  0  0  0  0  0
   39.3280   23.0200   35.5210 C   0  0  0  0  0  0  0  0  0  0  0  0
   39.2980   22.6660   36.8460 N   0  0  0  0  0  0  0  0  0  0  0  0
   38.5770   23.3250   37.7620 C   0  0  0  0  0  0  0  0  0  0  0  0
   37.8460   24.3820   37.3780 N   0  0  0  0  0  0  0  0  0  0  0  0
   38.7070   22.7750   39.0520 N   0  0  0  0  0  0  0  0  0  0  0  0
   39.3019   28.1155   31.2728 H   0  0  0  0  0  0  0  0  0  0  0  0
   40.2277   28.0384   32.8275 H   0  0  0  0  0  0  0  0  0  0  0  0
   41.0134   26.4266   30.3630 H   0  0  0  0  0  0  0  0  0  0  0  0
   40.8839   29.0456   30.2552 H   0  0  0  0  0  0  0  0  0  0  0  0
   42.1018   27.9409   29.4222 H   0  0  0  0  0  0  0  0  0  0  0  0
   43.4221   29.5802   30.1769 H   0  0  0  0  0  0  0  0  0  0  0  0
   42.4097   29.7825   31.7107 H   0  0  0  0  0  0  0  0  0  0  0  0
   44.4115   27.6359   31.0921 H   0  0  0  0  0  0  0  0  0  0  0  0
   44.5099   28.9555   32.3194 H   0  0  0  0  0  0  0  0  0  0  0  0
   43.8371   26.8241   33.3657 H   0  0  0  0  0  0  0  0  0  0  0  0
   42.5235   28.0235   33.4744 H   0  0  0  0  0  0  0  0  0  0  0  0
   41.5691   25.9217   32.6987 H   0  0  0  0  0  0  0  0  0  0  0  0
   44.3025   27.2757   30.8903 H   0  0  0  0  0  0  0  0  0  0  0  0
   45.0765   26.0593   31.9101 H   0  0  0  0  0  0  0  0  0  0  0  0
   45.7018   26.1422   29.2930 H   0  0  0  0  0  0  0  0  0  0  0  0
   45.4643   24.5635   29.9792 H   0  0  0  0  0  0  0  0  0  0  0  0
   43.6222   26.2315   28.2595 H   0  0  0  0  0  0  0  0  0  0  0  0
   43.6922   24.4639   28.3816 H   0  0  0  0  0  0  0  0  0  0  0  0
   41.8787   26.2797   29.7143 H   0  0  0  0  0  0  0  0  0  0  0  0
   41.9411   24.5121   29.8821 H   0  0  0  0  0  0  0  0  0  0  0  0
   39.7700   26.1688   34.3937 H   0  0  0  0  0  0  0  0  0  0  0  0
   37.2400   24.0230   30.8142 H   0  0  0  0  0  0  0  0  0  0  0  0
   37.2167   25.6566   35.8189 H   0  0  0  0  0  0  0  0  0  0  0  0
   39.9327   22.4538   34.7973 H   0  0  0  0  0  0  0  0  0  0  0  0
   38.1999   23.1946   39.8443 H   0  0  0  0  0  0  0  0  0  0  0  0
   39.3092   21.9531   39.2032 H   0  0  0  0  0  0  0  0  0  0  0  0
  1 15  1  0
  2  1  1  0
  2  7  1  0
  3  4  1  0
  3  2  1  0
  4  5  1  0
  5  6  1  0
  7  6  1  0
  8  9  1  0
  8  7  1  0
 10  9  1  0
 11 10  1  0
 11 12  1  0
 12  8  1  0
 13 22  1  0
 14 13  1  0
 15 14  2  0
 16 18  1  0
 16 15  1  0
 17 16  2  0
 18 19  1  0
 19 20  2  0
 19 13  1  0
 21 26  2  0
 22 23  2  0
 22 21  1  0
 23 24  1  0
 24 25  2  0
 25 27  1  0
 26 25  1  0
  1 28  1  0
  1 29  1  0
  2 30  1  6
  3 31  1  0
  3 32  1  0
  4 33  1  0
  4 34  1  0
  5 35  1  0
  5 36  1  0
  6 37  1  0
  6 38  1  0
  7 39  1  1
  9 40  1  0
  9 41  1  0
 10 42  1  0
 10 43  1  0
 11 44  1  0
 11 45  1  0
 12 46  1  0
 12 47  1  0
 14 48  1  0
 18 49  1  0
 21 50  1  0
 23 51  1  0
 27 52  1  0
 27 53  1  0
M  ISO  8  28   8  29   8  30  13  31  13  32  13  33  13  34  13  35  13
M  ISO  8  36  13  37  13  38  13  39  13  40  13  41  13  42  13  43  13
M  ISO  8  44  13  45  13  46  13  47  13  48  14  49   9  50  14  51  14
M  END
>  <minimizedAffinity>  (1) 
-4.47227335

>  <minimizedRMSD>  (1) 
0.114359081

$$$$
