
     RDKit          3D

 39 41  0  0  0  0  0  0  0  0999 V2000
   38.0370   22.8420   34.7440 C   0  0  0  0  0  0  0  0  0  0  0  0
   37.6980   21.5870   34.2560 C   0  0  0  0  0  0  0  0  0  0  0  0
   37.3900   21.3370   32.9330 C   0  0  0  0  0  0  0  0  0  0  0  0
   37.4200   22.3960   32.0520 C   0  0  0  0  0  0  0  0  0  0  0  0
   37.7480   23.6370   32.5020 C   0  0  0  0  0  0  0  0  0  0  0  0
   38.0520   23.8620   33.8240 C   0  0  0  0  0  0  0  0  0  0  0  0
   38.4020   25.1920   34.3020 C   0  0  0  0  0  0  0  0  0  0  0  0
   37.2840   25.9540   34.6630 C   0  0  0  0  0  0  0  0  0  0  0  0
   37.4080   27.2570   35.1530 C   0  0  0  0  0  0  0  0  0  0  0  0
   38.7120   27.7030   35.2400 C   0  0  0  0  0  0  0  0  0  0  0  0
   39.8490   26.9900   34.8960 C   0  0  0  0  0  0  0  0  0  0  0  0
   39.6580   25.7140   34.4210 C   0  0  0  0  0  0  0  0  0  0  0  0
   40.7910   24.8750   34.0040 C   0  0  0  0  0  0  0  0  0  0  0  0
   41.2180   25.4200   32.6290 C   0  0  0  0  0  0  0  0  0  0  0  0
   41.9650   25.0390   34.9380 C   0  0  0  0  0  0  0  0  0  0  0  0
   37.4290   23.3410   37.1460 C   0  0  0  0  0  0  0  0  0  0  0  0
   38.3300   22.9550   36.1580 C   0  0  0  0  0  0  0  0  0  0  0  0
   39.6350   22.6540   36.5890 C   0  0  0  0  0  0  0  0  0  0  0  0
   39.9540   22.7510   37.9090 N   0  0  0  0  0  0  0  0  0  0  0  0
   39.0330   23.1310   38.8120 C   0  0  0  0  0  0  0  0  0  0  0  0
   37.7800   23.4240   38.4420 N   0  0  0  0  0  0  0  0  0  0  0  0
   37.6734   20.7445   34.9628 H   0  0  0  0  0  0  0  0  0  0  0  0
   37.1289   20.3239   32.5932 H   0  0  0  0  0  0  0  0  0  0  0  0
   37.1799   22.2386   30.9901 H   0  0  0  0  0  0  0  0  0  0  0  0
   37.7705   24.4782   31.7935 H   0  0  0  0  0  0  0  0  0  0  0  0
   36.2808   25.5151   34.5581 H   0  0  0  0  0  0  0  0  0  0  0  0
   36.5438   27.8725   35.4435 H   0  0  0  0  0  0  0  0  0  0  0  0
   38.8628   28.7244   35.6196 H   0  0  0  0  0  0  0  0  0  0  0  0
   40.8549   27.4234   34.9979 H   0  0  0  0  0  0  0  0  0  0  0  0
   40.4989   23.8145   33.9944 H   0  0  0  0  0  0  0  0  0  0  0  0
   41.8910   26.2790   32.7679 H   0  0  0  0  0  0  0  0  0  0  0  0
   41.7411   24.6313   32.0683 H   0  0  0  0  0  0  0  0  0  0  0  0
   40.3271   25.7392   32.0683 H   0  0  0  0  0  0  0  0  0  0  0  0
   41.6146   24.9900   35.9795 H   0  0  0  0  0  0  0  0  0  0  0  0
   42.6923   24.2337   34.7576 H   0  0  0  0  0  0  0  0  0  0  0  0
   42.4438   26.0128   34.7576 H   0  0  0  0  0  0  0  0  0  0  0  0
   36.3961   23.5862   36.8578 H   0  0  0  0  0  0  0  0  0  0  0  0
   40.3969   22.3406   35.8601 H   0  0  0  0  0  0  0  0  0  0  0  0
   39.3138   23.2024   39.8731 H   0  0  0  0  0  0  0  0  0  0  0  0
  1 17  1  0
  2  1  2  0
  3  2  1  0
  4  5  1  0
  4  3  2  0
  5  6  2  0
  6  7  1  0
  6  1  1  0
  7 12  1  0
  7  8  2  0
  8  9  1  0
  9 10  2  0
 11 10  1  0
 12 11  2  0
 13 12  1  0
 13 15  1  0
 14 13  1  0
 16 21  2  0
 17 18  2  0
 17 16  1  0
 18 19  1  0
 19 20  2  0
 21 20  1  0
  2 22  1  0
  3 23  1  0
  4 24  1  0
  5 25  1  0
  8 26  1  0
  9 27  1  0
 10 28  1  0
 11 29  1  0
 13 30  1  0
 14 31  1  0
 14 32  1  0
 14 33  1  0
 15 34  1  0
 15 35  1  0
 15 36  1  0
 16 37  1  0
 18 38  1  0
 20 39  1  0
M  ISO  8  22  14  23  14  24  14  25  14  26  14  27  14  28  14  29  14
M  ISO  8  30   8  31   8  32   8  33   8  34   8  35   8  36   8  37  14
M  ISO  2  38  14  39  14
M  END
>  <minimizedAffinity>  (1) 
-4.8756547

>  <minimizedRMSD>  (1) 
0.802985907

$$$$
