
     RDKit          3D

 31 33  0  0  0  0  0  0  0  0999 V2000
   37.8220   22.7080   34.7720 C   0  0  0  0  0  0  0  0  0  0  0  0
   37.1470   21.5490   34.4670 C   0  0  0  0  0  0  0  0  0  0  0  0
   36.7070   21.2250   33.1940 C   0  0  0  0  0  0  0  0  0  0  0  0
   36.9660   22.1210   32.1830 C   0  0  0  0  0  0  0  0  0  0  0  0
   37.6290   23.2670   32.4600 C   0  0  0  0  0  0  0  0  0  0  0  0
   38.0540   23.5620   33.7340 C   0  0  0  0  0  0  0  0  0  0  0  0
   38.7720   24.8070   34.0240 C   0  0  0  0  0  0  0  0  0  0  0  0
   37.9230   25.8540   34.4100 C   0  0  0  0  0  0  0  0  0  0  0  0
   38.4390   27.1180   34.7250 C   0  0  0  0  0  0  0  0  0  0  0  0
   39.7910   27.2220   34.6230 C   0  0  0  0  0  0  0  0  0  0  0  0
   40.6640   26.2320   34.2510 C   0  0  0  0  0  0  0  0  0  0  0  0
   40.1370   24.9990   33.9460 C   0  0  0  0  0  0  0  0  0  0  0  0
   40.8520   23.8750   33.5500 O   0  0  0  0  0  0  0  0  0  0  0  0
   37.4340   23.4790   37.1540 C   0  0  0  0  0  0  0  0  0  0  0  0
   38.2230   22.9130   36.1590 C   0  0  0  0  0  0  0  0  0  0  0  0
   39.5180   22.5060   36.5290 C   0  0  0  0  0  0  0  0  0  0  0  0
   39.9210   22.6860   37.8200 N   0  0  0  0  0  0  0  0  0  0  0  0
   39.1180   23.2370   38.7380 C   0  0  0  0  0  0  0  0  0  0  0  0
   37.8790   23.6340   38.4160 N   0  0  0  0  0  0  0  0  0  0  0  0
   36.9448   20.8379   35.2815 H   0  0  0  0  0  0  0  0  0  0  0  0
   36.1699   20.2851   32.9987 H   0  0  0  0  0  0  0  0  0  0  0  0
   36.6360   21.9069   31.1557 H   0  0  0  0  0  0  0  0  0  0  0  0
   37.8329   23.9796   31.6472 H   0  0  0  0  0  0  0  0  0  0  0  0
   36.8382   25.6809   34.4662 H   0  0  0  0  0  0  0  0  0  0  0  0
   37.8006   27.9600   35.0308 H   0  0  0  0  0  0  0  0  0  0  0  0
   40.2298   28.2015   34.8638 H   0  0  0  0  0  0  0  0  0  0  0  0
   41.7470   26.4175   34.1985 H   0  0  0  0  0  0  0  0  0  0  0  0
   41.8375   23.9193   33.4663 H   0  0  0  0  0  0  0  0  0  0  0  0
   36.4155   23.8103   36.9031 H   0  0  0  0  0  0  0  0  0  0  0  0
   40.1938   22.0506   35.7902 H   0  0  0  0  0  0  0  0  0  0  0  0
   39.4791   23.3656   39.7690 H   0  0  0  0  0  0  0  0  0  0  0  0
  1 15  1  0
  2  1  2  0
  3  2  1  0
  4  5  1  0
  4  3  2  0
  5  6  2  0
  6  7  1  0
  6  1  1  0
  7  8  2  0
  8  9  1  0
 10  9  2  0
 11 10  1  0
 12  7  1  0
 12 11  2  0
 13 12  1  0
 14 19  2  0
 15 16  2  0
 15 14  1  0
 16 17  1  0
 17 18  2  0
 19 18  1  0
  2 20  1  0
  3 21  1  0
  4 22  1  0
  5 23  1  0
  8 24  1  0
  9 25  1  0
 10 26  1  0
 11 27  1  0
 13 28  1  0
 14 29  1  0
 16 30  1  0
 18 31  1  0
M  ISO  8  20  14  21  14  22  14  23  14  24  14  25  14  26  14  27  14
M  ISO  4  28   3  29  14  30  14  31  14
M  END
>  <minimizedAffinity>  (1) 
-4.78165579

>  <minimizedRMSD>  (1) 
0.00866106339

$$$$
