
     RDKit          3D

 32 34  0  0  0  0  0  0  0  0999 V2000
   37.8160   22.7200   34.8070 C   0  0  0  0  0  0  0  0  0  0  0  0
   37.1390   21.5530   34.4980 C   0  0  0  0  0  0  0  0  0  0  0  0
   36.7000   21.2290   33.2370 C   0  0  0  0  0  0  0  0  0  0  0  0
   36.9550   22.1260   32.2190 C   0  0  0  0  0  0  0  0  0  0  0  0
   37.6180   23.2780   32.4970 C   0  0  0  0  0  0  0  0  0  0  0  0
   38.0470   23.5800   33.7760 C   0  0  0  0  0  0  0  0  0  0  0  0
   38.7580   24.8190   34.0610 C   0  0  0  0  0  0  0  0  0  0  0  0
   37.9110   25.8500   34.4870 C   0  0  0  0  0  0  0  0  0  0  0  0
   38.4380   27.1160   34.8050 C   0  0  0  0  0  0  0  0  0  0  0  0
   39.7930   27.2290   34.6610 C   0  0  0  0  0  0  0  0  0  0  0  0
   40.6580   26.2480   34.2480 C   0  0  0  0  0  0  0  0  0  0  0  0
   40.1040   25.0320   33.9490 C   0  0  0  0  0  0  0  0  0  0  0  0
   40.9110   23.9310   33.5080 C   0  0  0  0  0  0  0  0  0  0  0  0
   41.9260   23.5450   34.1580 O   0  0  0  0  0  0  0  0  0  0  0  0
   37.4240   23.4930   37.1930 C   0  0  0  0  0  0  0  0  0  0  0  0
   38.2160   22.9220   36.1910 C   0  0  0  0  0  0  0  0  0  0  0  0
   39.5270   22.5060   36.5620 C   0  0  0  0  0  0  0  0  0  0  0  0
   39.9360   22.6830   37.8570 N   0  0  0  0  0  0  0  0  0  0  0  0
   39.1280   23.2340   38.7640 C   0  0  0  0  0  0  0  0  0  0  0  0
   37.8900   23.6380   38.4510 N   0  0  0  0  0  0  0  0  0  0  0  0
   36.9401   20.8408   35.3124 H   0  0  0  0  0  0  0  0  0  0  0  0
   36.1641   20.2877   33.0453 H   0  0  0  0  0  0  0  0  0  0  0  0
   36.6243   21.9096   31.1925 H   0  0  0  0  0  0  0  0  0  0  0  0
   37.8191   23.9898   31.6828 H   0  0  0  0  0  0  0  0  0  0  0  0
   36.8293   25.6696   34.5734 H   0  0  0  0  0  0  0  0  0  0  0  0
   37.8074   27.9512   35.1437 H   0  0  0  0  0  0  0  0  0  0  0  0
   40.2348   28.2073   34.9011 H   0  0  0  0  0  0  0  0  0  0  0  0
   41.7396   26.4285   34.1615 H   0  0  0  0  0  0  0  0  0  0  0  0
   40.6401   23.4077   32.5791 H   0  0  0  0  0  0  0  0  0  0  0  0
   36.4049   23.8292   36.9514 H   0  0  0  0  0  0  0  0  0  0  0  0
   40.1997   22.0501   35.8206 H   0  0  0  0  0  0  0  0  0  0  0  0
   39.4878   23.3599   39.7959 H   0  0  0  0  0  0  0  0  0  0  0  0
  1 16  1  0
  2  1  2  0
  3  2  1  0
  4  5  1  0
  4  3  2  0
  5  6  2  0
  6  7  1  0
  6  1  1  0
  7  8  2  0
  8  9  1  0
 10  9  2  0
 11 10  1  0
 12  7  1  0
 12 11  2  0
 13 12  1  0
 13 14  2  0
 15 20  2  0
 16 17  2  0
 16 15  1  0
 17 18  1  0
 18 19  2  0
 20 19  1  0
  2 21  1  0
  3 22  1  0
  4 23  1  0
  5 24  1  0
  8 25  1  0
  9 26  1  0
 10 27  1  0
 11 28  1  0
 13 29  1  0
 15 30  1  0
 17 31  1  0
 19 32  1  0
M  ISO  8  21  14  22  14  23  14  24  14  25  14  26  14  27  14  28  14
M  ISO  4  29   6  30  14  31  14  32  14
M  END
>  <minimizedAffinity>  (1) 
-4.67374563

>  <minimizedRMSD>  (1) 
0.119370736

$$$$
