
     RDKit          3D

 20 21  0  0  0  0  0  0  0  0999 V2000
   38.3640   23.8380   37.7500 C   0  0  0  0  0  0  0  0  0  0  0  0
   38.5610   24.2350   36.4150 C   0  0  0  0  0  0  0  0  0  0  0  0
   39.7040   23.7840   35.7370 C   0  0  0  0  0  0  0  0  0  0  0  0
   40.5620   22.9760   36.4340 N   0  0  0  0  0  0  0  0  0  0  0  0
   40.3280   22.6240   37.7120 C   0  0  0  0  0  0  0  0  0  0  0  0
   39.2310   23.0410   38.4040 N   0  0  0  0  0  0  0  0  0  0  0  0
   37.5750   25.1020   35.7720 C   0  0  0  0  0  0  0  0  0  0  0  0
   38.2320   26.2410   34.9900 C   0  0  0  0  0  0  0  0  0  0  0  0
   37.4160   27.5320   35.0190 C   0  0  0  0  0  0  0  0  0  0  0  0
   38.7130   27.4300   35.7390 C   0  0  0  0  0  0  0  0  0  0  0  0
   37.4676   24.1919   38.2803 H   0  0  0  0  0  0  0  0  0  0  0  0
   39.9017   24.0669   34.6926 H   0  0  0  0  0  0  0  0  0  0  0  0
   41.0538   21.9716   38.2195 H   0  0  0  0  0  0  0  0  0  0  0  0
   36.9707   24.4985   35.0788 H   0  0  0  0  0  0  0  0  0  0  0  0
   36.9516   25.5485   36.5607 H   0  0  0  0  0  0  0  0  0  0  0  0
   38.6969   25.5862   34.2383 H   0  0  0  0  0  0  0  0  0  0  0  0
   37.3329   28.1537   34.1154 H   0  0  0  0  0  0  0  0  0  0  0  0
   36.3859   27.8018   35.2947 H   0  0  0  0  0  0  0  0  0  0  0  0
   38.7257   27.4126   36.8388 H   0  0  0  0  0  0  0  0  0  0  0  0
   39.6432   28.0171   35.7301 H   0  0  0  0  0  0  0  0  0  0  0  0
  1  6  2  0
  2  1  1  0
  3  2  2  0
  3  4  1  0
  4  5  2  0
  5  6  1  0
  7  2  1  0
  8  9  1  0
  8 10  1  0
  8  7  1  0
  9 10  1  0
  1 11  1  0
  3 12  1  0
  5 13  1  0
  7 14  1  0
  7 15  1  0
  8 16  1  0
  9 17  1  0
  9 18  1  0
 10 19  1  0
 10 20  1  0
M  ISO  8  11  14  12  14  13  14  14   8  15   8  16  13  17  13  18  13
M  ISO  2  19  13  20  13
M  END
>  <minimizedAffinity>  (1) 
-3.33874607

>  <minimizedRMSD>  (1) 
2.93073606

$$$$
