
     RDKit          3D

 17 17  0  0  0  0  0  0  0  0999 V2000
   40.5020   24.5470   35.1180 C   0  0  0  0  0  0  0  0  0  0  0  0
   39.2100   24.7260   35.6290 C   0  0  0  0  0  0  0  0  0  0  0  0
   38.6540   25.9990   35.6100 C   0  0  0  0  0  0  0  0  0  0  0  0
   39.4130   27.0130   35.0880 N   0  0  0  0  0  0  0  0  0  0  0  0
   40.6390   26.8120   34.6100 C   0  0  0  0  0  0  0  0  0  0  0  0
   41.2380   25.5830   34.6010 N   0  0  0  0  0  0  0  0  0  0  0  0
   38.5200   23.5550   36.1520 C   0  0  0  0  0  0  0  0  0  0  0  0
   37.5730   23.9150   37.0760 O   0  0  0  0  0  0  0  0  0  0  0  0
   38.0580   23.6740   38.3690 C   0  0  0  0  0  0  0  0  0  0  0  0
   38.0580   24.8220   39.1340 F   0  0  0  0  0  0  0  0  0  0  0  0
   39.3270   23.1550   38.3760 F   0  0  0  0  0  0  0  0  0  0  0  0
   37.2260   22.7770   39.0090 F   0  0  0  0  0  0  0  0  0  0  0  0
   40.9424   23.5391   35.1318 H   0  0  0  0  0  0  0  0  0  0  0  0
   37.6423   26.1857   35.9995 H   0  0  0  0  0  0  0  0  0  0  0  0
   41.1938   27.6712   34.2050 H   0  0  0  0  0  0  0  0  0  0  0  0
   38.0296   23.0257   35.3217 H   0  0  0  0  0  0  0  0  0  0  0  0
   39.2580   22.9030   36.6421 H   0  0  0  0  0  0  0  0  0  0  0  0
  1  2  2  0
  2  7  1  0
  3  2  1  0
  4  3  2  0
  5  4  1  0
  6  5  2  0
  6  1  1  0
  7  8  1  0
  8  9  1  0
  9 11  1  0
  9 12  1  0
  9 10  1  0
  1 13  1  0
  3 14  1  0
  5 15  1  0
  7 16  1  0
  7 17  1  0
M  ISO  5  13  14  14  14  15  14  16   8  17   8
M  END
>  <minimizedAffinity>  (1) 
-3.79025674

>  <minimizedRMSD>  (1) 
3.22669649

$$$$
