
     RDKit          3D

 28 30  0  0  0  0  0  0  0  0999 V2000
   36.8710   25.8850   32.1540 C   0  0  0  0  0  0  0  0  0  0  0  0
   37.8640   24.6200   34.0070 C   0  0  0  0  0  0  0  0  0  0  0  0
   38.0410   25.5070   32.9300 C   0  0  0  0  0  0  0  0  0  0  0  0
   39.3240   25.9850   32.6520 C   0  0  0  0  0  0  0  0  0  0  0  0
   40.3550   25.5590   33.4530 N   0  0  0  0  0  0  0  0  0  0  0  0
   40.1440   24.7110   34.4710 C   0  0  0  0  0  0  0  0  0  0  0  0
   38.9260   24.2260   34.7750 N   0  0  0  0  0  0  0  0  0  0  0  0
   36.8820   25.2830   30.9130 O   0  0  0  0  0  0  0  0  0  0  0  0
   37.4050   24.0070   30.7480 C   0  0  0  0  0  0  0  0  0  0  0  0
   38.6710   23.7050   30.2340 C   0  0  0  0  0  0  0  0  0  0  0  0
   38.7680   22.3660   30.2490 N   0  0  0  0  0  0  0  0  0  0  0  0
   37.6380   21.8390   30.7420 C   0  0  0  0  0  0  0  0  0  0  0  0
   37.2350   20.5400   30.9620 C   0  0  0  0  0  0  0  0  0  0  0  0
   35.9800   20.3010   31.4960 C   0  0  0  0  0  0  0  0  0  0  0  0
   35.0750   21.2840   31.8310 C   0  0  0  0  0  0  0  0  0  0  0  0
   35.4900   22.5940   31.6040 C   0  0  0  0  0  0  0  0  0  0  0  0
   36.7400   22.8400   31.0740 C   0  0  0  0  0  0  0  0  0  0  0  0
   35.9652   25.5749   32.6956 H   0  0  0  0  0  0  0  0  0  0  0  0
   36.8830   26.9759   32.0130 H   0  0  0  0  0  0  0  0  0  0  0  0
   36.8581   24.2377   34.2352 H   0  0  0  0  0  0  0  0  0  0  0  0
   39.5026   26.6802   31.8184 H   0  0  0  0  0  0  0  0  0  0  0  0
   41.0030   24.3989   35.0832 H   0  0  0  0  0  0  0  0  0  0  0  0
   39.4322   24.4196   29.8879 H   0  0  0  0  0  0  0  0  0  0  0  0
   39.5854   21.8262   29.9305 H   0  0  0  0  0  0  0  0  0  0  0  0
   37.9032   19.7016   30.7160 H   0  0  0  0  0  0  0  0  0  0  0  0
   35.6855   19.2546   31.6642 H   0  0  0  0  0  0  0  0  0  0  0  0
   34.0861   21.0490   32.2516 H   0  0  0  0  0  0  0  0  0  0  0  0
   34.8211   23.4327   31.8473 H   0  0  0  0  0  0  0  0  0  0  0  0
  1  3  1  0
  2  7  2  0
  3  2  1  0
  4  3  2  0
  4  5  1  0
  5  6  2  0
  6  7  1  0
  8  1  1  0
  9  8  1  0
  9 17  1  0
 10 11  1  0
 10  9  2  0
 11 12  1  0
 12 13  1  0
 12 17  2  0
 13 14  2  0
 14 15  1  0
 16 15  2  0
 17 16  1  0
  1 18  1  0
  1 19  1  0
  2 20  1  0
  4 21  1  0
  6 22  1  0
 10 23  1  0
 11 24  1  0
 13 25  1  0
 14 26  1  0
 15 27  1  0
 16 28  1  0
M  ISO  8  18   8  19   8  20  14  21  14  22  14  23  14  24   9  25  14
M  ISO  3  26  14  27  14  28  14
M  END
>  <minimizedAffinity>  (1) 
-3.48594499

>  <minimizedRMSD>  (1) 
8.22816086

$$$$
