
     RDKit          3D

 17 17  0  0  0  0  0  0  0  0999 V2000
   38.3330   26.7950   36.0750 C   0  0  0  0  0  0  0  0  0  0  0  0
   38.3290   25.5070   35.4760 C   0  0  0  0  0  0  0  0  0  0  0  0
   37.7040   25.3480   34.2470 C   0  0  0  0  0  0  0  0  0  0  0  0
   37.1060   26.4510   33.6540 N   0  0  0  0  0  0  0  0  0  0  0  0
   37.1480   27.6340   34.2750 C   0  0  0  0  0  0  0  0  0  0  0  0
   37.7410   27.8610   35.4730 N   0  0  0  0  0  0  0  0  0  0  0  0
   38.9790   24.4060   36.1680 C   0  0  0  0  0  0  0  0  0  0  0  0
   38.0620   23.6520   36.8490 O   0  0  0  0  0  0  0  0  0  0  0  0
   37.8510   23.6770   38.2110 C   0  0  0  0  0  0  0  0  0  0  0  0
   38.0290   24.7020   38.8820 O   0  0  0  0  0  0  0  0  0  0  0  0
   37.4300   22.4940   38.7870 O   0  0  0  0  0  0  0  0  0  0  0  0
   38.8264   26.9333   37.0484 H   0  0  0  0  0  0  0  0  0  0  0  0
   37.6830   24.3658   33.7521 H   0  0  0  0  0  0  0  0  0  0  0  0
   36.6652   28.4875   33.7766 H   0  0  0  0  0  0  0  0  0  0  0  0
   39.4933   23.7706   35.4320 H   0  0  0  0  0  0  0  0  0  0  0  0
   39.7011   24.8187   36.8879 H   0  0  0  0  0  0  0  0  0  0  0  0
   37.2619   22.4503   39.7616 H   0  0  0  0  0  0  0  0  0  0  0  0
  2  1  2  0
  2  7  1  0
  3  2  1  0
  4  3  2  0
  4  5  1  0
  5  6  2  0
  6  1  1  0
  7  8  1  0
  8  9  1  0
  9 11  1  0
  9 10  2  0
  1 12  1  0
  3 13  1  0
  5 14  1  0
  7 15  1  0
  7 16  1  0
 11 17  1  0
M  ISO  6  12  14  13  14  14  14  15   8  16   8  17   3
M  END
>  <minimizedAffinity>  (1) 
-3.44729161

>  <minimizedRMSD>  (1) 
4.28464317

$$$$
