
     RDKit          3D

 21 22  0  0  0  0  0  0  0  0999 V2000
   39.5250   23.0000   37.8460 C   0  0  0  0  0  0  0  0  0  0  0  0
   38.8170   23.3880   36.7010 C   0  0  0  0  0  0  0  0  0  0  0  0
   39.2530   22.9450   35.4600 C   0  0  0  0  0  0  0  0  0  0  0  0
   40.3700   22.1390   35.4130 N   0  0  0  0  0  0  0  0  0  0  0  0
   41.0190   21.7900   36.5340 C   0  0  0  0  0  0  0  0  0  0  0  0
   40.6350   22.1960   37.7790 N   0  0  0  0  0  0  0  0  0  0  0  0
   37.6560   24.2420   36.8730 C   0  0  0  0  0  0  0  0  0  0  0  0
   37.6190   25.2410   35.9490 O   0  0  0  0  0  0  0  0  0  0  0  0
   38.3170   26.3830   36.2760 C   0  0  0  0  0  0  0  0  0  0  0  0
   39.2870   27.0160   35.3670 C   0  0  0  0  0  0  0  0  0  0  0  0
   37.8910   27.5920   35.4410 C   0  0  0  0  0  0  0  0  0  0  0  0
   39.1802   23.3510   38.8298 H   0  0  0  0  0  0  0  0  0  0  0  0
   38.7218   23.2293   34.5396 H   0  0  0  0  0  0  0  0  0  0  0  0
   41.9051   21.1442   36.4452 H   0  0  0  0  0  0  0  0  0  0  0  0
   36.7470   23.6308   36.7724 H   0  0  0  0  0  0  0  0  0  0  0  0
   37.7163   24.7023   37.8703 H   0  0  0  0  0  0  0  0  0  0  0  0
   38.4122   26.0881   37.3314 H   0  0  0  0  0  0  0  0  0  0  0  0
   39.6106   26.4853   34.4594 H   0  0  0  0  0  0  0  0  0  0  0  0
   40.2973   27.4328   35.4915 H   0  0  0  0  0  0  0  0  0  0  0  0
   37.7164   28.5658   35.9219 H   0  0  0  0  0  0  0  0  0  0  0  0
   37.0881   27.8121   34.7220 H   0  0  0  0  0  0  0  0  0  0  0  0
  2  7  1  0
  2  1  2  0
  3  2  1  0
  4  3  2  0
  4  5  1  0
  5  6  2  0
  6  1  1  0
  8  9  1  0
  8  7  1  0
 10 11  1  0
 10  9  1  0
 11  9  1  0
  1 12  1  0
  3 13  1  0
  5 14  1  0
  7 15  1  0
  7 16  1  0
  9 17  1  0
 10 18  1  0
 10 19  1  0
 11 20  1  0
 11 21  1  0
M  ISO  8  12  14  13  14  14  14  15   8  16   8  17  13  18  13  19  13
M  ISO  2  20  13  21  13
M  END
>  <minimizedAffinity>  (1) 
-3.4370954

>  <minimizedRMSD>  (1) 
3.67210126

$$$$
