
     RDKit          3D

 22 23  0  0  0  0  0  0  0  0999 V2000
   38.3890   26.6340   35.7160 C   0  0  0  0  0  0  0  0  0  0  0  0
   38.1690   24.3060   34.9190 C   0  0  0  0  0  0  0  0  0  0  0  0
   38.1950   25.2170   35.9850 C   0  0  0  0  0  0  0  0  0  0  0  0
   38.0340   24.7350   37.2830 C   0  0  0  0  0  0  0  0  0  0  0  0
   37.8540   23.3710   37.4610 N   0  0  0  0  0  0  0  0  0  0  0  0
   37.8390   22.5610   36.4030 C   0  0  0  0  0  0  0  0  0  0  0  0
   37.9920   22.9700   35.1090 N   0  0  0  0  0  0  0  0  0  0  0  0
   39.6880   26.9060   35.3820 O   0  0  0  0  0  0  0  0  0  0  0  0
   40.0490   27.0820   34.0530 C   0  0  0  0  0  0  0  0  0  0  0  0
   41.4160   27.2310   33.8930 C   0  0  0  0  0  0  0  0  0  0  0  0
   41.9440   27.4170   32.6210 C   0  0  0  0  0  0  0  0  0  0  0  0
   41.1130   27.4470   31.5680 N   0  0  0  0  0  0  0  0  0  0  0  0
   39.7700   27.2990   31.7450 C   0  0  0  0  0  0  0  0  0  0  0  0
   39.2630   27.1210   32.9620 N   0  0  0  0  0  0  0  0  0  0  0  0
   37.7353   26.9329   34.8833 H   0  0  0  0  0  0  0  0  0  0  0  0
   38.1413   27.1965   36.6283 H   0  0  0  0  0  0  0  0  0  0  0  0
   38.2961   24.6843   33.8940 H   0  0  0  0  0  0  0  0  0  0  0  0
   38.0493   25.4189   38.1444 H   0  0  0  0  0  0  0  0  0  0  0  0
   37.6929   21.4860   36.5849 H   0  0  0  0  0  0  0  0  0  0  0  0
   42.0812   27.2023   34.7686 H   0  0  0  0  0  0  0  0  0  0  0  0
   43.0281   27.5379   32.4794 H   0  0  0  0  0  0  0  0  0  0  0  0
   39.0991   27.3270   30.8738 H   0  0  0  0  0  0  0  0  0  0  0  0
  1  3  1  0
  2  7  2  0
  2  3  1  0
  3  4  2  0
  4  5  1  0
  6  5  2  0
  7  6  1  0
  8  1  1  0
  9  8  1  0
 10  9  2  0
 11 10  1  0
 12 13  1  0
 12 11  2  0
 13 14  2  0
 14  9  1  0
  1 15  1  0
  1 16  1  0
  2 17  1  0
  4 18  1  0
  6 19  1  0
 10 20  1  0
 11 21  1  0
 13 22  1  0
M  ISO  8  15   8  16   8  17  14  18  14  19  14  20  14  21  14  22  14
M  END
>  <minimizedAffinity>  (1) 
-3.37884879

>  <minimizedRMSD>  (1) 
7.46695614

$$$$
