
     RDKit          3D

 16 16  0  0  0  0  0  0  0  0999 V2000
   39.4620   23.1190   38.2260 C   0  0  0  0  0  0  0  0  0  0  0  0
   39.9730   22.4600   37.0830 C   0  0  0  0  0  0  0  0  0  0  0  0
   39.1500   22.2480   35.9690 C   0  0  0  0  0  0  0  0  0  0  0  0
   37.8500   22.7080   36.0530 N   0  0  0  0  0  0  0  0  0  0  0  0
   37.4250   23.3210   37.1550 C   0  0  0  0  0  0  0  0  0  0  0  0
   38.1770   23.5560   38.2660 N   0  0  0  0  0  0  0  0  0  0  0  0
   41.3740   22.0110   37.0970 C   0  0  0  0  0  0  0  0  0  0  0  0
   42.1450   22.7610   36.2700 O   0  0  0  0  0  0  0  0  0  0  0  0
   43.2030   23.5840   36.5330 C   0  0  0  0  0  0  0  0  0  0  0  0
   43.2360   24.6870   35.9290 O   0  0  0  0  0  0  0  0  0  0  0  0
   40.1159   23.2798   39.0958 H   0  0  0  0  0  0  0  0  0  0  0  0
   39.5222   21.7383   35.0681 H   0  0  0  0  0  0  0  0  0  0  0  0
   36.3807   23.6662   37.1699 H   0  0  0  0  0  0  0  0  0  0  0  0
   41.7652   22.0924   38.1219 H   0  0  0  0  0  0  0  0  0  0  0  0
   41.4057   20.9686   36.7473 H   0  0  0  0  0  0  0  0  0  0  0  0
   43.9923   23.2947   37.2425 H   0  0  0  0  0  0  0  0  0  0  0  0
  1  6  2  0
  2  7  1  0
  2  1  1  0
  3  4  1  0
  3  2  2  0
  4  5  2  0
  5  6  1  0
  8  9  1  0
  8  7  1  0
 10  9  2  0
  1 11  1  0
  3 12  1  0
  5 13  1  0
  7 14  1  0
  7 15  1  0
  9 16  1  0
M  ISO  6  11  14  12  14  13  14  14   8  15   8  16   6
M  END
>  <minimizedAffinity>  (1) 
-2.77238679

>  <minimizedRMSD>  (1) 
4.33782101

$$$$
