
     RDKit          3D

 30 32  0  0  1  0  0  0  0  0999 V2000
   38.7900   25.6490   34.9490 C   0  0  2  0  0  0  0  0  0  0  0  0
   39.6130   22.9290   37.2580 C   0  0  0  0  0  0  0  0  0  0  0  0
   38.7890   23.1890   38.3900 C   0  0  0  0  0  0  0  0  0  0  0  0
   37.9470   24.3180   38.3380 C   0  0  0  0  0  0  0  0  0  0  0  0
   37.9940   25.0720   37.1970 N   0  0  0  0  0  0  0  0  0  0  0  0
   38.7790   24.8040   36.1480 C   0  0  0  0  0  0  0  0  0  0  0  0
   39.5840   23.7370   36.1810 N   0  0  0  0  0  0  0  0  0  0  0  0
   39.3970   26.9860   35.2950 C   0  0  0  0  0  0  0  0  0  0  0  0
   37.4050   25.9130   34.3970 C   0  0  0  0  0  0  0  0  0  0  0  0
   37.4210   26.2190   32.9780 N   0  0  0  0  0  0  0  0  0  0  0  0
   37.8890   25.4620   31.9720 C   0  0  0  0  0  0  0  0  0  0  0  0
   37.7190   26.1060   30.7970 N   0  0  0  0  0  0  0  0  0  0  0  0
   37.1430   27.2780   31.0310 C   0  0  0  0  0  0  0  0  0  0  0  0
   36.7790   28.2710   30.1410 C   0  0  0  0  0  0  0  0  0  0  0  0
   36.1990   29.3790   30.6800 N   0  0  0  0  0  0  0  0  0  0  0  0
   36.0100   29.4580   32.0250 C   0  0  0  0  0  0  0  0  0  0  0  0
   36.3790   28.4700   32.8630 N   0  0  0  0  0  0  0  0  0  0  0  0
   36.9580   27.3470   32.4010 C   0  0  0  0  0  0  0  0  0  0  0  0
   39.3705   25.1079   34.1873 H   0  0  0  0  0  0  0  0  0  0  0  0
   40.2824   22.0561   37.2634 H   0  0  0  0  0  0  0  0  0  0  0  0
   38.8090   22.5327   39.2726 H   0  0  0  0  0  0  0  0  0  0  0  0
   37.2834   24.5807   39.1750 H   0  0  0  0  0  0  0  0  0  0  0  0
   39.4462   27.0944   36.3885 H   0  0  0  0  0  0  0  0  0  0  0  0
   40.4115   27.0480   34.8744 H   0  0  0  0  0  0  0  0  0  0  0  0
   38.7759   27.7906   34.8744 H   0  0  0  0  0  0  0  0  0  0  0  0
   36.7848   25.0189   34.5581 H   0  0  0  0  0  0  0  0  0  0  0  0
   36.9969   26.7886   34.9231 H   0  0  0  0  0  0  0  0  0  0  0  0
   38.3428   24.4667   32.0877 H   0  0  0  0  0  0  0  0  0  0  0  0
   36.9482   28.1719   29.0586 H   0  0  0  0  0  0  0  0  0  0  0  0
   35.5394   30.3602   32.4428 H   0  0  0  0  0  0  0  0  0  0  0  0
  1  8  1  0
  1  6  1  0
  2  3  2  0
  4  3  1  0
  5  4  2  0
  6  7  2  0
  6  5  1  0
  7  2  1  0
  9  1  1  0
 10  9  1  0
 11 10  1  0
 12 13  1  0
 12 11  2  0
 13 18  2  0
 14 15  2  0
 14 13  1  0
 15 16  1  0
 16 17  2  0
 18 17  1  0
 18 10  1  0
  1 19  1  6
  2 20  1  0
  3 21  1  0
  4 22  1  0
  8 23  1  0
  8 24  1  0
  8 25  1  0
  9 26  1  0
  9 27  1  0
 11 28  1  0
 14 29  1  0
 16 30  1  0
M  ISO  8  19   8  20  14  21  14  22  14  23   8  24   8  25   8  26   8
M  ISO  4  27   8  28  14  29  14  30  14
M  END
>  <minimizedAffinity>  (1) 
-4.65493011

>  <minimizedRMSD>  (1) 
3.37924337

$$$$
