
     RDKit          3D

 51 54  0  0  1  0  0  0  0  0999 V2000
   41.2050   27.1800   31.1540 C   0  0  1  0  0  0  0  0  0  0  0  0
   41.7090   28.3350   30.3590 C   0  0  0  0  0  0  0  0  0  0  0  0
   42.8340   29.0790   30.9800 C   0  0  0  0  0  0  0  0  0  0  0  0
   43.7980   28.3130   31.8050 C   0  0  0  0  0  0  0  0  0  0  0  0
   43.1200   27.3900   32.7560 C   0  0  0  0  0  0  0  0  0  0  0  0
   42.1860   26.4970   32.0270 C   0  0  2  0  0  0  0  0  0  0  0  0
   42.8440   25.3290   31.3630 C   0  0  0  0  0  0  0  0  0  0  0  0
   42.3950   24.7820   30.1950 C   0  0  0  0  0  0  0  0  0  0  0  0
   42.9570   23.7160   29.5360 C   0  0  0  0  0  0  0  0  0  0  0  0
   44.0780   23.1260   30.0840 C   0  0  0  0  0  0  0  0  0  0  0  0
   44.5970   23.6170   31.2630 C   0  0  0  0  0  0  0  0  0  0  0  0
   43.9840   24.6900   31.8700 C   0  0  0  0  0  0  0  0  0  0  0  0
   39.9120   27.5070   31.9000 C   0  0  0  0  0  0  0  0  0  0  0  0
   38.4860   24.6080   33.7940 N   0  0  0  0  0  0  0  0  0  0  0  0
   39.1800   25.7320   33.5700 C   0  0  0  0  0  0  0  0  0  0  0  0
   39.1820   26.2720   32.2860 C   0  0  0  0  0  0  0  0  0  0  0  0
   38.4640   25.6230   31.2860 C   0  0  0  0  0  0  0  0  0  0  0  0
   38.3950   26.0160   30.1020 O   0  0  0  0  0  0  0  0  0  0  0  0
   37.7710   24.4810   31.5560 N   0  0  0  0  0  0  0  0  0  0  0  0
   37.7960   23.9970   32.8020 C   0  0  0  0  0  0  0  0  0  0  0  0
   37.1620   22.9510   33.0520 O   0  0  0  0  0  0  0  0  0  0  0  0
   37.8120   24.8060   36.1040 C   0  0  0  0  0  0  0  0  0  0  0  0
   38.5480   24.1380   35.1190 C   0  0  0  0  0  0  0  0  0  0  0  0
   39.3020   23.0370   35.5190 C   0  0  0  0  0  0  0  0  0  0  0  0
   39.2830   22.6730   36.8400 N   0  0  0  0  0  0  0  0  0  0  0  0
   38.5670   23.3380   37.7550 C   0  0  0  0  0  0  0  0  0  0  0  0
   37.8370   24.4010   37.3730 N   0  0  0  0  0  0  0  0  0  0  0  0
   38.7140   22.7660   39.0460 N   0  0  0  0  0  0  0  0  0  0  0  0
   40.9848   26.4299   30.3802 H   0  0  0  0  0  0  0  0  0  0  0  0
   40.8755   29.0374   30.2109 H   0  0  0  0  0  0  0  0  0  0  0  0
   42.0981   27.9159   29.4193 H   0  0  0  0  0  0  0  0  0  0  0  0
   43.4027   29.5529   30.1663 H   0  0  0  0  0  0  0  0  0  0  0  0
   42.3519   29.7697   31.6875 H   0  0  0  0  0  0  0  0  0  0  0  0
   44.4431   27.7223   31.1380 H   0  0  0  0  0  0  0  0  0  0  0  0
   44.3828   29.0339   32.3952 H   0  0  0  0  0  0  0  0  0  0  0  0
   43.8764   26.7807   33.2724 H   0  0  0  0  0  0  0  0  0  0  0  0
   42.5515   27.9831   33.4875 H   0  0  0  0  0  0  0  0  0  0  0  0
   41.5769   26.0737   32.8393 H   0  0  0  0  0  0  0  0  0  0  0  0
   41.5022   25.2364   29.7407 H   0  0  0  0  0  0  0  0  0  0  0  0
   42.5250   23.3422   28.5960 H   0  0  0  0  0  0  0  0  0  0  0  0
   44.5540   22.2699   29.5834 H   0  0  0  0  0  0  0  0  0  0  0  0
   45.4894   23.1574   31.7130 H   0  0  0  0  0  0  0  0  0  0  0  0
   44.4145   25.0684   32.8089 H   0  0  0  0  0  0  0  0  0  0  0  0
   40.1572   28.0766   32.8085 H   0  0  0  0  0  0  0  0  0  0  0  0
   39.2665   28.0964   31.2322 H   0  0  0  0  0  0  0  0  0  0  0  0
   39.7372   26.2187   34.3840 H   0  0  0  0  0  0  0  0  0  0  0  0
   37.2393   24.0010   30.8159 H   0  0  0  0  0  0  0  0  0  0  0  0
   37.2033   25.6791   35.8262 H   0  0  0  0  0  0  0  0  0  0  0  0
   39.9003   22.4715   34.7895 H   0  0  0  0  0  0  0  0  0  0  0  0
   38.2183   23.1760   39.8504 H   0  0  0  0  0  0  0  0  0  0  0  0
   39.3163   21.9410   39.1782 H   0  0  0  0  0  0  0  0  0  0  0  0
  1 13  1  0
  1  6  1  0
  2  3  1  0
  2  1  1  0
  3  4  1  0
  4  5  1  0
  6  5  1  0
  7 12  1  0
  7  6  1  0
  8  7  2  0
  9 10  2  0
  9  8  1  0
 10 11  1  0
 11 12  2  0
 13 16  1  0
 14 23  1  0
 15 14  1  0
 16 15  2  0
 17 19  1  0
 17 16  1  0
 18 17  2  0
 19 20  1  0
 20 21  2  0
 20 14  1  0
 22 27  2  0
 23 24  2  0
 23 22  1  0
 24 25  1  0
 25 26  2  0
 26 28  1  0
 27 26  1  0
  1 29  1  6
  2 30  1  0
  2 31  1  0
  3 32  1  0
  3 33  1  0
  4 34  1  0
  4 35  1  0
  5 36  1  0
  5 37  1  0
  6 38  1  1
  8 39  1  0
  9 40  1  0
 10 41  1  0
 11 42  1  0
 12 43  1  0
 13 44  1  0
 13 45  1  0
 15 46  1  0
 19 47  1  0
 22 48  1  0
 24 49  1  0
 28 50  1  0
 28 51  1  0
M  ISO  8  29  13  30  13  31  13  32  13  33  13  34  13  35  13  36  13
M  ISO  8  37  13  38  13  39  14  40  14  41  14  42  14  43  14  44   8
M  ISO  5  45   8  46  14  47   9  48  14  49  14
M  END
>  <minimizedAffinity>  (1) 
-4.45034552

>  <minimizedRMSD>  (1) 
0.31560427

$$$$
