
     RDKit          3D

 40 43  0  0  1  0  0  0  0  0999 V2000
   39.7840   24.0700   35.5520 N   0  0  0  0  0  0  0  0  0  0  0  0
   40.6750   23.0990   36.1130 C   0  0  0  0  0  0  0  0  0  0  0  0
   39.9270   22.4220   37.2540 C   0  0  0  0  0  0  0  0  0  0  0  0
   38.9970   23.5820   37.6670 C   0  0  0  0  0  0  0  0  0  0  0  0
   38.5620   24.0080   36.2780 C   0  0  2  0  0  0  0  0  0  0  0  0
   37.6920   22.8910   35.8520 N   0  0  0  0  0  0  0  0  0  0  0  0
   36.8960   22.1780   36.6580 C   0  0  0  0  0  0  0  0  0  0  0  0
   36.2430   21.2390   35.9480 N   0  0  0  0  0  0  0  0  0  0  0  0
   36.6110   21.3380   34.6790 C   0  0  0  0  0  0  0  0  0  0  0  0
   36.3200   20.6910   33.4800 C   0  0  0  0  0  0  0  0  0  0  0  0
   35.5030   19.7500   33.4930 O   0  0  0  0  0  0  0  0  0  0  0  0
   36.8970   21.0540   32.2980 N   0  0  0  0  0  0  0  0  0  0  0  0
   37.7830   22.0780   32.2920 C   0  0  0  0  0  0  0  0  0  0  0  0
   38.4450   22.5460   31.1330 N   0  0  0  0  0  0  0  0  0  0  0  0
   38.0650   22.7010   33.4420 N   0  0  0  0  0  0  0  0  0  0  0  0
   37.5200   22.3740   34.6230 C   0  0  0  0  0  0  0  0  0  0  0  0
   37.8290   25.1380   36.1390 O   0  0  0  0  0  0  0  0  0  0  0  0
   38.5560   25.9470   35.2810 C   0  0  0  0  0  0  0  0  0  0  0  0
   37.4300   26.1070   33.0960 C   0  0  0  0  0  0  0  0  0  0  0  0
   37.6260   26.6500   34.3860 C   0  0  0  0  0  0  0  0  0  0  0  0
   36.9760   27.8070   34.7080 C   0  0  0  0  0  0  0  0  0  0  0  0
   36.1600   28.3960   33.7660 N   0  0  0  0  0  0  0  0  0  0  0  0
   36.0060   27.8470   32.5580 C   0  0  0  0  0  0  0  0  0  0  0  0
   36.6190   26.7110   32.1850 N   0  0  0  0  0  0  0  0  0  0  0  0
   40.1938   25.0113   35.6352 H   0  0  0  0  0  0  0  0  0  0  0  0
   40.9548   22.3569   35.3508 H   0  0  0  0  0  0  0  0  0  0  0  0
   41.5992   23.5738   36.4740 H   0  0  0  0  0  0  0  0  0  0  0  0
   39.3608   21.5437   36.9104 H   0  0  0  0  0  0  0  0  0  0  0  0
   40.5610   22.0193   38.0577 H   0  0  0  0  0  0  0  0  0  0  0  0
   38.1515   23.2396   38.2818 H   0  0  0  0  0  0  0  0  0  0  0  0
   39.4503   24.3651   38.2925 H   0  0  0  0  0  0  0  0  0  0  0  0
   36.7909   22.3361   37.7415 H   0  0  0  0  0  0  0  0  0  0  0  0
   36.6629   20.5581   31.4261 H   0  0  0  0  0  0  0  0  0  0  0  0
   39.1083   23.3311   31.2004 H   0  0  0  0  0  0  0  0  0  0  0  0
   38.2638   22.1017   30.2216 H   0  0  0  0  0  0  0  0  0  0  0  0
   39.1321   26.6803   35.8645 H   0  0  0  0  0  0  0  0  0  0  0  0
   39.2501   25.3327   34.6887 H   0  0  0  0  0  0  0  0  0  0  0  0
   37.9449   25.1744   32.8218 H   0  0  0  0  0  0  0  0  0  0  0  0
   37.1014   28.2611   35.7020 H   0  0  0  0  0  0  0  0  0  0  0  0
   35.3463   28.3485   31.8346 H   0  0  0  0  0  0  0  0  0  0  0  0
  1  2  1  0
  1  5  1  0
  2  3  1  0
  3  4  1  0
  5 17  1  1
  5  4  1  0
  6  5  1  0
  6  7  1  0
  8  7  2  0
  9  8  1  0
 10 11  2  0
 10  9  1  0
 12 10  1  0
 13 12  1  0
 13 15  2  0
 14 13  1  0
 15 16  1  0
 16  9  2  0
 16  6  1  0
 18 17  1  0
 19 20  2  0
 20 21  1  0
 20 18  1  0
 22 21  2  0
 23 22  1  0
 24 23  2  0
 24 19  1  0
  1 25  1  0
  2 26  1  0
  2 27  1  0
  3 28  1  0
  3 29  1  0
  4 30  1  0
  4 31  1  0
  7 32  1  0
 12 33  1  0
 14 34  1  0
 14 35  1  0
 18 36  1  0
 18 37  1  0
 19 38  1  0
 21 39  1  0
 23 40  1  0
M  ISO  8  25   5  26  13  27  13  28  13  29  13  30  13  31  13  32  14
M  ISO  6  33   9  36   8  37   8  38  14  39  14  40  14
M  END
>  <minimizedAffinity>  (1) 
-4.76669979

>  <minimizedRMSD>  (1) 
1.35337317

$$$$
