
     RDKit          3D

 54 57  0  0  1  0  0  0  0  0999 V2000
   39.9260   27.4270   31.8680 C   0  0  0  0  0  0  0  0  0  0  0  0
   41.2500   27.1010   31.2080 C   0  0  1  0  0  0  0  0  0  0  0  0
   41.7540   28.2630   30.4180 C   0  0  0  0  0  0  0  0  0  0  0  0
   42.8890   28.9990   31.0220 C   0  0  0  0  0  0  0  0  0  0  0  0
   43.8300   28.2170   31.8860 C   0  0  0  0  0  0  0  0  0  0  0  0
   43.0440   27.4610   32.9180 C   0  0  0  0  0  0  0  0  0  0  0  0
   42.2060   26.4620   32.1560 C   0  0  2  0  0  0  0  0  0  0  0  0
   43.0700   25.4920   31.6380 N   0  0  0  0  0  0  0  0  0  0  0  0
   43.9940   24.8700   32.5080 C   0  0  0  0  0  0  0  0  0  0  0  0
   44.3920   23.4820   32.1580 C   0  0  0  0  0  0  0  0  0  0  0  0
   44.2450   23.1520   30.8230 O   0  0  0  0  0  0  0  0  0  0  0  0
   44.2930   24.2900   30.0290 C   0  0  0  0  0  0  0  0  0  0  0  0
   42.9780   25.0370   30.3240 C   0  0  0  0  0  0  0  0  0  0  0  0
   38.4680   24.5680   33.7900 N   0  0  0  0  0  0  0  0  0  0  0  0
   39.1830   25.6740   33.5550 C   0  0  0  0  0  0  0  0  0  0  0  0
   39.1780   26.2010   32.2740 C   0  0  0  0  0  0  0  0  0  0  0  0
   38.4370   25.5720   31.2770 C   0  0  0  0  0  0  0  0  0  0  0  0
   38.3620   25.9600   30.0900 O   0  0  0  0  0  0  0  0  0  0  0  0
   37.7230   24.4460   31.5610 N   0  0  0  0  0  0  0  0  0  0  0  0
   37.7580   23.9730   32.8120 C   0  0  0  0  0  0  0  0  0  0  0  0
   37.1000   22.9350   33.0730 O   0  0  0  0  0  0  0  0  0  0  0  0
   37.8140   24.7870   36.1090 C   0  0  0  0  0  0  0  0  0  0  0  0
   38.5350   24.1070   35.1210 C   0  0  0  0  0  0  0  0  0  0  0  0
   39.2770   23.0090   35.5220 C   0  0  0  0  0  0  0  0  0  0  0  0
   39.2670   22.6510   36.8490 N   0  0  0  0  0  0  0  0  0  0  0  0
   38.5620   23.3340   37.7600 C   0  0  0  0  0  0  0  0  0  0  0  0
   37.8360   24.4030   37.3810 N   0  0  0  0  0  0  0  0  0  0  0  0
   38.7080   22.7740   39.0580 N   0  0  0  0  0  0  0  0  0  0  0  0
   39.3091   27.9993   31.1595 H   0  0  0  0  0  0  0  0  0  0  0  0
   40.1377   28.0085   32.7775 H   0  0  0  0  0  0  0  0  0  0  0  0
   41.1037   26.3148   30.4527 H   0  0  0  0  0  0  0  0  0  0  0  0
   40.9220   28.9706   30.2872 H   0  0  0  0  0  0  0  0  0  0  0  0
   42.1325   27.8453   29.4734 H   0  0  0  0  0  0  0  0  0  0  0  0
   43.4774   29.4324   30.1998 H   0  0  0  0  0  0  0  0  0  0  0  0
   42.4242   29.7307   31.6991 H   0  0  0  0  0  0  0  0  0  0  0  0
   44.3970   27.5085   31.2642 H   0  0  0  0  0  0  0  0  0  0  0  0
   44.5289   28.9041   32.3855 H   0  0  0  0  0  0  0  0  0  0  0  0
   43.7230   26.9411   33.6099 H   0  0  0  0  0  0  0  0  0  0  0  0
   42.4174   28.1355   33.5200 H   0  0  0  0  0  0  0  0  0  0  0  0
   41.5033   25.9373   32.8200 H   0  0  0  0  0  0  0  0  0  0  0  0
   44.9051   25.4860   32.5261 H   0  0  0  0  0  0  0  0  0  0  0  0
   43.4801   24.7934   33.4776 H   0  0  0  0  0  0  0  0  0  0  0  0
   45.4506   23.3521   32.4273 H   0  0  0  0  0  0  0  0  0  0  0  0
   43.7155   22.8177   32.7157 H   0  0  0  0  0  0  0  0  0  0  0  0
   44.3524   24.0170   28.9651 H   0  0  0  0  0  0  0  0  0  0  0  0
   45.1770   24.9080   30.2451 H   0  0  0  0  0  0  0  0  0  0  0  0
   42.8600   25.8862   29.6348 H   0  0  0  0  0  0  0  0  0  0  0  0
   42.1069   24.3788   30.1901 H   0  0  0  0  0  0  0  0  0  0  0  0
   39.7606   26.1531   34.3592 H   0  0  0  0  0  0  0  0  0  0  0  0
   37.1712   23.9719   30.8318 H   0  0  0  0  0  0  0  0  0  0  0  0
   37.2127   25.6632   35.8250 H   0  0  0  0  0  0  0  0  0  0  0  0
   39.8642   22.4333   34.7914 H   0  0  0  0  0  0  0  0  0  0  0  0
   38.2202   23.1983   39.8598 H   0  0  0  0  0  0  0  0  0  0  0  0
   39.3016   21.9438   39.1969 H   0  0  0  0  0  0  0  0  0  0  0  0
  1 16  1  0
  2  1  1  0
  2  7  1  0
  3  4  1  0
  3  2  1  0
  4  5  1  0
  5  6  1  0
  7  6  1  0
  8  7  1  0
  8  9  1  0
 10  9  1  0
 11 10  1  0
 12 13  1  0
 12 11  1  0
 13  8  1  0
 14 23  1  0
 15 14  1  0
 16 15  2  0
 17 19  1  0
 17 16  1  0
 18 17  2  0
 19 20  1  0
 20 21  2  0
 20 14  1  0
 22 27  2  0
 23 24  2  0
 23 22  1  0
 24 25  1  0
 25 26  2  0
 26 28  1  0
 27 26  1  0
  1 29  1  0
  1 30  1  0
  2 31  1  6
  3 32  1  0
  3 33  1  0
  4 34  1  0
  4 35  1  0
  5 36  1  0
  5 37  1  0
  6 38  1  0
  6 39  1  0
  7 40  1  1
  9 41  1  0
  9 42  1  0
 10 43  1  0
 10 44  1  0
 12 45  1  0
 12 46  1  0
 13 47  1  0
 13 48  1  0
 15 49  1  0
 19 50  1  0
 22 51  1  0
 24 52  1  0
 28 53  1  0
 28 54  1  0
M  ISO  8  29   8  30   8  31  13  32  13  33  13  34  13  35  13  36  13
M  ISO  8  37  13  38  13  39  13  40  13  41  13  42  13  43  13  44  13
M  ISO  8  45  13  46  13  47  13  48  13  49  14  50   9  51  14  52  14
M  END
>  <minimizedAffinity>  (1) 
-4.44558001

>  <minimizedRMSD>  (1) 
0.470465511

$$$$
