
     RDKit          3D

 33 34  0  0  1  0  0  0  0  0999 V2000
   39.5960   23.4160   35.7400 N   0  0  0  0  0  0  0  0  0  0  0  0
   40.7560   22.9730   36.4610 C   0  0  0  0  0  0  0  0  0  0  0  0
   40.2290   22.5180   37.8170 C   0  0  0  0  0  0  0  0  0  0  0  0
   39.1230   23.5930   37.9770 C   0  0  0  0  0  0  0  0  0  0  0  0
   38.4850   23.4170   36.6030 C   0  0  2  0  0  0  0  0  0  0  0  0
   37.7620   22.1650   36.7810 N   0  0  0  0  0  0  0  0  0  0  0  0
   36.9480   21.6030   35.7710 C   0  0  0  0  0  0  0  0  0  0  0  0
   37.2540   21.8290   34.5440 N   0  0  0  0  0  0  0  0  0  0  0  0
   35.7980   20.7920   36.1030 N   0  0  0  0  0  0  0  0  0  0  0  0
   36.6510   21.4130   33.8050 H   0  0  0  0  0  0  0  0  0  0  0  0
   37.5330   24.3140   36.2380 O   0  0  0  0  0  0  0  0  0  0  0  0
   38.2020   25.4990   36.0020 C   0  0  0  0  0  0  0  0  0  0  0  0
   37.4910   25.5080   33.6630 C   0  0  0  0  0  0  0  0  0  0  0  0
   37.5740   26.2140   34.8870 C   0  0  0  0  0  0  0  0  0  0  0  0
   37.1160   27.4960   34.9330 C   0  0  0  0  0  0  0  0  0  0  0  0
   36.5920   28.0450   33.7780 N   0  0  0  0  0  0  0  0  0  0  0  0
   36.5320   27.3440   32.6400 C   0  0  0  0  0  0  0  0  0  0  0  0
   36.9720   26.0570   32.5270 N   0  0  0  0  0  0  0  0  0  0  0  0
   39.7556   24.3690   35.3834 H   0  0  0  0  0  0  0  0  0  0  0  0
   41.2422   22.1379   35.9353 H   0  0  0  0  0  0  0  0  0  0  0  0
   41.5107   23.7675   36.5569 H   0  0  0  0  0  0  0  0  0  0  0  0
   39.8194   21.4976   37.7859 H   0  0  0  0  0  0  0  0  0  0  0  0
   40.9673   22.4540   38.6299 H   0  0  0  0  0  0  0  0  0  0  0  0
   38.4267   23.3605   38.7962 H   0  0  0  0  0  0  0  0  0  0  0  0
   39.4594   24.6080   38.2351 H   0  0  0  0  0  0  0  0  0  0  0  0
   37.8473   21.6688   37.6796 H   0  0  0  0  0  0  0  0  0  0  0  0
   35.2168   20.3910   35.3531 H   0  0  0  0  0  0  0  0  0  0  0  0
   35.5599   20.6152   37.0894 H   0  0  0  0  0  0  0  0  0  0  0  0
   38.1631   26.1258   36.9051 H   0  0  0  0  0  0  0  0  0  0  0  0
   39.2490   25.2787   35.7466 H   0  0  0  0  0  0  0  0  0  0  0  0
   37.8607   24.4726   33.6262 H   0  0  0  0  0  0  0  0  0  0  0  0
   37.1620   28.0789   35.8647 H   0  0  0  0  0  0  0  0  0  0  0  0
   36.1062   27.8299   31.7497 H   0  0  0  0  0  0  0  0  0  0  0  0
  1  2  1  0
  1  5  1  0
  2  3  1  0
  3  4  1  0
  5 11  1  6
  5  6  1  0
  5  4  1  0
  7  9  1  0
  7  6  1  0
  8  7  2  0
 10  8  1  0
 12 11  1  0
 13 14  2  0
 14 15  1  0
 14 12  1  0
 16 15  2  0
 17 16  1  0
 18 17  2  0
 18 13  1  0
  1 19  1  0
  2 20  1  0
  2 21  1  0
  3 22  1  0
  3 23  1  0
  4 24  1  0
  4 25  1  0
  6 26  1  0
  9 27  1  0
  9 28  1  0
 12 29  1  0
 12 30  1  0
 13 31  1  0
 15 32  1  0
 17 33  1  0
M  ISO  8  19   5  20  13  21  13  22  13  23  13  24  13  25  13  29   8
M  ISO  4  30   8  31  14  32  14  33  14
M  END
>  <minimizedAffinity>  (1) 
-4.53404474

>  <minimizedRMSD>  (1) 
0.844554663

$$$$
