
     RDKit          3D

 32 34  0  0  1  0  0  0  0  0999 V2000
   37.6770   23.8590   36.9530 N   0  0  0  0  0  0  0  0  0  0  0  0
   38.3870   23.5890   38.1810 C   0  0  0  0  0  0  0  0  0  0  0  0
   39.6990   22.9310   37.7890 C   0  0  0  0  0  0  0  0  0  0  0  0
   39.2880   22.2660   36.4690 C   0  0  0  0  0  0  0  0  0  0  0  0
   38.4700   23.4130   35.8800 C   0  0  2  0  0  0  0  0  0  0  0  0
   39.4820   24.4660   35.4430 C   0  0  0  0  0  0  0  0  0  0  0  0
   38.9560   25.7260   35.2750 C   0  0  0  0  0  0  0  0  0  0  0  0
   40.4000   26.7340   34.7550 S   0  0  0  0  0  0  0  0  0  0  0  0
   41.5200   25.2040   34.8580 C   0  0  0  0  0  0  0  0  0  0  0  0
   40.7720   24.4330   35.1830 N   0  0  0  0  0  0  0  0  0  0  0  0
   37.7410   23.1500   34.7630 O   0  0  0  0  0  0  0  0  0  0  0  0
   37.4470   21.8020   34.8100 C   0  0  0  0  0  0  0  0  0  0  0  0
   35.6490   20.5280   33.7230 C   0  0  0  0  0  0  0  0  0  0  0  0
   36.7340   21.4180   33.5820 C   0  0  0  0  0  0  0  0  0  0  0  0
   37.0860   21.8270   32.3370 C   0  0  0  0  0  0  0  0  0  0  0  0
   36.3700   21.3580   31.2540 N   0  0  0  0  0  0  0  0  0  0  0  0
   35.3470   20.5140   31.4290 C   0  0  0  0  0  0  0  0  0  0  0  0
   34.9520   20.0730   32.6360 N   0  0  0  0  0  0  0  0  0  0  0  0
   36.7770   23.3582   36.9532 H   0  0  0  0  0  0  0  0  0  0  0  0
   38.5798   24.5272   38.7219 H   0  0  0  0  0  0  0  0  0  0  0  0
   37.7990   22.9370   38.8437 H   0  0  0  0  0  0  0  0  0  0  0  0
   40.4977   23.6725   37.6398 H   0  0  0  0  0  0  0  0  0  0  0  0
   40.1126   22.2437   38.5418 H   0  0  0  0  0  0  0  0  0  0  0  0
   40.1574   22.0139   35.8441 H   0  0  0  0  0  0  0  0  0  0  0  0
   38.7621   21.3045   36.5630 H   0  0  0  0  0  0  0  0  0  0  0  0
   37.9155   26.0527   35.4184 H   0  0  0  0  0  0  0  0  0  0  0  0
   42.5966   25.1022   34.6563 H   0  0  0  0  0  0  0  0  0  0  0  0
   38.3800   21.2247   34.8892 H   0  0  0  0  0  0  0  0  0  0  0  0
   36.8141   21.5927   35.6850 H   0  0  0  0  0  0  0  0  0  0  0  0
   35.3563   20.1920   34.7287 H   0  0  0  0  0  0  0  0  0  0  0  0
   37.9276   22.5205   32.1932 H   0  0  0  0  0  0  0  0  0  0  0  0
   34.8015   20.1631   30.5406 H   0  0  0  0  0  0  0  0  0  0  0  0
  1  2  1  0
  3  2  1  0
  4  3  1  0
  5 11  1  6
  5  4  1  0
  5  1  1  0
  6  5  1  0
  7  6  2  0
  8  9  1  0
  8  7  1  0
  9 10  2  0
 10  6  1  0
 11 12  1  0
 14 13  2  0
 14 12  1  0
 15 14  1  0
 16 17  1  0
 16 15  2  0
 17 18  2  0
 18 13  1  0
  1 19  1  0
  2 20  1  0
  2 21  1  0
  3 22  1  0
  3 23  1  0
  4 24  1  0
  4 25  1  0
  7 26  1  0
  9 27  1  0
 12 28  1  0
 12 29  1  0
 13 30  1  0
 15 31  1  0
 17 32  1  0
M  ISO  8  19   5  20  13  21  13  22  13  23  13  24  13  25  13  26  14
M  ISO  6  27  14  28   8  29   8  30  14  31  14  32  14
M  END
>  <minimizedAffinity>  (1) 
-4.30292845

>  <minimizedRMSD>  (1) 
4.8553195

$$$$
