
     RDKit          3D

 29 30  0  0  1  0  0  0  0  0999 V2000
   39.7720   23.9340   35.8540 N   0  0  0  0  0  0  0  0  0  0  0  0
   40.8040   23.1310   36.4730 C   0  0  0  0  0  0  0  0  0  0  0  0
   40.1220   22.3400   37.5800 C   0  0  0  0  0  0  0  0  0  0  0  0
   39.0120   23.3320   37.9630 C   0  0  0  0  0  0  0  0  0  0  0  0
   38.5730   23.7180   36.5550 C   0  0  2  0  0  0  0  0  0  0  0  0
   37.8630   22.4970   35.9910 C   0  0  0  0  0  0  0  0  0  0  0  0
   38.0160   21.8960   34.8910 O   0  0  0  0  0  0  0  0  0  0  0  0
   36.8560   21.8710   36.7550 O   0  0  0  0  0  0  0  0  0  0  0  0
   37.6950   24.7480   36.4340 O   0  0  0  0  0  0  0  0  0  0  0  0
   38.4250   25.8020   35.9140 C   0  0  0  0  0  0  0  0  0  0  0  0
   37.4850   25.7060   33.6430 C   0  0  0  0  0  0  0  0  0  0  0  0
   37.6540   26.4430   34.8360 C   0  0  0  0  0  0  0  0  0  0  0  0
   37.1430   27.7030   34.9010 C   0  0  0  0  0  0  0  0  0  0  0  0
   36.4840   28.2080   33.8020 N   0  0  0  0  0  0  0  0  0  0  0  0
   36.3440   27.4820   32.6910 C   0  0  0  0  0  0  0  0  0  0  0  0
   36.8260   26.2340   32.5690 N   0  0  0  0  0  0  0  0  0  0  0  0
   40.0294   24.9302   35.9008 H   0  0  0  0  0  0  0  0  0  0  0  0
   41.2490   22.4475   35.7349 H   0  0  0  0  0  0  0  0  0  0  0  0
   41.6148   23.7588   36.8710 H   0  0  0  0  0  0  0  0  0  0  0  0
   39.7112   21.3890   37.2101 H   0  0  0  0  0  0  0  0  0  0  0  0
   40.7796   22.0348   38.4073 H   0  0  0  0  0  0  0  0  0  0  0  0
   38.2036   22.8519   38.5340 H   0  0  0  0  0  0  0  0  0  0  0  0
   39.3134   24.1626   38.6182 H   0  0  0  0  0  0  0  0  0  0  0  0
   36.3867   21.0755   36.3985 H   0  0  0  0  0  0  0  0  0  0  0  0
   38.6269   26.5361   36.7079 H   0  0  0  0  0  0  0  0  0  0  0  0
   39.3782   25.4274   35.5127 H   0  0  0  0  0  0  0  0  0  0  0  0
   37.8922   24.6863   33.5773 H   0  0  0  0  0  0  0  0  0  0  0  0
   37.2543   28.3065   35.8139 H   0  0  0  0  0  0  0  0  0  0  0  0
   35.8103   27.9251   31.8373 H   0  0  0  0  0  0  0  0  0  0  0  0
  1  2  1  0
  1  5  1  0
  2  3  1  0
  3  4  1  0
  5  6  1  0
  5  4  1  0
  6  8  1  0
  7  6  2  0
  5  9  1  1
 10  9  1  0
 11 12  2  0
 12 13  1  0
 12 10  1  0
 14 13  2  0
 15 14  1  0
 16 15  2  0
 16 11  1  0
  1 17  1  0
  2 18  1  0
  2 19  1  0
  3 20  1  0
  3 21  1  0
  4 22  1  0
  4 23  1  0
  8 24  1  0
 10 25  1  0
 10 26  1  0
 11 27  1  0
 13 28  1  0
 15 29  1  0
M  ISO  8  17   5  18  13  19  13  20  13  21  13  22  13  23  13  24   3
M  ISO  5  25   8  26   8  27  14  28  14  29  14
M  END
>  <minimizedAffinity>  (1) 
-4.2822113

>  <minimizedRMSD>  (1) 
0.637654543

$$$$
