
     RDKit          3D

 38 40  0  0  1  0  0  0  0  0999 V2000
   39.7990   23.7470   35.7100 N   0  0  0  0  0  0  0  0  0  0  0  0
   40.8740   23.0810   36.4180 C   0  0  0  0  0  0  0  0  0  0  0  0
   40.2080   22.2870   37.5370 C   0  0  0  0  0  0  0  0  0  0  0  0
   39.0860   23.2950   37.8660 C   0  0  0  0  0  0  0  0  0  0  0  0
   38.5970   23.5040   36.4420 C   0  0  2  0  0  0  0  0  0  0  0  0
   37.9670   22.2100   36.1000 N   0  0  0  0  0  0  0  0  0  0  0  0
   37.5880   22.2140   34.6960 C   0  0  0  0  0  0  0  0  0  0  0  0
   36.6610   21.0010   34.6070 C   0  0  0  0  0  0  0  0  0  0  0  0
   35.8830   21.0910   35.9040 C   0  0  0  0  0  0  0  0  0  0  0  0
   36.6690   22.0840   36.7250 C   0  0  0  0  0  0  0  0  0  0  0  0
   37.6560   24.4480   36.2140 O   0  0  0  0  0  0  0  0  0  0  0  0
   38.3550   25.6070   35.9180 C   0  0  0  0  0  0  0  0  0  0  0  0
   37.4950   25.6890   33.6210 C   0  0  0  0  0  0  0  0  0  0  0  0
   37.6440   26.3430   34.8630 C   0  0  0  0  0  0  0  0  0  0  0  0
   37.1610   27.6090   34.9930 C   0  0  0  0  0  0  0  0  0  0  0  0
   36.5480   28.2030   33.9120 N   0  0  0  0  0  0  0  0  0  0  0  0
   36.4280   27.5490   32.7520 C   0  0  0  0  0  0  0  0  0  0  0  0
   36.8860   26.2880   32.5560 N   0  0  0  0  0  0  0  0  0  0  0  0
   39.9832   24.7592   35.6600 H   0  0  0  0  0  0  0  0  0  0  0  0
   41.4176   22.4058   35.7408 H   0  0  0  0  0  0  0  0  0  0  0  0
   41.6047   23.8018   36.8136 H   0  0  0  0  0  0  0  0  0  0  0  0
   39.8133   21.3218   37.1869 H   0  0  0  0  0  0  0  0  0  0  0  0
   40.8563   21.9912   38.3750 H   0  0  0  0  0  0  0  0  0  0  0  0
   38.3115   22.8640   38.5174 H   0  0  0  0  0  0  0  0  0  0  0  0
   39.3834   24.1972   38.4206 H   0  0  0  0  0  0  0  0  0  0  0  0
   37.0589   23.1406   34.4286 H   0  0  0  0  0  0  0  0  0  0  0  0
   38.4447   22.1659   34.0077 H   0  0  0  0  0  0  0  0  0  0  0  0
   35.9929   21.0737   33.7362 H   0  0  0  0  0  0  0  0  0  0  0  0
   37.1951   20.0478   34.4798 H   0  0  0  0  0  0  0  0  0  0  0  0
   34.8603   21.4537   35.7235 H   0  0  0  0  0  0  0  0  0  0  0  0
   35.7733   20.1171   36.4036 H   0  0  0  0  0  0  0  0  0  0  0  0
   36.7795   21.7188   37.7567 H   0  0  0  0  0  0  0  0  0  0  0  0
   36.1553   23.0558   36.7662 H   0  0  0  0  0  0  0  0  0  0  0  0
   38.4273   26.2336   36.8192 H   0  0  0  0  0  0  0  0  0  0  0  0
   39.3672   25.3504   35.5722 H   0  0  0  0  0  0  0  0  0  0  0  0
   37.8814   24.6653   33.5077 H   0  0  0  0  0  0  0  0  0  0  0  0
   37.2587   28.1491   35.9463 H   0  0  0  0  0  0  0  0  0  0  0  0
   35.9322   28.0603   31.9136 H   0  0  0  0  0  0  0  0  0  0  0  0
  1  2  1  0
  1  5  1  0
  2  3  1  0
  3  4  1  0
  5 11  1  1
  5  4  1  0
  6  7  1  0
  6  5  1  0
  6 10  1  0
  8  7  1  0
  8  9  1  0
  9 10  1  0
 12 11  1  0
 13 14  2  0
 14 15  1  0
 14 12  1  0
 16 15  2  0
 17 16  1  0
 18 17  2  0
 18 13  1  0
  1 19  1  0
  2 20  1  0
  2 21  1  0
  3 22  1  0
  3 23  1  0
  4 24  1  0
  4 25  1  0
  7 26  1  0
  7 27  1  0
  8 28  1  0
  8 29  1  0
  9 30  1  0
  9 31  1  0
 10 32  1  0
 10 33  1  0
 12 34  1  0
 12 35  1  0
 13 36  1  0
 15 37  1  0
 17 38  1  0
M  ISO  8  19   5  20  13  21  13  22  13  23  13  24  13  25  13  26  13
M  ISO  8  27  13  28  13  29  13  30  13  31  13  32  13  33  13  34   8
M  ISO  4  35   8  36  14  37  14  38  14
M  END
>  <minimizedAffinity>  (1) 
-4.23647451

>  <minimizedRMSD>  (1) 
0.490755349

$$$$
