
     RDKit          3D

 49 52  0  0  1  0  0  0  0  0999 V2000
   39.9330   27.4850   31.9060 C   0  0  0  0  0  0  0  0  0  0  0  0
   41.2300   27.1580   31.1780 C   0  0  1  0  0  0  0  0  0  0  0  0
   41.7420   28.3030   30.3750 C   0  0  0  0  0  0  0  0  0  0  0  0
   42.8550   29.0620   30.9980 C   0  0  0  0  0  0  0  0  0  0  0  0
   43.8290   28.2810   31.8080 C   0  0  0  0  0  0  0  0  0  0  0  0
   43.1250   27.4110   32.8040 C   0  0  0  0  0  0  0  0  0  0  0  0
   42.2100   26.4970   32.0760 C   0  0  2  0  0  0  0  0  0  0  0  0
   42.9970   25.4270   31.3870 C   0  0  0  0  0  0  0  0  0  0  0  0
   42.5300   24.9230   30.1700 C   0  0  0  0  0  0  0  0  0  0  0  0
   43.1730   23.9260   29.4320 C   0  0  0  0  0  0  0  0  0  0  0  0
   44.3260   23.4550   29.9850 N   0  0  0  0  0  0  0  0  0  0  0  0
   44.7680   23.9530   31.1680 C   0  0  0  0  0  0  0  0  0  0  0  0
   44.1260   24.9130   31.8550 N   0  0  0  0  0  0  0  0  0  0  0  0
   38.4960   24.5900   33.7970 N   0  0  0  0  0  0  0  0  0  0  0  0
   39.1950   25.7090   33.5760 C   0  0  0  0  0  0  0  0  0  0  0  0
   39.2000   26.2470   32.2930 C   0  0  0  0  0  0  0  0  0  0  0  0
   38.4770   25.6000   31.2870 C   0  0  0  0  0  0  0  0  0  0  0  0
   38.4130   25.9960   30.1030 O   0  0  0  0  0  0  0  0  0  0  0  0
   37.7800   24.4620   31.5580 N   0  0  0  0  0  0  0  0  0  0  0  0
   37.8040   23.9830   32.8020 C   0  0  0  0  0  0  0  0  0  0  0  0
   37.1640   22.9380   33.0530 O   0  0  0  0  0  0  0  0  0  0  0  0
   37.8160   24.8020   36.1030 C   0  0  0  0  0  0  0  0  0  0  0  0
   38.5530   24.1230   35.1250 C   0  0  0  0  0  0  0  0  0  0  0  0
   39.3010   23.0190   35.5280 C   0  0  0  0  0  0  0  0  0  0  0  0
   39.2800   22.6570   36.8480 N   0  0  0  0  0  0  0  0  0  0  0  0
   38.5600   23.3330   37.7640 C   0  0  0  0  0  0  0  0  0  0  0  0
   37.8390   24.3950   37.3760 N   0  0  0  0  0  0  0  0  0  0  0  0
   38.7000   22.7660   39.0540 N   0  0  0  0  0  0  0  0  0  0  0  0
   39.2934   28.0877   31.2444 H   0  0  0  0  0  0  0  0  0  0  0  0
   40.1809   28.0413   32.8220 H   0  0  0  0  0  0  0  0  0  0  0  0
   41.0153   26.3990   30.4113 H   0  0  0  0  0  0  0  0  0  0  0  0
   40.9079   28.9997   30.2048 H   0  0  0  0  0  0  0  0  0  0  0  0
   42.1476   27.8701   29.4487 H   0  0  0  0  0  0  0  0  0  0  0  0
   43.4145   29.5557   30.1898 H   0  0  0  0  0  0  0  0  0  0  0  0
   42.3726   29.7476   31.7102 H   0  0  0  0  0  0  0  0  0  0  0  0
   44.4281   27.6475   31.1373 H   0  0  0  0  0  0  0  0  0  0  0  0
   44.4750   28.9850   32.3531 H   0  0  0  0  0  0  0  0  0  0  0  0
   43.8634   26.8228   33.3687 H   0  0  0  0  0  0  0  0  0  0  0  0
   42.5514   28.0341   33.5060 H   0  0  0  0  0  0  0  0  0  0  0  0
   41.5679   26.0364   32.8412 H   0  0  0  0  0  0  0  0  0  0  0  0
   41.5948   25.3385   29.7667 H   0  0  0  0  0  0  0  0  0  0  0  0
   42.7783   23.5497   28.4767 H   0  0  0  0  0  0  0  0  0  0  0  0
   45.7016   23.5491   31.5866 H   0  0  0  0  0  0  0  0  0  0  0  0
   39.7535   26.1931   34.3907 H   0  0  0  0  0  0  0  0  0  0  0  0
   37.2465   23.9823   30.8189 H   0  0  0  0  0  0  0  0  0  0  0  0
   37.2130   25.6778   35.8213 H   0  0  0  0  0  0  0  0  0  0  0  0
   39.8969   22.4493   34.7997 H   0  0  0  0  0  0  0  0  0  0  0  0
   38.2040   23.1811   39.8556 H   0  0  0  0  0  0  0  0  0  0  0  0
   39.2978   21.9385   39.1907 H   0  0  0  0  0  0  0  0  0  0  0  0
  1 16  1  0
  2  1  1  0
  2  7  1  0
  3  4  1  0
  3  2  1  0
  4  5  1  0
  5  6  1  0
  7  6  1  0
  8 13  1  0
  8  7  1  0
  9  8  2  0
 10 11  2  0
 10  9  1  0
 11 12  1  0
 12 13  2  0
 14 23  1  0
 15 14  1  0
 16 15  2  0
 17 19  1  0
 17 16  1  0
 18 17  2  0
 19 20  1  0
 20 21  2  0
 20 14  1  0
 22 27  2  0
 23 24  2  0
 23 22  1  0
 24 25  1  0
 25 26  2  0
 26 28  1  0
 27 26  1  0
  1 29  1  0
  1 30  1  0
  2 31  1  6
  3 32  1  0
  3 33  1  0
  4 34  1  0
  4 35  1  0
  5 36  1  0
  5 37  1  0
  6 38  1  0
  6 39  1  0
  7 40  1  1
  9 41  1  0
 10 42  1  0
 12 43  1  0
 15 44  1  0
 19 45  1  0
 22 46  1  0
 24 47  1  0
 28 48  1  0
 28 49  1  0
M  ISO  8  29   8  30   8  31  13  32  13  33  13  34  13  35  13  36  13
M  ISO  8  37  13  38  13  39  13  40  13  41  14  42  14  43  14  44  14
M  ISO  3  45   9  46  14  47  14
M  END
>  <minimizedAffinity>  (1) 
-4.44346333

>  <minimizedRMSD>  (1) 
0.0755877569

$$$$
