
     RDKit          3D

 33 35  0  0  1  0  0  0  0  0999 V2000
   38.6210   22.8870   34.9570 N   0  0  0  0  0  0  0  0  0  0  0  0
   37.6250   22.3400   35.8590 C   0  0  0  0  0  0  0  0  0  0  0  0
   37.5550   23.2900   37.0330 C   0  0  0  0  0  0  0  0  0  0  0  0
   39.0410   23.6960   37.0890 C   0  0  0  0  0  0  0  0  0  0  0  0
   39.2290   23.9720   35.5890 C   0  0  2  0  0  0  0  0  0  0  0  0
   38.4990   25.2370   35.3160 N   0  0  0  0  0  0  0  0  0  0  0  0
   37.7050   25.4160   34.2500 N   0  0  0  0  0  0  0  0  0  0  0  0
   37.1850   26.6560   34.2740 C   0  0  0  0  0  0  0  0  0  0  0  0
   37.6680   27.2890   35.4000 C   0  0  0  0  0  0  0  0  0  0  0  0
   38.4870   26.3860   36.0370 C   0  0  0  0  0  0  0  0  0  0  0  0
   40.5030   24.2150   35.1860 O   0  0  0  0  0  0  0  0  0  0  0  0
   41.3110   23.3820   35.9160 C   0  0  0  0  0  0  0  0  0  0  0  0
   42.9240   25.0730   35.3940 C   0  0  0  0  0  0  0  0  0  0  0  0
   42.6600   23.8080   35.9800 C   0  0  0  0  0  0  0  0  0  0  0  0
   43.7250   23.1730   36.5150 C   0  0  0  0  0  0  0  0  0  0  0  0
   44.9790   23.7560   36.4720 N   0  0  0  0  0  0  0  0  0  0  0  0
   45.1670   24.9520   35.9070 C   0  0  0  0  0  0  0  0  0  0  0  0
   44.1570   25.6730   35.3390 N   0  0  0  0  0  0  0  0  0  0  0  0
   38.1690   23.1990   34.0856 H   0  0  0  0  0  0  0  0  0  0  0  0
   36.6478   22.2803   35.3576 H   0  0  0  0  0  0  0  0  0  0  0  0
   37.8906   21.3223   36.1811 H   0  0  0  0  0  0  0  0  0  0  0  0
   36.8981   24.1491   36.8321 H   0  0  0  0  0  0  0  0  0  0  0  0
   37.1394   22.8714   37.9615 H   0  0  0  0  0  0  0  0  0  0  0  0
   39.2074   24.5927   37.7040 H   0  0  0  0  0  0  0  0  0  0  0  0
   39.7294   22.9667   37.5410 H   0  0  0  0  0  0  0  0  0  0  0  0
   36.4988   27.0872   33.5303 H   0  0  0  0  0  0  0  0  0  0  0  0
   37.4424   28.3153   35.7251 H   0  0  0  0  0  0  0  0  0  0  0  0
   39.0383   26.5651   36.9719 H   0  0  0  0  0  0  0  0  0  0  0  0
   40.9158   23.3257   36.9410 H   0  0  0  0  0  0  0  0  0  0  0  0
   41.3064   22.4055   35.4096 H   0  0  0  0  0  0  0  0  0  0  0  0
   42.0755   25.6141   34.9499 H   0  0  0  0  0  0  0  0  0  0  0  0
   43.5949   22.1880   36.9870 H   0  0  0  0  0  0  0  0  0  0  0  0
   46.1824   25.3750   35.8993 H   0  0  0  0  0  0  0  0  0  0  0  0
  1  5  1  0
  1  2  1  0
  2  3  1  0
  3  4  1  0
  5 11  1  1
  5  4  1  0
  6  5  1  0
  6 10  1  0
  7  8  2  0
  7  6  1  0
  8  9  1  0
  9 10  2  0
 11 12  1  0
 12 14  1  0
 13 14  2  0
 14 15  1  0
 16 15  2  0
 17 16  1  0
 18 13  1  0
 18 17  2  0
  1 19  1  0
  2 20  1  0
  2 21  1  0
  3 22  1  0
  3 23  1  0
  4 24  1  0
  4 25  1  0
  8 26  1  0
  9 27  1  0
 10 28  1  0
 12 29  1  0
 12 30  1  0
 13 31  1  0
 15 32  1  0
 17 33  1  0
M  ISO  8  19   5  20  13  21  13  22  13  23  13  24  13  25  13  26  14
M  ISO  7  27  14  28  14  29   8  30   8  31  14  32  14  33  14
M  END
>  <minimizedAffinity>  (1) 
-3.93612456

>  <minimizedRMSD>  (1) 
5.65635538

$$$$
