
     RDKit          3D

 29 30  0  0  1  0  0  0  0  0999 V2000
   39.8960   23.8550   35.8250 N   0  0  0  0  0  0  0  0  0  0  0  0
   40.9550   23.1290   36.4960 C   0  0  0  0  0  0  0  0  0  0  0  0
   40.2800   22.2910   37.5700 C   0  0  0  0  0  0  0  0  0  0  0  0
   39.1000   23.2200   37.9080 C   0  0  0  0  0  0  0  0  0  0  0  0
   38.6840   23.5590   36.4800 C   0  0  2  0  0  0  0  0  0  0  0  0
   38.0690   22.2770   35.8820 C   0  0  0  0  0  0  0  0  0  0  0  0
   37.7440   24.5210   36.3050 O   0  0  0  0  0  0  0  0  0  0  0  0
   38.4370   25.6580   35.9260 C   0  0  0  0  0  0  0  0  0  0  0  0
   37.5050   25.6240   33.6480 C   0  0  0  0  0  0  0  0  0  0  0  0
   37.6930   26.3350   34.8530 C   0  0  0  0  0  0  0  0  0  0  0  0
   37.2120   27.6050   34.9340 C   0  0  0  0  0  0  0  0  0  0  0  0
   36.5650   28.1470   33.8450 N   0  0  0  0  0  0  0  0  0  0  0  0
   36.4090   27.4370   32.7240 C   0  0  0  0  0  0  0  0  0  0  0  0
   36.8610   26.1790   32.5820 N   0  0  0  0  0  0  0  0  0  0  0  0
   39.8414   23.5620   34.8391 H   0  0  0  0  0  0  0  0  0  0  0  0
   41.4840   22.4802   35.7824 H   0  0  0  0  0  0  0  0  0  0  0  0
   41.6981   23.8141   36.9301 H   0  0  0  0  0  0  0  0  0  0  0  0
   39.9401   21.3201   37.1804 H   0  0  0  0  0  0  0  0  0  0  0  0
   40.9195   22.0155   38.4216 H   0  0  0  0  0  0  0  0  0  0  0  0
   38.3047   22.6994   38.4616 H   0  0  0  0  0  0  0  0  0  0  0  0
   39.3293   24.0751   38.5608 H   0  0  0  0  0  0  0  0  0  0  0  0
   37.7489   21.6098   36.6958 H   0  0  0  0  0  0  0  0  0  0  0  0
   37.2000   22.5420   35.2619 H   0  0  0  0  0  0  0  0  0  0  0  0
   38.8195   21.7650   35.2619 H   0  0  0  0  0  0  0  0  0  0  0  0
   38.5376   26.3335   36.7883 H   0  0  0  0  0  0  0  0  0  0  0  0
   39.4390   25.3808   35.5666 H   0  0  0  0  0  0  0  0  0  0  0  0
   37.8878   24.5960   33.5670 H   0  0  0  0  0  0  0  0  0  0  0  0
   37.3379   28.1911   35.8563 H   0  0  0  0  0  0  0  0  0  0  0  0
   35.8857   27.9042   31.8767 H   0  0  0  0  0  0  0  0  0  0  0  0
  1  5  1  0
  1  2  1  0
  2  3  1  0
  3  4  1  0
  5  6  1  0
  5  4  1  0
  5  7  1  1
  8  7  1  0
  9 10  2  0
 10 11  1  0
 10  8  1  0
 12 11  2  0
 13 12  1  0
 14 13  2  0
 14  9  1  0
  1 15  1  0
  2 16  1  0
  2 17  1  0
  3 18  1  0
  3 19  1  0
  4 20  1  0
  4 21  1  0
  6 22  1  0
  6 23  1  0
  6 24  1  0
  8 25  1  0
  8 26  1  0
  9 27  1  0
 11 28  1  0
 13 29  1  0
M  ISO  8  15   5  16  13  17  13  18  13  19  13  20  13  21  13  22   8
M  ISO  7  23   8  24   8  25   8  26   8  27  14  28  14  29  14
M  END
>  <minimizedAffinity>  (1) 
-3.83273649

>  <minimizedRMSD>  (1) 
0.373547137

$$$$
