
     RDKit          3D

 38 39  0  0  1  0  0  0  0  0999 V2000
   39.4820   25.1760   34.7660 N   0  0  0  0  0  0  0  0  0  0  0  0
   38.7930   24.7760   35.9610 C   0  0  0  0  0  0  0  0  0  0  0  0
   37.9980   25.9400   36.4510 C   0  0  0  0  0  0  0  0  0  0  0  0
   38.7520   27.1010   35.7980 C   0  0  0  0  0  0  0  0  0  0  0  0
   39.1670   26.4940   34.4680 C   0  0  2  0  0  0  0  0  0  0  0  0
   38.0290   26.7510   33.4530 C   0  0  0  0  0  0  0  0  0  0  0  0
   36.9810   27.6630   34.1390 C   0  0  0  0  0  0  0  0  0  0  0  0
   37.2970   25.4990   33.0990 C   0  0  0  0  0  0  0  0  0  0  0  0
   38.4120   27.4940   32.2340 C   0  0  0  0  0  0  0  0  0  0  0  0
   40.1920   27.1560   33.8370 O   0  0  0  0  0  0  0  0  0  0  0  0
   41.3680   26.6850   34.3470 C   0  0  0  0  0  0  0  0  0  0  0  0
   42.1540   27.8750   32.3530 C   0  0  0  0  0  0  0  0  0  0  0  0
   42.4840   27.2080   33.5510 C   0  0  0  0  0  0  0  0  0  0  0  0
   43.8010   27.0540   33.8460 C   0  0  0  0  0  0  0  0  0  0  0  0
   44.7530   27.5470   32.9760 N   0  0  0  0  0  0  0  0  0  0  0  0
   44.3900   28.1720   31.8520 C   0  0  0  0  0  0  0  0  0  0  0  0
   43.0940   28.3650   31.4900 N   0  0  0  0  0  0  0  0  0  0  0  0
   40.4982   25.0905   34.9109 H   0  0  0  0  0  0  0  0  0  0  0  0
   38.1218   23.9330   35.7397 H   0  0  0  0  0  0  0  0  0  0  0  0
   39.5146   24.4581   36.7280 H   0  0  0  0  0  0  0  0  0  0  0  0
   36.9545   25.8908   36.1065 H   0  0  0  0  0  0  0  0  0  0  0  0
   37.9194   26.0079   37.5461 H   0  0  0  0  0  0  0  0  0  0  0  0
   38.0971   27.9729   35.6533 H   0  0  0  0  0  0  0  0  0  0  0  0
   39.5938   27.4784   36.3972 H   0  0  0  0  0  0  0  0  0  0  0  0
   37.0794   27.5774   35.2312 H   0  0  0  0  0  0  0  0  0  0  0  0
   37.1494   28.7071   33.8364 H   0  0  0  0  0  0  0  0  0  0  0  0
   35.9702   27.3520   33.8364 H   0  0  0  0  0  0  0  0  0  0  0  0
   36.9931   24.9792   34.0196 H   0  0  0  0  0  0  0  0  0  0  0  0
   36.4039   25.7510   32.5083 H   0  0  0  0  0  0  0  0  0  0  0  0
   37.9546   24.8443   32.5083 H   0  0  0  0  0  0  0  0  0  0  0  0
   38.8989   28.4386   32.5181 H   0  0  0  0  0  0  0  0  0  0  0  0
   39.1094   26.8867   31.6383 H   0  0  0  0  0  0  0  0  0  0  0  0
   37.5127   27.7097   31.6383 H   0  0  0  0  0  0  0  0  0  0  0  0
   41.4745   27.0150   35.3909 H   0  0  0  0  0  0  0  0  0  0  0  0
   41.3721   25.5856   34.3108 H   0  0  0  0  0  0  0  0  0  0  0  0
   41.0913   28.0070   32.1015 H   0  0  0  0  0  0  0  0  0  0  0  0
   44.1063   26.5410   34.7699 H   0  0  0  0  0  0  0  0  0  0  0  0
   45.1799   28.5494   31.1860 H   0  0  0  0  0  0  0  0  0  0  0  0
  1  2  1  0
  2  3  1  0
  4  3  1  0
  5 10  1  6
  5  1  1  0
  5  4  1  0
  6  7  1  0
  6  5  1  0
  8  6  1  0
  9  6  1  0
 10 11  1  0
 12 13  2  0
 13 14  1  0
 13 11  1  0
 15 14  2  0
 16 15  1  0
 17 16  2  0
 17 12  1  0
  1 18  1  0
  2 19  1  0
  2 20  1  0
  3 21  1  0
  3 22  1  0
  4 23  1  0
  4 24  1  0
  7 25  1  0
  7 26  1  0
  7 27  1  0
  8 28  1  0
  8 29  1  0
  8 30  1  0
  9 31  1  0
  9 32  1  0
  9 33  1  0
 11 34  1  0
 11 35  1  0
 12 36  1  0
 14 37  1  0
 16 38  1  0
M  ISO  8  18   5  19  13  20  13  21  13  22  13  23  13  24  13  25   8
M  ISO  8  26   8  27   8  28   8  29   8  30   8  31   8  32   8  33   8
M  ISO  5  34   8  35   8  36  14  37  14  38  14
M  END
>  <minimizedAffinity>  (1) 
-3.64030385

>  <minimizedRMSD>  (1) 
5.57206106

$$$$
