
     RDKit          3D

 48 51  0  0  1  0  0  0  0  0999 V2000
   39.9180   27.4810   31.8900 C   0  0  0  0  0  0  0  0  0  0  0  0
   41.2200   27.1590   31.1890 C   0  0  1  0  0  0  0  0  0  0  0  0
   41.7320   28.2940   30.3790 C   0  0  0  0  0  0  0  0  0  0  0  0
   42.8460   29.0590   30.9900 C   0  0  0  0  0  0  0  0  0  0  0  0
   43.8130   28.2810   31.8180 C   0  0  0  0  0  0  0  0  0  0  0  0
   43.0830   27.4620   32.8370 C   0  0  0  0  0  0  0  0  0  0  0  0
   42.1960   26.5100   32.1110 C   0  0  2  0  0  0  0  0  0  0  0  0
   42.9680   25.4180   31.4310 C   0  0  0  0  0  0  0  0  0  0  0  0
   42.5450   24.8080   30.2460 C   0  0  0  0  0  0  0  0  0  0  0  0
   43.4630   23.8290   29.8480 C   0  0  0  0  0  0  0  0  0  0  0  0
   44.4020   23.8870   30.8090 N   0  0  0  0  0  0  0  0  0  0  0  0
   44.1110   24.8040   31.7170 N   0  0  0  0  0  0  0  0  0  0  0  0
   38.4800   24.5900   33.7910 N   0  0  0  0  0  0  0  0  0  0  0  0
   39.1770   25.7050   33.5630 C   0  0  0  0  0  0  0  0  0  0  0  0
   39.1770   26.2410   32.2770 C   0  0  0  0  0  0  0  0  0  0  0  0
   38.4580   25.6060   31.2810 C   0  0  0  0  0  0  0  0  0  0  0  0
   38.3890   26.0000   30.0900 O   0  0  0  0  0  0  0  0  0  0  0  0
   37.7560   24.4640   31.5490 N   0  0  0  0  0  0  0  0  0  0  0  0
   37.7860   23.9850   32.8030 C   0  0  0  0  0  0  0  0  0  0  0  0
   37.1460   22.9400   33.0620 O   0  0  0  0  0  0  0  0  0  0  0  0
   37.8170   24.7950   36.1070 C   0  0  0  0  0  0  0  0  0  0  0  0
   38.5430   24.1260   35.1150 C   0  0  0  0  0  0  0  0  0  0  0  0
   39.2940   23.0220   35.5130 C   0  0  0  0  0  0  0  0  0  0  0  0
   39.2890   22.6490   36.8350 N   0  0  0  0  0  0  0  0  0  0  0  0
   38.5780   23.3200   37.7560 C   0  0  0  0  0  0  0  0  0  0  0  0
   37.8550   24.3800   37.3760 N   0  0  0  0  0  0  0  0  0  0  0  0
   38.7080   22.7740   39.0540 N   0  0  0  0  0  0  0  0  0  0  0  0
   39.2871   28.0770   31.2142 H   0  0  0  0  0  0  0  0  0  0  0  0
   40.1518   28.0412   32.8073 H   0  0  0  0  0  0  0  0  0  0  0  0
   41.0229   26.3899   30.4277 H   0  0  0  0  0  0  0  0  0  0  0  0
   40.8981   28.9897   30.2042 H   0  0  0  0  0  0  0  0  0  0  0  0
   42.1378   27.8506   29.4577 H   0  0  0  0  0  0  0  0  0  0  0  0
   43.4111   29.5347   30.1750 H   0  0  0  0  0  0  0  0  0  0  0  0
   42.3676   29.7634   31.6864 H   0  0  0  0  0  0  0  0  0  0  0  0
   44.3949   27.6137   31.1653 H   0  0  0  0  0  0  0  0  0  0  0  0
   44.4849   28.9811   32.3361 H   0  0  0  0  0  0  0  0  0  0  0  0
   43.8033   26.9049   33.4541 H   0  0  0  0  0  0  0  0  0  0  0  0
   42.4888   28.1120   33.4961 H   0  0  0  0  0  0  0  0  0  0  0  0
   41.5834   26.0442   32.8970 H   0  0  0  0  0  0  0  0  0  0  0  0
   41.6221   25.0614   29.7037 H   0  0  0  0  0  0  0  0  0  0  0  0
   43.4255   23.1732   28.9657 H   0  0  0  0  0  0  0  0  0  0  0  0
   45.2424   23.2920   30.8348 H   0  0  0  0  0  0  0  0  0  0  0  0
   39.7399   26.1908   34.3737 H   0  0  0  0  0  0  0  0  0  0  0  0
   37.2201   23.9853   30.8110 H   0  0  0  0  0  0  0  0  0  0  0  0
   37.2089   25.6715   35.8389 H   0  0  0  0  0  0  0  0  0  0  0  0
   39.8840   22.4558   34.7772 H   0  0  0  0  0  0  0  0  0  0  0  0
   38.2085   23.2035   39.8458 H   0  0  0  0  0  0  0  0  0  0  0  0
   39.3021   21.9468   39.2076 H   0  0  0  0  0  0  0  0  0  0  0  0
  1 15  1  0
  2  1  1  0
  2  7  1  0
  3  4  1  0
  3  2  1  0
  4  5  1  0
  5  6  1  0
  7  6  1  0
  8 12  2  0
  8  7  1  0
  9  8  1  0
 10  9  2  0
 10 11  1  0
 11 12  1  0
 13 22  1  0
 14 13  1  0
 15 14  2  0
 16 18  1  0
 16 15  1  0
 17 16  2  0
 18 19  1  0
 19 20  2  0
 19 13  1  0
 21 26  2  0
 22 23  2  0
 22 21  1  0
 23 24  1  0
 24 25  2  0
 25 27  1  0
 26 25  1  0
  1 28  1  0
  1 29  1  0
  2 30  1  6
  3 31  1  0
  3 32  1  0
  4 33  1  0
  4 34  1  0
  5 35  1  0
  5 36  1  0
  6 37  1  0
  6 38  1  0
  7 39  1  1
  9 40  1  0
 10 41  1  0
 11 42  1  0
 14 43  1  0
 18 44  1  0
 21 45  1  0
 23 46  1  0
 27 47  1  0
 27 48  1  0
M  ISO  8  28   8  29   8  30  13  31  13  32  13  33  13  34  13  35  13
M  ISO  8  36  13  37  13  38  13  39  13  40  14  41  14  42   9  43  14
M  ISO  3  44   9  45  14  46  14
M  END
>  <minimizedAffinity>  (1) 
-4.42683506

>  <minimizedRMSD>  (1) 
0.230321735

$$$$
