
     RDKit          3D

 40 43  0  0  1  0  0  0  0  0999 V2000
   37.2590   23.4540   37.2270 N   0  0  0  0  0  0  0  0  0  0  0  0
   37.8570   23.3710   38.5450 C   0  0  0  0  0  0  0  0  0  0  0  0
   39.3370   23.5980   38.3560 C   0  0  0  0  0  0  0  0  0  0  0  0
   39.5290   23.0260   36.9270 C   0  0  0  0  0  0  0  0  0  0  0  0
   38.3140   23.6230   36.2800 C   0  0  2  0  0  0  0  0  0  0  0  0
   38.6060   25.1120   36.1340 C   0  0  0  0  0  0  0  0  0  0  0  0
   39.5700   25.4320   35.1920 C   0  0  0  0  0  0  0  0  0  0  0  0
   39.7220   26.8280   35.1780 C   0  0  0  0  0  0  0  0  0  0  0  0
   38.8520   27.2890   36.1050 N   0  0  0  0  0  0  0  0  0  0  0  0
   38.2050   26.2910   36.6580 N   0  0  0  0  0  0  0  0  0  0  0  0
   37.9030   23.2250   35.0550 O   0  0  0  0  0  0  0  0  0  0  0  0
   37.2790   21.9950   35.2640 C   0  0  0  0  0  0  0  0  0  0  0  0
   38.0210   21.5460   32.9600 C   0  0  0  0  0  0  0  0  0  0  0  0
   37.0440   21.3660   33.9760 C   0  0  0  0  0  0  0  0  0  0  0  0
   35.9020   20.6690   33.6660 C   0  0  0  0  0  0  0  0  0  0  0  0
   35.7470   20.1730   32.3860 N   0  0  0  0  0  0  0  0  0  0  0  0
   36.7030   20.3780   31.4730 C   0  0  0  0  0  0  0  0  0  0  0  0
   37.8360   21.0440   31.7050 N   0  0  0  0  0  0  0  0  0  0  0  0
   36.4930   19.8250   30.0970 C   0  0  0  0  0  0  0  0  0  0  0  0
   37.7670   19.2580   29.4100 C   0  0  0  0  0  0  0  0  0  0  0  0
   36.6400   18.3870   29.8150 C   0  0  0  0  0  0  0  0  0  0  0  0
   36.7397   22.5883   37.0225 H   0  0  0  0  0  0  0  0  0  0  0  0
   37.4346   24.1439   39.2039 H   0  0  0  0  0  0  0  0  0  0  0  0
   37.6595   22.3948   39.0119 H   0  0  0  0  0  0  0  0  0  0  0  0
   39.5936   24.6666   38.4038 H   0  0  0  0  0  0  0  0  0  0  0  0
   39.9740   23.1360   39.1247 H   0  0  0  0  0  0  0  0  0  0  0  0
   40.4613   23.3787   36.4617 H   0  0  0  0  0  0  0  0  0  0  0  0
   39.6156   21.9315   36.8595 H   0  0  0  0  0  0  0  0  0  0  0  0
   40.1209   24.7166   34.5638 H   0  0  0  0  0  0  0  0  0  0  0  0
   40.4027   27.4196   34.5481 H   0  0  0  0  0  0  0  0  0  0  0  0
   38.7167   28.2820   36.3428 H   0  0  0  0  0  0  0  0  0  0  0  0
   37.9264   21.3512   35.8775 H   0  0  0  0  0  0  0  0  0  0  0  0
   36.3232   22.1443   35.7876 H   0  0  0  0  0  0  0  0  0  0  0  0
   38.9431   22.1001   33.1895 H   0  0  0  0  0  0  0  0  0  0  0  0
   35.1226   20.5081   34.4254 H   0  0  0  0  0  0  0  0  0  0  0  0
   35.6979   20.5544   29.8829 H   0  0  0  0  0  0  0  0  0  0  0  0
   38.7218   19.2203   29.9549 H   0  0  0  0  0  0  0  0  0  0  0  0
   38.3158   19.4565   28.4776 H   0  0  0  0  0  0  0  0  0  0  0  0
   36.0121   17.9215   29.0410 H   0  0  0  0  0  0  0  0  0  0  0  0
   36.5684   17.4828   30.4373 H   0  0  0  0  0  0  0  0  0  0  0  0
  1  2  1  0
  3  2  1  0
  4  3  1  0
  5 11  1  6
  5  4  1  0
  5  1  1  0
  6  5  1  0
  6 10  2  0
  7  6  1  0
  8  7  2  0
  8  9  1  0
  9 10  1  0
 11 12  1  0
 13 14  2  0
 14 12  1  0
 15 14  1  0
 16 15  2  0
 17 18  2  0
 17 16  1  0
 18 13  1  0
 19 17  1  0
 20 21  1  0
 20 19  1  0
 21 19  1  0
  1 22  1  0
  2 23  1  0
  2 24  1  0
  3 25  1  0
  3 26  1  0
  4 27  1  0
  4 28  1  0
  7 29  1  0
  8 30  1  0
  9 31  1  0
 12 32  1  0
 12 33  1  0
 13 34  1  0
 15 35  1  0
 19 36  1  0
 20 37  1  0
 20 38  1  0
 21 39  1  0
 21 40  1  0
M  ISO  8  22   5  23  13  24  13  25  13  26  13  27  13  28  13  29  14
M  ISO  8  30  14  31   9  32   8  33   8  34  14  35  14  36  13  37  13
M  ISO  3  38  13  39  13  40  13
M  END
>  <minimizedAffinity>  (1) 
-4.85531092

>  <minimizedRMSD>  (1) 
1.21652782

$$$$
