
     RDKit          3D

 45 48  0  0  1  0  0  0  0  0999 V2000
   38.2580   22.2780   34.0000 C   0  0  0  0  0  0  0  0  0  0  0  0
   36.3430   20.7480   34.1580 C   0  0  0  0  0  0  0  0  0  0  0  0
   37.0980   21.6710   33.3720 C   0  0  0  0  0  0  0  0  0  0  0  0
   36.6910   21.9230   32.0860 C   0  0  0  0  0  0  0  0  0  0  0  0
   35.5730   21.2780   31.6020 N   0  0  0  0  0  0  0  0  0  0  0  0
   34.9070   20.4260   32.3770 C   0  0  0  0  0  0  0  0  0  0  0  0
   35.2340   20.1250   33.6370 N   0  0  0  0  0  0  0  0  0  0  0  0
   33.7540   19.7620   31.8620 N   0  0  0  0  0  0  0  0  0  0  0  0
   37.4260   22.8390   31.2840 N   0  0  0  0  0  0  0  0  0  0  0  0
   38.7150   22.4870   31.0120 C   0  0  0  0  0  0  0  0  0  0  0  0
   39.5470   23.2950   30.2360 C   0  0  0  0  0  0  0  0  0  0  0  0
   38.9800   24.4790   29.7590 C   0  0  0  0  0  0  0  0  0  0  0  0
   39.6880   25.2590   29.0440 O   0  0  0  0  0  0  0  0  0  0  0  0
   37.7030   24.7970   30.0450 N   0  0  0  0  0  0  0  0  0  0  0  0
   36.9320   23.9940   30.7950 C   0  0  0  0  0  0  0  0  0  0  0  0
   35.7350   24.2340   31.0970 O   0  0  0  0  0  0  0  0  0  0  0  0
   37.8540   23.4800   34.5750 O   0  0  0  0  0  0  0  0  0  0  0  0
   39.7060   23.5980   35.8730 N   0  0  0  0  0  0  0  0  0  0  0  0
   41.0920   23.9900   35.7450 C   0  0  0  0  0  0  0  0  0  0  0  0
   41.1610   24.9300   34.5620 C   0  0  0  0  0  0  0  0  0  0  0  0
   39.9970   24.3660   33.6980 C   0  0  0  0  0  0  0  0  0  0  0  0
   38.9890   24.1800   34.7880 C   0  0  1  0  0  0  0  0  0  0  0  0
   38.5310   25.5730   35.1890 C   0  0  0  0  0  0  0  0  0  0  0  0
   37.6770   26.2010   34.2960 C   0  0  0  0  0  0  0  0  0  0  0  0
   37.3450   27.4720   34.8010 C   0  0  0  0  0  0  0  0  0  0  0  0
   38.0080   27.5620   35.9710 N   0  0  0  0  0  0  0  0  0  0  0  0
   38.6960   26.4570   36.1930 N   0  0  0  0  0  0  0  0  0  0  0  0
   39.0352   22.4676   33.2450 H   0  0  0  0  0  0  0  0  0  0  0  0
   38.6733   21.6073   34.7666 H   0  0  0  0  0  0  0  0  0  0  0  0
   36.6523   20.5333   35.1915 H   0  0  0  0  0  0  0  0  0  0  0  0
   33.2325   19.1009   32.4552 H   0  0  0  0  0  0  0  0  0  0  0  0
   33.4431   19.9438   30.8970 H   0  0  0  0  0  0  0  0  0  0  0  0
   39.1090   21.5421   31.4145 H   0  0  0  0  0  0  0  0  0  0  0  0
   40.5875   23.0161   30.0132 H   0  0  0  0  0  0  0  0  0  0  0  0
   37.3092   25.6760   29.6801 H   0  0  0  0  0  0  0  0  0  0  0  0
   39.6268   22.5717   35.8354 H   0  0  0  0  0  0  0  0  0  0  0  0
   41.4286   24.5022   36.6584 H   0  0  0  0  0  0  0  0  0  0  0  0
   41.7425   23.1152   35.5984 H   0  0  0  0  0  0  0  0  0  0  0  0
   40.9799   25.9735   34.8591 H   0  0  0  0  0  0  0  0  0  0  0  0
   42.1371   24.9660   34.0562 H   0  0  0  0  0  0  0  0  0  0  0  0
   39.6583   25.0848   32.9373 H   0  0  0  0  0  0  0  0  0  0  0  0
   40.2312   23.4708   33.1033 H   0  0  0  0  0  0  0  0  0  0  0  0
   37.3175   25.7755   33.3475 H   0  0  0  0  0  0  0  0  0  0  0  0
   36.6888   28.2260   34.3419 H   0  0  0  0  0  0  0  0  0  0  0  0
   37.9818   28.3760   36.6016 H   0  0  0  0  0  0  0  0  0  0  0  0
  1 17  1  0
  3  1  1  0
  3  2  2  0
  4  3  1  0
  5  4  2  0
  5  6  1  0
  6  7  2  0
  7  2  1  0
  8  6  1  0
  9  4  1  0
 10  9  1  0
 11 10  2  0
 12 14  1  0
 12 11  1  0
 13 12  2  0
 14 15  1  0
 15 16  2  0
 15  9  1  0
 19 18  1  0
 20 19  1  0
 21 20  1  0
 21 22  1  0
 22 17  1  6
 22 23  1  0
 22 18  1  0
 23 27  2  0
 24 25  2  0
 24 23  1  0
 25 26  1  0
 26 27  1  0
  1 28  1  0
  1 29  1  0
  2 30  1  0
  8 31  1  0
  8 32  1  0
 10 33  1  0
 11 34  1  0
 14 35  1  0
 18 36  1  0
 19 37  1  0
 19 38  1  0
 20 39  1  0
 20 40  1  0
 21 41  1  0
 21 42  1  0
 24 43  1  0
 25 44  1  0
 26 45  1  0
M  ISO  8  28   8  29   8  30  14  33  14  34  14  35   9  36   5  37  13
M  ISO  8  38  13  39  13  40  13  41  13  42  13  43  14  44  14  45   9
M  END
>  <minimizedAffinity>  (1) 
-5.46907473

>  <minimizedRMSD>  (1) 
4.93736982

$$$$
