
     RDKit          3D

 48 51  0  0  1  0  0  0  0  0999 V2000
   37.2410   23.4910   37.1160 N   0  0  0  0  0  0  0  0  0  0  0  0
   37.8140   23.3660   38.4330 C   0  0  0  0  0  0  0  0  0  0  0  0
   39.2940   23.6320   38.2720 C   0  0  0  0  0  0  0  0  0  0  0  0
   39.5110   23.1390   36.8130 C   0  0  0  0  0  0  0  0  0  0  0  0
   38.2910   23.7450   36.1850 C   0  0  2  0  0  0  0  0  0  0  0  0
   38.5540   25.2350   36.1160 C   0  0  0  0  0  0  0  0  0  0  0  0
   39.4850   25.6280   35.1620 C   0  0  0  0  0  0  0  0  0  0  0  0
   39.6170   27.0240   35.2200 C   0  0  0  0  0  0  0  0  0  0  0  0
   38.7660   27.4170   36.2020 N   0  0  0  0  0  0  0  0  0  0  0  0
   38.1480   26.3700   36.7200 N   0  0  0  0  0  0  0  0  0  0  0  0
   37.8650   23.4050   34.9480 O   0  0  0  0  0  0  0  0  0  0  0  0
   37.9900   22.0120   34.8860 C   0  0  0  0  0  0  0  0  0  0  0  0
   39.8850   21.6220   33.4010 C   0  0  0  0  0  0  0  0  0  0  0  0
   38.4660   21.6530   33.5700 C   0  0  0  0  0  0  0  0  0  0  0  0
   37.6960   21.3560   32.4880 C   0  0  0  0  0  0  0  0  0  0  0  0
   38.3060   21.0420   31.2990 N   0  0  0  0  0  0  0  0  0  0  0  0
   39.6250   21.0280   31.1920 C   0  0  0  0  0  0  0  0  0  0  0  0
   40.4600   21.3050   32.1930 N   0  0  0  0  0  0  0  0  0  0  0  0
   40.2290   20.7090   29.9400 N   0  0  0  0  0  0  0  0  0  0  0  0
   36.2150   21.3770   32.6040 C   0  0  0  0  0  0  0  0  0  0  0  0
   35.6920   20.1630   33.3330 C   0  0  0  0  0  0  0  0  0  0  0  0
   34.9820   19.2920   32.3390 C   0  0  0  0  0  0  0  0  0  0  0  0
   35.6060   19.7250   31.0390 C   0  0  0  0  0  0  0  0  0  0  0  0
   35.6370   21.2250   31.1870 C   0  0  0  0  0  0  0  0  0  0  0  0
   36.7574   22.6173   36.8637 H   0  0  0  0  0  0  0  0  0  0  0  0
   37.3656   24.1024   39.1161 H   0  0  0  0  0  0  0  0  0  0  0  0
   37.6284   22.3692   38.8596 H   0  0  0  0  0  0  0  0  0  0  0  0
   39.5288   24.7013   38.3789 H   0  0  0  0  0  0  0  0  0  0  0  0
   39.9328   23.1427   39.0220 H   0  0  0  0  0  0  0  0  0  0  0  0
   40.4404   23.5339   36.3768 H   0  0  0  0  0  0  0  0  0  0  0  0
   39.6197   22.0514   36.6893 H   0  0  0  0  0  0  0  0  0  0  0  0
   40.0266   24.9585   34.4776 H   0  0  0  0  0  0  0  0  0  0  0  0
   40.2684   27.6612   34.6038 H   0  0  0  0  0  0  0  0  0  0  0  0
   38.6225   28.3922   36.5008 H   0  0  0  0  0  0  0  0  0  0  0  0
   38.7074   21.6695   35.6463 H   0  0  0  0  0  0  0  0  0  0  0  0
   37.0164   21.5372   35.0774 H   0  0  0  0  0  0  0  0  0  0  0  0
   40.5328   21.8575   34.2583 H   0  0  0  0  0  0  0  0  0  0  0  0
   41.2551   20.6967   29.8515 H   0  0  0  0  0  0  0  0  0  0  0  0
   39.6391   20.4909   29.1243 H   0  0  0  0  0  0  0  0  0  0  0  0
   35.9374   22.3044   33.1263 H   0  0  0  0  0  0  0  0  0  0  0  0
   36.5290   19.6091   33.7831 H   0  0  0  0  0  0  0  0  0  0  0  0
   35.0022   20.4674   34.1339 H   0  0  0  0  0  0  0  0  0  0  0  0
   35.1692   18.2262   32.5364 H   0  0  0  0  0  0  0  0  0  0  0  0
   33.8872   19.3963   32.3612 H   0  0  0  0  0  0  0  0  0  0  0  0
   34.9899   19.4213   30.1798 H   0  0  0  0  0  0  0  0  0  0  0  0
   36.5937   19.2784   30.8521 H   0  0  0  0  0  0  0  0  0  0  0  0
   36.2899   21.6904   30.4339 H   0  0  0  0  0  0  0  0  0  0  0  0
   34.6609   21.7117   31.0444 H   0  0  0  0  0  0  0  0  0  0  0  0
  1  2  1  0
  3  2  1  0
  4  3  1  0
  5 11  1  6
  5  4  1  0
  5  1  1  0
  6  5  1  0
  6 10  2  0
  7  8  2  0
  7  6  1  0
  8  9  1  0
  9 10  1  0
 12 11  1  0
 13 14  2  0
 14 12  1  0
 15 20  1  0
 15 14  1  0
 16 15  2  0
 17 16  1  0
 17 18  2  0
 18 13  1  0
 19 17  1  0
 20 21  1  0
 22 21  1  0
 23 24  1  0
 23 22  1  0
 24 20  1  0
  1 25  1  0
  2 26  1  0
  2 27  1  0
  3 28  1  0
  3 29  1  0
  4 30  1  0
  4 31  1  0
  7 32  1  0
  8 33  1  0
  9 34  1  0
 12 35  1  0
 12 36  1  0
 13 37  1  0
 19 38  1  0
 19 39  1  0
 20 40  1  0
 21 41  1  0
 21 42  1  0
 22 43  1  0
 22 44  1  0
 23 45  1  0
 23 46  1  0
 24 47  1  0
 24 48  1  0
M  ISO  8  25   5  26  13  27  13  28  13  29  13  30  13  31  13  32  14
M  ISO  8  33  14  34   9  35   8  36   8  37  14  40  13  41  13  42  13
M  ISO  6  43  13  44  13  45  13  46  13  47  13  48  13
M  END
>  <minimizedAffinity>  (1) 
-5.43343735

>  <minimizedRMSD>  (1) 
2.43907332

$$$$
