
     RDKit          3D

 37 39  0  0  1  0  0  0  0  0999 V2000
   37.2210   23.5190   37.0850 N   0  0  0  0  0  0  0  0  0  0  0  0
   37.8790   23.3390   38.3610 C   0  0  0  0  0  0  0  0  0  0  0  0
   39.3480   23.5470   38.1110 C   0  0  0  0  0  0  0  0  0  0  0  0
   39.4580   23.0570   36.6310 C   0  0  0  0  0  0  0  0  0  0  0  0
   38.2180   23.7370   36.1060 C   0  0  2  0  0  0  0  0  0  0  0  0
   38.5500   25.2140   36.0330 C   0  0  0  0  0  0  0  0  0  0  0  0
   39.5260   25.5700   35.1140 C   0  0  0  0  0  0  0  0  0  0  0  0
   39.7170   26.9630   35.1690 C   0  0  0  0  0  0  0  0  0  0  0  0
   38.8550   27.3900   36.1140 N   0  0  0  0  0  0  0  0  0  0  0  0
   38.1750   26.3710   36.6180 N   0  0  0  0  0  0  0  0  0  0  0  0
   37.7390   23.4250   34.8800 O   0  0  0  0  0  0  0  0  0  0  0  0
   38.2720   22.1690   34.5830 C   0  0  0  0  0  0  0  0  0  0  0  0
   37.3300   21.1430   32.5770 C   0  0  0  0  0  0  0  0  0  0  0  0
   37.2350   21.3580   33.9850 C   0  0  0  0  0  0  0  0  0  0  0  0
   36.1800   20.7990   34.6460 C   0  0  0  0  0  0  0  0  0  0  0  0
   35.2530   20.0580   33.9530 N   0  0  0  0  0  0  0  0  0  0  0  0
   35.4000   19.8960   32.6290 C   0  0  0  0  0  0  0  0  0  0  0  0
   36.3900   20.3990   31.9050 N   0  0  0  0  0  0  0  0  0  0  0  0
   34.4260   19.1340   31.9090 N   0  0  0  0  0  0  0  0  0  0  0  0
   36.0660   20.9980   36.0500 N   0  0  0  0  0  0  0  0  0  0  0  0
   36.6784   22.6758   36.8495 H   0  0  0  0  0  0  0  0  0  0  0  0
   37.5082   24.0763   39.0882 H   0  0  0  0  0  0  0  0  0  0  0  0
   37.6813   22.3395   38.7755 H   0  0  0  0  0  0  0  0  0  0  0  0
   39.6309   24.6054   38.2103 H   0  0  0  0  0  0  0  0  0  0  0  0
   40.0112   23.0254   38.8168 H   0  0  0  0  0  0  0  0  0  0  0  0
   40.3733   23.4163   36.1379 H   0  0  0  0  0  0  0  0  0  0  0  0
   39.5182   21.9690   36.4808 H   0  0  0  0  0  0  0  0  0  0  0  0
   40.0632   24.8764   34.4504 H   0  0  0  0  0  0  0  0  0  0  0  0
   40.4150   27.5694   34.5731 H   0  0  0  0  0  0  0  0  0  0  0  0
   38.7412   28.3719   36.4036 H   0  0  0  0  0  0  0  0  0  0  0  0
   39.1093   22.2789   33.8782 H   0  0  0  0  0  0  0  0  0  0  0  0
   38.6408   21.6901   35.5021 H   0  0  0  0  0  0  0  0  0  0  0  0
   38.1711   21.5809   32.0196 H   0  0  0  0  0  0  0  0  0  0  0  0
   34.5250   19.0008   30.8925 H   0  0  0  0  0  0  0  0  0  0  0  0
   33.6259   18.7187   32.4073 H   0  0  0  0  0  0  0  0  0  0  0  0
   35.2768   20.5841   36.5664 H   0  0  0  0  0  0  0  0  0  0  0  0
   36.7727   21.5560   36.5501 H   0  0  0  0  0  0  0  0  0  0  0  0
  1  2  1  0
  3  2  1  0
  4  3  1  0
  5 11  1  6
  5  4  1  0
  5  1  1  0
  6  5  1  0
  6 10  2  0
  7  8  2  0
  7  6  1  0
  8  9  1  0
  9 10  1  0
 12 11  1  0
 13 14  2  0
 14 12  1  0
 14 15  1  0
 15 20  1  0
 16 15  2  0
 17 16  1  0
 18 13  1  0
 18 17  2  0
 19 17  1  0
  1 21  1  0
  2 22  1  0
  2 23  1  0
  3 24  1  0
  3 25  1  0
  4 26  1  0
  4 27  1  0
  7 28  1  0
  8 29  1  0
  9 30  1  0
 12 31  1  0
 12 32  1  0
 13 33  1  0
 19 34  1  0
 19 35  1  0
 20 36  1  0
 20 37  1  0
M  ISO  8  21   5  22  13  23  13  24  13  25  13  26  13  27  13  28  14
M  ISO  5  29  14  30   9  31   8  32   8  33  14
M  END
>  <minimizedAffinity>  (1) 
-5.27097893

>  <minimizedRMSD>  (1) 
1.08185923

$$$$
