
     RDKit          3D

 42 45  0  0  1  0  0  0  0  0999 V2000
   37.1940   23.4450   36.9000 N   0  0  0  0  0  0  0  0  0  0  0  0
   37.6850   23.2930   38.2530 C   0  0  0  0  0  0  0  0  0  0  0  0
   39.1700   23.5450   38.1850 C   0  0  0  0  0  0  0  0  0  0  0  0
   39.4780   23.0590   36.7390 C   0  0  0  0  0  0  0  0  0  0  0  0
   38.3010   23.6880   36.0470 C   0  0  2  0  0  0  0  0  0  0  0  0
   38.5870   25.1750   36.0030 C   0  0  0  0  0  0  0  0  0  0  0  0
   39.5740   25.5700   35.1030 C   0  0  0  0  0  0  0  0  0  0  0  0
   39.7160   26.9640   35.1840 C   0  0  0  0  0  0  0  0  0  0  0  0
   38.8220   27.3560   36.1200 N   0  0  0  0  0  0  0  0  0  0  0  0
   38.1670   26.3110   36.5940 N   0  0  0  0  0  0  0  0  0  0  0  0
   37.9860   23.3470   34.7770 O   0  0  0  0  0  0  0  0  0  0  0  0
   38.1170   21.9590   34.7200 C   0  0  0  0  0  0  0  0  0  0  0  0
   40.2090   21.8610   33.4480 C   0  0  0  0  0  0  0  0  0  0  0  0
   38.8160   21.6240   33.4950 C   0  0  0  0  0  0  0  0  0  0  0  0
   38.2180   21.0970   32.3820 C   0  0  0  0  0  0  0  0  0  0  0  0
   38.9790   20.8180   31.2730 N   0  0  0  0  0  0  0  0  0  0  0  0
   40.2960   21.0660   31.2950 C   0  0  0  0  0  0  0  0  0  0  0  0
   40.9520   21.5790   32.3410 N   0  0  0  0  0  0  0  0  0  0  0  0
   41.0760   20.7690   30.1290 N   0  0  0  0  0  0  0  0  0  0  0  0
   36.8160   20.8430   32.3880 N   0  0  0  0  0  0  0  0  0  0  0  0
   36.5000   19.5330   32.1750 C   0  0  0  0  0  0  0  0  0  0  0  0
   35.1060   19.4490   32.2100 C   0  0  0  0  0  0  0  0  0  0  0  0
   34.6240   20.7040   32.4410 N   0  0  0  0  0  0  0  0  0  0  0  0
   35.6830   21.5510   32.5490 C   0  0  0  0  0  0  0  0  0  0  0  0
   36.7109   22.5840   36.6064 H   0  0  0  0  0  0  0  0  0  0  0  0
   37.2031   24.0237   38.9192 H   0  0  0  0  0  0  0  0  0  0  0  0
   37.4632   22.2925   38.6529 H   0  0  0  0  0  0  0  0  0  0  0  0
   39.4066   24.6116   38.3134 H   0  0  0  0  0  0  0  0  0  0  0  0
   39.7551   23.0435   38.9700 H   0  0  0  0  0  0  0  0  0  0  0  0
   40.4368   23.4475   36.3650 H   0  0  0  0  0  0  0  0  0  0  0  0
   39.5876   21.9721   36.6098 H   0  0  0  0  0  0  0  0  0  0  0  0
   40.1453   24.9026   34.4410 H   0  0  0  0  0  0  0  0  0  0  0  0
   40.4056   27.6004   34.6100 H   0  0  0  0  0  0  0  0  0  0  0  0
   38.6730   28.3299   36.4204 H   0  0  0  0  0  0  0  0  0  0  0  0
   38.6922   21.6026   35.5872 H   0  0  0  0  0  0  0  0  0  0  0  0
   37.1264   21.4811   34.7372 H   0  0  0  0  0  0  0  0  0  0  0  0
   40.7080   22.2858   34.3315 H   0  0  0  0  0  0  0  0  0  0  0  0
   42.0895   20.9527   30.1269 H   0  0  0  0  0  0  0  0  0  0  0  0
   40.6228   20.3720   29.2936 H   0  0  0  0  0  0  0  0  0  0  0  0
   37.2048   18.7051   32.0083 H   0  0  0  0  0  0  0  0  0  0  0  0
   34.5062   18.5368   32.0757 H   0  0  0  0  0  0  0  0  0  0  0  0
   35.6232   22.6332   32.7365 H   0  0  0  0  0  0  0  0  0  0  0  0
  1  2  1  0
  3  2  1  0
  4  3  1  0
  5 11  1  6
  5  4  1  0
  5  1  1  0
  6  5  1  0
  6 10  2  0
  7  8  2  0
  7  6  1  0
  8  9  1  0
  9 10  1  0
 12 11  1  0
 13 14  2  0
 14 12  1  0
 15 20  1  0
 15 14  1  0
 16 17  1  0
 16 15  2  0
 17 18  2  0
 18 13  1  0
 19 17  1  0
 20 24  1  0
 21 22  2  0
 21 20  1  0
 22 23  1  0
 23 24  2  0
  1 25  1  0
  2 26  1  0
  2 27  1  0
  3 28  1  0
  3 29  1  0
  4 30  1  0
  4 31  1  0
  7 32  1  0
  8 33  1  0
  9 34  1  0
 12 35  1  0
 12 36  1  0
 13 37  1  0
 19 38  1  0
 19 39  1  0
 21 40  1  0
 22 41  1  0
 24 42  1  0
M  ISO  8  25   5  26  13  27  13  28  13  29  13  30  13  31  13  32  14
M  ISO  8  33  14  34   9  35   8  36   8  37  14  40  14  41  14  42  14
M  END
>  <minimizedAffinity>  (1) 
-5.11454248

>  <minimizedRMSD>  (1) 
2.42976451

$$$$
