
     RDKit          3D

 41 44  0  0  1  0  0  0  0  0999 V2000
   37.2110   23.4310   36.9540 N   0  0  0  0  0  0  0  0  0  0  0  0
   37.7290   23.2900   38.2920 C   0  0  0  0  0  0  0  0  0  0  0  0
   39.2200   23.5570   38.1990 C   0  0  0  0  0  0  0  0  0  0  0  0
   39.4870   23.0470   36.7580 C   0  0  0  0  0  0  0  0  0  0  0  0
   38.3040   23.6590   36.0790 C   0  0  2  0  0  0  0  0  0  0  0  0
   38.5970   25.1510   36.0180 C   0  0  0  0  0  0  0  0  0  0  0  0
   39.5860   25.5360   35.1170 C   0  0  0  0  0  0  0  0  0  0  0  0
   39.7240   26.9320   35.1920 C   0  0  0  0  0  0  0  0  0  0  0  0
   38.8320   27.3340   36.1190 N   0  0  0  0  0  0  0  0  0  0  0  0
   38.1750   26.2990   36.6000 N   0  0  0  0  0  0  0  0  0  0  0  0
   37.9370   23.3370   34.8180 O   0  0  0  0  0  0  0  0  0  0  0  0
   38.2970   21.9850   34.6880 C   0  0  0  0  0  0  0  0  0  0  0  0
   40.3080   22.1450   33.3010 C   0  0  0  0  0  0  0  0  0  0  0  0
   38.9270   21.8190   33.3830 C   0  0  0  0  0  0  0  0  0  0  0  0
   38.2830   21.3780   32.2600 C   0  0  0  0  0  0  0  0  0  0  0  0
   39.0060   21.2680   31.0840 N   0  0  0  0  0  0  0  0  0  0  0  0
   40.3040   21.5880   31.0640 C   0  0  0  0  0  0  0  0  0  0  0  0
   40.9900   22.0230   32.1210 N   0  0  0  0  0  0  0  0  0  0  0  0
   41.0120   21.4600   29.8310 N   0  0  0  0  0  0  0  0  0  0  0  0
   36.9070   21.0510   32.3310 N   0  0  0  0  0  0  0  0  0  0  0  0
   35.8230   21.8580   32.3090 C   0  0  0  0  0  0  0  0  0  0  0  0
   34.7800   21.0350   32.4040 N   0  0  0  0  0  0  0  0  0  0  0  0
   35.1960   19.7580   32.4830 C   0  0  0  0  0  0  0  0  0  0  0  0
   36.5590   19.7660   32.4360 N   0  0  0  0  0  0  0  0  0  0  0  0
   36.7171   22.5701   36.6785 H   0  0  0  0  0  0  0  0  0  0  0  0
   37.2523   24.0186   38.9642 H   0  0  0  0  0  0  0  0  0  0  0  0
   37.5257   22.2877   38.6970 H   0  0  0  0  0  0  0  0  0  0  0  0
   39.4518   24.6271   38.3043 H   0  0  0  0  0  0  0  0  0  0  0  0
   39.8287   23.0817   38.9823 H   0  0  0  0  0  0  0  0  0  0  0  0
   40.4376   23.4259   36.3545 H   0  0  0  0  0  0  0  0  0  0  0  0
   39.5869   21.9569   36.6496 H   0  0  0  0  0  0  0  0  0  0  0  0
   40.1592   24.8644   34.4610 H   0  0  0  0  0  0  0  0  0  0  0  0
   40.4150   27.5643   34.6152 H   0  0  0  0  0  0  0  0  0  0  0  0
   38.6852   28.3112   36.4097 H   0  0  0  0  0  0  0  0  0  0  0  0
   39.0039   21.7070   35.4837 H   0  0  0  0  0  0  0  0  0  0  0  0
   37.4104   21.3396   34.7734 H   0  0  0  0  0  0  0  0  0  0  0  0
   40.8358   22.5002   34.1984 H   0  0  0  0  0  0  0  0  0  0  0  0
   42.0128   21.6991   29.7846 H   0  0  0  0  0  0  0  0  0  0  0  0
   40.5220   21.1286   28.9878 H   0  0  0  0  0  0  0  0  0  0  0  0
   35.8059   22.9550   32.2299 H   0  0  0  0  0  0  0  0  0  0  0  0
   34.5537   18.8692   32.5697 H   0  0  0  0  0  0  0  0  0  0  0  0
  1  2  1  0
  3  2  1  0
  4  3  1  0
  5 11  1  6
  5  4  1  0
  5  1  1  0
  6  5  1  0
  6 10  2  0
  7  8  2  0
  7  6  1  0
  8  9  1  0
  9 10  1  0
 12 11  1  0
 13 14  2  0
 14 12  1  0
 15 20  1  0
 15 14  1  0
 16 15  2  0
 17 16  1  0
 17 18  2  0
 18 13  1  0
 19 17  1  0
 20 24  1  0
 21 20  1  0
 21 22  2  0
 22 23  1  0
 24 23  2  0
  1 25  1  0
  2 26  1  0
  2 27  1  0
  3 28  1  0
  3 29  1  0
  4 30  1  0
  4 31  1  0
  7 32  1  0
  8 33  1  0
  9 34  1  0
 12 35  1  0
 12 36  1  0
 13 37  1  0
 19 38  1  0
 19 39  1  0
 21 40  1  0
 23 41  1  0
M  ISO  8  25   5  26  13  27  13  28  13  29  13  30  13  31  13  32  14
M  ISO  7  33  14  34   9  35   8  36   8  37  14  40  14  41  14
M  END
>  <minimizedAffinity>  (1) 
-5.02778578

>  <minimizedRMSD>  (1) 
2.49081421

$$$$
