
     RDKit          3D

 51 54  0  0  1  0  0  0  0  0999 V2000
   37.3370   23.3400   36.3890 N   0  0  0  0  0  0  0  0  0  0  0  0
   37.9470   22.9900   37.6530 C   0  0  0  0  0  0  0  0  0  0  0  0
   39.4160   23.2760   37.5030 C   0  0  0  0  0  0  0  0  0  0  0  0
   39.5930   23.0050   35.9810 C   0  0  0  0  0  0  0  0  0  0  0  0
   38.3590   23.7310   35.4970 C   0  0  2  0  0  0  0  0  0  0  0  0
   38.6540   25.2080   35.6520 C   0  0  0  0  0  0  0  0  0  0  0  0
   39.6880   25.7100   34.8700 C   0  0  0  0  0  0  0  0  0  0  0  0
   39.8260   27.0790   35.1330 C   0  0  0  0  0  0  0  0  0  0  0  0
   38.8760   27.3560   36.0600 N   0  0  0  0  0  0  0  0  0  0  0  0
   38.1930   26.2640   36.3620 N   0  0  0  0  0  0  0  0  0  0  0  0
   37.9680   23.5920   34.2110 O   0  0  0  0  0  0  0  0  0  0  0  0
   38.5150   22.3640   33.7960 C   0  0  0  0  0  0  0  0  0  0  0  0
   40.3180   23.2230   32.3970 C   0  0  0  0  0  0  0  0  0  0  0  0
   39.0740   22.5250   32.4800 C   0  0  0  0  0  0  0  0  0  0  0  0
   38.5270   22.0940   31.3140 C   0  0  0  0  0  0  0  0  0  0  0  0
   39.1810   22.3470   30.1330 N   0  0  0  0  0  0  0  0  0  0  0  0
   40.3310   22.9990   30.1110 C   0  0  0  0  0  0  0  0  0  0  0  0
   40.9450   23.4580   31.1990 N   0  0  0  0  0  0  0  0  0  0  0  0
   40.9750   23.2530   28.8650 N   0  0  0  0  0  0  0  0  0  0  0  0
   37.2370   21.3540   31.2970 C   0  0  0  0  0  0  0  0  0  0  0  0
   37.4350   20.1050   32.0740 C   0  0  0  0  0  0  0  0  0  0  0  0
   36.2240   19.5290   32.7440 C   0  0  0  0  0  0  0  0  0  0  0  0
   35.4330   20.5630   33.4850 C   0  0  0  0  0  0  0  0  0  0  0  0
   34.9960   21.5550   32.4280 C   0  0  0  0  0  0  0  0  0  0  0  0
   36.1440   22.2490   31.7780 C   0  0  0  0  0  0  0  0  0  0  0  0
   36.8344   22.5259   36.0075 H   0  0  0  0  0  0  0  0  0  0  0  0
   37.5207   23.5990   38.4638 H   0  0  0  0  0  0  0  0  0  0  0  0
   37.7677   21.9346   37.9062 H   0  0  0  0  0  0  0  0  0  0  0  0
   39.6573   24.3174   37.7625 H   0  0  0  0  0  0  0  0  0  0  0  0
   40.0716   22.6828   38.1574 H   0  0  0  0  0  0  0  0  0  0  0  0
   40.5192   23.4458   35.5836 H   0  0  0  0  0  0  0  0  0  0  0  0
   39.6813   21.9495   35.6843 H   0  0  0  0  0  0  0  0  0  0  0  0
   40.2969   25.1286   34.1620 H   0  0  0  0  0  0  0  0  0  0  0  0
   40.5481   27.7774   34.6849 H   0  0  0  0  0  0  0  0  0  0  0  0
   38.7096   28.2856   36.4711 H   0  0  0  0  0  0  0  0  0  0  0  0
   39.3041   22.0552   34.4974 H   0  0  0  0  0  0  0  0  0  0  0  0
   37.7302   21.5935   33.7764 H   0  0  0  0  0  0  0  0  0  0  0  0
   40.7885   23.5838   33.3235 H   0  0  0  0  0  0  0  0  0  0  0  0
   41.8710   23.7605   28.8424 H   0  0  0  0  0  0  0  0  0  0  0  0
   40.5444   22.9290   27.9872 H   0  0  0  0  0  0  0  0  0  0  0  0
   36.9210   21.0528   30.2874 H   0  0  0  0  0  0  0  0  0  0  0  0
   37.8288   19.3430   31.3853 H   0  0  0  0  0  0  0  0  0  0  0  0
   38.1153   20.3796   32.8936 H   0  0  0  0  0  0  0  0  0  0  0  0
   35.5795   19.0740   31.9775 H   0  0  0  0  0  0  0  0  0  0  0  0
   36.5692   18.7839   33.4759 H   0  0  0  0  0  0  0  0  0  0  0  0
   34.5585   20.1057   33.9709 H   0  0  0  0  0  0  0  0  0  0  0  0
   36.0222   21.0411   34.2815 H   0  0  0  0  0  0  0  0  0  0  0  0
   34.4269   21.0174   31.6552 H   0  0  0  0  0  0  0  0  0  0  0  0
   34.3841   22.3216   32.9258 H   0  0  0  0  0  0  0  0  0  0  0  0
   36.5748   22.9507   32.5074 H   0  0  0  0  0  0  0  0  0  0  0  0
   35.7362   22.7415   30.8829 H   0  0  0  0  0  0  0  0  0  0  0  0
  1  2  1  0
  3  2  1  0
  4  3  1  0
  5 11  1  6
  5  6  1  0
  5  4  1  0
  5  1  1  0
  6 10  2  0
  7  8  2  0
  7  6  1  0
  8  9  1  0
  9 10  1  0
 12 11  1  0
 13 14  2  0
 14 12  1  0
 15 14  1  0
 16 15  2  0
 17 16  1  0
 17 18  2  0
 18 13  1  0
 19 17  1  0
 20 15  1  0
 20 25  1  0
 20 21  1  0
 21 22  1  0
 22 23  1  0
 24 23  1  0
 25 24  1  0
  1 26  1  0
  2 27  1  0
  2 28  1  0
  3 29  1  0
  3 30  1  0
  4 31  1  0
  4 32  1  0
  7 33  1  0
  8 34  1  0
  9 35  1  0
 12 36  1  0
 12 37  1  0
 13 38  1  0
 19 39  1  0
 19 40  1  0
 20 41  1  0
 21 42  1  0
 21 43  1  0
 22 44  1  0
 22 45  1  0
 23 46  1  0
 23 47  1  0
 24 48  1  0
 24 49  1  0
 25 50  1  0
 25 51  1  0
M  ISO  8  26   5  27  13  28  13  29  13  30  13  31  13  32  13  33  14
M  ISO  8  34  14  35   9  36   8  37   8  38  14  41  13  42  13  43  13
M  ISO  8  44  13  45  13  46  13  47  13  48  13  49  13  50  13  51  13
M  END
>  <minimizedAffinity>  (1) 
-4.88231421

>  <minimizedRMSD>  (1) 
3.10921478

$$$$
