
     RDKit          3D

 40 43  0  0  1  0  0  0  0  0999 V2000
   37.2040   23.4590   37.0000 N   0  0  0  0  0  0  0  0  0  0  0  0
   37.7680   23.3070   38.3350 C   0  0  0  0  0  0  0  0  0  0  0  0
   39.2470   23.5410   38.2010 C   0  0  0  0  0  0  0  0  0  0  0  0
   39.4890   23.0450   36.7420 C   0  0  0  0  0  0  0  0  0  0  0  0
   38.2770   23.6790   36.1040 C   0  0  2  0  0  0  0  0  0  0  0  0
   38.5890   25.1610   36.0280 C   0  0  0  0  0  0  0  0  0  0  0  0
   39.5730   25.5320   35.1270 C   0  0  0  0  0  0  0  0  0  0  0  0
   39.7330   26.9270   35.1870 C   0  0  0  0  0  0  0  0  0  0  0  0
   38.8360   27.3400   36.1250 N   0  0  0  0  0  0  0  0  0  0  0  0
   38.1690   26.3080   36.6160 N   0  0  0  0  0  0  0  0  0  0  0  0
   37.9070   23.3310   34.8500 O   0  0  0  0  0  0  0  0  0  0  0  0
   38.2550   21.9870   34.7210 C   0  0  0  0  0  0  0  0  0  0  0  0
   40.2530   22.0850   33.3060 C   0  0  0  0  0  0  0  0  0  0  0  0
   38.8610   21.8060   33.4190 C   0  0  0  0  0  0  0  0  0  0  0  0
   38.2160   21.3930   32.2930 C   0  0  0  0  0  0  0  0  0  0  0  0
   38.9080   21.2600   31.1130 N   0  0  0  0  0  0  0  0  0  0  0  0
   40.2120   21.5390   31.0770 C   0  0  0  0  0  0  0  0  0  0  0  0
   40.9180   21.9450   32.1230 N   0  0  0  0  0  0  0  0  0  0  0  0
   40.9220   21.3960   29.8410 N   0  0  0  0  0  0  0  0  0  0  0  0
   36.7890   21.0980   32.3680 C   0  0  0  0  0  0  0  0  0  0  0  0
   35.6080   21.7300   32.4110 N   0  0  0  0  0  0  0  0  0  0  0  0
   34.6530   20.8340   32.4760 O   0  0  0  0  0  0  0  0  0  0  0  0
   35.1650   19.6130   32.4790 C   0  0  0  0  0  0  0  0  0  0  0  0
   36.5200   19.7590   32.4100 N   0  0  0  0  0  0  0  0  0  0  0  0
   36.6946   22.6040   36.7346 H   0  0  0  0  0  0  0  0  0  0  0  0
   37.3267   24.0454   39.0206 H   0  0  0  0  0  0  0  0  0  0  0  0
   37.5582   22.3080   38.7448 H   0  0  0  0  0  0  0  0  0  0  0  0
   39.5006   24.6054   38.3143 H   0  0  0  0  0  0  0  0  0  0  0  0
   39.8594   23.0352   38.9620 H   0  0  0  0  0  0  0  0  0  0  0  0
   40.4304   23.4287   36.3217 H   0  0  0  0  0  0  0  0  0  0  0  0
   39.5914   21.9576   36.6114 H   0  0  0  0  0  0  0  0  0  0  0  0
   40.1355   24.8489   34.4735 H   0  0  0  0  0  0  0  0  0  0  0  0
   40.4293   27.5484   34.6047 H   0  0  0  0  0  0  0  0  0  0  0  0
   38.6963   28.3192   36.4122 H   0  0  0  0  0  0  0  0  0  0  0  0
   38.9714   21.7094   35.5083 H   0  0  0  0  0  0  0  0  0  0  0  0
   37.3639   21.3498   34.8202 H   0  0  0  0  0  0  0  0  0  0  0  0
   40.8060   22.4219   34.1952 H   0  0  0  0  0  0  0  0  0  0  0  0
   41.9291   21.6078   29.7981 H   0  0  0  0  0  0  0  0  0  0  0  0
   40.4254   21.0814   28.9952 H   0  0  0  0  0  0  0  0  0  0  0  0
   34.6072   18.6661   32.5276 H   0  0  0  0  0  0  0  0  0  0  0  0
  1  2  1  0
  3  2  1  0
  4  3  1  0
  5 11  1  6
  5  4  1  0
  5  1  1  0
  6  5  1  0
  6 10  2  0
  7  8  2  0
  7  6  1  0
  8  9  1  0
  9 10  1  0
 12 11  1  0
 13 14  2  0
 14 12  1  0
 15 20  1  0
 15 14  1  0
 16 15  2  0
 17 16  1  0
 17 18  2  0
 18 13  1  0
 19 17  1  0
 20 24  1  0
 20 21  2  0
 21 22  1  0
 22 23  1  0
 24 23  2  0
  1 25  1  0
  2 26  1  0
  2 27  1  0
  3 28  1  0
  3 29  1  0
  4 30  1  0
  4 31  1  0
  7 32  1  0
  8 33  1  0
  9 34  1  0
 12 35  1  0
 12 36  1  0
 13 37  1  0
 19 38  1  0
 19 39  1  0
 23 40  1  0
M  ISO  8  25   5  26  13  27  13  28  13  29  13  30  13  31  13  32  14
M  ISO  6  33  14  34   9  35   8  36   8  37  14  40  14
M  END
>  <minimizedAffinity>  (1) 
-4.86373281

>  <minimizedRMSD>  (1) 
2.44546175

$$$$
