
     RDKit          3D

 38 40  0  0  1  0  0  0  0  0999 V2000
   37.2410   23.4800   37.0700 N   0  0  0  0  0  0  0  0  0  0  0  0
   37.8490   23.3390   38.3770 C   0  0  0  0  0  0  0  0  0  0  0  0
   39.3290   23.5660   38.1880 C   0  0  0  0  0  0  0  0  0  0  0  0
   39.5110   23.0580   36.7240 C   0  0  0  0  0  0  0  0  0  0  0  0
   38.2780   23.7000   36.1340 C   0  0  2  0  0  0  0  0  0  0  0  0
   38.5840   25.1850   36.0480 C   0  0  0  0  0  0  0  0  0  0  0  0
   39.5450   25.5550   35.1220 C   0  0  0  0  0  0  0  0  0  0  0  0
   39.7070   26.9510   35.1690 C   0  0  0  0  0  0  0  0  0  0  0  0
   38.8410   27.3700   36.1210 N   0  0  0  0  0  0  0  0  0  0  0  0
   38.1890   26.3380   36.6300 N   0  0  0  0  0  0  0  0  0  0  0  0
   37.8690   23.3580   34.8930 O   0  0  0  0  0  0  0  0  0  0  0  0
   37.7190   21.9700   34.9250 C   0  0  0  0  0  0  0  0  0  0  0  0
   38.9110   21.7480   32.8060 C   0  0  0  0  0  0  0  0  0  0  0  0
   37.7350   21.4720   33.5680 C   0  0  0  0  0  0  0  0  0  0  0  0
   36.7260   20.7850   32.9580 C   0  0  0  0  0  0  0  0  0  0  0  0
   36.8660   20.3840   31.6520 N   0  0  0  0  0  0  0  0  0  0  0  0
   37.9880   20.6700   30.9870 C   0  0  0  0  0  0  0  0  0  0  0  0
   39.0190   21.3310   31.4960 N   0  0  0  0  0  0  0  0  0  0  0  0
   38.1280   20.2670   29.6260 N   0  0  0  0  0  0  0  0  0  0  0  0
   35.4940   20.4860   33.7340 C   0  0  0  0  0  0  0  0  0  0  0  0
   36.7266   22.6211   36.8280 H   0  0  0  0  0  0  0  0  0  0  0  0
   37.4356   24.0857   39.0709 H   0  0  0  0  0  0  0  0  0  0  0  0
   37.6503   22.3444   38.8029 H   0  0  0  0  0  0  0  0  0  0  0  0
   39.5921   24.6297   38.2842 H   0  0  0  0  0  0  0  0  0  0  0  0
   39.9677   23.0641   38.9297 H   0  0  0  0  0  0  0  0  0  0  0  0
   40.4378   23.4315   36.2640 H   0  0  0  0  0  0  0  0  0  0  0  0
   39.6015   21.9694   36.5948 H   0  0  0  0  0  0  0  0  0  0  0  0
   40.0920   24.8691   34.4584 H   0  0  0  0  0  0  0  0  0  0  0  0
   40.3884   27.5676   34.5644 H   0  0  0  0  0  0  0  0  0  0  0  0
   38.7089   28.3505   36.4076 H   0  0  0  0  0  0  0  0  0  0  0  0
   38.5464   21.5211   35.4941 H   0  0  0  0  0  0  0  0  0  0  0  0
   36.7678   21.7063   35.4104 H   0  0  0  0  0  0  0  0  0  0  0  0
   39.7414   22.3004   33.2701 H   0  0  0  0  0  0  0  0  0  0  0  0
   37.3684   19.7492   29.1615 H   0  0  0  0  0  0  0  0  0  0  0  0
   38.9887   20.4938   29.1077 H   0  0  0  0  0  0  0  0  0  0  0  0
   35.7162   20.5399   34.8100 H   0  0  0  0  0  0  0  0  0  0  0  0
   34.7152   21.2212   33.4832 H   0  0  0  0  0  0  0  0  0  0  0  0
   35.1388   19.4756   33.4832 H   0  0  0  0  0  0  0  0  0  0  0  0
  1  2  1  0
  3  2  1  0
  4  3  1  0
  5 11  1  6
  5  4  1  0
  5  1  1  0
  6  5  1  0
  6 10  2  0
  7  8  2  0
  7  6  1  0
  8  9  1  0
  9 10  1  0
 11 12  1  0
 13 14  2  0
 14 12  1  0
 15 14  1  0
 15 20  1  0
 16 15  2  0
 17 18  2  0
 17 16  1  0
 18 13  1  0
 19 17  1  0
  1 21  1  0
  2 22  1  0
  2 23  1  0
  3 24  1  0
  3 25  1  0
  4 26  1  0
  4 27  1  0
  7 28  1  0
  8 29  1  0
  9 30  1  0
 12 31  1  0
 12 32  1  0
 13 33  1  0
 19 34  1  0
 19 35  1  0
 20 36  1  0
 20 37  1  0
 20 38  1  0
M  ISO  8  21   5  22  13  23  13  24  13  25  13  26  13  27  13  28  14
M  ISO  8  29  14  30   9  31   8  32   8  33  14  36   8  37   8  38   8
M  END
>  <minimizedAffinity>  (1) 
-4.84469986

>  <minimizedRMSD>  (1) 
0.851593256

$$$$
