
     RDKit          3D

 29 30  0  0  1  0  0  0  0  0999 V2000
   38.4520   25.9380   35.0760 C   0  0  2  0  0  0  0  0  0  0  0  0
   39.7220   23.0300   36.9220 C   0  0  0  0  0  0  0  0  0  0  0  0
   39.0080   23.0690   38.1500 C   0  0  0  0  0  0  0  0  0  0  0  0
   38.0860   24.1110   38.3260 C   0  0  0  0  0  0  0  0  0  0  0  0
   37.9310   25.0250   37.3110 N   0  0  0  0  0  0  0  0  0  0  0  0
   38.6360   24.9440   36.1610 C   0  0  0  0  0  0  0  0  0  0  0  0
   39.5100   23.9590   35.9880 N   0  0  0  0  0  0  0  0  0  0  0  0
   39.4800   27.0300   35.2630 C   0  0  0  0  0  0  0  0  0  0  0  0
   37.0880   26.5810   35.0920 C   0  0  0  0  0  0  0  0  0  0  0  0
   36.8650   27.4650   33.9200 C   0  0  0  0  0  0  0  0  0  0  0  0
   37.3370   27.2000   32.6500 C   0  0  0  0  0  0  0  0  0  0  0  0
   37.0520   28.1130   31.6530 C   0  0  0  0  0  0  0  0  0  0  0  0
   36.3220   29.2530   31.9140 C   0  0  0  0  0  0  0  0  0  0  0  0
   35.8400   29.5340   33.1880 C   0  0  0  0  0  0  0  0  0  0  0  0
   36.1320   28.6110   34.1760 C   0  0  0  0  0  0  0  0  0  0  0  0
   38.5629   25.4086   34.1182 H   0  0  0  0  0  0  0  0  0  0  0  0
   40.4539   22.2291   36.7403 H   0  0  0  0  0  0  0  0  0  0  0  0
   39.1719   22.3122   38.9313 H   0  0  0  0  0  0  0  0  0  0  0  0
   37.5010   24.1949   39.2538 H   0  0  0  0  0  0  0  0  0  0  0  0
   39.6414   27.2015   36.3375 H   0  0  0  0  0  0  0  0  0  0  0  0
   40.4273   26.7260   34.7938 H   0  0  0  0  0  0  0  0  0  0  0  0
   39.1194   27.9573   34.7938 H   0  0  0  0  0  0  0  0  0  0  0  0
   36.3242   25.7894   35.0877 H   0  0  0  0  0  0  0  0  0  0  0  0
   37.0204   27.2015   35.9977 H   0  0  0  0  0  0  0  0  0  0  0  0
   37.9207   26.2919   32.4388 H   0  0  0  0  0  0  0  0  0  0  0  0
   37.4145   27.9267   30.6313 H   0  0  0  0  0  0  0  0  0  0  0  0
   36.1157   29.9575   31.0947 H   0  0  0  0  0  0  0  0  0  0  0  0
   35.2571   30.4427   33.3989 H   0  0  0  0  0  0  0  0  0  0  0  0
   35.7699   28.7936   35.1985 H   0  0  0  0  0  0  0  0  0  0  0  0
  1  9  1  0
  1  8  1  0
  1  6  1  0
  2  3  2  0
  3  4  1  0
  5  4  2  0
  6  5  1  0
  7  6  2  0
  7  2  1  0
 10 15  1  0
 10  9  1  0
 11 10  2  0
 12 13  2  0
 12 11  1  0
 13 14  1  0
 14 15  2  0
  1 16  1  6
  2 17  1  0
  3 18  1  0
  4 19  1  0
  8 20  1  0
  8 21  1  0
  8 22  1  0
  9 23  1  0
  9 24  1  0
 11 25  1  0
 12 26  1  0
 13 27  1  0
 14 28  1  0
 15 29  1  0
M  ISO  8  16   8  17  14  18  14  19  14  20   8  21   8  22   8  23   8
M  ISO  6  24   8  25  14  26  14  27  14  28  14  29  14
M  END
>  <minimizedAffinity>  (1) 
-4.56557512

>  <minimizedRMSD>  (1) 
3.68296814

$$$$
