
     RDKit          3D

 44 46  0  0  1  0  0  0  0  0999 V2000
   39.9220   27.4740   31.8950 C   0  0  0  0  0  0  0  0  0  0  0  0
   41.2300   27.1520   31.1670 C   0  0  1  0  0  0  0  0  0  0  0  0
   41.7340   28.2970   30.3770 C   0  0  0  0  0  0  0  0  0  0  0  0
   42.8430   29.0670   31.0000 C   0  0  0  0  0  0  0  0  0  0  0  0
   43.8120   28.2720   31.8070 C   0  0  0  0  0  0  0  0  0  0  0  0
   43.0840   27.4420   32.8210 C   0  0  0  0  0  0  0  0  0  0  0  0
   42.1990   26.4950   32.0830 C   0  0  2  0  0  0  0  0  0  0  0  0
   43.0010   25.4140   31.4090 C   0  0  0  0  0  0  0  0  0  0  0  0
   44.0610   24.7920   31.7590 O   0  0  0  0  0  0  0  0  0  0  0  0
   42.6180   24.9270   30.1810 O   0  0  0  0  0  0  0  0  0  0  0  0
   38.4770   24.5830   33.7890 N   0  0  0  0  0  0  0  0  0  0  0  0
   39.1800   25.7000   33.5620 C   0  0  0  0  0  0  0  0  0  0  0  0
   39.1860   26.2440   32.2840 C   0  0  0  0  0  0  0  0  0  0  0  0
   38.4560   25.6040   31.2800 C   0  0  0  0  0  0  0  0  0  0  0  0
   38.3870   26.0020   30.0910 O   0  0  0  0  0  0  0  0  0  0  0  0
   37.7530   24.4690   31.5530 N   0  0  0  0  0  0  0  0  0  0  0  0
   37.7840   23.9900   32.8050 C   0  0  0  0  0  0  0  0  0  0  0  0
   37.1360   22.9440   33.0540 O   0  0  0  0  0  0  0  0  0  0  0  0
   37.8180   24.7960   36.1080 C   0  0  0  0  0  0  0  0  0  0  0  0
   38.5400   24.1180   35.1180 C   0  0  0  0  0  0  0  0  0  0  0  0
   39.2820   23.0170   35.5150 C   0  0  0  0  0  0  0  0  0  0  0  0
   39.2650   22.6600   36.8400 N   0  0  0  0  0  0  0  0  0  0  0  0
   38.5660   23.3290   37.7570 C   0  0  0  0  0  0  0  0  0  0  0  0
   37.8460   24.3960   37.3750 N   0  0  0  0  0  0  0  0  0  0  0  0
   38.7060   22.7700   39.0550 N   0  0  0  0  0  0  0  0  0  0  0  0
   39.2839   28.0748   31.2303 H   0  0  0  0  0  0  0  0  0  0  0  0
   40.1706   28.0266   32.8131 H   0  0  0  0  0  0  0  0  0  0  0  0
   41.0375   26.3971   30.3904 H   0  0  0  0  0  0  0  0  0  0  0  0
   40.8948   28.9879   30.2086 H   0  0  0  0  0  0  0  0  0  0  0  0
   42.1474   27.8670   29.4527 H   0  0  0  0  0  0  0  0  0  0  0  0
   43.4029   29.5641   30.1942 H   0  0  0  0  0  0  0  0  0  0  0  0
   42.3645   29.7610   31.7067 H   0  0  0  0  0  0  0  0  0  0  0  0
   44.3841   27.6108   31.1396 H   0  0  0  0  0  0  0  0  0  0  0  0
   44.4933   28.9599   32.3291 H   0  0  0  0  0  0  0  0  0  0  0  0
   43.8054   26.8806   33.4329 H   0  0  0  0  0  0  0  0  0  0  0  0
   42.4895   28.0836   33.4880 H   0  0  0  0  0  0  0  0  0  0  0  0
   41.5653   26.0155   32.8436 H   0  0  0  0  0  0  0  0  0  0  0  0
   41.8098   25.2862   29.7362 H   0  0  0  0  0  0  0  0  0  0  0  0
   39.7442   26.1795   34.3755 H   0  0  0  0  0  0  0  0  0  0  0  0
   37.2124   23.9919   30.8174 H   0  0  0  0  0  0  0  0  0  0  0  0
   37.2171   25.6751   35.8321 H   0  0  0  0  0  0  0  0  0  0  0  0
   39.8710   22.4425   34.7849 H   0  0  0  0  0  0  0  0  0  0  0  0
   38.2152   23.1952   39.8545 H   0  0  0  0  0  0  0  0  0  0  0  0
   39.2984   21.9394   39.1969 H   0  0  0  0  0  0  0  0  0  0  0  0
  1 13  1  0
  2  1  1  0
  2  7  1  0
  3  4  1  0
  3  2  1  0
  4  5  1  0
  5  6  1  0
  7  6  1  0
  8  9  2  0
  8  7  1  0
 10  8  1  0
 11 20  1  0
 12 11  1  0
 13 12  2  0
 14 16  1  0
 14 13  1  0
 15 14  2  0
 16 17  1  0
 17 18  2  0
 17 11  1  0
 19 24  2  0
 20 21  2  0
 20 19  1  0
 21 22  1  0
 22 23  2  0
 23 25  1  0
 24 23  1  0
  1 26  1  0
  1 27  1  0
  2 28  1  6
  3 29  1  0
  3 30  1  0
  4 31  1  0
  4 32  1  0
  5 33  1  0
  5 34  1  0
  6 35  1  0
  6 36  1  0
  7 37  1  1
 10 38  1  0
 12 39  1  0
 16 40  1  0
 19 41  1  0
 21 42  1  0
 25 43  1  0
 25 44  1  0
M  ISO  8  26   8  27   8  28  13  29  13  30  13  31  13  32  13  33  13
M  ISO  8  34  13  35  13  36  13  37  13  38   3  39  14  40   9  41  14
M  ISO  1  42  14
M  END
>  <minimizedAffinity>  (1) 
-4.41141558

>  <minimizedRMSD>  (1) 
0.153713614

$$$$
