
     RDKit          3D

 38 40  0  0  1  0  0  0  0  0999 V2000
   37.2600   23.3730   36.7570 N   0  0  0  0  0  0  0  0  0  0  0  0
   37.6150   23.2530   38.1480 C   0  0  0  0  0  0  0  0  0  0  0  0
   39.0740   23.5980   38.2480 C   0  0  0  0  0  0  0  0  0  0  0  0
   39.5730   23.1400   36.8410 C   0  0  0  0  0  0  0  0  0  0  0  0
   38.4460   23.6770   36.0250 C   0  0  2  0  0  0  0  0  0  0  0  0
   38.6370   25.1800   35.9980 C   0  0  0  0  0  0  0  0  0  0  0  0
   39.5860   25.6510   35.1050 C   0  0  0  0  0  0  0  0  0  0  0  0
   39.6520   27.0500   35.1910 C   0  0  0  0  0  0  0  0  0  0  0  0
   38.7350   27.3710   36.1390 N   0  0  0  0  0  0  0  0  0  0  0  0
   38.1510   26.2820   36.6030 N   0  0  0  0  0  0  0  0  0  0  0  0
   38.2720   23.3260   34.7310 O   0  0  0  0  0  0  0  0  0  0  0  0
   38.7510   21.9960   34.6800 C   0  0  0  0  0  0  0  0  0  0  0  0
   39.5930   21.5080   32.4400 C   0  0  0  0  0  0  0  0  0  0  0  0
   38.5160   21.4980   33.3540 C   0  0  0  0  0  0  0  0  0  0  0  0
   37.3270   21.0110   32.8880 C   0  0  0  0  0  0  0  0  0  0  0  0
   37.2070   20.5590   31.5960 N   0  0  0  0  0  0  0  0  0  0  0  0
   38.2780   20.6070   30.8050 C   0  0  0  0  0  0  0  0  0  0  0  0
   39.4570   21.0560   31.1610 N   0  0  0  0  0  0  0  0  0  0  0  0
   38.1160   20.1220   29.4530 N   0  0  0  0  0  0  0  0  0  0  0  0
   36.1290   20.9580   33.7150 C   0  0  0  0  0  0  0  0  0  0  0  0
   35.8650   20.9140   34.9270 O   0  0  0  0  0  0  0  0  0  0  0  0
   34.8760   20.9480   33.0890 O   0  0  0  0  0  0  0  0  0  0  0  0
   36.8592   22.4858   36.4206 H   0  0  0  0  0  0  0  0  0  0  0  0
   37.0174   23.9499   38.7540 H   0  0  0  0  0  0  0  0  0  0  0  0
   37.4203   22.2369   38.5217 H   0  0  0  0  0  0  0  0  0  0  0  0
   39.2265   24.6765   38.4015 H   0  0  0  0  0  0  0  0  0  0  0  0
   39.5982   23.1303   39.0944 H   0  0  0  0  0  0  0  0  0  0  0  0
   40.5357   23.5994   36.5723 H   0  0  0  0  0  0  0  0  0  0  0  0
   39.7740   22.0641   36.7309 H   0  0  0  0  0  0  0  0  0  0  0  0
   40.1929   25.0258   34.4335 H   0  0  0  0  0  0  0  0  0  0  0  0
   40.2996   27.7316   34.6200 H   0  0  0  0  0  0  0  0  0  0  0  0
   38.5245   28.3294   36.4522 H   0  0  0  0  0  0  0  0  0  0  0  0
   39.8282   21.9770   34.9019 H   0  0  0  0  0  0  0  0  0  0  0  0
   38.2339   21.3715   35.4234 H   0  0  0  0  0  0  0  0  0  0  0  0
   40.5698   21.8916   32.7698 H   0  0  0  0  0  0  0  0  0  0  0  0
   37.2027   19.7624   29.1408 H   0  0  0  0  0  0  0  0  0  0  0  0
   38.9139   20.1360   28.8018 H   0  0  0  0  0  0  0  0  0  0  0  0
   34.0505   20.9122   33.6343 H   0  0  0  0  0  0  0  0  0  0  0  0
  1  2  1  0
  2  3  1  0
  4  3  1  0
  5 11  1  6
  5  1  1  0
  5  4  1  0
  6  5  1  0
  6 10  2  0
  7  8  2  0
  7  6  1  0
  8  9  1  0
  9 10  1  0
 12 11  1  0
 13 14  2  0
 14 12  1  0
 15 14  1  0
 15 20  1  0
 16 15  2  0
 17 18  2  0
 17 16  1  0
 18 13  1  0
 19 17  1  0
 20 21  2  0
 22 20  1  0
  1 23  1  0
  2 24  1  0
  2 25  1  0
  3 26  1  0
  3 27  1  0
  4 28  1  0
  4 29  1  0
  7 30  1  0
  8 31  1  0
  9 32  1  0
 12 33  1  0
 12 34  1  0
 13 35  1  0
 19 36  1  0
 19 37  1  0
 22 38  1  0
M  ISO  8  23   5  24  13  25  13  26  13  27  13  28  13  29  13  30  14
M  ISO  6  31  14  32   9  33   8  34   8  35  14  38   3
M  END
>  <minimizedAffinity>  (1) 
-4.708776

>  <minimizedRMSD>  (1) 
0.911325932

$$$$
