
     RDKit          3D

 19 19  0  0  0  0  0  0  0  0999 V2000
   41.0280   21.8990   37.4370 C   0  0  0  0  0  0  0  0  0  0  0  0
   39.9460   22.7360   37.7880 C   0  0  0  0  0  0  0  0  0  0  0  0
   39.1890   23.3110   36.7480 C   0  0  0  0  0  0  0  0  0  0  0  0
   39.5510   23.0200   35.4540 N   0  0  0  0  0  0  0  0  0  0  0  0
   40.5900   22.2160   35.1600 C   0  0  0  0  0  0  0  0  0  0  0  0
   41.3300   21.6550   36.1500 N   0  0  0  0  0  0  0  0  0  0  0  0
   38.0400   24.1990   37.0580 C   0  0  0  0  0  0  0  0  0  0  0  0
   37.9080   24.4240   38.5650 C   0  0  0  0  0  0  0  0  0  0  0  0
   38.1180   25.5330   36.3760 C   0  0  0  0  0  0  0  0  0  0  0  0
   41.6344   21.4385   38.2309 H   0  0  0  0  0  0  0  0  0  0  0  0
   39.7014   22.9332   38.8422 H   0  0  0  0  0  0  0  0  0  0  0  0
   40.8414   22.0120   34.1087 H   0  0  0  0  0  0  0  0  0  0  0  0
   37.1538   23.6738   36.6721 H   0  0  0  0  0  0  0  0  0  0  0  0
   38.3934   23.5965   39.1032 H   0  0  0  0  0  0  0  0  0  0  0  0
   38.3925   25.3731   38.8379 H   0  0  0  0  0  0  0  0  0  0  0  0
   36.8431   24.4642   38.8379 H   0  0  0  0  0  0  0  0  0  0  0  0
   38.1646   26.3297   37.1331 H   0  0  0  0  0  0  0  0  0  0  0  0
   39.0199   25.5713   35.7474 H   0  0  0  0  0  0  0  0  0  0  0  0
   37.2267   25.6761   35.7474 H   0  0  0  0  0  0  0  0  0  0  0  0
  1  2  2  0
  3  7  1  0
  3  2  1  0
  4  3  2  0
  5  4  1  0
  5  6  2  0
  6  1  1  0
  7  8  1  0
  9  7  1  0
  1 10  1  0
  2 11  1  0
  5 12  1  0
  7 13  1  0
  8 14  1  0
  8 15  1  0
  8 16  1  0
  9 17  1  0
  9 18  1  0
  9 19  1  0
M  ISO  8  10  14  11  14  12  14  13   8  14   8  15   8  16   8  17   8
M  ISO  2  18   8  19   8
M  END
>  <minimizedAffinity>  (1) 
-3.18259263

>  <minimizedRMSD>  (1) 
1.88153183

$$$$
