
     RDKit          3D

 43 45  0  0  1  0  0  0  0  0999 V2000
   39.9470   27.4820   31.9040 C   0  0  0  0  0  0  0  0  0  0  0  0
   41.2470   27.1440   31.1660 C   0  0  1  0  0  0  0  0  0  0  0  0
   41.7460   28.3000   30.3800 C   0  0  0  0  0  0  0  0  0  0  0  0
   42.8680   29.0600   30.9960 C   0  0  0  0  0  0  0  0  0  0  0  0
   43.8360   28.2750   31.8060 C   0  0  0  0  0  0  0  0  0  0  0  0
   43.1210   27.4210   32.8130 C   0  0  0  0  0  0  0  0  0  0  0  0
   42.2250   26.4890   32.0720 C   0  0  2  0  0  0  0  0  0  0  0  0
   43.0200   25.4700   31.3440 C   0  0  0  0  0  0  0  0  0  0  0  0
   42.7110   24.8610   30.3150 O   0  0  0  0  0  0  0  0  0  0  0  0
   38.4940   24.5870   33.7900 N   0  0  0  0  0  0  0  0  0  0  0  0
   39.1960   25.7020   33.5680 C   0  0  0  0  0  0  0  0  0  0  0  0
   39.2080   26.2460   32.2940 C   0  0  0  0  0  0  0  0  0  0  0  0
   38.4830   25.6090   31.2830 C   0  0  0  0  0  0  0  0  0  0  0  0
   38.4220   26.0110   30.0950 O   0  0  0  0  0  0  0  0  0  0  0  0
   37.7780   24.4710   31.5540 N   0  0  0  0  0  0  0  0  0  0  0  0
   37.8050   23.9930   32.8040 C   0  0  0  0  0  0  0  0  0  0  0  0
   37.1570   22.9450   33.0550 O   0  0  0  0  0  0  0  0  0  0  0  0
   37.8150   24.7970   36.1000 C   0  0  0  0  0  0  0  0  0  0  0  0
   38.5500   24.1200   35.1180 C   0  0  0  0  0  0  0  0  0  0  0  0
   39.2910   23.0260   35.5260 C   0  0  0  0  0  0  0  0  0  0  0  0
   39.2730   22.6610   36.8490 N   0  0  0  0  0  0  0  0  0  0  0  0
   38.5580   23.3310   37.7590 C   0  0  0  0  0  0  0  0  0  0  0  0
   37.8370   24.3950   37.3680 N   0  0  0  0  0  0  0  0  0  0  0  0
   38.6970   22.7650   39.0570 N   0  0  0  0  0  0  0  0  0  0  0  0
   39.3082   28.0886   31.2452 H   0  0  0  0  0  0  0  0  0  0  0  0
   40.2014   28.0376   32.8186 H   0  0  0  0  0  0  0  0  0  0  0  0
   41.0471   26.3816   30.3987 H   0  0  0  0  0  0  0  0  0  0  0  0
   40.9071   28.9958   30.2316 H   0  0  0  0  0  0  0  0  0  0  0  0
   42.1450   27.8789   29.4454 H   0  0  0  0  0  0  0  0  0  0  0  0
   43.4286   29.5453   30.1834 H   0  0  0  0  0  0  0  0  0  0  0  0
   42.3938   29.7559   31.7037 H   0  0  0  0  0  0  0  0  0  0  0  0
   44.4242   27.6286   31.1380 H   0  0  0  0  0  0  0  0  0  0  0  0
   44.4953   28.9739   32.3417 H   0  0  0  0  0  0  0  0  0  0  0  0
   43.8517   26.8473   33.4020 H   0  0  0  0  0  0  0  0  0  0  0  0
   42.5352   28.0493   33.5001 H   0  0  0  0  0  0  0  0  0  0  0  0
   41.6117   26.0029   32.8450 H   0  0  0  0  0  0  0  0  0  0  0  0
   44.0037   25.2275   31.7725 H   0  0  0  0  0  0  0  0  0  0  0  0
   39.7561   26.1809   34.3847 H   0  0  0  0  0  0  0  0  0  0  0  0
   37.2402   23.9936   30.8166 H   0  0  0  0  0  0  0  0  0  0  0  0
   37.2116   25.6727   35.8188 H   0  0  0  0  0  0  0  0  0  0  0  0
   39.8876   22.4553   34.7991 H   0  0  0  0  0  0  0  0  0  0  0  0
   38.1995   23.1820   39.8567 H   0  0  0  0  0  0  0  0  0  0  0  0
   39.2951   21.9382   39.1970 H   0  0  0  0  0  0  0  0  0  0  0  0
  1 12  1  0
  2  1  1  0
  2  7  1  0
  3  4  1  0
  3  2  1  0
  4  5  1  0
  5  6  1  0
  7  6  1  0
  8  7  1  0
  9  8  2  0
 10 19  1  0
 11 10  1  0
 12 11  2  0
 13 15  1  0
 13 12  1  0
 14 13  2  0
 15 16  1  0
 16 17  2  0
 16 10  1  0
 18 23  2  0
 19 20  2  0
 19 18  1  0
 20 21  1  0
 21 22  2  0
 22 24  1  0
 23 22  1  0
  1 25  1  0
  1 26  1  0
  2 27  1  6
  3 28  1  0
  3 29  1  0
  4 30  1  0
  4 31  1  0
  5 32  1  0
  5 33  1  0
  6 34  1  0
  6 35  1  0
  7 36  1  1
  8 37  1  0
 11 38  1  0
 15 39  1  0
 18 40  1  0
 20 41  1  0
 24 42  1  0
 24 43  1  0
M  ISO  8  25   8  26   8  27  13  28  13  29  13  30  13  31  13  32  13
M  ISO  8  33  13  34  13  35  13  36  13  37   6  38  14  39   9  40  14
M  ISO  1  41  14
M  END
>  <minimizedAffinity>  (1) 
-4.37000132

>  <minimizedRMSD>  (1) 
0.224727824

$$$$
