
     RDKit          3D

 40 43  0  0  1  0  0  0  0  0999 V2000
   37.5350   27.9190   33.4270 C   0  0  0  0  0  0  0  0  0  0  0  0
   36.9660   28.5710   32.2880 N   0  0  0  0  0  0  0  0  0  0  0  0
   37.5560   28.5770   31.0980 N   0  0  0  0  0  0  0  0  0  0  0  0
   36.8210   29.2520   30.1920 C   0  0  0  0  0  0  0  0  0  0  0  0
   35.7160   29.6820   30.8780 C   0  0  0  0  0  0  0  0  0  0  0  0
   35.8290   29.2470   32.1840 C   0  0  0  0  0  0  0  0  0  0  0  0
   34.8210   29.5790   33.1620 C   0  0  0  0  0  0  0  0  0  0  0  0
   33.4990   29.2250   33.2150 C   0  0  0  0  0  0  0  0  0  0  0  0
   32.8140   29.7000   34.2650 N   0  0  0  0  0  0  0  0  0  0  0  0
   33.6760   30.4150   34.9820 C   0  0  0  0  0  0  0  0  0  0  0  0
   33.4940   31.1170   36.1570 C   0  0  0  0  0  0  0  0  0  0  0  0
   34.5600   31.7760   36.6980 C   0  0  0  0  0  0  0  0  0  0  0  0
   35.8050   31.7470   36.0870 C   0  0  0  0  0  0  0  0  0  0  0  0
   35.8900   31.0330   34.9370 C   0  0  0  0  0  0  0  0  0  0  0  0
   34.8960   30.3360   34.3050 C   0  0  0  0  0  0  0  0  0  0  0  0
   36.9070   26.6020   33.7760 C   0  0  1  0  0  0  0  0  0  0  0  0
   38.5630   24.0720   31.5130 C   0  0  0  0  0  0  0  0  0  0  0  0
   38.3800   25.0510   32.5170 C   0  0  0  0  0  0  0  0  0  0  0  0
   37.0990   25.5930   32.7140 C   0  0  0  0  0  0  0  0  0  0  0  0
   36.0570   25.1620   31.9290 N   0  0  0  0  0  0  0  0  0  0  0  0
   36.2680   24.2170   30.9710 C   0  0  0  0  0  0  0  0  0  0  0  0
   37.5040   23.6700   30.7560 N   0  0  0  0  0  0  0  0  0  0  0  0
   37.3590   26.1390   35.1360 C   0  0  0  0  0  0  0  0  0  0  0  0
   37.4294   28.5888   34.2931 H   0  0  0  0  0  0  0  0  0  0  0  0
   38.5828   27.7044   33.1700 H   0  0  0  0  0  0  0  0  0  0  0  0
   37.0574   29.4210   29.1311 H   0  0  0  0  0  0  0  0  0  0  0  0
   34.8849   30.2703   30.4619 H   0  0  0  0  0  0  0  0  0  0  0  0
   33.0302   28.5926   32.4467 H   0  0  0  0  0  0  0  0  0  0  0  0
   31.8180   29.5424   34.4747 H   0  0  0  0  0  0  0  0  0  0  0  0
   32.5097   31.1446   36.6473 H   0  0  0  0  0  0  0  0  0  0  0  0
   34.4296   32.3393   37.6338 H   0  0  0  0  0  0  0  0  0  0  0  0
   36.6733   32.2728   36.5108 H   0  0  0  0  0  0  0  0  0  0  0  0
   36.8778   31.0115   34.4535 H   0  0  0  0  0  0  0  0  0  0  0  0
   35.8183   26.7463   33.8381 H   0  0  0  0  0  0  0  0  0  0  0  0
   39.5585   23.6359   31.3436 H   0  0  0  0  0  0  0  0  0  0  0  0
   39.2278   25.3830   33.1343 H   0  0  0  0  0  0  0  0  0  0  0  0
   35.4212   23.8841   30.3528 H   0  0  0  0  0  0  0  0  0  0  0  0
   36.8148   26.6964   35.9127 H   0  0  0  0  0  0  0  0  0  0  0  0
   37.1535   25.0638   35.2443 H   0  0  0  0  0  0  0  0  0  0  0  0
   38.4388   26.3186   35.2443 H   0  0  0  0  0  0  0  0  0  0  0  0
  1 16  1  0
  2  1  1  0
  3  2  1  0
  4  5  1  0
  4  3  2  0
  5  6  2  0
  6  2  1  0
  6  7  1  0
  7  8  2  0
  7 15  1  0
  8  9  1  0
  9 10  1  0
 10 11  2  0
 11 12  1  0
 13 12  2  0
 14 13  1  0
 15 14  2  0
 15 10  1  0
 16 23  1  0
 17 18  2  0
 18 19  1  0
 19 16  1  0
 20 19  2  0
 21 20  1  0
 22 21  2  0
 22 17  1  0
  1 24  1  0
  1 25  1  0
  4 26  1  0
  5 27  1  0
  8 28  1  0
  9 29  1  0
 11 30  1  0
 12 31  1  0
 13 32  1  0
 14 33  1  0
 16 34  1  1
 17 35  1  0
 18 36  1  0
 21 37  1  0
 23 38  1  0
 23 39  1  0
 23 40  1  0
M  ISO  8  24   8  25   8  26  14  27  14  28  14  29   9  30  14  31  14
M  ISO  8  32  14  33  14  34   8  35  14  36  14  37  14  38   8  39   8
M  ISO  1  40   8
M  END
>  <minimizedAffinity>  (1) 
-5.06965542

>  <minimizedRMSD>  (1) 
3.70425129

$$$$
