
     RDKit          3D

 33 35  0  0  1  0  0  0  0  0999 V2000
   37.8300   25.7810   35.1210 C   0  0  1  0  0  0  0  0  0  0  0  0
   38.4160   23.6850   38.2100 C   0  0  0  0  0  0  0  0  0  0  0  0
   37.8670   24.6440   37.3270 C   0  0  0  0  0  0  0  0  0  0  0  0
   38.4130   24.7900   36.0420 C   0  0  0  0  0  0  0  0  0  0  0  0
   39.4720   24.0040   35.6610 N   0  0  0  0  0  0  0  0  0  0  0  0
   39.9730   23.0930   36.5380 C   0  0  0  0  0  0  0  0  0  0  0  0
   39.4660   22.9180   37.8040 N   0  0  0  0  0  0  0  0  0  0  0  0
   38.0480   27.2050   35.5680 C   0  0  0  0  0  0  0  0  0  0  0  0
   38.3040   25.5970   33.6950 C   0  0  0  0  0  0  0  0  0  0  0  0
   37.3020   25.1470   32.7900 N   0  0  0  0  0  0  0  0  0  0  0  0
   37.0310   23.8780   32.5300 N   0  0  0  0  0  0  0  0  0  0  0  0
   36.0370   23.7640   31.6390 C   0  0  0  0  0  0  0  0  0  0  0  0
   35.6570   25.0320   31.3160 C   0  0  0  0  0  0  0  0  0  0  0  0
   36.4800   25.8980   32.0640 C   0  0  0  0  0  0  0  0  0  0  0  0
   36.3280   27.3550   31.9250 C   0  0  0  0  0  0  0  0  0  0  0  0
   35.8980   28.3220   32.7330 C   0  0  0  0  0  0  0  0  0  0  0  0
   35.8680   29.6200   32.3720 C   0  0  0  0  0  0  0  0  0  0  0  0
   36.3460   29.8790   31.0140 C   0  0  0  0  0  0  0  0  0  0  0  0
   36.7870   28.1600   30.4310 S   0  0  0  0  0  0  0  0  0  0  0  0
   36.7469   25.5908   35.1469 H   0  0  0  0  0  0  0  0  0  0  0  0
   37.9972   23.5592   39.2194 H   0  0  0  0  0  0  0  0  0  0  0  0
   37.0198   25.2698   37.6444 H   0  0  0  0  0  0  0  0  0  0  0  0
   40.8212   22.4687   36.2204 H   0  0  0  0  0  0  0  0  0  0  0  0
   38.0545   27.2474   36.6672 H   0  0  0  0  0  0  0  0  0  0  0  0
   39.0121   27.5672   35.1814 H   0  0  0  0  0  0  0  0  0  0  0  0
   37.2364   27.8390   35.1814 H   0  0  0  0  0  0  0  0  0  0  0  0
   38.6843   26.5635   33.3326 H   0  0  0  0  0  0  0  0  0  0  0  0
   39.0744   24.8123   33.7218 H   0  0  0  0  0  0  0  0  0  0  0  0
   35.6109   22.8294   31.2452 H   0  0  0  0  0  0  0  0  0  0  0  0
   34.8644   25.3225   30.6107 H   0  0  0  0  0  0  0  0  0  0  0  0
   35.5516   28.0490   33.7407 H   0  0  0  0  0  0  0  0  0  0  0  0
   35.5140   30.4174   33.0419 H   0  0  0  0  0  0  0  0  0  0  0  0
   36.4251   30.8356   30.4767 H   0  0  0  0  0  0  0  0  0  0  0  0
  1  8  1  0
  1  4  1  0
  3  2  2  0
  4  3  1  0
  5  4  2  0
  5  6  1  0
  6  7  2  0
  7  2  1  0
  9  1  1  0
 10  9  1  0
 11 10  1  0
 12 11  2  0
 13 12  1  0
 13 14  2  0
 14 10  1  0
 15 14  1  0
 15 16  2  0
 17 16  1  0
 18 17  2  0
 19 18  1  0
 19 15  1  0
  1 20  1  6
  2 21  1  0
  3 22  1  0
  6 23  1  0
  8 24  1  0
  8 25  1  0
  8 26  1  0
  9 27  1  0
  9 28  1  0
 12 29  1  0
 13 30  1  0
 16 31  1  0
 17 32  1  0
 18 33  1  0
M  ISO  8  20   8  21  14  22  14  23  14  24   8  25   8  26   8  27   8
M  ISO  6  28   8  29  14  30  14  31  14  32  14  33  14
M  END
>  <minimizedAffinity>  (1) 
-4.95422697

>  <minimizedRMSD>  (1) 
3.78830314

$$$$
