
     RDKit          3D

 39 41  0  0  1  0  0  0  0  0999 V2000
   36.9580   28.0080   34.6100 C   0  0  0  0  0  0  0  0  0  0  0  0
   36.3760   28.5780   33.4370 N   0  0  0  0  0  0  0  0  0  0  0  0
   36.8270   28.3870   32.2260 N   0  0  0  0  0  0  0  0  0  0  0  0
   36.0960   29.0380   31.3070 C   0  0  0  0  0  0  0  0  0  0  0  0
   35.1090   29.6890   31.9840 C   0  0  0  0  0  0  0  0  0  0  0  0
   35.3080   29.3830   33.3230 C   0  0  0  0  0  0  0  0  0  0  0  0
   34.4930   29.8600   34.3880 N   0  0  0  0  0  0  0  0  0  0  0  0
   33.3320   29.3370   34.8190 C   0  0  0  0  0  0  0  0  0  0  0  0
   32.6540   29.9170   35.8720 C   0  0  0  0  0  0  0  0  0  0  0  0
   31.3760   29.3180   36.3260 C   0  0  0  0  0  0  0  0  0  0  0  0
   33.1090   31.0410   36.5310 C   0  0  0  0  0  0  0  0  0  0  0  0
   32.5210   31.5990   37.4930 O   0  0  0  0  0  0  0  0  0  0  0  0
   34.2890   31.5320   36.0560 N   0  0  0  0  0  0  0  0  0  0  0  0
   34.9700   30.9730   35.0210 C   0  0  0  0  0  0  0  0  0  0  0  0
   36.0580   31.5640   34.7070 O   0  0  0  0  0  0  0  0  0  0  0  0
   37.4540   26.5800   34.4110 C   0  0  1  0  0  0  0  0  0  0  0  0
   41.1800   27.0140   34.0580 C   0  0  0  0  0  0  0  0  0  0  0  0
   39.8730   27.0430   34.5610 C   0  0  0  0  0  0  0  0  0  0  0  0
   38.7770   26.5120   33.8200 C   0  0  0  0  0  0  0  0  0  0  0  0
   39.0520   25.9810   32.6080 N   0  0  0  0  0  0  0  0  0  0  0  0
   40.3400   25.9610   32.1290 C   0  0  0  0  0  0  0  0  0  0  0  0
   41.3940   26.4680   32.8360 N   0  0  0  0  0  0  0  0  0  0  0  0
   37.2920   25.7840   35.6670 C   0  0  0  0  0  0  0  0  0  0  0  0
   37.8102   28.6332   34.9148 H   0  0  0  0  0  0  0  0  0  0  0  0
   36.1706   27.9728   35.3773 H   0  0  0  0  0  0  0  0  0  0  0  0
   36.2617   29.0445   30.2196 H   0  0  0  0  0  0  0  0  0  0  0  0
   34.3189   30.3248   31.5580 H   0  0  0  0  0  0  0  0  0  0  0  0
   32.9202   28.4420   34.3298 H   0  0  0  0  0  0  0  0  0  0  0  0
   31.3475   29.3046   37.4255 H   0  0  0  0  0  0  0  0  0  0  0  0
   30.5350   29.9157   35.9446 H   0  0  0  0  0  0  0  0  0  0  0  0
   31.2973   28.2892   35.9446 H   0  0  0  0  0  0  0  0  0  0  0  0
   34.6850   32.3702   36.5049 H   0  0  0  0  0  0  0  0  0  0  0  0
   36.8127   26.1008   33.6566 H   0  0  0  0  0  0  0  0  0  0  0  0
   42.0157   27.4259   34.6428 H   0  0  0  0  0  0  0  0  0  0  0  0
   39.6880   27.4858   35.5508 H   0  0  0  0  0  0  0  0  0  0  0  0
   40.5297   25.5203   31.1392 H   0  0  0  0  0  0  0  0  0  0  0  0
   37.4260   26.4422   36.5381 H   0  0  0  0  0  0  0  0  0  0  0  0
   36.2854   25.3413   35.6933 H   0  0  0  0  0  0  0  0  0  0  0  0
   38.0456   24.9831   35.6933 H   0  0  0  0  0  0  0  0  0  0  0  0
  2  1  1  0
  3  2  1  0
  4  5  1  0
  4  3  2  0
  5  6  2  0
  6  2  1  0
  6  7  1  0
  7  8  1  0
  7 14  1  0
  8  9  2  0
  9 10  1  0
  9 11  1  0
 11 12  2  0
 13 11  1  0
 14 13  1  0
 15 14  2  0
 16  1  1  0
 16 23  1  0
 17 18  2  0
 19 16  1  0
 19 18  1  0
 20 19  2  0
 21 20  1  0
 21 22  2  0
 22 17  1  0
  1 24  1  0
  1 25  1  0
  4 26  1  0
  5 27  1  0
  8 28  1  0
 10 29  1  0
 10 30  1  0
 10 31  1  0
 13 32  1  0
 16 33  1  6
 17 34  1  0
 18 35  1  0
 21 36  1  0
 23 37  1  0
 23 38  1  0
 23 39  1  0
M  ISO  8  24   8  25   8  26  14  27  14  28  14  29   8  30   8  31   8
M  ISO  8  32   9  33   8  34  14  35  14  36  14  37   8  38   8  39   8
M  END
>  <minimizedAffinity>  (1) 
-4.43379021

>  <minimizedRMSD>  (1) 
3.74511099

$$$$
