
     RDKit          3D

 39 41  0  0  1  0  0  0  0  0999 V2000
   38.1750   27.1540   33.9370 C   0  0  0  0  0  0  0  0  0  0  0  0
   39.4620   26.6020   34.2150 N   0  0  0  0  0  0  0  0  0  0  0  0
   40.5880   27.2310   33.9480 N   0  0  0  0  0  0  0  0  0  0  0  0
   41.6640   26.4810   34.3140 C   0  0  0  0  0  0  0  0  0  0  0  0
   41.1520   25.3110   34.8430 C   0  0  0  0  0  0  0  0  0  0  0  0
   39.7480   25.3980   34.7760 C   0  0  0  0  0  0  0  0  0  0  0  0
   38.8340   24.3920   35.1990 N   0  0  0  0  0  0  0  0  0  0  0  0
   38.2420   23.3750   34.3950 C   0  0  0  0  0  0  0  0  0  0  0  0
   37.7380   22.1980   35.1770 C   0  0  0  0  0  0  0  0  0  0  0  0
   37.9110   22.3070   36.5390 O   0  0  0  0  0  0  0  0  0  0  0  0
   37.4370   23.5660   36.9660 C   0  0  0  0  0  0  0  0  0  0  0  0
   38.5220   24.5330   36.6340 C   0  0  0  0  0  0  0  0  0  0  0  0
   37.8830   27.2700   32.4430 C   0  0  1  0  0  0  0  0  0  0  0  0
   35.7850   24.3070   31.4450 C   0  0  0  0  0  0  0  0  0  0  0  0
   36.1680   25.5260   32.0120 C   0  0  0  0  0  0  0  0  0  0  0  0
   37.5020   26.0000   31.8590 C   0  0  0  0  0  0  0  0  0  0  0  0
   38.3680   25.2260   31.1490 N   0  0  0  0  0  0  0  0  0  0  0  0
   37.9580   24.0430   30.6100 C   0  0  0  0  0  0  0  0  0  0  0  0
   36.6800   23.5660   30.7440 N   0  0  0  0  0  0  0  0  0  0  0  0
   36.8710   28.3740   32.1970 C   0  0  0  0  0  0  0  0  0  0  0  0
   37.4109   26.5080   34.3939 H   0  0  0  0  0  0  0  0  0  0  0  0
   38.1574   28.1715   34.3546 H   0  0  0  0  0  0  0  0  0  0  0  0
   42.7252   26.7513   34.2099 H   0  0  0  0  0  0  0  0  0  0  0  0
   41.7340   24.4675   35.2426 H   0  0  0  0  0  0  0  0  0  0  0  0
   38.9960   23.0174   33.6783 H   0  0  0  0  0  0  0  0  0  0  0  0
   37.3696   23.8267   33.9002 H   0  0  0  0  0  0  0  0  0  0  0  0
   36.6628   22.0844   34.9742 H   0  0  0  0  0  0  0  0  0  0  0  0
   38.3281   21.3281   34.8529 H   0  0  0  0  0  0  0  0  0  0  0  0
   36.5112   23.8291   36.4334 H   0  0  0  0  0  0  0  0  0  0  0  0
   37.2008   23.5704   38.0403 H   0  0  0  0  0  0  0  0  0  0  0  0
   39.4167   24.3110   37.2342 H   0  0  0  0  0  0  0  0  0  0  0  0
   38.1993   25.5609   36.8560 H   0  0  0  0  0  0  0  0  0  0  0  0
   38.8106   27.5528   31.9237 H   0  0  0  0  0  0  0  0  0  0  0  0
   34.7530   23.9466   31.5677 H   0  0  0  0  0  0  0  0  0  0  0  0
   35.4364   26.1211   32.5783 H   0  0  0  0  0  0  0  0  0  0  0  0
   38.6854   23.4443   30.0421 H   0  0  0  0  0  0  0  0  0  0  0  0
   36.5129   28.7646   33.1609 H   0  0  0  0  0  0  0  0  0  0  0  0
   37.3454   29.1857   31.6259 H   0  0  0  0  0  0  0  0  0  0  0  0
   36.0212   27.9719   31.6259 H   0  0  0  0  0  0  0  0  0  0  0  0
  1  2  1  0
  2  6  1  0
  3  2  1  0
  3  4  2  0
  4  5  1  0
  6  5  2  0
  6  7  1  0
  7 12  1  0
  8  9  1  0
  8  7  1  0
  9 10  1  0
 10 11  1  0
 12 11  1  0
 13  1  1  0
 14 15  2  0
 16 15  1  0
 16 13  1  0
 17 16  2  0
 18 19  2  0
 18 17  1  0
 19 14  1  0
 20 13  1  0
  1 21  1  0
  1 22  1  0
  4 23  1  0
  5 24  1  0
  8 25  1  0
  8 26  1  0
  9 27  1  0
  9 28  1  0
 11 29  1  0
 11 30  1  0
 12 31  1  0
 12 32  1  0
 13 33  1  6
 14 34  1  0
 15 35  1  0
 18 36  1  0
 20 37  1  0
 20 38  1  0
 20 39  1  0
M  ISO  8  21   8  22   8  23  14  24  14  25  13  26  13  27  13  28  13
M  ISO  8  29  13  30  13  31  13  32  13  33   8  34  14  35  14  36  14
M  ISO  3  37   8  38   8  39   8
M  END
>  <minimizedAffinity>  (1) 
-4.21926069

>  <minimizedRMSD>  (1) 
4.82273865

$$$$
