
     RDKit          3D

 40 42  0  0  1  0  0  0  0  0999 V2000
   38.5800   25.8910   35.9430 C   0  0  0  0  0  0  0  0  0  0  0  0
   39.3750   26.3790   34.8640 N   0  0  0  0  0  0  0  0  0  0  0  0
   40.6460   26.7070   34.9480 N   0  0  0  0  0  0  0  0  0  0  0  0
   41.1170   27.1170   33.7480 C   0  0  0  0  0  0  0  0  0  0  0  0
   40.0820   27.0420   32.8580 C   0  0  0  0  0  0  0  0  0  0  0  0
   38.9830   26.5700   33.5960 C   0  0  0  0  0  0  0  0  0  0  0  0
   37.7130   26.4190   32.9670 N   0  0  0  0  0  0  0  0  0  0  0  0
   37.4640   25.1860   32.2450 C   0  0  0  0  0  0  0  0  0  0  0  0
   36.0860   24.9920   31.7600 C   0  0  0  0  0  0  0  0  0  0  0  0
   35.4220   26.1490   31.2290 N   0  0  0  0  0  0  0  0  0  0  0  0
   36.0870   27.3790   31.5100 C   0  0  0  0  0  0  0  0  0  0  0  0
   36.6320   27.3910   32.9340 C   0  0  0  0  0  0  0  0  0  0  0  0
   38.2570   24.4090   35.8660 C   0  0  1  0  0  0  0  0  0  0  0  0
   41.3640   22.3770   36.4650 C   0  0  0  0  0  0  0  0  0  0  0  0
   40.2330   23.1910   36.6880 C   0  0  0  0  0  0  0  0  0  0  0  0
   39.4180   23.5700   35.6070 C   0  0  0  0  0  0  0  0  0  0  0  0
   39.7590   23.1280   34.3650 N   0  0  0  0  0  0  0  0  0  0  0  0
   40.8560   22.3440   34.1730 C   0  0  0  0  0  0  0  0  0  0  0  0
   41.6570   21.9680   35.2130 N   0  0  0  0  0  0  0  0  0  0  0  0
   37.4430   23.9780   37.0550 C   0  0  0  0  0  0  0  0  0  0  0  0
   39.1233   26.0761   36.8814 H   0  0  0  0  0  0  0  0  0  0  0  0
   37.6193   26.4242   35.8904 H   0  0  0  0  0  0  0  0  0  0  0  0
   42.1425   27.4491   33.5290 H   0  0  0  0  0  0  0  0  0  0  0  0
   40.1046   27.2975   31.7883 H   0  0  0  0  0  0  0  0  0  0  0  0
   38.1345   25.1645   31.3732 H   0  0  0  0  0  0  0  0  0  0  0  0
   37.6423   24.3762   32.9678 H   0  0  0  0  0  0  0  0  0  0  0  0
   36.1157   24.2308   30.9665 H   0  0  0  0  0  0  0  0  0  0  0  0
   35.5037   24.7059   32.6483 H   0  0  0  0  0  0  0  0  0  0  0  0
   34.4754   26.1930   31.6326 H   0  0  0  0  0  0  0  0  0  0  0  0
   36.9210   27.5067   30.8043 H   0  0  0  0  0  0  0  0  0  0  0  0
   35.3640   28.2012   31.4039 H   0  0  0  0  0  0  0  0  0  0  0  0
   37.0120   28.3916   33.1877 H   0  0  0  0  0  0  0  0  0  0  0  0
   35.8478   27.1408   33.6637 H   0  0  0  0  0  0  0  0  0  0  0  0
   37.6280   24.2576   34.9764 H   0  0  0  0  0  0  0  0  0  0  0  0
   42.0039   22.0773   37.3081 H   0  0  0  0  0  0  0  0  0  0  0  0
   39.9894   23.5285   37.7062 H   0  0  0  0  0  0  0  0  0  0  0  0
   41.1026   22.0056   33.1558 H   0  0  0  0  0  0  0  0  0  0  0  0
   37.9691   24.2566   37.9800 H   0  0  0  0  0  0  0  0  0  0  0  0
   36.4620   24.4748   37.0273 H   0  0  0  0  0  0  0  0  0  0  0  0
   37.3025   22.8874   37.0273 H   0  0  0  0  0  0  0  0  0  0  0  0
  2  3  1  0
  2  1  1  0
  4  3  2  0
  5  6  2  0
  5  4  1  0
  6  2  1  0
  7  6  1  0
  8  7  1  0
  9  8  1  0
 10 11  1  0
 10  9  1  0
 11 12  1  0
 12  7  1  0
 13  1  1  0
 13 20  1  0
 14 15  2  0
 16 13  1  0
 16 15  1  0
 17 16  2  0
 18 17  1  0
 18 19  2  0
 19 14  1  0
  1 21  1  0
  1 22  1  0
  4 23  1  0
  5 24  1  0
  8 25  1  0
  8 26  1  0
  9 27  1  0
  9 28  1  0
 10 29  1  0
 11 30  1  0
 11 31  1  0
 12 32  1  0
 12 33  1  0
 13 34  1  6
 14 35  1  0
 15 36  1  0
 18 37  1  0
 20 38  1  0
 20 39  1  0
 20 40  1  0
M  ISO  8  21   8  22   8  23  14  24  14  25  13  26  13  27  13  28  13
M  ISO  8  29   5  30  13  31  13  32  13  33  13  34   8  35  14  36  14
M  ISO  4  37  14  38   8  39   8  40   8
M  END
>  <minimizedAffinity>  (1) 
-4.1866622

>  <minimizedRMSD>  (1) 
2.79932165

$$$$
