
     RDKit          3D

 32 34  0  0  1  0  0  0  0  0999 V2000
   37.6860   24.4820   36.4750 C   0  0  1  0  0  0  0  0  0  0  0  0
   40.5460   22.3380   35.2590 C   0  0  0  0  0  0  0  0  0  0  0  0
   39.7610   23.2090   36.0370 C   0  0  0  0  0  0  0  0  0  0  0  0
   38.4490   23.5740   35.6240 C   0  0  0  0  0  0  0  0  0  0  0  0
   37.9810   23.0560   34.4640 N   0  0  0  0  0  0  0  0  0  0  0  0
   38.7630   22.2070   33.7200 C   0  0  0  0  0  0  0  0  0  0  0  0
   40.0270   21.8500   34.1050 N   0  0  0  0  0  0  0  0  0  0  0  0
   38.2320   24.6320   37.8580 C   0  0  0  0  0  0  0  0  0  0  0  0
   37.4540   25.8440   35.8340 C   0  0  0  0  0  0  0  0  0  0  0  0
   38.5300   26.2710   34.9980 N   0  0  0  0  0  0  0  0  0  0  0  0
   39.7440   26.5200   35.4100 N   0  0  0  0  0  0  0  0  0  0  0  0
   40.5480   26.9060   34.3960 C   0  0  0  0  0  0  0  0  0  0  0  0
   39.7850   26.9010   33.2620 C   0  0  0  0  0  0  0  0  0  0  0  0
   38.5260   26.4980   33.6740 C   0  0  0  0  0  0  0  0  0  0  0  0
   37.4230   26.3620   32.7840 N   0  0  0  0  0  0  0  0  0  0  0  0
   36.6600   27.4440   32.4910 C   0  0  0  0  0  0  0  0  0  0  0  0
   35.6590   27.1350   31.6310 N   0  0  0  0  0  0  0  0  0  0  0  0
   35.8270   25.8040   31.3960 C   0  0  0  0  0  0  0  0  0  0  0  0
   36.8900   25.3430   32.0910 N   0  0  0  0  0  0  0  0  0  0  0  0
   36.7091   23.9873   36.5791 H   0  0  0  0  0  0  0  0  0  0  0  0
   41.5602   22.0586   35.5804 H   0  0  0  0  0  0  0  0  0  0  0  0
   40.1667   23.6129   36.9763 H   0  0  0  0  0  0  0  0  0  0  0  0
   38.3593   21.7994   32.7814 H   0  0  0  0  0  0  0  0  0  0  0  0
   37.4405   24.4146   38.5903 H   0  0  0  0  0  0  0  0  0  0  0  0
   39.0666   23.9299   38.0009 H   0  0  0  0  0  0  0  0  0  0  0  0
   38.5908   25.6620   38.0009 H   0  0  0  0  0  0  0  0  0  0  0  0
   36.5397   25.7908   35.2247 H   0  0  0  0  0  0  0  0  0  0  0  0
   37.3691   26.5757   36.6509 H   0  0  0  0  0  0  0  0  0  0  0  0
   41.6126   27.1732   34.4687 H   0  0  0  0  0  0  0  0  0  0  0  0
   40.1028   27.1612   32.2415 H   0  0  0  0  0  0  0  0  0  0  0  0
   36.8324   28.4499   32.9013 H   0  0  0  0  0  0  0  0  0  0  0  0
   35.1910   25.1942   30.7375 H   0  0  0  0  0  0  0  0  0  0  0  0
  1  8  1  0
  2  3  2  0
  4  3  1  0
  4  1  1  0
  5  4  2  0
  6  7  2  0
  6  5  1  0
  7  2  1  0
  9  1  1  0
 10 11  1  0
 10  9  1  0
 12 11  2  0
 13 14  2  0
 13 12  1  0
 14 10  1  0
 15 14  1  0
 16 15  1  0
 17 16  2  0
 18 17  1  0
 18 19  2  0
 19 15  1  0
  1 20  1  1
  2 21  1  0
  3 22  1  0
  6 23  1  0
  8 24  1  0
  8 25  1  0
  8 26  1  0
  9 27  1  0
  9 28  1  0
 12 29  1  0
 13 30  1  0
 16 31  1  0
 18 32  1  0
M  ISO  8  20   8  21  14  22  14  23  14  24   8  25   8  26   8  27   8
M  ISO  5  28   8  29  14  30  14  31  14  32  14
M  END
>  <minimizedAffinity>  (1) 
-3.94506693

>  <minimizedRMSD>  (1) 
2.44608116

$$$$
