
     RDKit          3D

 35 36  0  0  1  0  0  0  0  0999 V2000
   38.0030   24.8170   36.6670 C   0  0  1  0  0  0  0  0  0  0  0  0
   40.7590   22.4680   35.6310 C   0  0  0  0  0  0  0  0  0  0  0  0
   39.9970   23.3900   36.3700 C   0  0  0  0  0  0  0  0  0  0  0  0
   38.7540   23.8610   35.8600 C   0  0  0  0  0  0  0  0  0  0  0  0
   38.3340   23.3990   34.6590 N   0  0  0  0  0  0  0  0  0  0  0  0
   39.1030   22.5020   33.9660 C   0  0  0  0  0  0  0  0  0  0  0  0
   40.3080   22.0320   34.4400 N   0  0  0  0  0  0  0  0  0  0  0  0
   37.8080   24.4080   38.0930 C   0  0  0  0  0  0  0  0  0  0  0  0
   38.5520   26.2360   36.5800 C   0  0  0  0  0  0  0  0  0  0  0  0
   39.0860   26.5730   35.2960 N   0  0  0  0  0  0  0  0  0  0  0  0
   40.3490   26.6360   34.9910 N   0  0  0  0  0  0  0  0  0  0  0  0
   40.5670   26.9770   33.7110 C   0  0  0  0  0  0  0  0  0  0  0  0
   39.3130   27.1430   33.1640 C   0  0  0  0  0  0  0  0  0  0  0  0
   38.4140   26.8820   34.1810 C   0  0  0  0  0  0  0  0  0  0  0  0
   36.9660   26.9620   33.9740 C   0  0  0  0  0  0  0  0  0  0  0  0
   36.6990   26.8170   32.4730 C   0  0  0  0  0  0  0  0  0  0  0  0
   36.3860   28.3040   34.3630 C   0  0  0  0  0  0  0  0  0  0  0  0
   37.0039   24.8135   36.2069 H   0  0  0  0  0  0  0  0  0  0  0  0
   41.7197   22.1045   36.0245 H   0  0  0  0  0  0  0  0  0  0  0  0
   40.3619   23.7481   37.3440 H   0  0  0  0  0  0  0  0  0  0  0  0
   38.7435   22.1421   32.9907 H   0  0  0  0  0  0  0  0  0  0  0  0
   38.1856   25.2000   38.7565 H   0  0  0  0  0  0  0  0  0  0  0  0
   36.7368   24.2482   38.2854 H   0  0  0  0  0  0  0  0  0  0  0  0
   38.3582   23.4752   38.2854 H   0  0  0  0  0  0  0  0  0  0  0  0
   37.7369   26.9376   36.8112 H   0  0  0  0  0  0  0  0  0  0  0  0
   39.3822   26.3019   37.2986 H   0  0  0  0  0  0  0  0  0  0  0  0
   41.5374   27.0979   33.2073 H   0  0  0  0  0  0  0  0  0  0  0  0
   39.0756   27.4259   32.1279 H   0  0  0  0  0  0  0  0  0  0  0  0
   36.5076   26.1768   34.5931 H   0  0  0  0  0  0  0  0  0  0  0  0
   35.7418   26.2972   32.3194 H   0  0  0  0  0  0  0  0  0  0  0  0
   36.6531   27.8141   32.0107 H   0  0  0  0  0  0  0  0  0  0  0  0
   37.5103   26.2356   32.0107 H   0  0  0  0  0  0  0  0  0  0  0  0
   36.3512   28.3845   35.4595 H   0  0  0  0  0  0  0  0  0  0  0  0
   37.0170   29.1080   33.9562 H   0  0  0  0  0  0  0  0  0  0  0  0
   35.3681   28.3953   33.9562 H   0  0  0  0  0  0  0  0  0  0  0  0
  1  8  1  0
  2  3  2  0
  4  3  1  0
  4  1  1  0
  5  4  2  0
  6  7  2  0
  6  5  1  0
  7  2  1  0
  9  1  1  0
 10  9  1  0
 11 10  1  0
 12 11  2  0
 13 12  1  0
 13 14  2  0
 14 10  1  0
 15 14  1  0
 15 17  1  0
 16 15  1  0
  1 18  1  6
  2 19  1  0
  3 20  1  0
  6 21  1  0
  8 22  1  0
  8 23  1  0
  8 24  1  0
  9 25  1  0
  9 26  1  0
 12 27  1  0
 13 28  1  0
 15 29  1  0
 16 30  1  0
 16 31  1  0
 16 32  1  0
 17 33  1  0
 17 34  1  0
 17 35  1  0
M  ISO  8  18   8  19  14  20  14  21  14  22   8  23   8  24   8  25   8
M  ISO  8  26   8  27  14  28  14  29   8  30   8  31   8  32   8  33   8
M  ISO  2  34   8  35   8
M  END
>  <minimizedAffinity>  (1) 
-3.93575931

>  <minimizedRMSD>  (1) 
1.46293473

$$$$
