
     RDKit          3D

 27 28  0  0  1  0  0  0  0  0999 V2000
   37.9830   24.7410   36.7810 C   0  0  1  0  0  0  0  0  0  0  0  0
   40.6880   22.4030   35.5900 C   0  0  0  0  0  0  0  0  0  0  0  0
   39.9690   23.3380   36.3550 C   0  0  0  0  0  0  0  0  0  0  0  0
   38.6750   23.7700   35.9450 C   0  0  0  0  0  0  0  0  0  0  0  0
   38.1650   23.2520   34.8040 N   0  0  0  0  0  0  0  0  0  0  0  0
   38.8910   22.3410   34.0780 C   0  0  0  0  0  0  0  0  0  0  0  0
   40.1430   21.9140   34.4590 N   0  0  0  0  0  0  0  0  0  0  0  0
   37.9060   24.3690   38.2280 C   0  0  0  0  0  0  0  0  0  0  0  0
   38.5170   26.1590   36.6190 C   0  0  0  0  0  0  0  0  0  0  0  0
   38.6830   26.5600   35.2520 N   0  0  0  0  0  0  0  0  0  0  0  0
   39.8070   26.5090   34.5930 N   0  0  0  0  0  0  0  0  0  0  0  0
   39.6620   26.9520   33.3240 C   0  0  0  0  0  0  0  0  0  0  0  0
   38.3560   27.3030   33.1810 C   0  0  0  0  0  0  0  0  0  0  0  0
   37.7550   27.0460   34.4110 C   0  0  0  0  0  0  0  0  0  0  0  0
   36.4160   27.2720   34.6820 O   0  0  0  0  0  0  0  0  0  0  0  0
   36.9517   24.7209   36.3989 H   0  0  0  0  0  0  0  0  0  0  0  0
   41.6869   22.0735   35.9120 H   0  0  0  0  0  0  0  0  0  0  0  0
   40.4099   23.7399   37.2791 H   0  0  0  0  0  0  0  0  0  0  0  0
   38.4543   21.9354   33.1535 H   0  0  0  0  0  0  0  0  0  0  0  0
   38.0904   25.2601   38.8460 H   0  0  0  0  0  0  0  0  0  0  0  0
   36.9060   23.9687   38.4510 H   0  0  0  0  0  0  0  0  0  0  0  0
   38.6650   23.6046   38.4510 H   0  0  0  0  0  0  0  0  0  0  0  0
   37.8125   26.8526   37.1012 H   0  0  0  0  0  0  0  0  0  0  0  0
   39.5136   26.1822   37.0841 H   0  0  0  0  0  0  0  0  0  0  0  0
   40.4475   27.0161   32.5566 H   0  0  0  0  0  0  0  0  0  0  0  0
   37.8732   27.7070   32.2790 H   0  0  0  0  0  0  0  0  0  0  0  0
   36.0511   27.0673   35.5793 H   0  0  0  0  0  0  0  0  0  0  0  0
  1  8  1  0
  2  3  2  0
  4  3  1  0
  4  1  1  0
  5  4  2  0
  6  7  2  0
  6  5  1  0
  7  2  1  0
  9  1  1  0
 10  9  1  0
 11 10  1  0
 12 11  2  0
 13 12  1  0
 13 14  2  0
 14 15  1  0
 14 10  1  0
  1 16  1  6
  2 17  1  0
  3 18  1  0
  6 19  1  0
  8 20  1  0
  8 21  1  0
  8 22  1  0
  9 23  1  0
  9 24  1  0
 12 25  1  0
 13 26  1  0
 15 27  1  0
M  ISO  8  16   8  17  14  18  14  19  14  20   8  21   8  22   8  23   8
M  ISO  4  24   8  25  14  26  14  27   3
M  END
>  <minimizedAffinity>  (1) 
-3.35804868

>  <minimizedRMSD>  (1) 
0.61765343

$$$$
