
     RDKit          3D

 27 28  0  0  1  0  0  0  0  0999 V2000
   38.0810   24.6580   36.2120 C   0  0  1  0  0  0  0  0  0  0  0  0
   41.1160   22.4470   35.7720 C   0  0  0  0  0  0  0  0  0  0  0  0
   40.1730   23.3190   36.3550 C   0  0  0  0  0  0  0  0  0  0  0  0
   39.0510   23.7500   35.5890 C   0  0  0  0  0  0  0  0  0  0  0  0
   38.9190   23.3020   34.3030 N   0  0  0  0  0  0  0  0  0  0  0  0
   39.8660   22.4540   33.7850 C   0  0  0  0  0  0  0  0  0  0  0  0
   40.9530   22.0280   34.5050 N   0  0  0  0  0  0  0  0  0  0  0  0
   37.6180   24.2090   37.5610 C   0  0  0  0  0  0  0  0  0  0  0  0
   38.5870   26.0960   36.2650 C   0  0  0  0  0  0  0  0  0  0  0  0
   39.2690   26.5050   35.0750 N   0  0  0  0  0  0  0  0  0  0  0  0
   40.5650   26.6130   34.9780 N   0  0  0  0  0  0  0  0  0  0  0  0
   40.9460   27.0180   33.7420 C   0  0  0  0  0  0  0  0  0  0  0  0
   39.7850   27.1710   33.0180 C   0  0  0  0  0  0  0  0  0  0  0  0
   38.7600   26.8400   33.8860 C   0  0  0  0  0  0  0  0  0  0  0  0
   37.0150   26.8680   33.4570 S   0  0  0  0  0  0  0  0  0  0  0  0
   37.2014   24.6275   35.5522 H   0  0  0  0  0  0  0  0  0  0  0  0
   41.9858   22.1094   36.3547 H   0  0  0  0  0  0  0  0  0  0  0  0
   40.3024   23.6634   37.3917 H   0  0  0  0  0  0  0  0  0  0  0  0
   39.7483   22.1015   32.7497 H   0  0  0  0  0  0  0  0  0  0  0  0
   38.1761   24.7503   38.3391 H   0  0  0  0  0  0  0  0  0  0  0  0
   36.5434   24.4180   37.6681 H   0  0  0  0  0  0  0  0  0  0  0  0
   37.7939   23.1285   37.6681 H   0  0  0  0  0  0  0  0  0  0  0  0
   37.7258   26.7627   36.4195 H   0  0  0  0  0  0  0  0  0  0  0  0
   39.3123   26.1538   37.0900 H   0  0  0  0  0  0  0  0  0  0  0  0
   41.9736   27.1895   33.3891 H   0  0  0  0  0  0  0  0  0  0  0  0
   39.6920   27.4896   31.9693 H   0  0  0  0  0  0  0  0  0  0  0  0
   36.2633   26.8801   34.6023 H   0  0  0  0  0  0  0  0  0  0  0  0
  1  9  1  0
  1  8  1  0
  2  3  2  0
  4  1  1  0
  4  3  1  0
  5  4  2  0
  6  5  1  0
  6  7  2  0
  7  2  1  0
 10  9  1  0
 11 10  1  0
 12 11  2  0
 13 12  1  0
 13 14  2  0
 14 10  1  0
 15 14  1  0
  1 16  1  6
  2 17  1  0
  3 18  1  0
  6 19  1  0
  8 20  1  0
  8 21  1  0
  8 22  1  0
  9 23  1  0
  9 24  1  0
 12 25  1  0
 13 26  1  0
 15 27  1  0
M  ISO  8  16   8  17  14  18  14  19  14  20   8  21   8  22   8  23   8
M  ISO  4  24   8  25  14  26  14  27  11
M  END
>  <minimizedAffinity>  (1) 
-3.33219337

>  <minimizedRMSD>  (1) 
1.49746144

$$$$
