
     RDKit          3D

 53 57  0  0  1  0  0  0  0  0999 V2000
   39.0370   24.4530   35.6020 C   0  0  0  0  0  0  0  0  0  0  0  0
   39.9690   25.3820   35.0420 N   0  0  0  0  0  0  0  0  0  0  0  0
   41.2540   25.2030   35.0210 N   0  0  0  0  0  0  0  0  0  0  0  0
   41.8960   26.2420   34.4290 C   0  0  0  0  0  0  0  0  0  0  0  0
   40.9280   27.1230   34.0610 C   0  0  0  0  0  0  0  0  0  0  0  0
   39.7180   26.5610   34.4570 C   0  0  0  0  0  0  0  0  0  0  0  0
   38.4060   27.1330   34.2780 N   0  0  0  0  0  0  0  0  0  0  0  0
   37.5680   27.7480   35.1280 C   0  0  0  0  0  0  0  0  0  0  0  0
   36.4680   28.0920   34.4500 N   0  0  0  0  0  0  0  0  0  0  0  0
   36.6220   27.6870   33.1640 C   0  0  0  0  0  0  0  0  0  0  0  0
   35.7140   27.8510   32.1390 C   0  0  0  0  0  0  0  0  0  0  0  0
   36.1280   27.3460   30.9360 N   0  0  0  0  0  0  0  0  0  0  0  0
   37.3390   26.7420   30.8100 C   0  0  0  0  0  0  0  0  0  0  0  0
   38.2080   26.5960   31.8300 N   0  0  0  0  0  0  0  0  0  0  0  0
   37.8370   27.0810   33.0390 C   0  0  0  0  0  0  0  0  0  0  0  0
   39.1550   23.0570   35.0250 C   0  0  1  0  0  0  0  0  0  0  0  0
   41.4700   21.4540   37.5490 C   0  0  0  0  0  0  0  0  0  0  0  0
   40.3960   22.1640   36.9870 C   0  0  0  0  0  0  0  0  0  0  0  0
   40.2850   22.3150   35.5670 C   0  0  0  0  0  0  0  0  0  0  0  0
   41.2480   21.7510   34.8110 N   0  0  0  0  0  0  0  0  0  0  0  0
   42.2840   21.0650   35.3770 C   0  0  0  0  0  0  0  0  0  0  0  0
   42.4000   20.9150   36.7370 N   0  0  0  0  0  0  0  0  0  0  0  0
   37.8380   22.3340   35.1550 C   0  0  0  0  0  0  0  0  0  0  0  0
   37.4780   21.7590   33.8220 C   0  0  0  0  0  0  0  0  0  0  0  0
   36.1370   21.0120   33.8780 C   0  0  0  0  0  0  0  0  0  0  0  0
   36.0740   20.2740   32.5590 C   0  0  0  0  0  0  0  0  0  0  0  0
   35.7680   21.2730   31.4830 C   0  0  0  0  0  0  0  0  0  0  0  0
   36.0760   22.6550   31.9520 C   0  0  0  0  0  0  0  0  0  0  0  0
   37.3430   22.7920   32.7450 C   0  0  0  0  0  0  0  0  0  0  0  0
   39.2101   24.3972   36.6869 H   0  0  0  0  0  0  0  0  0  0  0  0
   38.0288   24.8196   35.3589 H   0  0  0  0  0  0  0  0  0  0  0  0
   42.9802   26.3496   34.2776 H   0  0  0  0  0  0  0  0  0  0  0  0
   41.0724   28.0874   33.5519 H   0  0  0  0  0  0  0  0  0  0  0  0
   37.7539   27.9360   36.1957 H   0  0  0  0  0  0  0  0  0  0  0  0
   34.7409   28.3451   32.2764 H   0  0  0  0  0  0  0  0  0  0  0  0
   37.6254   26.3513   29.8224 H   0  0  0  0  0  0  0  0  0  0  0  0
   39.3793   23.1434   33.9516 H   0  0  0  0  0  0  0  0  0  0  0  0
   41.5507   21.3394   38.6400 H   0  0  0  0  0  0  0  0  0  0  0  0
   39.6332   22.6081   37.6435 H   0  0  0  0  0  0  0  0  0  0  0  0
   43.0487   20.6191   34.7239 H   0  0  0  0  0  0  0  0  0  0  0  0
   37.9302   21.5254   35.8951 H   0  0  0  0  0  0  0  0  0  0  0  0
   37.0560   23.0326   35.4875 H   0  0  0  0  0  0  0  0  0  0  0  0
   38.3107   21.0818   33.5812 H   0  0  0  0  0  0  0  0  0  0  0  0
   36.1172   20.3068   34.7220 H   0  0  0  0  0  0  0  0  0  0  0  0
   35.2818   21.6877   34.0264 H   0  0  0  0  0  0  0  0  0  0  0  0
   37.0407   19.7904   32.3553 H   0  0  0  0  0  0  0  0  0  0  0  0
   35.2953   19.4977   32.5923 H   0  0  0  0  0  0  0  0  0  0  0  0
   34.7015   21.2085   31.2215 H   0  0  0  0  0  0  0  0  0  0  0  0
   36.3879   21.0492   30.6023 H   0  0  0  0  0  0  0  0  0  0  0  0
   36.1556   23.3048   31.0680 H   0  0  0  0  0  0  0  0  0  0  0  0
   35.2581   22.9367   32.6314 H   0  0  0  0  0  0  0  0  0  0  0  0
   38.1974   22.6958   32.0589 H   0  0  0  0  0  0  0  0  0  0  0  0
   37.3173   23.7759   33.2362 H   0  0  0  0  0  0  0  0  0  0  0  0
  2  1  1  0
  3  2  1  0
  4  3  2  0
  5  4  1  0
  5  6  2  0
  6  2  1  0
  7  6  1  0
  7  8  1  0
  9  8  2  0
 10  9  1  0
 11 10  2  0
 12 11  1  0
 13 12  2  0
 13 14  1  0
 14 15  2  0
 15 10  1  0
 15  7  1  0
 16 23  1  0
 16 19  1  0
 16  1  1  0
 18 17  2  0
 19 18  1  0
 20 21  1  0
 20 19  2  0
 21 22  2  0
 22 17  1  0
 24 25  1  0
 24 23  1  0
 26 25  1  0
 27 28  1  0
 27 26  1  0
 28 29  1  0
 29 24  1  0
  1 30  1  0
  1 31  1  0
  4 32  1  0
  5 33  1  0
  8 34  1  0
 11 35  1  0
 13 36  1  0
 16 37  1  6
 17 38  1  0
 18 39  1  0
 21 40  1  0
 23 41  1  0
 23 42  1  0
 24 43  1  0
 25 44  1  0
 25 45  1  0
 26 46  1  0
 26 47  1  0
 27 48  1  0
 27 49  1  0
 28 50  1  0
 28 51  1  0
 29 52  1  0
 29 53  1  0
M  ISO  8  30   8  31   8  32  14  33  14  34  14  35  14  36  14  37   8
M  ISO  8  38  14  39  14  40  14  41   8  42   8  43  13  44  13  45  13
M  ISO  8  46  13  47  13  48  13  49  13  50  13  51  13  52  13  53  13
M  END
>  <minimizedAffinity>  (1) 
-5.75334644

>  <minimizedRMSD>  (1) 
1.37536657

$$$$
