
     RDKit          3D

 45 49  0  0  1  0  0  0  0  0999 V2000
   39.5830   23.9870   33.5020 C   0  0  0  0  0  0  0  0  0  0  0  0
   39.6550   24.4910   32.1570 N   0  0  0  0  0  0  0  0  0  0  0  0
   40.6960   25.0820   31.6610 N   0  0  0  0  0  0  0  0  0  0  0  0
   40.4890   25.4560   30.3720 C   0  0  0  0  0  0  0  0  0  0  0  0
   39.2260   25.0610   30.0600 C   0  0  0  0  0  0  0  0  0  0  0  0
   38.7190   24.4560   31.1950 C   0  0  0  0  0  0  0  0  0  0  0  0
   37.4010   23.8750   31.3500 N   0  0  0  0  0  0  0  0  0  0  0  0
   36.2100   24.4140   31.7030 C   0  0  0  0  0  0  0  0  0  0  0  0
   35.2990   23.4210   31.6890 N   0  0  0  0  0  0  0  0  0  0  0  0
   35.9230   22.2870   31.3330 C   0  0  0  0  0  0  0  0  0  0  0  0
   35.3400   21.0380   31.2000 C   0  0  0  0  0  0  0  0  0  0  0  0
   36.2090   20.0480   30.8220 N   0  0  0  0  0  0  0  0  0  0  0  0
   37.5150   20.3160   30.6070 C   0  0  0  0  0  0  0  0  0  0  0  0
   38.0700   21.5360   30.7400 N   0  0  0  0  0  0  0  0  0  0  0  0
   37.2450   22.5520   31.1140 C   0  0  0  0  0  0  0  0  0  0  0  0
   38.7470   24.8290   34.4370 C   0  0  1  0  0  0  0  0  0  0  0  0
   39.8110   22.8620   37.4790 C   0  0  0  0  0  0  0  0  0  0  0  0
   39.7590   23.4020   36.1830 C   0  0  0  0  0  0  0  0  0  0  0  0
   38.7400   24.3050   35.8050 C   0  0  0  0  0  0  0  0  0  0  0  0
   37.8090   24.6310   36.7470 N   0  0  0  0  0  0  0  0  0  0  0  0
   37.8830   24.0910   37.9990 C   0  0  0  0  0  0  0  0  0  0  0  0
   38.8670   23.2160   38.3730 N   0  0  0  0  0  0  0  0  0  0  0  0
   39.0650   26.2750   34.3490 C   0  0  0  0  0  0  0  0  0  0  0  0
   37.9690   27.1780   33.9930 C   0  0  0  0  0  0  0  0  0  0  0  0
   36.9590   27.7410   34.7430 C   0  0  0  0  0  0  0  0  0  0  0  0
   36.0260   28.5660   34.1490 C   0  0  0  0  0  0  0  0  0  0  0  0
   36.0590   28.8530   32.8340 N   0  0  0  0  0  0  0  0  0  0  0  0
   37.0470   28.3000   32.1080 C   0  0  0  0  0  0  0  0  0  0  0  0
   37.9720   27.4910   32.6620 N   0  0  0  0  0  0  0  0  0  0  0  0
   40.6049   23.9351   33.9057 H   0  0  0  0  0  0  0  0  0  0  0  0
   39.0960   23.0024   33.4440 H   0  0  0  0  0  0  0  0  0  0  0  0
   41.2005   25.9745   29.7126 H   0  0  0  0  0  0  0  0  0  0  0  0
   38.7108   25.1958   29.0975 H   0  0  0  0  0  0  0  0  0  0  0  0
   36.0210   25.4680   31.9548 H   0  0  0  0  0  0  0  0  0  0  0  0
   34.2706   20.8560   31.3822 H   0  0  0  0  0  0  0  0  0  0  0  0
   38.1677   19.4842   30.3036 H   0  0  0  0  0  0  0  0  0  0  0  0
   37.7068   24.7474   34.0886 H   0  0  0  0  0  0  0  0  0  0  0  0
   40.6105   22.1606   37.7597 H   0  0  0  0  0  0  0  0  0  0  0  0
   40.5263   23.1163   35.4484 H   0  0  0  0  0  0  0  0  0  0  0  0
   37.1189   24.3712   38.7390 H   0  0  0  0  0  0  0  0  0  0  0  0
   39.4487   26.5903   35.3305 H   0  0  0  0  0  0  0  0  0  0  0  0
   39.7835   26.3586   33.5203 H   0  0  0  0  0  0  0  0  0  0  0  0
   36.8963   27.5315   35.8210 H   0  0  0  0  0  0  0  0  0  0  0  0
   35.2299   29.0031   34.7696 H   0  0  0  0  0  0  0  0  0  0  0  0
   37.1018   28.5142   31.0305 H   0  0  0  0  0  0  0  0  0  0  0  0
  1 16  1  0
  2  1  1  0
  3  2  1  0
  4  3  2  0
  5  4  1  0
  5  6  2  0
  6  7  1  0
  6  2  1  0
  7  8  1  0
  9  8  2  0
 10  9  1  0
 11 10  2  0
 12 11  1  0
 13 14  1  0
 13 12  2  0
 14 15  2  0
 15 10  1  0
 15  7  1  0
 16 19  1  0
 17 22  2  0
 18 17  1  0
 19 18  2  0
 19 20  1  0
 20 21  2  0
 21 22  1  0
 23 16  1  0
 24 23  1  0
 24 25  2  0
 26 25  1  0
 27 26  2  0
 28 29  2  0
 28 27  1  0
 29 24  1  0
  1 30  1  0
  1 31  1  0
  4 32  1  0
  5 33  1  0
  8 34  1  0
 11 35  1  0
 13 36  1  0
 16 37  1  6
 17 38  1  0
 18 39  1  0
 21 40  1  0
 23 41  1  0
 23 42  1  0
 25 43  1  0
 26 44  1  0
 28 45  1  0
M  ISO  8  30   8  31   8  32  14  33  14  34  14  35  14  36  14  37   8
M  ISO  8  38  14  39  14  40  14  41   8  42   8  43  14  44  14  45  14
M  END
>  <minimizedAffinity>  (1) 
-5.53782511

>  <minimizedRMSD>  (1) 
4.69524908

$$$$
