
     RDKit          3D

 26 28  0  0  0  0  0  0  0  0999 V2000
   39.6170   23.9330   36.0240 C   0  0  0  0  0  0  0  0  0  0  0  0
   38.5770   24.4360   36.8210 C   0  0  0  0  0  0  0  0  0  0  0  0
   38.0810   25.7020   36.5190 C   0  0  0  0  0  0  0  0  0  0  0  0
   38.6210   26.3870   35.4730 N   0  0  0  0  0  0  0  0  0  0  0  0
   39.6230   25.8680   34.7260 C   0  0  0  0  0  0  0  0  0  0  0  0
   40.1090   24.6510   35.0090 N   0  0  0  0  0  0  0  0  0  0  0  0
   40.2090   26.5390   33.6400 N   0  0  0  0  0  0  0  0  0  0  0  0
   41.4220   27.0790   33.5450 C   0  0  0  0  0  0  0  0  0  0  0  0
   41.5700   27.6170   32.3390 N   0  0  0  0  0  0  0  0  0  0  0  0
   40.4550   27.4370   31.6260 C   0  0  0  0  0  0  0  0  0  0  0  0
   40.1320   27.8130   30.3350 C   0  0  0  0  0  0  0  0  0  0  0  0
   38.9080   27.4880   29.8760 N   0  0  0  0  0  0  0  0  0  0  0  0
   38.0660   26.8150   30.6980 C   0  0  0  0  0  0  0  0  0  0  0  0
   38.3730   26.4460   31.9560 N   0  0  0  0  0  0  0  0  0  0  0  0
   39.5810   26.7440   32.4640 C   0  0  0  0  0  0  0  0  0  0  0  0
   37.9870   23.6840   37.9680 C   0  0  0  0  0  0  0  0  0  0  0  0
   39.0310   23.0160   38.5830 F   0  0  0  0  0  0  0  0  0  0  0  0
   37.0560   22.7790   37.5800 F   0  0  0  0  0  0  0  0  0  0  0  0
   37.5010   24.5640   38.9430 F   0  0  0  0  0  0  0  0  0  0  0  0
   41.1110   28.5170   29.5780 N   0  0  0  0  0  0  0  0  0  0  0  0
   40.0321   22.9368   36.2368 H   0  0  0  0  0  0  0  0  0  0  0  0
   37.2673   26.1410   37.1150 H   0  0  0  0  0  0  0  0  0  0  0  0
   42.1824   27.0798   34.3399 H   0  0  0  0  0  0  0  0  0  0  0  0
   37.0692   26.5539   30.3131 H   0  0  0  0  0  0  0  0  0  0  0  0
   40.9023   28.8115   28.6133 H   0  0  0  0  0  0  0  0  0  0  0  0
   42.0280   28.7318   29.9950 H   0  0  0  0  0  0  0  0  0  0  0  0
  1  2  2  0
  2 16  1  0
  3  2  1  0
  4  3  2  0
  5  6  2  0
  5  4  1  0
  6  1  1  0
  7  5  1  0
  8  7  1  0
  9  8  2  0
 10  9  1  0
 10 15  2  0
 11 10  1  0
 12 11  2  0
 12 13  1  0
 13 14  2  0
 14 15  1  0
 15  7  1  0
 16 17  1  0
 16 19  1  0
 18 16  1  0
 20 11  1  0
  1 21  1  0
  3 22  1  0
  8 23  1  0
 13 24  1  0
 20 25  1  0
 20 26  1  0
M  ISO  4  21  14  22  14  23  14  24  14
M  END
>  <minimizedAffinity>  (1) 
-4.84291792

>  <minimizedRMSD>  (1) 
5.86244011

$$$$
