
     RDKit          3D

 43 47  0  0  1  0  0  0  0  0999 V2000
   39.1760   24.4930   35.7060 C   0  0  0  0  0  0  0  0  0  0  0  0
   40.0670   25.4040   35.0730 N   0  0  0  0  0  0  0  0  0  0  0  0
   41.3490   25.2400   35.0150 N   0  0  0  0  0  0  0  0  0  0  0  0
   41.9690   26.2550   34.3530 C   0  0  0  0  0  0  0  0  0  0  0  0
   40.9740   27.1090   33.9780 C   0  0  0  0  0  0  0  0  0  0  0  0
   39.7790   26.5500   34.4450 C   0  0  0  0  0  0  0  0  0  0  0  0
   38.4610   27.1010   34.2840 N   0  0  0  0  0  0  0  0  0  0  0  0
   37.6080   27.6630   35.1720 C   0  0  0  0  0  0  0  0  0  0  0  0
   36.4980   28.0130   34.4900 N   0  0  0  0  0  0  0  0  0  0  0  0
   36.6670   27.6710   33.2070 C   0  0  0  0  0  0  0  0  0  0  0  0
   35.7550   27.8590   32.1730 C   0  0  0  0  0  0  0  0  0  0  0  0
   36.1890   27.4120   30.9500 N   0  0  0  0  0  0  0  0  0  0  0  0
   37.4060   26.8430   30.8050 C   0  0  0  0  0  0  0  0  0  0  0  0
   38.2750   26.6680   31.8180 N   0  0  0  0  0  0  0  0  0  0  0  0
   37.8890   27.0970   33.0470 C   0  0  0  0  0  0  0  0  0  0  0  0
   39.2340   23.0820   35.1610 C   0  0  1  0  0  0  0  0  0  0  0  0
   41.5640   21.4270   37.6360 C   0  0  0  0  0  0  0  0  0  0  0  0
   40.4920   22.1510   37.0910 C   0  0  0  0  0  0  0  0  0  0  0  0
   40.3750   22.3210   35.6740 C   0  0  0  0  0  0  0  0  0  0  0  0
   41.3200   21.7670   34.8810 N   0  0  0  0  0  0  0  0  0  0  0  0
   42.3600   21.0630   35.4560 C   0  0  0  0  0  0  0  0  0  0  0  0
   42.4880   20.8910   36.7990 N   0  0  0  0  0  0  0  0  0  0  0  0
   37.9110   22.4010   35.3480 C   0  0  0  0  0  0  0  0  0  0  0  0
   37.2730   21.9690   34.0770 C   0  0  0  0  0  0  0  0  0  0  0  0
   37.6970   22.4730   32.7700 C   0  0  0  0  0  0  0  0  0  0  0  0
   36.5860   21.6070   31.6710 S   0  0  0  0  0  0  0  0  0  0  0  0
   35.7210   20.7040   33.0820 C   0  0  0  0  0  0  0  0  0  0  0  0
   36.2880   21.0980   34.1170 N   0  0  0  0  0  0  0  0  0  0  0  0
   39.4228   24.4585   36.7774 H   0  0  0  0  0  0  0  0  0  0  0  0
   38.1584   24.8630   35.5124 H   0  0  0  0  0  0  0  0  0  0  0  0
   43.0466   26.3636   34.1608 H   0  0  0  0  0  0  0  0  0  0  0  0
   41.0880   28.0499   33.4196 H   0  0  0  0  0  0  0  0  0  0  0  0
   37.7864   27.8073   36.2478 H   0  0  0  0  0  0  0  0  0  0  0  0
   34.7704   28.3259   32.3229 H   0  0  0  0  0  0  0  0  0  0  0  0
   37.7036   26.5034   29.8019 H   0  0  0  0  0  0  0  0  0  0  0  0
   39.4173   23.1360   34.0777 H   0  0  0  0  0  0  0  0  0  0  0  0
   41.6537   21.2962   38.7245 H   0  0  0  0  0  0  0  0  0  0  0  0
   39.7359   22.5912   37.7577 H   0  0  0  0  0  0  0  0  0  0  0  0
   43.1209   20.6204   34.7963 H   0  0  0  0  0  0  0  0  0  0  0  0
   38.0644   21.5127   35.9784 H   0  0  0  0  0  0  0  0  0  0  0  0
   37.2358   23.1352   35.8117 H   0  0  0  0  0  0  0  0  0  0  0  0
   38.4908   23.1950   32.5280 H   0  0  0  0  0  0  0  0  0  0  0  0
   34.8931   19.9837   33.0064 H   0  0  0  0  0  0  0  0  0  0  0  0
  2  1  1  0
  3  2  1  0
  4  3  2  0
  5  4  1  0
  5  6  2  0
  6  2  1  0
  7  6  1  0
  7  8  1  0
  9  8  2  0
 10  9  1  0
 11 10  2  0
 12 11  1  0
 13 12  2  0
 13 14  1  0
 14 15  2  0
 15 10  1  0
 15  7  1  0
 16 23  1  0
 16 19  1  0
 16  1  1  0
 18 17  2  0
 19 18  1  0
 20 21  1  0
 20 19  2  0
 21 22  2  0
 22 17  1  0
 24 28  1  0
 24 23  1  0
 25 24  2  0
 26 25  1  0
 26 27  1  0
 27 28  2  0
  1 29  1  0
  1 30  1  0
  4 31  1  0
  5 32  1  0
  8 33  1  0
 11 34  1  0
 13 35  1  0
 16 36  1  6
 17 37  1  0
 18 38  1  0
 21 39  1  0
 23 40  1  0
 23 41  1  0
 25 42  1  0
 27 43  1  0
M  ISO  8  29   8  30   8  31  14  32  14  33  14  34  14  35  14  36   8
M  ISO  7  37  14  38  14  39  14  40   8  41   8  42  14  43  14
M  END
>  <minimizedAffinity>  (1) 
-5.27919149

>  <minimizedRMSD>  (1) 
1.04311252

$$$$
