
     RDKit          3D

 42 46  0  0  1  0  0  0  0  0999 V2000
   39.1880   24.5340   35.6570 C   0  0  0  0  0  0  0  0  0  0  0  0
   40.0750   25.4580   35.0360 N   0  0  0  0  0  0  0  0  0  0  0  0
   41.3680   25.3050   34.9770 N   0  0  0  0  0  0  0  0  0  0  0  0
   41.9720   26.3320   34.3280 C   0  0  0  0  0  0  0  0  0  0  0  0
   40.9690   27.1820   33.9630 C   0  0  0  0  0  0  0  0  0  0  0  0
   39.7760   26.6090   34.4200 C   0  0  0  0  0  0  0  0  0  0  0  0
   38.4550   27.1510   34.2650 N   0  0  0  0  0  0  0  0  0  0  0  0
   37.5890   27.6790   35.1600 C   0  0  0  0  0  0  0  0  0  0  0  0
   36.4870   28.0350   34.4910 N   0  0  0  0  0  0  0  0  0  0  0  0
   36.6630   27.7320   33.1850 C   0  0  0  0  0  0  0  0  0  0  0  0
   35.7660   27.9370   32.1490 C   0  0  0  0  0  0  0  0  0  0  0  0
   36.2020   27.5380   30.9340 N   0  0  0  0  0  0  0  0  0  0  0  0
   37.4320   26.9800   30.7710 C   0  0  0  0  0  0  0  0  0  0  0  0
   38.3030   26.7820   31.7810 N   0  0  0  0  0  0  0  0  0  0  0  0
   37.8990   27.1720   33.0190 C   0  0  0  0  0  0  0  0  0  0  0  0
   39.2620   23.1300   35.0970 C   0  0  1  0  0  0  0  0  0  0  0  0
   41.4970   21.4380   37.6210 C   0  0  0  0  0  0  0  0  0  0  0  0
   40.4500   22.1770   37.0480 C   0  0  0  0  0  0  0  0  0  0  0  0
   40.3740   22.3540   35.6290 C   0  0  0  0  0  0  0  0  0  0  0  0
   41.3310   21.7930   34.8680 N   0  0  0  0  0  0  0  0  0  0  0  0
   42.3470   21.0730   35.4630 C   0  0  0  0  0  0  0  0  0  0  0  0
   42.4370   20.8930   36.8100 N   0  0  0  0  0  0  0  0  0  0  0  0
   37.9200   22.4530   35.2140 C   0  0  0  0  0  0  0  0  0  0  0  0
   37.6090   21.7140   33.9500 C   0  0  0  0  0  0  0  0  0  0  0  0
   38.3000   21.4500   32.8370 N   0  0  0  0  0  0  0  0  0  0  0  0
   37.5220   20.7490   32.0390 O   0  0  0  0  0  0  0  0  0  0  0  0
   36.3570   20.5650   32.6200 C   0  0  0  0  0  0  0  0  0  0  0  0
   36.3700   21.1610   33.8360 N   0  0  0  0  0  0  0  0  0  0  0  0
   39.4302   24.4908   36.7291 H   0  0  0  0  0  0  0  0  0  0  0  0
   38.1678   24.8974   35.4645 H   0  0  0  0  0  0  0  0  0  0  0  0
   43.0482   26.4542   34.1358 H   0  0  0  0  0  0  0  0  0  0  0  0
   41.0765   28.1309   33.4170 H   0  0  0  0  0  0  0  0  0  0  0  0
   37.7599   27.7945   36.2405 H   0  0  0  0  0  0  0  0  0  0  0  0
   34.7755   28.3896   32.3038 H   0  0  0  0  0  0  0  0  0  0  0  0
   37.7328   26.6731   29.7584 H   0  0  0  0  0  0  0  0  0  0  0  0
   39.4938   23.2013   34.0241 H   0  0  0  0  0  0  0  0  0  0  0  0
   41.5539   21.3032   38.7112 H   0  0  0  0  0  0  0  0  0  0  0  0
   39.6809   22.6242   37.6949 H   0  0  0  0  0  0  0  0  0  0  0  0
   43.1188   20.6243   34.8204 H   0  0  0  0  0  0  0  0  0  0  0  0
   37.9414   21.7441   36.0549 H   0  0  0  0  0  0  0  0  0  0  0  0
   37.1450   23.2140   35.3881 H   0  0  0  0  0  0  0  0  0  0  0  0
   35.5080   20.0152   32.1877 H   0  0  0  0  0  0  0  0  0  0  0  0
  2  1  1  0
  3  2  1  0
  4  3  2  0
  5  4  1  0
  5  6  2  0
  6  2  1  0
  7  6  1  0
  7  8  1  0
  9  8  2  0
 10  9  1  0
 11 10  2  0
 12 11  1  0
 13 12  2  0
 13 14  1  0
 14 15  2  0
 15 10  1  0
 15  7  1  0
 16 23  1  0
 16 19  1  0
 16  1  1  0
 18 17  2  0
 19 18  1  0
 20 21  1  0
 20 19  2  0
 21 22  2  0
 22 17  1  0
 24 23  1  0
 25 24  2  0
 26 27  1  0
 26 25  1  0
 27 28  2  0
 28 24  1  0
  1 29  1  0
  1 30  1  0
  4 31  1  0
  5 32  1  0
  8 33  1  0
 11 34  1  0
 13 35  1  0
 16 36  1  6
 17 37  1  0
 18 38  1  0
 21 39  1  0
 23 40  1  0
 23 41  1  0
 27 42  1  0
M  ISO  8  29   8  30   8  31  14  32  14  33  14  34  14  35  14  36   8
M  ISO  6  37  14  38  14  39  14  40   8  41   8  42  14
M  END
>  <minimizedAffinity>  (1) 
-5.18723154

>  <minimizedRMSD>  (1) 
0.796482742

$$$$
