
     RDKit          3D

 44 48  0  0  1  0  0  0  0  0999 V2000
   39.2490   24.4380   35.4970 C   0  0  0  0  0  0  0  0  0  0  0  0
   40.1370   25.4200   34.9530 N   0  0  0  0  0  0  0  0  0  0  0  0
   41.4250   25.2940   34.9130 N   0  0  0  0  0  0  0  0  0  0  0  0
   42.0160   26.3770   34.3440 C   0  0  0  0  0  0  0  0  0  0  0  0
   41.0040   27.2260   34.0130 C   0  0  0  0  0  0  0  0  0  0  0  0
   39.8250   26.6020   34.4060 C   0  0  0  0  0  0  0  0  0  0  0  0
   38.4830   27.1230   34.2580 N   0  0  0  0  0  0  0  0  0  0  0  0
   37.6130   27.6420   35.1500 C   0  0  0  0  0  0  0  0  0  0  0  0
   36.4940   27.9740   34.4730 N   0  0  0  0  0  0  0  0  0  0  0  0
   36.6730   27.6620   33.1820 C   0  0  0  0  0  0  0  0  0  0  0  0
   35.7590   27.8450   32.1550 C   0  0  0  0  0  0  0  0  0  0  0  0
   36.1990   27.4390   30.9310 N   0  0  0  0  0  0  0  0  0  0  0  0
   37.4390   26.9040   30.7750 C   0  0  0  0  0  0  0  0  0  0  0  0
   38.3190   26.7310   31.7780 N   0  0  0  0  0  0  0  0  0  0  0  0
   37.9150   27.1250   33.0190 C   0  0  0  0  0  0  0  0  0  0  0  0
   39.4120   23.0550   34.9060 C   0  0  1  0  0  0  0  0  0  0  0  0
   41.4740   21.4310   37.6250 C   0  0  0  0  0  0  0  0  0  0  0  0
   40.4730   22.1570   36.9560 C   0  0  0  0  0  0  0  0  0  0  0  0
   40.4800   22.2900   35.5370 C   0  0  0  0  0  0  0  0  0  0  0  0
   41.5010   21.6810   34.8650 N   0  0  0  0  0  0  0  0  0  0  0  0
   42.4560   20.9840   35.5430 C   0  0  0  0  0  0  0  0  0  0  0  0
   42.4560   20.8520   36.9030 N   0  0  0  0  0  0  0  0  0  0  0  0
   38.1080   22.3250   34.8320 C   0  0  0  0  0  0  0  0  0  0  0  0
   37.4120   22.4030   33.5490 C   0  0  0  0  0  0  0  0  0  0  0  0
   37.4720   23.2920   32.4850 C   0  0  0  0  0  0  0  0  0  0  0  0
   36.6150   22.9390   31.5110 N   0  0  0  0  0  0  0  0  0  0  0  0
   35.9730   21.8090   31.9170 C   0  0  0  0  0  0  0  0  0  0  0  0
   36.4710   21.5170   33.1320 N   0  0  0  0  0  0  0  0  0  0  0  0
   39.4292   24.3731   36.5802 H   0  0  0  0  0  0  0  0  0  0  0  0
   38.2282   24.7666   35.2521 H   0  0  0  0  0  0  0  0  0  0  0  0
   43.0926   26.5357   34.1834 H   0  0  0  0  0  0  0  0  0  0  0  0
   41.1001   28.2099   33.5306 H   0  0  0  0  0  0  0  0  0  0  0  0
   37.7845   27.7705   36.2289 H   0  0  0  0  0  0  0  0  0  0  0  0
   34.7621   28.2815   32.3152 H   0  0  0  0  0  0  0  0  0  0  0  0
   37.7422   26.5927   29.7645 H   0  0  0  0  0  0  0  0  0  0  0  0
   39.7432   23.1875   33.8655 H   0  0  0  0  0  0  0  0  0  0  0  0
   41.4569   21.3364   38.7208 H   0  0  0  0  0  0  0  0  0  0  0  0
   39.6694   22.6312   37.5386 H   0  0  0  0  0  0  0  0  0  0  0  0
   43.2636   20.5059   34.9692 H   0  0  0  0  0  0  0  0  0  0  0  0
   38.3015   21.2639   35.0480 H   0  0  0  0  0  0  0  0  0  0  0  0
   37.4474   22.8146   35.5627 H   0  0  0  0  0  0  0  0  0  0  0  0
   38.1336   24.1698   32.4439 H   0  0  0  0  0  0  0  0  0  0  0  0
   35.2041   21.2492   31.3643 H   0  0  0  0  0  0  0  0  0  0  0  0
   36.1695   20.7047   33.6890 H   0  0  0  0  0  0  0  0  0  0  0  0
  2  1  1  0
  3  2  1  0
  4  3  2  0
  5  4  1  0
  5  6  2  0
  6  2  1  0
  7  6  1  0
  7  8  1  0
  9  8  2  0
 10  9  1  0
 11 10  2  0
 12 11  1  0
 13 12  2  0
 13 14  1  0
 14 15  2  0
 15 10  1  0
 15  7  1  0
 16  1  1  0
 16 19  1  0
 18 17  2  0
 19 18  1  0
 20 19  2  0
 20 21  1  0
 21 22  2  0
 22 17  1  0
 23 16  1  0
 24 23  1  0
 25 24  2  0
 26 27  2  0
 26 25  1  0
 27 28  1  0
 28 24  1  0
  1 29  1  0
  1 30  1  0
  4 31  1  0
  5 32  1  0
  8 33  1  0
 11 34  1  0
 13 35  1  0
 16 36  1  6
 17 37  1  0
 18 38  1  0
 21 39  1  0
 23 40  1  0
 23 41  1  0
 25 42  1  0
 27 43  1  0
 28 44  1  0
M  ISO  8  29   8  30   8  31  14  32  14  33  14  34  14  35  14  36   8
M  ISO  8  37  14  38  14  39  14  40   8  41   8  42  14  43  14  44   9
M  END
>  <minimizedAffinity>  (1) 
-5.16804314

>  <minimizedRMSD>  (1) 
0.879436374

$$$$
