
     RDKit          3D

 44 48  0  0  1  0  0  0  0  0999 V2000
   39.1950   24.5420   35.6360 C   0  0  0  0  0  0  0  0  0  0  0  0
   40.0830   25.4730   35.0220 N   0  0  0  0  0  0  0  0  0  0  0  0
   41.3740   25.3240   34.9620 N   0  0  0  0  0  0  0  0  0  0  0  0
   41.9740   26.3610   34.3220 C   0  0  0  0  0  0  0  0  0  0  0  0
   40.9700   27.2100   33.9630 C   0  0  0  0  0  0  0  0  0  0  0  0
   39.7830   26.6300   34.4150 C   0  0  0  0  0  0  0  0  0  0  0  0
   38.4540   27.1680   34.2640 N   0  0  0  0  0  0  0  0  0  0  0  0
   37.5940   27.6870   35.1560 C   0  0  0  0  0  0  0  0  0  0  0  0
   36.4820   28.0420   34.4810 N   0  0  0  0  0  0  0  0  0  0  0  0
   36.6590   27.7440   33.1800 C   0  0  0  0  0  0  0  0  0  0  0  0
   35.7540   27.9510   32.1520 C   0  0  0  0  0  0  0  0  0  0  0  0
   36.1970   27.5530   30.9260 N   0  0  0  0  0  0  0  0  0  0  0  0
   37.4300   27.0030   30.7670 C   0  0  0  0  0  0  0  0  0  0  0  0
   38.2980   26.8070   31.7730 N   0  0  0  0  0  0  0  0  0  0  0  0
   37.8960   27.1900   33.0160 C   0  0  0  0  0  0  0  0  0  0  0  0
   39.2770   23.1420   35.0680 C   0  0  1  0  0  0  0  0  0  0  0  0
   41.4840   21.4390   37.6130 C   0  0  0  0  0  0  0  0  0  0  0  0
   40.4410   22.1840   37.0360 C   0  0  0  0  0  0  0  0  0  0  0  0
   40.3860   22.3580   35.6140 C   0  0  0  0  0  0  0  0  0  0  0  0
   41.3470   21.7950   34.8600 N   0  0  0  0  0  0  0  0  0  0  0  0
   42.3520   21.0730   35.4650 C   0  0  0  0  0  0  0  0  0  0  0  0
   42.4250   20.8940   36.8240 N   0  0  0  0  0  0  0  0  0  0  0  0
   37.9380   22.4540   35.1570 C   0  0  0  0  0  0  0  0  0  0  0  0
   37.7500   21.6870   33.8650 C   0  0  0  0  0  0  0  0  0  0  0  0
   36.4120   21.1740   33.4880 C   0  0  0  0  0  0  0  0  0  0  0  0
   37.0400   22.3940   32.7910 C   0  0  0  0  0  0  0  0  0  0  0  0
   39.4330   24.4938   36.7089 H   0  0  0  0  0  0  0  0  0  0  0  0
   38.1741   24.9031   35.4426 H   0  0  0  0  0  0  0  0  0  0  0  0
   43.0499   26.4893   34.1323 H   0  0  0  0  0  0  0  0  0  0  0  0
   41.0742   28.1632   33.4240 H   0  0  0  0  0  0  0  0  0  0  0  0
   37.7652   27.8012   36.2366 H   0  0  0  0  0  0  0  0  0  0  0  0
   34.7619   28.3986   32.3115 H   0  0  0  0  0  0  0  0  0  0  0  0
   37.7349   26.7005   29.7543 H   0  0  0  0  0  0  0  0  0  0  0  0
   39.5212   23.2301   33.9991 H   0  0  0  0  0  0  0  0  0  0  0  0
   41.5295   21.3031   38.7036 H   0  0  0  0  0  0  0  0  0  0  0  0
   39.6670   22.6335   37.6755 H   0  0  0  0  0  0  0  0  0  0  0  0
   43.1294   20.6204   34.8319 H   0  0  0  0  0  0  0  0  0  0  0  0
   37.9242   21.7627   36.0126 H   0  0  0  0  0  0  0  0  0  0  0  0
   37.1289   23.1850   35.3018 H   0  0  0  0  0  0  0  0  0  0  0  0
   38.7263   21.1907   33.9674 H   0  0  0  0  0  0  0  0  0  0  0  0
   36.3147   20.2180   32.9526 H   0  0  0  0  0  0  0  0  0  0  0  0
   35.4697   20.9660   34.0161 H   0  0  0  0  0  0  0  0  0  0  0  0
   37.3916   22.3166   31.7516 H   0  0  0  0  0  0  0  0  0  0  0  0
   36.7344   23.4344   32.6059 H   0  0  0  0  0  0  0  0  0  0  0  0
  2  1  1  0
  3  2  1  0
  4  3  2  0
  5  4  1  0
  5  6  2  0
  6  2  1  0
  7  6  1  0
  7  8  1  0
  9  8  2  0
 10  9  1  0
 11 10  2  0
 12 11  1  0
 13 12  2  0
 13 14  1  0
 14 15  2  0
 15 10  1  0
 15  7  1  0
 16 23  1  0
 16 19  1  0
 16  1  1  0
 18 17  2  0
 19 18  1  0
 20 21  1  0
 20 19  2  0
 21 22  2  0
 22 17  1  0
 24 23  1  0
 25 24  1  0
 26 25  1  0
 26 24  1  0
  1 27  1  0
  1 28  1  0
  4 29  1  0
  5 30  1  0
  8 31  1  0
 11 32  1  0
 13 33  1  0
 16 34  1  6
 17 35  1  0
 18 36  1  0
 21 37  1  0
 23 38  1  0
 23 39  1  0
 24 40  1  0
 25 41  1  0
 25 42  1  0
 26 43  1  0
 26 44  1  0
M  ISO  8  27   8  28   8  29  14  30  14  31  14  32  14  33  14  34   8
M  ISO  8  35  14  36  14  37  14  38   8  39   8  40  13  41  13  42  13
M  ISO  2  43  13  44  13
M  END
>  <minimizedAffinity>  (1) 
-4.94881868

>  <minimizedRMSD>  (1) 
0.512759626

$$$$
