
     RDKit          3D

 24 26  0  0  0  0  0  0  0  0999 V2000
   40.3100   22.4290   37.4970 C   0  0  0  0  0  0  0  0  0  0  0  0
   39.1060   23.1670   37.4150 C   0  0  0  0  0  0  0  0  0  0  0  0
   38.5740   23.4070   36.1590 C   0  0  0  0  0  0  0  0  0  0  0  0
   39.2170   22.9320   35.0550 N   0  0  0  0  0  0  0  0  0  0  0  0
   40.3840   22.2200   35.1810 C   0  0  0  0  0  0  0  0  0  0  0  0
   40.9050   21.9840   36.3790 N   0  0  0  0  0  0  0  0  0  0  0  0
   40.9730   21.7690   33.9460 N   0  0  0  0  0  0  0  0  0  0  0  0
   42.2580   21.7690   33.5230 C   0  0  0  0  0  0  0  0  0  0  0  0
   42.2860   21.2310   32.2740 N   0  0  0  0  0  0  0  0  0  0  0  0
   41.0340   20.9110   31.9490 C   0  0  0  0  0  0  0  0  0  0  0  0
   40.5370   20.3330   30.7800 C   0  0  0  0  0  0  0  0  0  0  0  0
   39.2140   20.1290   30.7480 N   0  0  0  0  0  0  0  0  0  0  0  0
   38.3900   20.4490   31.7570 C   0  0  0  0  0  0  0  0  0  0  0  0
   38.8380   21.0020   32.8820 N   0  0  0  0  0  0  0  0  0  0  0  0
   40.1640   21.2410   32.9960 C   0  0  0  0  0  0  0  0  0  0  0  0
   38.3910   23.6930   38.6120 C   0  0  0  0  0  0  0  0  0  0  0  0
   39.3390   23.8090   39.6300 F   0  0  0  0  0  0  0  0  0  0  0  0
   37.4030   22.8740   39.0390 F   0  0  0  0  0  0  0  0  0  0  0  0
   37.9650   25.0170   38.4040 F   0  0  0  0  0  0  0  0  0  0  0  0
   40.7596   22.2194   38.4788 H   0  0  0  0  0  0  0  0  0  0  0  0
   37.6391   23.9769   36.0531 H   0  0  0  0  0  0  0  0  0  0  0  0
   43.1261   22.1385   34.0887 H   0  0  0  0  0  0  0  0  0  0  0  0
   41.1909   20.0621   29.9380 H   0  0  0  0  0  0  0  0  0  0  0  0
   37.3135   20.2488   31.6518 H   0  0  0  0  0  0  0  0  0  0  0  0
  2  1  2  0
  2 16  1  0
  3  2  1  0
  4  5  1  0
  4  3  2  0
  5  6  2  0
  6  1  1  0
  7  5  1  0
  8  7  1  0
  9  8  2  0
 10  9  1  0
 10 15  2  0
 11 10  1  0
 12 11  2  0
 12 13  1  0
 13 14  2  0
 14 15  1  0
 15  7  1  0
 16 18  1  0
 16 17  1  0
 19 16  1  0
  1 20  1  0
  3 21  1  0
  8 22  1  0
 11 23  1  0
 13 24  1  0
M  ISO  5  20  14  21  14  22  14  23  14  24  14
M  END
>  <minimizedAffinity>  (1) 
-4.47045946

>  <minimizedRMSD>  (1) 
0.674849868

$$$$
