
     RDKit          3D

 29 31  0  0  0  0  0  0  0  0999 V2000
   37.9280   25.5080   35.0190 C   0  0  0  0  0  0  0  0  0  0  0  0
   37.2040   26.4770   35.2850 O   0  0  0  0  0  0  0  0  0  0  0  0
   38.3010   23.8010   38.2030 C   0  0  0  0  0  0  0  0  0  0  0  0
   39.4110   22.9670   38.0320 C   0  0  0  0  0  0  0  0  0  0  0  0
   40.0500   22.9990   36.7700 C   0  0  0  0  0  0  0  0  0  0  0  0
   39.5670   23.8220   35.8010 N   0  0  0  0  0  0  0  0  0  0  0  0
   38.4890   24.6060   36.0280 C   0  0  0  0  0  0  0  0  0  0  0  0
   37.8680   24.5900   37.2190 N   0  0  0  0  0  0  0  0  0  0  0  0
   38.1580   25.3610   33.6570 O   0  0  0  0  0  0  0  0  0  0  0  0
   37.1700   25.0600   32.7300 C   0  0  0  0  0  0  0  0  0  0  0  0
   36.5410   26.1530   32.1630 C   0  0  0  0  0  0  0  0  0  0  0  0
   35.5300   25.9920   31.2180 C   0  0  0  0  0  0  0  0  0  0  0  0
   35.1680   24.7040   30.8570 C   0  0  0  0  0  0  0  0  0  0  0  0
   35.8100   23.6310   31.4360 C   0  0  0  0  0  0  0  0  0  0  0  0
   35.4710   22.3380   31.0950 C   0  0  0  0  0  0  0  0  0  0  0  0
   36.0780   21.1970   31.6400 C   0  0  0  0  0  0  0  0  0  0  0  0
   37.0660   21.4570   32.5650 C   0  0  0  0  0  0  0  0  0  0  0  0
   37.4770   22.7060   32.9720 C   0  0  0  0  0  0  0  0  0  0  0  0
   36.8270   23.7680   32.3870 C   0  0  0  0  0  0  0  0  0  0  0  0
   37.7746   23.8061   39.1689 H   0  0  0  0  0  0  0  0  0  0  0  0
   39.7708   22.3157   38.8421 H   0  0  0  0  0  0  0  0  0  0  0  0
   40.9277   22.3653   36.5748 H   0  0  0  0  0  0  0  0  0  0  0  0
   36.8440   27.1670   32.4631 H   0  0  0  0  0  0  0  0  0  0  0  0
   35.0321   26.8646   30.7701 H   0  0  0  0  0  0  0  0  0  0  0  0
   34.3740   24.5394   30.1137 H   0  0  0  0  0  0  0  0  0  0  0  0
   34.6753   22.1928   30.3495 H   0  0  0  0  0  0  0  0  0  0  0  0
   35.7884   20.1756   31.3520 H   0  0  0  0  0  0  0  0  0  0  0  0
   37.5703   20.5905   33.0177 H   0  0  0  0  0  0  0  0  0  0  0  0
   38.2740   22.8460   33.7171 H   0  0  0  0  0  0  0  0  0  0  0  0
  1  2  2  0
  1  7  1  0
  4  3  2  0
  5  4  1  0
  6  7  1  0
  6  5  2  0
  7  8  2  0
  8  3  1  0
  9  1  1  0
 10  9  1  0
 11 10  2  0
 12 11  1  0
 13 12  2  0
 13 14  1  0
 14 19  2  0
 15 14  1  0
 15 16  2  0
 16 17  1  0
 17 18  2  0
 19 10  1  0
 19 18  1  0
  3 20  1  0
  4 21  1  0
  5 22  1  0
 11 23  1  0
 12 24  1  0
 13 25  1  0
 15 26  1  0
 16 27  1  0
 17 28  1  0
 18 29  1  0
M  ISO  8  20  14  21  14  22  14  23  14  24  14  25  14  26  14  27  14
M  ISO  2  28  14  29  14
M  END
>  <minimizedAffinity>  (1) 
-5.18450689

>  <minimizedRMSD>  (1) 
3.79982352

$$$$
