
     RDKit          3D

 23 24  0  0  0  0  0  0  0  0999 V2000
   38.6040   22.3760   34.5060 C   0  0  0  0  0  0  0  0  0  0  0  0
   39.4700   21.7500   33.8880 O   0  0  0  0  0  0  0  0  0  0  0  0
   39.9660   22.7690   37.8310 C   0  0  0  0  0  0  0  0  0  0  0  0
   38.9090   23.3000   38.5970 C   0  0  0  0  0  0  0  0  0  0  0  0
   37.6920   23.5260   37.9310 C   0  0  0  0  0  0  0  0  0  0  0  0
   37.6000   23.2260   36.6140 N   0  0  0  0  0  0  0  0  0  0  0  0
   38.6620   22.7120   35.9270 C   0  0  0  0  0  0  0  0  0  0  0  0
   39.8420   22.4840   36.5300 N   0  0  0  0  0  0  0  0  0  0  0  0
   37.5380   22.7410   33.6960 O   0  0  0  0  0  0  0  0  0  0  0  0
   36.7170   21.8570   33.0430 C   0  0  0  0  0  0  0  0  0  0  0  0
   36.1190   20.8750   33.8430 C   0  0  0  0  0  0  0  0  0  0  0  0
   35.2710   19.9250   33.3110 C   0  0  0  0  0  0  0  0  0  0  0  0
   34.9840   19.9130   31.9600 C   0  0  0  0  0  0  0  0  0  0  0  0
   35.5730   20.8790   31.1640 C   0  0  0  0  0  0  0  0  0  0  0  0
   36.4150   21.8220   31.7030 C   0  0  0  0  0  0  0  0  0  0  0  0
   40.9319   22.5813   38.3228 H   0  0  0  0  0  0  0  0  0  0  0  0
   39.0307   23.5271   39.6664 H   0  0  0  0  0  0  0  0  0  0  0  0
   36.8280   23.9401   38.4713 H   0  0  0  0  0  0  0  0  0  0  0  0
   36.3306   20.8606   34.9224 H   0  0  0  0  0  0  0  0  0  0  0  0
   34.8188   19.1692   33.9700 H   0  0  0  0  0  0  0  0  0  0  0  0
   34.3082   19.1589   31.5304 H   0  0  0  0  0  0  0  0  0  0  0  0
   35.3644   20.8925   30.0840 H   0  0  0  0  0  0  0  0  0  0  0  0
   36.8630   22.5753   31.0383 H   0  0  0  0  0  0  0  0  0  0  0  0
  1  7  1  0
  2  1  2  0
  3  4  2  0
  5  4  1  0
  6  5  2  0
  7  8  2  0
  7  6  1  0
  8  3  1  0
  9  1  1  0
 10  9  1  0
 10 11  2  0
 12 11  1  0
 13 12  2  0
 14 15  2  0
 14 13  1  0
 15 10  1  0
  3 16  1  0
  4 17  1  0
  5 18  1  0
 11 19  1  0
 12 20  1  0
 13 21  1  0
 14 22  1  0
 15 23  1  0
M  ISO  8  16  14  17  14  18  14  19  14  20  14  21  14  22  14  23  14
M  END
>  <minimizedAffinity>  (1) 
-4.43723726

>  <minimizedRMSD>  (1) 
0.974471867

$$$$
