
     RDKit          3D

 26 27  0  0  0  0  0  0  0  0999 V2000
   39.9870   22.7560   37.7840 C   0  0  0  0  0  0  0  0  0  0  0  0
   39.0520   23.3840   38.6380 C   0  0  0  0  0  0  0  0  0  0  0  0
   37.7230   23.5420   38.1520 C   0  0  0  0  0  0  0  0  0  0  0  0
   37.4360   23.0820   36.8990 N   0  0  0  0  0  0  0  0  0  0  0  0
   38.3960   22.4850   36.1300 C   0  0  0  0  0  0  0  0  0  0  0  0
   39.6420   22.3310   36.5760 N   0  0  0  0  0  0  0  0  0  0  0  0
   38.0910   21.9910   34.7870 C   0  0  0  0  0  0  0  0  0  0  0  0
   38.9540   21.9370   33.8840 O   0  0  0  0  0  0  0  0  0  0  0  0
   36.8290   21.5410   34.3880 O   0  0  0  0  0  0  0  0  0  0  0  0
   36.4640   21.0270   33.1800 C   0  0  0  0  0  0  0  0  0  0  0  0
   35.7670   21.9700   32.2410 C   0  0  0  0  0  0  0  0  0  0  0  0
   35.4830   21.0390   31.0790 C   0  0  0  0  0  0  0  0  0  0  0  0
   35.3680   19.6480   31.6880 C   0  0  0  0  0  0  0  0  0  0  0  0
   35.4850   19.8840   33.2030 C   0  0  0  0  0  0  0  0  0  0  0  0
   41.0224   22.6169   38.1285 H   0  0  0  0  0  0  0  0  0  0  0  0
   39.3399   23.7370   39.6393 H   0  0  0  0  0  0  0  0  0  0  0  0
   36.9488   24.0215   38.7691 H   0  0  0  0  0  0  0  0  0  0  0  0
   37.4719   20.7346   32.8505 H   0  0  0  0  0  0  0  0  0  0  0  0
   34.8398   22.3683   32.6788 H   0  0  0  0  0  0  0  0  0  0  0  0
   36.3452   22.8684   31.9791 H   0  0  0  0  0  0  0  0  0  0  0  0
   36.3062   21.0723   30.3501 H   0  0  0  0  0  0  0  0  0  0  0  0
   34.5666   21.3255   30.5422 H   0  0  0  0  0  0  0  0  0  0  0  0
   34.3982   19.1927   31.4386 H   0  0  0  0  0  0  0  0  0  0  0  0
   36.1379   18.9593   31.3098 H   0  0  0  0  0  0  0  0  0  0  0  0
   35.8870   19.0054   33.7288 H   0  0  0  0  0  0  0  0  0  0  0  0
   34.5387   20.0781   33.7291 H   0  0  0  0  0  0  0  0  0  0  0  0
  1  2  2  0
  3  2  1  0
  4  3  2  0
  5  6  2  0
  5  4  1  0
  6  1  1  0
  7  5  1  0
  8  7  2  0
  9  7  1  0
 10 14  1  0
 10  9  1  0
 11 10  1  0
 12 13  1  0
 12 11  1  0
 13 14  1  0
  1 15  1  0
  2 16  1  0
  3 17  1  0
 10 18  1  0
 11 19  1  0
 11 20  1  0
 12 21  1  0
 12 22  1  0
 13 23  1  0
 13 24  1  0
 14 25  1  0
 14 26  1  0
M  ISO  8  15  14  16  14  17  14  18  13  19  13  20  13  21  13  22  13
M  ISO  4  23  13  24  13  25  13  26  13
M  END
>  <minimizedAffinity>  (1) 
-4.27728939

>  <minimizedRMSD>  (1) 
0.460089296

$$$$
