
     RDKit          3D

 26 27  0  0  0  0  0  0  0  0999 V2000
   38.8330   24.2220   34.4480 C   0  0  0  0  0  0  0  0  0  0  0  0
   39.8420   24.6350   33.8420 O   0  0  0  0  0  0  0  0  0  0  0  0
   39.7490   22.8010   37.6530 C   0  0  0  0  0  0  0  0  0  0  0  0
   38.8380   23.3500   38.5550 C   0  0  0  0  0  0  0  0  0  0  0  0
   37.8790   24.2380   38.0420 C   0  0  0  0  0  0  0  0  0  0  0  0
   37.8850   24.5170   36.7010 N   0  0  0  0  0  0  0  0  0  0  0  0
   38.8090   23.9400   35.8760 C   0  0  0  0  0  0  0  0  0  0  0  0
   39.7380   23.0860   36.3470 N   0  0  0  0  0  0  0  0  0  0  0  0
   37.7590   24.0690   33.6070 O   0  0  0  0  0  0  0  0  0  0  0  0
   36.6850   20.7000   31.5690 C   0  0  0  0  0  0  0  0  0  0  0  0
   37.7270   20.6440   32.4880 C   0  0  0  0  0  0  0  0  0  0  0  0
   38.0530   21.8150   33.1550 C   0  0  0  0  0  0  0  0  0  0  0  0
   37.3630   22.9860   32.9050 C   0  0  0  0  0  0  0  0  0  0  0  0
   36.3570   22.9640   31.9920 C   0  0  0  0  0  0  0  0  0  0  0  0
   35.9710   21.8500   31.2910 C   0  0  0  0  0  0  0  0  0  0  0  0
   36.2810   19.2180   30.7340 S   0  0  0  0  0  0  0  0  0  0  0  0
   36.5910   19.3330   29.2600 O   0  0  0  0  0  0  0  0  0  0  0  0
   37.1550   18.1220   31.2800 O   0  0  0  0  0  0  0  0  0  0  0  0
   40.5097   22.1031   38.0327 H   0  0  0  0  0  0  0  0  0  0  0  0
   38.8695   23.0975   39.6252 H   0  0  0  0  0  0  0  0  0  0  0  0
   37.1350   24.7021   38.7062 H   0  0  0  0  0  0  0  0  0  0  0  0
   38.2714   19.7073   32.6784 H   0  0  0  0  0  0  0  0  0  0  0  0
   38.8701   21.8119   33.8915 H   0  0  0  0  0  0  0  0  0  0  0  0
   35.8157   23.9026   31.8023 H   0  0  0  0  0  0  0  0  0  0  0  0
   35.1504   21.8706   30.5587 H   0  0  0  0  0  0  0  0  0  0  0  0
   34.9469   18.9619   30.9113 H   0  0  0  0  0  0  0  0  0  0  0  0
  1  7  1  0
  2  1  2  0
  3  4  2  0
  5  4  1  0
  6  5  2  0
  7  8  2  0
  7  6  1  0
  8  3  1  0
  9  1  1  0
 10 11  2  0
 11 12  1  0
 13 12  2  0
 13  9  1  0
 14 13  1  0
 15 10  1  0
 15 14  2  0
 16 18  2  0
 16 10  1  0
 17 16  2  0
  3 19  1  0
  4 20  1  0
  5 21  1  0
 11 22  1  0
 12 23  1  0
 14 24  1  0
 15 25  1  0
 16 26  1  0
M  ISO  8  19  14  20  14  21  14  22  14  23  14  24  14  25  14  26  11
M  END
>  <minimizedAffinity>  (1) 
-4.21568632

>  <minimizedRMSD>  (1) 
2.10970068

$$$$
