
     RDKit          3D

 25 26  0  0  1  0  0  0  0  0999 V2000
   39.9210   22.6940   37.6570 C   0  0  0  0  0  0  0  0  0  0  0  0
   39.0990   23.3000   38.6330 C   0  0  0  0  0  0  0  0  0  0  0  0
   37.8140   23.7110   38.2230 C   0  0  0  0  0  0  0  0  0  0  0  0
   37.4380   23.5080   36.9340 N   0  0  0  0  0  0  0  0  0  0  0  0
   38.2750   22.9170   36.0380 C   0  0  0  0  0  0  0  0  0  0  0  0
   39.4990   22.5200   36.4090 N   0  0  0  0  0  0  0  0  0  0  0  0
   37.9040   22.6810   34.6450 C   0  0  0  0  0  0  0  0  0  0  0  0
   38.0800   23.5240   33.7370 O   0  0  0  0  0  0  0  0  0  0  0  0
   37.3140   21.4900   34.2020 O   0  0  0  0  0  0  0  0  0  0  0  0
   36.6150   21.6380   31.9250 N   0  0  0  0  0  0  0  0  0  0  0  0
   35.6660   20.9090   31.1240 C   0  0  0  0  0  0  0  0  0  0  0  0
   34.7040   20.2140   32.0650 C   0  0  0  0  0  0  0  0  0  0  0  0
   35.5560   20.0830   33.3110 C   0  0  0  0  0  0  0  0  0  0  0  0
   36.2570   21.4270   33.3080 C   0  0  1  0  0  0  0  0  0  0  0  0
   40.9311   22.3593   37.9358 H   0  0  0  0  0  0  0  0  0  0  0  0
   39.4459   23.4448   39.6668 H   0  0  0  0  0  0  0  0  0  0  0  0
   37.1265   24.1888   38.9365 H   0  0  0  0  0  0  0  0  0  0  0  0
   36.5710   22.6418   31.6982 H   0  0  0  0  0  0  0  0  0  0  0  0
   35.1157   21.6029   30.4715 H   0  0  0  0  0  0  0  0  0  0  0  0
   36.1827   20.1734   30.4901 H   0  0  0  0  0  0  0  0  0  0  0  0
   33.8089   20.8258   32.2509 H   0  0  0  0  0  0  0  0  0  0  0  0
   34.3097   19.2601   31.6848 H   0  0  0  0  0  0  0  0  0  0  0  0
   34.9398   19.9483   34.2122 H   0  0  0  0  0  0  0  0  0  0  0  0
   36.2304   19.2140   33.3162 H   0  0  0  0  0  0  0  0  0  0  0  0
   35.6142   22.2420   33.6722 H   0  0  0  0  0  0  0  0  0  0  0  0
  1  2  2  0
  3  2  1  0
  4  3  2  0
  5  6  2  0
  5  4  1  0
  6  1  1  0
  7  5  1  0
  8  7  2  0
  9  7  1  0
 10 14  1  0
 11 10  1  0
 11 12  1  0
 12 13  1  0
 14 13  1  0
 14  9  1  0
  1 15  1  0
  2 16  1  0
  3 17  1  0
 10 18  1  0
 11 19  1  0
 11 20  1  0
 12 21  1  0
 12 22  1  0
 13 23  1  0
 13 24  1  0
 14 25  1  1
M  ISO  8  15  14  16  14  17  14  18   5  19  13  20  13  21  13  22  13
M  ISO  3  23  13  24  13  25  13
M  END
>  <minimizedAffinity>  (1) 
-4.1248188

>  <minimizedRMSD>  (1) 
0.941522777

$$$$
