
     RDKit          3D

 18 19  0  0  0  0  0  0  0  0999 V2000
   39.9710   22.6320   37.2950 C   0  0  0  0  0  0  0  0  0  0  0  0
   39.2530   23.2910   38.2890 C   0  0  0  0  0  0  0  0  0  0  0  0
   37.8550   23.4500   38.0910 C   0  0  0  0  0  0  0  0  0  0  0  0
   37.2980   22.9560   36.9490 N   0  0  0  0  0  0  0  0  0  0  0  0
   38.0550   22.3180   36.0100 C   0  0  0  0  0  0  0  0  0  0  0  0
   39.3720   22.1660   36.1960 N   0  0  0  0  0  0  0  0  0  0  0  0
   37.4950   21.7760   34.7830 C   0  0  0  0  0  0  0  0  0  0  0  0
   38.0940   21.7990   33.6860 O   0  0  0  0  0  0  0  0  0  0  0  0
   36.2440   21.1840   34.7090 O   0  0  0  0  0  0  0  0  0  0  0  0
   35.6430   20.7130   33.5720 C   0  0  0  0  0  0  0  0  0  0  0  0
   35.0550   21.4180   32.6070 N   0  0  0  0  0  0  0  0  0  0  0  0
   34.6190   20.6000   31.7210 O   0  0  0  0  0  0  0  0  0  0  0  0
   34.9090   19.3600   32.0860 C   0  0  0  0  0  0  0  0  0  0  0  0
   35.5680   19.3850   33.2720 N   0  0  0  0  0  0  0  0  0  0  0  0
   41.0552   22.4920   37.4174 H   0  0  0  0  0  0  0  0  0  0  0  0
   39.7489   23.6740   39.1931 H   0  0  0  0  0  0  0  0  0  0  0  0
   37.2355   23.9607   38.8430 H   0  0  0  0  0  0  0  0  0  0  0  0
   34.6556   18.4531   31.5174 H   0  0  0  0  0  0  0  0  0  0  0  0
  1  2  2  0
  3  2  1  0
  4  3  2  0
  5  6  2  0
  5  4  1  0
  6  1  1  0
  7  5  1  0
  8  7  2  0
  9  7  1  0
 10  9  1  0
 11 10  2  0
 12 13  1  0
 12 11  1  0
 13 14  2  0
 14 10  1  0
  1 15  1  0
  2 16  1  0
  3 17  1  0
 13 18  1  0
M  ISO  4  15  14  16  14  17  14  18  14
M  END
>  <minimizedAffinity>  (1) 
-4.07610273

>  <minimizedRMSD>  (1) 
0.738111973

$$$$
