
     RDKit          3D

 21 22  0  0  0  0  0  0  0  0999 V2000
   37.7950   21.8740   34.9750 C   0  0  0  0  0  0  0  0  0  0  0  0
   38.5080   21.7080   33.9840 O   0  0  0  0  0  0  0  0  0  0  0  0
   40.0010   22.7600   37.6960 C   0  0  0  0  0  0  0  0  0  0  0  0
   39.1930   23.4750   38.5990 C   0  0  0  0  0  0  0  0  0  0  0  0
   37.8430   23.6550   38.2540 C   0  0  0  0  0  0  0  0  0  0  0  0
   37.4090   23.1310   37.0810 N   0  0  0  0  0  0  0  0  0  0  0  0
   38.2380   22.4480   36.2450 C   0  0  0  0  0  0  0  0  0  0  0  0
   39.5300   22.2600   36.5470 N   0  0  0  0  0  0  0  0  0  0  0  0
   36.4740   21.4460   34.7650 O   0  0  0  0  0  0  0  0  0  0  0  0
   36.0220   21.0000   33.5420 C   0  0  0  0  0  0  0  0  0  0  0  0
   35.6460   19.6740   33.3690 C   0  0  0  0  0  0  0  0  0  0  0  0
   35.1850   19.2050   32.1380 C   0  0  0  0  0  0  0  0  0  0  0  0
   35.1190   20.0860   31.1190 N   0  0  0  0  0  0  0  0  0  0  0  0
   35.4890   21.3760   31.2950 C   0  0  0  0  0  0  0  0  0  0  0  0
   35.9350   21.8450   32.4790 N   0  0  0  0  0  0  0  0  0  0  0  0
   41.0615   22.6058   37.9439 H   0  0  0  0  0  0  0  0  0  0  0  0
   39.6019   23.8771   39.5377 H   0  0  0  0  0  0  0  0  0  0  0  0
   37.1580   24.2050   38.9161 H   0  0  0  0  0  0  0  0  0  0  0  0
   35.7130   18.9796   34.2194 H   0  0  0  0  0  0  0  0  0  0  0  0
   34.8863   18.1549   32.0038 H   0  0  0  0  0  0  0  0  0  0  0  0
   35.4237   22.0672   30.4418 H   0  0  0  0  0  0  0  0  0  0  0  0
  1  7  1  0
  2  1  2  0
  3  4  2  0
  5  4  1  0
  6  5  2  0
  7  8  2  0
  7  6  1  0
  8  3  1  0
  9  1  1  0
 10  9  1  0
 11 10  2  0
 12 11  1  0
 13 14  1  0
 13 12  2  0
 14 15  2  0
 15 10  1  0
  3 16  1  0
  4 17  1  0
  5 18  1  0
 11 19  1  0
 12 20  1  0
 14 21  1  0
M  ISO  6  16  14  17  14  18  14  19  14  20  14  21  14
M  END
>  <minimizedAffinity>  (1) 
-4.04129744

>  <minimizedRMSD>  (1) 
0.490889549

$$$$
