
     RDKit          3D

 21 22  0  0  0  0  0  0  0  0999 V2000
   37.8270   21.8730   34.9830 C   0  0  0  0  0  0  0  0  0  0  0  0
   38.5980   21.7240   34.0140 O   0  0  0  0  0  0  0  0  0  0  0  0
   39.9790   22.7710   37.7670 C   0  0  0  0  0  0  0  0  0  0  0  0
   39.1600   23.4950   38.6320 C   0  0  0  0  0  0  0  0  0  0  0  0
   37.8240   23.6750   38.2380 C   0  0  0  0  0  0  0  0  0  0  0  0
   37.3910   23.1480   37.0500 N   0  0  0  0  0  0  0  0  0  0  0  0
   38.2390   22.4550   36.2570 C   0  0  0  0  0  0  0  0  0  0  0  0
   39.5200   22.2700   36.6130 N   0  0  0  0  0  0  0  0  0  0  0  0
   36.5300   21.4270   34.7240 O   0  0  0  0  0  0  0  0  0  0  0  0
   36.0840   21.0960   33.4500 C   0  0  0  0  0  0  0  0  0  0  0  0
   35.6580   19.7840   33.2240 C   0  0  0  0  0  0  0  0  0  0  0  0
   35.2140   19.4580   31.9500 C   0  0  0  0  0  0  0  0  0  0  0  0
   35.2000   20.4010   30.9640 N   0  0  0  0  0  0  0  0  0  0  0  0
   35.6170   21.6630   31.2090 C   0  0  0  0  0  0  0  0  0  0  0  0
   36.0520   21.9950   32.4450 N   0  0  0  0  0  0  0  0  0  0  0  0
   41.0318   22.6066   38.0400 H   0  0  0  0  0  0  0  0  0  0  0  0
   39.5420   23.9058   39.5782 H   0  0  0  0  0  0  0  0  0  0  0  0
   37.1290   24.2362   38.8799 H   0  0  0  0  0  0  0  0  0  0  0  0
   35.6741   19.0347   34.0292 H   0  0  0  0  0  0  0  0  0  0  0  0
   34.8719   18.4350   31.7343 H   0  0  0  0  0  0  0  0  0  0  0  0
   35.6025   22.4158   30.4071 H   0  0  0  0  0  0  0  0  0  0  0  0
  1  7  1  0
  2  1  2  0
  3  4  2  0
  5  4  1  0
  6  5  2  0
  7  8  2  0
  7  6  1  0
  8  3  1  0
  9  1  1  0
 10  9  1  0
 11 10  2  0
 12 11  1  0
 13 14  1  0
 13 12  2  0
 14 15  2  0
 15 10  1  0
  3 16  1  0
  4 17  1  0
  5 18  1  0
 11 19  1  0
 12 20  1  0
 14 21  1  0
M  ISO  6  16  14  17  14  18  14  19  14  20  14  21  14
M  END
>  <minimizedAffinity>  (1) 
-4.02394104

>  <minimizedRMSD>  (1) 
0.63364464

$$$$
