
     RDKit          3D

 23 24  0  0  0  0  0  0  0  0999 V2000
   39.9910   22.6130   37.7840 C   0  0  0  0  0  0  0  0  0  0  0  0
   39.0640   23.2090   36.9010 C   0  0  0  0  0  0  0  0  0  0  0  0
   39.5760   23.8140   35.7600 C   0  0  0  0  0  0  0  0  0  0  0  0
   40.9100   23.8190   35.5270 N   0  0  0  0  0  0  0  0  0  0  0  0
   41.7690   23.2240   36.4210 C   0  0  0  0  0  0  0  0  0  0  0  0
   41.3050   22.6380   37.5190 N   0  0  0  0  0  0  0  0  0  0  0  0
   43.1750   23.1980   36.2290 N   0  0  0  0  0  0  0  0  0  0  0  0
   43.9970   24.0920   36.8170 C   0  0  0  0  0  0  0  0  0  0  0  0
   45.3700   24.0460   36.6140 C   0  0  0  0  0  0  0  0  0  0  0  0
   45.9210   23.0770   35.7990 C   0  0  0  0  0  0  0  0  0  0  0  0
   47.1520   23.0360   35.6170 O   0  0  0  0  0  0  0  0  0  0  0  0
   45.0620   22.1990   35.2270 N   0  0  0  0  0  0  0  0  0  0  0  0
   43.7290   22.2660   35.4420 C   0  0  0  0  0  0  0  0  0  0  0  0
   42.9410   21.4320   34.8960 O   0  0  0  0  0  0  0  0  0  0  0  0
   37.5920   23.2170   37.1330 C   0  0  0  0  0  0  0  0  0  0  0  0
   37.4100   22.9960   38.5010 F   0  0  0  0  0  0  0  0  0  0  0  0
   36.9580   22.2120   36.4590 F   0  0  0  0  0  0  0  0  0  0  0  0
   37.0550   24.4720   36.8970 F   0  0  0  0  0  0  0  0  0  0  0  0
   39.6307   22.1224   38.7002 H   0  0  0  0  0  0  0  0  0  0  0  0
   38.8937   24.2918   35.0415 H   0  0  0  0  0  0  0  0  0  0  0  0
   43.5724   24.8703   37.4681 H   0  0  0  0  0  0  0  0  0  0  0  0
   46.0213   24.7845   37.1044 H   0  0  0  0  0  0  0  0  0  0  0  0
   45.4344   21.4612   34.6123 H   0  0  0  0  0  0  0  0  0  0  0  0
  2 15  1  0
  2  1  2  0
  3  2  1  0
  4  3  2  0
  4  5  1  0
  5  6  2  0
  6  1  1  0
  7  5  1  0
  7  8  1  0
  9  8  2  0
 10  9  1  0
 11 10  2  0
 12 13  1  0
 12 10  1  0
 13  7  1  0
 14 13  2  0
 15 16  1  0
 17 15  1  0
 18 15  1  0
  1 19  1  0
  3 20  1  0
  8 21  1  0
  9 22  1  0
 12 23  1  0
M  ISO  5  19  14  20  14  21  14  22  14  23   9
M  END
>  <minimizedAffinity>  (1) 
-4.38897467

>  <minimizedRMSD>  (1) 
3.17108774

$$$$
