
     RDKit          3D

 16 16  0  0  0  0  0  0  0  0999 V2000
   39.9880   22.5830   37.3020 C   0  0  0  0  0  0  0  0  0  0  0  0
   39.3250   23.2240   38.3730 C   0  0  0  0  0  0  0  0  0  0  0  0
   37.9570   23.4980   38.2170 C   0  0  0  0  0  0  0  0  0  0  0  0
   37.3580   23.1350   37.0620 N   0  0  0  0  0  0  0  0  0  0  0  0
   38.0240   22.5250   36.0660 C   0  0  0  0  0  0  0  0  0  0  0  0
   39.3400   22.2430   36.1720 N   0  0  0  0  0  0  0  0  0  0  0  0
   37.3980   22.1170   34.7990 C   0  0  0  0  0  0  0  0  0  0  0  0
   37.7010   22.5870   33.6830 O   0  0  0  0  0  0  0  0  0  0  0  0
   36.3910   21.1420   34.7570 O   0  0  0  0  0  0  0  0  0  0  0  0
   35.9180   20.6470   33.5110 C   0  0  0  0  0  0  0  0  0  0  0  0
   37.0850   20.3240   32.8090 F   0  0  0  0  0  0  0  0  0  0  0  0
   35.1860   21.5790   32.8240 F   0  0  0  0  0  0  0  0  0  0  0  0
   35.2540   19.4600   33.6820 F   0  0  0  0  0  0  0  0  0  0  0  0
   41.0604   22.3562   37.3940 H   0  0  0  0  0  0  0  0  0  0  0  0
   39.8606   23.4978   39.2939 H   0  0  0  0  0  0  0  0  0  0  0  0
   37.3871   23.9959   39.0154 H   0  0  0  0  0  0  0  0  0  0  0  0
  1  2  2  0
  3  2  1  0
  4  3  2  0
  5  6  2  0
  5  4  1  0
  6  1  1  0
  7  5  1  0
  8  7  2  0
  9  7  1  0
 10 13  1  0
 10  9  1  0
 11 10  1  0
 12 10  1  0
  1 14  1  0
  2 15  1  0
  3 16  1  0
M  ISO  3  14  14  15  14  16  14
M  END
>  <minimizedAffinity>  (1) 
-3.80461359

>  <minimizedRMSD>  (1) 
0.687238455

$$$$
