
     RDKit          3D

 16 16  0  0  0  0  0  0  0  0999 V2000
   39.8770   22.6680   37.2680 C   0  0  0  0  0  0  0  0  0  0  0  0
   39.1760   23.3230   38.2780 C   0  0  0  0  0  0  0  0  0  0  0  0
   37.7840   23.4380   38.1200 C   0  0  0  0  0  0  0  0  0  0  0  0
   37.2360   22.9050   37.0030 N   0  0  0  0  0  0  0  0  0  0  0  0
   37.9550   22.2790   36.0510 C   0  0  0  0  0  0  0  0  0  0  0  0
   39.2860   22.1590   36.1830 N   0  0  0  0  0  0  0  0  0  0  0  0
   37.3830   21.6990   34.8430 C   0  0  0  0  0  0  0  0  0  0  0  0
   37.9530   21.6230   33.7530 O   0  0  0  0  0  0  0  0  0  0  0  0
   36.1010   21.1620   34.8030 O   0  0  0  0  0  0  0  0  0  0  0  0
   35.5270   20.6030   33.6860 C   0  0  0  0  0  0  0  0  0  0  0  0
   35.0920   21.3510   32.7890 O   0  0  0  0  0  0  0  0  0  0  0  0
   35.4350   19.2170   33.5600 O   0  0  0  0  0  0  0  0  0  0  0  0
   40.9676   22.5650   37.3683 H   0  0  0  0  0  0  0  0  0  0  0  0
   39.6893   23.7323   39.1606 H   0  0  0  0  0  0  0  0  0  0  0  0
   37.1635   23.9421   38.8756 H   0  0  0  0  0  0  0  0  0  0  0  0
   35.0206   18.8197   32.7534 H   0  0  0  0  0  0  0  0  0  0  0  0
  1  2  2  0
  3  2  1  0
  4  3  2  0
  5  6  2  0
  5  4  1  0
  6  1  1  0
  7  5  1  0
  8  7  2  0
  9  7  1  0
 10  9  1  0
 11 10  2  0
 12 10  1  0
  1 13  1  0
  2 14  1  0
  3 15  1  0
 12 16  1  0
M  ISO  4  13  14  14  14  15  14  16   3
M  END
>  <minimizedAffinity>  (1) 
-3.60440826

>  <minimizedRMSD>  (1) 
0.763138354

$$$$
