
     RDKit          3D

 15 15  0  0  0  0  0  0  0  0999 V2000
   39.9770   22.6360   37.3530 C   0  0  0  0  0  0  0  0  0  0  0  0
   39.2610   23.2890   38.3550 C   0  0  0  0  0  0  0  0  0  0  0  0
   37.8830   23.4630   38.1460 C   0  0  0  0  0  0  0  0  0  0  0  0
   37.2920   23.0040   36.9990 N   0  0  0  0  0  0  0  0  0  0  0  0
   38.0590   22.3720   36.0600 C   0  0  0  0  0  0  0  0  0  0  0  0
   39.3860   22.1900   36.2340 N   0  0  0  0  0  0  0  0  0  0  0  0
   37.4880   21.8630   34.8210 C   0  0  0  0  0  0  0  0  0  0  0  0
   38.0240   22.0270   33.7030 O   0  0  0  0  0  0  0  0  0  0  0  0
   36.3030   21.1510   34.7460 O   0  0  0  0  0  0  0  0  0  0  0  0
   35.6640   20.7860   33.5890 C   0  0  0  0  0  0  0  0  0  0  0  0
   35.4870   19.5350   33.4140 O   0  0  0  0  0  0  0  0  0  0  0  0
   41.0583   22.4818   37.4835 H   0  0  0  0  0  0  0  0  0  0  0  0
   39.7535   23.6520   39.2691 H   0  0  0  0  0  0  0  0  0  0  0  0
   37.2746   23.9712   38.9086 H   0  0  0  0  0  0  0  0  0  0  0  0
   35.3234   21.5297   32.8536 H   0  0  0  0  0  0  0  0  0  0  0  0
  1  2  2  0
  3  2  1  0
  4  3  2  0
  5  6  2  0
  5  4  1  0
  6  1  1  0
  7  5  1  0
  8  7  2  0
  9  7  1  0
 10  9  1  0
 11 10  2  0
  1 12  1  0
  2 13  1  0
  3 14  1  0
 10 15  1  0
M  ISO  4  12  14  13  14  14  14  15   6
M  END
>  <minimizedAffinity>  (1) 
-3.24926901

>  <minimizedRMSD>  (1) 
0.55601275

$$$$
