
     RDKit          3D

 16 16  0  0  0  0  0  0  0  0999 V2000
   39.9650   22.6720   37.5330 C   0  0  0  0  0  0  0  0  0  0  0  0
   39.1850   23.3250   38.5130 C   0  0  0  0  0  0  0  0  0  0  0  0
   37.8320   23.5430   38.2120 C   0  0  0  0  0  0  0  0  0  0  0  0
   37.3570   23.1220   37.0120 N   0  0  0  0  0  0  0  0  0  0  0  0
   38.1570   22.4960   36.1010 C   0  0  0  0  0  0  0  0  0  0  0  0
   39.4550   22.2700   36.3560 N   0  0  0  0  0  0  0  0  0  0  0  0
   37.6440   22.0410   34.8050 C   0  0  0  0  0  0  0  0  0  0  0  0
   38.1890   22.3300   33.7210 O   0  0  0  0  0  0  0  0  0  0  0  0
   36.5180   21.2540   34.6640 O   0  0  0  0  0  0  0  0  0  0  0  0
   35.8950   20.9030   33.4680 C   0  0  0  0  0  0  0  0  0  0  0  0
   41.0290   22.4856   37.7406 H   0  0  0  0  0  0  0  0  0  0  0  0
   39.6194   23.6485   39.4704 H   0  0  0  0  0  0  0  0  0  0  0  0
   37.1700   24.0445   38.9333 H   0  0  0  0  0  0  0  0  0  0  0  0
   34.9556   20.3737   33.6855 H   0  0  0  0  0  0  0  0  0  0  0  0
   35.6780   21.8116   32.8872 H   0  0  0  0  0  0  0  0  0  0  0  0
   36.5597   20.2466   32.8872 H   0  0  0  0  0  0  0  0  0  0  0  0
  1  2  2  0
  3  2  1  0
  4  3  2  0
  5  6  2  0
  5  4  1  0
  6  1  1  0
  7  5  1  0
  8  7  2  0
  9  7  1  0
 10  9  1  0
  1 11  1  0
  2 12  1  0
  3 13  1  0
 10 14  1  0
 10 15  1  0
 10 16  1  0
M  ISO  6  11  14  12  14  13  14  14   8  15   8  16   8
M  END
>  <minimizedAffinity>  (1) 
-3.07802558

>  <minimizedRMSD>  (1) 
0.325091571

$$$$
