
     RDKit          3D

 28 29  0  0  0  0  0  0  0  0999 V2000
   40.5080   22.5050   37.7320 C   0  0  0  0  0  0  0  0  0  0  0  0
   39.2650   23.0920   37.4500 C   0  0  0  0  0  0  0  0  0  0  0  0
   38.8450   23.0970   36.1160 C   0  0  0  0  0  0  0  0  0  0  0  0
   39.6530   22.5370   35.1660 N   0  0  0  0  0  0  0  0  0  0  0  0
   40.8510   21.9830   35.5040 C   0  0  0  0  0  0  0  0  0  0  0  0
   41.2680   21.9690   36.7660 N   0  0  0  0  0  0  0  0  0  0  0  0
   41.6390   21.4170   34.4450 N   0  0  0  0  0  0  0  0  0  0  0  0
   42.9100   20.8240   34.7720 C   0  0  0  0  0  0  0  0  0  0  0  0
   43.0470   19.4470   34.1420 C   0  0  0  0  0  0  0  0  0  0  0  0
   42.6520   19.4740   32.6780 C   0  0  0  0  0  0  0  0  0  0  0  0
   41.3090   20.0940   32.4620 C   0  0  0  0  0  0  0  0  0  0  0  0
   41.1670   21.4450   33.0910 C   0  0  0  0  0  0  0  0  0  0  0  0
   38.3760   23.7040   38.4780 C   0  0  0  0  0  0  0  0  0  0  0  0
   39.1550   23.9020   39.6070 F   0  0  0  0  0  0  0  0  0  0  0  0
   37.3440   22.8810   38.8280 F   0  0  0  0  0  0  0  0  0  0  0  0
   37.9550   24.9710   38.0910 F   0  0  0  0  0  0  0  0  0  0  0  0
   40.8678   22.4840   38.7713 H   0  0  0  0  0  0  0  0  0  0  0  0
   37.8800   23.5444   35.8357 H   0  0  0  0  0  0  0  0  0  0  0  0
   43.7162   21.4724   34.3983 H   0  0  0  0  0  0  0  0  0  0  0  0
   42.9763   20.7176   35.8648 H   0  0  0  0  0  0  0  0  0  0  0  0
   44.0927   19.1161   34.2258 H   0  0  0  0  0  0  0  0  0  0  0  0
   42.3779   18.7527   34.6714 H   0  0  0  0  0  0  0  0  0  0  0  0
   43.4025   20.0533   32.1201 H   0  0  0  0  0  0  0  0  0  0  0  0
   42.6021   18.4335   32.3246 H   0  0  0  0  0  0  0  0  0  0  0  0
   41.1420   20.1946   31.3794 H   0  0  0  0  0  0  0  0  0  0  0  0
   40.5681   19.4355   32.9389 H   0  0  0  0  0  0  0  0  0  0  0  0
   41.7553   22.1760   32.5169 H   0  0  0  0  0  0  0  0  0  0  0  0
   40.1046   21.7303   33.0888 H   0  0  0  0  0  0  0  0  0  0  0  0
  2  1  2  0
  2 13  1  0
  3  2  1  0
  4  5  1  0
  4  3  2  0
  5  6  2  0
  6  1  1  0
  7  8  1  0
  7  5  1  0
  9  8  1  0
 10  9  1  0
 11 10  1  0
 11 12  1  0
 12  7  1  0
 13 15  1  0
 13 14  1  0
 16 13  1  0
  1 17  1  0
  3 18  1  0
  8 19  1  0
  8 20  1  0
  9 21  1  0
  9 22  1  0
 10 23  1  0
 10 24  1  0
 11 25  1  0
 11 26  1  0
 12 27  1  0
 12 28  1  0
M  ISO  8  17  14  18  14  19  13  20  13  21  13  22  13  23  13  24  13
M  ISO  4  25  13  26  13  27  13  28  13
M  END
>  <minimizedAffinity>  (1) 
-4.24079132

>  <minimizedRMSD>  (1) 
0.211542726

$$$$
