
     RDKit          3D

 30 32  0  0  0  0  0  0  0  0999 V2000
   36.9650   22.7210   32.7930 C   0  0  0  0  0  0  0  0  0  0  0  0
   35.9000   22.4190   31.9750 C   0  0  0  0  0  0  0  0  0  0  0  0
   35.6750   23.4930   31.1630 C   0  0  0  0  0  0  0  0  0  0  0  0
   36.5940   24.4380   31.4830 N   0  0  0  0  0  0  0  0  0  0  0  0
   37.3650   23.9850   32.4520 N   0  0  0  0  0  0  0  0  0  0  0  0
   36.9890   25.7670   31.1020 C   0  0  0  0  0  0  0  0  0  0  0  0
   38.3050   26.0500   30.7350 C   0  0  0  0  0  0  0  0  0  0  0  0
   38.6410   27.3480   30.3740 C   0  0  0  0  0  0  0  0  0  0  0  0
   37.6750   28.3370   30.3820 C   0  0  0  0  0  0  0  0  0  0  0  0
   36.3610   28.0380   30.7530 C   0  0  0  0  0  0  0  0  0  0  0  0
   36.0080   26.7410   31.1180 C   0  0  0  0  0  0  0  0  0  0  0  0
   37.3820   21.7730   33.7120 O   0  0  0  0  0  0  0  0  0  0  0  0
   38.5530   21.9190   34.4220 C   0  0  0  0  0  0  0  0  0  0  0  0
   39.5450   21.5820   33.7450 O   0  0  0  0  0  0  0  0  0  0  0  0
   39.9460   22.6970   37.6720 C   0  0  0  0  0  0  0  0  0  0  0  0
   38.9020   23.2850   38.3690 C   0  0  0  0  0  0  0  0  0  0  0  0
   37.6790   23.4210   37.7050 C   0  0  0  0  0  0  0  0  0  0  0  0
   37.5770   22.9730   36.4210 N   0  0  0  0  0  0  0  0  0  0  0  0
   38.6390   22.4020   35.7840 C   0  0  0  0  0  0  0  0  0  0  0  0
   39.8180   22.2680   36.4160 N   0  0  0  0  0  0  0  0  0  0  0  0
   35.3305   21.4779   31.9755 H   0  0  0  0  0  0  0  0  0  0  0  0
   34.8941   23.5765   30.3928 H   0  0  0  0  0  0  0  0  0  0  0  0
   39.0660   25.2557   30.7317 H   0  0  0  0  0  0  0  0  0  0  0  0
   39.6739   27.5889   30.0822 H   0  0  0  0  0  0  0  0  0  0  0  0
   37.9419   29.3648   30.0948 H   0  0  0  0  0  0  0  0  0  0  0  0
   35.6003   28.8326   30.7567 H   0  0  0  0  0  0  0  0  0  0  0  0
   34.9760   26.4981   31.4112 H   0  0  0  0  0  0  0  0  0  0  0  0
   40.9175   22.5798   38.1744 H   0  0  0  0  0  0  0  0  0  0  0  0
   39.0308   23.6314   39.4051 H   0  0  0  0  0  0  0  0  0  0  0  0
   36.8158   23.8805   38.2086 H   0  0  0  0  0  0  0  0  0  0  0  0
  1 12  1  0
  2  1  1  0
  3  4  1  0
  3  2  2  0
  4  5  1  0
  5  1  2  0
  6 11  1  0
  6  4  1  0
  7  6  2  0
  8  9  2  0
  8  7  1  0
  9 10  1  0
 10 11  2  0
 12 13  1  0
 13 19  1  0
 14 13  2  0
 15 16  2  0
 17 16  1  0
 18 17  2  0
 19 20  2  0
 19 18  1  0
 20 15  1  0
  2 21  1  0
  3 22  1  0
  7 23  1  0
  8 24  1  0
  9 25  1  0
 10 26  1  0
 11 27  1  0
 15 28  1  0
 16 29  1  0
 17 30  1  0
M  ISO  8  21  14  22  14  23  14  24  14  25  14  26  14  27  14  28  14
M  ISO  2  29  14  30  14
M  END
>  <minimizedAffinity>  (1) 
-4.79335356

>  <minimizedRMSD>  (1) 
3.98558855

$$$$
