
     RDKit          3D

 26 27  0  0  0  0  0  0  0  0999 V2000
   40.4880   22.4880   37.6910 C   0  0  0  0  0  0  0  0  0  0  0  0
   39.2420   23.1070   37.4550 C   0  0  0  0  0  0  0  0  0  0  0  0
   38.7980   23.1520   36.1440 C   0  0  0  0  0  0  0  0  0  0  0  0
   39.5520   22.6160   35.1530 N   0  0  0  0  0  0  0  0  0  0  0  0
   40.7550   22.0250   35.4350 C   0  0  0  0  0  0  0  0  0  0  0  0
   41.2100   21.9660   36.6960 N   0  0  0  0  0  0  0  0  0  0  0  0
   41.4840   21.4900   34.3670 N   0  0  0  0  0  0  0  0  0  0  0  0
   40.9050   21.2530   33.0740 C   0  0  0  0  0  0  0  0  0  0  0  0
   41.9670   20.5980   32.2280 C   0  0  0  0  0  0  0  0  0  0  0  0
   42.5090   19.4600   32.8160 O   0  0  0  0  0  0  0  0  0  0  0  0
   42.9940   19.6840   34.0910 C   0  0  0  0  0  0  0  0  0  0  0  0
   42.8880   21.1420   34.5140 C   0  0  0  0  0  0  0  0  0  0  0  0
   38.4000   23.7030   38.5340 C   0  0  0  0  0  0  0  0  0  0  0  0
   39.2130   23.8730   39.6390 F   0  0  0  0  0  0  0  0  0  0  0  0
   37.3630   22.8980   38.8880 F   0  0  0  0  0  0  0  0  0  0  0  0
   37.9920   25.0040   38.1890 F   0  0  0  0  0  0  0  0  0  0  0  0
   40.8741   22.4341   38.7196 H   0  0  0  0  0  0  0  0  0  0  0  0
   37.8327   23.6230   35.9066 H   0  0  0  0  0  0  0  0  0  0  0  0
   40.0331   20.5888   33.1667 H   0  0  0  0  0  0  0  0  0  0  0  0
   40.5655   22.1946   32.6177 H   0  0  0  0  0  0  0  0  0  0  0  0
   42.7762   21.3236   32.0585 H   0  0  0  0  0  0  0  0  0  0  0  0
   41.4900   20.2853   31.2874 H   0  0  0  0  0  0  0  0  0  0  0  0
   42.4183   19.0698   34.7991 H   0  0  0  0  0  0  0  0  0  0  0  0
   44.0607   19.4154   34.0918 H   0  0  0  0  0  0  0  0  0  0  0  0
   43.5108   21.7762   33.8660 H   0  0  0  0  0  0  0  0  0  0  0  0
   43.2393   21.2935   35.5453 H   0  0  0  0  0  0  0  0  0  0  0  0
  2  1  2  0
  2 13  1  0
  3  2  1  0
  4  5  1  0
  4  3  2  0
  5  6  2  0
  6  1  1  0
  7 12  1  0
  7  5  1  0
  8  7  1  0
  9 10  1  0
  9  8  1  0
 10 11  1  0
 11 12  1  0
 13 15  1  0
 13 14  1  0
 16 13  1  0
  1 17  1  0
  3 18  1  0
  8 19  1  0
  8 20  1  0
  9 21  1  0
  9 22  1  0
 11 23  1  0
 11 24  1  0
 12 25  1  0
 12 26  1  0
M  ISO  8  17  14  18  14  19  13  20  13  21  13  22  13  23  13  24  13
M  ISO  2  25  13  26  13
M  END
>  <minimizedAffinity>  (1) 
-4.22221565

>  <minimizedRMSD>  (1) 
0.0720278993

$$$$
