
     RDKit          3D

 27 29  0  0  0  0  0  0  0  0999 V2000
   36.7020   21.0040   33.0970 C   0  0  0  0  0  0  0  0  0  0  0  0
   35.6470   20.1890   33.4570 C   0  0  0  0  0  0  0  0  0  0  0  0
   35.4930   19.2600   32.4620 C   0  0  0  0  0  0  0  0  0  0  0  0
   36.4530   19.5240   31.5200 N   0  0  0  0  0  0  0  0  0  0  0  0
   37.1540   20.5490   31.9060 N   0  0  0  0  0  0  0  0  0  0  0  0
   36.5870   18.7500   30.3410 C   0  0  0  0  0  0  0  0  0  0  0  0
   36.8230   17.3970   30.2230 C   0  0  0  0  0  0  0  0  0  0  0  0
   36.8690   17.1230   28.8610 C   0  0  0  0  0  0  0  0  0  0  0  0
   36.6560   18.3330   28.2150 C   0  0  0  0  0  0  0  0  0  0  0  0
   36.4950   19.2530   29.1320 O   0  0  0  0  0  0  0  0  0  0  0  0
   37.0650   22.0370   33.9460 O   0  0  0  0  0  0  0  0  0  0  0  0
   38.2930   22.0610   34.6030 C   0  0  0  0  0  0  0  0  0  0  0  0
   39.2000   21.6620   33.8640 O   0  0  0  0  0  0  0  0  0  0  0  0
   39.9420   22.7370   37.7410 C   0  0  0  0  0  0  0  0  0  0  0  0
   38.9710   23.2840   38.5570 C   0  0  0  0  0  0  0  0  0  0  0  0
   37.6910   23.4250   37.9990 C   0  0  0  0  0  0  0  0  0  0  0  0
   37.4520   23.0320   36.7120 N   0  0  0  0  0  0  0  0  0  0  0  0
   38.4760   22.4990   35.9730 C   0  0  0  0  0  0  0  0  0  0  0  0
   39.6990   22.3580   36.4900 N   0  0  0  0  0  0  0  0  0  0  0  0
   35.0426   20.2706   34.3725 H   0  0  0  0  0  0  0  0  0  0  0  0
   34.7428   18.4563   32.4260 H   0  0  0  0  0  0  0  0  0  0  0  0
   36.9499   16.6765   31.0444 H   0  0  0  0  0  0  0  0  0  0  0  0
   37.0399   16.1439   28.3897 H   0  0  0  0  0  0  0  0  0  0  0  0
   36.6276   18.4906   27.1267 H   0  0  0  0  0  0  0  0  0  0  0  0
   40.9581   22.6097   38.1427 H   0  0  0  0  0  0  0  0  0  0  0  0
   39.1895   23.5929   39.5899 H   0  0  0  0  0  0  0  0  0  0  0  0
   36.8760   23.8540   38.6005 H   0  0  0  0  0  0  0  0  0  0  0  0
  1  2  1  0
  1 11  1  0
  3  2  2  0
  4  5  1  0
  4  3  1  0
  5  1  2  0
  6  4  1  0
  7  6  2  0
  8  7  1  0
  9  8  2  0
  9 10  1  0
 10  6  1  0
 11 12  1  0
 12 18  1  0
 13 12  2  0
 14 15  2  0
 16 15  1  0
 17 16  2  0
 18 19  2  0
 18 17  1  0
 19 14  1  0
  2 20  1  0
  3 21  1  0
  7 22  1  0
  8 23  1  0
  9 24  1  0
 14 25  1  0
 15 26  1  0
 16 27  1  0
M  ISO  8  20  14  21  14  22  14  23  14  24  14  25  14  26  14  27  14
M  END
>  <minimizedAffinity>  (1) 
-4.59183931

>  <minimizedRMSD>  (1) 
2.51625013

$$$$
