
     RDKit          3D

 27 28  0  0  0  0  0  0  0  0999 V2000
   40.4980   22.4850   37.7190 C   0  0  0  0  0  0  0  0  0  0  0  0
   39.2540   23.0960   37.4490 C   0  0  0  0  0  0  0  0  0  0  0  0
   38.8210   23.1400   36.1310 C   0  0  0  0  0  0  0  0  0  0  0  0
   39.6210   22.5890   35.1680 N   0  0  0  0  0  0  0  0  0  0  0  0
   40.8090   22.0110   35.4660 C   0  0  0  0  0  0  0  0  0  0  0  0
   41.2280   21.9670   36.7290 N   0  0  0  0  0  0  0  0  0  0  0  0
   41.5560   21.4750   34.4080 N   0  0  0  0  0  0  0  0  0  0  0  0
   42.8410   20.8380   34.6490 C   0  0  0  0  0  0  0  0  0  0  0  0
   43.9540   21.6700   34.0060 C   0  0  0  0  0  0  0  0  0  0  0  0
   43.3230   22.4620   32.9720 N   0  0  0  0  0  0  0  0  0  0  0  0
   42.3930   21.7090   32.1890 C   0  0  0  0  0  0  0  0  0  0  0  0
   41.1460   21.4980   33.0250 C   0  0  0  0  0  0  0  0  0  0  0  0
   38.3920   23.6940   38.5210 C   0  0  0  0  0  0  0  0  0  0  0  0
   39.1960   23.8800   39.6280 F   0  0  0  0  0  0  0  0  0  0  0  0
   37.3550   22.9020   38.8570 F   0  0  0  0  0  0  0  0  0  0  0  0
   37.9930   24.9880   38.1580 F   0  0  0  0  0  0  0  0  0  0  0  0
   40.8684   22.4355   38.7536 H   0  0  0  0  0  0  0  0  0  0  0  0
   37.8598   23.6057   35.8678 H   0  0  0  0  0  0  0  0  0  0  0  0
   43.0167   20.7662   35.7325 H   0  0  0  0  0  0  0  0  0  0  0  0
   42.8376   19.8296   34.2094 H   0  0  0  0  0  0  0  0  0  0  0  0
   44.4214   22.3252   34.7558 H   0  0  0  0  0  0  0  0  0  0  0  0
   44.7447   21.0276   33.5912 H   0  0  0  0  0  0  0  0  0  0  0  0
   42.8218   23.2445   33.4163 H   0  0  0  0  0  0  0  0  0  0  0  0
   42.1400   22.2634   31.2732 H   0  0  0  0  0  0  0  0  0  0  0  0
   42.8295   20.7416   31.8998 H   0  0  0  0  0  0  0  0  0  0  0  0
   40.4360   22.3211   32.8564 H   0  0  0  0  0  0  0  0  0  0  0  0
   40.6477   20.5565   32.7506 H   0  0  0  0  0  0  0  0  0  0  0  0
  2  1  2  0
  2 13  1  0
  3  2  1  0
  4  5  1  0
  4  3  2  0
  5  6  2  0
  6  1  1  0
  7  8  1  0
  7  5  1  0
  9  8  1  0
 10  9  1  0
 11 10  1  0
 11 12  1  0
 12  7  1  0
 13 15  1  0
 13 14  1  0
 16 13  1  0
  1 17  1  0
  3 18  1  0
  8 19  1  0
  8 20  1  0
  9 21  1  0
  9 22  1  0
 10 23  1  0
 11 24  1  0
 11 25  1  0
 12 26  1  0
 12 27  1  0
M  ISO  8  17  14  18  14  19  13  20  13  21  13  22  13  23   5  24  13
M  ISO  3  25  13  26  13  27  13
M  END
>  <minimizedAffinity>  (1) 
-4.17618322

>  <minimizedRMSD>  (1) 
0.122497499

$$$$
