
     RDKit          3D

 33 35  0  0  0  0  0  0  0  0999 V2000
   37.0460   22.1440   33.9560 O   0  0  0  0  0  0  0  0  0  0  0  0
   36.6290   21.1120   33.1200 C   0  0  0  0  0  0  0  0  0  0  0  0
   35.7040   20.2210   33.5860 C   0  0  0  0  0  0  0  0  0  0  0  0
   35.4630   19.3130   32.5860 C   0  0  0  0  0  0  0  0  0  0  0  0
   36.2460   19.6710   31.5330 N   0  0  0  0  0  0  0  0  0  0  0  0
   36.9330   20.7330   31.8520 N   0  0  0  0  0  0  0  0  0  0  0  0
   36.3680   19.0450   30.2380 C   0  0  0  0  0  0  0  0  0  0  0  0
   36.7240   17.5600   30.3960 C   0  0  0  0  0  0  0  0  0  0  0  0
   38.2250   17.5380   30.5670 C   0  0  0  0  0  0  0  0  0  0  0  0
   38.7220   18.7120   29.7630 C   0  0  0  0  0  0  0  0  0  0  0  0
   37.5170   19.5730   29.4320 C   0  0  0  0  0  0  0  0  0  0  0  0
   38.2490   22.1110   34.6240 C   0  0  0  0  0  0  0  0  0  0  0  0
   39.1570   21.6680   33.8890 O   0  0  0  0  0  0  0  0  0  0  0  0
   39.9440   22.7420   37.7530 C   0  0  0  0  0  0  0  0  0  0  0  0
   38.9770   23.2870   38.5790 C   0  0  0  0  0  0  0  0  0  0  0  0
   37.6950   23.4400   38.0340 C   0  0  0  0  0  0  0  0  0  0  0  0
   37.4490   23.0570   36.7400 N   0  0  0  0  0  0  0  0  0  0  0  0
   38.4660   22.5270   35.9920 C   0  0  0  0  0  0  0  0  0  0  0  0
   39.6850   22.3770   36.4980 N   0  0  0  0  0  0  0  0  0  0  0  0
   35.2372   20.2300   34.5820 H   0  0  0  0  0  0  0  0  0  0  0  0
   34.7700   18.4598   32.6278 H   0  0  0  0  0  0  0  0  0  0  0  0
   35.4017   19.2370   29.7488 H   0  0  0  0  0  0  0  0  0  0  0  0
   36.2271   17.1346   31.2804 H   0  0  0  0  0  0  0  0  0  0  0  0
   36.3959   16.9608   29.5339 H   0  0  0  0  0  0  0  0  0  0  0  0
   38.4958   17.6520   31.6270 H   0  0  0  0  0  0  0  0  0  0  0  0
   38.6670   16.5883   30.2313 H   0  0  0  0  0  0  0  0  0  0  0  0
   39.4485   19.2912   30.3518 H   0  0  0  0  0  0  0  0  0  0  0  0
   39.2224   18.3718   28.8444 H   0  0  0  0  0  0  0  0  0  0  0  0
   37.7164   20.6212   29.6996 H   0  0  0  0  0  0  0  0  0  0  0  0
   37.2918   19.5370   28.3559 H   0  0  0  0  0  0  0  0  0  0  0  0
   40.9622   22.6053   38.1461 H   0  0  0  0  0  0  0  0  0  0  0  0
   39.2035   23.5857   39.6132 H   0  0  0  0  0  0  0  0  0  0  0  0
   36.8857   23.8674   38.6441 H   0  0  0  0  0  0  0  0  0  0  0  0
  1 12  1  0
  2  3  1  0
  2  1  1  0
  4  3  2  0
  5  6  1  0
  5  4  1  0
  6  2  2  0
  7  8  1  0
  7  5  1  0
  8  9  1  0
 10  9  1  0
 11 10  1  0
 11  7  1  0
 12 18  1  0
 13 12  2  0
 14 15  2  0
 16 15  1  0
 17 16  2  0
 18 19  2  0
 18 17  1  0
 19 14  1  0
  3 20  1  0
  4 21  1  0
  7 22  1  0
  8 23  1  0
  8 24  1  0
  9 25  1  0
  9 26  1  0
 10 27  1  0
 10 28  1  0
 11 29  1  0
 11 30  1  0
 14 31  1  0
 15 32  1  0
 16 33  1  0
M  ISO  8  20  14  21  14  22  13  23  13  24  13  25  13  26  13  27  13
M  ISO  6  28  13  29  13  30  13  31  14  32  14  33  14
M  END
>  <minimizedAffinity>  (1) 
-4.31543064

>  <minimizedRMSD>  (1) 
2.33674979

$$$$
