
     RDKit          3D

 35 37  0  0  0  0  0  0  0  0999 V2000
   36.6410   21.5740   32.8110 C   0  0  0  0  0  0  0  0  0  0  0  0
   35.7800   20.9230   33.6570 C   0  0  0  0  0  0  0  0  0  0  0  0
   35.5500   19.6700   33.1390 C   0  0  0  0  0  0  0  0  0  0  0  0
   36.2760   19.5910   31.9930 N   0  0  0  0  0  0  0  0  0  0  0  0
   36.9170   20.7110   31.8020 N   0  0  0  0  0  0  0  0  0  0  0  0
   36.2190   16.4910   29.5490 N   0  0  0  0  0  0  0  0  0  0  0  0
   36.8870   17.5940   28.9330 C   0  0  0  0  0  0  0  0  0  0  0  0
   37.2160   18.7220   29.9150 C   0  0  0  0  0  0  0  0  0  0  0  0
   36.3350   18.4530   31.1210 C   0  0  0  0  0  0  0  0  0  0  0  0
   36.9060   17.2420   31.8020 C   0  0  0  0  0  0  0  0  0  0  0  0
   36.7230   16.0850   30.8230 C   0  0  0  0  0  0  0  0  0  0  0  0
   37.0330   22.8690   33.1140 O   0  0  0  0  0  0  0  0  0  0  0  0
   38.1220   23.1510   33.9130 C   0  0  0  0  0  0  0  0  0  0  0  0
   38.7980   22.1260   34.1120 O   0  0  0  0  0  0  0  0  0  0  0  0
   38.1910   25.9250   36.2350 C   0  0  0  0  0  0  0  0  0  0  0  0
   38.9520   26.8930   35.5910 C   0  0  0  0  0  0  0  0  0  0  0  0
   39.4570   26.5800   34.3170 C   0  0  0  0  0  0  0  0  0  0  0  0
   39.1890   25.3530   33.7590 N   0  0  0  0  0  0  0  0  0  0  0  0
   38.4380   24.4590   34.4470 C   0  0  0  0  0  0  0  0  0  0  0  0
   37.9540   24.7520   35.6630 N   0  0  0  0  0  0  0  0  0  0  0  0
   35.3502   21.3302   34.5841 H   0  0  0  0  0  0  0  0  0  0  0  0
   34.9064   18.8874   33.5671 H   0  0  0  0  0  0  0  0  0  0  0  0
   36.2881   15.6850   28.9115 H   0  0  0  0  0  0  0  0  0  0  0  0
   37.8259   17.2311   28.4895 H   0  0  0  0  0  0  0  0  0  0  0  0
   36.2059   18.0077   28.1747 H   0  0  0  0  0  0  0  0  0  0  0  0
   38.2788   18.6930   30.1970 H   0  0  0  0  0  0  0  0  0  0  0  0
   37.0353   19.7167   29.4815 H   0  0  0  0  0  0  0  0  0  0  0  0
   35.2936   18.2671   30.8193 H   0  0  0  0  0  0  0  0  0  0  0  0
   37.9735   17.3935   32.0198 H   0  0  0  0  0  0  0  0  0  0  0  0
   36.4033   17.0432   32.7600 H   0  0  0  0  0  0  0  0  0  0  0  0
   36.0177   15.3647   31.2631 H   0  0  0  0  0  0  0  0  0  0  0  0
   37.7166   15.6448   30.6527 H   0  0  0  0  0  0  0  0  0  0  0  0
   37.7793   26.1345   37.2333 H   0  0  0  0  0  0  0  0  0  0  0  0
   39.1517   27.8675   36.0605 H   0  0  0  0  0  0  0  0  0  0  0  0
   40.0647   27.3148   33.7685 H   0  0  0  0  0  0  0  0  0  0  0  0
  1 12  1  0
  1  2  1  0
  3  2  2  0
  4  3  1  0
  5  4  1  0
  5  1  2  0
  6 11  1  0
  7  6  1  0
  7  8  1  0
  8  9  1  0
  9 10  1  0
  9  4  1  0
 11 10  1  0
 12 13  1  0
 13 14  2  0
 13 19  1  0
 16 15  2  0
 17 16  1  0
 18 17  2  0
 18 19  1  0
 19 20  2  0
 20 15  1  0
  2 21  1  0
  3 22  1  0
  6 23  1  0
  7 24  1  0
  7 25  1  0
  8 26  1  0
  8 27  1  0
  9 28  1  0
 10 29  1  0
 10 30  1  0
 11 31  1  0
 11 32  1  0
 15 33  1  0
 16 34  1  0
 17 35  1  0
M  ISO  8  21  14  22  14  23   5  24  13  25  13  26  13  27  13  28  13
M  ISO  7  29  13  30  13  31  13  32  13  33  14  34  14  35  14
M  END
>  <minimizedAffinity>  (1) 
-4.2152195

>  <minimizedRMSD>  (1) 
3.9522717

$$$$
