
     RDKit          3D

 27 29  0  0  0  0  0  0  0  0999 V2000
   36.7320   20.8370   32.9010 C   0  0  0  0  0  0  0  0  0  0  0  0
   35.6030   20.3470   33.5310 C   0  0  0  0  0  0  0  0  0  0  0  0
   35.3770   19.0890   33.0160 C   0  0  0  0  0  0  0  0  0  0  0  0
   36.3510   18.8480   32.1050 N   0  0  0  0  0  0  0  0  0  0  0  0
   37.1610   19.8840   32.0310 N   0  0  0  0  0  0  0  0  0  0  0  0
   36.3930   17.6170   31.3910 C   0  0  0  0  0  0  0  0  0  0  0  0
   36.4320   16.4450   32.1230 C   0  0  0  0  0  0  0  0  0  0  0  0
   36.4680   15.4070   31.2460 N   0  0  0  0  0  0  0  0  0  0  0  0
   36.4530   15.9100   30.0030 C   0  0  0  0  0  0  0  0  0  0  0  0
   36.4070   17.2700   30.0780 N   0  0  0  0  0  0  0  0  0  0  0  0
   37.2120   22.1030   33.2160 O   0  0  0  0  0  0  0  0  0  0  0  0
   38.2170   22.3160   34.1310 C   0  0  0  0  0  0  0  0  0  0  0  0
   39.2450   21.7050   33.8080 O   0  0  0  0  0  0  0  0  0  0  0  0
   37.6970   23.2400   37.5910 C   0  0  0  0  0  0  0  0  0  0  0  0
   37.8770   24.6200   37.6100 C   0  0  0  0  0  0  0  0  0  0  0  0
   38.1890   25.2520   36.3900 C   0  0  0  0  0  0  0  0  0  0  0  0
   38.2980   24.4890   35.2590 N   0  0  0  0  0  0  0  0  0  0  0  0
   38.1070   23.1380   35.3150 C   0  0  0  0  0  0  0  0  0  0  0  0
   37.8140   22.5490   36.4640 N   0  0  0  0  0  0  0  0  0  0  0  0
   35.0018   20.8615   34.2951 H   0  0  0  0  0  0  0  0  0  0  0  0
   34.5589   18.4077   33.2926 H   0  0  0  0  0  0  0  0  0  0  0  0
   36.4336   16.3663   33.2202 H   0  0  0  0  0  0  0  0  0  0  0  0
   36.4743   15.3209   29.0743 H   0  0  0  0  0  0  0  0  0  0  0  0
   36.3865   17.9202   29.2795 H   0  0  0  0  0  0  0  0  0  0  0  0
   37.4537   22.7133   38.5256 H   0  0  0  0  0  0  0  0  0  0  0  0
   37.7794   25.1955   38.5423 H   0  0  0  0  0  0  0  0  0  0  0  0
   38.3424   26.3404   36.3472 H   0  0  0  0  0  0  0  0  0  0  0  0
  1 11  1  0
  1  2  1  0
  3  2  2  0
  4  3  1  0
  5  4  1  0
  5  1  2  0
  6  4  1  0
  6  7  2  0
  8  7  1  0
  9 10  1  0
  9  8  2  0
 10  6  1  0
 11 12  1  0
 12 18  1  0
 13 12  2  0
 14 15  2  0
 16 15  1  0
 17 18  1  0
 17 16  2  0
 18 19  2  0
 19 14  1  0
  2 20  1  0
  3 21  1  0
  7 22  1  0
  9 23  1  0
 10 24  1  0
 14 25  1  0
 15 26  1  0
 16 27  1  0
M  ISO  8  20  14  21  14  22  14  23  14  24   9  25  14  26  14  27  14
M  END
>  <minimizedAffinity>  (1) 
-4.17198515

>  <minimizedRMSD>  (1) 
3.39860106

$$$$
