
     RDKit          3D

 20 20  0  0  0  0  0  0  0  0999 V2000
   40.4790   22.4670   37.6750 C   0  0  0  0  0  0  0  0  0  0  0  0
   39.2500   23.1100   37.4350 C   0  0  0  0  0  0  0  0  0  0  0  0
   38.7990   23.2080   36.1080 C   0  0  0  0  0  0  0  0  0  0  0  0
   39.5860   22.6690   35.1350 N   0  0  0  0  0  0  0  0  0  0  0  0
   40.7640   22.0580   35.4020 C   0  0  0  0  0  0  0  0  0  0  0  0
   41.1940   21.9630   36.6560 N   0  0  0  0  0  0  0  0  0  0  0  0
   41.5260   21.5210   34.3230 N   0  0  0  0  0  0  0  0  0  0  0  0
   42.7630   20.8730   34.5510 C   0  0  0  0  0  0  0  0  0  0  0  0
   42.9130   20.2260   35.6800 N   0  0  0  0  0  0  0  0  0  0  0  0
   43.7980   20.9420   33.5540 N   0  0  0  0  0  0  0  0  0  0  0  0
   43.8440   19.7580   35.8120 H   0  0  0  0  0  0  0  0  0  0  0  0
   38.3990   23.6950   38.5200 C   0  0  0  0  0  0  0  0  0  0  0  0
   39.2210   23.8520   39.6230 F   0  0  0  0  0  0  0  0  0  0  0  0
   37.3690   22.8630   38.8610 F   0  0  0  0  0  0  0  0  0  0  0  0
   37.9800   24.9740   38.1950 F   0  0  0  0  0  0  0  0  0  0  0  0
   40.8564   22.3767   38.7043 H   0  0  0  0  0  0  0  0  0  0  0  0
   37.8466   23.7012   35.8638 H   0  0  0  0  0  0  0  0  0  0  0  0
   41.1696   21.6063   33.3604 H   0  0  0  0  0  0  0  0  0  0  0  0
   44.7003   20.4721   33.7150 H   0  0  0  0  0  0  0  0  0  0  0  0
   43.6367   21.4613   32.6793 H   0  0  0  0  0  0  0  0  0  0  0  0
  2  1  2  0
  2 12  1  0
  3  2  1  0
  4  5  1  0
  4  3  2  0
  5  6  2  0
  6  1  1  0
  7  8  1  0
  7  5  1  0
  8  9  2  0
  9 11  1  0
 10  8  1  0
 12 14  1  0
 12 13  1  0
 15 12  1  0
  1 16  1  0
  3 17  1  0
  7 18  1  0
 10 19  1  0
 10 20  1  0
M  ISO  2  16  14  17  14
M  END
>  <minimizedAffinity>  (1) 
-4.15684319

>  <minimizedRMSD>  (1) 
0.04041728

$$$$
