
     RDKit          3D

 19 20  0  0  0  0  0  0  0  0999 V2000
   40.5030   22.5040   37.6980 C   0  0  0  0  0  0  0  0  0  0  0  0
   39.2590   23.1040   37.4540 C   0  0  0  0  0  0  0  0  0  0  0  0
   38.8050   23.1560   36.1390 C   0  0  0  0  0  0  0  0  0  0  0  0
   39.5850   22.6240   35.1490 N   0  0  0  0  0  0  0  0  0  0  0  0
   40.7860   22.0520   35.4340 C   0  0  0  0  0  0  0  0  0  0  0  0
   41.2280   22.0010   36.7070 N   0  0  0  0  0  0  0  0  0  0  0  0
   41.5930   21.5000   34.3980 N   0  0  0  0  0  0  0  0  0  0  0  0
   41.6490   21.6420   33.0550 C   0  0  0  0  0  0  0  0  0  0  0  0
   42.6260   20.8660   32.5670 N   0  0  0  0  0  0  0  0  0  0  0  0
   43.1850   20.2350   33.6090 C   0  0  0  0  0  0  0  0  0  0  0  0
   42.5510   20.6270   34.7140 N   0  0  0  0  0  0  0  0  0  0  0  0
   38.3890   23.6940   38.5280 C   0  0  0  0  0  0  0  0  0  0  0  0
   39.2090   23.8680   39.6410 F   0  0  0  0  0  0  0  0  0  0  0  0
   37.3680   22.8580   38.8790 F   0  0  0  0  0  0  0  0  0  0  0  0
   37.9720   24.9770   38.1860 F   0  0  0  0  0  0  0  0  0  0  0  0
   40.8841   22.4495   38.7284 H   0  0  0  0  0  0  0  0  0  0  0  0
   37.8353   23.6171   35.9000 H   0  0  0  0  0  0  0  0  0  0  0  0
   40.9948   22.2929   32.4564 H   0  0  0  0  0  0  0  0  0  0  0  0
   44.0195   19.5200   33.5608 H   0  0  0  0  0  0  0  0  0  0  0  0
  2  1  2  0
  2 12  1  0
  3  2  1  0
  4  5  1  0
  4  3  2  0
  5  6  2  0
  6  1  1  0
  7 11  1  0
  7  5  1  0
  8  7  1  0
  9  8  2  0
  9 10  1  0
 10 11  2  0
 12 14  1  0
 12 13  1  0
 15 12  1  0
  1 16  1  0
  3 17  1  0
  8 18  1  0
 10 19  1  0
M  ISO  4  16  14  17  14  18  14  19  14
M  END
>  <minimizedAffinity>  (1) 
-4.12890339

>  <minimizedRMSD>  (1) 
0.0678884983

$$$$
