
     RDKit          3D

 41 45  0  0  1  0  0  0  0  0999 V2000
   37.0480   25.2830   30.9580 C   0  0  0  0  0  0  0  0  0  0  0  0
   35.7190   25.5570   31.1480 C   0  0  0  0  0  0  0  0  0  0  0  0
   35.0560   24.3570   31.2340 C   0  0  0  0  0  0  0  0  0  0  0  0
   35.9970   23.3790   31.0930 N   0  0  0  0  0  0  0  0  0  0  0  0
   37.1620   23.9200   30.9320 N   0  0  0  0  0  0  0  0  0  0  0  0
   35.7020   21.9480   31.1250 C   0  0  2  0  0  0  0  0  0  0  0  0
   34.7660   21.4940   32.1970 C   0  0  0  0  0  0  0  0  0  0  0  0
   36.2180   21.1790   32.3310 C   0  0  1  0  0  0  0  0  0  0  0  0
   36.5190   19.7480   32.2640 C   0  0  0  0  0  0  0  0  0  0  0  0
   35.3960   19.0020   32.4890 N   0  0  0  0  0  0  0  0  0  0  0  0
   35.4130   17.6470   32.4370 C   0  0  0  0  0  0  0  0  0  0  0  0
   36.5780   16.9990   32.1550 N   0  0  0  0  0  0  0  0  0  0  0  0
   37.7120   17.6840   31.9270 C   0  0  0  0  0  0  0  0  0  0  0  0
   38.9420   17.1260   31.6450 C   0  0  0  0  0  0  0  0  0  0  0  0
   40.0600   17.9380   31.4360 C   0  0  0  0  0  0  0  0  0  0  0  0
   39.9840   19.3320   31.5040 C   0  0  0  0  0  0  0  0  0  0  0  0
   38.7560   19.8830   31.7850 C   0  0  0  0  0  0  0  0  0  0  0  0
   37.6770   19.0600   31.9830 C   0  0  0  0  0  0  0  0  0  0  0  0
   37.9490   26.3300   30.8370 O   0  0  0  0  0  0  0  0  0  0  0  0
   38.9510   26.5280   31.7660 C   0  0  0  0  0  0  0  0  0  0  0  0
   40.0810   26.4160   31.2570 O   0  0  0  0  0  0  0  0  0  0  0  0
   39.5930   26.8400   35.3120 C   0  0  0  0  0  0  0  0  0  0  0  0
   38.4340   27.3650   35.8520 C   0  0  0  0  0  0  0  0  0  0  0  0
   37.3920   27.6170   34.9400 C   0  0  0  0  0  0  0  0  0  0  0  0
   37.5600   27.3460   33.6170 N   0  0  0  0  0  0  0  0  0  0  0  0
   38.7380   26.8290   33.1720 C   0  0  0  0  0  0  0  0  0  0  0  0
   39.7220   26.5880   34.0170 N   0  0  0  0  0  0  0  0  0  0  0  0
   35.2653   26.5566   31.2188 H   0  0  0  0  0  0  0  0  0  0  0  0
   33.9763   24.2126   31.3868 H   0  0  0  0  0  0  0  0  0  0  0  0
   35.7646   21.8238   30.0338 H   0  0  0  0  0  0  0  0  0  0  0  0
   34.3029   22.2331   32.8673 H   0  0  0  0  0  0  0  0  0  0  0  0
   33.8432   20.8955   32.2114 H   0  0  0  0  0  0  0  0  0  0  0  0
   37.0473   21.3743   33.0268 H   0  0  0  0  0  0  0  0  0  0  0  0
   34.4920   17.0745   32.6213 H   0  0  0  0  0  0  0  0  0  0  0  0
   39.0435   16.0324   31.5842 H   0  0  0  0  0  0  0  0  0  0  0  0
   41.0280   17.4663   31.2114 H   0  0  0  0  0  0  0  0  0  0  0  0
   40.8703   19.9624   31.3395 H   0  0  0  0  0  0  0  0  0  0  0  0
   38.6400   20.9749   31.8504 H   0  0  0  0  0  0  0  0  0  0  0  0
   40.4389   26.6235   35.9810 H   0  0  0  0  0  0  0  0  0  0  0  0
   38.3323   27.5729   36.9274 H   0  0  0  0  0  0  0  0  0  0  0  0
   36.4391   28.0342   35.2977 H   0  0  0  0  0  0  0  0  0  0  0  0
  1  2  1  0
  2  3  2  0
  4  6  1  0
  4  3  1  0
  5  1  2  0
  5  4  1  0
  6  7  1  0
  6  8  1  0
  7  8  1  0
  9  8  1  0
  9 10  2  0
 11 10  1  0
 12 11  2  0
 13 18  2  0
 13 12  1  0
 14 13  1  0
 15 16  1  0
 15 14  2  0
 16 17  2  0
 17 18  1  0
 18  9  1  0
 19  1  1  0
 19 20  1  0
 20 26  1  0
 21 20  2  0
 22 23  2  0
 24 23  1  0
 25 24  2  0
 26 25  1  0
 26 27  2  0
 27 22  1  0
  2 28  1  0
  3 29  1  0
  6 30  1  6
  7 31  1  0
  7 32  1  0
  8 33  1  1
 11 34  1  0
 14 35  1  0
 15 36  1  0
 16 37  1  0
 17 38  1  0
 22 39  1  0
 23 40  1  0
 24 41  1  0
M  ISO  8  28  14  29  14  30  13  31  13  32  13  33  13  34  14  35  14
M  ISO  6  36  14  37  14  38  14  39  14  40  14  41  14
M  END
>  <minimizedAffinity>  (1) 
-5.25455999

>  <minimizedRMSD>  (1) 
5.20518303

$$$$
