
     RDKit          3D

 40 43  0  0  1  0  0  0  0  0999 V2000
   37.4600   23.1680   32.9130 C   0  0  0  0  0  0  0  0  0  0  0  0
   36.7560   23.7070   31.8650 C   0  0  0  0  0  0  0  0  0  0  0  0
   35.7260   22.8400   31.5500 C   0  0  0  0  0  0  0  0  0  0  0  0
   35.8400   21.7960   32.4220 N   0  0  0  0  0  0  0  0  0  0  0  0
   36.8520   21.9870   33.2180 N   0  0  0  0  0  0  0  0  0  0  0  0
   34.9420   20.6550   32.4310 C   0  0  2  0  0  0  0  0  0  0  0  0
   35.4270   19.4130   33.1290 C   0  0  0  0  0  0  0  0  0  0  0  0
   35.3990   19.4100   31.6470 C   0  0  2  0  0  0  0  0  0  0  0  0
   36.7140   19.4770   30.9100 C   0  0  0  0  0  0  0  0  0  0  0  0
   36.5800   19.2340   29.4390 C   0  0  0  0  0  0  0  0  0  0  0  0
   37.0580   17.8010   29.1750 C   0  0  0  0  0  0  0  0  0  0  0  0
   38.1570   17.6680   30.1970 C   0  0  0  0  0  0  0  0  0  0  0  0
   37.5410   18.3090   31.4200 C   0  0  0  0  0  0  0  0  0  0  0  0
   38.5590   23.8560   33.4230 O   0  0  0  0  0  0  0  0  0  0  0  0
   39.3530   23.2980   34.4100 C   0  0  0  0  0  0  0  0  0  0  0  0
   40.3530   22.7040   33.9240 O   0  0  0  0  0  0  0  0  0  0  0  0
   39.7750   22.8300   37.9780 C   0  0  0  0  0  0  0  0  0  0  0  0
   38.6780   23.4630   38.5380 C   0  0  0  0  0  0  0  0  0  0  0  0
   37.7690   24.0650   37.6680 C   0  0  0  0  0  0  0  0  0  0  0  0
   38.0100   23.9990   36.3300 N   0  0  0  0  0  0  0  0  0  0  0  0
   39.1040   23.3650   35.8390 C   0  0  0  0  0  0  0  0  0  0  0  0
   39.9670   22.7920   36.6600 N   0  0  0  0  0  0  0  0  0  0  0  0
   36.9733   24.6616   31.3636 H   0  0  0  0  0  0  0  0  0  0  0  0
   34.9709   22.9656   30.7601 H   0  0  0  0  0  0  0  0  0  0  0  0
   34.0350   21.2763   32.4686 H   0  0  0  0  0  0  0  0  0  0  0  0
   36.3930   19.4265   33.6549 H   0  0  0  0  0  0  0  0  0  0  0  0
   35.0048   18.7562   33.9038 H   0  0  0  0  0  0  0  0  0  0  0  0
   34.9508   18.7650   30.8769 H   0  0  0  0  0  0  0  0  0  0  0  0
   37.1413   20.4775   31.0726 H   0  0  0  0  0  0  0  0  0  0  0  0
   35.5294   19.3442   29.1322 H   0  0  0  0  0  0  0  0  0  0  0  0
   37.1772   19.9585   28.8658 H   0  0  0  0  0  0  0  0  0  0  0  0
   36.2550   17.0695   29.3486 H   0  0  0  0  0  0  0  0  0  0  0  0
   37.3787   17.6149   28.1394 H   0  0  0  0  0  0  0  0  0  0  0  0
   38.4028   16.6119   30.3821 H   0  0  0  0  0  0  0  0  0  0  0  0
   39.1046   18.1326   29.8869 H   0  0  0  0  0  0  0  0  0  0  0  0
   38.3274   18.6662   32.1012 H   0  0  0  0  0  0  0  0  0  0  0  0
   36.9230   17.5930   31.9817 H   0  0  0  0  0  0  0  0  0  0  0  0
   40.5081   22.3452   38.6395 H   0  0  0  0  0  0  0  0  0  0  0  0
   38.5291   23.4900   39.6275 H   0  0  0  0  0  0  0  0  0  0  0  0
   36.8778   24.5813   38.0543 H   0  0  0  0  0  0  0  0  0  0  0  0
  1  5  2  0
  1 14  1  0
  2  1  1  0
  3  2  2  0
  3  4  1  0
  4  6  1  0
  4  5  1  0
  6  7  1  0
  8  6  1  0
  8  7  1  0
  9 13  1  0
  9  8  1  0
 10  9  1  0
 11 10  1  0
 11 12  1  0
 12 13  1  0
 14 15  1  0
 15 21  1  0
 16 15  2  0
 17 18  2  0
 19 18  1  0
 20 19  2  0
 21 20  1  0
 21 22  2  0
 22 17  1  0
  2 23  1  0
  3 24  1  0
  6 25  1  1
  7 26  1  0
  7 27  1  0
  8 28  1  1
  9 29  1  0
 10 30  1  0
 10 31  1  0
 11 32  1  0
 11 33  1  0
 12 34  1  0
 12 35  1  0
 13 36  1  0
 13 37  1  0
 17 38  1  0
 18 39  1  0
 19 40  1  0
M  ISO  8  23  14  24  14  25  13  26  13  27  13  28  13  29  13  30  13
M  ISO  8  31  13  32  13  33  13  34  13  35  13  36  13  37  13  38  14
M  ISO  2  39  14  40  14
M  END
>  <minimizedAffinity>  (1) 
-4.93224144

>  <minimizedRMSD>  (1) 
2.62276793

$$$$
