
     RDKit          3D

 41 45  0  0  1  0  0  0  0  0999 V2000
   37.0700   22.6700   32.8080 C   0  0  0  0  0  0  0  0  0  0  0  0
   36.4840   23.0570   31.6340 C   0  0  0  0  0  0  0  0  0  0  0  0
   35.6280   22.0420   31.2350 C   0  0  0  0  0  0  0  0  0  0  0  0
   35.7230   21.0730   32.1780 N   0  0  0  0  0  0  0  0  0  0  0  0
   36.5680   21.4320   33.1070 N   0  0  0  0  0  0  0  0  0  0  0  0
   34.9770   19.8200   32.1250 C   0  0  2  0  0  0  0  0  0  0  0  0
   35.6400   18.6320   32.7320 C   0  0  0  0  0  0  0  0  0  0  0  0
   35.5870   18.6840   31.2720 C   0  0  2  0  0  0  0  0  0  0  0  0
   36.7570   18.9880   30.4630 C   0  0  0  0  0  0  0  0  0  0  0  0
   36.6110   19.1350   29.0930 C   0  0  0  0  0  0  0  0  0  0  0  0
   37.8330   19.3850   28.5390 N   0  0  0  0  0  0  0  0  0  0  0  0
   38.7960   19.4090   29.5070 C   0  0  0  0  0  0  0  0  0  0  0  0
   40.1520   19.6220   29.4980 C   0  0  0  0  0  0  0  0  0  0  0  0
   40.7680   19.5750   30.7350 C   0  0  0  0  0  0  0  0  0  0  0  0
   40.1210   19.3310   31.9430 C   0  0  0  0  0  0  0  0  0  0  0  0
   38.7750   19.1230   31.9190 C   0  0  0  0  0  0  0  0  0  0  0  0
   38.1200   19.1650   30.6810 C   0  0  0  0  0  0  0  0  0  0  0  0
   37.9720   23.5270   33.4060 O   0  0  0  0  0  0  0  0  0  0  0  0
   38.9160   23.0540   34.3110 C   0  0  0  0  0  0  0  0  0  0  0  0
   39.8830   22.4740   33.7350 O   0  0  0  0  0  0  0  0  0  0  0  0
   39.7940   22.7790   37.8180 C   0  0  0  0  0  0  0  0  0  0  0  0
   38.7480   23.4160   38.4820 C   0  0  0  0  0  0  0  0  0  0  0  0
   37.7210   23.9500   37.6980 C   0  0  0  0  0  0  0  0  0  0  0  0
   37.7710   23.8340   36.3370 N   0  0  0  0  0  0  0  0  0  0  0  0
   38.8300   23.1960   35.7540 C   0  0  0  0  0  0  0  0  0  0  0  0
   39.8160   22.6820   36.4910 N   0  0  0  0  0  0  0  0  0  0  0  0
   36.6603   24.0036   31.1021 H   0  0  0  0  0  0  0  0  0  0  0  0
   34.9978   22.0262   30.3335 H   0  0  0  0  0  0  0  0  0  0  0  0
   33.9951   20.3096   32.2035 H   0  0  0  0  0  0  0  0  0  0  0  0
   36.6064   18.7540   33.2430 H   0  0  0  0  0  0  0  0  0  0  0  0
   35.3259   17.8857   33.4765 H   0  0  0  0  0  0  0  0  0  0  0  0
   35.2411   17.9798   30.5010 H   0  0  0  0  0  0  0  0  0  0  0  0
   35.6626   19.0619   28.5406 H   0  0  0  0  0  0  0  0  0  0  0  0
   38.0044   19.5342   27.5344 H   0  0  0  0  0  0  0  0  0  0  0  0
   40.7103   19.8167   28.5704 H   0  0  0  0  0  0  0  0  0  0  0  0
   41.8545   19.7437   30.7669 H   0  0  0  0  0  0  0  0  0  0  0  0
   40.6805   19.3068   32.8898 H   0  0  0  0  0  0  0  0  0  0  0  0
   38.2172   18.9273   32.8467 H   0  0  0  0  0  0  0  0  0  0  0  0
   40.6193   22.3470   38.4031 H   0  0  0  0  0  0  0  0  0  0  0  0
   38.7308   23.4956   39.5790 H   0  0  0  0  0  0  0  0  0  0  0  0
   36.8735   24.4630   38.1760 H   0  0  0  0  0  0  0  0  0  0  0  0
  1  5  2  0
  1 18  1  0
  2  1  1  0
  3  2  2  0
  3  4  1  0
  4  5  1  0
  6  4  1  0
  6  7  1  0
  8  6  1  0
  8  7  1  0
  9 17  1  0
  9  8  1  0
 10  9  2  0
 11 10  1  0
 11 12  1  0
 12 17  2  0
 13 12  1  0
 13 14  2  0
 14 15  1  0
 16 15  2  0
 17 16  1  0
 18 19  1  0
 19 25  1  0
 20 19  2  0
 21 22  2  0
 23 22  1  0
 24 23  2  0
 25 24  1  0
 25 26  2  0
 26 21  1  0
  2 27  1  0
  3 28  1  0
  6 29  1  1
  7 30  1  0
  7 31  1  0
  8 32  1  6
 10 33  1  0
 11 34  1  0
 13 35  1  0
 14 36  1  0
 15 37  1  0
 16 38  1  0
 21 39  1  0
 22 40  1  0
 23 41  1  0
M  ISO  8  27  14  28  14  29  13  30  13  31  13  32  13  33  14  34   9
M  ISO  7  35  14  36  14  37  14  38  14  39  14  40  14  41  14
M  END
>  <minimizedAffinity>  (1) 
-4.8559494

>  <minimizedRMSD>  (1) 
2.99184322

$$$$
