
     RDKit          3D

 34 37  0  0  1  0  0  0  0  0999 V2000
   37.2460   23.1500   32.8420 C   0  0  0  0  0  0  0  0  0  0  0  0
   36.5860   23.6180   31.7260 C   0  0  0  0  0  0  0  0  0  0  0  0
   35.6370   22.6780   31.3750 C   0  0  0  0  0  0  0  0  0  0  0  0
   35.7320   21.6750   32.2630 N   0  0  0  0  0  0  0  0  0  0  0  0
   36.6620   21.9540   33.1080 N   0  0  0  0  0  0  0  0  0  0  0  0
   34.9370   20.4770   32.2710 C   0  0  2  0  0  0  0  0  0  0  0  0
   35.4440   19.2910   33.0440 C   0  0  0  0  0  0  0  0  0  0  0  0
   35.4670   19.2240   31.5790 C   0  0  2  0  0  0  0  0  0  0  0  0
   36.6930   19.3340   30.7920 C   0  0  0  0  0  0  0  0  0  0  0  0
   36.5950   19.1700   29.4020 C   0  0  0  0  0  0  0  0  0  0  0  0
   37.8570   19.3050   28.8170 C   0  0  0  0  0  0  0  0  0  0  0  0
   38.6710   19.5480   29.8920 C   0  0  0  0  0  0  0  0  0  0  0  0
   37.9500   19.5510   30.9760 O   0  0  0  0  0  0  0  0  0  0  0  0
   38.2570   23.9090   33.4040 O   0  0  0  0  0  0  0  0  0  0  0  0
   39.1350   23.3760   34.3250 C   0  0  0  0  0  0  0  0  0  0  0  0
   40.1150   22.8460   33.7680 O   0  0  0  0  0  0  0  0  0  0  0  0
   39.7560   22.8290   37.8500 C   0  0  0  0  0  0  0  0  0  0  0  0
   38.6990   23.4420   38.5000 C   0  0  0  0  0  0  0  0  0  0  0  0
   37.7390   24.0660   37.6890 C   0  0  0  0  0  0  0  0  0  0  0  0
   37.8800   24.0460   36.3280 N   0  0  0  0  0  0  0  0  0  0  0  0
   38.9550   23.4170   35.7630 C   0  0  0  0  0  0  0  0  0  0  0  0
   39.8660   22.8250   36.5270 N   0  0  0  0  0  0  0  0  0  0  0  0
   36.7802   24.5689   31.2082 H   0  0  0  0  0  0  0  0  0  0  0  0
   34.9366   22.7392   30.5290 H   0  0  0  0  0  0  0  0  0  0  0  0
   34.0059   21.0613   32.2295 H   0  0  0  0  0  0  0  0  0  0  0  0
   36.3896   19.3673   33.6009 H   0  0  0  0  0  0  0  0  0  0  0  0
   35.0215   18.6532   33.8344 H   0  0  0  0  0  0  0  0  0  0  0  0
   35.0917   18.4818   30.8591 H   0  0  0  0  0  0  0  0  0  0  0  0
   35.6633   18.9656   28.8541 H   0  0  0  0  0  0  0  0  0  0  0  0
   38.1300   19.2336   27.7538 H   0  0  0  0  0  0  0  0  0  0  0  0
   39.7575   19.7137   29.8465 H   0  0  0  0  0  0  0  0  0  0  0  0
   40.5307   22.3285   38.4495 H   0  0  0  0  0  0  0  0  0  0  0  0
   38.6157   23.4401   39.5968 H   0  0  0  0  0  0  0  0  0  0  0  0
   36.8749   24.5702   38.1462 H   0  0  0  0  0  0  0  0  0  0  0  0
  1  5  2  0
  1 14  1  0
  2  1  1  0
  3  2  2  0
  3  4  1  0
  4  6  1  0
  4  5  1  0
  6  7  1  0
  8  6  1  0
  8  7  1  0
  9 13  1  0
  9  8  1  0
 10  9  2  0
 11 10  1  0
 11 12  2  0
 12 13  1  0
 14 15  1  0
 15 21  1  0
 16 15  2  0
 17 18  2  0
 19 18  1  0
 20 19  2  0
 21 20  1  0
 21 22  2  0
 22 17  1  0
  2 23  1  0
  3 24  1  0
  6 25  1  1
  7 26  1  0
  7 27  1  0
  8 28  1  1
 10 29  1  0
 11 30  1  0
 12 31  1  0
 17 32  1  0
 18 33  1  0
 19 34  1  0
M  ISO  8  23  14  24  14  25  13  26  13  27  13  28  13  29  14  30  14
M  ISO  4  31  14  32  14  33  14  34  14
M  END
>  <minimizedAffinity>  (1) 
-4.84742403

>  <minimizedRMSD>  (1) 
2.2829752

$$$$
