
     RDKit          3D

 35 38  0  0  1  0  0  0  0  0999 V2000
   36.8140   21.0220   33.1310 C   0  0  0  0  0  0  0  0  0  0  0  0
   35.6640   20.4270   33.6290 C   0  0  0  0  0  0  0  0  0  0  0  0
   35.3950   19.3260   32.8510 C   0  0  0  0  0  0  0  0  0  0  0  0
   36.3670   19.2730   31.9120 N   0  0  0  0  0  0  0  0  0  0  0  0
   37.2080   20.2680   32.0660 N   0  0  0  0  0  0  0  0  0  0  0  0
   36.4590   18.2540   30.8810 C   0  0  2  0  0  0  0  0  0  0  0  0
   37.8240   17.7340   30.5420 C   0  0  0  0  0  0  0  0  0  0  0  0
   37.1500   18.6350   29.5700 C   0  0  1  0  0  0  0  0  0  0  0  0
   36.6310   18.1080   28.2950 C   0  0  0  0  0  0  0  0  0  0  0  0
   36.5370   16.7500   28.0620 C   0  0  0  0  0  0  0  0  0  0  0  0
   36.0370   16.3400   26.8350 C   0  0  0  0  0  0  0  0  0  0  0  0
   35.6510   17.2110   25.8890 N   0  0  0  0  0  0  0  0  0  0  0  0
   35.7520   18.5320   26.1440 C   0  0  0  0  0  0  0  0  0  0  0  0
   36.2270   18.9610   27.3080 N   0  0  0  0  0  0  0  0  0  0  0  0
   37.3100   22.1700   33.7430 O   0  0  0  0  0  0  0  0  0  0  0  0
   38.4710   22.1380   34.4940 C   0  0  0  0  0  0  0  0  0  0  0  0
   39.4380   21.7100   33.8320 O   0  0  0  0  0  0  0  0  0  0  0  0
   39.9230   22.7440   37.7640 C   0  0  0  0  0  0  0  0  0  0  0  0
   38.8930   23.2860   38.5040 C   0  0  0  0  0  0  0  0  0  0  0  0
   37.6710   23.4460   37.8610 C   0  0  0  0  0  0  0  0  0  0  0  0
   37.5100   23.0790   36.5540 N   0  0  0  0  0  0  0  0  0  0  0  0
   38.5850   22.5470   35.8860 C   0  0  0  0  0  0  0  0  0  0  0  0
   39.7590   22.3890   36.4910 N   0  0  0  0  0  0  0  0  0  0  0  0
   35.0742   20.7735   34.4904 H   0  0  0  0  0  0  0  0  0  0  0  0
   34.5547   18.6260   32.9689 H   0  0  0  0  0  0  0  0  0  0  0  0
   35.4938   17.8052   31.1583 H   0  0  0  0  0  0  0  0  0  0  0  0
   38.6994   18.0936   31.1027 H   0  0  0  0  0  0  0  0  0  0  0  0
   38.2694   16.7302   30.4776 H   0  0  0  0  0  0  0  0  0  0  0  0
   37.4219   19.5758   29.0691 H   0  0  0  0  0  0  0  0  0  0  0  0
   36.8478   16.0191   28.8230 H   0  0  0  0  0  0  0  0  0  0  0  0
   35.9537   15.2626   26.6296 H   0  0  0  0  0  0  0  0  0  0  0  0
   35.4383   19.2601   25.3814 H   0  0  0  0  0  0  0  0  0  0  0  0
   40.9055   22.6012   38.2376 H   0  0  0  0  0  0  0  0  0  0  0  0
   39.0322   23.5784   39.5553 H   0  0  0  0  0  0  0  0  0  0  0  0
   36.8208   23.8743   38.4121 H   0  0  0  0  0  0  0  0  0  0  0  0
  1  2  1  0
  1 15  1  0
  3  2  2  0
  4  5  1  0
  4  3  1  0
  5  1  2  0
  6  4  1  0
  7  6  1  0
  8  7  1  0
  8  6  1  0
  9  8  1  0
 10  9  2  0
 11 10  1  0
 12 13  1  0
 12 11  2  0
 13 14  2  0
 14  9  1  0
 15 16  1  0
 16 22  1  0
 17 16  2  0
 18 19  2  0
 20 19  1  0
 21 20  2  0
 22 23  2  0
 22 21  1  0
 23 18  1  0
  2 24  1  0
  3 25  1  0
  6 26  1  6
  7 27  1  0
  7 28  1  0
  8 29  1  6
 10 30  1  0
 11 31  1  0
 13 32  1  0
 18 33  1  0
 19 34  1  0
 20 35  1  0
M  ISO  8  24  14  25  14  26  13  27  13  28  13  29  13  30  14  31  14
M  ISO  4  32  14  33  14  34  14  35  14
M  END
>  <minimizedAffinity>  (1) 
-4.8371911

>  <minimizedRMSD>  (1) 
0.689661741

$$$$
