
     RDKit          3D

 34 37  0  0  1  0  0  0  0  0999 V2000
   36.7920   21.0870   33.2040 C   0  0  0  0  0  0  0  0  0  0  0  0
   35.6740   20.5020   33.7640 C   0  0  0  0  0  0  0  0  0  0  0  0
   35.3670   19.3850   33.0140 C   0  0  0  0  0  0  0  0  0  0  0  0
   36.2870   19.3090   32.0240 N   0  0  0  0  0  0  0  0  0  0  0  0
   37.1190   20.2990   32.1320 N   0  0  0  0  0  0  0  0  0  0  0  0
   36.3230   18.2780   31.0120 C   0  0  2  0  0  0  0  0  0  0  0  0
   37.6270   17.6020   30.7490 C   0  0  0  0  0  0  0  0  0  0  0  0
   37.1490   18.5890   29.7420 C   0  0  1  0  0  0  0  0  0  0  0  0
   36.7100   18.0520   28.4740 C   0  0  0  0  0  0  0  0  0  0  0  0
   36.2870   18.7590   27.2920 C   0  0  0  0  0  0  0  0  0  0  0  0
   35.9140   18.0500   26.2070 C   0  0  0  0  0  0  0  0  0  0  0  0
   35.9650   16.5890   26.3070 C   0  0  0  0  0  0  0  0  0  0  0  0
   36.5910   16.3720   28.0840 S   0  0  0  0  0  0  0  0  0  0  0  0
   37.3060   22.2340   33.7790 O   0  0  0  0  0  0  0  0  0  0  0  0
   38.4820   22.1890   34.5280 C   0  0  0  0  0  0  0  0  0  0  0  0
   39.4650   21.7610   33.8580 O   0  0  0  0  0  0  0  0  0  0  0  0
   39.9290   22.7600   37.7880 C   0  0  0  0  0  0  0  0  0  0  0  0
   38.8970   23.2950   38.5450 C   0  0  0  0  0  0  0  0  0  0  0  0
   37.6770   23.4590   37.9030 C   0  0  0  0  0  0  0  0  0  0  0  0
   37.5260   23.1030   36.5940 N   0  0  0  0  0  0  0  0  0  0  0  0
   38.5810   22.5850   35.9190 C   0  0  0  0  0  0  0  0  0  0  0  0
   39.7470   22.4240   36.5160 N   0  0  0  0  0  0  0  0  0  0  0  0
   35.1269   20.8612   34.6481 H   0  0  0  0  0  0  0  0  0  0  0  0
   34.5332   18.6888   33.1877 H   0  0  0  0  0  0  0  0  0  0  0  0
   35.3006   17.9368   31.2317 H   0  0  0  0  0  0  0  0  0  0  0  0
   38.4994   17.8432   31.3741 H   0  0  0  0  0  0  0  0  0  0  0  0
   37.9436   16.5499   30.6953 H   0  0  0  0  0  0  0  0  0  0  0  0
   37.5342   19.5099   29.2798 H   0  0  0  0  0  0  0  0  0  0  0  0
   36.2686   19.8587   27.2748 H   0  0  0  0  0  0  0  0  0  0  0  0
   35.5845   18.5488   25.2836 H   0  0  0  0  0  0  0  0  0  0  0  0
   35.7099   15.8264   25.5564 H   0  0  0  0  0  0  0  0  0  0  0  0
   40.9163   22.6113   38.2497 H   0  0  0  0  0  0  0  0  0  0  0  0
   39.0380   23.5748   39.5994 H   0  0  0  0  0  0  0  0  0  0  0  0
   36.8236   23.8800   38.4547 H   0  0  0  0  0  0  0  0  0  0  0  0
  1  2  1  0
  1 14  1  0
  3  2  2  0
  4  5  1  0
  4  3  1  0
  5  1  2  0
  6  4  1  0
  7  6  1  0
  8  7  1  0
  8  6  1  0
  9  8  1  0
 10  9  2  0
 11 12  2  0
 11 10  1  0
 12 13  1  0
 13  9  1  0
 14 15  1  0
 15 21  1  0
 16 15  2  0
 17 18  2  0
 19 18  1  0
 20 19  2  0
 21 22  2  0
 21 20  1  0
 22 17  1  0
  2 23  1  0
  3 24  1  0
  6 25  1  6
  7 26  1  0
  7 27  1  0
  8 28  1  6
 10 29  1  0
 11 30  1  0
 12 31  1  0
 17 32  1  0
 18 33  1  0
 19 34  1  0
M  ISO  8  23  14  24  14  25  13  26  13  27  13  28  13  29  14  30  14
M  ISO  4  31  14  32  14  33  14  34  14
M  END
>  <minimizedAffinity>  (1) 
-4.77416611

>  <minimizedRMSD>  (1) 
0.654416323

$$$$
