
     RDKit          3D

 37 40  0  0  1  0  0  0  0  0999 V2000
   36.9480   22.6430   32.8390 C   0  0  0  0  0  0  0  0  0  0  0  0
   36.4680   23.0410   31.6200 C   0  0  0  0  0  0  0  0  0  0  0  0
   35.6620   22.0140   31.1460 C   0  0  0  0  0  0  0  0  0  0  0  0
   35.6810   21.0450   32.0800 N   0  0  0  0  0  0  0  0  0  0  0  0
   36.4370   21.3970   33.0910 N   0  0  0  0  0  0  0  0  0  0  0  0
   34.9630   19.7890   31.9760 C   0  0  2  0  0  0  0  0  0  0  0  0
   35.3680   18.6790   32.9120 C   0  0  0  0  0  0  0  0  0  0  0  0
   35.7390   18.5600   31.4930 C   0  0  2  0  0  0  0  0  0  0  0  0
   37.0710   18.8200   31.0010 N   0  0  0  0  0  0  0  0  0  0  0  0
   38.0800   18.7510   31.8980 C   0  0  0  0  0  0  0  0  0  0  0  0
   39.3910   18.9950   31.4730 C   0  0  0  0  0  0  0  0  0  0  0  0
   39.6270   19.3000   30.1480 C   0  0  0  0  0  0  0  0  0  0  0  0
   40.7940   19.5340   29.6880 O   0  0  0  0  0  0  0  0  0  0  0  0
   38.5850   19.3600   29.2770 N   0  0  0  0  0  0  0  0  0  0  0  0
   37.3230   19.1210   29.7060 C   0  0  0  0  0  0  0  0  0  0  0  0
   36.3490   19.1730   28.9150 O   0  0  0  0  0  0  0  0  0  0  0  0
   37.7950   23.4920   33.5490 O   0  0  0  0  0  0  0  0  0  0  0  0
   38.7550   22.9890   34.4030 C   0  0  0  0  0  0  0  0  0  0  0  0
   39.6630   22.3820   33.7750 O   0  0  0  0  0  0  0  0  0  0  0  0
   39.8810   22.7880   37.8480 C   0  0  0  0  0  0  0  0  0  0  0  0
   38.8520   23.3290   38.5860 C   0  0  0  0  0  0  0  0  0  0  0  0
   37.7290   23.7790   37.8680 C   0  0  0  0  0  0  0  0  0  0  0  0
   37.6930   23.6710   36.5060 N   0  0  0  0  0  0  0  0  0  0  0  0
   38.7530   23.1230   35.8530 C   0  0  0  0  0  0  0  0  0  0  0  0
   39.8240   22.6920   36.5170 N   0  0  0  0  0  0  0  0  0  0  0  0
   36.6804   23.9935   31.1124 H   0  0  0  0  0  0  0  0  0  0  0  0
   35.1143   21.9960   30.1922 H   0  0  0  0  0  0  0  0  0  0  0  0
   34.0228   20.2870   31.6968 H   0  0  0  0  0  0  0  0  0  0  0  0
   36.1485   18.8596   33.6658 H   0  0  0  0  0  0  0  0  0  0  0  0
   34.8238   18.0353   33.6187 H   0  0  0  0  0  0  0  0  0  0  0  0
   35.6127   17.7408   30.7698 H   0  0  0  0  0  0  0  0  0  0  0  0
   37.8730   18.5058   32.9502 H   0  0  0  0  0  0  0  0  0  0  0  0
   40.2252   18.9441   32.1882 H   0  0  0  0  0  0  0  0  0  0  0  0
   38.7560   19.5881   28.2872 H   0  0  0  0  0  0  0  0  0  0  0  0
   40.7776   22.4236   38.3708 H   0  0  0  0  0  0  0  0  0  0  0  0
   38.9054   23.4055   39.6820 H   0  0  0  0  0  0  0  0  0  0  0  0
   36.8762   24.2197   38.4051 H   0  0  0  0  0  0  0  0  0  0  0  0
  1  5  2  0
  1 17  1  0
  2  1  1  0
  3  2  2  0
  3  4  1  0
  4  5  1  0
  6  4  1  0
  6  7  1  0
  8  6  1  0
  8  7  1  0
  9  8  1  0
  9 10  1  0
 11 10  2  0
 12 11  1  0
 13 12  2  0
 14 15  1  0
 14 12  1  0
 15  9  1  0
 16 15  2  0
 17 18  1  0
 18 24  1  0
 19 18  2  0
 20 21  2  0
 22 21  1  0
 23 22  2  0
 24 23  1  0
 24 25  2  0
 25 20  1  0
  2 26  1  0
  3 27  1  0
  6 28  1  6
  7 29  1  0
  7 30  1  0
  8 31  1  6
 10 32  1  0
 11 33  1  0
 14 34  1  0
 20 35  1  0
 21 36  1  0
 22 37  1  0
M  ISO  8  26  14  27  14  28  13  29  13  30  13  31  13  32  14  33  14
M  ISO  4  34   9  35  14  36  14  37  14
M  END
>  <minimizedAffinity>  (1) 
-4.77026176

>  <minimizedRMSD>  (1) 
2.69141889

$$$$
