
     RDKit          3D

 34 36  0  0  1  0  0  0  0  0999 V2000
   37.3980   23.4740   32.8400 C   0  0  0  0  0  0  0  0  0  0  0  0
   36.6230   24.0520   31.8740 C   0  0  0  0  0  0  0  0  0  0  0  0
   35.6310   23.1410   31.5380 C   0  0  0  0  0  0  0  0  0  0  0  0
   35.8290   22.0470   32.3040 N   0  0  0  0  0  0  0  0  0  0  0  0
   36.8590   22.2440   33.0620 N   0  0  0  0  0  0  0  0  0  0  0  0
   35.0090   20.8650   32.2620 C   0  0  2  0  0  0  0  0  0  0  0  0
   35.5080   19.6490   33.0040 C   0  0  0  0  0  0  0  0  0  0  0  0
   35.5710   19.6360   31.5350 C   0  0  2  0  0  0  0  0  0  0  0  0
   36.9000   19.7310   30.9550 N   0  0  0  0  0  0  0  0  0  0  0  0
   37.1800   19.1270   29.6900 C   0  0  0  0  0  0  0  0  0  0  0  0
   36.3450   18.3300   29.1160 N   0  0  0  0  0  0  0  0  0  0  0  0
   38.4070   19.3900   29.0120 N   0  0  0  0  0  0  0  0  0  0  0  0
   36.5180   17.8720   28.1940 H   0  0  0  0  0  0  0  0  0  0  0  0
   38.4690   24.1800   33.3540 O   0  0  0  0  0  0  0  0  0  0  0  0
   39.3210   23.6240   34.2900 C   0  0  0  0  0  0  0  0  0  0  0  0
   40.3480   23.1580   33.7630 O   0  0  0  0  0  0  0  0  0  0  0  0
   39.7520   22.8270   37.8020 C   0  0  0  0  0  0  0  0  0  0  0  0
   38.6870   23.4280   38.4360 C   0  0  0  0  0  0  0  0  0  0  0  0
   37.7890   24.1320   37.6240 C   0  0  0  0  0  0  0  0  0  0  0  0
   37.9820   24.2050   36.2740 N   0  0  0  0  0  0  0  0  0  0  0  0
   39.0610   23.5830   35.7230 C   0  0  0  0  0  0  0  0  0  0  0  0
   39.9250   22.9080   36.4790 N   0  0  0  0  0  0  0  0  0  0  0  0
   36.7601   25.0544   31.4423 H   0  0  0  0  0  0  0  0  0  0  0  0
   34.8361   23.2831   30.7910 H   0  0  0  0  0  0  0  0  0  0  0  0
   34.0746   21.4443   32.2273 H   0  0  0  0  0  0  0  0  0  0  0  0
   36.4379   19.7113   33.5883 H   0  0  0  0  0  0  0  0  0  0  0  0
   35.0699   18.9784   33.7579 H   0  0  0  0  0  0  0  0  0  0  0  0
   35.1939   18.9831   30.7340 H   0  0  0  0  0  0  0  0  0  0  0  0
   37.6438   20.2359   31.4578 H   0  0  0  0  0  0  0  0  0  0  0  0
   38.5969   18.9486   28.1010 H   0  0  0  0  0  0  0  0  0  0  0  0
   39.1032   20.0213   29.4334 H   0  0  0  0  0  0  0  0  0  0  0  0
   40.4817   22.2637   38.4022 H   0  0  0  0  0  0  0  0  0  0  0  0
   38.5488   23.3585   39.5251 H   0  0  0  0  0  0  0  0  0  0  0  0
   36.9200   24.6309   38.0779 H   0  0  0  0  0  0  0  0  0  0  0  0
  1  5  2  0
  1 14  1  0
  2  1  1  0
  3  2  2  0
  3  4  1  0
  4  5  1  0
  6  4  1  0
  6  7  1  0
  8  6  1  0
  8  7  1  0
  9  8  1  0
 10  9  1  0
 11 10  2  0
 12 10  1  0
 13 11  1  0
 14 15  1  0
 15 21  1  0
 16 15  2  0
 17 18  2  0
 19 18  1  0
 20 19  2  0
 21 20  1  0
 21 22  2  0
 22 17  1  0
  2 23  1  0
  3 24  1  0
  6 25  1  6
  7 26  1  0
  7 27  1  0
  8 28  1  6
  9 29  1  0
 12 30  1  0
 12 31  1  0
 17 32  1  0
 18 33  1  0
 19 34  1  0
M  ISO  8  23  14  24  14  25  13  26  13  27  13  28  13  32  14  33  14
M  ISO  1  34  14
M  END
>  <minimizedAffinity>  (1) 
-4.7604351

>  <minimizedRMSD>  (1) 
2.37059402

$$$$
