
     RDKit          3D

 20 21  0  0  0  0  0  0  0  0999 V2000
   40.5020   22.4920   37.7190 C   0  0  0  0  0  0  0  0  0  0  0  0
   39.2580   23.1030   37.4550 C   0  0  0  0  0  0  0  0  0  0  0  0
   38.8220   23.1430   36.1220 C   0  0  0  0  0  0  0  0  0  0  0  0
   39.6210   22.5940   35.1650 N   0  0  0  0  0  0  0  0  0  0  0  0
   40.8090   22.0160   35.4570 C   0  0  0  0  0  0  0  0  0  0  0  0
   41.2280   21.9740   36.7150 N   0  0  0  0  0  0  0  0  0  0  0  0
   41.6510   21.4410   34.4700 N   0  0  0  0  0  0  0  0  0  0  0  0
   41.5110   21.4520   33.1330 C   0  0  0  0  0  0  0  0  0  0  0  0
   42.6130   20.7460   32.6800 C   0  0  0  0  0  0  0  0  0  0  0  0
   43.3610   20.3410   33.7240 N   0  0  0  0  0  0  0  0  0  0  0  0
   42.7560   20.7780   34.8430 C   0  0  0  0  0  0  0  0  0  0  0  0
   38.3910   23.7020   38.5160 C   0  0  0  0  0  0  0  0  0  0  0  0
   39.1970   23.8750   39.6310 F   0  0  0  0  0  0  0  0  0  0  0  0
   37.3530   22.8780   38.8530 F   0  0  0  0  0  0  0  0  0  0  0  0
   37.9810   24.9850   38.1470 F   0  0  0  0  0  0  0  0  0  0  0  0
   40.8787   22.4397   38.7512 H   0  0  0  0  0  0  0  0  0  0  0  0
   37.8600   23.6057   35.8566 H   0  0  0  0  0  0  0  0  0  0  0  0
   40.7091   21.9136   32.5382 H   0  0  0  0  0  0  0  0  0  0  0  0
   42.8433   20.5456   31.6232 H   0  0  0  0  0  0  0  0  0  0  0  0
   43.1035   20.6206   35.8747 H   0  0  0  0  0  0  0  0  0  0  0  0
  2  1  2  0
  2 12  1  0
  3  2  1  0
  4  5  1  0
  4  3  2  0
  5  6  2  0
  6  1  1  0
  7 11  1  0
  7  5  1  0
  8  7  1  0
  9  8  2  0
  9 10  1  0
 10 11  2  0
 12 14  1  0
 12 13  1  0
 15 12  1  0
  1 16  1  0
  3 17  1  0
  8 18  1  0
  9 19  1  0
 11 20  1  0
M  ISO  5  16  14  17  14  18  14  19  14  20  14
M  END
>  <minimizedAffinity>  (1) 
-4.12728834

>  <minimizedRMSD>  (1) 
0.109797008

$$$$
