
     RDKit          3D

 34 37  0  0  1  0  0  0  0  0999 V2000
   36.8080   21.0400   33.1520 C   0  0  0  0  0  0  0  0  0  0  0  0
   35.6730   20.4380   33.6670 C   0  0  0  0  0  0  0  0  0  0  0  0
   35.4020   19.3280   32.8790 C   0  0  0  0  0  0  0  0  0  0  0  0
   36.3610   19.2910   31.9280 N   0  0  0  0  0  0  0  0  0  0  0  0
   37.1920   20.2880   32.0760 N   0  0  0  0  0  0  0  0  0  0  0  0
   36.4360   18.2710   30.8970 C   0  0  2  0  0  0  0  0  0  0  0  0
   37.8050   17.7170   30.5760 C   0  0  0  0  0  0  0  0  0  0  0  0
   37.1890   18.6460   29.6040 C   0  0  1  0  0  0  0  0  0  0  0  0
   36.6630   18.0170   28.4050 N   0  0  0  0  0  0  0  0  0  0  0  0
   36.4320   16.7450   28.1490 N   0  0  0  0  0  0  0  0  0  0  0  0
   35.9420   16.5660   26.9220 C   0  0  0  0  0  0  0  0  0  0  0  0
   35.8470   17.8300   26.3310 C   0  0  0  0  0  0  0  0  0  0  0  0
   36.3080   18.7060   27.2940 C   0  0  0  0  0  0  0  0  0  0  0  0
   37.2880   22.1860   33.7730 O   0  0  0  0  0  0  0  0  0  0  0  0
   38.4600   22.1550   34.5150 C   0  0  0  0  0  0  0  0  0  0  0  0
   39.4260   21.7310   33.8400 O   0  0  0  0  0  0  0  0  0  0  0  0
   39.9320   22.7470   37.7770 C   0  0  0  0  0  0  0  0  0  0  0  0
   38.8970   23.2910   38.5230 C   0  0  0  0  0  0  0  0  0  0  0  0
   37.6680   23.4590   37.8960 C   0  0  0  0  0  0  0  0  0  0  0  0
   37.5170   23.0910   36.5860 N   0  0  0  0  0  0  0  0  0  0  0  0
   38.5900   22.5570   35.9110 C   0  0  0  0  0  0  0  0  0  0  0  0
   39.7600   22.3950   36.5020 N   0  0  0  0  0  0  0  0  0  0  0  0
   35.0936   20.7763   34.5386 H   0  0  0  0  0  0  0  0  0  0  0  0
   34.5707   18.6186   33.0041 H   0  0  0  0  0  0  0  0  0  0  0  0
   35.4523   17.8468   31.1467 H   0  0  0  0  0  0  0  0  0  0  0  0
   38.6756   18.0432   31.1640 H   0  0  0  0  0  0  0  0  0  0  0  0
   38.2224   16.7017   30.5055 H   0  0  0  0  0  0  0  0  0  0  0  0
   37.5010   19.5843   29.1220 H   0  0  0  0  0  0  0  0  0  0  0  0
   35.6650   15.6061   26.4618 H   0  0  0  0  0  0  0  0  0  0  0  0
   35.4847   18.0730   25.3212 H   0  0  0  0  0  0  0  0  0  0  0  0
   36.3765   19.7976   27.1767 H   0  0  0  0  0  0  0  0  0  0  0  0
   40.9160   22.6027   38.2470 H   0  0  0  0  0  0  0  0  0  0  0  0
   39.0437   23.5795   39.5743 H   0  0  0  0  0  0  0  0  0  0  0  0
   36.8195   23.8862   38.4505 H   0  0  0  0  0  0  0  0  0  0  0  0
  1  2  1  0
  1 14  1  0
  3  2  2  0
  4  5  1  0
  4  3  1  0
  5  1  2  0
  6  4  1  0
  7  6  1  0
  8  7  1  0
  8  6  1  0
  9  8  1  0
 10  9  1  0
 11 10  2  0
 12 11  1  0
 12 13  2  0
 13  9  1  0
 14 15  1  0
 15 21  1  0
 16 15  2  0
 17 18  2  0
 19 18  1  0
 20 19  2  0
 21 22  2  0
 21 20  1  0
 22 17  1  0
  2 23  1  0
  3 24  1  0
  6 25  1  6
  7 26  1  0
  7 27  1  0
  8 28  1  6
 11 29  1  0
 12 30  1  0
 13 31  1  0
 17 32  1  0
 18 33  1  0
 19 34  1  0
M  ISO  8  23  14  24  14  25  13  26  13  27  13  28  13  29  14  30  14
M  ISO  4  31  14  32  14  33  14  34  14
M  END
>  <minimizedAffinity>  (1) 
-4.68684435

>  <minimizedRMSD>  (1) 
0.642113209

$$$$
