
     RDKit          3D

 30 32  0  0  1  0  0  0  0  0999 V2000
   36.8430   21.2610   33.2810 C   0  0  0  0  0  0  0  0  0  0  0  0
   35.7670   20.7150   33.9430 C   0  0  0  0  0  0  0  0  0  0  0  0
   35.3850   19.5800   33.2570 C   0  0  0  0  0  0  0  0  0  0  0  0
   36.2350   19.4700   32.2060 N   0  0  0  0  0  0  0  0  0  0  0  0
   37.0840   20.4480   32.2180 N   0  0  0  0  0  0  0  0  0  0  0  0
   36.1820   18.4000   31.2190 C   0  0  2  0  0  0  0  0  0  0  0  0
   37.1940   17.3080   31.3320 C   0  0  0  0  0  0  0  0  0  0  0  0
   37.3560   18.2920   30.2340 C   0  0  1  0  0  0  0  0  0  0  0  0
   37.0000   17.9820   28.8130 C   0  0  0  0  0  0  0  0  0  0  0  0
   38.1700   18.0290   28.0530 F   0  0  0  0  0  0  0  0  0  0  0  0
   36.2220   19.0460   28.3350 F   0  0  0  0  0  0  0  0  0  0  0  0
   36.3370   16.7960   28.6530 F   0  0  0  0  0  0  0  0  0  0  0  0
   37.4180   22.4180   33.7750 O   0  0  0  0  0  0  0  0  0  0  0  0
   38.5680   22.3700   34.5510 C   0  0  0  0  0  0  0  0  0  0  0  0
   39.5660   21.9900   33.8890 O   0  0  0  0  0  0  0  0  0  0  0  0
   39.9340   22.8230   37.8820 C   0  0  0  0  0  0  0  0  0  0  0  0
   38.8700   23.3310   38.6230 C   0  0  0  0  0  0  0  0  0  0  0  0
   37.6660   23.5160   37.9510 C   0  0  0  0  0  0  0  0  0  0  0  0
   37.5610   23.2060   36.6300 N   0  0  0  0  0  0  0  0  0  0  0  0
   38.6470   22.7130   35.9700 C   0  0  0  0  0  0  0  0  0  0  0  0
   39.7970   22.5300   36.5890 N   0  0  0  0  0  0  0  0  0  0  0  0
   35.2963   21.1117   34.8546 H   0  0  0  0  0  0  0  0  0  0  0  0
   34.5576   18.9012   33.5115 H   0  0  0  0  0  0  0  0  0  0  0  0
   35.0863   18.4497   31.1359 H   0  0  0  0  0  0  0  0  0  0  0  0
   37.9037   17.3090   32.1724 H   0  0  0  0  0  0  0  0  0  0  0  0
   37.1337   16.2104   31.3728 H   0  0  0  0  0  0  0  0  0  0  0  0
   38.2072   18.9050   29.9027 H   0  0  0  0  0  0  0  0  0  0  0  0
   40.9050   22.6606   38.3726 H   0  0  0  0  0  0  0  0  0  0  0  0
   38.9766   23.5747   39.6903 H   0  0  0  0  0  0  0  0  0  0  0  0
   36.7942   23.9150   38.4903 H   0  0  0  0  0  0  0  0  0  0  0  0
  1 13  1  0
  1  2  1  0
  3  2  2  0
  4  5  1  0
  4  3  1  0
  5  1  2  0
  6  7  1  0
  6  4  1  0
  8  6  1  0
  8  7  1  0
  9  8  1  0
 10  9  1  0
 11  9  1  0
 12  9  1  0
 13 14  1  0
 14 20  1  0
 15 14  2  0
 16 17  2  0
 18 17  1  0
 19 18  2  0
 20 21  2  0
 20 19  1  0
 21 16  1  0
  2 22  1  0
  3 23  1  0
  6 24  1  6
  7 25  1  0
  7 26  1  0
  8 27  1  6
 16 28  1  0
 17 29  1  0
 18 30  1  0
M  ISO  8  22  14  23  14  24  13  25  13  26  13  27  13  28  14  29  14
M  ISO  1  30  14
M  END
>  <minimizedAffinity>  (1) 
-4.48108578

>  <minimizedRMSD>  (1) 
1.02186978

$$$$
