
     RDKit          3D

 33 35  0  0  1  0  0  0  0  0999 V2000
   36.6950   20.9580   33.1270 C   0  0  0  0  0  0  0  0  0  0  0  0
   35.5820   20.2300   33.4800 C   0  0  0  0  0  0  0  0  0  0  0  0
   35.4370   19.2180   32.5490 C   0  0  0  0  0  0  0  0  0  0  0  0
   36.4570   19.3550   31.6590 N   0  0  0  0  0  0  0  0  0  0  0  0
   37.1930   20.3670   31.9910 N   0  0  0  0  0  0  0  0  0  0  0  0
   36.6630   18.4880   30.5260 C   0  0  2  0  0  0  0  0  0  0  0  0
   38.0580   18.2980   30.0350 C   0  0  0  0  0  0  0  0  0  0  0  0
   37.1490   19.1370   29.2280 C   0  0  1  0  0  0  0  0  0  0  0  0
   36.4490   18.6160   27.9940 C   0  0  0  0  0  0  0  0  0  0  0  0
   37.2360   18.8860   26.7320 C   0  0  0  0  0  0  0  0  0  0  0  0
   37.0690   22.0400   33.9010 O   0  0  0  0  0  0  0  0  0  0  0  0
   38.2880   22.0540   34.5590 C   0  0  0  0  0  0  0  0  0  0  0  0
   39.2360   21.6450   33.8340 O   0  0  0  0  0  0  0  0  0  0  0  0
   39.9430   22.7230   37.7070 C   0  0  0  0  0  0  0  0  0  0  0  0
   38.9580   23.2800   38.5190 C   0  0  0  0  0  0  0  0  0  0  0  0
   37.6920   23.4220   37.9500 C   0  0  0  0  0  0  0  0  0  0  0  0
   37.4690   23.0280   36.6680 N   0  0  0  0  0  0  0  0  0  0  0  0
   38.4900   22.4870   35.9320 C   0  0  0  0  0  0  0  0  0  0  0  0
   39.6900   22.3470   36.4570 N   0  0  0  0  0  0  0  0  0  0  0  0
   34.9278   20.4185   34.3440 H   0  0  0  0  0  0  0  0  0  0  0  0
   34.6492   18.4505   32.5313 H   0  0  0  0  0  0  0  0  0  0  0  0
   35.8382   17.8208   30.8168 H   0  0  0  0  0  0  0  0  0  0  0  0
   38.8937   18.7659   30.5760 H   0  0  0  0  0  0  0  0  0  0  0  0
   38.6801   17.4169   29.8190 H   0  0  0  0  0  0  0  0  0  0  0  0
   37.2730   20.1402   28.7942 H   0  0  0  0  0  0  0  0  0  0  0  0
   36.3093   17.5299   28.0984 H   0  0  0  0  0  0  0  0  0  0  0  0
   35.4847   19.1382   27.9079 H   0  0  0  0  0  0  0  0  0  0  0  0
   38.2459   19.2325   26.9967 H   0  0  0  0  0  0  0  0  0  0  0  0
   37.3089   17.9615   26.1405 H   0  0  0  0  0  0  0  0  0  0  0  0
   36.7260   19.6605   26.1405 H   0  0  0  0  0  0  0  0  0  0  0  0
   40.9576   22.5906   38.1107 H   0  0  0  0  0  0  0  0  0  0  0  0
   39.1669   23.5912   39.5532 H   0  0  0  0  0  0  0  0  0  0  0  0
   36.8711   23.8544   38.5409 H   0  0  0  0  0  0  0  0  0  0  0  0
  1  2  1  0
  1 11  1  0
  3  2  2  0
  4  5  1  0
  4  3  1  0
  5  1  2  0
  6  4  1  0
  7  6  1  0
  8  7  1  0
  8  6  1  0
  9  8  1  0
 10  9  1  0
 11 12  1  0
 12 18  1  0
 13 12  2  0
 14 15  2  0
 16 15  1  0
 17 16  2  0
 18 19  2  0
 18 17  1  0
 19 14  1  0
  2 20  1  0
  3 21  1  0
  6 22  1  6
  7 23  1  0
  7 24  1  0
  8 25  1  1
  9 26  1  0
  9 27  1  0
 10 28  1  0
 10 29  1  0
 10 30  1  0
 14 31  1  0
 15 32  1  0
 16 33  1  0
M  ISO  8  20  14  21  14  22  13  23  13  24  13  25  13  26   8  27   8
M  ISO  6  28   8  29   8  30   8  31  14  32  14  33  14
M  END
>  <minimizedAffinity>  (1) 
-4.42150927

>  <minimizedRMSD>  (1) 
1.02268183

$$$$
