
     RDKit          3D

 29 31  0  0  1  0  0  0  0  0999 V2000
   36.7000   20.9660   33.1240 C   0  0  0  0  0  0  0  0  0  0  0  0
   35.5900   20.2460   33.5040 C   0  0  0  0  0  0  0  0  0  0  0  0
   35.4310   19.2120   32.5830 C   0  0  0  0  0  0  0  0  0  0  0  0
   36.4380   19.3460   31.6950 N   0  0  0  0  0  0  0  0  0  0  0  0
   37.1920   20.3680   31.9970 N   0  0  0  0  0  0  0  0  0  0  0  0
   36.6380   18.4590   30.5630 C   0  0  2  0  0  0  0  0  0  0  0  0
   38.0380   18.3200   30.0300 C   0  0  0  0  0  0  0  0  0  0  0  0
   37.0920   19.1160   29.2380 C   0  0  1  0  0  0  0  0  0  0  0  0
   36.4660   18.5460   28.0200 C   0  0  0  0  0  0  0  0  0  0  0  0
   36.8410   18.9440   26.9160 O   0  0  0  0  0  0  0  0  0  0  0  0
   37.0830   22.0650   33.8850 O   0  0  0  0  0  0  0  0  0  0  0  0
   38.2980   22.0690   34.5680 C   0  0  0  0  0  0  0  0  0  0  0  0
   39.2400   21.6460   33.8390 O   0  0  0  0  0  0  0  0  0  0  0  0
   39.9320   22.7330   37.7290 C   0  0  0  0  0  0  0  0  0  0  0  0
   38.9530   23.2790   38.5280 C   0  0  0  0  0  0  0  0  0  0  0  0
   37.6940   23.4190   37.9510 C   0  0  0  0  0  0  0  0  0  0  0  0
   37.4610   23.0320   36.6650 N   0  0  0  0  0  0  0  0  0  0  0  0
   38.4900   22.4960   35.9350 C   0  0  0  0  0  0  0  0  0  0  0  0
   39.6950   22.3580   36.4760 N   0  0  0  0  0  0  0  0  0  0  0  0
   34.9475   20.4491   34.3735 H   0  0  0  0  0  0  0  0  0  0  0  0
   34.6444   18.4430   32.5806 H   0  0  0  0  0  0  0  0  0  0  0  0
   35.8424   17.7682   30.8788 H   0  0  0  0  0  0  0  0  0  0  0  0
   38.8681   18.8221   30.5486 H   0  0  0  0  0  0  0  0  0  0  0  0
   38.6850   17.4595   29.8042 H   0  0  0  0  0  0  0  0  0  0  0  0
   37.1453   20.1270   28.8079 H   0  0  0  0  0  0  0  0  0  0  0  0
   35.6800   17.7807   28.1011 H   0  0  0  0  0  0  0  0  0  0  0  0
   40.9436   22.6028   38.1410 H   0  0  0  0  0  0  0  0  0  0  0  0
   39.1544   23.5874   39.5645 H   0  0  0  0  0  0  0  0  0  0  0  0
   36.8729   23.8494   38.5431 H   0  0  0  0  0  0  0  0  0  0  0  0
  1  2  1  0
  1 11  1  0
  3  2  2  0
  4  5  1  0
  4  3  1  0
  5  1  2  0
  6  4  1  0
  7  6  1  0
  8  7  1  0
  8  6  1  0
  9  8  1  0
 10  9  2  0
 11 12  1  0
 12 18  1  0
 13 12  2  0
 14 15  2  0
 16 15  1  0
 17 16  2  0
 18 19  2  0
 18 17  1  0
 19 14  1  0
  2 20  1  0
  3 21  1  0
  6 22  1  6
  7 23  1  0
  7 24  1  0
  8 25  1  1
  9 26  1  0
 14 27  1  0
 15 28  1  0
 16 29  1  0
M  ISO  8  20  14  21  14  22  13  23  13  24  13  25  13  26   6  27  14
M  ISO  2  28  14  29  14
M  END
>  <minimizedAffinity>  (1) 
-4.34055376

>  <minimizedRMSD>  (1) 
0.889470756

$$$$
