
     RDKit          3D

 40 43  0  0  1  0  0  0  0  0999 V2000
   35.8640   21.7000   31.7250 C   0  0  0  0  0  0  0  0  0  0  0  0
   34.9610   20.8160   32.2910 C   0  0  0  0  0  0  0  0  0  0  0  0
   35.1840   19.5840   31.6980 C   0  0  0  0  0  0  0  0  0  0  0  0
   36.1900   19.7430   30.8110 N   0  0  0  0  0  0  0  0  0  0  0  0
   36.6010   20.9800   30.8140 N   0  0  0  0  0  0  0  0  0  0  0  0
   36.7300   18.6910   29.9800 C   0  0  2  0  0  0  0  0  0  0  0  0
   38.0340   18.9140   29.3100 C   0  0  0  0  0  0  0  0  0  0  0  0
   36.8090   18.9450   28.4760 C   0  0  1  0  0  0  0  0  0  0  0  0
   36.3810   17.7720   27.6290 C   0  0  0  0  0  0  0  0  0  0  0  0
   35.8370   18.1950   26.2890 C   0  0  0  0  0  0  0  0  0  0  0  0
   35.8510   23.0190   32.1490 O   0  0  0  0  0  0  0  0  0  0  0  0
   36.9360   23.8520   31.8940 C   0  0  0  0  0  0  0  0  0  0  0  0
   36.8990   24.3700   30.7430 O   0  0  0  0  0  0  0  0  0  0  0  0
   40.1240   24.9890   33.1900 C   0  0  0  0  0  0  0  0  0  0  0  0
   40.0900   24.6560   34.5330 C   0  0  0  0  0  0  0  0  0  0  0  0
   38.9430   24.0280   34.9920 C   0  0  0  0  0  0  0  0  0  0  0  0
   37.9160   23.7590   34.1590 N   0  0  0  0  0  0  0  0  0  0  0  0
   38.0130   24.1190   32.8310 C   0  0  0  0  0  0  0  0  0  0  0  0
   39.0960   24.7150   32.3810 N   0  0  0  0  0  0  0  0  0  0  0  0
   38.8390   23.6490   36.3920 C   0  0  0  0  0  0  0  0  0  0  0  0
   37.8980   24.0690   37.2950 C   0  0  0  0  0  0  0  0  0  0  0  0
   38.1550   23.4700   38.5260 C   0  0  0  0  0  0  0  0  0  0  0  0
   39.2420   22.7070   38.3290 N   0  0  0  0  0  0  0  0  0  0  0  0
   39.6400   22.8150   37.0740 N   0  0  0  0  0  0  0  0  0  0  0  0
   34.2116   21.0472   33.0623 H   0  0  0  0  0  0  0  0  0  0  0  0
   34.6426   18.6502   31.9101 H   0  0  0  0  0  0  0  0  0  0  0  0
   36.3112   17.9063   30.6272 H   0  0  0  0  0  0  0  0  0  0  0  0
   38.5895   19.8450   29.4962 H   0  0  0  0  0  0  0  0  0  0  0  0
   38.9777   18.3506   29.2641 H   0  0  0  0  0  0  0  0  0  0  0  0
   36.4401   19.6697   27.7353 H   0  0  0  0  0  0  0  0  0  0  0  0
   37.2508   17.1186   27.4662 H   0  0  0  0  0  0  0  0  0  0  0  0
   35.5763   17.2484   28.1659 H   0  0  0  0  0  0  0  0  0  0  0  0
   34.9765   18.8641   26.4372 H   0  0  0  0  0  0  0  0  0  0  0  0
   36.6200   18.7239   25.7258 H   0  0  0  0  0  0  0  0  0  0  0  0
   35.5173   17.3058   25.7258 H   0  0  0  0  0  0  0  0  0  0  0  0
   41.0143   25.4888   32.7806 H   0  0  0  0  0  0  0  0  0  0  0  0
   40.9328   24.8791   35.2038 H   0  0  0  0  0  0  0  0  0  0  0  0
   37.0738   24.7658   37.0824 H   0  0  0  0  0  0  0  0  0  0  0  0
   37.5882   23.5954   39.4604 H   0  0  0  0  0  0  0  0  0  0  0  0
   39.6967   22.1256   39.0474 H   0  0  0  0  0  0  0  0  0  0  0  0
  1 11  1  0
  1  2  1  0
  3  2  2  0
  4  5  1  0
  4  3  1  0
  5  1  2  0
  6  4  1  0
  7  6  1  0
  8  7  1  0
  8  6  1  0
  9  8  1  0
 10  9  1  0
 12 11  1  0
 12 18  1  0
 13 12  2  0
 14 15  2  0
 15 16  1  0
 16 20  1  0
 17 16  2  0
 18 17  1  0
 19 18  2  0
 19 14  1  0
 20 24  2  0
 20 21  1  0
 21 22  2  0
 23 22  1  0
 24 23  1  0
  2 25  1  0
  3 26  1  0
  6 27  1  6
  7 28  1  0
  7 29  1  0
  8 30  1  1
  9 31  1  0
  9 32  1  0
 10 33  1  0
 10 34  1  0
 10 35  1  0
 14 36  1  0
 15 37  1  0
 21 38  1  0
 22 39  1  0
 23 40  1  0
M  ISO  8  25  14  26  14  27  13  28  13  29  13  30  13  31   8  32   8
M  ISO  8  33   8  34   8  35   8  36  14  37  14  38  14  39  14  40   9
M  END
>  <minimizedAffinity>  (1) 
-5.33727789

>  <minimizedRMSD>  (1) 
3.0873003

$$$$
