
     RDKit          3D

 36 38  0  0  1  0  0  0  0  0999 V2000
   36.3100   20.2770   32.9420 C   0  0  0  0  0  0  0  0  0  0  0  0
   35.3820   19.2590   33.0580 C   0  0  0  0  0  0  0  0  0  0  0  0
   35.5760   18.3970   31.9930 C   0  0  0  0  0  0  0  0  0  0  0  0
   36.5980   18.8980   31.2620 N   0  0  0  0  0  0  0  0  0  0  0  0
   37.0310   19.9950   31.8100 N   0  0  0  0  0  0  0  0  0  0  0  0
   37.1290   18.3040   30.0550 C   0  0  2  0  0  0  0  0  0  0  0  0
   38.1440   19.0570   29.2810 C   0  0  0  0  0  0  0  0  0  0  0  0
   36.7710   18.9630   28.7320 C   0  0  1  0  0  0  0  0  0  0  0  0
   36.4220   17.9990   27.6280 C   0  0  0  0  0  0  0  0  0  0  0  0
   35.9100   18.6910   26.3840 C   0  0  0  0  0  0  0  0  0  0  0  0
   36.3280   21.2800   33.8910 O   0  0  0  0  0  0  0  0  0  0  0  0
   37.3570   22.2050   33.9140 C   0  0  0  0  0  0  0  0  0  0  0  0
   37.4180   22.9010   32.8540 O   0  0  0  0  0  0  0  0  0  0  0  0
   40.4610   22.2200   35.7800 C   0  0  0  0  0  0  0  0  0  0  0  0
   40.1140   22.7300   37.0270 C   0  0  0  0  0  0  0  0  0  0  0  0
   38.7760   23.0730   37.2130 C   0  0  0  0  0  0  0  0  0  0  0  0
   37.8800   22.9070   36.2170 N   0  0  0  0  0  0  0  0  0  0  0  0
   38.2930   22.3970   35.0080 C   0  0  0  0  0  0  0  0  0  0  0  0
   39.5560   22.0680   34.8180 N   0  0  0  0  0  0  0  0  0  0  0  0
   38.3470   23.6200   38.5160 C   0  0  0  0  0  0  0  0  0  0  0  0
   37.2910   22.8370   38.9560 F   0  0  0  0  0  0  0  0  0  0  0  0
   37.8320   24.8920   38.3670 F   0  0  0  0  0  0  0  0  0  0  0  0
   39.3710   23.6950   39.4330 F   0  0  0  0  0  0  0  0  0  0  0  0
   34.6276   19.1535   33.8515 H   0  0  0  0  0  0  0  0  0  0  0  0
   35.0076   17.4794   31.7812 H   0  0  0  0  0  0  0  0  0  0  0  0
   37.0672   17.2887   30.4737 H   0  0  0  0  0  0  0  0  0  0  0  0
   38.5145   20.0207   29.6606 H   0  0  0  0  0  0  0  0  0  0  0  0
   39.1444   18.8180   28.8911 H   0  0  0  0  0  0  0  0  0  0  0  0
   36.0719   19.7217   28.3505 H   0  0  0  0  0  0  0  0  0  0  0  0
   37.3228   17.4250   27.3651 H   0  0  0  0  0  0  0  0  0  0  0  0
   35.6167   17.3482   27.9995 H   0  0  0  0  0  0  0  0  0  0  0  0
   35.2787   19.5443   26.6726 H   0  0  0  0  0  0  0  0  0  0  0  0
   36.7615   19.0501   25.7874 H   0  0  0  0  0  0  0  0  0  0  0  0
   35.3175   17.9817   25.7874 H   0  0  0  0  0  0  0  0  0  0  0  0
   41.5060   21.9366   35.5859 H   0  0  0  0  0  0  0  0  0  0  0  0
   40.8588   22.8563   37.8266 H   0  0  0  0  0  0  0  0  0  0  0  0
  1  2  1  0
  1 11  1  0
  3  2  2  0
  4  5  1  0
  4  3  1  0
  5  1  2  0
  6  4  1  0
  7  6  1  0
  8  7  1  0
  8  6  1  0
  9  8  1  0
 10  9  1  0
 11 12  1  0
 12 18  1  0
 13 12  2  0
 14 15  2  0
 15 16  1  0
 16 20  1  0
 17 16  2  0
 18 17  1  0
 19 18  2  0
 19 14  1  0
 20 21  1  0
 20 23  1  0
 22 20  1  0
  2 24  1  0
  3 25  1  0
  6 26  1  6
  7 27  1  0
  7 28  1  0
  8 29  1  1
  9 30  1  0
  9 31  1  0
 10 32  1  0
 10 33  1  0
 10 34  1  0
 14 35  1  0
 15 36  1  0
M  ISO  8  24  14  25  14  26  13  27  13  28  13  29  13  30   8  31   8
M  ISO  5  32   8  33   8  34   8  35  14  36  14
M  END
>  <minimizedAffinity>  (1) 
-5.25703049

>  <minimizedRMSD>  (1) 
1.45509589

$$$$
