
     RDKit          3D

 41 44  0  0  1  0  0  0  0  0999 V2000
   35.6890   21.7300   31.7140 C   0  0  0  0  0  0  0  0  0  0  0  0
   34.8480   20.7700   32.2540 C   0  0  0  0  0  0  0  0  0  0  0  0
   35.1980   19.5570   31.7050 C   0  0  0  0  0  0  0  0  0  0  0  0
   36.2270   19.7810   30.8540 N   0  0  0  0  0  0  0  0  0  0  0  0
   36.5090   21.0420   30.8620 N   0  0  0  0  0  0  0  0  0  0  0  0
   36.8910   18.7670   30.0720 C   0  0  2  0  0  0  0  0  0  0  0  0
   38.0350   19.1670   29.2190 C   0  0  0  0  0  0  0  0  0  0  0  0
   36.7520   18.8760   28.5440 C   0  0  1  0  0  0  0  0  0  0  0  0
   36.4890   17.5520   27.8640 C   0  0  0  0  0  0  0  0  0  0  0  0
   35.8880   17.7220   26.4870 C   0  0  0  0  0  0  0  0  0  0  0  0
   35.5400   23.0400   32.1080 O   0  0  0  0  0  0  0  0  0  0  0  0
   36.5020   23.9880   31.7620 C   0  0  0  0  0  0  0  0  0  0  0  0
   36.3430   24.4480   30.5970 O   0  0  0  0  0  0  0  0  0  0  0  0
   39.5510   25.6060   32.8590 C   0  0  0  0  0  0  0  0  0  0  0  0
   39.6590   25.2690   34.2110 C   0  0  0  0  0  0  0  0  0  0  0  0
   38.6550   24.4700   34.7370 C   0  0  0  0  0  0  0  0  0  0  0  0
   37.6280   24.0480   33.9580 N   0  0  0  0  0  0  0  0  0  0  0  0
   37.5810   24.4130   32.6400 C   0  0  0  0  0  0  0  0  0  0  0  0
   38.5280   25.1750   32.1160 N   0  0  0  0  0  0  0  0  0  0  0  0
   38.7250   24.0950   36.1350 C   0  0  0  0  0  0  0  0  0  0  0  0
   37.8520   24.6170   37.0660 C   0  0  0  0  0  0  0  0  0  0  0  0
   38.0410   24.1680   38.3500 C   0  0  0  0  0  0  0  0  0  0  0  0
   38.9840   23.2900   38.7340 N   0  0  0  0  0  0  0  0  0  0  0  0
   39.8280   22.7960   37.7930 C   0  0  0  0  0  0  0  0  0  0  0  0
   39.6600   23.2200   36.5360 N   0  0  0  0  0  0  0  0  0  0  0  0
   34.0471   20.9452   32.9874 H   0  0  0  0  0  0  0  0  0  0  0  0
   34.7285   18.5854   31.9183 H   0  0  0  0  0  0  0  0  0  0  0  0
   36.7267   17.9916   30.8348 H   0  0  0  0  0  0  0  0  0  0  0  0
   38.4051   20.2021   29.2580 H   0  0  0  0  0  0  0  0  0  0  0  0
   39.0623   18.7931   29.0972 H   0  0  0  0  0  0  0  0  0  0  0  0
   36.1675   19.4351   27.7985 H   0  0  0  0  0  0  0  0  0  0  0  0
   37.4403   17.0079   27.7698 H   0  0  0  0  0  0  0  0  0  0  0  0
   35.7666   16.9959   28.4795 H   0  0  0  0  0  0  0  0  0  0  0  0
   34.8334   18.0203   26.5815 H   0  0  0  0  0  0  0  0  0  0  0  0
   36.4411   18.4989   25.9389 H   0  0  0  0  0  0  0  0  0  0  0  0
   35.9522   16.7705   25.9389 H   0  0  0  0  0  0  0  0  0  0  0  0
   40.3236   26.2386   32.3976 H   0  0  0  0  0  0  0  0  0  0  0  0
   40.4993   25.6204   34.8278 H   0  0  0  0  0  0  0  0  0  0  0  0
   37.0646   25.3378   36.8006 H   0  0  0  0  0  0  0  0  0  0  0  0
   37.3667   24.5580   39.1267 H   0  0  0  0  0  0  0  0  0  0  0  0
   40.6180   22.0763   38.0537 H   0  0  0  0  0  0  0  0  0  0  0  0
  1 11  1  0
  1  2  1  0
  3  2  2  0
  4  5  1  0
  4  3  1  0
  5  1  2  0
  6  4  1  0
  7  6  1  0
  8  7  1  0
  8  6  1  0
  9  8  1  0
 10  9  1  0
 12 11  1  0
 12 18  1  0
 13 12  2  0
 14 15  2  0
 15 16  1  0
 16 20  1  0
 17 16  2  0
 18 17  1  0
 19 18  2  0
 19 14  1  0
 20 25  1  0
 20 21  2  0
 21 22  1  0
 22 23  2  0
 24 23  1  0
 25 24  2  0
  2 26  1  0
  3 27  1  0
  6 28  1  1
  7 29  1  0
  7 30  1  0
  8 31  1  1
  9 32  1  0
  9 33  1  0
 10 34  1  0
 10 35  1  0
 10 36  1  0
 14 37  1  0
 15 38  1  0
 21 39  1  0
 22 40  1  0
 24 41  1  0
M  ISO  8  26  14  27  14  28  13  29  13  30  13  31  13  32   8  33   8
M  ISO  8  34   8  35   8  36   8  37  14  38  14  39  14  40  14  41  14
M  END
>  <minimizedAffinity>  (1) 
-5.21468782

>  <minimizedRMSD>  (1) 
3.41446924

$$$$
