
     RDKit          3D

 40 43  0  0  1  0  0  0  0  0999 V2000
   35.8140   21.7600   31.7470 C   0  0  0  0  0  0  0  0  0  0  0  0
   34.9160   20.8970   32.3330 C   0  0  0  0  0  0  0  0  0  0  0  0
   35.1180   19.6510   31.7770 C   0  0  0  0  0  0  0  0  0  0  0  0
   36.1220   19.7840   30.8770 N   0  0  0  0  0  0  0  0  0  0  0  0
   36.5290   21.0110   30.8590 N   0  0  0  0  0  0  0  0  0  0  0  0
   36.6420   18.7020   30.0730 C   0  0  2  0  0  0  0  0  0  0  0  0
   38.0170   18.8280   29.5320 C   0  0  0  0  0  0  0  0  0  0  0  0
   36.8800   18.9780   28.5960 C   0  0  1  0  0  0  0  0  0  0  0  0
   36.4270   17.8770   27.6720 C   0  0  0  0  0  0  0  0  0  0  0  0
   35.9130   18.4000   26.3530 C   0  0  0  0  0  0  0  0  0  0  0  0
   35.8280   23.0960   32.1270 O   0  0  0  0  0  0  0  0  0  0  0  0
   36.9290   23.8820   31.8790 C   0  0  0  0  0  0  0  0  0  0  0  0
   36.9190   24.4020   30.7200 O   0  0  0  0  0  0  0  0  0  0  0  0
   40.2150   24.7450   33.1270 C   0  0  0  0  0  0  0  0  0  0  0  0
   40.1220   24.6040   34.5100 C   0  0  0  0  0  0  0  0  0  0  0  0
   38.8750   24.1970   35.0150 C   0  0  0  0  0  0  0  0  0  0  0  0
   37.8580   23.9680   34.1520 N   0  0  0  0  0  0  0  0  0  0  0  0
   38.0210   24.1270   32.8080 C   0  0  0  0  0  0  0  0  0  0  0  0
   39.1860   24.5080   32.3300 N   0  0  0  0  0  0  0  0  0  0  0  0
   38.6780   24.0210   36.4460 C   0  0  0  0  0  0  0  0  0  0  0  0
   39.3470   23.1050   37.2280 C   0  0  0  0  0  0  0  0  0  0  0  0
   38.8510   23.2840   38.5170 C   0  0  0  0  0  0  0  0  0  0  0  0
   37.9180   24.2910   38.4370 C   0  0  0  0  0  0  0  0  0  0  0  0
   37.8400   24.7080   37.1910 O   0  0  0  0  0  0  0  0  0  0  0  0
   34.1737   21.1538   33.1031 H   0  0  0  0  0  0  0  0  0  0  0  0
   34.5701   18.7280   32.0177 H   0  0  0  0  0  0  0  0  0  0  0  0
   36.1005   17.9424   30.6560 H   0  0  0  0  0  0  0  0  0  0  0  0
   38.6272   19.7051   29.7933 H   0  0  0  0  0  0  0  0  0  0  0  0
   38.9122   18.1893   29.5555 H   0  0  0  0  0  0  0  0  0  0  0  0
   36.6441   19.7465   27.8452 H   0  0  0  0  0  0  0  0  0  0  0  0
   37.2781   17.2077   27.4779 H   0  0  0  0  0  0  0  0  0  0  0  0
   35.5986   17.3479   28.1658 H   0  0  0  0  0  0  0  0  0  0  0  0
   35.1528   19.1735   26.5365 H   0  0  0  0  0  0  0  0  0  0  0  0
   36.7464   18.8334   25.7806 H   0  0  0  0  0  0  0  0  0  0  0  0
   35.4652   17.5743   25.7806 H   0  0  0  0  0  0  0  0  0  0  0  0
   41.1711   25.0624   32.6853 H   0  0  0  0  0  0  0  0  0  0  0  0
   40.9787   24.8007   35.1713 H   0  0  0  0  0  0  0  0  0  0  0  0
   40.1117   22.3842   36.9028 H   0  0  0  0  0  0  0  0  0  0  0  0
   39.1469   22.7298   39.4200 H   0  0  0  0  0  0  0  0  0  0  0  0
   37.3308   24.6850   39.2796 H   0  0  0  0  0  0  0  0  0  0  0  0
  1 11  1  0
  1  2  1  0
  3  2  2  0
  4  3  1  0
  5  4  1  0
  5  1  2  0
  6  4  1  0
  7  6  1  0
  8  7  1  0
  8  6  1  0
  9  8  1  0
 10  9  1  0
 12 11  1  0
 12 18  1  0
 13 12  2  0
 14 15  2  0
 15 16  1  0
 16 20  1  0
 17 16  2  0
 18 17  1  0
 19 18  2  0
 19 14  1  0
 20 24  1  0
 20 21  2  0
 21 22  1  0
 23 22  2  0
 24 23  1  0
  2 25  1  0
  3 26  1  0
  6 27  1  6
  7 28  1  0
  7 29  1  0
  8 30  1  6
  9 31  1  0
  9 32  1  0
 10 33  1  0
 10 34  1  0
 10 35  1  0
 14 36  1  0
 15 37  1  0
 21 38  1  0
 22 39  1  0
 23 40  1  0
M  ISO  8  25  14  26  14  27  13  28  13  29  13  30  13  31   8  32   8
M  ISO  8  33   8  34   8  35   8  36  14  37  14  38  14  39  14  40  14
M  END
>  <minimizedAffinity>  (1) 
-5.13658285

>  <minimizedRMSD>  (1) 
2.98400378

$$$$
