
     RDKit          3D

 40 43  0  0  1  0  0  0  0  0999 V2000
   36.3120   22.1540   31.9170 C   0  0  0  0  0  0  0  0  0  0  0  0
   35.1420   21.5460   32.3140 C   0  0  0  0  0  0  0  0  0  0  0  0
   35.1220   20.2810   31.7580 C   0  0  0  0  0  0  0  0  0  0  0  0
   36.2780   20.1540   31.0390 N   0  0  0  0  0  0  0  0  0  0  0  0
   36.9700   21.2350   31.1280 N   0  0  0  0  0  0  0  0  0  0  0  0
   36.6290   18.9660   30.3050 C   0  0  2  0  0  0  0  0  0  0  0  0
   38.0580   18.8000   29.8910 C   0  0  0  0  0  0  0  0  0  0  0  0
   37.0770   19.1400   28.8580 C   0  0  1  0  0  0  0  0  0  0  0  0
   36.4810   18.1250   27.9110 C   0  0  0  0  0  0  0  0  0  0  0  0
   36.0720   18.7340   26.5910 C   0  0  0  0  0  0  0  0  0  0  0  0
   36.5780   23.4340   32.3400 O   0  0  0  0  0  0  0  0  0  0  0  0
   37.8380   23.7940   32.7700 C   0  0  0  0  0  0  0  0  0  0  0  0
   38.3960   24.6210   31.9920 O   0  0  0  0  0  0  0  0  0  0  0  0
   40.2790   22.2070   34.9060 C   0  0  0  0  0  0  0  0  0  0  0  0
   39.7900   22.3360   36.1990 C   0  0  0  0  0  0  0  0  0  0  0  0
   38.5770   22.9980   36.3050 C   0  0  0  0  0  0  0  0  0  0  0  0
   37.9240   23.4780   35.2180 N   0  0  0  0  0  0  0  0  0  0  0  0
   38.4880   23.3020   33.9730 C   0  0  0  0  0  0  0  0  0  0  0  0
   39.6420   22.6760   33.8470 N   0  0  0  0  0  0  0  0  0  0  0  0
   37.9620   23.1930   37.6370 C   0  0  0  0  0  0  0  0  0  0  0  0
   38.0120   24.6190   38.1560 C   0  0  0  0  0  0  0  0  0  0  0  0
   38.7600   23.4720   38.8330 C   0  0  0  0  0  0  0  0  0  0  0  0
   34.3653   21.9867   32.9563 H   0  0  0  0  0  0  0  0  0  0  0  0
   34.3313   19.5248   31.8716 H   0  0  0  0  0  0  0  0  0  0  0  0
   35.8853   18.3528   30.8349 H   0  0  0  0  0  0  0  0  0  0  0  0
   38.8046   19.5466   30.1997 H   0  0  0  0  0  0  0  0  0  0  0  0
   38.8010   17.9973   30.0074 H   0  0  0  0  0  0  0  0  0  0  0  0
   37.0911   19.9142   28.0767 H   0  0  0  0  0  0  0  0  0  0  0  0
   37.2273   17.3396   27.7207 H   0  0  0  0  0  0  0  0  0  0  0  0
   35.5759   17.7175   28.3851 H   0  0  0  0  0  0  0  0  0  0  0  0
   35.4673   19.6344   26.7743 H   0  0  0  0  0  0  0  0  0  0  0  0
   36.9710   19.0063   26.0186 H   0  0  0  0  0  0  0  0  0  0  0  0
   35.4798   18.0049   26.0186 H   0  0  0  0  0  0  0  0  0  0  0  0
   41.2392   21.6916   34.7562 H   0  0  0  0  0  0  0  0  0  0  0  0
   40.3259   21.9417   37.0750 H   0  0  0  0  0  0  0  0  0  0  0  0
   37.1987   22.4262   37.4384 H   0  0  0  0  0  0  0  0  0  0  0  0
   38.5633   25.3938   37.6031 H   0  0  0  0  0  0  0  0  0  0  0  0
   37.2761   25.3762   38.4643 H   0  0  0  0  0  0  0  0  0  0  0  0
   38.4244   23.1028   39.8133 H   0  0  0  0  0  0  0  0  0  0  0  0
   39.8070   23.2964   39.1211 H   0  0  0  0  0  0  0  0  0  0  0  0
  1  2  1  0
  1 11  1  0
  3  2  2  0
  4  5  1  0
  4  3  1  0
  5  1  2  0
  6  4  1  0
  7  6  1  0
  8  7  1  0
  8  6  1  0
  9  8  1  0
 10  9  1  0
 11 12  1  0
 12 18  1  0
 13 12  2  0
 14 15  2  0
 15 16  1  0
 16 20  1  0
 17 16  2  0
 18 17  1  0
 19 18  2  0
 19 14  1  0
 20 21  1  0
 20 22  1  0
 21 22  1  0
  2 23  1  0
  3 24  1  0
  6 25  1  6
  7 26  1  0
  7 27  1  0
  8 28  1  6
  9 29  1  0
  9 30  1  0
 10 31  1  0
 10 32  1  0
 10 33  1  0
 14 34  1  0
 15 35  1  0
 20 36  1  0
 21 37  1  0
 21 38  1  0
 22 39  1  0
 22 40  1  0
M  ISO  8  23  14  24  14  25  13  26  13  27  13  28  13  29   8  30   8
M  ISO  8  31   8  32   8  33   8  34  14  35  14  36  13  37  13  38  13
M  ISO  2  39  13  40  13
M  END
>  <minimizedAffinity>  (1) 
-4.65277243

>  <minimizedRMSD>  (1) 
1.96858072

$$$$
