
     RDKit          3D

 23 24  0  0  0  0  0  0  0  0999 V2000
   40.5010   22.5020   37.6830 C   0  0  0  0  0  0  0  0  0  0  0  0
   39.2530   23.1020   37.4390 C   0  0  0  0  0  0  0  0  0  0  0  0
   38.7880   23.1580   36.1170 C   0  0  0  0  0  0  0  0  0  0  0  0
   39.5740   22.6250   35.1300 N   0  0  0  0  0  0  0  0  0  0  0  0
   40.7740   22.0540   35.4080 C   0  0  0  0  0  0  0  0  0  0  0  0
   41.2210   21.9980   36.6690 N   0  0  0  0  0  0  0  0  0  0  0  0
   41.5560   21.5070   34.3060 C   0  0  0  0  0  0  0  0  0  0  0  0
   42.8530   21.0970   34.5270 C   0  0  0  0  0  0  0  0  0  0  0  0
   43.5660   20.5880   33.4820 C   0  0  0  0  0  0  0  0  0  0  0  0
   43.0010   20.4850   32.2140 C   0  0  0  0  0  0  0  0  0  0  0  0
   41.7060   20.9040   32.0350 C   0  0  0  0  0  0  0  0  0  0  0  0
   40.9400   21.4250   33.0530 C   0  0  0  0  0  0  0  0  0  0  0  0
   38.3960   23.6840   38.5220 C   0  0  0  0  0  0  0  0  0  0  0  0
   39.2170   23.8580   39.6220 F   0  0  0  0  0  0  0  0  0  0  0  0
   37.3630   22.8730   38.8600 F   0  0  0  0  0  0  0  0  0  0  0  0
   37.9960   24.9850   38.1800 F   0  0  0  0  0  0  0  0  0  0  0  0
   40.8892   22.4455   38.7107 H   0  0  0  0  0  0  0  0  0  0  0  0
   37.8175   23.6179   35.8790 H   0  0  0  0  0  0  0  0  0  0  0  0
   43.3043   21.1787   35.5268 H   0  0  0  0  0  0  0  0  0  0  0  0
   44.6017   20.2543   33.6432 H   0  0  0  0  0  0  0  0  0  0  0  0
   43.5802   20.0763   31.3728 H   0  0  0  0  0  0  0  0  0  0  0  0
   41.2604   20.8196   31.0328 H   0  0  0  0  0  0  0  0  0  0  0  0
   39.9041   21.7574   32.8906 H   0  0  0  0  0  0  0  0  0  0  0  0
  2  1  2  0
  2 13  1  0
  3  2  1  0
  4  5  1  0
  4  3  2  0
  5  6  2  0
  6  1  1  0
  7  8  2  0
  7  5  1  0
  9  8  1  0
 10  9  2  0
 11 10  1  0
 11 12  2  0
 12  7  1  0
 13 15  1  0
 13 14  1  0
 16 13  1  0
  1 17  1  0
  3 18  1  0
  8 19  1  0
  9 20  1  0
 10 21  1  0
 11 22  1  0
 12 23  1  0
M  ISO  7  17  14  18  14  19  14  20  14  21  14  22  14  23  14
M  END
>  <minimizedAffinity>  (1) 
-3.93212891

>  <minimizedRMSD>  (1) 
0.0697190687

$$$$
