
     RDKit          3D

 36 38  0  0  1  0  0  0  0  0999 V2000
   36.7530   20.9840   33.1730 C   0  0  0  0  0  0  0  0  0  0  0  0
   35.5970   20.3400   33.5690 C   0  0  0  0  0  0  0  0  0  0  0  0
   35.3630   19.3300   32.6520 C   0  0  0  0  0  0  0  0  0  0  0  0
   36.3680   19.3830   31.7370 N   0  0  0  0  0  0  0  0  0  0  0  0
   37.1750   20.3420   32.0350 N   0  0  0  0  0  0  0  0  0  0  0  0
   36.4800   18.4880   30.6130 C   0  0  2  0  0  0  0  0  0  0  0  0
   37.8560   18.0530   30.2140 C   0  0  0  0  0  0  0  0  0  0  0  0
   37.1700   19.0380   29.3670 C   0  0  1  0  0  0  0  0  0  0  0  0
   36.4850   18.6210   28.0820 C   0  0  0  0  0  0  0  0  0  0  0  0
   37.3560   18.8500   26.8710 C   0  0  0  0  0  0  0  0  0  0  0  0
   37.2080   22.0460   33.9310 O   0  0  0  0  0  0  0  0  0  0  0  0
   38.5420   22.1050   34.3370 C   0  0  0  0  0  0  0  0  0  0  0  0
   39.3380   21.8540   33.4050 O   0  0  0  0  0  0  0  0  0  0  0  0
   40.5650   22.1520   37.3270 C   0  0  0  0  0  0  0  0  0  0  0  0
   39.8820   22.9510   38.2260 C   0  0  0  0  0  0  0  0  0  0  0  0
   38.6860   23.4830   37.7700 C   0  0  0  0  0  0  0  0  0  0  0  0
   38.2370   23.2170   36.5070 N   0  0  0  0  0  0  0  0  0  0  0  0
   38.9690   22.4190   35.6820 C   0  0  0  0  0  0  0  0  0  0  0  0
   40.0980   21.9150   36.1070 N   0  0  0  0  0  0  0  0  0  0  0  0
   37.8220   24.3640   38.6030 C   0  0  0  0  0  0  0  0  0  0  0  0
   34.9797   20.5835   34.4463 H   0  0  0  0  0  0  0  0  0  0  0  0
   34.5235   18.6193   32.6614 H   0  0  0  0  0  0  0  0  0  0  0  0
   35.5298   17.9805   30.8354 H   0  0  0  0  0  0  0  0  0  0  0  0
   38.7216   18.3630   30.8179 H   0  0  0  0  0  0  0  0  0  0  0  0
   38.3266   17.0766   30.0263 H   0  0  0  0  0  0  0  0  0  0  0  0
   37.4948   20.0081   28.9627 H   0  0  0  0  0  0  0  0  0  0  0  0
   36.2381   17.5508   28.1434 H   0  0  0  0  0  0  0  0  0  0  0  0
   35.5795   19.2350   27.9675 H   0  0  0  0  0  0  0  0  0  0  0  0
   38.3725   19.1172   27.1957 H   0  0  0  0  0  0  0  0  0  0  0  0
   37.3936   17.9312   26.2673 H   0  0  0  0  0  0  0  0  0  0  0  0
   36.9368   19.6685   26.2673 H   0  0  0  0  0  0  0  0  0  0  0  0
   41.5210   21.7007   37.6311 H   0  0  0  0  0  0  0  0  0  0  0  0
   40.2635   23.1514   39.2381 H   0  0  0  0  0  0  0  0  0  0  0  0
   38.0155   24.1667   39.6677 H   0  0  0  0  0  0  0  0  0  0  0  0
   38.0473   25.4170   38.3784 H   0  0  0  0  0  0  0  0  0  0  0  0
   36.7648   24.1593   38.3784 H   0  0  0  0  0  0  0  0  0  0  0  0
  1  2  1  0
  1 11  1  0
  3  2  2  0
  4  5  1  0
  4  3  1  0
  5  1  2  0
  6  4  1  0
  7  6  1  0
  8  7  1  0
  8  6  1  0
  9  8  1  0
 10  9  1  0
 11 12  1  0
 12 18  1  0
 13 12  2  0
 14 15  2  0
 16 15  1  0
 16 20  1  0
 17 16  2  0
 18 19  2  0
 18 17  1  0
 19 14  1  0
  2 21  1  0
  3 22  1  0
  6 23  1  6
  7 24  1  0
  7 25  1  0
  8 26  1  1
  9 27  1  0
  9 28  1  0
 10 29  1  0
 10 30  1  0
 10 31  1  0
 14 32  1  0
 15 33  1  0
 20 34  1  0
 20 35  1  0
 20 36  1  0
M  ISO  8  21  14  22  14  23  13  24  13  25  13  26  13  27   8  28   8
M  ISO  8  29   8  30   8  31   8  32  14  33  14  34   8  35   8  36   8
M  END
>  <minimizedAffinity>  (1) 
-4.57121325

>  <minimizedRMSD>  (1) 
0.584856272

$$$$
