
     RDKit          3D

 35 37  0  0  1  0  0  0  0  0999 V2000
   36.7540   21.0740   33.2460 C   0  0  0  0  0  0  0  0  0  0  0  0
   35.6430   20.4170   33.7250 C   0  0  0  0  0  0  0  0  0  0  0  0
   35.3670   19.3800   32.8560 C   0  0  0  0  0  0  0  0  0  0  0  0
   36.3100   19.4290   31.8740 N   0  0  0  0  0  0  0  0  0  0  0  0
   37.1270   20.4160   32.0900 N   0  0  0  0  0  0  0  0  0  0  0  0
   36.3690   18.5080   30.7670 C   0  0  2  0  0  0  0  0  0  0  0  0
   37.6870   17.8620   30.4580 C   0  0  0  0  0  0  0  0  0  0  0  0
   37.2040   18.9270   29.5460 C   0  0  1  0  0  0  0  0  0  0  0  0
   36.5270   18.6420   28.2250 C   0  0  0  0  0  0  0  0  0  0  0  0
   37.4610   18.8890   27.0550 C   0  0  0  0  0  0  0  0  0  0  0  0
   37.2510   22.1580   33.9260 O   0  0  0  0  0  0  0  0  0  0  0  0
   38.5480   22.1620   34.4140 C   0  0  0  0  0  0  0  0  0  0  0  0
   39.4050   21.8440   33.5380 O   0  0  0  0  0  0  0  0  0  0  0  0
   40.4730   22.2690   37.4800 C   0  0  0  0  0  0  0  0  0  0  0  0
   39.7220   23.0520   38.3510 C   0  0  0  0  0  0  0  0  0  0  0  0
   38.5130   23.5500   37.8380 C   0  0  0  0  0  0  0  0  0  0  0  0
   38.1250   23.2700   36.5750 N   0  0  0  0  0  0  0  0  0  0  0  0
   38.9250   22.4880   35.7790 C   0  0  0  0  0  0  0  0  0  0  0  0
   40.0560   22.0150   36.2390 N   0  0  0  0  0  0  0  0  0  0  0  0
   37.7290   24.3500   38.7010 N   0  0  0  0  0  0  0  0  0  0  0  0
   35.0783   20.6717   34.6340 H   0  0  0  0  0  0  0  0  0  0  0  0
   34.5445   18.6544   32.9404 H   0  0  0  0  0  0  0  0  0  0  0  0
   35.3430   18.1507   30.9395 H   0  0  0  0  0  0  0  0  0  0  0  0
   38.5530   18.0540   31.1085 H   0  0  0  0  0  0  0  0  0  0  0  0
   38.0149   16.8218   30.3146 H   0  0  0  0  0  0  0  0  0  0  0  0
   37.7067   19.8180   29.1416 H   0  0  0  0  0  0  0  0  0  0  0  0
   36.2043   17.5905   28.2086 H   0  0  0  0  0  0  0  0  0  0  0  0
   35.6652   19.3185   28.1266 H   0  0  0  0  0  0  0  0  0  0  0  0
   38.4598   19.1531   27.4326 H   0  0  0  0  0  0  0  0  0  0  0  0
   37.5298   17.9782   26.4421 H   0  0  0  0  0  0  0  0  0  0  0  0
   37.0705   19.7148   26.4421 H   0  0  0  0  0  0  0  0  0  0  0  0
   41.4310   21.8506   37.8222 H   0  0  0  0  0  0  0  0  0  0  0  0
   40.0543   23.2676   39.3772 H   0  0  0  0  0  0  0  0  0  0  0  0
   36.8339   24.7387   38.3714 H   0  0  0  0  0  0  0  0  0  0  0  0
   38.0530   24.5440   39.6593 H   0  0  0  0  0  0  0  0  0  0  0  0
  1  2  1  0
  1 11  1  0
  3  2  2  0
  4  5  1  0
  4  3  1  0
  5  1  2  0
  6  4  1  0
  7  6  1  0
  8  7  1  0
  8  6  1  0
  9  8  1  0
 10  9  1  0
 11 12  1  0
 12 18  1  0
 13 12  2  0
 14 15  2  0
 16 15  1  0
 16 20  1  0
 17 16  2  0
 18 19  2  0
 18 17  1  0
 19 14  1  0
  2 21  1  0
  3 22  1  0
  6 23  1  6
  7 24  1  0
  7 25  1  0
  8 26  1  1
  9 27  1  0
  9 28  1  0
 10 29  1  0
 10 30  1  0
 10 31  1  0
 14 32  1  0
 15 33  1  0
 20 34  1  0
 20 35  1  0
M  ISO  8  21  14  22  14  23  13  24  13  25  13  26  13  27   8  28   8
M  ISO  5  29   8  30   8  31   8  32  14  33  14
M  END
>  <minimizedAffinity>  (1) 
-4.51588535

>  <minimizedRMSD>  (1) 
0.542099714

$$$$
