
     RDKit          3D

 39 41  0  0  1  0  0  0  0  0999 V2000
   36.1340   20.1180   32.7610 C   0  0  0  0  0  0  0  0  0  0  0  0
   35.4000   18.9690   32.9810 C   0  0  0  0  0  0  0  0  0  0  0  0
   35.6590   18.1090   31.9210 C   0  0  0  0  0  0  0  0  0  0  0  0
   36.5230   18.7400   31.1020 N   0  0  0  0  0  0  0  0  0  0  0  0
   36.8120   19.9140   31.5750 N   0  0  0  0  0  0  0  0  0  0  0  0
   37.0420   18.1800   29.8810 C   0  0  2  0  0  0  0  0  0  0  0  0
   38.0510   18.9680   29.1170 C   0  0  0  0  0  0  0  0  0  0  0  0
   36.6670   18.8620   28.5710 C   0  0  1  0  0  0  0  0  0  0  0  0
   36.3420   17.9250   27.4480 C   0  0  0  0  0  0  0  0  0  0  0  0
   35.8260   18.6150   26.2180 C   0  0  0  0  0  0  0  0  0  0  0  0
   36.0620   21.1550   33.6740 O   0  0  0  0  0  0  0  0  0  0  0  0
   37.0190   22.1420   33.6910 C   0  0  0  0  0  0  0  0  0  0  0  0
   36.9190   22.9380   32.7010 O   0  0  0  0  0  0  0  0  0  0  0  0
   40.2570   22.0710   35.2840 C   0  0  0  0  0  0  0  0  0  0  0  0
   40.0530   22.5880   36.5600 C   0  0  0  0  0  0  0  0  0  0  0  0
   38.7590   22.9640   36.8560 C   0  0  0  0  0  0  0  0  0  0  0  0
   37.7680   22.8240   35.9350 N   0  0  0  0  0  0  0  0  0  0  0  0
   38.0470   22.3070   34.6980 C   0  0  0  0  0  0  0  0  0  0  0  0
   39.2870   21.9410   34.4010 N   0  0  0  0  0  0  0  0  0  0  0  0
   38.4300   23.5230   38.1790 C   0  0  0  0  0  0  0  0  0  0  0  0
   37.2840   22.8720   38.6380 F   0  0  0  0  0  0  0  0  0  0  0  0
   38.0860   24.8590   38.0920 F   0  0  0  0  0  0  0  0  0  0  0  0
   39.4530   23.4260   39.0760 F   0  0  0  0  0  0  0  0  0  0  0  0
   41.1620   22.7130   37.5110 C   0  0  0  0  0  0  0  0  0  0  0  0
   34.7353   18.7718   33.8350 H   0  0  0  0  0  0  0  0  0  0  0  0
   35.2381   17.1029   31.7775 H   0  0  0  0  0  0  0  0  0  0  0  0
   36.9892   17.1543   30.2750 H   0  0  0  0  0  0  0  0  0  0  0  0
   38.4087   19.9290   29.5152 H   0  0  0  0  0  0  0  0  0  0  0  0
   39.0536   18.7533   28.7186 H   0  0  0  0  0  0  0  0  0  0  0  0
   35.9484   19.6142   28.2135 H   0  0  0  0  0  0  0  0  0  0  0  0
   37.2554   17.3738   27.1799 H   0  0  0  0  0  0  0  0  0  0  0  0
   35.5411   17.2606   27.8045 H   0  0  0  0  0  0  0  0  0  0  0  0
   35.1913   19.4637   26.5127 H   0  0  0  0  0  0  0  0  0  0  0  0
   36.6736   18.9812   25.6202 H   0  0  0  0  0  0  0  0  0  0  0  0
   35.2351   17.9055   25.6202 H   0  0  0  0  0  0  0  0  0  0  0  0
   41.2723   21.7571   34.9999 H   0  0  0  0  0  0  0  0  0  0  0  0
   40.7709   22.6689   38.5382 H   0  0  0  0  0  0  0  0  0  0  0  0
   41.8741   21.8894   37.3541 H   0  0  0  0  0  0  0  0  0  0  0  0
   41.6729   23.6744   37.3541 H   0  0  0  0  0  0  0  0  0  0  0  0
  1  2  1  0
  1 11  1  0
  3  2  2  0
  4  5  1  0
  4  3  1  0
  5  1  2  0
  6  4  1  0
  7  6  1  0
  8  7  1  0
  8  6  1  0
  9  8  1  0
 10  9  1  0
 11 12  1  0
 12 18  1  0
 13 12  2  0
 14 15  2  0
 15 16  1  0
 15 24  1  0
 16 20  1  0
 17 16  2  0
 18 17  1  0
 19 18  2  0
 19 14  1  0
 20 21  1  0
 20 23  1  0
 22 20  1  0
  2 25  1  0
  3 26  1  0
  6 27  1  6
  7 28  1  0
  7 29  1  0
  8 30  1  1
  9 31  1  0
  9 32  1  0
 10 33  1  0
 10 34  1  0
 10 35  1  0
 14 36  1  0
 24 37  1  0
 24 38  1  0
 24 39  1  0
M  ISO  8  25  14  26  14  27  13  28  13  29  13  30  13  31   8  32   8
M  ISO  7  33   8  34   8  35   8  36  14  37   8  38   8  39   8
M  END
>  <minimizedAffinity>  (1) 
-5.32015562

>  <minimizedRMSD>  (1) 
0.37421301

$$$$
