
     RDKit          3D

 52 55  0  0  1  0  0  0  0  0999 V2000
   36.3100   18.9540   32.0610 C   0  0  0  0  0  0  0  0  0  0  0  0
   36.2000   17.5820   32.1970 C   0  0  0  0  0  0  0  0  0  0  0  0
   36.4960   17.0220   30.9620 C   0  0  0  0  0  0  0  0  0  0  0  0
   36.7730   18.0470   30.1180 N   0  0  0  0  0  0  0  0  0  0  0  0
   36.6670   19.1730   30.7510 N   0  0  0  0  0  0  0  0  0  0  0  0
   37.1280   17.8920   28.7350 C   0  0  2  0  0  0  0  0  0  0  0  0
   37.8550   19.0030   28.0690 C   0  0  0  0  0  0  0  0  0  0  0  0
   36.4230   18.8030   27.7270 C   0  0  1  0  0  0  0  0  0  0  0  0
   36.0130   18.1170   26.4490 C   0  0  0  0  0  0  0  0  0  0  0  0
   35.1810   18.9970   25.5570 C   0  0  0  0  0  0  0  0  0  0  0  0
   36.0620   19.7590   33.1670 O   0  0  0  0  0  0  0  0  0  0  0  0
   36.0130   21.1220   33.0210 C   0  0  0  0  0  0  0  0  0  0  0  0
   34.9200   21.5510   32.5070 O   0  0  0  0  0  0  0  0  0  0  0  0
   38.6700   23.5760   32.7000 C   0  0  0  0  0  0  0  0  0  0  0  0
   39.0620   23.8400   34.0110 C   0  0  0  0  0  0  0  0  0  0  0  0
   38.3940   23.1500   35.0010 C   0  0  0  0  0  0  0  0  0  0  0  0
   37.4190   22.2740   34.6920 N   0  0  0  0  0  0  0  0  0  0  0  0
   37.0670   22.0480   33.3930 C   0  0  0  0  0  0  0  0  0  0  0  0
   37.6990   22.7010   32.4250 N   0  0  0  0  0  0  0  0  0  0  0  0
   40.1390   24.8450   34.1550 C   0  0  0  0  0  0  0  0  0  0  0  0
   41.1570   24.8220   33.0530 C   0  0  0  0  0  0  0  0  0  0  0  0
   41.2190   26.1240   32.2530 C   0  0  0  0  0  0  0  0  0  0  0  0
   41.4930   27.3290   33.0860 C   0  0  0  0  0  0  0  0  0  0  0  0
   40.7700   27.1840   34.4080 C   0  0  0  0  0  0  0  0  0  0  0  0
   39.5710   26.2830   34.1050 C   0  0  0  0  0  0  0  0  0  0  0  0
   38.7730   23.3780   36.3980 C   0  0  0  0  0  0  0  0  0  0  0  0
   37.9000   22.6240   37.1950 F   0  0  0  0  0  0  0  0  0  0  0  0
   38.5170   24.6840   36.7770 F   0  0  0  0  0  0  0  0  0  0  0  0
   40.0530   23.0880   36.7140 F   0  0  0  0  0  0  0  0  0  0  0  0
   35.9286   17.0365   33.1129 H   0  0  0  0  0  0  0  0  0  0  0  0
   36.5044   15.9502   30.7146 H   0  0  0  0  0  0  0  0  0  0  0  0
   37.2909   16.8094   28.8424 H   0  0  0  0  0  0  0  0  0  0  0  0
   38.1569   19.8841   28.6543 H   0  0  0  0  0  0  0  0  0  0  0  0
   38.7814   19.0671   27.4793 H   0  0  0  0  0  0  0  0  0  0  0  0
   35.5621   19.4871   27.6965 H   0  0  0  0  0  0  0  0  0  0  0  0
   36.9204   17.8201   25.9026 H   0  0  0  0  0  0  0  0  0  0  0  0
   35.3985   17.2465   26.7224 H   0  0  0  0  0  0  0  0  0  0  0  0
   34.5556   19.6584   26.1746 H   0  0  0  0  0  0  0  0  0  0  0  0
   35.8421   19.6051   24.9220 H   0  0  0  0  0  0  0  0  0  0  0  0
   34.5368   18.3710   24.9220 H   0  0  0  0  0  0  0  0  0  0  0  0
   39.1715   24.1000   31.8730 H   0  0  0  0  0  0  0  0  0  0  0  0
   40.6028   24.5830   35.1174 H   0  0  0  0  0  0  0  0  0  0  0  0
   42.1466   24.6385   33.4969 H   0  0  0  0  0  0  0  0  0  0  0  0
   40.8595   24.0264   32.3540 H   0  0  0  0  0  0  0  0  0  0  0  0
   42.0179   26.0322   31.5024 H   0  0  0  0  0  0  0  0  0  0  0  0
   40.2281   26.2678   31.7975 H   0  0  0  0  0  0  0  0  0  0  0  0
   42.5749   27.4168   33.2642 H   0  0  0  0  0  0  0  0  0  0  0  0
   41.1406   28.2312   32.5647 H   0  0  0  0  0  0  0  0  0  0  0  0
   41.4252   26.7170   35.1581 H   0  0  0  0  0  0  0  0  0  0  0  0
   40.4631   28.1564   34.8207 H   0  0  0  0  0  0  0  0  0  0  0  0
   39.1615   26.5041   33.1083 H   0  0  0  0  0  0  0  0  0  0  0  0
   38.7478   26.4308   34.8195 H   0  0  0  0  0  0  0  0  0  0  0  0
  1  2  1  0
  1 11  1  0
  3  2  2  0
  4  5  1  0
  4  3  1  0
  5  1  2  0
  6  4  1  0
  7  6  1  0
  8  7  1  0
  8  6  1  0
  9  8  1  0
 10  9  1  0
 12 11  1  0
 12 18  1  0
 13 12  2  0
 14 15  2  0
 15 20  1  0
 15 16  1  0
 16 26  1  0
 17 16  2  0
 18 17  1  0
 19 14  1  0
 19 18  2  0
 21 20  1  0
 22 21  1  0
 22 23  1  0
 23 24  1  0
 25 20  1  0
 25 24  1  0
 26 29  1  0
 26 28  1  0
 26 27  1  0
  2 30  1  0
  3 31  1  0
  6 32  1  6
  7 33  1  0
  7 34  1  0
  8 35  1  1
  9 36  1  0
  9 37  1  0
 10 38  1  0
 10 39  1  0
 10 40  1  0
 14 41  1  0
 20 42  1  0
 21 43  1  0
 21 44  1  0
 22 45  1  0
 22 46  1  0
 23 47  1  0
 23 48  1  0
 24 49  1  0
 24 50  1  0
 25 51  1  0
 25 52  1  0
M  ISO  8  30  14  31  14  32  13  33  13  34  13  35  13  36   8  37   8
M  ISO  8  38   8  39   8  40   8  41  14  42  13  43  13  44  13  45  13
M  ISO  7  46  13  47  13  48  13  49  13  50  13  51  13  52  13
M  END
>  <minimizedAffinity>  (1) 
-4.95298862

>  <minimizedRMSD>  (1) 
3.28922749

$$$$
