
     RDKit          3D

 30 32  0  0  0  0  0  0  0  0999 V2000
   37.2950   21.6320   35.1630 C   0  0  0  0  0  0  0  0  0  0  0  0
   35.9760   21.1770   35.3300 C   0  0  0  0  0  0  0  0  0  0  0  0
   35.6060   20.5600   34.1230 C   0  0  0  0  0  0  0  0  0  0  0  0
   36.7300   20.6900   33.3160 C   0  0  0  0  0  0  0  0  0  0  0  0
   37.6860   21.3120   33.9460 O   0  0  0  0  0  0  0  0  0  0  0  0
   36.7460   20.1780   31.9880 N   0  0  0  0  0  0  0  0  0  0  0  0
   37.7520   20.6010   31.2020 C   0  0  0  0  0  0  0  0  0  0  0  0
   37.8380   20.1500   29.8980 C   0  0  0  0  0  0  0  0  0  0  0  0
   38.9310   20.5780   28.9670 C   0  0  0  0  0  0  0  0  0  0  0  0
   36.9040   19.2690   29.3950 C   0  0  0  0  0  0  0  0  0  0  0  0
   36.8970   18.7980   28.2120 O   0  0  0  0  0  0  0  0  0  0  0  0
   35.9220   18.8810   30.2280 N   0  0  0  0  0  0  0  0  0  0  0  0
   35.8170   19.3070   31.4990 C   0  0  0  0  0  0  0  0  0  0  0  0
   34.9360   18.9820   32.3050 O   0  0  0  0  0  0  0  0  0  0  0  0
   39.8750   22.8100   37.4560 C   0  0  0  0  0  0  0  0  0  0  0  0
   39.1520   23.5660   38.3980 C   0  0  0  0  0  0  0  0  0  0  0  0
   37.7540   23.6730   38.2390 C   0  0  0  0  0  0  0  0  0  0  0  0
   37.1680   23.0330   37.1750 N   0  0  0  0  0  0  0  0  0  0  0  0
   37.9040   22.3140   36.2920 C   0  0  0  0  0  0  0  0  0  0  0  0
   39.2290   22.2050   36.4290 N   0  0  0  0  0  0  0  0  0  0  0  0
   35.3538   21.2832   36.2309 H   0  0  0  0  0  0  0  0  0  0  0  0
   34.6465   20.0833   33.8739 H   0  0  0  0  0  0  0  0  0  0  0  0
   38.5028   21.3025   31.5948 H   0  0  0  0  0  0  0  0  0  0  0  0
   39.7986   20.9177   29.5517 H   0  0  0  0  0  0  0  0  0  0  0  0
   39.2259   19.7289   28.3329 H   0  0  0  0  0  0  0  0  0  0  0  0
   38.5710   21.4016   28.3329 H   0  0  0  0  0  0  0  0  0  0  0  0
   35.2132   18.2230   29.8737 H   0  0  0  0  0  0  0  0  0  0  0  0
   40.9661   22.7099   37.5533 H   0  0  0  0  0  0  0  0  0  0  0  0
   39.6638   24.0607   39.2366 H   0  0  0  0  0  0  0  0  0  0  0  0
   37.1487   24.2547   38.9498 H   0  0  0  0  0  0  0  0  0  0  0  0
  1  2  2  0
  1 19  1  0
  3  2  1  0
  4  5  1  0
  4  3  2  0
  5  1  1  0
  6  4  1  0
  7  6  1  0
  8  7  2  0
  9  8  1  0
 10  8  1  0
 10 12  1  0
 11 10  2  0
 12 13  1  0
 13  6  1  0
 13 14  2  0
 15 16  2  0
 17 16  1  0
 18 17  2  0
 19 20  2  0
 19 18  1  0
 20 15  1  0
  2 21  1  0
  3 22  1  0
  7 23  1  0
  9 24  1  0
  9 25  1  0
  9 26  1  0
 12 27  1  0
 15 28  1  0
 16 29  1  0
 17 30  1  0
M  ISO  8  21  14  22  14  23  14  24   8  25   8  26   8  27   9  28  14
M  ISO  2  29  14  30  14
M  END
>  <minimizedAffinity>  (1) 
-5.07495642

>  <minimizedRMSD>  (1) 
1.07221484

$$$$
