
     RDKit          3D

 30 32  0  0  0  0  0  0  0  0999 V2000
   37.1870   21.7800   35.1000 C   0  0  0  0  0  0  0  0  0  0  0  0
   36.0630   20.9810   35.3780 C   0  0  0  0  0  0  0  0  0  0  0  0
   35.5690   20.5540   34.1320 C   0  0  0  0  0  0  0  0  0  0  0  0
   36.4260   21.1240   33.1970 C   0  0  0  0  0  0  0  0  0  0  0  0
   37.3480   21.8250   33.7970 O   0  0  0  0  0  0  0  0  0  0  0  0
   39.9360   22.6570   37.3300 C   0  0  0  0  0  0  0  0  0  0  0  0
   39.3200   23.3670   38.3620 C   0  0  0  0  0  0  0  0  0  0  0  0
   37.9310   23.5470   38.2860 C   0  0  0  0  0  0  0  0  0  0  0  0
   37.2360   23.0300   37.2220 N   0  0  0  0  0  0  0  0  0  0  0  0
   37.8830   22.3500   36.2510 C   0  0  0  0  0  0  0  0  0  0  0  0
   39.2170   22.1630   36.3020 N   0  0  0  0  0  0  0  0  0  0  0  0
   36.2990   20.9490   31.7210 C   0  0  0  0  0  0  0  0  0  0  0  0
   37.7150   20.7940   31.1550 C   0  0  0  0  0  0  0  0  0  0  0  0
   37.4460   19.9870   29.9160 C   0  0  0  0  0  0  0  0  0  0  0  0
   36.5020   18.9180   30.4460 C   0  0  0  0  0  0  0  0  0  0  0  0
   35.5880   19.6830   31.3760 C   0  0  0  0  0  0  0  0  0  0  0  0
   35.6531   20.7390   36.3697 H   0  0  0  0  0  0  0  0  0  0  0  0
   34.6973   19.9112   33.9398 H   0  0  0  0  0  0  0  0  0  0  0  0
   41.0242   22.4982   37.3559 H   0  0  0  0  0  0  0  0  0  0  0  0
   39.9023   23.7704   39.2036 H   0  0  0  0  0  0  0  0  0  0  0  0
   37.4014   24.1001   39.0757 H   0  0  0  0  0  0  0  0  0  0  0  0
   35.7473   21.8111   31.3180 H   0  0  0  0  0  0  0  0  0  0  0  0
   38.1612   21.7696   30.9119 H   0  0  0  0  0  0  0  0  0  0  0  0
   38.4311   20.3306   31.8496 H   0  0  0  0  0  0  0  0  0  0  0  0
   38.3704   19.5441   29.5169 H   0  0  0  0  0  0  0  0  0  0  0  0
   37.0347   20.5730   29.0809 H   0  0  0  0  0  0  0  0  0  0  0  0
   35.9317   18.4559   29.6267 H   0  0  0  0  0  0  0  0  0  0  0  0
   37.0284   18.0920   30.9467 H   0  0  0  0  0  0  0  0  0  0  0  0
   34.6354   19.9068   30.8736 H   0  0  0  0  0  0  0  0  0  0  0  0
   35.3573   19.0974   32.2781 H   0  0  0  0  0  0  0  0  0  0  0  0
  1  2  2  0
  1 10  1  0
  3  2  1  0
  4  5  1  0
  4  3  2  0
  5  1  1  0
  6  7  2  0
  8  7  1  0
  9  8  2  0
 10 11  2  0
 10  9  1  0
 11  6  1  0
 12  4  1  0
 13 12  1  0
 14 15  1  0
 14 13  1  0
 15 16  1  0
 16 12  1  0
  2 17  1  0
  3 18  1  0
  6 19  1  0
  7 20  1  0
  8 21  1  0
 12 22  1  0
 13 23  1  0
 13 24  1  0
 14 25  1  0
 14 26  1  0
 15 27  1  0
 15 28  1  0
 16 29  1  0
 16 30  1  0
M  ISO  8  17  14  18  14  19  14  20  14  21  14  22  13  23  13  24  13
M  ISO  6  25  13  26  13  27  13  28  13  29  13  30  13
M  END
>  <minimizedAffinity>  (1) 
-4.79469156

>  <minimizedRMSD>  (1) 
0.27095288

$$$$
