
     RDKit          3D

 28 31  0  0  0  0  0  0  0  0999 V2000
   37.2400   21.6180   35.1600 C   0  0  0  0  0  0  0  0  0  0  0  0
   35.9540   21.1020   35.3930 C   0  0  0  0  0  0  0  0  0  0  0  0
   35.5410   20.5140   34.1890 C   0  0  0  0  0  0  0  0  0  0  0  0
   36.6050   20.7170   33.3170 C   0  0  0  0  0  0  0  0  0  0  0  0
   37.5820   21.3620   33.9030 O   0  0  0  0  0  0  0  0  0  0  0  0
   36.6120   20.2750   31.9650 N   0  0  0  0  0  0  0  0  0  0  0  0
   36.5460   21.0180   30.8450 C   0  0  0  0  0  0  0  0  0  0  0  0
   36.5830   20.1860   29.7830 N   0  0  0  0  0  0  0  0  0  0  0  0
   36.6720   18.9110   30.1880 C   0  0  0  0  0  0  0  0  0  0  0  0
   36.7440   17.6510   29.5940 C   0  0  0  0  0  0  0  0  0  0  0  0
   36.8290   16.5170   30.3330 N   0  0  0  0  0  0  0  0  0  0  0  0
   36.8420   16.6500   31.6700 C   0  0  0  0  0  0  0  0  0  0  0  0
   36.7740   17.8520   32.2860 N   0  0  0  0  0  0  0  0  0  0  0  0
   36.6880   18.9930   31.5450 C   0  0  0  0  0  0  0  0  0  0  0  0
   39.8980   22.7690   37.3760 C   0  0  0  0  0  0  0  0  0  0  0  0
   39.2270   23.5260   38.3350 C   0  0  0  0  0  0  0  0  0  0  0  0
   37.8350   23.6450   38.2220 C   0  0  0  0  0  0  0  0  0  0  0  0
   37.1970   23.0150   37.1770 N   0  0  0  0  0  0  0  0  0  0  0  0
   37.9050   22.2920   36.2740 C   0  0  0  0  0  0  0  0  0  0  0  0
   39.2320   22.1680   36.3680 N   0  0  0  0  0  0  0  0  0  0  0  0
   35.3846   21.1498   36.3329 H   0  0  0  0  0  0  0  0  0  0  0  0
   34.5880   20.0056   33.9807 H   0  0  0  0  0  0  0  0  0  0  0  0
   36.4742   22.1148   30.8024 H   0  0  0  0  0  0  0  0  0  0  0  0
   36.7315   17.5751   28.4967 H   0  0  0  0  0  0  0  0  0  0  0  0
   36.9108   15.7435   32.2893 H   0  0  0  0  0  0  0  0  0  0  0  0
   40.9905   22.6595   37.4421 H   0  0  0  0  0  0  0  0  0  0  0  0
   39.7731   24.0149   39.1552 H   0  0  0  0  0  0  0  0  0  0  0  0
   37.2622   24.2315   38.9554 H   0  0  0  0  0  0  0  0  0  0  0  0
  1  2  2  0
  1 19  1  0
  3  2  1  0
  4  5  1  0
  4  3  2  0
  5  1  1  0
  6  4  1  0
  7  6  1  0
  8  9  1  0
  8  7  2  0
  9 14  2  0
 10  9  1  0
 10 11  2  0
 11 12  1  0
 12 13  2  0
 14  6  1  0
 14 13  1  0
 15 16  2  0
 17 16  1  0
 18 17  2  0
 19 20  2  0
 19 18  1  0
 20 15  1  0
  2 21  1  0
  3 22  1  0
  7 23  1  0
 10 24  1  0
 12 25  1  0
 15 26  1  0
 16 27  1  0
 17 28  1  0
M  ISO  8  21  14  22  14  23  14  24  14  25  14  26  14  27  14  28  14
M  END
>  <minimizedAffinity>  (1) 
-4.62658978

>  <minimizedRMSD>  (1) 
1.02706397

$$$$
