
     RDKit          3D

 27 29  0  0  0  0  0  0  0  0999 V2000
   37.4560   21.6320   34.7620 C   0  0  0  0  0  0  0  0  0  0  0  0
   36.1180   21.2010   34.7800 C   0  0  0  0  0  0  0  0  0  0  0  0
   35.8490   20.6470   33.5190 C   0  0  0  0  0  0  0  0  0  0  0  0
   37.0470   20.7820   32.8280 C   0  0  0  0  0  0  0  0  0  0  0  0
   37.9390   21.3500   33.5780 O   0  0  0  0  0  0  0  0  0  0  0  0
   39.8240   22.7570   37.3000 C   0  0  0  0  0  0  0  0  0  0  0  0
   39.0130   23.3760   38.2620 C   0  0  0  0  0  0  0  0  0  0  0  0
   37.6290   23.4030   38.0300 C   0  0  0  0  0  0  0  0  0  0  0  0
   37.1420   22.8340   36.8930 N   0  0  0  0  0  0  0  0  0  0  0  0
   37.9540   22.2480   35.9900 C   0  0  0  0  0  0  0  0  0  0  0  0
   39.2920   22.1990   36.1740 N   0  0  0  0  0  0  0  0  0  0  0  0
   37.2440   20.3380   31.4560 C   0  0  0  0  0  0  0  0  0  0  0  0
   36.3290   19.5440   30.8130 C   0  0  0  0  0  0  0  0  0  0  0  0
   36.5100   19.1160   29.5050 C   0  0  0  0  0  0  0  0  0  0  0  0
   37.6500   19.5010   28.8200 C   0  0  0  0  0  0  0  0  0  0  0  0
   38.6030   20.3010   29.4190 C   0  0  0  0  0  0  0  0  0  0  0  0
   38.3600   20.6910   30.7260 C   0  0  0  0  0  0  0  0  0  0  0  0
   35.4154   21.2825   35.6224 H   0  0  0  0  0  0  0  0  0  0  0  0
   34.9068   20.2072   33.1602 H   0  0  0  0  0  0  0  0  0  0  0  0
   40.9122   22.7204   37.4563 H   0  0  0  0  0  0  0  0  0  0  0  0
   39.4467   23.8251   39.1676 H   0  0  0  0  0  0  0  0  0  0  0  0
   36.9495   23.8758   38.7544 H   0  0  0  0  0  0  0  0  0  0  0  0
   35.4210   19.2359   31.3521 H   0  0  0  0  0  0  0  0  0  0  0  0
   35.7569   18.4787   29.0186 H   0  0  0  0  0  0  0  0  0  0  0  0
   37.7988   19.1646   27.7833 H   0  0  0  0  0  0  0  0  0  0  0  0
   39.5118   20.6137   28.8839 H   0  0  0  0  0  0  0  0  0  0  0  0
   39.1108   21.3278   31.2168 H   0  0  0  0  0  0  0  0  0  0  0  0
  1  2  2  0
  1 10  1  0
  3  2  1  0
  4  3  2  0
  4  5  1  0
  5  1  1  0
  6  7  2  0
  8  7  1  0
  9  8  2  0
 10 11  2  0
 10  9  1  0
 11  6  1  0
 12  4  1  0
 13 12  2  0
 14 13  1  0
 15 16  1  0
 15 14  2  0
 16 17  2  0
 17 12  1  0
  2 18  1  0
  3 19  1  0
  6 20  1  0
  7 21  1  0
  8 22  1  0
 13 23  1  0
 14 24  1  0
 15 25  1  0
 16 26  1  0
 17 27  1  0
M  ISO  8  18  14  19  14  20  14  21  14  22  14  23  14  24  14  25  14
M  ISO  2  26  14  27  14
M  END
>  <minimizedAffinity>  (1) 
-4.47619486

>  <minimizedRMSD>  (1) 
1.04692435

$$$$
