
     RDKit          3D

 27 29  0  0  0  0  0  0  0  0999 V2000
   37.5000   21.6460   34.7550 C   0  0  0  0  0  0  0  0  0  0  0  0
   36.1570   21.2250   34.7660 C   0  0  0  0  0  0  0  0  0  0  0  0
   35.8800   20.6710   33.5110 C   0  0  0  0  0  0  0  0  0  0  0  0
   37.0950   20.8000   32.8250 C   0  0  0  0  0  0  0  0  0  0  0  0
   37.9890   21.3630   33.5740 O   0  0  0  0  0  0  0  0  0  0  0  0
   39.8580   22.7330   37.3050 C   0  0  0  0  0  0  0  0  0  0  0  0
   39.0370   23.3790   38.2590 C   0  0  0  0  0  0  0  0  0  0  0  0
   37.6560   23.4390   38.0170 C   0  0  0  0  0  0  0  0  0  0  0  0
   37.1960   22.8670   36.8720 N   0  0  0  0  0  0  0  0  0  0  0  0
   37.9930   22.2580   35.9790 C   0  0  0  0  0  0  0  0  0  0  0  0
   39.3260   22.1860   36.1880 N   0  0  0  0  0  0  0  0  0  0  0  0
   37.2670   20.3430   31.4490 C   0  0  0  0  0  0  0  0  0  0  0  0
   36.3240   19.5370   30.8020 C   0  0  0  0  0  0  0  0  0  0  0  0
   36.5140   19.1170   29.4940 C   0  0  0  0  0  0  0  0  0  0  0  0
   37.6510   19.4900   28.7990 C   0  0  0  0  0  0  0  0  0  0  0  0
   38.5860   20.2890   29.4370 C   0  0  0  0  0  0  0  0  0  0  0  0
   38.3950   20.7060   30.7400 C   0  0  0  0  0  0  0  0  0  0  0  0
   35.4538   21.3149   35.6071 H   0  0  0  0  0  0  0  0  0  0  0  0
   34.9354   20.2382   33.1499 H   0  0  0  0  0  0  0  0  0  0  0  0
   40.9434   22.6747   37.4738 H   0  0  0  0  0  0  0  0  0  0  0  0
   39.4702   23.8230   39.1674 H   0  0  0  0  0  0  0  0  0  0  0  0
   36.9723   23.9294   38.7256 H   0  0  0  0  0  0  0  0  0  0  0  0
   35.4151   19.2308   31.3407 H   0  0  0  0  0  0  0  0  0  0  0  0
   35.7574   18.4844   29.0068 H   0  0  0  0  0  0  0  0  0  0  0  0
   37.8091   19.1591   27.7619 H   0  0  0  0  0  0  0  0  0  0  0  0
   39.4943   20.5960   28.8977 H   0  0  0  0  0  0  0  0  0  0  0  0
   39.1552   21.3387   31.2215 H   0  0  0  0  0  0  0  0  0  0  0  0
  1  2  2  0
  1 10  1  0
  3  2  1  0
  4  3  2  0
  4  5  1  0
  5  1  1  0
  6  7  2  0
  8  7  1  0
  9  8  2  0
 10 11  2  0
 10  9  1  0
 11  6  1  0
 12  4  1  0
 13 12  2  0
 14 13  1  0
 15 16  1  0
 15 14  2  0
 16 17  2  0
 17 12  1  0
  2 18  1  0
  3 19  1  0
  6 20  1  0
  7 21  1  0
  8 22  1  0
 13 23  1  0
 14 24  1  0
 15 25  1  0
 16 26  1  0
 17 27  1  0
M  ISO  8  18  14  19  14  20  14  21  14  22  14  23  14  24  14  25  14
M  ISO  2  26  14  27  14
M  END
>  <minimizedAffinity>  (1) 
-4.46988153

>  <minimizedRMSD>  (1) 
1.06004131

$$$$
