
     RDKit          3D

 32 34  0  0  0  0  0  0  0  0999 V2000
   37.4190   21.7270   35.0260 C   0  0  0  0  0  0  0  0  0  0  0  0
   36.1260   21.2150   35.0830 C   0  0  0  0  0  0  0  0  0  0  0  0
   35.8360   20.6710   33.8250 C   0  0  0  0  0  0  0  0  0  0  0  0
   37.0120   20.9050   33.0850 C   0  0  0  0  0  0  0  0  0  0  0  0
   37.8930   21.5130   33.8100 O   0  0  0  0  0  0  0  0  0  0  0  0
   39.8480   22.7950   37.5310 C   0  0  0  0  0  0  0  0  0  0  0  0
   39.0610   23.4760   38.4730 C   0  0  0  0  0  0  0  0  0  0  0  0
   37.6600   23.5770   38.2510 C   0  0  0  0  0  0  0  0  0  0  0  0
   37.1720   22.9950   37.1200 N   0  0  0  0  0  0  0  0  0  0  0  0
   37.9420   22.3510   36.2380 C   0  0  0  0  0  0  0  0  0  0  0  0
   39.2790   22.2450   36.4340 N   0  0  0  0  0  0  0  0  0  0  0  0
   37.1440   20.5010   31.7260 N   0  0  0  0  0  0  0  0  0  0  0  0
   37.7300   21.3520   30.7280 C   0  0  0  0  0  0  0  0  0  0  0  0
   38.5390   20.5150   29.7610 C   0  0  0  0  0  0  0  0  0  0  0  0
   37.6900   19.4910   29.0470 C   0  0  0  0  0  0  0  0  0  0  0  0
   36.4620   19.1150   29.8340 C   0  0  0  0  0  0  0  0  0  0  0  0
   36.6800   19.1980   31.3220 C   0  0  0  0  0  0  0  0  0  0  0  0
   35.4556   21.2340   35.9549 H   0  0  0  0  0  0  0  0  0  0  0  0
   34.9101   20.1782   33.4936 H   0  0  0  0  0  0  0  0  0  0  0  0
   40.9336   22.7081   37.6858 H   0  0  0  0  0  0  0  0  0  0  0  0
   39.5198   23.9235   39.3670 H   0  0  0  0  0  0  0  0  0  0  0  0
   37.0011   24.1006   38.9594 H   0  0  0  0  0  0  0  0  0  0  0  0
   36.9334   21.8770   30.1805 H   0  0  0  0  0  0  0  0  0  0  0  0
   38.3877   22.0874   31.2144 H   0  0  0  0  0  0  0  0  0  0  0  0
   38.9964   21.1798   29.0134 H   0  0  0  0  0  0  0  0  0  0  0  0
   39.3048   19.9763   30.3384 H   0  0  0  0  0  0  0  0  0  0  0  0
   37.3754   19.9063   28.0782 H   0  0  0  0  0  0  0  0  0  0  0  0
   38.2971   18.5828   28.9178 H   0  0  0  0  0  0  0  0  0  0  0  0
   35.6446   19.7978   29.5590 H   0  0  0  0  0  0  0  0  0  0  0  0
   36.2172   18.0705   29.5908 H   0  0  0  0  0  0  0  0  0  0  0  0
   35.7295   18.9850   31.8330 H   0  0  0  0  0  0  0  0  0  0  0  0
   37.4509   18.4623   31.5948 H   0  0  0  0  0  0  0  0  0  0  0  0
  1  2  2  0
  1 10  1  0
  3  2  1  0
  4  5  1  0
  4  3  2  0
  5  1  1  0
  6  7  2  0
  8  7  1  0
  9  8  2  0
 10 11  2  0
 10  9  1  0
 11  6  1  0
 12  4  1  0
 13 12  1  0
 14 13  1  0
 15 14  1  0
 15 16  1  0
 16 17  1  0
 17 12  1  0
  2 18  1  0
  3 19  1  0
  6 20  1  0
  7 21  1  0
  8 22  1  0
 13 23  1  0
 13 24  1  0
 14 25  1  0
 14 26  1  0
 15 27  1  0
 15 28  1  0
 16 29  1  0
 16 30  1  0
 17 31  1  0
 17 32  1  0
M  ISO  8  18  14  19  14  20  14  21  14  22  14  23  13  24  13  25  13
M  ISO  7  26  13  27  13  28  13  29  13  30  13  31  13  32  13
M  END
>  <minimizedAffinity>  (1) 
-4.42761803

>  <minimizedRMSD>  (1) 
0.984112144

$$$$
