
     RDKit          3D

 24 26  0  0  0  0  0  0  0  0999 V2000
   37.1570   21.8350   35.0070 C   0  0  0  0  0  0  0  0  0  0  0  0
   36.1050   20.9370   35.2530 C   0  0  0  0  0  0  0  0  0  0  0  0
   35.5670   20.5660   34.0120 C   0  0  0  0  0  0  0  0  0  0  0  0
   36.3450   21.2770   33.0900 C   0  0  0  0  0  0  0  0  0  0  0  0
   37.2560   22.0020   33.6920 O   0  0  0  0  0  0  0  0  0  0  0  0
   39.9360   22.6120   37.2270 C   0  0  0  0  0  0  0  0  0  0  0  0
   39.3200   23.2910   38.2970 C   0  0  0  0  0  0  0  0  0  0  0  0
   37.9220   23.4800   38.2460 C   0  0  0  0  0  0  0  0  0  0  0  0
   37.2470   22.9930   37.1610 N   0  0  0  0  0  0  0  0  0  0  0  0
   37.8650   22.3530   36.1610 C   0  0  0  0  0  0  0  0  0  0  0  0
   39.2040   22.1600   36.1880 N   0  0  0  0  0  0  0  0  0  0  0  0
   36.1390   21.2000   31.6100 C   0  0  0  0  0  0  0  0  0  0  0  0
   37.3110   20.5450   30.8210 C   0  0  0  0  0  0  0  0  0  0  0  0
   35.9750   19.9030   30.9270 C   0  0  0  0  0  0  0  0  0  0  0  0
   35.7651   20.5883   36.2394 H   0  0  0  0  0  0  0  0  0  0  0  0
   34.7317   19.8792   33.8107 H   0  0  0  0  0  0  0  0  0  0  0  0
   41.0238   22.4490   37.2390 H   0  0  0  0  0  0  0  0  0  0  0  0
   39.9110   23.6628   39.1470 H   0  0  0  0  0  0  0  0  0  0  0  0
   37.3914   24.0035   39.0550 H   0  0  0  0  0  0  0  0  0  0  0  0
   35.5567   22.1331   31.5955 H   0  0  0  0  0  0  0  0  0  0  0  0
   38.1742   20.1232   31.3567 H   0  0  0  0  0  0  0  0  0  0  0  0
   37.9784   20.8490   30.0011 H   0  0  0  0  0  0  0  0  0  0  0  0
   35.3340   19.8393   30.0353 H   0  0  0  0  0  0  0  0  0  0  0  0
   35.6364   18.9104   31.2587 H   0  0  0  0  0  0  0  0  0  0  0  0
  1  2  2  0
  1 10  1  0
  3  2  1  0
  4  5  1  0
  4  3  2  0
  5  1  1  0
  6  7  2  0
  8  7  1  0
  9  8  2  0
 10 11  2  0
 10  9  1  0
 11  6  1  0
 12  4  1  0
 13 14  1  0
 13 12  1  0
 14 12  1  0
  2 15  1  0
  3 16  1  0
  6 17  1  0
  7 18  1  0
  8 19  1  0
 12 20  1  0
 13 21  1  0
 13 22  1  0
 14 23  1  0
 14 24  1  0
M  ISO  8  15  14  16  14  17  14  18  14  19  14  20  13  21  13  22  13
M  ISO  2  23  13  24  13
M  END
>  <minimizedAffinity>  (1) 
-4.40244007

>  <minimizedRMSD>  (1) 
0.50141865

$$$$
