
     RDKit          3D

 24 26  0  0  0  0  0  0  0  0999 V2000
   37.3700   21.6610   35.0070 C   0  0  0  0  0  0  0  0  0  0  0  0
   36.0650   21.1690   35.1090 C   0  0  0  0  0  0  0  0  0  0  0  0
   35.7360   20.6060   33.8670 C   0  0  0  0  0  0  0  0  0  0  0  0
   36.8900   20.8080   33.1020 C   0  0  0  0  0  0  0  0  0  0  0  0
   37.8000   21.4150   33.7940 O   0  0  0  0  0  0  0  0  0  0  0  0
   39.8510   22.7880   37.4420 C   0  0  0  0  0  0  0  0  0  0  0  0
   39.0870   23.4650   38.4000 C   0  0  0  0  0  0  0  0  0  0  0  0
   37.6960   23.5370   38.2110 C   0  0  0  0  0  0  0  0  0  0  0  0
   37.1530   22.9420   37.0960 N   0  0  0  0  0  0  0  0  0  0  0  0
   37.9280   22.2980   36.1940 C   0  0  0  0  0  0  0  0  0  0  0  0
   39.2570   22.2230   36.3660 N   0  0  0  0  0  0  0  0  0  0  0  0
   37.0020   20.3730   31.7150 C   0  0  0  0  0  0  0  0  0  0  0  0
   36.0600   19.6280   31.0190 C   0  0  0  0  0  0  0  0  0  0  0  0
   36.5240   19.4100   29.7220 C   0  0  0  0  0  0  0  0  0  0  0  0
   37.7640   20.0570   29.7030 C   0  0  0  0  0  0  0  0  0  0  0  0
   37.9880   20.5950   30.8780 O   0  0  0  0  0  0  0  0  0  0  0  0
   35.4175   21.2149   35.9971 H   0  0  0  0  0  0  0  0  0  0  0  0
   34.7954   20.1214   33.5663 H   0  0  0  0  0  0  0  0  0  0  0  0
   40.9417   22.7150   37.5651 H   0  0  0  0  0  0  0  0  0  0  0  0
   39.5625   23.9282   39.2771 H   0  0  0  0  0  0  0  0  0  0  0  0
   37.0559   24.0576   38.9385 H   0  0  0  0  0  0  0  0  0  0  0  0
   35.1030   19.2680   31.4246 H   0  0  0  0  0  0  0  0  0  0  0  0
   36.0314   18.8596   28.9069 H   0  0  0  0  0  0  0  0  0  0  0  0
   38.4436   20.1067   28.8395 H   0  0  0  0  0  0  0  0  0  0  0  0
  1  2  2  0
  1 10  1  0
  3  2  1  0
  4  5  1  0
  4  3  2  0
  5  1  1  0
  6  7  2  0
  8  7  1  0
  9  8  2  0
 10 11  2  0
 10  9  1  0
 11  6  1  0
 12  4  1  0
 13 12  2  0
 14 13  1  0
 15 14  2  0
 15 16  1  0
 16 12  1  0
  2 17  1  0
  3 18  1  0
  6 19  1  0
  7 20  1  0
  8 21  1  0
 13 22  1  0
 14 23  1  0
 15 24  1  0
M  ISO  8  17  14  18  14  19  14  20  14  21  14  22  14  23  14  24  14
M  END
>  <minimizedAffinity>  (1) 
-4.34762573

>  <minimizedRMSD>  (1) 
0.785383344

$$$$
