
     RDKit          3D

 25 25  0  0  0  0  0  0  0  0999 V2000
   40.4820   22.3900   37.6880 C   0  0  0  0  0  0  0  0  0  0  0  0
   39.3100   23.1490   37.4220 C   0  0  0  0  0  0  0  0  0  0  0  0
   38.9900   23.4020   36.0940 C   0  0  0  0  0  0  0  0  0  0  0  0
   39.8070   22.9130   35.1180 N   0  0  0  0  0  0  0  0  0  0  0  0
   40.9210   22.1920   35.4150 C   0  0  0  0  0  0  0  0  0  0  0  0
   41.2410   21.9410   36.6890 N   0  0  0  0  0  0  0  0  0  0  0  0
   38.4260   23.6740   38.4930 C   0  0  0  0  0  0  0  0  0  0  0  0
   39.2220   23.8500   39.6310 F   0  0  0  0  0  0  0  0  0  0  0  0
   37.4160   22.8230   38.8150 F   0  0  0  0  0  0  0  0  0  0  0  0
   37.9770   24.9660   38.1750 F   0  0  0  0  0  0  0  0  0  0  0  0
   41.7550   21.6990   34.2860 C   0  0  0  0  0  0  0  0  0  0  0  0
   42.6250   22.8310   33.7240 C   0  0  0  0  0  0  0  0  0  0  0  0
   40.9170   21.2230   33.1280 C   0  0  0  0  0  0  0  0  0  0  0  0
   42.6900   20.5810   34.6850 C   0  0  0  0  0  0  0  0  0  0  0  0
   40.7651   22.1712   38.7282 H   0  0  0  0  0  0  0  0  0  0  0  0
   38.0945   23.9858   35.8348 H   0  0  0  0  0  0  0  0  0  0  0  0
   43.0644   23.4027   34.5547 H   0  0  0  0  0  0  0  0  0  0  0  0
   43.4293   22.4036   33.1072 H   0  0  0  0  0  0  0  0  0  0  0  0
   42.0050   23.4982   33.1072 H   0  0  0  0  0  0  0  0  0  0  0  0
   40.0199   20.7134   33.5096 H   0  0  0  0  0  0  0  0  0  0  0  0
   40.6160   22.0850   32.5145 H   0  0  0  0  0  0  0  0  0  0  0  0
   41.5032   20.5231   32.5145 H   0  0  0  0  0  0  0  0  0  0  0  0
   42.7412   20.5198   35.7821 H   0  0  0  0  0  0  0  0  0  0  0  0
   42.3158   19.6285   34.2817 H   0  0  0  0  0  0  0  0  0  0  0  0
   43.6937   20.7809   34.2817 H   0  0  0  0  0  0  0  0  0  0  0  0
  2  1  2  0
  2  7  1  0
  3  2  1  0
  4  5  1  0
  4  3  2  0
  5  6  2  0
  6  1  1  0
  7  9  1  0
  7  8  1  0
 10  7  1  0
 11 14  1  0
 11  5  1  0
 12 11  1  0
 13 11  1  0
  1 15  1  0
  3 16  1  0
 12 17  1  0
 12 18  1  0
 12 19  1  0
 13 20  1  0
 13 21  1  0
 13 22  1  0
 14 23  1  0
 14 24  1  0
 14 25  1  0
M  ISO  8  15  14  16  14  17   8  18   8  19   8  20   8  21   8  22   8
M  ISO  3  23   8  24   8  25   8
M  END
>  <minimizedAffinity>  (1) 
-3.90690541

>  <minimizedRMSD>  (1) 
0.38545832

$$$$
