
     RDKit          3D

 25 27  0  0  0  0  0  0  0  0999 V2000
   37.5000   21.6470   34.7560 C   0  0  0  0  0  0  0  0  0  0  0  0
   36.1600   21.2180   34.7600 C   0  0  0  0  0  0  0  0  0  0  0  0
   35.8780   20.6730   33.5080 C   0  0  0  0  0  0  0  0  0  0  0  0
   37.0790   20.8090   32.8180 C   0  0  0  0  0  0  0  0  0  0  0  0
   37.9910   21.3750   33.5720 O   0  0  0  0  0  0  0  0  0  0  0  0
   39.8600   22.7320   37.3020 C   0  0  0  0  0  0  0  0  0  0  0  0
   39.0410   23.3690   38.2610 C   0  0  0  0  0  0  0  0  0  0  0  0
   37.6610   23.4200   38.0160 C   0  0  0  0  0  0  0  0  0  0  0  0
   37.1770   22.8540   36.8690 N   0  0  0  0  0  0  0  0  0  0  0  0
   38.0050   22.2510   35.9770 C   0  0  0  0  0  0  0  0  0  0  0  0
   39.3230   22.1900   36.1880 N   0  0  0  0  0  0  0  0  0  0  0  0
   37.2810   20.3750   31.4400 C   0  0  0  0  0  0  0  0  0  0  0  0
   36.3410   19.5820   30.8150 C   0  0  0  0  0  0  0  0  0  0  0  0
   36.5310   19.1650   29.4990 C   0  0  0  0  0  0  0  0  0  0  0  0
   37.6700   19.5730   28.8740 N   0  0  0  0  0  0  0  0  0  0  0  0
   38.5670   20.3340   29.4820 C   0  0  0  0  0  0  0  0  0  0  0  0
   38.3630   20.7210   30.7430 N   0  0  0  0  0  0  0  0  0  0  0  0
   35.4580   21.2985   35.6030 H   0  0  0  0  0  0  0  0  0  0  0  0
   34.9323   20.2392   33.1509 H   0  0  0  0  0  0  0  0  0  0  0  0
   40.9465   22.6770   37.4646 H   0  0  0  0  0  0  0  0  0  0  0  0
   39.4722   23.8111   39.1713 H   0  0  0  0  0  0  0  0  0  0  0  0
   36.9816   23.9055   38.7320 H   0  0  0  0  0  0  0  0  0  0  0  0
   35.4351   19.2767   31.3593 H   0  0  0  0  0  0  0  0  0  0  0  0
   35.7915   18.5324   28.9862 H   0  0  0  0  0  0  0  0  0  0  0  0
   39.4775   20.6463   28.9495 H   0  0  0  0  0  0  0  0  0  0  0  0
  1  2  2  0
  1 10  1  0
  3  2  1  0
  4  3  2  0
  4  5  1  0
  5  1  1  0
  6  7  2  0
  8  7  1  0
  9  8  2  0
 10 11  2  0
 10  9  1  0
 11  6  1  0
 12  4  1  0
 13 12  2  0
 14 13  1  0
 15 16  1  0
 15 14  2  0
 16 17  2  0
 17 12  1  0
  2 18  1  0
  3 19  1  0
  6 20  1  0
  7 21  1  0
  8 22  1  0
 13 23  1  0
 14 24  1  0
 16 25  1  0
M  ISO  8  18  14  19  14  20  14  21  14  22  14  23  14  24  14  25  14
M  END
>  <minimizedAffinity>  (1) 
-4.30059719

>  <minimizedRMSD>  (1) 
0.999201477

$$$$
