
     RDKit          3D

 31 33  0  0  0  0  0  0  0  0999 V2000
   37.4100   21.6900   35.0090 C   0  0  0  0  0  0  0  0  0  0  0  0
   36.0990   21.2000   35.0730 C   0  0  0  0  0  0  0  0  0  0  0  0
   35.7820   20.6390   33.8420 C   0  0  0  0  0  0  0  0  0  0  0  0
   36.9580   20.8320   33.0890 C   0  0  0  0  0  0  0  0  0  0  0  0
   37.8600   21.4370   33.8000 O   0  0  0  0  0  0  0  0  0  0  0  0
   39.8470   22.8020   37.4840 C   0  0  0  0  0  0  0  0  0  0  0  0
   39.0630   23.4750   38.4430 C   0  0  0  0  0  0  0  0  0  0  0  0
   37.6760   23.5400   38.2220 C   0  0  0  0  0  0  0  0  0  0  0  0
   37.1500   22.9560   37.1030 N   0  0  0  0  0  0  0  0  0  0  0  0
   37.9380   22.3230   36.2130 C   0  0  0  0  0  0  0  0  0  0  0  0
   39.2600   22.2490   36.4030 N   0  0  0  0  0  0  0  0  0  0  0  0
   37.1390   20.4220   31.7340 N   0  0  0  0  0  0  0  0  0  0  0  0
   36.1100   20.2960   30.7440 C   0  0  0  0  0  0  0  0  0  0  0  0
   36.5270   19.2320   29.7320 C   0  0  0  0  0  0  0  0  0  0  0  0
   37.7250   19.6230   29.0130 N   0  0  0  0  0  0  0  0  0  0  0  0
   38.5080   20.5660   29.8030 C   0  0  0  0  0  0  0  0  0  0  0  0
   38.4750   20.0860   31.2460 C   0  0  0  0  0  0  0  0  0  0  0  0
   35.4344   21.2507   35.9481 H   0  0  0  0  0  0  0  0  0  0  0  0
   34.8417   20.1605   33.5306 H   0  0  0  0  0  0  0  0  0  0  0  0
   40.9364   22.7280   37.6172 H   0  0  0  0  0  0  0  0  0  0  0  0
   39.5201   23.9330   39.3326 H   0  0  0  0  0  0  0  0  0  0  0  0
   37.0216   24.0547   38.9409 H   0  0  0  0  0  0  0  0  0  0  0  0
   35.1675   19.9978   31.2265 H   0  0  0  0  0  0  0  0  0  0  0  0
   35.9631   21.2593   30.2337 H   0  0  0  0  0  0  0  0  0  0  0  0
   36.7212   18.2891   30.2641 H   0  0  0  0  0  0  0  0  0  0  0  0
   35.7117   19.1098   29.0038 H   0  0  0  0  0  0  0  0  0  0  0  0
   38.2941   18.7861   28.8217 H   0  0  0  0  0  0  0  0  0  0  0  0
   39.5456   20.5915   29.4386 H   0  0  0  0  0  0  0  0  0  0  0  0
   38.0922   21.5811   29.7212 H   0  0  0  0  0  0  0  0  0  0  0  0
   38.6410   18.9997   31.2945 H   0  0  0  0  0  0  0  0  0  0  0  0
   39.2632   20.5559   31.8525 H   0  0  0  0  0  0  0  0  0  0  0  0
  1  2  2  0
  1 10  1  0
  3  2  1  0
  4  5  1  0
  4  3  2  0
  5  1  1  0
  6  7  2  0
  8  7  1  0
  9  8  2  0
 10 11  2  0
 10  9  1  0
 11  6  1  0
 12  4  1  0
 13 12  1  0
 14 13  1  0
 15 14  1  0
 15 16  1  0
 16 17  1  0
 17 12  1  0
  2 18  1  0
  3 19  1  0
  6 20  1  0
  7 21  1  0
  8 22  1  0
 13 23  1  0
 13 24  1  0
 14 25  1  0
 14 26  1  0
 15 27  1  0
 16 28  1  0
 16 29  1  0
 17 30  1  0
 17 31  1  0
M  ISO  8  18  14  19  14  20  14  21  14  22  14  23  13  24  13  25  13
M  ISO  6  26  13  27   5  28  13  29  13  30  13  31  13
M  END
>  <minimizedAffinity>  (1) 
-4.29223394

>  <minimizedRMSD>  (1) 
0.906460762

$$$$
