
     RDKit          3D

 25 27  0  0  0  0  0  0  0  0999 V2000
   37.5400   21.6690   34.7720 C   0  0  0  0  0  0  0  0  0  0  0  0
   36.1990   21.2400   34.7750 C   0  0  0  0  0  0  0  0  0  0  0  0
   35.9440   20.6940   33.5110 C   0  0  0  0  0  0  0  0  0  0  0  0
   37.1620   20.8350   32.8290 C   0  0  0  0  0  0  0  0  0  0  0  0
   38.0450   21.3980   33.5930 O   0  0  0  0  0  0  0  0  0  0  0  0
   39.8700   22.7410   37.3620 C   0  0  0  0  0  0  0  0  0  0  0  0
   39.0500   23.3850   38.3000 C   0  0  0  0  0  0  0  0  0  0  0  0
   37.6730   23.4550   38.0420 C   0  0  0  0  0  0  0  0  0  0  0  0
   37.2160   22.8890   36.8910 N   0  0  0  0  0  0  0  0  0  0  0  0
   38.0240   22.2750   36.0050 C   0  0  0  0  0  0  0  0  0  0  0  0
   39.3420   22.2050   36.2460 N   0  0  0  0  0  0  0  0  0  0  0  0
   37.3250   20.3840   31.4560 C   0  0  0  0  0  0  0  0  0  0  0  0
   36.4050   19.6060   30.7880 C   0  0  0  0  0  0  0  0  0  0  0  0
   36.5310   19.1650   29.4930 C   0  0  0  0  0  0  0  0  0  0  0  0
   37.6520   19.5280   28.8220 N   0  0  0  0  0  0  0  0  0  0  0  0
   38.5640   20.2860   29.4530 C   0  0  0  0  0  0  0  0  0  0  0  0
   38.4210   20.7140   30.7410 N   0  0  0  0  0  0  0  0  0  0  0  0
   35.4877   21.3187   35.6104 H   0  0  0  0  0  0  0  0  0  0  0  0
   35.0061   20.2560   33.1390 H   0  0  0  0  0  0  0  0  0  0  0  0
   40.9534   22.6734   37.5398 H   0  0  0  0  0  0  0  0  0  0  0  0
   39.4757   23.8239   39.2144 H   0  0  0  0  0  0  0  0  0  0  0  0
   36.9865   23.9497   38.7448 H   0  0  0  0  0  0  0  0  0  0  0  0
   35.4966   19.3145   31.3355 H   0  0  0  0  0  0  0  0  0  0  0  0
   35.7556   18.5440   29.0206 H   0  0  0  0  0  0  0  0  0  0  0  0
   39.4718   20.5764   28.9039 H   0  0  0  0  0  0  0  0  0  0  0  0
  1  2  2  0
  1 10  1  0
  3  2  1  0
  4  3  2  0
  4  5  1  0
  5  1  1  0
  6  7  2  0
  8  7  1  0
  9  8  2  0
 10 11  2  0
 10  9  1  0
 11  6  1  0
 12  4  1  0
 13 12  2  0
 14 13  1  0
 15 16  1  0
 15 14  2  0
 16 17  2  0
 17 12  1  0
  2 18  1  0
  3 19  1  0
  6 20  1  0
  7 21  1  0
  8 22  1  0
 13 23  1  0
 14 24  1  0
 16 25  1  0
M  ISO  8  18  14  19  14  20  14  21  14  22  14  23  14  24  14  25  14
M  END
>  <minimizedAffinity>  (1) 
-4.27257919

>  <minimizedRMSD>  (1) 
1.07795203

$$$$
