
     RDKit          3D

 20 21  0  0  0  0  0  0  0  0999 V2000
   37.0970   21.8260   34.9200 C   0  0  0  0  0  0  0  0  0  0  0  0
   36.1070   20.8710   35.1710 C   0  0  0  0  0  0  0  0  0  0  0  0
   35.5260   20.5320   33.9470 C   0  0  0  0  0  0  0  0  0  0  0  0
   36.2180   21.3190   33.0340 C   0  0  0  0  0  0  0  0  0  0  0  0
   37.1250   22.0620   33.6280 O   0  0  0  0  0  0  0  0  0  0  0  0
   39.8910   22.6050   37.1290 C   0  0  0  0  0  0  0  0  0  0  0  0
   39.3010   23.2520   38.2150 C   0  0  0  0  0  0  0  0  0  0  0  0
   37.9090   23.4240   38.1840 C   0  0  0  0  0  0  0  0  0  0  0  0
   37.2220   22.9520   37.1040 N   0  0  0  0  0  0  0  0  0  0  0  0
   37.8390   22.3270   36.0700 C   0  0  0  0  0  0  0  0  0  0  0  0
   39.1730   22.1460   36.0680 N   0  0  0  0  0  0  0  0  0  0  0  0
   36.0320   21.3810   31.5830 C   0  0  0  0  0  0  0  0  0  0  0  0
   36.2160   20.4180   30.7900 O   0  0  0  0  0  0  0  0  0  0  0  0
   35.6180   22.5920   31.0110 O   0  0  0  0  0  0  0  0  0  0  0  0
   35.8349   20.4608   36.1547 H   0  0  0  0  0  0  0  0  0  0  0  0
   34.7153   19.8144   33.7523 H   0  0  0  0  0  0  0  0  0  0  0  0
   40.9814   22.4599   37.1304 H   0  0  0  0  0  0  0  0  0  0  0  0
   39.9032   23.6129   39.0618 H   0  0  0  0  0  0  0  0  0  0  0  0
   37.3846   23.9269   39.0099 H   0  0  0  0  0  0  0  0  0  0  0  0
   35.4857   22.6574   30.0321 H   0  0  0  0  0  0  0  0  0  0  0  0
  1  2  2  0
  1 10  1  0
  3  2  1  0
  4  5  1  0
  4  3  2  0
  5  1  1  0
  6  7  2  0
  8  7  1  0
  9  8  2  0
 10  9  1  0
 11 10  2  0
 11  6  1  0
 12  4  1  0
 13 12  2  0
 14 12  1  0
  2 15  1  0
  3 16  1  0
  6 17  1  0
  7 18  1  0
  8 19  1  0
 14 20  1  0
M  ISO  6  15  14  16  14  17  14  18  14  19  14  20   3
M  END
>  <minimizedAffinity>  (1) 
-4.26130867

>  <minimizedRMSD>  (1) 
0.328773201

$$$$
