
     RDKit          3D

 19 20  0  0  0  0  0  0  0  0999 V2000
   37.1820   21.7880   34.9540 C   0  0  0  0  0  0  0  0  0  0  0  0
   36.0780   20.9590   35.1900 C   0  0  0  0  0  0  0  0  0  0  0  0
   35.5690   20.5630   33.9520 C   0  0  0  0  0  0  0  0  0  0  0  0
   36.4110   21.1860   33.0370 C   0  0  0  0  0  0  0  0  0  0  0  0
   37.3340   21.8870   33.6490 O   0  0  0  0  0  0  0  0  0  0  0  0
   39.9000   22.6290   37.2200 C   0  0  0  0  0  0  0  0  0  0  0  0
   39.2660   23.2890   38.2730 C   0  0  0  0  0  0  0  0  0  0  0  0
   37.8760   23.4520   38.2070 C   0  0  0  0  0  0  0  0  0  0  0  0
   37.2180   22.9560   37.1200 N   0  0  0  0  0  0  0  0  0  0  0  0
   37.8710   22.3190   36.1160 C   0  0  0  0  0  0  0  0  0  0  0  0
   39.2140   22.1460   36.1480 N   0  0  0  0  0  0  0  0  0  0  0  0
   36.3080   21.0920   31.5900 C   0  0  0  0  0  0  0  0  0  0  0  0
   35.4400   21.7420   30.9200 O   0  0  0  0  0  0  0  0  0  0  0  0
   35.6825   20.6713   36.1753 H   0  0  0  0  0  0  0  0  0  0  0  0
   34.7060   19.9121   33.7483 H   0  0  0  0  0  0  0  0  0  0  0  0
   40.9911   22.4944   37.2573 H   0  0  0  0  0  0  0  0  0  0  0  0
   39.8406   23.6703   39.1300 H   0  0  0  0  0  0  0  0  0  0  0  0
   37.3295   23.9667   39.0110 H   0  0  0  0  0  0  0  0  0  0  0  0
   37.0065   20.4341   31.0521 H   0  0  0  0  0  0  0  0  0  0  0  0
  1  2  2  0
  1 10  1  0
  3  2  1  0
  4  5  1  0
  4  3  2  0
  5  1  1  0
  6  7  2  0
  8  7  1  0
  9  8  2  0
 10 11  2  0
 10  9  1  0
 11  6  1  0
 12  4  1  0
 13 12  2  0
  2 14  1  0
  3 15  1  0
  6 16  1  0
  7 17  1  0
  8 18  1  0
 12 19  1  0
M  ISO  6  14  14  15  14  16  14  17  14  18  14  19   6
M  END
>  <minimizedAffinity>  (1) 
-4.04751301

>  <minimizedRMSD>  (1) 
0.175136879

$$$$
