
     RDKit          3D

 19 20  0  0  0  0  0  0  0  0999 V2000
   37.1860   21.7770   34.9410 C   0  0  0  0  0  0  0  0  0  0  0  0
   36.0670   20.9630   35.1770 C   0  0  0  0  0  0  0  0  0  0  0  0
   35.5730   20.5590   33.9240 C   0  0  0  0  0  0  0  0  0  0  0  0
   36.4390   21.1660   33.0120 C   0  0  0  0  0  0  0  0  0  0  0  0
   37.3540   21.8590   33.6360 O   0  0  0  0  0  0  0  0  0  0  0  0
   39.8860   22.6350   37.2170 C   0  0  0  0  0  0  0  0  0  0  0  0
   39.2450   23.2960   38.2820 C   0  0  0  0  0  0  0  0  0  0  0  0
   37.8540   23.4430   38.2000 C   0  0  0  0  0  0  0  0  0  0  0  0
   37.2130   22.9390   37.1030 N   0  0  0  0  0  0  0  0  0  0  0  0
   37.8630   22.3130   36.1070 C   0  0  0  0  0  0  0  0  0  0  0  0
   39.1980   22.1570   36.1560 N   0  0  0  0  0  0  0  0  0  0  0  0
   36.3280   21.0390   31.6050 N   0  0  0  0  0  0  0  0  0  0  0  0
   35.6534   20.6916   36.1595 H   0  0  0  0  0  0  0  0  0  0  0  0
   34.7067   19.9152   33.7118 H   0  0  0  0  0  0  0  0  0  0  0  0
   40.9777   22.5038   37.2491 H   0  0  0  0  0  0  0  0  0  0  0  0
   39.8123   23.6808   39.1423 H   0  0  0  0  0  0  0  0  0  0  0  0
   37.2923   23.9509   38.9978 H   0  0  0  0  0  0  0  0  0  0  0  0
   35.5723   20.4701   31.1973 H   0  0  0  0  0  0  0  0  0  0  0  0
   37.0030   21.5156   30.9900 H   0  0  0  0  0  0  0  0  0  0  0  0
  1  2  2  0
  1 10  1  0
  3  2  1  0
  4  5  1  0
  4  3  2  0
  5  1  1  0
  6  7  2  0
  8  7  1  0
  9  8  2  0
 10 11  2  0
 10  9  1  0
 11  6  1  0
 12  4  1  0
  2 13  1  0
  3 14  1  0
  6 15  1  0
  7 16  1  0
  8 17  1  0
 12 18  1  0
 12 19  1  0
M  ISO  5  13  14  14  14  15  14  16  14  17  14
M  END
>  <minimizedAffinity>  (1) 
-3.94927859

>  <minimizedRMSD>  (1) 
0.0187771954

$$$$
