
     RDKit          3D

 29 31  0  0  0  0  0  0  0  0999 V2000
   37.2600   21.7560   35.2650 C   0  0  0  0  0  0  0  0  0  0  0  0
   36.0700   21.0690   35.5060 C   0  0  0  0  0  0  0  0  0  0  0  0
   35.6240   20.5560   34.2810 C   0  0  0  0  0  0  0  0  0  0  0  0
   36.6000   20.9800   33.3700 C   0  0  0  0  0  0  0  0  0  0  0  0
   37.5200   21.6650   33.9750 O   0  0  0  0  0  0  0  0  0  0  0  0
   39.9200   22.7710   37.5470 C   0  0  0  0  0  0  0  0  0  0  0  0
   39.2530   23.5270   38.5110 C   0  0  0  0  0  0  0  0  0  0  0  0
   37.8630   23.6880   38.3700 C   0  0  0  0  0  0  0  0  0  0  0  0
   37.2210   23.1110   37.3120 N   0  0  0  0  0  0  0  0  0  0  0  0
   37.9170   22.3840   36.4010 C   0  0  0  0  0  0  0  0  0  0  0  0
   39.2350   22.2250   36.5280 N   0  0  0  0  0  0  0  0  0  0  0  0
   36.4220   20.6060   32.0040 N   0  0  0  0  0  0  0  0  0  0  0  0
   35.8710   19.2960   31.6180 C   0  0  0  0  0  0  0  0  0  0  0  0
   36.3790   18.9810   30.2500 C   0  0  0  0  0  0  0  0  0  0  0  0
   37.4270   20.0740   30.0420 C   0  0  0  0  0  0  0  0  0  0  0  0
   36.6710   21.2380   30.7070 C   0  0  0  0  0  0  0  0  0  0  0  0
   35.5726   20.9515   36.4801 H   0  0  0  0  0  0  0  0  0  0  0  0
   34.7207   19.9608   34.0816 H   0  0  0  0  0  0  0  0  0  0  0  0
   41.0073   22.6217   37.6210 H   0  0  0  0  0  0  0  0  0  0  0  0
   39.7957   23.9818   39.3528 H   0  0  0  0  0  0  0  0  0  0  0  0
   37.2964   24.2752   39.1076 H   0  0  0  0  0  0  0  0  0  0  0  0
   36.2029   18.5248   32.3287 H   0  0  0  0  0  0  0  0  0  0  0  0
   34.7713   19.3204   31.6268 H   0  0  0  0  0  0  0  0  0  0  0  0
   36.8328   17.9796   30.2127 H   0  0  0  0  0  0  0  0  0  0  0  0
   35.5953   18.9647   29.4782 H   0  0  0  0  0  0  0  0  0  0  0  0
   38.3726   19.8457   30.5556 H   0  0  0  0  0  0  0  0  0  0  0  0
   37.7456   20.2410   29.0025 H   0  0  0  0  0  0  0  0  0  0  0  0
   37.2924   22.1413   30.7963 H   0  0  0  0  0  0  0  0  0  0  0  0
   35.7834   21.6055   30.1711 H   0  0  0  0  0  0  0  0  0  0  0  0
  1  2  2  0
  1 10  1  0
  3  2  1  0
  4  5  1  0
  4  3  2  0
  5  1  1  0
  6  7  2  0
  8  7  1  0
  9  8  2  0
 10 11  2  0
 10  9  1  0
 11  6  1  0
 12  4  1  0
 13 12  1  0
 14 13  1  0
 15 14  1  0
 15 16  1  0
 16 12  1  0
  2 17  1  0
  3 18  1  0
  6 19  1  0
  7 20  1  0
  8 21  1  0
 13 22  1  0
 13 23  1  0
 14 24  1  0
 14 25  1  0
 15 26  1  0
 15 27  1  0
 16 28  1  0
 16 29  1  0
M  ISO  8  17  14  18  14  19  14  20  14  21  14  22  13  23  13  24  13
M  ISO  5  25  13  26  13  27  13  28  13  29  13
M  END
>  <minimizedAffinity>  (1) 
-4.45127678

>  <minimizedRMSD>  (1) 
0.49750644

$$$$
