
     RDKit          3D

 43 47  0  0  1  0  0  0  0  0999 V2000
   36.4920   20.5200   32.0180 N   0  0  0  0  0  0  0  0  0  0  0  0
   35.8860   19.2110   31.6610 C   0  0  0  0  0  0  0  0  0  0  0  0
   36.4160   18.8200   30.3310 C   0  0  0  0  0  0  0  0  0  0  0  0
   37.5260   19.8620   30.1130 C   0  0  0  0  0  0  0  0  0  0  0  0
   36.7950   21.0720   30.7200 C   0  0  2  0  0  0  0  0  0  0  0  0
   37.5460   22.2680   30.6920 N   0  0  0  0  0  0  0  0  0  0  0  0
   38.8690   22.3960   30.5740 C   0  0  0  0  0  0  0  0  0  0  0  0
   39.2070   23.7200   30.5890 N   0  0  0  0  0  0  0  0  0  0  0  0
   38.0940   24.4450   30.7170 C   0  0  0  0  0  0  0  0  0  0  0  0
   37.7790   25.7860   30.7930 C   0  0  0  0  0  0  0  0  0  0  0  0
   38.6850   26.6370   30.7390 O   0  0  0  0  0  0  0  0  0  0  0  0
   36.5010   26.2490   30.9280 N   0  0  0  0  0  0  0  0  0  0  0  0
   35.5380   25.3030   30.9840 C   0  0  0  0  0  0  0  0  0  0  0  0
   34.1720   25.6440   31.1220 N   0  0  0  0  0  0  0  0  0  0  0  0
   35.7860   23.9760   30.9150 N   0  0  0  0  0  0  0  0  0  0  0  0
   37.0570   23.5320   30.7810 C   0  0  0  0  0  0  0  0  0  0  0  0
   37.2580   21.7180   35.2870 C   0  0  0  0  0  0  0  0  0  0  0  0
   36.0570   21.0700   35.5110 C   0  0  0  0  0  0  0  0  0  0  0  0
   35.6340   20.5400   34.2790 C   0  0  0  0  0  0  0  0  0  0  0  0
   36.6340   20.9160   33.3800 C   0  0  0  0  0  0  0  0  0  0  0  0
   37.5400   21.5860   34.0030 O   0  0  0  0  0  0  0  0  0  0  0  0
   39.9070   22.7870   37.5560 C   0  0  0  0  0  0  0  0  0  0  0  0
   39.2370   23.5480   38.4990 C   0  0  0  0  0  0  0  0  0  0  0  0
   37.8500   23.7020   38.3620 C   0  0  0  0  0  0  0  0  0  0  0  0
   37.2020   23.1020   37.3090 N   0  0  0  0  0  0  0  0  0  0  0  0
   37.9230   22.3640   36.4120 C   0  0  0  0  0  0  0  0  0  0  0  0
   39.2340   22.2150   36.5380 N   0  0  0  0  0  0  0  0  0  0  0  0
   36.1590   18.4541   32.4110 H   0  0  0  0  0  0  0  0  0  0  0  0
   34.7890   19.2875   31.6329 H   0  0  0  0  0  0  0  0  0  0  0  0
   36.8238   17.7985   30.3473 H   0  0  0  0  0  0  0  0  0  0  0  0
   35.6560   18.8073   29.5359 H   0  0  0  0  0  0  0  0  0  0  0  0
   38.4469   19.6124   30.6604 H   0  0  0  0  0  0  0  0  0  0  0  0
   37.8854   19.9798   29.0801 H   0  0  0  0  0  0  0  0  0  0  0  0
   35.9071   21.4313   30.1791 H   0  0  0  0  0  0  0  0  0  0  0  0
   39.5799   21.5620   30.4790 H   0  0  0  0  0  0  0  0  0  0  0  0
   36.2853   27.2546   30.9835 H   0  0  0  0  0  0  0  0  0  0  0  0
   33.4577   24.9030   31.1622 H   0  0  0  0  0  0  0  0  0  0  0  0
   33.8917   26.6333   31.1823 H   0  0  0  0  0  0  0  0  0  0  0  0
   35.5308   20.9850   36.4732 H   0  0  0  0  0  0  0  0  0  0  0  0
   34.7223   19.9607   34.0708 H   0  0  0  0  0  0  0  0  0  0  0  0
   40.9951   22.6485   37.6382 H   0  0  0  0  0  0  0  0  0  0  0  0
   39.7781   24.0189   39.3329 H   0  0  0  0  0  0  0  0  0  0  0  0
   37.2844   24.2991   39.0925 H   0  0  0  0  0  0  0  0  0  0  0  0
  1 20  1  0
  2  1  1  0
  3  2  1  0
  4  3  1  0
  4  5  1  0
  5  1  1  0
  6  5  1  0
  6 16  1  0
  7  8  2  0
  7  6  1  0
  8  9  1  0
  9 16  2  0
  9 10  1  0
 10 12  1  0
 11 10  2  0
 12 13  1  0
 13 14  1  0
 15 13  2  0
 16 15  1  0
 17 18  2  0
 17 26  1  0
 19 18  1  0
 20 21  1  0
 20 19  2  0
 21 17  1  0
 22 23  2  0
 24 23  1  0
 25 24  2  0
 26 27  2  0
 26 25  1  0
 27 22  1  0
  2 28  1  0
  2 29  1  0
  3 30  1  0
  3 31  1  0
  4 32  1  0
  4 33  1  0
  5 34  1  6
  7 35  1  0
 12 36  1  0
 14 37  1  0
 14 38  1  0
 18 39  1  0
 19 40  1  0
 22 41  1  0
 23 42  1  0
 24 43  1  0
M  ISO  8  28  13  29  13  30  13  31  13  32  13  33  13  34  13  35  14
M  ISO  6  36   9  39  14  40  14  41  14  42  14  43  14
M  END
>  <minimizedAffinity>  (1) 
-6.25829411

>  <minimizedRMSD>  (1) 
0.568671942

$$$$
