
     RDKit          3D

 40 44  0  0  1  0  0  0  0  0999 V2000
   36.3710   20.6390   32.1260 N   0  0  0  0  0  0  0  0  0  0  0  0
   35.9510   19.2700   31.7470 C   0  0  0  0  0  0  0  0  0  0  0  0
   36.4320   19.0130   30.3590 C   0  0  0  0  0  0  0  0  0  0  0  0
   37.3400   20.2120   30.1250 C   0  0  0  0  0  0  0  0  0  0  0  0
   36.4780   21.2760   30.8270 C   0  0  2  0  0  0  0  0  0  0  0  0
   37.1670   22.5280   30.8430 N   0  0  0  0  0  0  0  0  0  0  0  0
   38.4960   22.7190   30.7800 C   0  0  0  0  0  0  0  0  0  0  0  0
   38.7790   24.0480   30.8200 N   0  0  0  0  0  0  0  0  0  0  0  0
   37.6070   24.7340   30.9100 C   0  0  0  0  0  0  0  0  0  0  0  0
   37.2900   26.0750   30.9820 C   0  0  0  0  0  0  0  0  0  0  0  0
   35.9990   26.4910   31.0660 N   0  0  0  0  0  0  0  0  0  0  0  0
   35.0540   25.5200   31.0760 C   0  0  0  0  0  0  0  0  0  0  0  0
   35.3720   24.2320   31.0070 N   0  0  0  0  0  0  0  0  0  0  0  0
   36.6220   23.7420   30.9210 C   0  0  0  0  0  0  0  0  0  0  0  0
   37.2560   21.7880   35.3700 C   0  0  0  0  0  0  0  0  0  0  0  0
   36.0810   21.0800   35.6440 C   0  0  0  0  0  0  0  0  0  0  0  0
   35.6140   20.5630   34.4280 C   0  0  0  0  0  0  0  0  0  0  0  0
   36.5590   21.0040   33.4970 C   0  0  0  0  0  0  0  0  0  0  0  0
   37.4840   21.7010   34.0640 O   0  0  0  0  0  0  0  0  0  0  0  0
   39.9260   22.7840   37.6400 C   0  0  0  0  0  0  0  0  0  0  0  0
   39.2900   23.5890   38.5690 C   0  0  0  0  0  0  0  0  0  0  0  0
   37.9160   23.7910   38.4080 C   0  0  0  0  0  0  0  0  0  0  0  0
   37.2530   23.2070   37.3710 N   0  0  0  0  0  0  0  0  0  0  0  0
   37.9350   22.4230   36.4850 C   0  0  0  0  0  0  0  0  0  0  0  0
   39.2370   22.2260   36.6290 N   0  0  0  0  0  0  0  0  0  0  0  0
   36.3942   18.5379   32.4381 H   0  0  0  0  0  0  0  0  0  0  0  0
   34.8562   19.1763   31.7976 H   0  0  0  0  0  0  0  0  0  0  0  0
   36.9908   18.0676   30.2961 H   0  0  0  0  0  0  0  0  0  0  0  0
   35.6263   18.9094   29.6173 H   0  0  0  0  0  0  0  0  0  0  0  0
   38.3227   20.0899   30.6040 H   0  0  0  0  0  0  0  0  0  0  0  0
   37.6039   20.4197   29.0775 H   0  0  0  0  0  0  0  0  0  0  0  0
   35.5077   21.5309   30.3758 H   0  0  0  0  0  0  0  0  0  0  0  0
   39.2453   21.9170   30.7068 H   0  0  0  0  0  0  0  0  0  0  0  0
   38.0977   26.8216   30.9712 H   0  0  0  0  0  0  0  0  0  0  0  0
   33.9940   25.8062   31.1431 H   0  0  0  0  0  0  0  0  0  0  0  0
   35.6111   20.9528   36.6304 H   0  0  0  0  0  0  0  0  0  0  0  0
   34.7158   19.9539   34.2485 H   0  0  0  0  0  0  0  0  0  0  0  0
   41.0066   22.5987   37.7296 H   0  0  0  0  0  0  0  0  0  0  0  0
   39.8430   24.0510   39.4001 H   0  0  0  0  0  0  0  0  0  0  0  0
   37.3681   24.4240   39.1215 H   0  0  0  0  0  0  0  0  0  0  0  0
  1 18  1  0
  2  1  1  0
  3  2  1  0
  4  3  1  0
  4  5  1  0
  5  6  1  0
  5  1  1  0
  6 14  1  0
  7  8  2  0
  7  6  1  0
  8  9  1  0
  9 14  2  0
  9 10  1  0
 10 11  2  0
 11 12  1  0
 13 12  2  0
 14 13  1  0
 15 16  2  0
 15 24  1  0
 17 16  1  0
 18 19  1  0
 18 17  2  0
 19 15  1  0
 20 21  2  0
 22 21  1  0
 23 22  2  0
 24 25  2  0
 24 23  1  0
 25 20  1  0
  2 26  1  0
  2 27  1  0
  3 28  1  0
  3 29  1  0
  4 30  1  0
  4 31  1  0
  5 32  1  6
  7 33  1  0
 10 34  1  0
 12 35  1  0
 16 36  1  0
 17 37  1  0
 20 38  1  0
 21 39  1  0
 22 40  1  0
M  ISO  8  26  13  27  13  28  13  29  13  30  13  31  13  32  13  33  14
M  ISO  7  34  14  35  14  36  14  37  14  38  14  39  14  40  14
M  END
>  <minimizedAffinity>  (1) 
-6.16607618

>  <minimizedRMSD>  (1) 
0.585127711

$$$$
