
     RDKit          3D

 39 42  0  0  1  0  0  0  0  0999 V2000
   36.2320   20.5030   32.2390 N   0  0  0  0  0  0  0  0  0  0  0  0
   36.2310   19.0590   31.8930 C   0  0  0  0  0  0  0  0  0  0  0  0
   36.4810   18.9690   30.4300 C   0  0  0  0  0  0  0  0  0  0  0  0
   36.9940   20.3640   30.1230 C   0  0  0  0  0  0  0  0  0  0  0  0
   35.9640   21.1580   30.9710 C   0  0  2  0  0  0  0  0  0  0  0  0
   36.3720   22.5840   31.0140 C   0  0  0  0  0  0  0  0  0  0  0  0
   37.6580   22.9770   30.7750 C   0  0  0  0  0  0  0  0  0  0  0  0
   37.9760   24.3330   30.8420 C   0  0  0  0  0  0  0  0  0  0  0  0
   36.9790   25.2610   31.1500 C   0  0  0  0  0  0  0  0  0  0  0  0
   35.6630   24.8540   31.3930 C   0  0  0  0  0  0  0  0  0  0  0  0
   35.3800   23.5040   31.3200 C   0  0  0  0  0  0  0  0  0  0  0  0
   37.2360   21.7430   35.4200 C   0  0  0  0  0  0  0  0  0  0  0  0
   36.0490   21.1160   35.7420 C   0  0  0  0  0  0  0  0  0  0  0  0
   35.5290   20.5710   34.5640 C   0  0  0  0  0  0  0  0  0  0  0  0
   36.4610   20.9120   33.5800 C   0  0  0  0  0  0  0  0  0  0  0  0
   37.4110   21.5800   34.1330 O   0  0  0  0  0  0  0  0  0  0  0  0
   40.0360   22.7560   37.5310 C   0  0  0  0  0  0  0  0  0  0  0  0
   39.4510   23.5850   38.4740 C   0  0  0  0  0  0  0  0  0  0  0  0
   38.0540   23.8070   38.3880 C   0  0  0  0  0  0  0  0  0  0  0  0
   37.3370   23.2020   37.3880 N   0  0  0  0  0  0  0  0  0  0  0  0
   37.9770   22.3950   36.4890 C   0  0  0  0  0  0  0  0  0  0  0  0
   39.2830   22.1910   36.5740 N   0  0  0  0  0  0  0  0  0  0  0  0
   37.0253   18.5363   32.4460 H   0  0  0  0  0  0  0  0  0  0  0  0
   35.2728   18.5893   32.1599 H   0  0  0  0  0  0  0  0  0  0  0  0
   37.2359   18.2034   30.1979 H   0  0  0  0  0  0  0  0  0  0  0  0
   35.5986   18.6767   29.8419 H   0  0  0  0  0  0  0  0  0  0  0  0
   38.0265   20.5152   30.4710 H   0  0  0  0  0  0  0  0  0  0  0  0
   37.0568   20.6342   29.0585 H   0  0  0  0  0  0  0  0  0  0  0  0
   34.9154   21.1594   30.6386 H   0  0  0  0  0  0  0  0  0  0  0  0
   38.4322   22.2340   30.5330 H   0  0  0  0  0  0  0  0  0  0  0  0
   39.0061   24.6697   30.6534 H   0  0  0  0  0  0  0  0  0  0  0  0
   37.2328   26.3300   31.2024 H   0  0  0  0  0  0  0  0  0  0  0  0
   34.8782   25.5859   31.6346 H   0  0  0  0  0  0  0  0  0  0  0  0
   34.3542   23.1538   31.5070 H   0  0  0  0  0  0  0  0  0  0  0  0
   35.5953   21.0561   36.7423 H   0  0  0  0  0  0  0  0  0  0  0  0
   34.5960   20.0018   34.4397 H   0  0  0  0  0  0  0  0  0  0  0  0
   41.1179   22.5606   37.5663 H   0  0  0  0  0  0  0  0  0  0  0  0
   40.0523   24.0565   39.2653 H   0  0  0  0  0  0  0  0  0  0  0  0
   37.5495   24.4586   39.1167 H   0  0  0  0  0  0  0  0  0  0  0  0
  1 15  1  0
  2  1  1  0
  3  2  1  0
  4  3  1  0
  4  5  1  0
  5  6  1  0
  5  1  1  0
  6 11  2  0
  7  8  2  0
  7  6  1  0
  8  9  1  0
  9 10  2  0
 11 10  1  0
 12 13  2  0
 12 21  1  0
 14 13  1  0
 15 16  1  0
 15 14  2  0
 16 12  1  0
 17 18  2  0
 19 18  1  0
 20 19  2  0
 21 22  2  0
 21 20  1  0
 22 17  1  0
  2 23  1  0
  2 24  1  0
  3 25  1  0
  3 26  1  0
  4 27  1  0
  4 28  1  0
  5 29  1  6
  7 30  1  0
  8 31  1  0
  9 32  1  0
 10 33  1  0
 11 34  1  0
 13 35  1  0
 14 36  1  0
 17 37  1  0
 18 38  1  0
 19 39  1  0
M  ISO  8  23  13  24  13  25  13  26  13  27  13  28  13  29  13  30  14
M  ISO  8  31  14  32  14  33  14  34  14  35  14  36  14  37  14  38  14
M  ISO  1  39  14
M  END
>  <minimizedAffinity>  (1) 
-5.69940472

>  <minimizedRMSD>  (1) 
1.13989186

$$$$
