
     RDKit          3D

 37 40  0  0  1  0  0  0  0  0999 V2000
   36.1510   20.6280   32.3170 N   0  0  0  0  0  0  0  0  0  0  0  0
   35.9880   19.2030   31.9380 C   0  0  0  0  0  0  0  0  0  0  0  0
   36.3560   19.0770   30.5010 C   0  0  0  0  0  0  0  0  0  0  0  0
   36.9260   20.4560   30.1990 C   0  0  0  0  0  0  0  0  0  0  0  0
   35.9570   21.3070   31.0500 C   0  0  2  0  0  0  0  0  0  0  0  0
   37.2130   21.7940   35.5100 C   0  0  0  0  0  0  0  0  0  0  0  0
   36.0490   21.0900   35.8450 C   0  0  0  0  0  0  0  0  0  0  0  0
   35.5250   20.5710   34.6510 C   0  0  0  0  0  0  0  0  0  0  0  0
   36.4270   21.0090   33.6630 C   0  0  0  0  0  0  0  0  0  0  0  0
   37.3690   21.7010   34.2050 O   0  0  0  0  0  0  0  0  0  0  0  0
   40.0070   22.7710   37.6370 C   0  0  0  0  0  0  0  0  0  0  0  0
   39.4060   23.6280   38.5750 C   0  0  0  0  0  0  0  0  0  0  0  0
   38.0340   23.8680   38.4690 C   0  0  0  0  0  0  0  0  0  0  0  0
   37.3330   23.2620   37.4650 N   0  0  0  0  0  0  0  0  0  0  0  0
   37.9590   22.4380   36.5790 C   0  0  0  0  0  0  0  0  0  0  0  0
   39.2620   22.2050   36.6710 N   0  0  0  0  0  0  0  0  0  0  0  0
   36.3430   22.7160   31.0480 C   0  0  0  0  0  0  0  0  0  0  0  0
   35.4360   23.6990   31.3880 C   0  0  0  0  0  0  0  0  0  0  0  0
   35.7640   25.0420   31.3960 C   0  0  0  0  0  0  0  0  0  0  0  0
   37.0200   25.3640   31.0560 N   0  0  0  0  0  0  0  0  0  0  0  0
   37.9120   24.3950   30.7220 C   0  0  0  0  0  0  0  0  0  0  0  0
   37.5980   23.0660   30.7100 N   0  0  0  0  0  0  0  0  0  0  0  0
   36.6491   18.5733   32.5515 H   0  0  0  0  0  0  0  0  0  0  0  0
   34.9511   18.8746   32.1025 H   0  0  0  0  0  0  0  0  0  0  0  0
   37.1100   18.2906   30.3488 H   0  0  0  0  0  0  0  0  0  0  0  0
   35.5156   18.7920   29.8510 H   0  0  0  0  0  0  0  0  0  0  0  0
   37.9681   20.5551   30.5370 H   0  0  0  0  0  0  0  0  0  0  0  0
   36.9807   20.7233   29.1334 H   0  0  0  0  0  0  0  0  0  0  0  0
   34.9087   21.3627   30.7214 H   0  0  0  0  0  0  0  0  0  0  0  0
   35.6259   20.9673   36.8529 H   0  0  0  0  0  0  0  0  0  0  0  0
   34.6185   19.9623   34.5179 H   0  0  0  0  0  0  0  0  0  0  0  0
   41.0858   22.5634   37.6930 H   0  0  0  0  0  0  0  0  0  0  0  0
   40.0009   24.0977   39.3722 H   0  0  0  0  0  0  0  0  0  0  0  0
   37.5263   24.5340   39.1822 H   0  0  0  0  0  0  0  0  0  0  0  0
   34.4130   23.4026   31.6631 H   0  0  0  0  0  0  0  0  0  0  0  0
   35.0273   25.8118   31.6691 H   0  0  0  0  0  0  0  0  0  0  0  0
   38.9344   24.6949   30.4486 H   0  0  0  0  0  0  0  0  0  0  0  0
  1  9  1  0
  2  1  1  0
  3  2  1  0
  4  3  1  0
  4  5  1  0
  5  1  1  0
  6  7  2  0
  6 15  1  0
  8  7  1  0
  9 10  1  0
  9  8  2  0
 10  6  1  0
 11 12  2  0
 13 12  1  0
 14 13  2  0
 15 16  2  0
 15 14  1  0
 16 11  1  0
 17  5  1  0
 17 18  2  0
 18 19  1  0
 20 19  2  0
 21 20  1  0
 22 21  2  0
 22 17  1  0
  2 23  1  0
  2 24  1  0
  3 25  1  0
  3 26  1  0
  4 27  1  0
  4 28  1  0
  5 29  1  6
  7 30  1  0
  8 31  1  0
 11 32  1  0
 12 33  1  0
 13 34  1  0
 18 35  1  0
 19 36  1  0
 21 37  1  0
M  ISO  8  23  13  24  13  25  13  26  13  27  13  28  13  29  13  30  14
M  ISO  7  31  14  32  14  33  14  34  14  35  14  36  14  37  14
M  END
>  <minimizedAffinity>  (1) 
-5.58373451

>  <minimizedRMSD>  (1) 
0.96626544

$$$$
