
     RDKit          3D

 35 38  0  0  1  0  0  0  0  0999 V2000
   36.1170   20.6980   32.3150 N   0  0  0  0  0  0  0  0  0  0  0  0
   36.0110   19.2870   31.8830 C   0  0  0  0  0  0  0  0  0  0  0  0
   36.3760   19.2150   30.4470 C   0  0  0  0  0  0  0  0  0  0  0  0
   36.8610   20.6350   30.1720 C   0  0  0  0  0  0  0  0  0  0  0  0
   35.8570   21.3850   31.0680 C   0  0  2  0  0  0  0  0  0  0  0  0
   37.2070   21.8200   35.5030 C   0  0  0  0  0  0  0  0  0  0  0  0
   36.0700   21.0770   35.8510 C   0  0  0  0  0  0  0  0  0  0  0  0
   35.5370   20.5710   34.6530 C   0  0  0  0  0  0  0  0  0  0  0  0
   36.4080   21.0550   33.6590 C   0  0  0  0  0  0  0  0  0  0  0  0
   37.3420   21.7620   34.1950 O   0  0  0  0  0  0  0  0  0  0  0  0
   39.9960   22.7640   37.6460 C   0  0  0  0  0  0  0  0  0  0  0  0
   39.4230   23.6210   38.5850 C   0  0  0  0  0  0  0  0  0  0  0  0
   38.0350   23.8780   38.4730 C   0  0  0  0  0  0  0  0  0  0  0  0
   37.3230   23.2880   37.4660 N   0  0  0  0  0  0  0  0  0  0  0  0
   37.9480   22.4570   36.5790 C   0  0  0  0  0  0  0  0  0  0  0  0
   39.2450   22.2150   36.6810 N   0  0  0  0  0  0  0  0  0  0  0  0
   36.2130   22.7710   31.0690 N   0  0  0  0  0  0  0  0  0  0  0  0
   37.4270   23.3010   30.7650 C   0  0  0  0  0  0  0  0  0  0  0  0
   37.3220   24.6410   30.8930 N   0  0  0  0  0  0  0  0  0  0  0  0
   36.0700   24.9290   31.2670 C   0  0  0  0  0  0  0  0  0  0  0  0
   35.3950   23.7910   31.3750 N   0  0  0  0  0  0  0  0  0  0  0  0
   36.6983   18.6637   32.4739 H   0  0  0  0  0  0  0  0  0  0  0  0
   34.9856   18.9186   32.0341 H   0  0  0  0  0  0  0  0  0  0  0  0
   37.1751   18.4791   30.2740 H   0  0  0  0  0  0  0  0  0  0  0  0
   35.5504   18.8940   29.7949 H   0  0  0  0  0  0  0  0  0  0  0  0
   37.9016   20.7890   30.4936 H   0  0  0  0  0  0  0  0  0  0  0  0
   36.8847   20.9397   29.1153 H   0  0  0  0  0  0  0  0  0  0  0  0
   34.7924   21.3781   30.7913 H   0  0  0  0  0  0  0  0  0  0  0  0
   35.6724   20.9205   36.8646 H   0  0  0  0  0  0  0  0  0  0  0  0
   34.6444   19.9415   34.5223 H   0  0  0  0  0  0  0  0  0  0  0  0
   41.0711   22.5371   37.6975 H   0  0  0  0  0  0  0  0  0  0  0  0
   40.0262   24.0799   39.3823 H   0  0  0  0  0  0  0  0  0  0  0  0
   37.5344   24.5460   39.1894 H   0  0  0  0  0  0  0  0  0  0  0  0
   38.3274   22.7423   30.4697 H   0  0  0  0  0  0  0  0  0  0  0  0
   35.6688   25.9362   31.4531 H   0  0  0  0  0  0  0  0  0  0  0  0
  1  9  1  0
  2  1  1  0
  3  2  1  0
  4  3  1  0
  4  5  1  0
  5 17  1  0
  5  1  1  0
  6  7  2  0
  6 15  1  0
  8  7  1  0
  9 10  1  0
  9  8  2  0
 10  6  1  0
 11 12  2  0
 13 12  1  0
 14 13  2  0
 15 16  2  0
 15 14  1  0
 16 11  1  0
 17 21  1  0
 18 19  2  0
 18 17  1  0
 19 20  1  0
 20 21  2  0
  2 22  1  0
  2 23  1  0
  3 24  1  0
  3 25  1  0
  4 26  1  0
  4 27  1  0
  5 28  1  6
  7 29  1  0
  8 30  1  0
 11 31  1  0
 12 32  1  0
 13 33  1  0
 18 34  1  0
 20 35  1  0
M  ISO  8  22  13  23  13  24  13  25  13  26  13  27  13  28  13  29  14
M  ISO  6  30  14  31  14  32  14  33  14  34  14  35  14
M  END
>  <minimizedAffinity>  (1) 
-5.29750204

>  <minimizedRMSD>  (1) 
1.06971312

$$$$
