
     RDKit          3D

 35 38  0  0  1  0  0  0  0  0999 V2000
   36.1420   20.5700   32.3050 N   0  0  0  0  0  0  0  0  0  0  0  0
   36.0130   19.1700   31.9110 C   0  0  0  0  0  0  0  0  0  0  0  0
   36.3720   19.0680   30.4640 C   0  0  0  0  0  0  0  0  0  0  0  0
   36.9030   20.4640   30.1800 C   0  0  0  0  0  0  0  0  0  0  0  0
   35.9200   21.2670   31.0470 C   0  0  2  0  0  0  0  0  0  0  0  0
   37.1950   21.7730   35.4910 C   0  0  0  0  0  0  0  0  0  0  0  0
   36.0390   21.0880   35.8250 C   0  0  0  0  0  0  0  0  0  0  0  0
   35.5110   20.5540   34.6370 C   0  0  0  0  0  0  0  0  0  0  0  0
   36.4220   20.9730   33.6500 C   0  0  0  0  0  0  0  0  0  0  0  0
   37.3730   21.6690   34.1820 O   0  0  0  0  0  0  0  0  0  0  0  0
   39.9950   22.7670   37.6100 C   0  0  0  0  0  0  0  0  0  0  0  0
   39.4010   23.6200   38.5480 C   0  0  0  0  0  0  0  0  0  0  0  0
   38.0210   23.8530   38.4460 C   0  0  0  0  0  0  0  0  0  0  0  0
   37.3150   23.2470   37.4490 N   0  0  0  0  0  0  0  0  0  0  0  0
   37.9380   22.4240   36.5590 C   0  0  0  0  0  0  0  0  0  0  0  0
   39.2400   22.2040   36.6540 N   0  0  0  0  0  0  0  0  0  0  0  0
   36.3610   22.6840   31.0840 C   0  0  0  0  0  0  0  0  0  0  0  0
   37.7310   23.1860   30.8690 C   0  0  0  0  0  0  0  0  0  0  0  0
   37.5010   25.0310   31.0730 S   0  0  0  0  0  0  0  0  0  0  0  0
   35.6480   24.7780   31.4010 C   0  0  0  0  0  0  0  0  0  0  0  0
   35.5140   23.6580   31.3290 N   0  0  0  0  0  0  0  0  0  0  0  0
   36.6943   18.5482   32.5103 H   0  0  0  0  0  0  0  0  0  0  0  0
   34.9846   18.8170   32.0776 H   0  0  0  0  0  0  0  0  0  0  0  0
   37.1443   18.3031   30.2953 H   0  0  0  0  0  0  0  0  0  0  0  0
   35.5353   18.7677   29.8161 H   0  0  0  0  0  0  0  0  0  0  0  0
   37.9441   20.5865   30.5133 H   0  0  0  0  0  0  0  0  0  0  0  0
   36.9456   20.7505   29.1188 H   0  0  0  0  0  0  0  0  0  0  0  0
   34.8669   21.3123   30.7324 H   0  0  0  0  0  0  0  0  0  0  0  0
   35.6128   20.9815   36.8335 H   0  0  0  0  0  0  0  0  0  0  0  0
   34.6002   19.9507   34.5090 H   0  0  0  0  0  0  0  0  0  0  0  0
   41.0743   22.5595   37.6564 H   0  0  0  0  0  0  0  0  0  0  0  0
   39.9983   24.0934   39.3412 H   0  0  0  0  0  0  0  0  0  0  0  0
   37.5145   24.5169   39.1621 H   0  0  0  0  0  0  0  0  0  0  0  0
   38.6490   22.6222   30.6466 H   0  0  0  0  0  0  0  0  0  0  0  0
   34.8847   25.5416   31.6115 H   0  0  0  0  0  0  0  0  0  0  0  0
  1  9  1  0
  2  1  1  0
  3  2  1  0
  4  3  1  0
  4  5  1  0
  5 17  1  0
  5  1  1  0
  6  7  2  0
  6 15  1  0
  8  7  1  0
  9 10  1  0
  9  8  2  0
 10  6  1  0
 11 12  2  0
 13 12  1  0
 14 13  2  0
 15 16  2  0
 15 14  1  0
 16 11  1  0
 17 21  1  0
 18 19  1  0
 18 17  2  0
 19 20  1  0
 21 20  2  0
  2 22  1  0
  2 23  1  0
  3 24  1  0
  3 25  1  0
  4 26  1  0
  4 27  1  0
  5 28  1  6
  7 29  1  0
  8 30  1  0
 11 31  1  0
 12 32  1  0
 13 33  1  0
 18 34  1  0
 20 35  1  0
M  ISO  8  22  13  23  13  24  13  25  13  26  13  27  13  28  13  29  14
M  ISO  6  30  14  31  14  32  14  33  14  34  14  35  14
M  END
>  <minimizedAffinity>  (1) 
-5.29714632

>  <minimizedRMSD>  (1) 
0.947752595

$$$$
