
     RDKit          3D

 36 39  0  0  1  0  0  0  0  0999 V2000
   36.1900   20.4670   32.2000 N   0  0  0  0  0  0  0  0  0  0  0  0
   36.1870   19.0370   31.8360 C   0  0  0  0  0  0  0  0  0  0  0  0
   36.5550   18.9500   30.3910 C   0  0  0  0  0  0  0  0  0  0  0  0
   36.9150   20.3810   30.0610 C   0  0  0  0  0  0  0  0  0  0  0  0
   35.9050   21.1210   30.9370 C   0  0  2  0  0  0  0  0  0  0  0  0
   37.2150   21.7120   35.3760 C   0  0  0  0  0  0  0  0  0  0  0  0
   36.0240   21.0900   35.7020 C   0  0  0  0  0  0  0  0  0  0  0  0
   35.5030   20.5450   34.5160 C   0  0  0  0  0  0  0  0  0  0  0  0
   36.4400   20.8870   33.5440 C   0  0  0  0  0  0  0  0  0  0  0  0
   37.4140   21.5580   34.0710 O   0  0  0  0  0  0  0  0  0  0  0  0
   40.0570   22.7180   37.4380 C   0  0  0  0  0  0  0  0  0  0  0  0
   39.4640   23.5440   38.4090 C   0  0  0  0  0  0  0  0  0  0  0  0
   38.0670   23.7490   38.3420 C   0  0  0  0  0  0  0  0  0  0  0  0
   37.3530   23.1470   37.3520 N   0  0  0  0  0  0  0  0  0  0  0  0
   37.9630   22.3630   36.4420 C   0  0  0  0  0  0  0  0  0  0  0  0
   39.2710   22.1720   36.5070 N   0  0  0  0  0  0  0  0  0  0  0  0
   36.3470   22.4780   31.0300 N   0  0  0  0  0  0  0  0  0  0  0  0
   37.5480   23.0040   30.8300 N   0  0  0  0  0  0  0  0  0  0  0  0
   37.5170   24.3350   31.0260 C   0  0  0  0  0  0  0  0  0  0  0  0
   36.2250   24.6620   31.3670 C   0  0  0  0  0  0  0  0  0  0  0  0
   35.4970   23.4800   31.3660 C   0  0  0  0  0  0  0  0  0  0  0  0
   36.9218   18.4910   32.4459 H   0  0  0  0  0  0  0  0  0  0  0  0
   35.1982   18.5898   32.0154 H   0  0  0  0  0  0  0  0  0  0  0  0
   37.4128   18.2785   30.2385 H   0  0  0  0  0  0  0  0  0  0  0  0
   35.7543   18.5409   29.7574 H   0  0  0  0  0  0  0  0  0  0  0  0
   37.9511   20.6167   30.3454 H   0  0  0  0  0  0  0  0  0  0  0  0
   36.8713   20.6335   28.9913 H   0  0  0  0  0  0  0  0  0  0  0  0
   34.8546   21.1087   30.6106 H   0  0  0  0  0  0  0  0  0  0  0  0
   35.5695   21.0325   36.7021 H   0  0  0  0  0  0  0  0  0  0  0  0
   34.5693   19.9783   34.3854 H   0  0  0  0  0  0  0  0  0  0  0  0
   41.1402   22.5266   37.4451 H   0  0  0  0  0  0  0  0  0  0  0  0
   40.0689   24.0164   39.1970 H   0  0  0  0  0  0  0  0  0  0  0  0
   37.5626   24.3880   39.0818 H   0  0  0  0  0  0  0  0  0  0  0  0
   38.3644   25.0300   30.9314 H   0  0  0  0  0  0  0  0  0  0  0  0
   35.8422   25.6674   31.5965 H   0  0  0  0  0  0  0  0  0  0  0  0
   34.4264   23.3752   31.5957 H   0  0  0  0  0  0  0  0  0  0  0  0
  1  9  1  0
  2  1  1  0
  3  2  1  0
  4  3  1  0
  4  5  1  0
  5 17  1  0
  5  1  1  0
  6  7  2  0
  6 15  1  0
  8  7  1  0
  9 10  1  0
  9  8  2  0
 10  6  1  0
 11 12  2  0
 13 12  1  0
 14 13  2  0
 15 16  2  0
 15 14  1  0
 16 11  1  0
 17 21  1  0
 18 19  2  0
 18 17  1  0
 19 20  1  0
 21 20  2  0
  2 22  1  0
  2 23  1  0
  3 24  1  0
  3 25  1  0
  4 26  1  0
  4 27  1  0
  5 28  1  6
  7 29  1  0
  8 30  1  0
 11 31  1  0
 12 32  1  0
 13 33  1  0
 19 34  1  0
 20 35  1  0
 21 36  1  0
M  ISO  8  22  13  23  13  24  13  25  13  26  13  27  13  28  13  29  14
M  ISO  7  30  14  31  14  32  14  33  14  34  14  35  14  36  14
M  END
>  <minimizedAffinity>  (1) 
-5.26029682

>  <minimizedRMSD>  (1) 
0.975622535

$$$$
