
     RDKit          3D

 20 21  0  0  0  0  0  0  0  0999 V2000
   40.4920   22.5100   37.6450 C   0  0  0  0  0  0  0  0  0  0  0  0
   39.2220   23.1090   37.4310 C   0  0  0  0  0  0  0  0  0  0  0  0
   38.7320   23.1600   36.1330 C   0  0  0  0  0  0  0  0  0  0  0  0
   39.4890   22.6370   35.1370 N   0  0  0  0  0  0  0  0  0  0  0  0
   40.7060   22.0700   35.3820 C   0  0  0  0  0  0  0  0  0  0  0  0
   41.1780   22.0180   36.6230 N   0  0  0  0  0  0  0  0  0  0  0  0
   41.3460   21.5720   34.1730 C   0  0  0  0  0  0  0  0  0  0  0  0
   42.6270   21.2150   33.8720 C   0  0  0  0  0  0  0  0  0  0  0  0
   42.9560   20.7750   32.6350 C   0  0  0  0  0  0  0  0  0  0  0  0
   41.7830   20.7360   31.6910 C   0  0  0  0  0  0  0  0  0  0  0  0
   40.3630   21.3580   32.7780 S   0  0  0  0  0  0  0  0  0  0  0  0
   38.3980   23.6820   38.5430 C   0  0  0  0  0  0  0  0  0  0  0  0
   39.2390   23.8490   39.6300 F   0  0  0  0  0  0  0  0  0  0  0  0
   37.3790   22.8820   38.9130 F   0  0  0  0  0  0  0  0  0  0  0  0
   37.9750   24.9830   38.2280 F   0  0  0  0  0  0  0  0  0  0  0  0
   40.9076   22.4542   38.6620 H   0  0  0  0  0  0  0  0  0  0  0  0
   37.7533   23.6137   35.9178 H   0  0  0  0  0  0  0  0  0  0  0  0
   43.4051   21.2857   34.6464 H   0  0  0  0  0  0  0  0  0  0  0  0
   43.9753   20.4766   32.3486 H   0  0  0  0  0  0  0  0  0  0  0  0
   41.7577   20.4247   30.6363 H   0  0  0  0  0  0  0  0  0  0  0  0
  2  1  2  0
  2 12  1  0
  3  2  1  0
  4  5  1  0
  4  3  2  0
  5  6  2  0
  6  1  1  0
  7  5  1  0
  8  7  2  0
  9  8  1  0
 10  9  2  0
 10 11  1  0
 11  7  1  0
 12 14  1  0
 12 13  1  0
 15 12  1  0
  1 16  1  0
  3 17  1  0
  8 18  1  0
  9 19  1  0
 10 20  1  0
M  ISO  5  16  14  17  14  18  14  19  14  20  14
M  END
>  <minimizedAffinity>  (1) 
-3.85704708

>  <minimizedRMSD>  (1) 
0.0908536986

$$$$
