
     RDKit          3D

 39 42  0  0  1  0  0  0  0  0999 V2000
   37.9130   21.9120   34.0130 N   0  0  0  0  0  0  0  0  0  0  0  0
   36.6110   21.5740   34.5950 C   0  0  0  0  0  0  0  0  0  0  0  0
   35.8340   20.8160   33.5630 C   0  0  0  0  0  0  0  0  0  0  0  0
   36.8890   20.5860   32.4980 C   0  0  0  0  0  0  0  0  0  0  0  0
   37.6350   21.9000   32.5800 C   0  0  1  0  0  0  0  0  0  0  0  0
   36.8680   23.0610   32.1240 C   0  0  0  0  0  0  0  0  0  0  0  0
   35.7650   23.0570   31.2940 C   0  0  0  0  0  0  0  0  0  0  0  0
   35.1260   24.2300   30.9370 C   0  0  0  0  0  0  0  0  0  0  0  0
   35.5900   25.4540   31.4140 C   0  0  0  0  0  0  0  0  0  0  0  0
   36.6840   25.4760   32.2380 C   0  0  0  0  0  0  0  0  0  0  0  0
   37.3320   24.2910   32.6020 C   0  0  0  0  0  0  0  0  0  0  0  0
   41.0260   22.5310   35.6230 C   0  0  0  0  0  0  0  0  0  0  0  0
   40.1650   22.4850   36.7130 C   0  0  0  0  0  0  0  0  0  0  0  0
   38.8730   22.2420   36.2130 C   0  0  0  0  0  0  0  0  0  0  0  0
   39.0540   22.1580   34.8370 C   0  0  0  0  0  0  0  0  0  0  0  0
   40.3030   22.3290   34.5340 O   0  0  0  0  0  0  0  0  0  0  0  0
   44.6420   21.9980   35.6950 C   0  0  0  0  0  0  0  0  0  0  0  0
   45.1260   23.1450   36.3100 C   0  0  0  0  0  0  0  0  0  0  0  0
   44.1850   24.1240   36.7070 C   0  0  0  0  0  0  0  0  0  0  0  0
   42.8620   23.9140   36.4800 N   0  0  0  0  0  0  0  0  0  0  0  0
   42.4400   22.7740   35.8750 C   0  0  0  0  0  0  0  0  0  0  0  0
   43.3210   21.8400   35.4940 N   0  0  0  0  0  0  0  0  0  0  0  0
   36.7513   20.9510   35.4907 H   0  0  0  0  0  0  0  0  0  0  0  0
   36.0721   22.4865   34.8897 H   0  0  0  0  0  0  0  0  0  0  0  0
   35.4543   19.8648   33.9644 H   0  0  0  0  0  0  0  0  0  0  0  0
   34.9383   21.3418   33.2006 H   0  0  0  0  0  0  0  0  0  0  0  0
   36.4405   20.4323   31.5054 H   0  0  0  0  0  0  0  0  0  0  0  0
   37.5100   19.6903   32.6465 H   0  0  0  0  0  0  0  0  0  0  0  0
   38.5150   21.9716   31.9239 H   0  0  0  0  0  0  0  0  0  0  0  0
   35.3860   22.0992   30.9080 H   0  0  0  0  0  0  0  0  0  0  0  0
   34.2486   24.1967   30.2744 H   0  0  0  0  0  0  0  0  0  0  0  0
   35.0848   26.3898   31.1328 H   0  0  0  0  0  0  0  0  0  0  0  0
   37.0578   26.4381   32.6184 H   0  0  0  0  0  0  0  0  0  0  0  0
   38.2085   24.3265   33.2657 H   0  0  0  0  0  0  0  0  0  0  0  0
   40.4422   22.6145   37.7696 H   0  0  0  0  0  0  0  0  0  0  0  0
   37.9356   22.1416   36.7798 H   0  0  0  0  0  0  0  0  0  0  0  0
   45.3423   21.2143   35.3704 H   0  0  0  0  0  0  0  0  0  0  0  0
   46.2030   23.2874   36.4824 H   0  0  0  0  0  0  0  0  0  0  0  0
   44.5224   25.0495   37.1965 H   0  0  0  0  0  0  0  0  0  0  0  0
  1  2  1  0
  1 15  1  0
  3  2  1  0
  4  5  1  0
  4  3  1  0
  5  1  1  0
  6  5  1  0
  6 11  1  0
  7  6  2  0
  8  7  1  0
  8  9  2  0
  9 10  1  0
 10 11  2  0
 12 21  1  0
 12 13  2  0
 14 13  1  0
 15 14  2  0
 16 15  1  0
 16 12  1  0
 17 18  2  0
 18 19  1  0
 20 19  2  0
 21 20  1  0
 22 17  1  0
 22 21  2  0
  2 23  1  0
  2 24  1  0
  3 25  1  0
  3 26  1  0
  4 27  1  0
  4 28  1  0
  5 29  1  6
  7 30  1  0
  8 31  1  0
  9 32  1  0
 10 33  1  0
 11 34  1  0
 13 35  1  0
 14 36  1  0
 17 37  1  0
 18 38  1  0
 19 39  1  0
M  ISO  8  23  13  24  13  25  13  26  13  27  13  28  13  29  13  30  14
M  ISO  8  31  14  32  14  33  14  34  14  35  14  36  14  37  14  38  14
M  ISO  1  39  14
M  END
>  <minimizedAffinity>  (1) 
-4.65790796

>  <minimizedRMSD>  (1) 
4.15227365

$$$$
