
     RDKit          3D

 32 33  0  0  1  0  0  0  0  0999 V2000
   38.5640   25.7430   35.0360 C   0  0  2  0  0  0  0  0  0  0  0  0
   39.6170   22.9700   37.1950 C   0  0  0  0  0  0  0  0  0  0  0  0
   38.8700   23.1520   38.3770 C   0  0  0  0  0  0  0  0  0  0  0  0
   37.9870   24.2540   38.4300 C   0  0  0  0  0  0  0  0  0  0  0  0
   37.9240   25.0660   37.3210 N   0  0  0  0  0  0  0  0  0  0  0  0
   38.6630   24.8470   36.2110 C   0  0  0  0  0  0  0  0  0  0  0  0
   39.4890   23.8120   36.1680 N   0  0  0  0  0  0  0  0  0  0  0  0
   39.6460   26.7910   35.1420 C   0  0  0  0  0  0  0  0  0  0  0  0
   37.2350   26.4610   34.9720 C   0  0  0  0  0  0  0  0  0  0  0  0
   37.1940   27.5520   33.9320 C   0  0  0  0  0  0  0  0  0  0  0  0
   36.1070   28.5150   34.3680 C   0  0  0  0  0  0  0  0  0  0  0  0
   35.9070   29.3300   33.1080 C   0  0  0  0  0  0  0  0  0  0  0  0
   35.9240   28.2600   32.0380 C   0  0  0  0  0  0  0  0  0  0  0  0
   36.6720   27.0780   32.6080 C   0  0  0  0  0  0  0  0  0  0  0  0
   38.6691   25.1232   34.1333 H   0  0  0  0  0  0  0  0  0  0  0  0
   40.3144   22.1228   37.1186 H   0  0  0  0  0  0  0  0  0  0  0  0
   38.9709   22.4612   39.2270 H   0  0  0  0  0  0  0  0  0  0  0  0
   37.3749   24.4545   39.3217 H   0  0  0  0  0  0  0  0  0  0  0  0
   39.8564   26.9948   36.2023 H   0  0  0  0  0  0  0  0  0  0  0  0
   40.5597   26.4257   34.6505 H   0  0  0  0  0  0  0  0  0  0  0  0
   39.3100   27.7159   34.6505 H   0  0  0  0  0  0  0  0  0  0  0  0
   36.4520   25.7251   34.7366 H   0  0  0  0  0  0  0  0  0  0  0  0
   37.0760   26.9383   35.9502 H   0  0  0  0  0  0  0  0  0  0  0  0
   38.2152   27.9500   33.8389 H   0  0  0  0  0  0  0  0  0  0  0  0
   35.1878   27.9821   34.6526 H   0  0  0  0  0  0  0  0  0  0  0  0
   36.3652   29.1132   35.2543 H   0  0  0  0  0  0  0  0  0  0  0  0
   34.9452   29.8635   33.1251 H   0  0  0  0  0  0  0  0  0  0  0  0
   36.6626   30.1160   32.9625 H   0  0  0  0  0  0  0  0  0  0  0  0
   36.4359   28.6331   31.1387 H   0  0  0  0  0  0  0  0  0  0  0  0
   34.9010   27.9758   31.7504 H   0  0  0  0  0  0  0  0  0  0  0  0
   35.9958   26.2210   32.7432 H   0  0  0  0  0  0  0  0  0  0  0  0
   37.4796   26.7395   31.9422 H   0  0  0  0  0  0  0  0  0  0  0  0
  1  8  1  0
  1  6  1  0
  2  3  2  0
  3  4  1  0
  5  4  2  0
  6  5  1  0
  7  6  2  0
  7  2  1  0
  9  1  1  0
 10 11  1  0
 10  9  1  0
 12 11  1  0
 13 14  1  0
 13 12  1  0
 14 10  1  0
  1 15  1  6
  2 16  1  0
  3 17  1  0
  4 18  1  0
  8 19  1  0
  8 20  1  0
  8 21  1  0
  9 22  1  0
  9 23  1  0
 10 24  1  0
 11 25  1  0
 11 26  1  0
 12 27  1  0
 12 28  1  0
 13 29  1  0
 13 30  1  0
 14 31  1  0
 14 32  1  0
M  ISO  8  15   8  16  14  17  14  18  14  19   8  20   8  21   8  22   8
M  ISO  8  23   8  24  13  25  13  26  13  27  13  28  13  29  13  30  13
M  ISO  2  31  13  32  13
M  END
>  <minimizedAffinity>  (1) 
-4.33163929

>  <minimizedRMSD>  (1) 
1.34242284

$$$$
