
     RDKit          3D

 36 39  0  0  1  0  0  0  0  0999 V2000
   37.4630   20.4480   31.5530 N   0  0  0  0  0  0  0  0  0  0  0  0
   36.3100   20.4130   30.6400 C   0  0  0  0  0  0  0  0  0  0  0  0
   36.5930   19.3970   29.5970 C   0  0  0  0  0  0  0  0  0  0  0  0
   37.8570   18.7300   30.1410 C   0  0  0  0  0  0  0  0  0  0  0  0
   38.5600   19.9420   30.7270 C   0  0  1  0  0  0  0  0  0  0  0  0
   37.6310   21.7320   34.8700 C   0  0  0  0  0  0  0  0  0  0  0  0
   36.3060   21.3040   34.8080 C   0  0  0  0  0  0  0  0  0  0  0  0
   36.0970   20.7660   33.5320 C   0  0  0  0  0  0  0  0  0  0  0  0
   37.3260   20.9070   32.9000 C   0  0  0  0  0  0  0  0  0  0  0  0
   38.1740   21.4660   33.7080 O   0  0  0  0  0  0  0  0  0  0  0  0
   39.9050   22.7840   37.5260 C   0  0  0  0  0  0  0  0  0  0  0  0
   39.0600   23.4360   38.4340 C   0  0  0  0  0  0  0  0  0  0  0  0
   37.6810   23.5150   38.1240 C   0  0  0  0  0  0  0  0  0  0  0  0
   37.2270   22.9560   36.9610 N   0  0  0  0  0  0  0  0  0  0  0  0
   38.0880   22.3320   36.1090 C   0  0  0  0  0  0  0  0  0  0  0  0
   39.3960   22.2570   36.4030 N   0  0  0  0  0  0  0  0  0  0  0  0
   38.9940   20.8650   29.7290 N   0  0  0  0  0  0  0  0  0  0  0  0
   39.3870   20.6370   28.4720 C   0  0  0  0  0  0  0  0  0  0  0  0
   39.6970   21.8800   27.9500 C   0  0  0  0  0  0  0  0  0  0  0  0
   39.4850   22.8010   28.8870 N   0  0  0  0  0  0  0  0  0  0  0  0
   39.0520   22.1830   29.9840 C   0  0  0  0  0  0  0  0  0  0  0  0
   35.4009   20.1377   31.1947 H   0  0  0  0  0  0  0  0  0  0  0  0
   36.1496   21.4007   30.1831 H   0  0  0  0  0  0  0  0  0  0  0  0
   36.7777   19.8674   28.6199 H   0  0  0  0  0  0  0  0  0  0  0  0
   35.7623   18.6979   29.4206 H   0  0  0  0  0  0  0  0  0  0  0  0
   37.6242   17.9803   30.9116 H   0  0  0  0  0  0  0  0  0  0  0  0
   38.4420   18.1680   29.3981 H   0  0  0  0  0  0  0  0  0  0  0  0
   39.4982   19.7411   31.2649 H   0  0  0  0  0  0  0  0  0  0  0  0
   35.5608   21.3757   35.6139 H   0  0  0  0  0  0  0  0  0  0  0  0
   35.1724   20.3317   33.1241 H   0  0  0  0  0  0  0  0  0  0  0  0
   40.9823   22.7048   37.7338 H   0  0  0  0  0  0  0  0  0  0  0  0
   39.4571   23.8741   39.3616 H   0  0  0  0  0  0  0  0  0  0  0  0
   36.9838   24.0192   38.8093 H   0  0  0  0  0  0  0  0  0  0  0  0
   39.4506   19.6654   27.9602 H   0  0  0  0  0  0  0  0  0  0  0  0
   40.0588   22.0749   26.9296 H   0  0  0  0  0  0  0  0  0  0  0  0
   38.7873   22.6679   30.9352 H   0  0  0  0  0  0  0  0  0  0  0  0
  1  9  1  0
  2  1  1  0
  3  4  1  0
  3  2  1  0
  4  5  1  0
  5  1  1  0
  6 15  1  0
  7  6  2  0
  8  7  1  0
  9  8  2  0
  9 10  1  0
 10  6  1  0
 11 12  2  0
 13 12  1  0
 14 13  2  0
 15 16  2  0
 15 14  1  0
 16 11  1  0
 17 21  1  0
 17  5  1  0
 18 17  1  0
 19 18  2  0
 19 20  1  0
 20 21  2  0
  2 22  1  0
  2 23  1  0
  3 24  1  0
  3 25  1  0
  4 26  1  0
  4 27  1  0
  5 28  1  1
  7 29  1  0
  8 30  1  0
 11 31  1  0
 12 32  1  0
 13 33  1  0
 18 34  1  0
 19 35  1  0
 21 36  1  0
M  ISO  8  22  13  23  13  24  13  25  13  26  13  27  13  28  13  29  14
M  ISO  7  30  14  31  14  32  14  33  14  34  14  35  14  36  14
M  END
>  <minimizedAffinity>  (1) 
-4.33766985

>  <minimizedRMSD>  (1) 
2.53210974

$$$$
