
     RDKit          3D

 32 34  0  0  1  0  0  0  0  0999 V2000
   37.8820   21.8330   34.9430 C   0  0  0  0  0  0  0  0  0  0  0  0
   36.5460   21.5330   34.7350 C   0  0  0  0  0  0  0  0  0  0  0  0
   36.4300   20.9550   33.4640 C   0  0  0  0  0  0  0  0  0  0  0  0
   37.7510   20.9500   32.9820 C   0  0  0  0  0  0  0  0  0  0  0  0
   38.5560   21.4620   33.8610 O   0  0  0  0  0  0  0  0  0  0  0  0
   37.9730   20.4100   31.6770 N   0  0  0  0  0  0  0  0  0  0  0  0
   39.0220   19.4250   31.4110 C   0  0  0  0  0  0  0  0  0  0  0  0
   39.3800   19.5310   29.9670 C   0  0  0  0  0  0  0  0  0  0  0  0
   38.6180   20.7930   29.5460 C   0  0  0  0  0  0  0  0  0  0  0  0
   37.3490   20.6040   30.3630 C   0  0  1  0  0  0  0  0  0  0  0  0
   36.5430   19.4650   29.9470 C   0  0  0  0  0  0  0  0  0  0  0  0
   36.5170   18.9770   28.7880 O   0  0  0  0  0  0  0  0  0  0  0  0
   35.7500   18.8900   30.9310 O   0  0  0  0  0  0  0  0  0  0  0  0
   39.9600   22.8010   37.7820 C   0  0  0  0  0  0  0  0  0  0  0  0
   39.0770   23.5610   38.5690 C   0  0  0  0  0  0  0  0  0  0  0  0
   37.7480   23.7400   38.1110 C   0  0  0  0  0  0  0  0  0  0  0  0
   37.3810   23.1690   36.9310 N   0  0  0  0  0  0  0  0  0  0  0  0
   38.2600   22.4480   36.2070 C   0  0  0  0  0  0  0  0  0  0  0  0
   39.4990   22.2860   36.6420 N   0  0  0  0  0  0  0  0  0  0  0  0
   35.7230   21.7159   35.4415 H   0  0  0  0  0  0  0  0  0  0  0  0
   35.5212   20.5914   32.9622 H   0  0  0  0  0  0  0  0  0  0  0  0
   39.9037   19.6379   32.0333 H   0  0  0  0  0  0  0  0  0  0  0  0
   38.6706   18.4104   31.6498 H   0  0  0  0  0  0  0  0  0  0  0  0
   40.4646   19.6542   29.8314 H   0  0  0  0  0  0  0  0  0  0  0  0
   39.1228   18.6384   29.3779 H   0  0  0  0  0  0  0  0  0  0  0  0
   39.1553   21.7103   29.8287 H   0  0  0  0  0  0  0  0  0  0  0  0
   38.4648   20.9080   28.4628 H   0  0  0  0  0  0  0  0  0  0  0  0
   36.6179   21.4224   30.2879 H   0  0  0  0  0  0  0  0  0  0  0  0
   35.1778   18.1119   30.7136 H   0  0  0  0  0  0  0  0  0  0  0  0
   41.0008   22.6361   38.0976 H   0  0  0  0  0  0  0  0  0  0  0  0
   39.4100   24.0063   39.5181 H   0  0  0  0  0  0  0  0  0  0  0  0
   37.0272   24.3287   38.6974 H   0  0  0  0  0  0  0  0  0  0  0  0
  1 18  1  0
  2  1  2  0
  3  2  1  0
  4  3  2  0
  4  5  1  0
  5  1  1  0
  6  4  1  0
  7  6  1  0
  8  7  1  0
  9  8  1  0
  9 10  1  0
 10  6  1  0
 11 10  1  0
 11 13  1  0
 12 11  2  0
 14 15  2  0
 16 15  1  0
 17 16  2  0
 18 19  2  0
 18 17  1  0
 19 14  1  0
  2 20  1  0
  3 21  1  0
  7 22  1  0
  7 23  1  0
  8 24  1  0
  8 25  1  0
  9 26  1  0
  9 27  1  0
 10 28  1  1
 13 29  1  0
 14 30  1  0
 15 31  1  0
 16 32  1  0
M  ISO  8  20  14  21  14  22  13  23  13  24  13  25  13  26  13  27  13
M  ISO  5  28  13  29   3  30  14  31  14  32  14
M  END
>  <minimizedAffinity>  (1) 
-4.23276377

>  <minimizedRMSD>  (1) 
1.75029242

$$$$
