
     RDKit          3D

 15 15  0  0  0  0  0  0  0  0999 V2000
   40.5070   22.4880   37.6580 C   0  0  0  0  0  0  0  0  0  0  0  0
   39.2630   23.0960   37.4120 C   0  0  0  0  0  0  0  0  0  0  0  0
   38.8160   23.1600   36.1040 C   0  0  0  0  0  0  0  0  0  0  0  0
   39.5800   22.6420   35.1120 N   0  0  0  0  0  0  0  0  0  0  0  0
   40.7790   22.0600   35.3820 C   0  0  0  0  0  0  0  0  0  0  0  0
   41.2280   21.9900   36.6500 N   0  0  0  0  0  0  0  0  0  0  0  0
   41.5560   21.5250   34.3130 N   0  0  0  0  0  0  0  0  0  0  0  0
   38.4070   23.6730   38.4940 C   0  0  0  0  0  0  0  0  0  0  0  0
   39.2220   23.8340   39.6020 F   0  0  0  0  0  0  0  0  0  0  0  0
   37.3760   22.8650   38.8480 F   0  0  0  0  0  0  0  0  0  0  0  0
   37.9870   24.9720   38.1590 F   0  0  0  0  0  0  0  0  0  0  0  0
   40.8888   22.4221   38.6875 H   0  0  0  0  0  0  0  0  0  0  0  0
   37.8480   23.6278   35.8713 H   0  0  0  0  0  0  0  0  0  0  0  0
   42.4653   21.0825   34.5085 H   0  0  0  0  0  0  0  0  0  0  0  0
   41.2080   21.5810   33.3452 H   0  0  0  0  0  0  0  0  0  0  0  0
  2  1  2  0
  2  8  1  0
  3  2  1  0
  4  5  1  0
  4  3  2  0
  5  6  2  0
  6  1  1  0
  7  5  1  0
  8 10  1  0
  8  9  1  0
 11  8  1  0
  1 12  1  0
  3 13  1  0
  7 14  1  0
  7 15  1  0
M  ISO  2  12  14  13  14
M  END
>  <minimizedAffinity>  (1) 
-3.84232473

>  <minimizedRMSD>  (1) 
0.0202004537

$$$$
