
     RDKit          3D

 36 39  0  0  1  0  0  0  0  0999 V2000
   36.1770   20.4720   32.2320 N   0  0  0  0  0  0  0  0  0  0  0  0
   36.2120   19.0450   31.8490 C   0  0  0  0  0  0  0  0  0  0  0  0
   36.5500   18.9830   30.4020 C   0  0  0  0  0  0  0  0  0  0  0  0
   36.8620   20.4400   30.0760 C   0  0  0  0  0  0  0  0  0  0  0  0
   35.8520   21.1280   30.9840 C   0  0  2  0  0  0  0  0  0  0  0  0
   37.2280   21.7260   35.3910 C   0  0  0  0  0  0  0  0  0  0  0  0
   36.0300   21.1010   35.7300 C   0  0  0  0  0  0  0  0  0  0  0  0
   35.4960   20.5530   34.5570 C   0  0  0  0  0  0  0  0  0  0  0  0
   36.4350   20.8950   33.5730 C   0  0  0  0  0  0  0  0  0  0  0  0
   37.3990   21.5620   34.1030 O   0  0  0  0  0  0  0  0  0  0  0  0
   40.0370   22.7400   37.4740 C   0  0  0  0  0  0  0  0  0  0  0  0
   39.4650   23.5600   38.4330 C   0  0  0  0  0  0  0  0  0  0  0  0
   38.0800   23.7690   38.3630 C   0  0  0  0  0  0  0  0  0  0  0  0
   37.3490   23.1730   37.3750 N   0  0  0  0  0  0  0  0  0  0  0  0
   37.9730   22.3750   36.4570 C   0  0  0  0  0  0  0  0  0  0  0  0
   39.2870   22.1730   36.5190 N   0  0  0  0  0  0  0  0  0  0  0  0
   36.2530   22.5430   31.1020 C   0  0  0  0  0  0  0  0  0  0  0  0
   35.4800   23.5990   31.4840 C   0  0  0  0  0  0  0  0  0  0  0  0
   36.2880   24.7370   31.4460 C   0  0  0  0  0  0  0  0  0  0  0  0
   37.5170   24.3110   31.0400 N   0  0  0  0  0  0  0  0  0  0  0  0
   37.4920   22.9940   30.8350 N   0  0  0  0  0  0  0  0  0  0  0  0
   36.9766   18.5162   32.4370 H   0  0  0  0  0  0  0  0  0  0  0  0
   35.2408   18.5661   32.0427 H   0  0  0  0  0  0  0  0  0  0  0  0
   37.4243   18.3395   30.2248 H   0  0  0  0  0  0  0  0  0  0  0  0
   35.7487   18.5555   29.7813 H   0  0  0  0  0  0  0  0  0  0  0  0
   37.8966   20.7059   30.3387 H   0  0  0  0  0  0  0  0  0  0  0  0
   36.7883   20.7056   29.0111 H   0  0  0  0  0  0  0  0  0  0  0  0
   34.7990   21.0792   30.6697 H   0  0  0  0  0  0  0  0  0  0  0  0
   35.5851   21.0477   36.7346 H   0  0  0  0  0  0  0  0  0  0  0  0
   34.5603   19.9875   34.4360 H   0  0  0  0  0  0  0  0  0  0  0  0
   41.1206   22.5519   37.4967 H   0  0  0  0  0  0  0  0  0  0  0  0
   40.0741   24.0294   39.2196 H   0  0  0  0  0  0  0  0  0  0  0  0
   37.5826   24.4126   39.1035 H   0  0  0  0  0  0  0  0  0  0  0  0
   34.4182   23.5615   31.7689 H   0  0  0  0  0  0  0  0  0  0  0  0
   35.9927   25.7673   31.6934 H   0  0  0  0  0  0  0  0  0  0  0  0
   38.3410   24.9154   30.9110 H   0  0  0  0  0  0  0  0  0  0  0  0
  1  9  1  0
  2  1  1  0
  3  2  1  0
  4  3  1  0
  4  5  1  0
  5 17  1  0
  5  1  1  0
  6  7  2  0
  6 15  1  0
  8  7  1  0
  9 10  1  0
  9  8  2  0
 10  6  1  0
 11 12  2  0
 13 12  1  0
 14 13  2  0
 15 16  2  0
 15 14  1  0
 16 11  1  0
 17 18  1  0
 19 18  2  0
 20 19  1  0
 21 20  1  0
 21 17  2  0
  2 22  1  0
  2 23  1  0
  3 24  1  0
  3 25  1  0
  4 26  1  0
  4 27  1  0
  5 28  1  6
  7 29  1  0
  8 30  1  0
 11 31  1  0
 12 32  1  0
 13 33  1  0
 18 34  1  0
 19 35  1  0
 20 36  1  0
M  ISO  8  22  13  23  13  24  13  25  13  26  13  27  13  28  13  29  14
M  ISO  7  30  14  31  14  32  14  33  14  34  14  35  14  36   9
M  END
>  <minimizedAffinity>  (1) 
-5.27631998

>  <minimizedRMSD>  (1) 
1.03144956

$$$$
