
     RDKit          3D

 22 22  0  0  0  0  0  0  0  0999 V2000
   40.4680   22.3770   37.7060 C   0  0  0  0  0  0  0  0  0  0  0  0
   39.2970   23.1240   37.4380 C   0  0  0  0  0  0  0  0  0  0  0  0
   38.9750   23.3340   36.1080 C   0  0  0  0  0  0  0  0  0  0  0  0
   39.7770   22.8280   35.1310 N   0  0  0  0  0  0  0  0  0  0  0  0
   40.8910   22.1180   35.4370 C   0  0  0  0  0  0  0  0  0  0  0  0
   41.2220   21.9020   36.7260 N   0  0  0  0  0  0  0  0  0  0  0  0
   38.4130   23.6860   38.4920 C   0  0  0  0  0  0  0  0  0  0  0  0
   39.2100   23.8630   39.6260 F   0  0  0  0  0  0  0  0  0  0  0  0
   37.4010   22.8650   38.8300 F   0  0  0  0  0  0  0  0  0  0  0  0
   37.9990   24.9840   38.1530 F   0  0  0  0  0  0  0  0  0  0  0  0
   41.6860   21.6170   34.2870 C   0  0  0  0  0  0  0  0  0  0  0  0
   42.2510   22.8210   33.5630 C   0  0  0  0  0  0  0  0  0  0  0  0
   42.7180   20.6130   34.6660 C   0  0  0  0  0  0  0  0  0  0  0  0
   40.7584   22.1867   38.7498 H   0  0  0  0  0  0  0  0  0  0  0  0
   38.0748   23.9074   35.8417 H   0  0  0  0  0  0  0  0  0  0  0  0
   41.0310   21.0519   33.6075 H   0  0  0  0  0  0  0  0  0  0  0  0
   42.5985   23.5614   34.2986 H   0  0  0  0  0  0  0  0  0  0  0  0
   43.0956   22.5065   32.9323 H   0  0  0  0  0  0  0  0  0  0  0  0
   41.4694   23.2696   32.9323 H   0  0  0  0  0  0  0  0  0  0  0  0
   42.7829   20.5498   35.7623 H   0  0  0  0  0  0  0  0  0  0  0  0
   42.4405   19.6299   34.2579 H   0  0  0  0  0  0  0  0  0  0  0  0
   43.6931   20.9175   34.2579 H   0  0  0  0  0  0  0  0  0  0  0  0
  2  1  2  0
  2  7  1  0
  3  2  1  0
  4  5  1  0
  4  3  2  0
  5  6  2  0
  6  1  1  0
  7  9  1  0
  7  8  1  0
 10  7  1  0
 11 13  1  0
 11  5  1  0
 12 11  1  0
  1 14  1  0
  3 15  1  0
 11 16  1  0
 12 17  1  0
 12 18  1  0
 12 19  1  0
 13 20  1  0
 13 21  1  0
 13 22  1  0
M  ISO  8  14  14  15  14  16   8  17   8  18   8  19   8  20   8  21   8
M  ISO  1  22   8
M  END
>  <minimizedAffinity>  (1) 
-3.84024048

>  <minimizedRMSD>  (1) 
0.27599901

$$$$
