
     RDKit          3D

 47 52  0  0  1  0  0  0  0  0999 V2000
   36.1950   20.6630   32.3500 N   0  0  0  0  0  0  0  0  0  0  0  0
   36.3220   19.2580   31.8830 C   0  0  0  0  0  0  0  0  0  0  0  0
   36.6360   19.2880   30.4390 C   0  0  0  0  0  0  0  0  0  0  0  0
   36.7950   20.7830   30.1750 C   0  0  0  0  0  0  0  0  0  0  0  0
   35.7870   21.3580   31.1250 C   0  0  2  0  0  0  0  0  0  0  0  0
   37.2120   21.8200   35.5430 C   0  0  0  0  0  0  0  0  0  0  0  0
   36.0580   21.1110   35.8670 C   0  0  0  0  0  0  0  0  0  0  0  0
   35.5410   20.5890   34.6760 C   0  0  0  0  0  0  0  0  0  0  0  0
   36.4470   21.0350   33.7020 C   0  0  0  0  0  0  0  0  0  0  0  0
   37.3720   21.7260   34.2460 O   0  0  0  0  0  0  0  0  0  0  0  0
   39.9840   22.7780   37.7030 C   0  0  0  0  0  0  0  0  0  0  0  0
   39.4070   23.6300   38.6350 C   0  0  0  0  0  0  0  0  0  0  0  0
   38.0230   23.8820   38.5150 C   0  0  0  0  0  0  0  0  0  0  0  0
   37.3040   23.2940   37.5080 N   0  0  0  0  0  0  0  0  0  0  0  0
   37.9390   22.4630   36.6230 C   0  0  0  0  0  0  0  0  0  0  0  0
   39.2520   22.2190   36.7310 N   0  0  0  0  0  0  0  0  0  0  0  0
   36.0570   22.7810   31.3280 C   0  0  0  0  0  0  0  0  0  0  0  0
   35.2010   23.8260   31.2570 C   0  0  0  0  0  0  0  0  0  0  0  0
   35.9410   24.9870   31.5070 C   0  0  0  0  0  0  0  0  0  0  0  0
   37.2230   24.5850   31.7190 N   0  0  0  0  0  0  0  0  0  0  0  0
   37.2950   23.2590   31.6120 N   0  0  0  0  0  0  0  0  0  0  0  0
   39.9420   26.7880   34.7800 N   0  0  0  0  0  0  0  0  0  0  0  0
   39.0780   25.9630   35.4220 C   0  0  0  0  0  0  0  0  0  0  0  0
   38.3170   25.3530   34.4690 N   0  0  0  0  0  0  0  0  0  0  0  0
   38.7290   25.8170   33.2610 C   0  0  0  0  0  0  0  0  0  0  0  0
   38.2700   25.5020   32.0070 C   0  0  0  0  0  0  0  0  0  0  0  0
   38.9070   26.1520   31.0000 N   0  0  0  0  0  0  0  0  0  0  0  0
   39.8980   27.0260   31.1790 C   0  0  0  0  0  0  0  0  0  0  0  0
   40.3330   27.3220   32.4040 N   0  0  0  0  0  0  0  0  0  0  0  0
   39.7520   26.7200   33.4530 C   0  0  0  0  0  0  0  0  0  0  0  0
   37.1310   18.7532   32.4314 H   0  0  0  0  0  0  0  0  0  0  0  0
   35.3862   18.7080   32.0612 H   0  0  0  0  0  0  0  0  0  0  0  0
   37.5667   18.7434   30.2218 H   0  0  0  0  0  0  0  0  0  0  0  0
   35.8717   18.8073   29.8107 H   0  0  0  0  0  0  0  0  0  0  0  0
   37.8127   21.1275   30.4106 H   0  0  0  0  0  0  0  0  0  0  0  0
   36.6418   21.0739   29.1253 H   0  0  0  0  0  0  0  0  0  0  0  0
   34.7384   21.2512   30.8102 H   0  0  0  0  0  0  0  0  0  0  0  0
   35.6317   20.9847   36.8731 H   0  0  0  0  0  0  0  0  0  0  0  0
   34.6389   19.9751   34.5366 H   0  0  0  0  0  0  0  0  0  0  0  0
   41.0602   22.5585   37.7640 H   0  0  0  0  0  0  0  0  0  0  0  0
   40.0046   24.0906   39.4354 H   0  0  0  0  0  0  0  0  0  0  0  0
   37.5219   24.5507   39.2303 H   0  0  0  0  0  0  0  0  0  0  0  0
   34.1234   23.7730   31.0426 H   0  0  0  0  0  0  0  0  0  0  0  0
   35.5615   26.0193   31.5279 H   0  0  0  0  0  0  0  0  0  0  0  0
   40.6438   27.3819   35.2444 H   0  0  0  0  0  0  0  0  0  0  0  0
   39.0047   25.8137   36.5094 H   0  0  0  0  0  0  0  0  0  0  0  0
   40.3619   27.5083   30.3060 H   0  0  0  0  0  0  0  0  0  0  0  0
  1  9  1  0
  2  1  1  0
  3  2  1  0
  4  3  1  0
  4  5  1  0
  5 17  1  0
  5  1  1  0
  6  7  2  0
  6 15  1  0
  8  7  1  0
  9 10  1  0
  9  8  2  0
 10  6  1  0
 11 12  2  0
 13 12  1  0
 14 13  2  0
 15 16  2  0
 15 14  1  0
 16 11  1  0
 17 21  2  0
 18 17  1  0
 18 19  2  0
 19 20  1  0
 20 26  1  0
 21 20  1  0
 22 23  1  0
 24 23  2  0
 25 30  2  0
 25 24  1  0
 26 25  1  0
 27 28  1  0
 27 26  2  0
 28 29  2  0
 29 30  1  0
 30 22  1  0
  2 31  1  0
  2 32  1  0
  3 33  1  0
  3 34  1  0
  4 35  1  0
  4 36  1  0
  5 37  1  6
  7 38  1  0
  8 39  1  0
 11 40  1  0
 12 41  1  0
 13 42  1  0
 18 43  1  0
 19 44  1  0
 22 45  1  0
 23 46  1  0
 28 47  1  0
M  ISO  8  31  13  32  13  33  13  34  13  35  13  36  13  37  13  38  14
M  ISO  8  39  14  40  14  41  14  42  14  43  14  44  14  45   9  46  14
M  ISO  1  47  14
M  END
>  <minimizedAffinity>  (1) 
-6.36703014

>  <minimizedRMSD>  (1) 
1.7598722

$$$$
