
     RDKit          3D

 43 47  0  0  1  0  0  0  0  0999 V2000
   36.2780   20.4670   32.2170 N   0  0  0  0  0  0  0  0  0  0  0  0
   36.4200   19.0450   31.8190 C   0  0  0  0  0  0  0  0  0  0  0  0
   36.7280   19.0170   30.3740 C   0  0  0  0  0  0  0  0  0  0  0  0
   36.9310   20.5000   30.0630 C   0  0  0  0  0  0  0  0  0  0  0  0
   35.8980   21.1150   30.9620 C   0  0  2  0  0  0  0  0  0  0  0  0
   36.1640   22.5450   31.1120 C   0  0  0  0  0  0  0  0  0  0  0  0
   35.3180   23.5340   31.4740 C   0  0  0  0  0  0  0  0  0  0  0  0
   36.0460   24.7310   31.4470 C   0  0  0  0  0  0  0  0  0  0  0  0
   37.3040   24.4060   31.0690 N   0  0  0  0  0  0  0  0  0  0  0  0
   37.3810   23.0910   30.8660 N   0  0  0  0  0  0  0  0  0  0  0  0
   38.4180   25.2780   30.8970 C   0  0  0  0  0  0  0  0  0  0  0  0
   38.4940   26.3400   31.8000 C   0  0  0  0  0  0  0  0  0  0  0  0
   39.6290   27.0770   31.4850 C   0  0  0  0  0  0  0  0  0  0  0  0
   40.1930   26.4460   30.4170 N   0  0  0  0  0  0  0  0  0  0  0  0
   39.4730   25.3720   30.0650 N   0  0  0  0  0  0  0  0  0  0  0  0
   37.2380   21.7310   35.3900 C   0  0  0  0  0  0  0  0  0  0  0  0
   36.0360   21.1130   35.7070 C   0  0  0  0  0  0  0  0  0  0  0  0
   35.5350   20.5580   34.5230 C   0  0  0  0  0  0  0  0  0  0  0  0
   36.5000   20.8960   33.5610 C   0  0  0  0  0  0  0  0  0  0  0  0
   37.4440   21.5610   34.1050 O   0  0  0  0  0  0  0  0  0  0  0  0
   40.0130   22.7670   37.5140 C   0  0  0  0  0  0  0  0  0  0  0  0
   39.4280   23.5860   38.4670 C   0  0  0  0  0  0  0  0  0  0  0  0
   38.0330   23.7860   38.3730 C   0  0  0  0  0  0  0  0  0  0  0  0
   37.3140   23.1860   37.3740 N   0  0  0  0  0  0  0  0  0  0  0  0
   37.9610   22.3890   36.4660 C   0  0  0  0  0  0  0  0  0  0  0  0
   39.2850   22.1960   36.5530 N   0  0  0  0  0  0  0  0  0  0  0  0
   37.2374   18.5760   32.3864 H   0  0  0  0  0  0  0  0  0  0  0  0
   35.4939   18.4896   32.0287 H   0  0  0  0  0  0  0  0  0  0  0  0
   37.6408   18.4376   30.1711 H   0  0  0  0  0  0  0  0  0  0  0  0
   35.9478   18.5388   29.7636 H   0  0  0  0  0  0  0  0  0  0  0  0
   37.9462   20.8339   30.3238 H   0  0  0  0  0  0  0  0  0  0  0  0
   36.8267   20.7627   28.9999 H   0  0  0  0  0  0  0  0  0  0  0  0
   34.8562   20.9995   30.6284 H   0  0  0  0  0  0  0  0  0  0  0  0
   34.2567   23.4209   31.7401 H   0  0  0  0  0  0  0  0  0  0  0  0
   35.6692   25.7365   31.6859 H   0  0  0  0  0  0  0  0  0  0  0  0
   37.7845   26.5543   32.6129 H   0  0  0  0  0  0  0  0  0  0  0  0
   39.9959   27.9815   31.9922 H   0  0  0  0  0  0  0  0  0  0  0  0
   41.0553   26.7528   29.9446 H   0  0  0  0  0  0  0  0  0  0  0  0
   35.5660   21.0678   36.7005 H   0  0  0  0  0  0  0  0  0  0  0  0
   34.6037   19.9903   34.3802 H   0  0  0  0  0  0  0  0  0  0  0  0
   41.0971   22.5846   37.5508 H   0  0  0  0  0  0  0  0  0  0  0  0
   40.0238   24.0593   39.2614 H   0  0  0  0  0  0  0  0  0  0  0  0
   37.5215   24.4271   39.1061 H   0  0  0  0  0  0  0  0  0  0  0  0
  1 19  1  0
  2  1  1  0
  3  2  1  0
  4  3  1  0
  4  5  1  0
  5  6  1  0
  5  1  1  0
  6  7  1  0
  8  7  2  0
  9  8  1  0
 10  9  1  0
 10  6  2  0
 11  9  1  0
 11 12  1  0
 13 12  2  0
 14 13  1  0
 15 14  1  0
 15 11  2  0
 16 17  2  0
 16 25  1  0
 18 17  1  0
 19 20  1  0
 19 18  2  0
 20 16  1  0
 21 22  2  0
 23 22  1  0
 24 23  2  0
 25 26  2  0
 25 24  1  0
 26 21  1  0
  2 27  1  0
  2 28  1  0
  3 29  1  0
  3 30  1  0
  4 31  1  0
  4 32  1  0
  5 33  1  6
  7 34  1  0
  8 35  1  0
 12 36  1  0
 13 37  1  0
 14 38  1  0
 17 39  1  0
 18 40  1  0
 21 41  1  0
 22 42  1  0
 23 43  1  0
M  ISO  8  27  13  28  13  29  13  30  13  31  13  32  13  33  13  34  14
M  ISO  8  35  14  36  14  37  14  38   9  39  14  40  14  41  14  42  14
M  ISO  1  43  14
M  END
>  <minimizedAffinity>  (1) 
-5.95468044

>  <minimizedRMSD>  (1) 
0.214997262

$$$$
