
     RDKit          3D

 41 45  0  0  1  0  0  0  0  0999 V2000
   36.2020   20.4740   32.2380 N   0  0  0  0  0  0  0  0  0  0  0  0
   36.2930   19.0420   31.8420 C   0  0  0  0  0  0  0  0  0  0  0  0
   36.5820   18.9970   30.3950 C   0  0  0  0  0  0  0  0  0  0  0  0
   36.8190   20.4690   30.0710 C   0  0  0  0  0  0  0  0  0  0  0  0
   35.8270   21.1310   30.9820 C   0  0  2  0  0  0  0  0  0  0  0  0
   36.1590   22.5490   31.1210 C   0  0  0  0  0  0  0  0  0  0  0  0
   35.3580   23.5730   31.4960 C   0  0  0  0  0  0  0  0  0  0  0  0
   36.1310   24.7420   31.4540 C   0  0  0  0  0  0  0  0  0  0  0  0
   37.3700   24.3610   31.0510 N   0  0  0  0  0  0  0  0  0  0  0  0
   37.3930   23.0410   30.8490 N   0  0  0  0  0  0  0  0  0  0  0  0
   38.5170   25.1800   30.8520 C   0  0  0  0  0  0  0  0  0  0  0  0
   39.8420   24.9760   30.7270 N   0  0  0  0  0  0  0  0  0  0  0  0
   40.4250   26.1450   30.5570 O   0  0  0  0  0  0  0  0  0  0  0  0
   39.5060   27.1080   30.5690 C   0  0  0  0  0  0  0  0  0  0  0  0
   38.3140   26.5250   30.7510 N   0  0  0  0  0  0  0  0  0  0  0  0
   37.2350   21.7320   35.3900 C   0  0  0  0  0  0  0  0  0  0  0  0
   36.0300   21.1080   35.7270 C   0  0  0  0  0  0  0  0  0  0  0  0
   35.5080   20.5610   34.5540 C   0  0  0  0  0  0  0  0  0  0  0  0
   36.4530   20.9000   33.5750 C   0  0  0  0  0  0  0  0  0  0  0  0
   37.4100   21.5610   34.1020 O   0  0  0  0  0  0  0  0  0  0  0  0
   40.0540   22.7350   37.4680 C   0  0  0  0  0  0  0  0  0  0  0  0
   39.4760   23.5620   38.4270 C   0  0  0  0  0  0  0  0  0  0  0  0
   38.0880   23.7810   38.3560 C   0  0  0  0  0  0  0  0  0  0  0  0
   37.3490   23.1850   37.3660 N   0  0  0  0  0  0  0  0  0  0  0  0
   37.9770   22.3830   36.4560 C   0  0  0  0  0  0  0  0  0  0  0  0
   39.2980   22.1700   36.5150 N   0  0  0  0  0  0  0  0  0  0  0  0
   37.1014   18.5487   32.4016 H   0  0  0  0  0  0  0  0  0  0  0  0
   35.3513   18.5189   32.0645 H   0  0  0  0  0  0  0  0  0  0  0  0
   37.4769   18.3928   30.1851 H   0  0  0  0  0  0  0  0  0  0  0  0
   35.7818   18.5354   29.7978 H   0  0  0  0  0  0  0  0  0  0  0  0
   37.8493   20.7731   30.3077 H   0  0  0  0  0  0  0  0  0  0  0  0
   36.6954   20.7230   29.0079 H   0  0  0  0  0  0  0  0  0  0  0  0
   34.7761   21.0574   30.6654 H   0  0  0  0  0  0  0  0  0  0  0  0
   34.2979   23.5016   31.7808 H   0  0  0  0  0  0  0  0  0  0  0  0
   35.8001   25.7622   31.6984 H   0  0  0  0  0  0  0  0  0  0  0  0
   39.6917   28.1858   30.4510 H   0  0  0  0  0  0  0  0  0  0  0  0
   35.5782   21.0577   36.7287 H   0  0  0  0  0  0  0  0  0  0  0  0
   34.5730   19.9956   34.4270 H   0  0  0  0  0  0  0  0  0  0  0  0
   41.1370   22.5438   37.4919 H   0  0  0  0  0  0  0  0  0  0  0  0
   40.0849   24.0293   39.2150 H   0  0  0  0  0  0  0  0  0  0  0  0
   37.5953   24.4304   39.0946 H   0  0  0  0  0  0  0  0  0  0  0  0
  1 19  1  0
  2  1  1  0
  3  2  1  0
  4  3  1  0
  4  5  1  0
  5  6  1  0
  5  1  1  0
  6  7  1  0
  8  7  2  0
  9  8  1  0
 10  9  1  0
 10  6  2  0
 11  9  1  0
 12 11  2  0
 13 14  1  0
 13 12  1  0
 14 15  2  0
 15 11  1  0
 16 17  2  0
 16 25  1  0
 18 17  1  0
 19 20  1  0
 19 18  2  0
 20 16  1  0
 21 22  2  0
 23 22  1  0
 24 23  2  0
 25 26  2  0
 25 24  1  0
 26 21  1  0
  2 27  1  0
  2 28  1  0
  3 29  1  0
  3 30  1  0
  4 31  1  0
  4 32  1  0
  5 33  1  6
  7 34  1  0
  8 35  1  0
 14 36  1  0
 17 37  1  0
 18 38  1  0
 21 39  1  0
 22 40  1  0
 23 41  1  0
M  ISO  8  27  13  28  13  29  13  30  13  31  13  32  13  33  13  34  14
M  ISO  7  35  14  36  14  37  14  38  14  39  14  40  14  41  14
M  END
>  <minimizedAffinity>  (1) 
-5.93480062

>  <minimizedRMSD>  (1) 
0.125890106

$$$$
