
     RDKit          3D

 16 16  0  0  0  0  0  0  0  0999 V2000
   40.5040   22.4810   37.6510 C   0  0  0  0  0  0  0  0  0  0  0  0
   39.2650   23.1080   37.4140 C   0  0  0  0  0  0  0  0  0  0  0  0
   38.8110   23.2040   36.0900 C   0  0  0  0  0  0  0  0  0  0  0  0
   39.5940   22.6850   35.0950 N   0  0  0  0  0  0  0  0  0  0  0  0
   40.7890   22.0840   35.3710 C   0  0  0  0  0  0  0  0  0  0  0  0
   41.2190   21.9930   36.6240 N   0  0  0  0  0  0  0  0  0  0  0  0
   38.4040   23.6790   38.5020 C   0  0  0  0  0  0  0  0  0  0  0  0
   39.2290   23.8380   39.6100 F   0  0  0  0  0  0  0  0  0  0  0  0
   37.3800   22.8460   38.8380 F   0  0  0  0  0  0  0  0  0  0  0  0
   37.9800   24.9640   38.1790 F   0  0  0  0  0  0  0  0  0  0  0  0
   41.5350   21.5630   34.1850 C   0  0  0  0  0  0  0  0  0  0  0  0
   40.8864   22.3909   38.6784 H   0  0  0  0  0  0  0  0  0  0  0  0
   37.8493   23.6846   35.8575 H   0  0  0  0  0  0  0  0  0  0  0  0
   42.3926   20.9641   34.5254 H   0  0  0  0  0  0  0  0  0  0  0  0
   40.8664   20.9344   33.5784 H   0  0  0  0  0  0  0  0  0  0  0  0
   41.8949   22.4071   33.5784 H   0  0  0  0  0  0  0  0  0  0  0  0
  2  1  2  0
  2  7  1  0
  3  2  1  0
  4  5  1  0
  4  3  2  0
  5  6  2  0
  6  1  1  0
  7  9  1  0
  7  8  1  0
 10  7  1  0
 11  5  1  0
  1 12  1  0
  3 13  1  0
 11 14  1  0
 11 15  1  0
 11 16  1  0
M  ISO  5  12  14  13  14  14   8  15   8  16   8
M  END
>  <minimizedAffinity>  (1) 
-3.83182764

>  <minimizedRMSD>  (1) 
0.0368248038

$$$$
