
     RDKit          3D

 46 50  0  0  1  0  0  0  0  0999 V2000
   36.2740   20.4660   32.2380 N   0  0  0  0  0  0  0  0  0  0  0  0
   36.4590   19.0490   31.8340 C   0  0  0  0  0  0  0  0  0  0  0  0
   36.7620   19.0390   30.3880 C   0  0  0  0  0  0  0  0  0  0  0  0
   36.8910   20.5230   30.0730 C   0  0  0  0  0  0  0  0  0  0  0  0
   35.8570   21.1110   30.9900 C   0  0  2  0  0  0  0  0  0  0  0  0
   37.2380   21.7390   35.4130 C   0  0  0  0  0  0  0  0  0  0  0  0
   36.0320   21.1050   35.7280 C   0  0  0  0  0  0  0  0  0  0  0  0
   35.5290   20.5460   34.5440 C   0  0  0  0  0  0  0  0  0  0  0  0
   36.4980   20.8970   33.5820 C   0  0  0  0  0  0  0  0  0  0  0  0
   37.4380   21.5680   34.1240 O   0  0  0  0  0  0  0  0  0  0  0  0
   40.0090   22.7740   37.5330 C   0  0  0  0  0  0  0  0  0  0  0  0
   39.4160   23.5960   38.4840 C   0  0  0  0  0  0  0  0  0  0  0  0
   38.0210   23.7960   38.3870 C   0  0  0  0  0  0  0  0  0  0  0  0
   37.3150   23.1960   37.3910 N   0  0  0  0  0  0  0  0  0  0  0  0
   37.9560   22.3990   36.4880 C   0  0  0  0  0  0  0  0  0  0  0  0
   39.2780   22.2010   36.5700 N   0  0  0  0  0  0  0  0  0  0  0  0
   36.1010   22.5480   31.1410 C   0  0  0  0  0  0  0  0  0  0  0  0
   35.2170   23.5250   31.4410 C   0  0  0  0  0  0  0  0  0  0  0  0
   35.9210   24.7350   31.4520 C   0  0  0  0  0  0  0  0  0  0  0  0
   37.2190   24.4190   31.1520 N   0  0  0  0  0  0  0  0  0  0  0  0
   37.3240   23.1070   30.9660 N   0  0  0  0  0  0  0  0  0  0  0  0
   38.2980   25.3470   31.0510 C   0  0  0  0  0  0  0  0  0  0  0  0
   39.2270   25.3620   30.0340 C   0  0  0  0  0  0  0  0  0  0  0  0
   40.2500   26.3130   30.0230 C   0  0  0  0  0  0  0  0  0  0  0  0
   40.3500   27.2550   31.0300 C   0  0  0  0  0  0  0  0  0  0  0  0
   39.4110   27.2150   32.0280 C   0  0  0  0  0  0  0  0  0  0  0  0
   38.3890   26.2840   32.0620 C   0  0  0  0  0  0  0  0  0  0  0  0
   37.2929   18.6033   32.3962 H   0  0  0  0  0  0  0  0  0  0  0  0
   35.5525   18.4628   32.0454 H   0  0  0  0  0  0  0  0  0  0  0  0
   37.7012   18.5049   30.1815 H   0  0  0  0  0  0  0  0  0  0  0  0
   36.0014   18.5247   29.7822 H   0  0  0  0  0  0  0  0  0  0  0  0
   37.8978   20.8983   30.3085 H   0  0  0  0  0  0  0  0  0  0  0  0
   36.7448   20.7720   29.0116 H   0  0  0  0  0  0  0  0  0  0  0  0
   34.8121   20.9744   30.6744 H   0  0  0  0  0  0  0  0  0  0  0  0
   35.5637   21.0540   36.7220 H   0  0  0  0  0  0  0  0  0  0  0  0
   34.6017   19.9719   34.4006 H   0  0  0  0  0  0  0  0  0  0  0  0
   41.0932   22.5922   37.5726 H   0  0  0  0  0  0  0  0  0  0  0  0
   40.0086   24.0713   39.2795 H   0  0  0  0  0  0  0  0  0  0  0  0
   37.5054   24.4372   39.1171 H   0  0  0  0  0  0  0  0  0  0  0  0
   34.1431   23.3938   31.6398 H   0  0  0  0  0  0  0  0  0  0  0  0
   35.5142   25.7358   31.6594 H   0  0  0  0  0  0  0  0  0  0  0  0
   39.1628   24.6197   29.2247 H   0  0  0  0  0  0  0  0  0  0  0  0
   40.9843   26.3124   29.2040 H   0  0  0  0  0  0  0  0  0  0  0  0
   41.1522   28.0077   31.0304 H   0  0  0  0  0  0  0  0  0  0  0  0
   39.4733   27.9566   32.8380 H   0  0  0  0  0  0  0  0  0  0  0  0
   37.6577   26.2895   32.8837 H   0  0  0  0  0  0  0  0  0  0  0  0
  1  9  1  0
  2  1  1  0
  3  2  1  0
  4  3  1  0
  4  5  1  0
  5 17  1  0
  5  1  1  0
  6  7  2  0
  6 15  1  0
  8  7  1  0
  9 10  1  0
  9  8  2  0
 10  6  1  0
 11 12  2  0
 13 12  1  0
 14 13  2  0
 15 16  2  0
 15 14  1  0
 16 11  1  0
 17 18  1  0
 18 19  2  0
 20 19  1  0
 21 17  2  0
 21 20  1  0
 22 20  1  0
 22 27  1  0
 23 22  2  0
 24 23  1  0
 24 25  2  0
 25 26  1  0
 26 27  2  0
  2 28  1  0
  2 29  1  0
  3 30  1  0
  3 31  1  0
  4 32  1  0
  4 33  1  0
  5 34  1  6
  7 35  1  0
  8 36  1  0
 11 37  1  0
 12 38  1  0
 13 39  1  0
 18 40  1  0
 19 41  1  0
 23 42  1  0
 24 43  1  0
 25 44  1  0
 26 45  1  0
 27 46  1  0
M  ISO  8  28  13  29  13  30  13  31  13  32  13  33  13  34  13  35  14
M  ISO  8  36  14  37  14  38  14  39  14  40  14  41  14  42  14  43  14
M  ISO  3  44  14  45  14  46  14
M  END
>  <minimizedAffinity>  (1) 
-5.91909313

>  <minimizedRMSD>  (1) 
0.366212636

$$$$
