
     RDKit          3D

 44 48  0  0  1  0  0  0  0  0999 V2000
   36.2060   20.4300   32.2270 N   0  0  0  0  0  0  0  0  0  0  0  0
   36.2950   18.9970   31.8450 C   0  0  0  0  0  0  0  0  0  0  0  0
   36.5940   18.9440   30.3990 C   0  0  0  0  0  0  0  0  0  0  0  0
   36.8260   20.4120   30.0620 C   0  0  0  0  0  0  0  0  0  0  0  0
   35.8370   21.0800   30.9680 C   0  0  2  0  0  0  0  0  0  0  0  0
   37.2350   21.7110   35.3770 C   0  0  0  0  0  0  0  0  0  0  0  0
   36.0270   21.1050   35.7140 C   0  0  0  0  0  0  0  0  0  0  0  0
   35.4920   20.5410   34.5410 C   0  0  0  0  0  0  0  0  0  0  0  0
   36.4520   20.8670   33.5650 C   0  0  0  0  0  0  0  0  0  0  0  0
   37.4120   21.5240   34.0900 O   0  0  0  0  0  0  0  0  0  0  0  0
   40.0570   22.7340   37.4350 C   0  0  0  0  0  0  0  0  0  0  0  0
   39.4790   23.5500   38.4040 C   0  0  0  0  0  0  0  0  0  0  0  0
   38.0820   23.7510   38.3440 C   0  0  0  0  0  0  0  0  0  0  0  0
   37.3550   23.1570   37.3650 N   0  0  0  0  0  0  0  0  0  0  0  0
   37.9740   22.3650   36.4380 C   0  0  0  0  0  0  0  0  0  0  0  0
   39.2980   22.1670   36.4860 N   0  0  0  0  0  0  0  0  0  0  0  0
   36.1650   22.5010   31.0980 C   0  0  0  0  0  0  0  0  0  0  0  0
   35.3550   23.5200   31.4630 C   0  0  0  0  0  0  0  0  0  0  0  0
   36.1270   24.6930   31.4190 C   0  0  0  0  0  0  0  0  0  0  0  0
   37.3830   24.3080   31.0200 N   0  0  0  0  0  0  0  0  0  0  0  0
   37.4000   22.9920   30.8290 N   0  0  0  0  0  0  0  0  0  0  0  0
   38.3900   25.3050   30.8850 C   0  0  0  0  0  0  0  0  0  0  0  0
   39.3420   25.4500   29.8940 C   0  0  0  0  0  0  0  0  0  0  0  0
   40.2290   26.5120   29.9730 C   0  0  0  0  0  0  0  0  0  0  0  0
   40.1670   27.3870   30.9950 N   0  0  0  0  0  0  0  0  0  0  0  0
   39.2360   27.2390   31.9580 C   0  0  0  0  0  0  0  0  0  0  0  0
   38.3490   26.2040   31.9060 N   0  0  0  0  0  0  0  0  0  0  0  0
   37.0982   18.5053   32.4135 H   0  0  0  0  0  0  0  0  0  0  0  0
   35.3517   18.4763   32.0663 H   0  0  0  0  0  0  0  0  0  0  0  0
   37.4932   18.3425   30.1998 H   0  0  0  0  0  0  0  0  0  0  0  0
   35.7985   18.4750   29.8014 H   0  0  0  0  0  0  0  0  0  0  0  0
   37.8563   20.7204   30.2930 H   0  0  0  0  0  0  0  0  0  0  0  0
   36.6981   20.6558   28.9970 H   0  0  0  0  0  0  0  0  0  0  0  0
   34.7866   21.0053   30.6499 H   0  0  0  0  0  0  0  0  0  0  0  0
   35.5734   21.0731   36.7156 H   0  0  0  0  0  0  0  0  0  0  0  0
   34.5528   19.9819   34.4172 H   0  0  0  0  0  0  0  0  0  0  0  0
   41.1420   22.5535   37.4481 H   0  0  0  0  0  0  0  0  0  0  0  0
   40.0888   24.0216   39.1887 H   0  0  0  0  0  0  0  0  0  0  0  0
   37.5846   24.3882   39.0900 H   0  0  0  0  0  0  0  0  0  0  0  0
   34.2935   23.4450   31.7415 H   0  0  0  0  0  0  0  0  0  0  0  0
   35.7927   25.7137   31.6563 H   0  0  0  0  0  0  0  0  0  0  0  0
   39.3948   24.7364   29.0586 H   0  0  0  0  0  0  0  0  0  0  0  0
   40.9925   26.6418   29.1919 H   0  0  0  0  0  0  0  0  0  0  0  0
   39.1911   27.9567   32.7904 H   0  0  0  0  0  0  0  0  0  0  0  0
  1  9  1  0
  2  1  1  0
  3  2  1  0
  4  3  1  0
  4  5  1  0
  5 17  1  0
  5  1  1  0
  6  7  2  0
  6 15  1  0
  8  7  1  0
  9 10  1  0
  9  8  2  0
 10  6  1  0
 11 12  2  0
 13 12  1  0
 14 13  2  0
 15 16  2  0
 15 14  1  0
 16 11  1  0
 17 18  1  0
 19 18  2  0
 20 19  1  0
 21 20  1  0
 21 17  2  0
 22 20  1  0
 22 27  2  0
 23 24  2  0
 23 22  1  0
 24 25  1  0
 25 26  2  0
 27 26  1  0
  2 28  1  0
  2 29  1  0
  3 30  1  0
  3 31  1  0
  4 32  1  0
  4 33  1  0
  5 34  1  6
  7 35  1  0
  8 36  1  0
 11 37  1  0
 12 38  1  0
 13 39  1  0
 18 40  1  0
 19 41  1  0
 23 42  1  0
 24 43  1  0
 26 44  1  0
M  ISO  8  28  13  29  13  30  13  31  13  32  13  33  13  34  13  35  14
M  ISO  8  36  14  37  14  38  14  39  14  40  14  41  14  42  14  43  14
M  ISO  1  44  14
M  END
>  <minimizedAffinity>  (1) 
-5.84646654

>  <minimizedRMSD>  (1) 
0.156117767

$$$$
