
     RDKit          3D

 42 46  0  0  1  0  0  0  0  0999 V2000
   36.1830   20.4650   32.2450 N   0  0  0  0  0  0  0  0  0  0  0  0
   36.2420   19.0350   31.8510 C   0  0  0  0  0  0  0  0  0  0  0  0
   36.5610   18.9780   30.4100 C   0  0  0  0  0  0  0  0  0  0  0  0
   36.8120   20.4470   30.0780 C   0  0  0  0  0  0  0  0  0  0  0  0
   35.8260   21.1220   30.9840 C   0  0  2  0  0  0  0  0  0  0  0  0
   37.2300   21.7240   35.3930 C   0  0  0  0  0  0  0  0  0  0  0  0
   36.0290   21.1030   35.7340 C   0  0  0  0  0  0  0  0  0  0  0  0
   35.4950   20.5510   34.5630 C   0  0  0  0  0  0  0  0  0  0  0  0
   36.4400   20.8910   33.5810 C   0  0  0  0  0  0  0  0  0  0  0  0
   37.3990   21.5520   34.1040 O   0  0  0  0  0  0  0  0  0  0  0  0
   40.0580   22.7250   37.4580 C   0  0  0  0  0  0  0  0  0  0  0  0
   39.4930   23.5580   38.4160 C   0  0  0  0  0  0  0  0  0  0  0  0
   38.0990   23.7790   38.3460 C   0  0  0  0  0  0  0  0  0  0  0  0
   37.3600   23.1840   37.3630 N   0  0  0  0  0  0  0  0  0  0  0  0
   37.9780   22.3760   36.4520 C   0  0  0  0  0  0  0  0  0  0  0  0
   39.3000   22.1590   36.5090 N   0  0  0  0  0  0  0  0  0  0  0  0
   36.1660   22.5360   31.1200 C   0  0  0  0  0  0  0  0  0  0  0  0
   35.3730   23.5660   31.4910 C   0  0  0  0  0  0  0  0  0  0  0  0
   36.1520   24.7270   31.4490 C   0  0  0  0  0  0  0  0  0  0  0  0
   37.4040   24.3360   31.0470 N   0  0  0  0  0  0  0  0  0  0  0  0
   37.4060   23.0190   30.8510 N   0  0  0  0  0  0  0  0  0  0  0  0
   38.4590   25.2790   30.8970 C   0  0  0  0  0  0  0  0  0  0  0  0
   38.8100   26.1190   32.0710 C   0  0  0  0  0  0  0  0  0  0  0  0
   40.1790   27.1590   31.4520 S   0  0  0  0  0  0  0  0  0  0  0  0
   40.0680   26.3210   29.7480 C   0  0  0  0  0  0  0  0  0  0  0  0
   39.2230   25.5610   29.8570 N   0  0  0  0  0  0  0  0  0  0  0  0
   37.0237   18.5195   32.4282 H   0  0  0  0  0  0  0  0  0  0  0  0
   35.2803   18.5404   32.0521 H   0  0  0  0  0  0  0  0  0  0  0  0
   37.4572   18.3680   30.2235 H   0  0  0  0  0  0  0  0  0  0  0  0
   35.7706   18.5159   29.8003 H   0  0  0  0  0  0  0  0  0  0  0  0
   37.8448   20.7430   30.3140 H   0  0  0  0  0  0  0  0  0  0  0  0
   36.6918   20.6966   29.0134 H   0  0  0  0  0  0  0  0  0  0  0  0
   34.7765   21.0574   30.6609 H   0  0  0  0  0  0  0  0  0  0  0  0
   35.5829   21.0554   36.7384 H   0  0  0  0  0  0  0  0  0  0  0  0
   34.5590   19.9861   34.4413 H   0  0  0  0  0  0  0  0  0  0  0  0
   41.1400   22.5279   37.4789 H   0  0  0  0  0  0  0  0  0  0  0  0
   40.1072   24.0273   39.1987 H   0  0  0  0  0  0  0  0  0  0  0  0
   37.6084   24.4308   39.0838 H   0  0  0  0  0  0  0  0  0  0  0  0
   34.3118   23.5028   31.7736 H   0  0  0  0  0  0  0  0  0  0  0  0
   35.8258   25.7495   31.6902 H   0  0  0  0  0  0  0  0  0  0  0  0
   38.3550   26.1157   33.0725 H   0  0  0  0  0  0  0  0  0  0  0  0
   40.6807   26.5233   28.8571 H   0  0  0  0  0  0  0  0  0  0  0  0
  1  9  1  0
  2  1  1  0
  3  2  1  0
  4  3  1  0
  4  5  1  0
  5 17  1  0
  5  1  1  0
  6  7  2  0
  6 15  1  0
  8  7  1  0
  9 10  1  0
  9  8  2  0
 10  6  1  0
 11 12  2  0
 13 12  1  0
 14 13  2  0
 15 16  2  0
 15 14  1  0
 16 11  1  0
 17 18  1  0
 19 18  2  0
 20 19  1  0
 21 20  1  0
 21 17  2  0
 22 20  1  0
 22 23  2  0
 24 23  1  0
 25 26  2  0
 25 24  1  0
 26 22  1  0
  2 27  1  0
  2 28  1  0
  3 29  1  0
  3 30  1  0
  4 31  1  0
  4 32  1  0
  5 33  1  6
  7 34  1  0
  8 35  1  0
 11 36  1  0
 12 37  1  0
 13 38  1  0
 18 39  1  0
 19 40  1  0
 23 41  1  0
 25 42  1  0
M  ISO  8  27  13  28  13  29  13  30  13  31  13  32  13  33  13  34  14
M  ISO  8  35  14  36  14  37  14  38  14  39  14  40  14  41  14  42  14
M  END
>  <minimizedAffinity>  (1) 
-5.68524361

>  <minimizedRMSD>  (1) 
0.110849522

$$$$
