
     RDKit          3D

 43 47  0  0  1  0  0  0  0  0999 V2000
   36.3050   20.4840   32.2160 N   0  0  0  0  0  0  0  0  0  0  0  0
   36.4640   19.0640   31.8130 C   0  0  0  0  0  0  0  0  0  0  0  0
   36.7980   19.0470   30.3710 C   0  0  0  0  0  0  0  0  0  0  0  0
   36.9520   20.5280   30.0580 C   0  0  0  0  0  0  0  0  0  0  0  0
   35.9180   21.1360   30.9610 C   0  0  2  0  0  0  0  0  0  0  0  0
   37.2490   21.7440   35.3970 C   0  0  0  0  0  0  0  0  0  0  0  0
   36.0480   21.1190   35.7050 C   0  0  0  0  0  0  0  0  0  0  0  0
   35.5460   20.5610   34.5170 C   0  0  0  0  0  0  0  0  0  0  0  0
   36.5200   20.9110   33.5600 C   0  0  0  0  0  0  0  0  0  0  0  0
   37.4570   21.5770   34.1130 O   0  0  0  0  0  0  0  0  0  0  0  0
   40.0060   22.7680   37.5430 C   0  0  0  0  0  0  0  0  0  0  0  0
   39.4150   23.5920   38.4900 C   0  0  0  0  0  0  0  0  0  0  0  0
   38.0230   23.7980   38.3800 C   0  0  0  0  0  0  0  0  0  0  0  0
   37.3100   23.1990   37.3740 N   0  0  0  0  0  0  0  0  0  0  0  0
   37.9620   22.4000   36.4780 C   0  0  0  0  0  0  0  0  0  0  0  0
   39.2840   22.1970   36.5740 N   0  0  0  0  0  0  0  0  0  0  0  0
   36.1850   22.5670   31.1150 C   0  0  0  0  0  0  0  0  0  0  0  0
   35.3300   23.5440   31.4950 C   0  0  0  0  0  0  0  0  0  0  0  0
   36.0430   24.7520   31.4700 C   0  0  0  0  0  0  0  0  0  0  0  0
   37.3060   24.4350   31.0730 N   0  0  0  0  0  0  0  0  0  0  0  0
   37.3970   23.1200   30.8570 N   0  0  0  0  0  0  0  0  0  0  0  0
   38.4060   25.3220   30.8940 C   0  0  0  0  0  0  0  0  0  0  0  0
   38.8570   26.3550   31.6850 C   0  0  0  0  0  0  0  0  0  0  0  0
   39.9580   26.8780   31.0380 C   0  0  0  0  0  0  0  0  0  0  0  0
   40.1310   26.1420   29.8790 C   0  0  0  0  0  0  0  0  0  0  0  0
   39.1900   25.2310   29.8380 O   0  0  0  0  0  0  0  0  0  0  0  0
   37.2746   18.5975   32.3921 H   0  0  0  0  0  0  0  0  0  0  0  0
   35.5387   18.5006   32.0037 H   0  0  0  0  0  0  0  0  0  0  0  0
   37.7346   18.5008   30.1852 H   0  0  0  0  0  0  0  0  0  0  0  0
   36.0445   18.5409   29.7497 H   0  0  0  0  0  0  0  0  0  0  0  0
   37.9619   20.8876   30.3047 H   0  0  0  0  0  0  0  0  0  0  0  0
   36.8199   20.7770   28.9947 H   0  0  0  0  0  0  0  0  0  0  0  0
   34.8754   21.0185   30.6306 H   0  0  0  0  0  0  0  0  0  0  0  0
   35.5759   21.0697   36.6973 H   0  0  0  0  0  0  0  0  0  0  0  0
   34.6178   19.9895   34.3696 H   0  0  0  0  0  0  0  0  0  0  0  0
   41.0890   22.5812   37.5906 H   0  0  0  0  0  0  0  0  0  0  0  0
   40.0045   24.0633   39.2902 H   0  0  0  0  0  0  0  0  0  0  0  0
   37.5070   24.4433   39.1062 H   0  0  0  0  0  0  0  0  0  0  0  0
   34.2732   23.4153   31.7719 H   0  0  0  0  0  0  0  0  0  0  0  0
   35.6594   25.7521   31.7203 H   0  0  0  0  0  0  0  0  0  0  0  0
   38.4270   26.6944   32.6389 H   0  0  0  0  0  0  0  0  0  0  0  0
   40.5795   27.7193   31.3786 H   0  0  0  0  0  0  0  0  0  0  0  0
   40.9183   26.2945   29.1261 H   0  0  0  0  0  0  0  0  0  0  0  0
  1  9  1  0
  2  1  1  0
  3  2  1  0
  4  3  1  0
  4  5  1  0
  5 17  1  0
  5  1  1  0
  6  7  2  0
  6 15  1  0
  8  7  1  0
  9 10  1  0
  9  8  2  0
 10  6  1  0
 11 12  2  0
 13 12  1  0
 14 13  2  0
 15 16  2  0
 15 14  1  0
 16 11  1  0
 17 18  1  0
 19 18  2  0
 20 19  1  0
 21 20  1  0
 21 17  2  0
 22 20  1  0
 22 23  2  0
 24 23  1  0
 25 24  2  0
 26 25  1  0
 26 22  1  0
  2 27  1  0
  2 28  1  0
  3 29  1  0
  3 30  1  0
  4 31  1  0
  4 32  1  0
  5 33  1  6
  7 34  1  0
  8 35  1  0
 11 36  1  0
 12 37  1  0
 13 38  1  0
 18 39  1  0
 19 40  1  0
 23 41  1  0
 24 42  1  0
 25 43  1  0
M  ISO  8  27  13  28  13  29  13  30  13  31  13  32  13  33  13  34  14
M  ISO  8  35  14  36  14  37  14  38  14  39  14  40  14  41  14  42  14
M  ISO  1  43  14
M  END
>  <minimizedAffinity>  (1) 
-5.67998075

>  <minimizedRMSD>  (1) 
0.239871636

$$$$
