
     RDKit          3D

 20 21  0  0  0  0  0  0  0  0999 V2000
   40.4860   22.4470   37.6780 C   0  0  0  0  0  0  0  0  0  0  0  0
   39.2560   23.1070   37.4240 C   0  0  0  0  0  0  0  0  0  0  0  0
   38.8450   23.2160   36.1000 C   0  0  0  0  0  0  0  0  0  0  0  0
   39.6240   22.6950   35.1130 N   0  0  0  0  0  0  0  0  0  0  0  0
   40.8010   22.0670   35.4040 C   0  0  0  0  0  0  0  0  0  0  0  0
   41.2150   21.9520   36.6800 N   0  0  0  0  0  0  0  0  0  0  0  0
   38.3980   23.6800   38.5050 C   0  0  0  0  0  0  0  0  0  0  0  0
   39.2140   23.8520   39.6090 F   0  0  0  0  0  0  0  0  0  0  0  0
   37.3710   22.8760   38.8380 F   0  0  0  0  0  0  0  0  0  0  0  0
   38.0040   24.9870   38.1680 F   0  0  0  0  0  0  0  0  0  0  0  0
   41.5790   21.5340   34.2730 C   0  0  0  0  0  0  0  0  0  0  0  0
   42.9430   21.0040   34.4040 C   0  0  0  0  0  0  0  0  0  0  0  0
   42.7800   22.4180   33.8970 C   0  0  0  0  0  0  0  0  0  0  0  0
   40.8421   22.3429   38.7135 H   0  0  0  0  0  0  0  0  0  0  0  0
   37.8985   23.7189   35.8525 H   0  0  0  0  0  0  0  0  0  0  0  0
   40.6830   21.0970   33.8081 H   0  0  0  0  0  0  0  0  0  0  0  0
   43.3653   20.8301   35.4047 H   0  0  0  0  0  0  0  0  0  0  0  0
   43.4559   20.1088   34.0226 H   0  0  0  0  0  0  0  0  0  0  0  0
   42.9857   22.6587   32.8435 H   0  0  0  0  0  0  0  0  0  0  0  0
   43.1536   23.4110   34.1873 H   0  0  0  0  0  0  0  0  0  0  0  0
  2  1  2  0
  2  7  1  0
  3  2  1  0
  4  5  1  0
  4  3  2  0
  5  6  2  0
  6  1  1  0
  7  9  1  0
  7  8  1  0
 10  7  1  0
 11 12  1  0
 11  5  1  0
 13 11  1  0
 13 12  1  0
  1 14  1  0
  3 15  1  0
 11 16  1  0
 12 17  1  0
 12 18  1  0
 13 19  1  0
 13 20  1  0
M  ISO  7  14  14  15  14  16  13  17  13  18  13  19  13  20  13
M  END
>  <minimizedAffinity>  (1) 
-3.8277328

>  <minimizedRMSD>  (1) 
0.39379558

$$$$
