
     RDKit          3D

 45 48  0  0  1  0  0  0  0  0999 V2000
   36.1850   20.4700   32.2390 N   0  0  0  0  0  0  0  0  0  0  0  0
   36.2230   19.0410   31.8540 C   0  0  0  0  0  0  0  0  0  0  0  0
   36.5170   18.9800   30.4070 C   0  0  0  0  0  0  0  0  0  0  0  0
   36.8240   20.4390   30.0820 C   0  0  0  0  0  0  0  0  0  0  0  0
   35.8440   21.1370   30.9790 C   0  0  2  0  0  0  0  0  0  0  0  0
   37.2330   21.7270   35.3940 C   0  0  0  0  0  0  0  0  0  0  0  0
   36.0300   21.1070   35.7360 C   0  0  0  0  0  0  0  0  0  0  0  0
   35.4980   20.5590   34.5620 C   0  0  0  0  0  0  0  0  0  0  0  0
   36.4430   20.8970   33.5790 C   0  0  0  0  0  0  0  0  0  0  0  0
   37.4020   21.5550   34.1040 O   0  0  0  0  0  0  0  0  0  0  0  0
   40.0540   22.7260   37.4660 C   0  0  0  0  0  0  0  0  0  0  0  0
   39.4870   23.5560   38.4250 C   0  0  0  0  0  0  0  0  0  0  0  0
   38.0980   23.7770   38.3580 C   0  0  0  0  0  0  0  0  0  0  0  0
   37.3610   23.1850   37.3740 N   0  0  0  0  0  0  0  0  0  0  0  0
   37.9790   22.3730   36.4530 C   0  0  0  0  0  0  0  0  0  0  0  0
   39.3010   22.1610   36.5150 N   0  0  0  0  0  0  0  0  0  0  0  0
   36.2210   22.5440   31.1150 C   0  0  0  0  0  0  0  0  0  0  0  0
   35.4570   23.5920   31.4970 C   0  0  0  0  0  0  0  0  0  0  0  0
   36.2670   24.7340   31.4470 C   0  0  0  0  0  0  0  0  0  0  0  0
   37.4870   24.3170   31.0340 N   0  0  0  0  0  0  0  0  0  0  0  0
   37.4670   23.0010   30.8320 N   0  0  0  0  0  0  0  0  0  0  0  0
   38.6450   25.1880   30.8420 C   0  0  0  0  0  0  0  0  0  0  0  0
   39.3440   24.8030   29.5590 C   0  0  0  0  0  0  0  0  0  0  0  0
   38.1620   26.6180   30.6660 C   0  0  0  0  0  0  0  0  0  0  0  0
   37.0096   18.5202   32.4196 H   0  0  0  0  0  0  0  0  0  0  0  0
   35.2620   18.5537   32.0756 H   0  0  0  0  0  0  0  0  0  0  0  0
   37.3838   18.3343   30.2024 H   0  0  0  0  0  0  0  0  0  0  0  0
   35.6991   18.5552   29.8065 H   0  0  0  0  0  0  0  0  0  0  0  0
   37.8621   20.7006   30.3347 H   0  0  0  0  0  0  0  0  0  0  0  0
   36.7323   20.6982   29.0169 H   0  0  0  0  0  0  0  0  0  0  0  0
   34.7941   21.0988   30.6532 H   0  0  0  0  0  0  0  0  0  0  0  0
   35.5833   21.0580   36.7400 H   0  0  0  0  0  0  0  0  0  0  0  0
   34.5608   19.9964   34.4387 H   0  0  0  0  0  0  0  0  0  0  0  0
   41.1363   22.5307   37.4887 H   0  0  0  0  0  0  0  0  0  0  0  0
   40.1012   24.0238   39.2086 H   0  0  0  0  0  0  0  0  0  0  0  0
   37.6075   24.4263   39.0982 H   0  0  0  0  0  0  0  0  0  0  0  0
   34.3979   23.5549   31.7918 H   0  0  0  0  0  0  0  0  0  0  0  0
   35.9708   25.7641   31.6941 H   0  0  0  0  0  0  0  0  0  0  0  0
   39.3173   25.0942   31.7076 H   0  0  0  0  0  0  0  0  0  0  0  0
   40.2850   24.2847   29.7954 H   0  0  0  0  0  0  0  0  0  0  0  0
   38.6946   24.1353   28.9738 H   0  0  0  0  0  0  0  0  0  0  0  0
   39.5613   25.7087   28.9738 H   0  0  0  0  0  0  0  0  0  0  0  0
   38.0070   27.0768   31.6536 H   0  0  0  0  0  0  0  0  0  0  0  0
   38.9156   27.1936   30.1085 H   0  0  0  0  0  0  0  0  0  0  0  0
   37.2138   26.6187   30.1085 H   0  0  0  0  0  0  0  0  0  0  0  0
  1  9  1  0
  2  1  1  0
  3  2  1  0
  4  3  1  0
  4  5  1  0
  5 17  1  0
  5  1  1  0
  6  7  2  0
  6 15  1  0
  8  7  1  0
  9 10  1  0
  9  8  2  0
 10  6  1  0
 11 12  2  0
 13 12  1  0
 14 13  2  0
 15 16  2  0
 15 14  1  0
 16 11  1  0
 17 18  1  0
 19 18  2  0
 20 19  1  0
 21 20  1  0
 21 17  2  0
 22 20  1  0
 23 22  1  0
 24 22  1  0
  2 25  1  0
  2 26  1  0
  3 27  1  0
  3 28  1  0
  4 29  1  0
  4 30  1  0
  5 31  1  6
  7 32  1  0
  8 33  1  0
 11 34  1  0
 12 35  1  0
 13 36  1  0
 18 37  1  0
 19 38  1  0
 22 39  1  0
 23 40  1  0
 23 41  1  0
 23 42  1  0
 24 43  1  0
 24 44  1  0
 24 45  1  0
M  ISO  8  25  13  26  13  27  13  28  13  29  13  30  13  31  13  32  14
M  ISO  8  33  14  34  14  35  14  36  14  37  14  38  14  39   8  40   8
M  ISO  5  41   8  42   8  43   8  44   8  45   8
M  END
>  <minimizedAffinity>  (1) 
-5.48338175

>  <minimizedRMSD>  (1) 
0.0918690488

$$$$
