
     RDKit          3D

 39 42  0  0  1  0  0  0  0  0999 V2000
   36.1830   20.4690   32.2380 N   0  0  0  0  0  0  0  0  0  0  0  0
   36.2180   19.0370   31.8560 C   0  0  0  0  0  0  0  0  0  0  0  0
   36.5340   18.9700   30.4140 C   0  0  0  0  0  0  0  0  0  0  0  0
   36.8240   20.4300   30.0810 C   0  0  0  0  0  0  0  0  0  0  0  0
   35.8460   21.1310   30.9770 C   0  0  2  0  0  0  0  0  0  0  0  0
   37.2350   21.7270   35.3910 C   0  0  0  0  0  0  0  0  0  0  0  0
   36.0330   21.1080   35.7330 C   0  0  0  0  0  0  0  0  0  0  0  0
   35.4980   20.5570   34.5610 C   0  0  0  0  0  0  0  0  0  0  0  0
   36.4430   20.8950   33.5770 C   0  0  0  0  0  0  0  0  0  0  0  0
   37.4000   21.5550   34.1050 O   0  0  0  0  0  0  0  0  0  0  0  0
   40.0520   22.7250   37.4640 C   0  0  0  0  0  0  0  0  0  0  0  0
   39.4860   23.5570   38.4210 C   0  0  0  0  0  0  0  0  0  0  0  0
   38.0990   23.7830   38.3550 C   0  0  0  0  0  0  0  0  0  0  0  0
   37.3600   23.1890   37.3700 N   0  0  0  0  0  0  0  0  0  0  0  0
   37.9780   22.3750   36.4480 C   0  0  0  0  0  0  0  0  0  0  0  0
   39.2990   22.1610   36.5130 N   0  0  0  0  0  0  0  0  0  0  0  0
   36.2220   22.5390   31.1100 C   0  0  0  0  0  0  0  0  0  0  0  0
   35.4610   23.5830   31.5050 C   0  0  0  0  0  0  0  0  0  0  0  0
   36.2730   24.7280   31.4460 C   0  0  0  0  0  0  0  0  0  0  0  0
   37.4930   24.3120   31.0150 N   0  0  0  0  0  0  0  0  0  0  0  0
   37.4650   22.9930   30.8110 N   0  0  0  0  0  0  0  0  0  0  0  0
   38.6370   25.1790   30.8130 C   0  0  0  0  0  0  0  0  0  0  0  0
   36.9924   18.5126   32.4350 H   0  0  0  0  0  0  0  0  0  0  0  0
   35.2504   18.5567   32.0635 H   0  0  0  0  0  0  0  0  0  0  0  0
   37.4132   18.3358   30.2272 H   0  0  0  0  0  0  0  0  0  0  0  0
   35.7309   18.5288   29.8054 H   0  0  0  0  0  0  0  0  0  0  0  0
   37.8615   20.7012   30.3258 H   0  0  0  0  0  0  0  0  0  0  0  0
   36.7201   20.6799   29.0148 H   0  0  0  0  0  0  0  0  0  0  0  0
   34.7966   21.0918   30.6497 H   0  0  0  0  0  0  0  0  0  0  0  0
   35.5872   21.0610   36.7375 H   0  0  0  0  0  0  0  0  0  0  0  0
   34.5610   19.9937   34.4398 H   0  0  0  0  0  0  0  0  0  0  0  0
   41.1338   22.5271   37.4883 H   0  0  0  0  0  0  0  0  0  0  0  0
   40.1014   24.0236   39.2043 H   0  0  0  0  0  0  0  0  0  0  0  0
   37.6106   24.4356   39.0936 H   0  0  0  0  0  0  0  0  0  0  0  0
   34.4060   23.5440   31.8141 H   0  0  0  0  0  0  0  0  0  0  0  0
   35.9794   25.7575   31.6987 H   0  0  0  0  0  0  0  0  0  0  0  0
   39.0416   25.4856   31.7889 H   0  0  0  0  0  0  0  0  0  0  0  0
   39.4113   24.6389   30.2484 H   0  0  0  0  0  0  0  0  0  0  0  0
   38.3263   26.0705   30.2484 H   0  0  0  0  0  0  0  0  0  0  0  0
  1  9  1  0
  2  1  1  0
  3  2  1  0
  4  3  1  0
  4  5  1  0
  5 17  1  0
  5  1  1  0
  6  7  2  0
  6 15  1  0
  8  7  1  0
  9 10  1  0
  9  8  2  0
 10  6  1  0
 11 12  2  0
 13 12  1  0
 14 13  2  0
 15 16  2  0
 15 14  1  0
 16 11  1  0
 17 18  1  0
 19 18  2  0
 20 19  1  0
 21 20  1  0
 21 17  2  0
 22 20  1  0
  2 23  1  0
  2 24  1  0
  3 25  1  0
  3 26  1  0
  4 27  1  0
  4 28  1  0
  5 29  1  6
  7 30  1  0
  8 31  1  0
 11 32  1  0
 12 33  1  0
 13 34  1  0
 18 35  1  0
 19 36  1  0
 22 37  1  0
 22 38  1  0
 22 39  1  0
M  ISO  8  23  13  24  13  25  13  26  13  27  13  28  13  29  13  30  14
M  ISO  8  31  14  32  14  33  14  34  14  35  14  36  14  37   8  38   8
M  ISO  1  39   8
M  END
>  <minimizedAffinity>  (1) 
-5.42391014

>  <minimizedRMSD>  (1) 
0.0272372905

$$$$
