
     RDKit          3D

 20 20  0  0  0  0  0  0  0  0999 V2000
   40.3000   23.8630   34.3320 C   0  0  0  0  0  0  0  0  0  0  0  0
   39.3130   24.8260   34.0680 C   0  0  0  0  0  0  0  0  0  0  0  0
   38.4070   25.1310   35.1020 C   0  0  0  0  0  0  0  0  0  0  0  0
   38.5320   24.4890   36.2790 N   0  0  0  0  0  0  0  0  0  0  0  0
   39.5050   23.5600   36.4940 C   0  0  0  0  0  0  0  0  0  0  0  0
   40.3720   23.2570   35.5310 N   0  0  0  0  0  0  0  0  0  0  0  0
   37.3720   26.0930   34.9290 N   0  0  0  0  0  0  0  0  0  0  0  0
   37.5970   27.4370   35.3140 C   0  0  0  0  0  0  0  0  0  0  0  0
   38.4930   27.7440   36.1800 N   0  0  0  0  0  0  0  0  0  0  0  0
   36.7900   28.4370   34.7030 N   0  0  0  0  0  0  0  0  0  0  0  0
   38.6960   28.7020   36.5420 H   0  0  0  0  0  0  0  0  0  0  0  0
   39.6110   22.8940   37.7660 C   0  0  0  0  0  0  0  0  0  0  0  0
   38.9680   23.2710   38.7810 O   0  0  0  0  0  0  0  0  0  0  0  0
   40.4110   21.7880   38.0130 O   0  0  0  0  0  0  0  0  0  0  0  0
   41.0247   23.6002   33.5473 H   0  0  0  0  0  0  0  0  0  0  0  0
   39.2497   25.3240   33.0892 H   0  0  0  0  0  0  0  0  0  0  0  0
   36.4660   25.8134   34.5267 H   0  0  0  0  0  0  0  0  0  0  0  0
   36.9198   29.4276   34.9536 H   0  0  0  0  0  0  0  0  0  0  0  0
   36.0760   28.1703   34.0102 H   0  0  0  0  0  0  0  0  0  0  0  0
   40.4314   21.3837   38.9165 H   0  0  0  0  0  0  0  0  0  0  0  0
  1  6  2  0
  2  1  1  0
  2  3  2  0
  3  4  1  0
  4  5  2  0
  5 12  1  0
  6  5  1  0
  7  3  1  0
  7  8  1  0
  8  9  2  0
  9 11  1  0
 10  8  1  0
 12 14  1  0
 12 13  2  0
  1 15  1  0
  2 16  1  0
  7 17  1  0
 10 18  1  0
 10 19  1  0
 14 20  1  0
M  ISO  3  15  14  16  14  20   3
M  END
>  <minimizedAffinity>  (1) 
-4.29758883

>  <minimizedRMSD>  (1) 
1.90776134

$$$$
