
     RDKit          3D

 23 23  0  0  0  0  0  0  0  0999 V2000
   40.3420   23.7960   34.2740 C   0  0  0  0  0  0  0  0  0  0  0  0
   39.3390   24.7470   34.0220 C   0  0  0  0  0  0  0  0  0  0  0  0
   38.4620   25.0490   35.0720 C   0  0  0  0  0  0  0  0  0  0  0  0
   38.6400   24.4130   36.2460 N   0  0  0  0  0  0  0  0  0  0  0  0
   39.6050   23.5080   36.4680 C   0  0  0  0  0  0  0  0  0  0  0  0
   40.4610   23.1950   35.4780 N   0  0  0  0  0  0  0  0  0  0  0  0
   37.4010   26.0010   34.9350 N   0  0  0  0  0  0  0  0  0  0  0  0
   37.6290   27.3490   35.3070 C   0  0  0  0  0  0  0  0  0  0  0  0
   38.5690   27.6770   36.1440 N   0  0  0  0  0  0  0  0  0  0  0  0
   36.7710   28.3210   34.7150 N   0  0  0  0  0  0  0  0  0  0  0  0
   38.7440   28.6350   36.4760 H   0  0  0  0  0  0  0  0  0  0  0  0
   39.6880   22.8730   37.8230 C   0  0  0  0  0  0  0  0  0  0  0  0
   38.5910   23.4970   38.6870 C   0  0  0  0  0  0  0  0  0  0  0  0
   41.0474   23.5345   33.4715 H   0  0  0  0  0  0  0  0  0  0  0  0
   39.2461   25.2346   33.0403 H   0  0  0  0  0  0  0  0  0  0  0  0
   36.4830   25.7092   34.5703 H   0  0  0  0  0  0  0  0  0  0  0  0
   36.8863   29.3183   34.9453 H   0  0  0  0  0  0  0  0  0  0  0  0
   36.0356   28.0262   34.0568 H   0  0  0  0  0  0  0  0  0  0  0  0
   39.5299   21.7876   37.7401 H   0  0  0  0  0  0  0  0  0  0  0  0
   40.6785   23.0406   38.2711 H   0  0  0  0  0  0  0  0  0  0  0  0
   38.8372   23.3569   39.7499 H   0  0  0  0  0  0  0  0  0  0  0  0
   38.5175   24.5721   38.4662 H   0  0  0  0  0  0  0  0  0  0  0  0
   37.6293   23.0107   38.4662 H   0  0  0  0  0  0  0  0  0  0  0  0
  1  6  2  0
  2  1  1  0
  2  3  2  0
  3  4  1  0
  4  5  2  0
  5 12  1  0
  6  5  1  0
  7  3  1  0
  7  8  1  0
  8  9  2  0
  9 11  1  0
 10  8  1  0
 12 13  1  0
  1 14  1  0
  2 15  1  0
  7 16  1  0
 10 17  1  0
 10 18  1  0
 12 19  1  0
 12 20  1  0
 13 21  1  0
 13 22  1  0
 13 23  1  0
M  ISO  7  14  14  15  14  19   8  20   8  21   8  22   8  23   8
M  END
>  <minimizedAffinity>  (1) 
-3.77051568

>  <minimizedRMSD>  (1) 
1.80806625

$$$$
