
     RDKit          3D

 20 20  0  0  0  0  0  0  0  0999 V2000
   39.9910   23.6070   35.2720 C   0  0  0  0  0  0  0  0  0  0  0  0
   39.1260   24.5210   34.6390 C   0  0  0  0  0  0  0  0  0  0  0  0
   38.0630   25.0560   35.3840 C   0  0  0  0  0  0  0  0  0  0  0  0
   37.9310   24.6660   36.6630 N   0  0  0  0  0  0  0  0  0  0  0  0
   38.7680   23.7910   37.2510 C   0  0  0  0  0  0  0  0  0  0  0  0
   39.7860   23.2730   36.5520 N   0  0  0  0  0  0  0  0  0  0  0  0
   37.1590   25.9880   34.7830 N   0  0  0  0  0  0  0  0  0  0  0  0
   37.3680   27.3830   34.9570 C   0  0  0  0  0  0  0  0  0  0  0  0
   38.0770   27.8390   35.9300 N   0  0  0  0  0  0  0  0  0  0  0  0
   36.7550   28.2380   34.0020 N   0  0  0  0  0  0  0  0  0  0  0  0
   38.2760   28.8440   36.0950 H   0  0  0  0  0  0  0  0  0  0  0  0
   38.6170   23.3640   38.6670 C   0  0  0  0  0  0  0  0  0  0  0  0
   40.8328   23.1688   34.7159 H   0  0  0  0  0  0  0  0  0  0  0  0
   39.2794   24.8081   33.5883 H   0  0  0  0  0  0  0  0  0  0  0  0
   36.3607   25.6497   34.2270 H   0  0  0  0  0  0  0  0  0  0  0  0
   36.8705   29.2589   34.0756 H   0  0  0  0  0  0  0  0  0  0  0  0
   36.1952   27.8369   33.2361 H   0  0  0  0  0  0  0  0  0  0  0  0
   38.9091   24.1900   39.3322 H   0  0  0  0  0  0  0  0  0  0  0  0
   37.5683   23.0925   38.8583 H   0  0  0  0  0  0  0  0  0  0  0  0
   39.2619   22.4936   38.8583 H   0  0  0  0  0  0  0  0  0  0  0  0
  1  6  2  0
  2  1  1  0
  2  3  2  0
  3  4  1  0
  4  5  2  0
  5 12  1  0
  6  5  1  0
  7  8  1  0
  7  3  1  0
  8  9  2  0
  9 11  1  0
 10  8  1  0
  1 13  1  0
  2 14  1  0
  7 15  1  0
 10 16  1  0
 10 17  1  0
 12 18  1  0
 12 19  1  0
 12 20  1  0
M  ISO  5  13  14  14  14  18   8  19   8  20   8
M  END
>  <minimizedAffinity>  (1) 
-3.40609956

>  <minimizedRMSD>  (1) 
1.15859377

$$$$
