
     RDKit          3D

 16 16  0  0  0  0  0  0  0  0999 V2000
   40.4830   22.4140   37.7120 C   0  0  0  0  0  0  0  0  0  0  0  0
   39.2990   23.1250   37.4460 C   0  0  0  0  0  0  0  0  0  0  0  0
   38.9410   23.2860   36.1110 C   0  0  0  0  0  0  0  0  0  0  0  0
   39.7250   22.7660   35.1290 N   0  0  0  0  0  0  0  0  0  0  0  0
   40.8720   22.0810   35.4540 C   0  0  0  0  0  0  0  0  0  0  0  0
   41.2300   21.9170   36.7230 N   0  0  0  0  0  0  0  0  0  0  0  0
   38.4220   23.7050   38.5090 C   0  0  0  0  0  0  0  0  0  0  0  0
   39.2090   23.8710   39.6300 F   0  0  0  0  0  0  0  0  0  0  0  0
   37.3870   22.8680   38.8220 F   0  0  0  0  0  0  0  0  0  0  0  0
   37.9910   24.9780   38.1640 F   0  0  0  0  0  0  0  0  0  0  0  0
   41.6680   21.5490   34.3530 C   0  0  0  0  0  0  0  0  0  0  0  0
   41.5340   22.0100   33.1950 O   0  0  0  0  0  0  0  0  0  0  0  0
   42.5730   20.5300   34.5800 O   0  0  0  0  0  0  0  0  0  0  0  0
   40.7997   22.2645   38.7547 H   0  0  0  0  0  0  0  0  0  0  0  0
   38.0236   23.8340   35.8499 H   0  0  0  0  0  0  0  0  0  0  0  0
   43.1119   20.1707   33.8313 H   0  0  0  0  0  0  0  0  0  0  0  0
  2  1  2  0
  2  7  1  0
  3  2  1  0
  4  5  1  0
  4  3  2  0
  5  6  2  0
  6  1  1  0
  7  9  1  0
  7  8  1  0
 10  7  1  0
 11 13  1  0
 11  5  1  0
 12 11  2  0
  1 14  1  0
  3 15  1  0
 13 16  1  0
M  ISO  3  14  14  15  14  16   3
M  END
>  <minimizedAffinity>  (1) 
-3.81304264

>  <minimizedRMSD>  (1) 
0.399263173

$$$$
