
     RDKit          3D

 23 23  0  0  0  0  0  0  0  0999 V2000
   37.7130   25.3760   36.4800 C   0  0  0  0  0  0  0  0  0  0  0  0
   38.2340   24.2320   37.0820 C   0  0  0  0  0  0  0  0  0  0  0  0
   38.8230   23.2830   36.2430 C   0  0  0  0  0  0  0  0  0  0  0  0
   38.8650   23.5040   34.9210 N   0  0  0  0  0  0  0  0  0  0  0  0
   38.3540   24.6240   34.3560 C   0  0  0  0  0  0  0  0  0  0  0  0
   37.7840   25.5470   35.1340 N   0  0  0  0  0  0  0  0  0  0  0  0
   39.3970   22.0570   36.7470 N   0  0  0  0  0  0  0  0  0  0  0  0
   40.7960   21.9550   36.9050 C   0  0  0  0  0  0  0  0  0  0  0  0
   41.5970   22.6710   36.1980 N   0  0  0  0  0  0  0  0  0  0  0  0
   41.2840   21.0270   37.8810 N   0  0  0  0  0  0  0  0  0  0  0  0
   42.6360   22.6270   36.2490 H   0  0  0  0  0  0  0  0  0  0  0  0
   38.4190   24.8350   32.8840 C   0  0  0  0  0  0  0  0  0  0  0  0
   38.4900   26.2010   32.6700 F   0  0  0  0  0  0  0  0  0  0  0  0
   39.5180   24.2390   32.3400 F   0  0  0  0  0  0  0  0  0  0  0  0
   37.2780   24.3390   32.2610 F   0  0  0  0  0  0  0  0  0  0  0  0
   38.1910   23.9790   38.5410 C   0  0  0  0  0  0  0  0  0  0  0  0
   37.7030   25.1130   39.1680 F   0  0  0  0  0  0  0  0  0  0  0  0
   37.3600   22.8960   38.7470 F   0  0  0  0  0  0  0  0  0  0  0  0
   39.4650   23.6620   39.0210 F   0  0  0  0  0  0  0  0  0  0  0  0
   37.2388   26.1495   37.1019 H   0  0  0  0  0  0  0  0  0  0  0  0
   38.7890   21.2618   36.9897 H   0  0  0  0  0  0  0  0  0  0  0  0
   42.2978   20.9207   38.0289 H   0  0  0  0  0  0  0  0  0  0  0  0
   40.6211   20.4660   38.4349 H   0  0  0  0  0  0  0  0  0  0  0  0
  1  2  2  0
  2 16  1  0
  3  7  1  0
  3  2  1  0
  4  3  2  0
  5  4  1  0
  5  6  2  0
  6  1  1  0
  7  8  1  0
  8 10  1  0
  9 11  1  0
  9  8  2  0
 12  5  1  0
 13 12  1  0
 14 12  1  0
 15 12  1  0
 16 18  1  0
 16 19  1  0
 16 17  1  0
  1 20  1  0
  7 21  1  0
 10 22  1  0
 10 23  1  0
M  ISO  1  20  14
M  END
>  <minimizedAffinity>  (1) 
-5.56236887

>  <minimizedRMSD>  (1) 
2.11669421

$$$$
