
     RDKit          3D

 23 23  0  0  0  0  0  0  0  0999 V2000
   37.7400   25.3510   36.1070 C   0  0  0  0  0  0  0  0  0  0  0  0
   38.2140   24.2130   36.7510 C   0  0  0  0  0  0  0  0  0  0  0  0
   38.9630   23.2800   36.0000 C   0  0  0  0  0  0  0  0  0  0  0  0
   39.1810   23.5390   34.7010 N   0  0  0  0  0  0  0  0  0  0  0  0
   38.7140   24.6450   34.0970 C   0  0  0  0  0  0  0  0  0  0  0  0
   38.0060   25.5350   34.7880 N   0  0  0  0  0  0  0  0  0  0  0  0
   39.4790   22.0890   36.6030 N   0  0  0  0  0  0  0  0  0  0  0  0
   40.8640   22.0350   36.9360 C   0  0  0  0  0  0  0  0  0  0  0  0
   41.7380   22.7970   36.3590 N   0  0  0  0  0  0  0  0  0  0  0  0
   41.2290   21.0890   37.9430 N   0  0  0  0  0  0  0  0  0  0  0  0
   42.7490   22.7790   36.5470 H   0  0  0  0  0  0  0  0  0  0  0  0
   38.9840   24.8890   32.6420 C   0  0  0  0  0  0  0  0  0  0  0  0
   39.6980   26.0530   32.5470 F   0  0  0  0  0  0  0  0  0  0  0  0
   39.7000   23.8650   32.0910 F   0  0  0  0  0  0  0  0  0  0  0  0
   37.7680   25.0090   31.9360 F   0  0  0  0  0  0  0  0  0  0  0  0
   37.9530   23.9860   38.1420 C   0  0  0  0  0  0  0  0  0  0  0  0
   38.0580   24.8370   39.0620 O   0  0  0  0  0  0  0  0  0  0  0  0
   37.5420   22.7310   38.5710 O   0  0  0  0  0  0  0  0  0  0  0  0
   37.1533   26.0974   36.6626 H   0  0  0  0  0  0  0  0  0  0  0  0
   38.8617   21.2866   36.7926 H   0  0  0  0  0  0  0  0  0  0  0  0
   42.2136   20.9981   38.2316 H   0  0  0  0  0  0  0  0  0  0  0  0
   40.5075   20.4981   38.3802 H   0  0  0  0  0  0  0  0  0  0  0  0
   37.3609   22.5708   39.5310 H   0  0  0  0  0  0  0  0  0  0  0  0
  1  2  2  0
  2 16  1  0
  3  7  1  0
  3  2  1  0
  4  3  2  0
  5  4  1  0
  5  6  2  0
  6  1  1  0
  7  8  1  0
  8 10  1  0
  9 11  1  0
  9  8  2  0
 12  5  1  0
 13 12  1  0
 14 12  1  0
 15 12  1  0
 16 18  1  0
 16 17  2  0
  1 19  1  0
  7 20  1  0
 10 21  1  0
 10 22  1  0
 18 23  1  0
M  ISO  2  19  14  23   3
M  END
>  <minimizedAffinity>  (1) 
-4.99924898

>  <minimizedRMSD>  (1) 
2.32257509

$$$$
