
     RDKit          3D

 27 27  0  0  0  0  0  0  0  0999 V2000
   39.6100   23.5210   35.6420 C   0  0  0  0  0  0  0  0  0  0  0  0
   40.9120   23.0390   35.5870 C   0  0  0  0  0  0  0  0  0  0  0  0
   41.9010   23.9260   35.1150 C   0  0  0  0  0  0  0  0  0  0  0  0
   41.5500   25.1680   34.7500 N   0  0  0  0  0  0  0  0  0  0  0  0
   40.2820   25.6030   34.8160 C   0  0  0  0  0  0  0  0  0  0  0  0
   39.3320   24.7930   35.2530 N   0  0  0  0  0  0  0  0  0  0  0  0
   43.2840   23.5050   35.0210 N   0  0  0  0  0  0  0  0  0  0  0  0
   44.1970   23.9260   36.0060 C   0  0  0  0  0  0  0  0  0  0  0  0
   43.9880   24.9820   36.7130 N   0  0  0  0  0  0  0  0  0  0  0  0
   45.3710   23.1190   36.1800 N   0  0  0  0  0  0  0  0  0  0  0  0
   44.6230   25.3430   37.4480 H   0  0  0  0  0  0  0  0  0  0  0  0
   41.3040   21.7290   35.9740 N   0  0  0  0  0  0  0  0  0  0  0  0
   41.4310   21.2720   37.2940 C   0  0  0  0  0  0  0  0  0  0  0  0
   40.5690   21.6780   38.1300 N   0  0  0  0  0  0  0  0  0  0  0  0
   42.4610   20.3970   37.7030 N   0  0  0  0  0  0  0  0  0  0  0  0
   40.5230   21.4340   39.1400 H   0  0  0  0  0  0  0  0  0  0  0  0
   39.9390   27.0010   34.3990 C   0  0  0  0  0  0  0  0  0  0  0  0
   41.1390   27.6510   34.1570 F   0  0  0  0  0  0  0  0  0  0  0  0
   39.1650   27.0140   33.2740 F   0  0  0  0  0  0  0  0  0  0  0  0
   39.2580   27.6580   35.4270 F   0  0  0  0  0  0  0  0  0  0  0  0
   38.8001   22.8696   36.0023 H   0  0  0  0  0  0  0  0  0  0  0  0
   43.5951   22.9054   34.2435 H   0  0  0  0  0  0  0  0  0  0  0  0
   46.0743   23.3786   36.8863 H   0  0  0  0  0  0  0  0  0  0  0  0
   45.5102   22.2803   35.5986 H   0  0  0  0  0  0  0  0  0  0  0  0
   41.5126   21.0579   35.2210 H   0  0  0  0  0  0  0  0  0  0  0  0
   42.5146   20.0876   38.6840 H   0  0  0  0  0  0  0  0  0  0  0  0
   43.1587   20.0682   37.0204 H   0  0  0  0  0  0  0  0  0  0  0  0
  2  1  2  0
  2 12  1  0
  3  2  1  0
  4  5  1  0
  4  3  2  0
  5  6  2  0
  6  1  1  0
  7  3  1  0
  7  8  1  0
  8 10  1  0
  8  9  2  0
  9 11  1  0
 12 13  1  0
 13 15  1  0
 13 14  2  0
 14 16  1  0
 17  5  1  0
 17 20  1  0
 18 17  1  0
 19 17  1  0
  1 21  1  0
  7 22  1  0
 10 23  1  0
 10 24  1  0
 12 25  1  0
 15 26  1  0
 15 27  1  0
M  ISO  1  21  14
M  END
>  <minimizedAffinity>  (1) 
-4.70836926

>  <minimizedRMSD>  (1) 
3.3289535

$$$$
