
     RDKit          3D

 23 23  0  0  0  0  0  0  0  0999 V2000
   37.9600   25.1060   36.9820 C   0  0  0  0  0  0  0  0  0  0  0  0
   38.4960   23.8860   37.3850 C   0  0  0  0  0  0  0  0  0  0  0  0
   39.3090   23.1900   36.4670 C   0  0  0  0  0  0  0  0  0  0  0  0
   39.5320   23.7260   35.2500 N   0  0  0  0  0  0  0  0  0  0  0  0
   38.9930   24.9110   34.8990 C   0  0  0  0  0  0  0  0  0  0  0  0
   38.2190   25.5970   35.7430 N   0  0  0  0  0  0  0  0  0  0  0  0
   39.8930   21.9260   36.8200 N   0  0  0  0  0  0  0  0  0  0  0  0
   41.2760   21.8840   37.1690 C   0  0  0  0  0  0  0  0  0  0  0  0
   42.0980   22.7920   36.7830 N   0  0  0  0  0  0  0  0  0  0  0  0
   41.7100   20.7840   37.9720 N   0  0  0  0  0  0  0  0  0  0  0  0
   43.1110   22.8180   36.9900 H   0  0  0  0  0  0  0  0  0  0  0  0
   39.2630   25.4780   33.5340 C   0  0  0  0  0  0  0  0  0  0  0  0
   39.2860   26.8430   33.6550 F   0  0  0  0  0  0  0  0  0  0  0  0
   40.4550   25.0190   33.0350 F   0  0  0  0  0  0  0  0  0  0  0  0
   38.2550   25.1110   32.6390 F   0  0  0  0  0  0  0  0  0  0  0  0
   38.2310   23.3270   38.7300 C   0  0  0  0  0  0  0  0  0  0  0  0
   37.3217   25.6765   37.6727 H   0  0  0  0  0  0  0  0  0  0  0  0
   39.3247   21.0669   36.8212 H   0  0  0  0  0  0  0  0  0  0  0  0
   42.6987   20.7083   38.2507 H   0  0  0  0  0  0  0  0  0  0  0  0
   41.0340   20.0671   38.2720 H   0  0  0  0  0  0  0  0  0  0  0  0
   38.5690   24.0399   39.4965 H   0  0  0  0  0  0  0  0  0  0  0  0
   37.1520   23.1476   38.8464 H   0  0  0  0  0  0  0  0  0  0  0  0
   38.7751   22.3781   38.8464 H   0  0  0  0  0  0  0  0  0  0  0  0
  1  2  2  0
  2 16  1  0
  3  7  1  0
  3  2  1  0
  4  3  2  0
  5  4  1  0
  5  6  2  0
  6  1  1  0
  7  8  1  0
  8 10  1  0
  9 11  1  0
  9  8  2  0
 12 13  1  0
 12  5  1  0
 14 12  1  0
 15 12  1  0
  1 17  1  0
  7 18  1  0
 10 19  1  0
 10 20  1  0
 16 21  1  0
 16 22  1  0
 16 23  1  0
M  ISO  4  17  14  21   8  22   8  23   8
M  END
>  <minimizedAffinity>  (1) 
-4.44928789

>  <minimizedRMSD>  (1) 
1.60256839

$$$$
