
     RDKit          3D

 22 22  0  0  0  0  0  0  0  0999 V2000
   37.7820   25.1030   36.3000 C   0  0  0  0  0  0  0  0  0  0  0  0
   38.3580   24.0280   36.9720 C   0  0  0  0  0  0  0  0  0  0  0  0
   38.9380   23.0140   36.2090 C   0  0  0  0  0  0  0  0  0  0  0  0
   38.9270   23.0980   34.8600 N   0  0  0  0  0  0  0  0  0  0  0  0
   38.3560   24.1610   34.2380 C   0  0  0  0  0  0  0  0  0  0  0  0
   37.7950   25.1440   34.9420 N   0  0  0  0  0  0  0  0  0  0  0  0
   39.5570   21.8660   36.8270 N   0  0  0  0  0  0  0  0  0  0  0  0
   40.9670   21.8090   36.9130 C   0  0  0  0  0  0  0  0  0  0  0  0
   41.7290   22.4770   36.1100 N   0  0  0  0  0  0  0  0  0  0  0  0
   41.5180   20.9730   37.9330 N   0  0  0  0  0  0  0  0  0  0  0  0
   42.7660   22.4660   36.1140 H   0  0  0  0  0  0  0  0  0  0  0  0
   38.3550   24.2350   32.7380 C   0  0  0  0  0  0  0  0  0  0  0  0
   38.6490   25.5250   32.3940 F   0  0  0  0  0  0  0  0  0  0  0  0
   39.2710   23.3770   32.1950 F   0  0  0  0  0  0  0  0  0  0  0  0
   37.0920   23.8880   32.2380 F   0  0  0  0  0  0  0  0  0  0  0  0
   38.3880   23.9060   38.4240 C   0  0  0  0  0  0  0  0  0  0  0  0
   38.0330   24.8890   39.0840 O   0  0  0  0  0  0  0  0  0  0  0  0
   37.3157   25.9204   36.8696 H   0  0  0  0  0  0  0  0  0  0  0  0
   38.9796   21.0990   37.2002 H   0  0  0  0  0  0  0  0  0  0  0  0
   42.5396   20.8955   38.0393 H   0  0  0  0  0  0  0  0  0  0  0  0
   40.8935   20.4481   38.5618 H   0  0  0  0  0  0  0  0  0  0  0  0
   38.7136   22.9761   38.9131 H   0  0  0  0  0  0  0  0  0  0  0  0
  1  2  2  0
  2 16  1  0
  3  7  1  0
  3  2  1  0
  4  3  2  0
  5  4  1  0
  5  6  2  0
  6  1  1  0
  7  8  1  0
  8 10  1  0
  9 11  1  0
  9  8  2  0
 12  5  1  0
 13 12  1  0
 14 12  1  0
 15 12  1  0
 16 17  2  0
  1 18  1  0
  7 19  1  0
 10 20  1  0
 10 21  1  0
 16 22  1  0
M  ISO  2  18  14  22   6
M  END
>  <minimizedAffinity>  (1) 
-4.441113

>  <minimizedRMSD>  (1) 
2.33664918

$$$$
