
     RDKit          3D

 30 31  0  0  0  0  0  0  0  0999 V2000
   39.2910   24.2490   36.0640 C   0  0  0  0  0  0  0  0  0  0  0  0
   40.4500   24.1930   35.2630 C   0  0  0  0  0  0  0  0  0  0  0  0
   40.6290   25.2020   34.3070 C   0  0  0  0  0  0  0  0  0  0  0  0
   39.7000   26.1760   34.1910 N   0  0  0  0  0  0  0  0  0  0  0  0
   38.5990   26.1880   34.9880 C   0  0  0  0  0  0  0  0  0  0  0  0
   38.3980   25.2520   35.9000 N   0  0  0  0  0  0  0  0  0  0  0  0
   41.7810   25.2120   33.4560 N   0  0  0  0  0  0  0  0  0  0  0  0
   42.8470   26.1120   33.7460 C   0  0  0  0  0  0  0  0  0  0  0  0
   42.6540   27.1870   34.4310 N   0  0  0  0  0  0  0  0  0  0  0  0
   44.1310   25.7520   33.2360 N   0  0  0  0  0  0  0  0  0  0  0  0
   43.3860   27.8650   34.6940 H   0  0  0  0  0  0  0  0  0  0  0  0
   41.4100   23.1540   35.4080 N   0  0  0  0  0  0  0  0  0  0  0  0
   42.4360   23.3940   36.2730 C   0  0  0  0  0  0  0  0  0  0  0  0
   43.4110   22.4130   36.4590 C   0  0  0  0  0  0  0  0  0  0  0  0
   43.3070   21.2100   35.7520 C   0  0  0  0  0  0  0  0  0  0  0  0
   44.1270   20.2610   35.8440 O   0  0  0  0  0  0  0  0  0  0  0  0
   42.2790   21.0090   34.9060 N   0  0  0  0  0  0  0  0  0  0  0  0
   41.3480   21.9750   34.7440 C   0  0  0  0  0  0  0  0  0  0  0  0
   40.3500   21.8960   33.9830 O   0  0  0  0  0  0  0  0  0  0  0  0
   37.5890   27.2870   34.8290 C   0  0  0  0  0  0  0  0  0  0  0  0
   37.9030   28.2700   35.7450 F   0  0  0  0  0  0  0  0  0  0  0  0
   37.6230   27.8290   33.5710 F   0  0  0  0  0  0  0  0  0  0  0  0
   36.3060   26.8100   35.0840 F   0  0  0  0  0  0  0  0  0  0  0  0
   39.1123   23.4747   36.8247 H   0  0  0  0  0  0  0  0  0  0  0  0
   41.8381   24.5780   32.6463 H   0  0  0  0  0  0  0  0  0  0  0  0
   44.9436   26.3603   33.4108 H   0  0  0  0  0  0  0  0  0  0  0  0
   44.2447   24.8840   32.6933 H   0  0  0  0  0  0  0  0  0  0  0  0
   42.4946   24.3482   36.8171 H   0  0  0  0  0  0  0  0  0  0  0  0
   44.2489   22.5830   37.1512 H   0  0  0  0  0  0  0  0  0  0  0  0
   42.2026   20.1237   34.3851 H   0  0  0  0  0  0  0  0  0  0  0  0
  2 12  1  0
  2  1  2  0
  3  2  1  0
  4  3  2  0
  4  5  1  0
  5  6  2  0
  6  1  1  0
  7  8  1  0
  7  3  1  0
  8  9  2  0
  9 11  1  0
 10  8  1  0
 12 13  1  0
 13 14  2  0
 15 16  2  0
 15 14  1  0
 17 15  1  0
 18 17  1  0
 18 12  1  0
 19 18  2  0
 20  5  1  0
 20 23  1  0
 20 21  1  0
 22 20  1  0
  1 24  1  0
  7 25  1  0
 10 26  1  0
 10 27  1  0
 13 28  1  0
 14 29  1  0
 17 30  1  0
M  ISO  4  24  14  28  14  29  14  30   9
M  END
>  <minimizedAffinity>  (1) 
-4.39723063

>  <minimizedRMSD>  (1) 
4.99460506

$$$$
