
     RDKit          3D

 27 28  0  0  0  0  0  0  0  0999 V2000
   38.3100   24.0860   36.0090 C   0  0  0  0  0  0  0  0  0  0  0  0
   39.6210   23.8510   35.6030 C   0  0  0  0  0  0  0  0  0  0  0  0
   40.1440   24.6240   34.5650 C   0  0  0  0  0  0  0  0  0  0  0  0
   39.3530   25.5670   34.0000 N   0  0  0  0  0  0  0  0  0  0  0  0
   38.0910   25.7800   34.4050 C   0  0  0  0  0  0  0  0  0  0  0  0
   37.5710   25.0510   35.3980 N   0  0  0  0  0  0  0  0  0  0  0  0
   41.4850   24.4450   34.0870 N   0  0  0  0  0  0  0  0  0  0  0  0
   42.4840   25.3580   34.4810 C   0  0  0  0  0  0  0  0  0  0  0  0
   42.1880   26.5590   34.8750 N   0  0  0  0  0  0  0  0  0  0  0  0
   43.8330   24.8900   34.4210 N   0  0  0  0  0  0  0  0  0  0  0  0
   42.8860   27.2750   35.1550 H   0  0  0  0  0  0  0  0  0  0  0  0
   40.4570   22.8320   36.2220 C   0  0  0  0  0  0  0  0  0  0  0  0
   40.6220   22.6190   37.5740 C   0  0  0  0  0  0  0  0  0  0  0  0
   41.5140   21.5400   37.5840 C   0  0  0  0  0  0  0  0  0  0  0  0
   41.8480   21.1470   36.3300 N   0  0  0  0  0  0  0  0  0  0  0  0
   41.1860   21.9570   35.5060 N   0  0  0  0  0  0  0  0  0  0  0  0
   37.2500   26.8350   33.7530 C   0  0  0  0  0  0  0  0  0  0  0  0
   36.4920   27.4130   34.7600 F   0  0  0  0  0  0  0  0  0  0  0  0
   38.0150   27.7820   33.1450 F   0  0  0  0  0  0  0  0  0  0  0  0
   36.3920   26.2720   32.8120 F   0  0  0  0  0  0  0  0  0  0  0  0
   37.8718   23.4912   36.8240 H   0  0  0  0  0  0  0  0  0  0  0  0
   41.7150   23.6584   33.4631 H   0  0  0  0  0  0  0  0  0  0  0  0
   44.6066   25.5118   34.6964 H   0  0  0  0  0  0  0  0  0  0  0  0
   44.0317   23.9309   34.1023 H   0  0  0  0  0  0  0  0  0  0  0  0
   40.1713   23.1557   38.4219 H   0  0  0  0  0  0  0  0  0  0  0  0
   41.8981   21.0674   38.5000 H   0  0  0  0  0  0  0  0  0  0  0  0
   42.4833   20.3796   36.0685 H   0  0  0  0  0  0  0  0  0  0  0  0
  2  1  2  0
  2 12  1  0
  3  2  1  0
  4  5  1  0
  4  3  2  0
  5  6  2  0
  6  1  1  0
  7  8  1  0
  7  3  1  0
  8  9  2  0
  9 11  1  0
 10  8  1  0
 12 13  1  0
 13 14  2  0
 15 14  1  0
 16 12  2  0
 16 15  1  0
 17  5  1  0
 17 18  1  0
 19 17  1  0
 20 17  1  0
  1 21  1  0
  7 22  1  0
 10 23  1  0
 10 24  1  0
 13 25  1  0
 14 26  1  0
 15 27  1  0
M  ISO  4  21  14  25  14  26  14  27   9
M  END
>  <minimizedAffinity>  (1) 
-4.34770203

>  <minimizedRMSD>  (1) 
3.74316859

$$$$
