
     RDKit          3D

 36 38  0  0  0  0  0  0  0  0999 V2000
   38.0190   24.8710   35.7680 C   0  0  0  0  0  0  0  0  0  0  0  0
   39.3330   24.5240   35.4560 C   0  0  0  0  0  0  0  0  0  0  0  0
   39.9590   25.1470   34.3840 C   0  0  0  0  0  0  0  0  0  0  0  0
   39.2640   26.0780   33.6760 N   0  0  0  0  0  0  0  0  0  0  0  0
   37.9850   26.3920   34.0090 C   0  0  0  0  0  0  0  0  0  0  0  0
   37.3710   25.8090   35.0260 N   0  0  0  0  0  0  0  0  0  0  0  0
   41.2980   24.8400   34.0120 N   0  0  0  0  0  0  0  0  0  0  0  0
   42.3420   25.7260   34.3620 C   0  0  0  0  0  0  0  0  0  0  0  0
   42.1150   26.9720   34.5970 N   0  0  0  0  0  0  0  0  0  0  0  0
   43.6590   25.1840   34.4420 N   0  0  0  0  0  0  0  0  0  0  0  0
   42.8180   27.6780   34.8830 H   0  0  0  0  0  0  0  0  0  0  0  0
   40.0240   23.5420   36.2250 N   0  0  0  0  0  0  0  0  0  0  0  0
   39.6470   23.0380   37.4050 C   0  0  0  0  0  0  0  0  0  0  0  0
   40.5350   22.1280   37.8520 N   0  0  0  0  0  0  0  0  0  0  0  0
   41.5000   22.0720   36.9090 C   0  0  0  0  0  0  0  0  0  0  0  0
   41.1570   22.9540   35.9170 N   0  0  0  0  0  0  0  0  0  0  0  0
   42.7650   21.3570   36.6530 C   0  0  0  0  0  0  0  0  0  0  0  0
   43.8320   21.9270   35.9680 C   0  0  0  0  0  0  0  0  0  0  0  0
   44.9820   21.1610   35.7820 C   0  0  0  0  0  0  0  0  0  0  0  0
   45.0240   19.8770   36.2790 C   0  0  0  0  0  0  0  0  0  0  0  0
   43.9690   19.3070   36.9600 C   0  0  0  0  0  0  0  0  0  0  0  0
   42.8180   20.0660   37.1480 C   0  0  0  0  0  0  0  0  0  0  0  0
   37.2560   27.4320   33.1920 C   0  0  0  0  0  0  0  0  0  0  0  0
   36.7520   28.3510   34.0730 F   0  0  0  0  0  0  0  0  0  0  0  0
   38.0800   28.0300   32.2810 F   0  0  0  0  0  0  0  0  0  0  0  0
   36.1940   26.8280   32.4820 F   0  0  0  0  0  0  0  0  0  0  0  0
   37.5072   24.3870   36.6129 H   0  0  0  0  0  0  0  0  0  0  0  0
   41.5052   23.9764   33.4903 H   0  0  0  0  0  0  0  0  0  0  0  0
   44.4516   25.7918   34.6936 H   0  0  0  0  0  0  0  0  0  0  0  0
   43.8174   24.1849   34.2482 H   0  0  0  0  0  0  0  0  0  0  0  0
   38.7313   23.3284   37.9410 H   0  0  0  0  0  0  0  0  0  0  0  0
   43.7706   22.9555   35.5828 H   0  0  0  0  0  0  0  0  0  0  0  0
   45.8464   21.5775   35.2442 H   0  0  0  0  0  0  0  0  0  0  0  0
   45.9365   19.2819   36.1264 H   0  0  0  0  0  0  0  0  0  0  0  0
   44.0356   18.2786   37.3447 H   0  0  0  0  0  0  0  0  0  0  0  0
   41.9569   19.6429   37.6860 H   0  0  0  0  0  0  0  0  0  0  0  0
  2  1  2  0
  2 12  1  0
  3  2  1  0
  4  5  1  0
  4  3  2  0
  5  6  2  0
  6  1  1  0
  7  8  1  0
  7  3  1  0
  8 10  1  0
  8  9  2  0
  9 11  1  0
 12 13  1  0
 13 14  2  0
 15 14  1  0
 16 12  1  0
 16 15  2  0
 17 15  1  0
 17 22  1  0
 18 17  2  0
 19 18  1  0
 19 20  2  0
 20 21  1  0
 21 22  2  0
 23  5  1  0
 23 24  1  0
 25 23  1  0
 26 23  1  0
  1 27  1  0
  7 28  1  0
 10 29  1  0
 10 30  1  0
 13 31  1  0
 18 32  1  0
 19 33  1  0
 20 34  1  0
 21 35  1  0
 22 36  1  0
M  ISO  7  27  14  31  14  32  14  33  14  34  14  35  14  36  14
M  END
>  <minimizedAffinity>  (1) 
-5.48372984

>  <minimizedRMSD>  (1) 
1.12506199

$$$$
