
     RDKit          3D

 36 38  0  0  0  0  0  0  0  0999 V2000
   38.1040   24.7020   35.8280 C   0  0  0  0  0  0  0  0  0  0  0  0
   39.4190   24.3950   35.4710 C   0  0  0  0  0  0  0  0  0  0  0  0
   39.9860   25.0760   34.4020 C   0  0  0  0  0  0  0  0  0  0  0  0
   39.2560   26.0110   33.7390 N   0  0  0  0  0  0  0  0  0  0  0  0
   37.9840   26.2860   34.1090 C   0  0  0  0  0  0  0  0  0  0  0  0
   37.4210   25.6510   35.1250 N   0  0  0  0  0  0  0  0  0  0  0  0
   41.3360   24.8180   33.9700 N   0  0  0  0  0  0  0  0  0  0  0  0
   42.3690   25.7170   34.3260 C   0  0  0  0  0  0  0  0  0  0  0  0
   42.1110   26.9580   34.6170 N   0  0  0  0  0  0  0  0  0  0  0  0
   43.6970   25.2210   34.3540 N   0  0  0  0  0  0  0  0  0  0  0  0
   42.7980   27.6730   34.8890 H   0  0  0  0  0  0  0  0  0  0  0  0
   40.1530   23.4190   36.1760 N   0  0  0  0  0  0  0  0  0  0  0  0
   39.8340   22.8810   37.3600 C   0  0  0  0  0  0  0  0  0  0  0  0
   40.7650   21.9750   37.7430 N   0  0  0  0  0  0  0  0  0  0  0  0
   41.6820   21.9580   36.7600 C   0  0  0  0  0  0  0  0  0  0  0  0
   41.2720   22.8530   35.8230 N   0  0  0  0  0  0  0  0  0  0  0  0
   42.9240   21.1740   36.6100 C   0  0  0  0  0  0  0  0  0  0  0  0
   42.9010   19.9100   37.1630 C   0  0  0  0  0  0  0  0  0  0  0  0
   44.0650   19.1490   37.0330 C   0  0  0  0  0  0  0  0  0  0  0  0
   45.1400   19.7150   36.3670 C   0  0  0  0  0  0  0  0  0  0  0  0
   45.1210   20.9850   35.8280 C   0  0  0  0  0  0  0  0  0  0  0  0
   43.9770   21.7620   35.9440 C   0  0  0  0  0  0  0  0  0  0  0  0
   37.2060   27.3260   33.3530 C   0  0  0  0  0  0  0  0  0  0  0  0
   36.6370   28.1560   34.2770 F   0  0  0  0  0  0  0  0  0  0  0  0
   37.9970   28.0210   32.4940 F   0  0  0  0  0  0  0  0  0  0  0  0
   36.1950   26.7090   32.5880 F   0  0  0  0  0  0  0  0  0  0  0  0
   37.6227   24.1825   36.6697 H   0  0  0  0  0  0  0  0  0  0  0  0
   41.5481   23.9834   33.4049 H   0  0  0  0  0  0  0  0  0  0  0  0
   44.4750   25.8462   34.6086 H   0  0  0  0  0  0  0  0  0  0  0  0
   43.8837   24.2355   34.1197 H   0  0  0  0  0  0  0  0  0  0  0  0
   38.9375   23.1398   37.9425 H   0  0  0  0  0  0  0  0  0  0  0  0
   42.0112   19.5214   37.6800 H   0  0  0  0  0  0  0  0  0  0  0  0
   44.1263   18.1316   37.4467 H   0  0  0  0  0  0  0  0  0  0  0  0
   46.0588   19.1194   36.2622 H   0  0  0  0  0  0  0  0  0  0  0  0
   46.0074   21.3793   35.3094 H   0  0  0  0  0  0  0  0  0  0  0  0
   43.9151   22.7799   35.5315 H   0  0  0  0  0  0  0  0  0  0  0  0
  2  1  2  0
  2 12  1  0
  3  2  1  0
  4  5  1  0
  4  3  2  0
  5  6  2  0
  6  1  1  0
  7  8  1  0
  7  3  1  0
  8 10  1  0
  8  9  2  0
  9 11  1  0
 12 13  1  0
 13 14  2  0
 15 14  1  0
 16 12  1  0
 16 15  2  0
 17 15  1  0
 17 18  2  0
 19 18  1  0
 20 19  2  0
 21 22  2  0
 21 20  1  0
 22 17  1  0
 23  5  1  0
 23 24  1  0
 25 23  1  0
 26 23  1  0
  1 27  1  0
  7 28  1  0
 10 29  1  0
 10 30  1  0
 13 31  1  0
 18 32  1  0
 19 33  1  0
 20 34  1  0
 21 35  1  0
 22 36  1  0
M  ISO  7  27  14  31  14  32  14  33  14  34  14  35  14  36  14
M  END
>  <minimizedAffinity>  (1) 
-5.4690876

>  <minimizedRMSD>  (1) 
0.982623696

$$$$
