
     RDKit          3D

 36 38  0  0  0  0  0  0  0  0999 V2000
   38.4460   24.1830   36.0310 C   0  0  0  0  0  0  0  0  0  0  0  0
   39.7540   23.9930   35.6030 C   0  0  0  0  0  0  0  0  0  0  0  0
   40.2280   24.7530   34.5260 C   0  0  0  0  0  0  0  0  0  0  0  0
   39.3990   25.6440   33.9390 N   0  0  0  0  0  0  0  0  0  0  0  0
   38.1230   25.8030   34.3860 C   0  0  0  0  0  0  0  0  0  0  0  0
   37.6600   25.1000   35.3950 N   0  0  0  0  0  0  0  0  0  0  0  0
   41.5600   24.6010   34.0440 N   0  0  0  0  0  0  0  0  0  0  0  0
   42.5430   25.5720   34.3830 C   0  0  0  0  0  0  0  0  0  0  0  0
   42.2110   26.7740   34.7240 N   0  0  0  0  0  0  0  0  0  0  0  0
   43.9020   25.1950   34.3380 N   0  0  0  0  0  0  0  0  0  0  0  0
   42.8540   27.5340   35.0110 H   0  0  0  0  0  0  0  0  0  0  0  0
   40.6060   23.0450   36.2410 N   0  0  0  0  0  0  0  0  0  0  0  0
   40.3550   22.4290   37.4130 C   0  0  0  0  0  0  0  0  0  0  0  0
   41.3550   21.5940   37.7400 N   0  0  0  0  0  0  0  0  0  0  0  0
   42.2580   21.7020   36.7270 C   0  0  0  0  0  0  0  0  0  0  0  0
   41.7590   22.6090   35.8200 N   0  0  0  0  0  0  0  0  0  0  0  0
   43.5230   21.1160   36.4290 N   0  0  0  0  0  0  0  0  0  0  0  0
   44.4190   21.9450   35.8590 C   0  0  0  0  0  0  0  0  0  0  0  0
   45.6720   21.4010   35.5520 C   0  0  0  0  0  0  0  0  0  0  0  0
   45.8980   20.0740   35.8510 C   0  0  0  0  0  0  0  0  0  0  0  0
   47.0410   19.5890   35.5680 O   0  0  0  0  0  0  0  0  0  0  0  0
   45.0000   19.2510   36.4200 N   0  0  0  0  0  0  0  0  0  0  0  0
   43.8100   19.8150   36.6970 C   0  0  0  0  0  0  0  0  0  0  0  0
   42.8760   19.1690   37.2280 O   0  0  0  0  0  0  0  0  0  0  0  0
   37.2350   26.8060   33.7040 C   0  0  0  0  0  0  0  0  0  0  0  0
   36.4820   27.4160   34.6770 F   0  0  0  0  0  0  0  0  0  0  0  0
   37.9570   27.7500   33.0230 F   0  0  0  0  0  0  0  0  0  0  0  0
   36.3880   26.1760   32.7900 F   0  0  0  0  0  0  0  0  0  0  0  0
   38.0476   23.6000   36.8744 H   0  0  0  0  0  0  0  0  0  0  0  0
   41.8095   23.7941   33.4545 H   0  0  0  0  0  0  0  0  0  0  0  0
   44.6342   25.8783   34.5786 H   0  0  0  0  0  0  0  0  0  0  0  0
   44.1618   24.2365   34.0646 H   0  0  0  0  0  0  0  0  0  0  0  0
   39.4520   22.5886   38.0206 H   0  0  0  0  0  0  0  0  0  0  0  0
   44.1781   22.9968   35.6454 H   0  0  0  0  0  0  0  0  0  0  0  0
   46.4553   22.0158   35.0847 H   0  0  0  0  0  0  0  0  0  0  0  0
   45.2071   18.2637   36.6281 H   0  0  0  0  0  0  0  0  0  0  0  0
  2  1  2  0
  2 12  1  0
  3  2  1  0
  4  5  1  0
  4  3  2  0
  5  6  2  0
  6  1  1  0
  7  8  1  0
  7  3  1  0
  8  9  2  0
  9 11  1  0
 10  8  1  0
 12 13  1  0
 13 14  2  0
 15 14  1  0
 16 12  1  0
 16 15  2  0
 17 23  1  0
 17 15  1  0
 18 17  1  0
 19 20  1  0
 19 18  2  0
 20 22  1  0
 21 20  2  0
 22 23  1  0
 23 24  2  0
 25  5  1  0
 25 26  1  0
 27 25  1  0
 28 25  1  0
  1 29  1  0
  7 30  1  0
 10 31  1  0
 10 32  1  0
 13 33  1  0
 18 34  1  0
 19 35  1  0
 22 36  1  0
M  ISO  5  29  14  33  14  34  14  35  14  36   9
M  END
>  <minimizedAffinity>  (1) 
-5.28676176

>  <minimizedRMSD>  (1) 
1.01068652

$$$$
