
     RDKit          3D

 39 41  0  0  0  0  0  0  0  0999 V2000
   37.9280   25.1420   35.8540 C   0  0  0  0  0  0  0  0  0  0  0  0
   39.1990   24.7330   35.4470 C   0  0  0  0  0  0  0  0  0  0  0  0
   39.7430   25.3170   34.3170 C   0  0  0  0  0  0  0  0  0  0  0  0
   39.0440   26.2550   33.6430 N   0  0  0  0  0  0  0  0  0  0  0  0
   37.8060   26.6280   34.0700 C   0  0  0  0  0  0  0  0  0  0  0  0
   37.2590   26.0880   35.1490 N   0  0  0  0  0  0  0  0  0  0  0  0
   41.0470   24.9480   33.8340 N   0  0  0  0  0  0  0  0  0  0  0  0
   42.1430   25.8090   34.0820 C   0  0  0  0  0  0  0  0  0  0  0  0
   41.9880   27.0710   34.3250 N   0  0  0  0  0  0  0  0  0  0  0  0
   43.4450   25.2270   34.0530 N   0  0  0  0  0  0  0  0  0  0  0  0
   42.7360   27.7530   34.5190 H   0  0  0  0  0  0  0  0  0  0  0  0
   39.9140   23.7450   36.1720 N   0  0  0  0  0  0  0  0  0  0  0  0
   39.4510   23.0470   37.2250 C   0  0  0  0  0  0  0  0  0  0  0  0
   40.3870   22.1880   37.6820 N   0  0  0  0  0  0  0  0  0  0  0  0
   41.4570   22.3760   36.8710 C   0  0  0  0  0  0  0  0  0  0  0  0
   41.1450   23.3290   35.9590 N   0  0  0  0  0  0  0  0  0  0  0  0
   42.7640   21.7210   36.8880 C   0  0  0  0  0  0  0  0  0  0  0  0
   42.6180   20.2020   36.7300 C   0  0  0  0  0  0  0  0  0  0  0  0
   44.1100   19.8430   36.7030 C   0  0  0  0  0  0  0  0  0  0  0  0
   44.6470   20.8710   35.7310 C   0  0  0  0  0  0  0  0  0  0  0  0
   43.6580   22.0360   35.7340 C   0  0  0  0  0  0  0  0  0  0  0  0
   37.0420   27.6790   33.3030 C   0  0  0  0  0  0  0  0  0  0  0  0
   36.5950   28.6010   34.1970 F   0  0  0  0  0  0  0  0  0  0  0  0
   37.8280   28.2730   32.3580 F   0  0  0  0  0  0  0  0  0  0  0  0
   35.9490   27.0890   32.6400 F   0  0  0  0  0  0  0  0  0  0  0  0
   37.4681   24.6962   36.7483 H   0  0  0  0  0  0  0  0  0  0  0  0
   41.1814   24.0688   33.3145 H   0  0  0  0  0  0  0  0  0  0  0  0
   44.2746   25.8120   34.2273 H   0  0  0  0  0  0  0  0  0  0  0  0
   43.5555   24.2217   33.8578 H   0  0  0  0  0  0  0  0  0  0  0  0
   38.4452   23.1609   37.6556 H   0  0  0  0  0  0  0  0  0  0  0  0
   43.1833   22.0766   37.8408 H   0  0  0  0  0  0  0  0  0  0  0  0
   42.0949   19.7433   37.5820 H   0  0  0  0  0  0  0  0  0  0  0  0
   42.0250   19.8621   35.8681 H   0  0  0  0  0  0  0  0  0  0  0  0
   44.5680   19.9516   37.6972 H   0  0  0  0  0  0  0  0  0  0  0  0
   44.3168   18.8015   36.4157 H   0  0  0  0  0  0  0  0  0  0  0  0
   44.7195   20.4378   34.7225 H   0  0  0  0  0  0  0  0  0  0  0  0
   45.6532   21.2051   36.0239 H   0  0  0  0  0  0  0  0  0  0  0  0
   44.1770   22.9937   35.8869 H   0  0  0  0  0  0  0  0  0  0  0  0
   43.1145   22.1432   34.7837 H   0  0  0  0  0  0  0  0  0  0  0  0
  2  1  2  0
  2 12  1  0
  3  2  1  0
  4  5  1  0
  4  3  2  0
  5  6  2  0
  6  1  1  0
  7  8  1  0
  7  3  1  0
  8  9  2  0
  9 11  1  0
 10  8  1  0
 12 13  1  0
 13 14  2  0
 15 17  1  0
 15 14  1  0
 16 12  1  0
 16 15  2  0
 18 17  1  0
 19 18  1  0
 20 21  1  0
 20 19  1  0
 21 17  1  0
 22  5  1  0
 22 23  1  0
 24 22  1  0
 25 22  1  0
  1 26  1  0
  7 27  1  0
 10 28  1  0
 10 29  1  0
 13 30  1  0
 17 31  1  0
 18 32  1  0
 18 33  1  0
 19 34  1  0
 19 35  1  0
 20 36  1  0
 20 37  1  0
 21 38  1  0
 21 39  1  0
M  ISO  8  26  14  30  14  31  13  32  13  33  13  34  13  35  13  36  13
M  ISO  3  37  13  38  13  39  13
M  END
>  <minimizedAffinity>  (1) 
-5.17417955

>  <minimizedRMSD>  (1) 
1.29786611

$$$$
