
     RDKit          3D

 35 36  0  0  1  0  0  0  0  0999 V2000
   38.5160   26.5100   34.7450 C   0  0  2  0  0  0  0  0  0  0  0  0
   38.0670   22.9130   35.1790 C   0  0  0  0  0  0  0  0  0  0  0  0
   37.7880   22.7700   36.5720 C   0  0  0  0  0  0  0  0  0  0  0  0
   37.7660   23.9430   37.3420 C   0  0  0  0  0  0  0  0  0  0  0  0
   38.0140   25.1240   36.6980 N   0  0  0  0  0  0  0  0  0  0  0  0
   38.2730   25.2110   35.3760 C   0  0  0  0  0  0  0  0  0  0  0  0
   38.2960   24.1090   34.6400 N   0  0  0  0  0  0  0  0  0  0  0  0
   39.9580   26.9180   34.9960 C   0  0  0  0  0  0  0  0  0  0  0  0
   37.6540   27.6130   35.2300 C   0  0  0  0  0  0  0  0  0  0  0  0
   36.5110   28.0370   34.3860 C   0  0  0  0  0  0  0  0  0  0  0  0
   36.9440   27.9480   32.9090 C   0  0  0  0  0  0  0  0  0  0  0  0
   35.7150   27.9140   32.0170 C   0  0  0  0  0  0  0  0  0  0  0  0
   34.6750   28.9250   32.5170 C   0  0  0  0  0  0  0  0  0  0  0  0
   35.4800   29.9940   33.2230 C   0  0  0  0  0  0  0  0  0  0  0  0
   35.9990   29.4220   34.5580 C   0  0  0  0  0  0  0  0  0  0  0  0
   38.2838   26.3646   33.6797 H   0  0  0  0  0  0  0  0  0  0  0  0
   38.0933   22.0186   34.5392 H   0  0  0  0  0  0  0  0  0  0  0  0
   37.5987   21.7841   37.0216 H   0  0  0  0  0  0  0  0  0  0  0  0
   37.5574   23.9138   38.4216 H   0  0  0  0  0  0  0  0  0  0  0  0
   40.1411   26.9698   36.0794 H   0  0  0  0  0  0  0  0  0  0  0  0
   40.6329   26.1756   34.5451 H   0  0  0  0  0  0  0  0  0  0  0  0
   40.1439   27.9040   34.5451 H   0  0  0  0  0  0  0  0  0  0  0  0
   37.2431   27.3016   36.2017 H   0  0  0  0  0  0  0  0  0  0  0  0
   38.3187   28.4893   35.2456 H   0  0  0  0  0  0  0  0  0  0  0  0
   35.7001   27.3629   34.6991 H   0  0  0  0  0  0  0  0  0  0  0  0
   37.5568   28.8252   32.6540 H   0  0  0  0  0  0  0  0  0  0  0  0
   37.5311   27.0304   32.7559 H   0  0  0  0  0  0  0  0  0  0  0  0
   35.2794   26.9041   32.0355 H   0  0  0  0  0  0  0  0  0  0  0  0
   36.0076   28.1756   30.9894 H   0  0  0  0  0  0  0  0  0  0  0  0
   34.1164   29.3553   31.6727 H   0  0  0  0  0  0  0  0  0  0  0  0
   33.9313   28.4602   33.1810 H   0  0  0  0  0  0  0  0  0  0  0  0
   36.3306   30.2933   32.5930 H   0  0  0  0  0  0  0  0  0  0  0  0
   34.8484   30.8744   33.4130 H   0  0  0  0  0  0  0  0  0  0  0  0
   35.1765   29.4125   35.2883 H   0  0  0  0  0  0  0  0  0  0  0  0
   36.8243   30.0572   34.9120 H   0  0  0  0  0  0  0  0  0  0  0  0
  1  8  1  0
  1  9  1  0
  1  6  1  0
  2  3  2  0
  3  4  1  0
  5  4  2  0
  6  5  1  0
  7  2  1  0
  7  6  2  0
 10 15  1  0
 10  9  1  0
 11 10  1  0
 12 13  1  0
 12 11  1  0
 13 14  1  0
 14 15  1  0
  1 16  1  6
  2 17  1  0
  3 18  1  0
  4 19  1  0
  8 20  1  0
  8 21  1  0
  8 22  1  0
  9 23  1  0
  9 24  1  0
 10 25  1  0
 11 26  1  0
 11 27  1  0
 12 28  1  0
 12 29  1  0
 13 30  1  0
 13 31  1  0
 14 32  1  0
 14 33  1  0
 15 34  1  0
 15 35  1  0
M  ISO  8  16   8  17  14  18  14  19  14  20   8  21   8  22   8  23   8
M  ISO  8  24   8  25  13  26  13  27  13  28  13  29  13  30  13  31  13
M  ISO  4  32  13  33  13  34  13  35  13
M  END
>  <minimizedAffinity>  (1) 
-4.32794046

>  <minimizedRMSD>  (1) 
3.65264201

$$$$
