
     RDKit          3D

 38 40  0  0  0  0  0  0  0  0999 V2000
   38.3270   24.1290   35.9770 C   0  0  0  0  0  0  0  0  0  0  0  0
   39.6450   23.9100   35.5790 C   0  0  0  0  0  0  0  0  0  0  0  0
   40.1560   24.6820   34.5500 C   0  0  0  0  0  0  0  0  0  0  0  0
   39.3680   25.6140   33.9700 N   0  0  0  0  0  0  0  0  0  0  0  0
   38.0860   25.8000   34.3860 C   0  0  0  0  0  0  0  0  0  0  0  0
   37.5780   25.0780   35.3630 N   0  0  0  0  0  0  0  0  0  0  0  0
   41.5070   24.5140   34.0840 N   0  0  0  0  0  0  0  0  0  0  0  0
   42.4970   25.4360   34.4680 C   0  0  0  0  0  0  0  0  0  0  0  0
   42.1900   26.6400   34.8250 N   0  0  0  0  0  0  0  0  0  0  0  0
   43.8530   25.0180   34.4580 N   0  0  0  0  0  0  0  0  0  0  0  0
   42.8500   27.3790   35.1490 H   0  0  0  0  0  0  0  0  0  0  0  0
   40.4450   22.9240   36.2070 N   0  0  0  0  0  0  0  0  0  0  0  0
   40.3980   22.5820   37.5130 C   0  0  0  0  0  0  0  0  0  0  0  0
   41.3010   21.6000   37.7800 N   0  0  0  0  0  0  0  0  0  0  0  0
   41.9010   21.3500   36.6030 C   0  0  0  0  0  0  0  0  0  0  0  0
   41.3700   22.1630   35.6570 N   0  0  0  0  0  0  0  0  0  0  0  0
   42.9280   20.3890   36.3830 N   0  0  0  0  0  0  0  0  0  0  0  0
   43.9760   20.4920   35.3850 C   0  0  0  0  0  0  0  0  0  0  0  0
   45.2050   19.9930   36.1480 C   0  0  0  0  0  0  0  0  0  0  0  0
   44.6280   18.8240   36.9010 C   0  0  0  0  0  0  0  0  0  0  0  0
   43.1590   19.1490   37.0640 C   0  0  0  0  0  0  0  0  0  0  0  0
   37.2380   26.8490   33.7170 C   0  0  0  0  0  0  0  0  0  0  0  0
   36.5020   27.4620   34.6820 F   0  0  0  0  0  0  0  0  0  0  0  0
   38.0080   27.7580   33.0330 F   0  0  0  0  0  0  0  0  0  0  0  0
   36.3700   26.2410   32.7790 F   0  0  0  0  0  0  0  0  0  0  0  0
   37.8934   23.5302   36.7915 H   0  0  0  0  0  0  0  0  0  0  0  0
   41.7480   23.7216   33.4716 H   0  0  0  0  0  0  0  0  0  0  0  0
   44.5964   25.6748   34.7350 H   0  0  0  0  0  0  0  0  0  0  0  0
   44.0938   24.0577   34.1737 H   0  0  0  0  0  0  0  0  0  0  0  0
   39.7244   23.0339   38.2560 H   0  0  0  0  0  0  0  0  0  0  0  0
   44.1088   21.5323   35.0530 H   0  0  0  0  0  0  0  0  0  0  0  0
   43.7670   19.9229   34.4672 H   0  0  0  0  0  0  0  0  0  0  0  0
   46.0039   19.6756   35.4617 H   0  0  0  0  0  0  0  0  0  0  0  0
   45.6780   20.7526   36.7877 H   0  0  0  0  0  0  0  0  0  0  0  0
   44.7568   17.8937   36.3283 H   0  0  0  0  0  0  0  0  0  0  0  0
   45.1267   18.6697   37.8692 H   0  0  0  0  0  0  0  0  0  0  0  0
   42.9105   19.2514   38.1307 H   0  0  0  0  0  0  0  0  0  0  0  0
   42.5304   18.3483   36.6473 H   0  0  0  0  0  0  0  0  0  0  0  0
  2  1  2  0
  2 12  1  0
  3  2  1  0
  4  5  1  0
  4  3  2  0
  5  6  2  0
  6  1  1  0
  7  8  1  0
  7  3  1  0
  8  9  2  0
  9 11  1  0
 10  8  1  0
 12 13  1  0
 13 14  2  0
 15 14  1  0
 16 12  1  0
 16 15  2  0
 17 15  1  0
 17 21  1  0
 18 19  1  0
 18 17  1  0
 19 20  1  0
 20 21  1  0
 22  5  1  0
 22 23  1  0
 24 22  1  0
 25 22  1  0
  1 26  1  0
  7 27  1  0
 10 28  1  0
 10 29  1  0
 13 30  1  0
 18 31  1  0
 18 32  1  0
 19 33  1  0
 19 34  1  0
 20 35  1  0
 20 36  1  0
 21 37  1  0
 21 38  1  0
M  ISO  8  26  14  30  14  31  13  32  13  33  13  34  13  35  13  36  13
M  ISO  2  37  13  38  13
M  END
>  <minimizedAffinity>  (1) 
-5.11180258

>  <minimizedRMSD>  (1) 
0.174679846

$$$$
