
     RDKit          3D

 33 35  0  0  0  0  0  0  0  0999 V2000
   38.1630   24.6150   35.8380 C   0  0  0  0  0  0  0  0  0  0  0  0
   39.4640   24.3230   35.4670 C   0  0  0  0  0  0  0  0  0  0  0  0
   40.0280   25.0380   34.4010 C   0  0  0  0  0  0  0  0  0  0  0  0
   39.2750   25.9780   33.7890 N   0  0  0  0  0  0  0  0  0  0  0  0
   38.0060   26.2350   34.1810 C   0  0  0  0  0  0  0  0  0  0  0  0
   37.4580   25.5760   35.1780 N   0  0  0  0  0  0  0  0  0  0  0  0
   41.3680   24.7940   33.9580 N   0  0  0  0  0  0  0  0  0  0  0  0
   42.3900   25.6970   34.3220 C   0  0  0  0  0  0  0  0  0  0  0  0
   42.1300   26.9230   34.6400 N   0  0  0  0  0  0  0  0  0  0  0  0
   43.7230   25.2130   34.3260 N   0  0  0  0  0  0  0  0  0  0  0  0
   42.8220   27.6410   34.9280 H   0  0  0  0  0  0  0  0  0  0  0  0
   40.2160   23.3290   36.1390 N   0  0  0  0  0  0  0  0  0  0  0  0
   39.9570   22.8260   37.3520 C   0  0  0  0  0  0  0  0  0  0  0  0
   40.8810   21.8900   37.6920 N   0  0  0  0  0  0  0  0  0  0  0  0
   41.7250   21.8320   36.6390 C   0  0  0  0  0  0  0  0  0  0  0  0
   41.2890   22.7250   35.7090 N   0  0  0  0  0  0  0  0  0  0  0  0
   42.8550   20.9340   36.6310 C   0  0  0  0  0  0  0  0  0  0  0  0
   43.0090   19.7210   37.1890 C   0  0  0  0  0  0  0  0  0  0  0  0
   44.1670   19.0010   37.0790 C   0  0  0  0  0  0  0  0  0  0  0  0
   45.2050   19.7480   36.2660 C   0  0  0  0  0  0  0  0  0  0  0  0
   44.3920   21.3060   35.8040 S   0  0  0  0  0  0  0  0  0  0  0  0
   37.2110   27.2910   33.4650 C   0  0  0  0  0  0  0  0  0  0  0  0
   36.6670   28.1090   34.4050 F   0  0  0  0  0  0  0  0  0  0  0  0
   37.9890   28.0120   32.6050 F   0  0  0  0  0  0  0  0  0  0  0  0
   36.1860   26.7030   32.7020 F   0  0  0  0  0  0  0  0  0  0  0  0
   37.6957   24.0682   36.6702 H   0  0  0  0  0  0  0  0  0  0  0  0
   41.5835   23.9689   33.3803 H   0  0  0  0  0  0  0  0  0  0  0  0
   44.4978   25.8400   34.5857 H   0  0  0  0  0  0  0  0  0  0  0  0
   43.9164   24.2344   34.0693 H   0  0  0  0  0  0  0  0  0  0  0  0
   39.1114   23.1291   37.9869 H   0  0  0  0  0  0  0  0  0  0  0  0
   42.1709   19.2902   37.7565 H   0  0  0  0  0  0  0  0  0  0  0  0
   44.3245   18.0073   37.5237 H   0  0  0  0  0  0  0  0  0  0  0  0
   46.2238   19.4201   36.0121 H   0  0  0  0  0  0  0  0  0  0  0  0
  2  1  2  0
  2 12  1  0
  3  2  1  0
  4  5  1  0
  4  3  2  0
  5  6  2  0
  6  1  1  0
  7  8  1  0
  7  3  1  0
  8 10  1  0
  8  9  2  0
  9 11  1  0
 12 13  1  0
 13 14  2  0
 15 14  1  0
 16 12  1  0
 16 15  2  0
 17 15  1  0
 17 18  2  0
 19 18  1  0
 20 19  2  0
 21 20  1  0
 21 17  1  0
 22  5  1  0
 22 23  1  0
 24 22  1  0
 25 22  1  0
  1 26  1  0
  7 27  1  0
 10 28  1  0
 10 29  1  0
 13 30  1  0
 18 31  1  0
 19 32  1  0
 20 33  1  0
M  ISO  5  26  14  30  14  31  14  32  14  33  14
M  END
>  <minimizedAffinity>  (1) 
-5.04086399

>  <minimizedRMSD>  (1) 
0.691923261

$$$$
