
     RDKit          3D

 38 39  0  0  0  0  0  0  0  0999 V2000
   38.5440   23.8330   36.1440 C   0  0  0  0  0  0  0  0  0  0  0  0
   39.8390   23.6670   35.6810 C   0  0  0  0  0  0  0  0  0  0  0  0
   40.3040   24.4910   34.6590 C   0  0  0  0  0  0  0  0  0  0  0  0
   39.4600   25.4230   34.1640 N   0  0  0  0  0  0  0  0  0  0  0  0
   38.2060   25.5700   34.6260 C   0  0  0  0  0  0  0  0  0  0  0  0
   37.7520   24.7930   35.5960 N   0  0  0  0  0  0  0  0  0  0  0  0
   41.6250   24.3770   34.1350 N   0  0  0  0  0  0  0  0  0  0  0  0
   42.6090   25.3230   34.5320 C   0  0  0  0  0  0  0  0  0  0  0  0
   42.2960   26.4890   34.9620 N   0  0  0  0  0  0  0  0  0  0  0  0
   43.9760   24.9170   34.4300 N   0  0  0  0  0  0  0  0  0  0  0  0
   42.9520   27.2250   35.2820 H   0  0  0  0  0  0  0  0  0  0  0  0
   40.6920   22.6680   36.2370 N   0  0  0  0  0  0  0  0  0  0  0  0
   40.7300   22.2940   37.5310 C   0  0  0  0  0  0  0  0  0  0  0  0
   41.6490   21.3260   37.7130 N   0  0  0  0  0  0  0  0  0  0  0  0
   42.1860   21.1050   36.5000 C   0  0  0  0  0  0  0  0  0  0  0  0
   41.5880   21.9340   35.6130 N   0  0  0  0  0  0  0  0  0  0  0  0
   43.2480   20.1450   36.1000 C   0  0  0  0  0  0  0  0  0  0  0  0
   42.9990   19.6350   34.6990 C   0  0  0  0  0  0  0  0  0  0  0  0
   43.3070   18.9250   36.9910 C   0  0  0  0  0  0  0  0  0  0  0  0
   44.6180   20.7760   36.0850 C   0  0  0  0  0  0  0  0  0  0  0  0
   37.2940   26.6160   34.0520 C   0  0  0  0  0  0  0  0  0  0  0  0
   36.4830   27.0670   35.0550 F   0  0  0  0  0  0  0  0  0  0  0  0
   38.0160   27.6600   33.5310 F   0  0  0  0  0  0  0  0  0  0  0  0
   36.5180   26.0740   33.0180 F   0  0  0  0  0  0  0  0  0  0  0  0
   38.1585   23.1918   36.9504 H   0  0  0  0  0  0  0  0  0  0  0  0
   41.8630   23.6201   33.4782 H   0  0  0  0  0  0  0  0  0  0  0  0
   44.7277   25.5653   34.7050 H   0  0  0  0  0  0  0  0  0  0  0  0
   44.2092   23.9762   34.0815 H   0  0  0  0  0  0  0  0  0  0  0  0
   40.0998   22.7190   38.3262 H   0  0  0  0  0  0  0  0  0  0  0  0
   42.5169   18.6475   34.7485 H   0  0  0  0  0  0  0  0  0  0  0  0
   42.3424   20.3372   34.1645 H   0  0  0  0  0  0  0  0  0  0  0  0
   43.9565   19.5491   34.1645 H   0  0  0  0  0  0  0  0  0  0  0  0
   43.2918   19.2396   38.0449 H   0  0  0  0  0  0  0  0  0  0  0  0
   42.4390   18.2805   36.7882 H   0  0  0  0  0  0  0  0  0  0  0  0
   44.2332   18.3673   36.7882 H   0  0  0  0  0  0  0  0  0  0  0  0
   44.9604   20.9337   37.1184 H   0  0  0  0  0  0  0  0  0  0  0  0
   45.3221   20.1115   35.5628 H   0  0  0  0  0  0  0  0  0  0  0  0
   44.5706   21.7430   35.5628 H   0  0  0  0  0  0  0  0  0  0  0  0
  2  1  2  0
  2 12  1  0
  3  2  1  0
  4  5  1  0
  4  3  2  0
  5  6  2  0
  6  1  1  0
  7  8  1  0
  7  3  1  0
  8  9  2  0
  9 11  1  0
 10  8  1  0
 12 13  1  0
 13 14  2  0
 15 14  1  0
 16 12  1  0
 16 15  2  0
 17 15  1  0
 17 19  1  0
 18 17  1  0
 20 17  1  0
 21  5  1  0
 21 22  1  0
 23 21  1  0
 24 21  1  0
  1 25  1  0
  7 26  1  0
 10 27  1  0
 10 28  1  0
 13 29  1  0
 18 30  1  0
 18 31  1  0
 18 32  1  0
 19 33  1  0
 19 34  1  0
 19 35  1  0
 20 36  1  0
 20 37  1  0
 20 38  1  0
M  ISO  8  25  14  29  14  30   8  31   8  32   8  33   8  34   8  35   8
M  ISO  3  36   8  37   8  38   8
M  END
>  <minimizedAffinity>  (1) 
-4.74361086

>  <minimizedRMSD>  (1) 
0.42037648

$$$$
