
     RDKit          3D

 35 36  0  0  0  0  0  0  0  0999 V2000
   38.5430   23.8190   36.1680 C   0  0  0  0  0  0  0  0  0  0  0  0
   39.8420   23.6540   35.7020 C   0  0  0  0  0  0  0  0  0  0  0  0
   40.3090   24.4870   34.6720 C   0  0  0  0  0  0  0  0  0  0  0  0
   39.4670   25.4170   34.1770 N   0  0  0  0  0  0  0  0  0  0  0  0
   38.2020   25.5630   34.6450 C   0  0  0  0  0  0  0  0  0  0  0  0
   37.7500   24.7800   35.6180 N   0  0  0  0  0  0  0  0  0  0  0  0
   41.6320   24.3700   34.1490 N   0  0  0  0  0  0  0  0  0  0  0  0
   42.6170   25.3040   34.5380 C   0  0  0  0  0  0  0  0  0  0  0  0
   42.2960   26.4790   34.9720 N   0  0  0  0  0  0  0  0  0  0  0  0
   43.9770   24.9080   34.4340 N   0  0  0  0  0  0  0  0  0  0  0  0
   42.9540   27.2200   35.2850 H   0  0  0  0  0  0  0  0  0  0  0  0
   40.6920   22.6630   36.2520 N   0  0  0  0  0  0  0  0  0  0  0  0
   40.7390   22.2850   37.5420 C   0  0  0  0  0  0  0  0  0  0  0  0
   41.6640   21.3150   37.7200 N   0  0  0  0  0  0  0  0  0  0  0  0
   42.2040   21.0910   36.4980 C   0  0  0  0  0  0  0  0  0  0  0  0
   41.5850   21.9340   35.6200 N   0  0  0  0  0  0  0  0  0  0  0  0
   43.2560   20.1140   36.2080 C   0  0  0  0  0  0  0  0  0  0  0  0
   43.2190   19.6760   34.7390 C   0  0  0  0  0  0  0  0  0  0  0  0
   43.1120   18.8840   37.0640 C   0  0  0  0  0  0  0  0  0  0  0  0
   37.2950   26.6030   34.0740 C   0  0  0  0  0  0  0  0  0  0  0  0
   36.4740   27.0420   35.0590 F   0  0  0  0  0  0  0  0  0  0  0  0
   38.0110   27.6550   33.5500 F   0  0  0  0  0  0  0  0  0  0  0  0
   36.5230   26.0580   33.0310 F   0  0  0  0  0  0  0  0  0  0  0  0
   38.1583   23.1782   36.9750 H   0  0  0  0  0  0  0  0  0  0  0  0
   41.8661   23.6108   33.4935 H   0  0  0  0  0  0  0  0  0  0  0  0
   44.7257   25.5603   34.7077 H   0  0  0  0  0  0  0  0  0  0  0  0
   44.2146   23.9686   34.0848 H   0  0  0  0  0  0  0  0  0  0  0  0
   40.1118   22.7066   38.3414 H   0  0  0  0  0  0  0  0  0  0  0  0
   44.2125   20.6113   36.4265 H   0  0  0  0  0  0  0  0  0  0  0  0
   43.1265   18.5812   34.6850 H   0  0  0  0  0  0  0  0  0  0  0  0
   42.3570   20.1419   34.2391 H   0  0  0  0  0  0  0  0  0  0  0  0
   44.1469   19.9907   34.2391 H   0  0  0  0  0  0  0  0  0  0  0  0
   43.1455   19.1701   38.1256 H   0  0  0  0  0  0  0  0  0  0  0  0
   42.1506   18.3960   36.8459 H   0  0  0  0  0  0  0  0  0  0  0  0
   43.9347   18.1871   36.8459 H   0  0  0  0  0  0  0  0  0  0  0  0
  2  1  2  0
  2 12  1  0
  3  2  1  0
  4  5  1  0
  4  3  2  0
  5  6  2  0
  6  1  1  0
  7  8  1  0
  7  3  1  0
  8  9  2  0
  9 11  1  0
 10  8  1  0
 12 13  1  0
 13 14  2  0
 15 14  1  0
 16 12  1  0
 16 15  2  0
 17 15  1  0
 17 19  1  0
 18 17  1  0
 20  5  1  0
 20 21  1  0
 22 20  1  0
 23 20  1  0
  1 24  1  0
  7 25  1  0
 10 26  1  0
 10 27  1  0
 13 28  1  0
 17 29  1  0
 18 30  1  0
 18 31  1  0
 18 32  1  0
 19 33  1  0
 19 34  1  0
 19 35  1  0
M  ISO  8  24  14  28  14  29   8  30   8  31   8  32   8  33   8  34   8
M  ISO  1  35   8
M  END
>  <minimizedAffinity>  (1) 
-4.60963869

>  <minimizedRMSD>  (1) 
0.568747401

$$$$
