
     RDKit          3D

 32 33  0  0  0  0  0  0  0  0999 V2000
   38.5120   23.8500   36.1800 C   0  0  0  0  0  0  0  0  0  0  0  0
   39.8120   23.6780   35.7110 C   0  0  0  0  0  0  0  0  0  0  0  0
   40.2760   24.4940   34.6810 C   0  0  0  0  0  0  0  0  0  0  0  0
   39.4440   25.4290   34.1680 N   0  0  0  0  0  0  0  0  0  0  0  0
   38.1800   25.5770   34.6410 C   0  0  0  0  0  0  0  0  0  0  0  0
   37.7280   24.8170   35.6120 N   0  0  0  0  0  0  0  0  0  0  0  0
   41.6030   24.3590   34.1630 N   0  0  0  0  0  0  0  0  0  0  0  0
   42.5940   25.2970   34.5450 C   0  0  0  0  0  0  0  0  0  0  0  0
   42.2850   26.4810   34.9690 N   0  0  0  0  0  0  0  0  0  0  0  0
   43.9550   24.8990   34.4500 N   0  0  0  0  0  0  0  0  0  0  0  0
   42.9450   27.2130   35.2820 H   0  0  0  0  0  0  0  0  0  0  0  0
   40.6570   22.6780   36.2810 N   0  0  0  0  0  0  0  0  0  0  0  0
   40.7150   22.3280   37.5720 C   0  0  0  0  0  0  0  0  0  0  0  0
   41.6300   21.3460   37.7510 N   0  0  0  0  0  0  0  0  0  0  0  0
   42.1440   21.0900   36.5350 C   0  0  0  0  0  0  0  0  0  0  0  0
   41.5220   21.9290   35.6530 N   0  0  0  0  0  0  0  0  0  0  0  0
   43.1810   20.1120   36.1340 C   0  0  0  0  0  0  0  0  0  0  0  0
   43.1510   18.8850   37.0520 C   0  0  0  0  0  0  0  0  0  0  0  0
   37.2910   26.6330   34.0390 C   0  0  0  0  0  0  0  0  0  0  0  0
   36.4790   27.0910   35.0460 F   0  0  0  0  0  0  0  0  0  0  0  0
   38.0120   27.6700   33.5290 F   0  0  0  0  0  0  0  0  0  0  0  0
   36.5130   26.0820   33.0130 F   0  0  0  0  0  0  0  0  0  0  0  0
   38.1223   23.2195   36.9928 H   0  0  0  0  0  0  0  0  0  0  0  0
   41.8352   23.5888   33.5198 H   0  0  0  0  0  0  0  0  0  0  0  0
   44.7031   25.5540   34.7189 H   0  0  0  0  0  0  0  0  0  0  0  0
   44.1933   23.9556   34.1123 H   0  0  0  0  0  0  0  0  0  0  0  0
   40.1066   22.7742   38.3725 H   0  0  0  0  0  0  0  0  0  0  0  0
   42.9951   19.7927   35.0979 H   0  0  0  0  0  0  0  0  0  0  0  0
   44.1684   20.5901   36.2141 H   0  0  0  0  0  0  0  0  0  0  0  0
   43.1590   19.2124   38.1021 H   0  0  0  0  0  0  0  0  0  0  0  0
   42.2384   18.3029   36.8564 H   0  0  0  0  0  0  0  0  0  0  0  0
   44.0341   18.2590   36.8564 H   0  0  0  0  0  0  0  0  0  0  0  0
  2  1  2  0
  2 12  1  0
  3  2  1  0
  4  5  1  0
  4  3  2  0
  5  6  2  0
  6  1  1  0
  7  8  1  0
  7  3  1  0
  8  9  2  0
  9 11  1  0
 10  8  1  0
 12 13  1  0
 13 14  2  0
 15 14  1  0
 16 12  1  0
 16 15  2  0
 17 15  1  0
 17 18  1  0
 19  5  1  0
 19 20  1  0
 21 19  1  0
 22 19  1  0
  1 23  1  0
  7 24  1  0
 10 25  1  0
 10 26  1  0
 13 27  1  0
 17 28  1  0
 17 29  1  0
 18 30  1  0
 18 31  1  0
 18 32  1  0
M  ISO  7  23  14  27  14  28   8  29   8  30   8  31   8  32   8
M  END
>  <minimizedAffinity>  (1) 
-4.50485802

>  <minimizedRMSD>  (1) 
0.40569517

$$$$
