
     RDKit          3D

 27 28  0  0  0  0  0  0  0  0999 V2000
   38.3490   24.0790   36.0100 C   0  0  0  0  0  0  0  0  0  0  0  0
   39.6650   23.8570   35.6060 C   0  0  0  0  0  0  0  0  0  0  0  0
   40.1690   24.6460   34.5690 C   0  0  0  0  0  0  0  0  0  0  0  0
   39.3850   25.5760   34.0050 N   0  0  0  0  0  0  0  0  0  0  0  0
   38.1130   25.7660   34.4210 C   0  0  0  0  0  0  0  0  0  0  0  0
   37.5990   25.0340   35.4050 N   0  0  0  0  0  0  0  0  0  0  0  0
   41.5100   24.4760   34.0990 N   0  0  0  0  0  0  0  0  0  0  0  0
   42.5050   25.4030   34.4800 C   0  0  0  0  0  0  0  0  0  0  0  0
   42.2080   26.5990   34.8490 N   0  0  0  0  0  0  0  0  0  0  0  0
   43.8560   24.9620   34.4390 N   0  0  0  0  0  0  0  0  0  0  0  0
   42.8820   27.3240   35.1590 H   0  0  0  0  0  0  0  0  0  0  0  0
   40.4710   22.8630   36.2240 N   0  0  0  0  0  0  0  0  0  0  0  0
   40.5070   22.5890   37.5450 C   0  0  0  0  0  0  0  0  0  0  0  0
   41.3860   21.5840   37.7800 N   0  0  0  0  0  0  0  0  0  0  0  0
   41.8890   21.2480   36.5700 C   0  0  0  0  0  0  0  0  0  0  0  0
   41.3030   22.0550   35.6400 N   0  0  0  0  0  0  0  0  0  0  0  0
   43.0830   20.0320   36.0440 S   0  0  0  0  0  0  0  0  0  0  0  0
   37.2570   26.8170   33.7680 C   0  0  0  0  0  0  0  0  0  0  0  0
   36.4950   27.3970   34.7290 F   0  0  0  0  0  0  0  0  0  0  0  0
   38.0190   27.7550   33.1250 F   0  0  0  0  0  0  0  0  0  0  0  0
   36.4130   26.2230   32.8030 F   0  0  0  0  0  0  0  0  0  0  0  0
   37.9170   23.4770   36.8230 H   0  0  0  0  0  0  0  0  0  0  0  0
   41.7480   23.6826   33.4868 H   0  0  0  0  0  0  0  0  0  0  0  0
   44.6155   25.6035   34.7081 H   0  0  0  0  0  0  0  0  0  0  0  0
   44.0752   24.0010   34.1402 H   0  0  0  0  0  0  0  0  0  0  0  0
   39.9129   23.1034   38.3147 H   0  0  0  0  0  0  0  0  0  0  0  0
   43.6556   19.4488   37.1435 H   0  0  0  0  0  0  0  0  0  0  0  0
  2  1  2  0
  2 12  1  0
  3  2  1  0
  4  5  1  0
  4  3  2  0
  5  6  2  0
  6  1  1  0
  7  8  1  0
  7  3  1  0
  8  9  2  0
  9 11  1  0
 10  8  1  0
 12 13  1  0
 13 14  2  0
 15 14  1  0
 16 12  1  0
 16 15  2  0
 17 15  1  0
 18  5  1  0
 18 19  1  0
 20 18  1  0
 21 18  1  0
  1 22  1  0
  7 23  1  0
 10 24  1  0
 10 25  1  0
 13 26  1  0
 17 27  1  0
M  ISO  3  22  14  26  14  27  11
M  END
>  <minimizedAffinity>  (1) 
-4.42892265

>  <minimizedRMSD>  (1) 
0.0269254409

$$$$
