
     RDKit          3D

 28 29  0  0  0  0  0  0  0  0999 V2000
   38.3450   24.0730   36.0060 C   0  0  0  0  0  0  0  0  0  0  0  0
   39.6570   23.8610   35.5910 C   0  0  0  0  0  0  0  0  0  0  0  0
   40.1710   24.6390   34.5620 C   0  0  0  0  0  0  0  0  0  0  0  0
   39.3670   25.5810   33.9990 N   0  0  0  0  0  0  0  0  0  0  0  0
   38.1020   25.7670   34.4170 C   0  0  0  0  0  0  0  0  0  0  0  0
   37.5910   25.0310   35.4020 N   0  0  0  0  0  0  0  0  0  0  0  0
   41.5030   24.4770   34.0870 N   0  0  0  0  0  0  0  0  0  0  0  0
   42.5000   25.3990   34.4710 C   0  0  0  0  0  0  0  0  0  0  0  0
   42.1990   26.5940   34.8500 N   0  0  0  0  0  0  0  0  0  0  0  0
   43.8580   24.9690   34.4290 N   0  0  0  0  0  0  0  0  0  0  0  0
   42.8650   27.3270   35.1690 H   0  0  0  0  0  0  0  0  0  0  0  0
   40.4600   22.8650   36.2090 N   0  0  0  0  0  0  0  0  0  0  0  0
   40.5170   22.5990   37.5360 C   0  0  0  0  0  0  0  0  0  0  0  0
   41.3910   21.5830   37.7630 N   0  0  0  0  0  0  0  0  0  0  0  0
   41.8710   21.2300   36.5580 C   0  0  0  0  0  0  0  0  0  0  0  0
   41.2840   22.0340   35.6130 N   0  0  0  0  0  0  0  0  0  0  0  0
   42.8210   20.2080   36.2700 N   0  0  0  0  0  0  0  0  0  0  0  0
   37.2470   26.8170   33.7690 C   0  0  0  0  0  0  0  0  0  0  0  0
   36.4930   27.4010   34.7540 F   0  0  0  0  0  0  0  0  0  0  0  0
   38.0140   27.7690   33.1430 F   0  0  0  0  0  0  0  0  0  0  0  0
   36.4050   26.2470   32.8120 F   0  0  0  0  0  0  0  0  0  0  0  0
   37.9193   23.4677   36.8199 H   0  0  0  0  0  0  0  0  0  0  0  0
   41.7382   23.6900   33.4655 H   0  0  0  0  0  0  0  0  0  0  0  0
   44.6116   25.6157   34.7024 H   0  0  0  0  0  0  0  0  0  0  0  0
   44.0859   24.0116   34.1252 H   0  0  0  0  0  0  0  0  0  0  0  0
   39.9428   23.1256   38.3125 H   0  0  0  0  0  0  0  0  0  0  0  0
   43.1104   20.0332   35.2971 H   0  0  0  0  0  0  0  0  0  0  0  0
   43.2184   19.6440   37.0347 H   0  0  0  0  0  0  0  0  0  0  0  0
  2  1  2  0
  2 12  1  0
  3  2  1  0
  4  5  1  0
  4  3  2  0
  5  6  2  0
  6  1  1  0
  7  8  1  0
  7  3  1  0
  8  9  2  0
  9 11  1  0
 10  8  1  0
 12 13  1  0
 13 14  2  0
 15 14  1  0
 16 12  1  0
 16 15  2  0
 17 15  1  0
 18  5  1  0
 18 19  1  0
 20 18  1  0
 21 18  1  0
  1 22  1  0
  7 23  1  0
 10 24  1  0
 10 25  1  0
 13 26  1  0
 17 27  1  0
 17 28  1  0
M  ISO  2  22  14  26  14
M  END
>  <minimizedAffinity>  (1) 
-4.42707872

>  <minimizedRMSD>  (1) 
0.00874712411

$$$$
