
     RDKit          3D

 40 42  0  0  1  0  0  0  0  0999 V2000
   37.8400   25.2290   35.7760 C   0  0  0  0  0  0  0  0  0  0  0  0
   39.1120   24.8050   35.3810 C   0  0  0  0  0  0  0  0  0  0  0  0
   39.6640   25.3690   34.2350 C   0  0  0  0  0  0  0  0  0  0  0  0
   38.9640   26.2930   33.5530 N   0  0  0  0  0  0  0  0  0  0  0  0
   37.7360   26.6820   33.9610 C   0  0  0  0  0  0  0  0  0  0  0  0
   37.1850   26.1700   35.0390 N   0  0  0  0  0  0  0  0  0  0  0  0
   40.9700   24.9860   33.7610 N   0  0  0  0  0  0  0  0  0  0  0  0
   42.0770   25.8440   34.0020 C   0  0  0  0  0  0  0  0  0  0  0  0
   41.9170   27.1130   34.2100 N   0  0  0  0  0  0  0  0  0  0  0  0
   43.3730   25.2710   34.0110 N   0  0  0  0  0  0  0  0  0  0  0  0
   42.6650   27.8000   34.3980 H   0  0  0  0  0  0  0  0  0  0  0  0
   39.8180   23.8330   36.1210 N   0  0  0  0  0  0  0  0  0  0  0  0
   39.3460   23.1210   37.1490 C   0  0  0  0  0  0  0  0  0  0  0  0
   40.2850   22.2800   37.6290 N   0  0  0  0  0  0  0  0  0  0  0  0
   41.3720   22.4850   36.8640 C   0  0  0  0  0  0  0  0  0  0  0  0
   41.0590   23.4380   35.9510 N   0  0  0  0  0  0  0  0  0  0  0  0
   42.6540   21.7560   37.0480 C   0  0  2  0  0  0  0  0  0  0  0  0
   43.7280   22.4180   36.2420 C   0  0  0  0  0  0  0  0  0  0  0  0
   44.8530   21.5960   35.7840 C   0  0  0  0  0  0  0  0  0  0  0  0
   44.7220   20.1170   35.8770 C   0  0  0  0  0  0  0  0  0  0  0  0
   43.7860   19.6340   36.9420 C   0  0  0  0  0  0  0  0  0  0  0  0
   42.4490   20.3090   36.7120 C   0  0  0  0  0  0  0  0  0  0  0  0
   36.9860   27.7200   33.1680 C   0  0  0  0  0  0  0  0  0  0  0  0
   36.4870   28.6400   34.0530 F   0  0  0  0  0  0  0  0  0  0  0  0
   37.7790   28.3260   32.2420 F   0  0  0  0  0  0  0  0  0  0  0  0
   35.9080   27.1220   32.4880 F   0  0  0  0  0  0  0  0  0  0  0  0
   37.3704   24.8058   36.6762 H   0  0  0  0  0  0  0  0  0  0  0  0
   41.0997   24.0995   33.2528 H   0  0  0  0  0  0  0  0  0  0  0  0
   44.1973   25.8644   34.1826 H   0  0  0  0  0  0  0  0  0  0  0  0
   43.4908   24.2611   33.8460 H   0  0  0  0  0  0  0  0  0  0  0  0
   38.3258   23.2093   37.5508 H   0  0  0  0  0  0  0  0  0  0  0  0
   42.9873   21.7941   38.0956 H   0  0  0  0  0  0  0  0  0  0  0  0
   43.6749   23.4898   36.0003 H   0  0  0  0  0  0  0  0  0  0  0  0
   45.7667   22.0594   35.3835 H   0  0  0  0  0  0  0  0  0  0  0  0
   44.3589   19.7442   34.9079 H   0  0  0  0  0  0  0  0  0  0  0  0
   45.7182   19.7346   36.1442 H   0  0  0  0  0  0  0  0  0  0  0  0
   43.6721   18.5420   36.8751 H   0  0  0  0  0  0  0  0  0  0  0  0
   44.1766   19.8772   37.9411 H   0  0  0  0  0  0  0  0  0  0  0  0
   42.1415   20.2003   35.6615 H   0  0  0  0  0  0  0  0  0  0  0  0
   41.6586   19.8594   37.3310 H   0  0  0  0  0  0  0  0  0  0  0  0
  2  1  2  0
  2 12  1  0
  3  2  1  0
  4  5  1  0
  4  3  2  0
  5  6  2  0
  6  1  1  0
  7  8  1  0
  7  3  1  0
  8 10  1  0
  8  9  2  0
  9 11  1  0
 12 13  1  0
 13 14  2  0
 15 14  1  0
 16 12  1  0
 16 15  2  0
 17 15  1  0
 18 17  1  0
 19 20  1  0
 19 18  2  0
 20 21  1  0
 22 21  1  0
 22 17  1  0
 23  5  1  0
 23 24  1  0
 25 23  1  0
 26 23  1  0
  1 27  1  0
  7 28  1  0
 10 29  1  0
 10 30  1  0
 13 31  1  0
 17 32  1  1
 18 33  1  0
 19 34  1  0
 20 35  1  0
 20 36  1  0
 21 37  1  0
 21 38  1  0
 22 39  1  0
 22 40  1  0
M  ISO  8  27  14  31  14  32  13  33  13  34  13  35  13  36  13  37  13
M  ISO  3  38  13  39  13  40  13
M  END
>  <minimizedAffinity>  (1) 
-5.33099508

>  <minimizedRMSD>  (1) 
1.50202978

$$$$
