
     RDKit          3D

 46 48  0  0  1  0  0  0  0  0999 V2000
   42.0610   24.4630   35.1170 N   0  0  0  0  0  0  0  0  0  0  0  0
   42.8550   25.5140   34.8820 C   0  0  0  0  0  0  0  0  0  0  0  0
   42.1370   26.6030   34.5240 N   0  0  0  0  0  0  0  0  0  0  0  0
   40.8630   26.2000   34.5420 C   0  0  0  0  0  0  0  0  0  0  0  0
   40.8250   24.8840   34.9080 N   0  0  0  0  0  0  0  0  0  0  0  0
   43.8070   22.8050   35.5220 C   0  0  0  0  0  0  0  0  0  0  0  0
   42.4580   23.1680   35.5120 C   0  0  0  0  0  0  0  0  0  0  0  0
   41.5200   22.2180   35.9040 C   0  0  0  0  0  0  0  0  0  0  0  0
   41.9380   20.9960   36.2750 N   0  0  0  0  0  0  0  0  0  0  0  0
   43.2520   20.6750   36.2730 C   0  0  0  0  0  0  0  0  0  0  0  0
   44.1620   21.5480   35.9100 N   0  0  0  0  0  0  0  0  0  0  0  0
   40.1070   22.5130   35.9210 N   0  0  0  0  0  0  0  0  0  0  0  0
   39.4660   22.7900   37.1560 C   0  0  0  0  0  0  0  0  0  0  0  0
   39.9490   22.3590   38.2760 N   0  0  0  0  0  0  0  0  0  0  0  0
   38.2760   23.5560   37.1290 N   0  0  0  0  0  0  0  0  0  0  0  0
   39.5380   22.5160   39.2060 H   0  0  0  0  0  0  0  0  0  0  0  0
   43.6780   19.2940   36.6960 C   0  0  0  0  0  0  0  0  0  0  0  0
   44.9170   19.3980   37.2820 F   0  0  0  0  0  0  0  0  0  0  0  0
   42.7880   18.7290   37.5650 F   0  0  0  0  0  0  0  0  0  0  0  0
   43.7770   18.4580   35.5660 F   0  0  0  0  0  0  0  0  0  0  0  0
   39.7210   27.0920   34.2310 C   0  0  2  0  0  0  0  0  0  0  0  0
   38.8710   27.2890   35.4280 C   0  0  0  0  0  0  0  0  0  0  0  0
   37.4020   27.5030   35.1980 C   0  0  0  0  0  0  0  0  0  0  0  0
   36.8970   27.4350   33.8350 C   0  0  0  0  0  0  0  0  0  0  0  0
   37.8940   27.5640   32.7450 C   0  0  0  0  0  0  0  0  0  0  0  0
   39.0000   26.5660   33.0220 C   0  0  1  0  0  0  0  0  0  0  0  0
   39.8680   26.5060   31.8270 C   0  0  0  0  0  0  0  0  0  0  0  0
   39.8300   25.2280   31.0490 C   0  0  0  0  0  0  0  0  0  0  0  0
   43.9514   25.4949   34.9688 H   0  0  0  0  0  0  0  0  0  0  0  0
   44.5775   23.5291   35.2187 H   0  0  0  0  0  0  0  0  0  0  0  0
   39.5683   22.5223   35.0432 H   0  0  0  0  0  0  0  0  0  0  0  0
   37.7849   23.7756   38.0073 H   0  0  0  0  0  0  0  0  0  0  0  0
   37.9012   23.8938   36.2310 H   0  0  0  0  0  0  0  0  0  0  0  0
   40.0700   28.1015   33.9679 H   0  0  0  0  0  0  0  0  0  0  0  0
   39.2972   27.2790   36.4420 H   0  0  0  0  0  0  0  0  0  0  0  0
   36.7241   27.7063   36.0401 H   0  0  0  0  0  0  0  0  0  0  0  0
   36.3957   26.4634   33.7140 H   0  0  0  0  0  0  0  0  0  0  0  0
   36.2390   28.3100   33.7280 H   0  0  0  0  0  0  0  0  0  0  0  0
   38.3039   28.5847   32.7292 H   0  0  0  0  0  0  0  0  0  0  0  0
   37.4288   27.3669   31.7679 H   0  0  0  0  0  0  0  0  0  0  0  0
   38.6441   25.5440   33.2191 H   0  0  0  0  0  0  0  0  0  0  0  0
   39.5663   27.3199   31.1513 H   0  0  0  0  0  0  0  0  0  0  0  0
   40.8975   26.5912   32.2050 H   0  0  0  0  0  0  0  0  0  0  0  0
   39.8047   24.3760   31.7444 H   0  0  0  0  0  0  0  0  0  0  0  0
   38.9310   25.2110   30.4154 H   0  0  0  0  0  0  0  0  0  0  0  0
   40.7264   25.1576   30.4154 H   0  0  0  0  0  0  0  0  0  0  0  0
  1  7  1  0
  2  1  1  0
  3  4  1  0
  3  2  2  0
  4  5  2  0
  5  1  1  0
  6 11  2  0
  7  6  1  0
  7  8  2  0
  8 12  1  0
  8  9  1  0
 10  9  2  0
 10 17  1  0
 11 10  1  0
 12 13  1  0
 13 14  2  0
 14 16  1  0
 15 13  1  0
 17 18  1  0
 17 19  1  0
 20 17  1  0
 21  4  1  0
 21 22  1  0
 23 22  2  0
 24 23  1  0
 25 26  1  0
 25 24  1  0
 26 21  1  0
 27 26  1  0
 28 27  1  0
  2 29  1  0
  6 30  1  0
 12 31  1  0
 15 32  1  0
 15 33  1  0
 21 34  1  6
 22 35  1  0
 23 36  1  0
 24 37  1  0
 24 38  1  0
 25 39  1  0
 25 40  1  0
 26 41  1  1
 27 42  1  0
 27 43  1  0
 28 44  1  0
 28 45  1  0
 28 46  1  0
M  ISO  8  29  14  30  14  34  13  35  13  36  13  37  13  38  13  39  13
M  ISO  7  40  13  41  13  42   8  43   8  44   8  45   8  46   8
M  END
>  <minimizedAffinity>  (1) 
-5.76008654

>  <minimizedRMSD>  (1) 
7.91676712

$$$$
