
     RDKit          3D

 31 34  0  0  0  0  0  0  0  0999 V2000
   37.2730   21.7990   35.5340 C   0  0  0  0  0  0  0  0  0  0  0  0
   36.0510   21.1600   35.8020 C   0  0  0  0  0  0  0  0  0  0  0  0
   35.5770   20.6500   34.6000 C   0  0  0  0  0  0  0  0  0  0  0  0
   36.5210   21.0020   33.6790 C   0  0  0  0  0  0  0  0  0  0  0  0
   37.5100   21.6800   34.2690 O   0  0  0  0  0  0  0  0  0  0  0  0
   36.5390   20.7320   32.2810 N   0  0  0  0  0  0  0  0  0  0  0  0
   36.5930   21.6440   31.2690 C   0  0  0  0  0  0  0  0  0  0  0  0
   36.5910   20.9510   30.1070 N   0  0  0  0  0  0  0  0  0  0  0  0
   36.5380   19.6190   30.3570 C   0  0  0  0  0  0  0  0  0  0  0  0
   36.5160   18.5480   29.4810 C   0  0  0  0  0  0  0  0  0  0  0  0
   36.5510   18.7890   28.2360 O   0  0  0  0  0  0  0  0  0  0  0  0
   36.4610   17.3230   30.0340 N   0  0  0  0  0  0  0  0  0  0  0  0
   36.4280   17.1830   31.3720 C   0  0  0  0  0  0  0  0  0  0  0  0
   36.3700   15.8290   31.8030 N   0  0  0  0  0  0  0  0  0  0  0  0
   36.4490   18.2280   32.2210 N   0  0  0  0  0  0  0  0  0  0  0  0
   36.5050   19.5030   31.7370 C   0  0  0  0  0  0  0  0  0  0  0  0
   38.0180   22.4370   36.6060 C   0  0  0  0  0  0  0  0  0  0  0  0
   39.4110   22.2760   36.7770 C   0  0  0  0  0  0  0  0  0  0  0  0
   40.0220   22.9360   37.8430 C   0  0  0  0  0  0  0  0  0  0  0  0
   39.2510   23.7030   38.6660 N   0  0  0  0  0  0  0  0  0  0  0  0
   37.9260   23.8330   38.4730 C   0  0  0  0  0  0  0  0  0  0  0  0
   37.3030   23.2080   37.4510 N   0  0  0  0  0  0  0  0  0  0  0  0
   35.5600   21.0785   36.7829 H   0  0  0  0  0  0  0  0  0  0  0  0
   34.6474   20.0874   34.4285 H   0  0  0  0  0  0  0  0  0  0  0  0
   36.6311   22.7380   31.3770 H   0  0  0  0  0  0  0  0  0  0  0  0
   36.4441   16.4884   29.4306 H   0  0  0  0  0  0  0  0  0  0  0  0
   36.3411   15.6095   32.8089 H   0  0  0  0  0  0  0  0  0  0  0  0
   36.3569   15.0678   31.1092 H   0  0  0  0  0  0  0  0  0  0  0  0
   39.9968   21.6483   36.0894 H   0  0  0  0  0  0  0  0  0  0  0  0
   41.1040   22.8398   38.0165 H   0  0  0  0  0  0  0  0  0  0  0  0
   37.3393   24.4600   39.1605 H   0  0  0  0  0  0  0  0  0  0  0  0
  1  2  2  0
  1 17  1  0
  3  2  1  0
  4  5  1  0
  4  3  2  0
  5  1  1  0
  6  4  1  0
  7  6  1  0
  8  9  1  0
  8  7  2  0
  9 16  2  0
 10 12  1  0
 10  9  1  0
 11 10  2  0
 12 13  1  0
 13 14  1  0
 13 15  2  0
 16 15  1  0
 16  6  1  0
 17 18  2  0
 17 22  1  0
 18 19  1  0
 19 20  2  0
 21 20  1  0
 22 21  2  0
  2 23  1  0
  3 24  1  0
  7 25  1  0
 12 26  1  0
 14 27  1  0
 14 28  1  0
 18 29  1  0
 19 30  1  0
 21 31  1  0
M  ISO  7  23  14  24  14  25  14  26   9  29  14  30  14  31  14
M  END
>  <minimizedAffinity>  (1) 
-5.07303381

>  <minimizedRMSD>  (1) 
1.34452283

$$$$
