
     RDKit          3D

 27 29  0  0  0  0  0  0  0  0999 V2000
   37.2950   21.5990   35.1340 C   0  0  0  0  0  0  0  0  0  0  0  0
   35.9540   21.1980   35.2750 C   0  0  0  0  0  0  0  0  0  0  0  0
   35.5920   20.6150   34.0660 C   0  0  0  0  0  0  0  0  0  0  0  0
   36.7120   20.6950   33.2780 C   0  0  0  0  0  0  0  0  0  0  0  0
   37.6920   21.2830   33.9480 O   0  0  0  0  0  0  0  0  0  0  0  0
   37.9850   22.2560   36.2430 C   0  0  0  0  0  0  0  0  0  0  0  0
   39.3710   22.2380   36.4200 C   0  0  0  0  0  0  0  0  0  0  0  0
   39.9020   22.9090   37.5260 C   0  0  0  0  0  0  0  0  0  0  0  0
   39.0390   23.5490   38.3830 N   0  0  0  0  0  0  0  0  0  0  0  0
   37.7060   23.5460   38.1830 C   0  0  0  0  0  0  0  0  0  0  0  0
   37.1840   22.9110   37.1310 N   0  0  0  0  0  0  0  0  0  0  0  0
   36.6890   20.1810   31.9490 N   0  0  0  0  0  0  0  0  0  0  0  0
   37.3400   20.7960   30.9570 C   0  0  0  0  0  0  0  0  0  0  0  0
   37.2790   20.2420   29.6770 C   0  0  0  0  0  0  0  0  0  0  0  0
   36.5500   19.0790   29.4750 C   0  0  0  0  0  0  0  0  0  0  0  0
   36.4910   18.5720   28.3150 O   0  0  0  0  0  0  0  0  0  0  0  0
   35.9090   18.4950   30.5130 N   0  0  0  0  0  0  0  0  0  0  0  0
   35.9860   19.0520   31.7360 C   0  0  0  0  0  0  0  0  0  0  0  0
   35.3440   18.4060   32.6070 O   0  0  0  0  0  0  0  0  0  0  0  0
   35.3186   21.3212   36.1644 H   0  0  0  0  0  0  0  0  0  0  0  0
   34.6167   20.1823   33.7986 H   0  0  0  0  0  0  0  0  0  0  0  0
   40.0254   21.7112   35.7099 H   0  0  0  0  0  0  0  0  0  0  0  0
   40.9870   22.9243   37.7062 H   0  0  0  0  0  0  0  0  0  0  0  0
   37.0452   24.0692   38.8898 H   0  0  0  0  0  0  0  0  0  0  0  0
   37.9107   21.7174   31.1447 H   0  0  0  0  0  0  0  0  0  0  0  0
   37.8033   20.7224   28.8377 H   0  0  0  0  0  0  0  0  0  0  0  0
   35.3665   17.6314   30.3689 H   0  0  0  0  0  0  0  0  0  0  0  0
  1  2  2  0
  1  6  1  0
  3  2  1  0
  4  5  1  0
  4  3  2  0
  5  1  1  0
  6  7  2  0
  6 11  1  0
  7  8  1  0
  8  9  2  0
 10  9  1  0
 11 10  2  0
 12  4  1  0
 13 12  1  0
 14 13  2  0
 15 14  1  0
 15 17  1  0
 16 15  2  0
 17 18  1  0
 18 12  1  0
 18 19  2  0
  2 20  1  0
  3 21  1  0
  7 22  1  0
  8 23  1  0
 10 24  1  0
 13 25  1  0
 14 26  1  0
 17 27  1  0
M  ISO  8  20  14  21  14  22  14  23  14  24  14  25  14  26  14  27   9
M  END
>  <minimizedAffinity>  (1) 
-4.77920151

>  <minimizedRMSD>  (1) 
1.2218914

$$$$
