
     RDKit          3D

 30 32  0  0  0  0  0  0  0  0999 V2000
   37.2410   21.7730   35.2270 C   0  0  0  0  0  0  0  0  0  0  0  0
   36.1060   21.0010   35.5050 C   0  0  0  0  0  0  0  0  0  0  0  0
   35.5710   20.6040   34.2850 C   0  0  0  0  0  0  0  0  0  0  0  0
   36.4070   21.1530   33.3410 C   0  0  0  0  0  0  0  0  0  0  0  0
   37.3630   21.8250   33.9550 O   0  0  0  0  0  0  0  0  0  0  0  0
   38.0240   22.3380   36.3270 C   0  0  0  0  0  0  0  0  0  0  0  0
   39.4070   22.2060   36.4440 C   0  0  0  0  0  0  0  0  0  0  0  0
   40.0210   22.7970   37.5470 C   0  0  0  0  0  0  0  0  0  0  0  0
   39.2600   23.4730   38.4530 N   0  0  0  0  0  0  0  0  0  0  0  0
   37.9290   23.5830   38.3120 C   0  0  0  0  0  0  0  0  0  0  0  0
   37.3100   23.0220   37.2600 N   0  0  0  0  0  0  0  0  0  0  0  0
   36.2480   21.0080   31.8600 C   0  0  0  0  0  0  0  0  0  0  0  0
   35.4570   19.7290   31.5790 C   0  0  0  0  0  0  0  0  0  0  0  0
   36.2930   18.9190   30.6210 C   0  0  0  0  0  0  0  0  0  0  0  0
   37.1600   19.9700   29.9710 C   0  0  0  0  0  0  0  0  0  0  0  0
   37.5610   20.8230   31.1560 C   0  0  0  0  0  0  0  0  0  0  0  0
   35.7118   20.7549   36.5020 H   0  0  0  0  0  0  0  0  0  0  0  0
   34.6767   19.9871   34.1127 H   0  0  0  0  0  0  0  0  0  0  0  0
   39.9925   21.6553   35.6930 H   0  0  0  0  0  0  0  0  0  0  0  0
   41.1095   22.7185   37.6848 H   0  0  0  0  0  0  0  0  0  0  0  0
   37.3429   24.1351   39.0615 H   0  0  0  0  0  0  0  0  0  0  0  0
   35.7553   21.9240   31.5020 H   0  0  0  0  0  0  0  0  0  0  0  0
   35.2948   19.1684   32.5114 H   0  0  0  0  0  0  0  0  0  0  0  0
   34.4674   19.9548   31.1551 H   0  0  0  0  0  0  0  0  0  0  0  0
   36.9030   18.1764   31.1563 H   0  0  0  0  0  0  0  0  0  0  0  0
   35.6960   18.3385   29.9023 H   0  0  0  0  0  0  0  0  0  0  0  0
   38.0391   19.5197   29.4868 H   0  0  0  0  0  0  0  0  0  0  0  0
   36.6536   20.5308   29.1716 H   0  0  0  0  0  0  0  0  0  0  0  0
   38.2887   20.3026   31.7960 H   0  0  0  0  0  0  0  0  0  0  0  0
   38.0546   21.7662   30.8790 H   0  0  0  0  0  0  0  0  0  0  0  0
  1  2  2  0
  1  6  1  0
  3  2  1  0
  4  5  1  0
  4  3  2  0
  5  1  1  0
  6  7  2  0
  6 11  1  0
  7  8  1  0
  8  9  2  0
 10  9  1  0
 11 10  2  0
 12  4  1  0
 13 12  1  0
 14 13  1  0
 15 14  1  0
 15 16  1  0
 16 12  1  0
  2 17  1  0
  3 18  1  0
  7 19  1  0
  8 20  1  0
 10 21  1  0
 12 22  1  0
 13 23  1  0
 13 24  1  0
 14 25  1  0
 14 26  1  0
 15 27  1  0
 15 28  1  0
 16 29  1  0
 16 30  1  0
M  ISO  8  17  14  18  14  19  14  20  14  21  14  22  13  23  13  24  13
M  ISO  6  25  13  26  13  27  13  28  13  29  13  30  13
M  END
>  <minimizedAffinity>  (1) 
-4.70372009

>  <minimizedRMSD>  (1) 
0.747911572

$$$$
