
     RDKit          3D

 31 34  0  0  0  0  0  0  0  0999 V2000
   37.2450   21.4950   34.8410 C   0  0  0  0  0  0  0  0  0  0  0  0
   35.9040   21.1150   34.9630 C   0  0  0  0  0  0  0  0  0  0  0  0
   35.5470   20.5080   33.7700 C   0  0  0  0  0  0  0  0  0  0  0  0
   36.6790   20.5520   32.9940 C   0  0  0  0  0  0  0  0  0  0  0  0
   37.6590   21.1440   33.6670 O   0  0  0  0  0  0  0  0  0  0  0  0
   36.7590   20.0240   31.6500 C   0  0  0  0  0  0  0  0  0  0  0  0
   35.9370   19.1110   31.0260 C   0  0  0  0  0  0  0  0  0  0  0  0
   36.3090   18.8440   29.7610 N   0  0  0  0  0  0  0  0  0  0  0  0
   37.4100   19.5970   29.5370 C   0  0  0  0  0  0  0  0  0  0  0  0
   38.1890   19.7030   28.4040 C   0  0  0  0  0  0  0  0  0  0  0  0
   39.2680   20.5620   28.4600 C   0  0  0  0  0  0  0  0  0  0  0  0
   39.6290   21.3300   29.5680 C   0  0  0  0  0  0  0  0  0  0  0  0
   38.7940   21.1670   30.6680 C   0  0  0  0  0  0  0  0  0  0  0  0
   37.7020   20.3240   30.6730 C   0  0  0  0  0  0  0  0  0  0  0  0
   37.9300   22.1720   35.9460 C   0  0  0  0  0  0  0  0  0  0  0  0
   39.3310   22.2260   36.0790 C   0  0  0  0  0  0  0  0  0  0  0  0
   39.8410   22.9090   37.1890 C   0  0  0  0  0  0  0  0  0  0  0  0
   38.9830   23.4810   38.0740 N   0  0  0  0  0  0  0  0  0  0  0  0
   37.6390   23.4080   37.9130 C   0  0  0  0  0  0  0  0  0  0  0  0
   37.1090   22.7580   36.8570 N   0  0  0  0  0  0  0  0  0  0  0  0
   35.2567   21.2689   35.8390 H   0  0  0  0  0  0  0  0  0  0  0  0
   34.5685   20.0828   33.5023 H   0  0  0  0  0  0  0  0  0  0  0  0
   35.0658   18.6479   31.5124 H   0  0  0  0  0  0  0  0  0  0  0  0
   35.8507   18.2001   29.1005 H   0  0  0  0  0  0  0  0  0  0  0  0
   37.9603   19.1277   27.4947 H   0  0  0  0  0  0  0  0  0  0  0  0
   39.8934   20.6481   27.5592 H   0  0  0  0  0  0  0  0  0  0  0  0
   40.4976   22.0049   29.5709 H   0  0  0  0  0  0  0  0  0  0  0  0
   39.0155   21.7395   31.5808 H   0  0  0  0  0  0  0  0  0  0  0  0
   39.9959   21.7517   35.3421 H   0  0  0  0  0  0  0  0  0  0  0  0
   40.9276   22.9822   37.3438 H   0  0  0  0  0  0  0  0  0  0  0  0
   36.9750   23.8831   38.6501 H   0  0  0  0  0  0  0  0  0  0  0  0
  1  2  2  0
  1 15  1  0
  3  2  1  0
  4  5  1  0
  4  3  2  0
  5  1  1  0
  6  4  1  0
  7  6  2  0
  8  7  1  0
  9  8  1  0
  9 14  2  0
 10 11  2  0
 10  9  1  0
 11 12  1  0
 12 13  2  0
 13 14  1  0
 14  6  1  0
 15 16  2  0
 15 20  1  0
 16 17  1  0
 17 18  2  0
 19 18  1  0
 20 19  2  0
  2 21  1  0
  3 22  1  0
  7 23  1  0
  8 24  1  0
 10 25  1  0
 11 26  1  0
 12 27  1  0
 13 28  1  0
 16 29  1  0
 17 30  1  0
 19 31  1  0
M  ISO  8  21  14  22  14  23  14  24   9  25  14  26  14  27  14  28  14
M  ISO  3  29  14  30  14  31  14
M  END
>  <minimizedAffinity>  (1) 
-4.67173147

>  <minimizedRMSD>  (1) 
2.60109711

$$$$
