
     RDKit          3D

 30 32  0  0  0  0  0  0  0  0999 V2000
   37.2460   21.6080   35.3060 C   0  0  0  0  0  0  0  0  0  0  0  0
   35.9370   21.1500   35.5370 C   0  0  0  0  0  0  0  0  0  0  0  0
   35.4960   20.5520   34.3690 C   0  0  0  0  0  0  0  0  0  0  0  0
   36.5430   20.6750   33.5020 C   0  0  0  0  0  0  0  0  0  0  0  0
   37.5510   21.3010   34.0940 O   0  0  0  0  0  0  0  0  0  0  0  0
   36.5520   20.1960   32.1500 N   0  0  0  0  0  0  0  0  0  0  0  0
   36.6590   18.9010   31.8870 C   0  0  0  0  0  0  0  0  0  0  0  0
   36.6740   18.3710   30.5930 C   0  0  0  0  0  0  0  0  0  0  0  0
   36.8010   16.8780   30.4950 C   0  0  0  0  0  0  0  0  0  0  0  0
   36.5690   19.2600   29.5320 C   0  0  0  0  0  0  0  0  0  0  0  0
   36.5880   18.7330   28.4120 O   0  0  0  0  0  0  0  0  0  0  0  0
   36.4630   20.5660   29.8320 N   0  0  0  0  0  0  0  0  0  0  0  0
   36.4530   21.0300   31.0980 C   0  0  0  0  0  0  0  0  0  0  0  0
   36.3510   22.2560   31.2630 O   0  0  0  0  0  0  0  0  0  0  0  0
   37.9930   22.2920   36.3620 C   0  0  0  0  0  0  0  0  0  0  0  0
   39.3780   22.2380   36.4880 C   0  0  0  0  0  0  0  0  0  0  0  0
   39.9570   22.9470   37.5530 C   0  0  0  0  0  0  0  0  0  0  0  0
   39.1500   23.6510   38.4100 N   0  0  0  0  0  0  0  0  0  0  0  0
   37.8190   23.6730   38.2460 C   0  0  0  0  0  0  0  0  0  0  0  0
   37.2370   23.0050   37.2360 N   0  0  0  0  0  0  0  0  0  0  0  0
   35.3681   21.2487   36.4733 H   0  0  0  0  0  0  0  0  0  0  0  0
   34.5192   20.0822   34.1814 H   0  0  0  0  0  0  0  0  0  0  0  0
   36.7406   18.2043   32.7343 H   0  0  0  0  0  0  0  0  0  0  0  0
   36.8377   16.4460   31.5060 H   0  0  0  0  0  0  0  0  0  0  0  0
   35.9342   16.4710   29.9536 H   0  0  0  0  0  0  0  0  0  0  0  0
   37.7241   16.6233   29.9536 H   0  0  0  0  0  0  0  0  0  0  0  0
   36.3859   21.2431   29.0597 H   0  0  0  0  0  0  0  0  0  0  0  0
   39.9946   21.6629   35.7815 H   0  0  0  0  0  0  0  0  0  0  0  0
   41.0473   22.9378   37.6985 H   0  0  0  0  0  0  0  0  0  0  0  0
   37.1953   24.2458   38.9481 H   0  0  0  0  0  0  0  0  0  0  0  0
  1  2  2  0
  1 15  1  0
  3  2  1  0
  4  5  1  0
  4  3  2  0
  5  1  1  0
  6  4  1  0
  7  6  1  0
  8  7  2  0
  9  8  1  0
 10 12  1  0
 10  8  1  0
 11 10  2  0
 12 13  1  0
 13 14  2  0
 13  6  1  0
 15 16  2  0
 15 20  1  0
 16 17  1  0
 17 18  2  0
 19 18  1  0
 20 19  2  0
  2 21  1  0
  3 22  1  0
  7 23  1  0
  9 24  1  0
  9 25  1  0
  9 26  1  0
 12 27  1  0
 16 28  1  0
 17 29  1  0
 19 30  1  0
M  ISO  8  21  14  22  14  23  14  24   8  25   8  26   8  27   9  28  14
M  ISO  2  29  14  30  14
M  END
>  <minimizedAffinity>  (1) 
-4.4225831

>  <minimizedRMSD>  (1) 
1.25532484

$$$$
