
     RDKit          3D

 27 29  0  0  0  0  0  0  0  0999 V2000
   37.3850   21.5780   34.7340 C   0  0  0  0  0  0  0  0  0  0  0  0
   36.0470   21.1570   34.7670 C   0  0  0  0  0  0  0  0  0  0  0  0
   35.7400   20.6110   33.5350 C   0  0  0  0  0  0  0  0  0  0  0  0
   36.8890   20.7250   32.8260 C   0  0  0  0  0  0  0  0  0  0  0  0
   37.8350   21.3020   33.5710 O   0  0  0  0  0  0  0  0  0  0  0  0
   37.9940   22.1960   35.8950 C   0  0  0  0  0  0  0  0  0  0  0  0
   39.3760   22.2340   36.1340 C   0  0  0  0  0  0  0  0  0  0  0  0
   39.8290   22.8610   37.2920 C   0  0  0  0  0  0  0  0  0  0  0  0
   38.9250   23.4100   38.1440 N   0  0  0  0  0  0  0  0  0  0  0  0
   37.5920   23.3610   37.8940 C   0  0  0  0  0  0  0  0  0  0  0  0
   37.1510   22.7590   36.7810 N   0  0  0  0  0  0  0  0  0  0  0  0
   37.1530   20.3130   31.4510 C   0  0  0  0  0  0  0  0  0  0  0  0
   36.2760   19.4820   30.7840 C   0  0  0  0  0  0  0  0  0  0  0  0
   36.5410   19.1000   29.4820 C   0  0  0  0  0  0  0  0  0  0  0  0
   37.7020   19.5910   28.9220 C   0  0  0  0  0  0  0  0  0  0  0  0
   38.6210   20.4230   29.5280 C   0  0  0  0  0  0  0  0  0  0  0  0
   38.3160   20.7790   30.8290 C   0  0  0  0  0  0  0  0  0  0  0  0
   35.3623   21.2459   35.6233 H   0  0  0  0  0  0  0  0  0  0  0  0
   34.7822   20.1821   33.2055 H   0  0  0  0  0  0  0  0  0  0  0  0
   40.0837   21.7801   35.4247 H   0  0  0  0  0  0  0  0  0  0  0  0
   40.9052   22.9110   37.5138 H   0  0  0  0  0  0  0  0  0  0  0  0
   36.8789   23.8121   38.5997 H   0  0  0  0  0  0  0  0  0  0  0  0
   35.3664   19.1237   31.2882 H   0  0  0  0  0  0  0  0  0  0  0  0
   35.8621   18.4397   28.9225 H   0  0  0  0  0  0  0  0  0  0  0  0
   37.9172   19.2884   27.8866 H   0  0  0  0  0  0  0  0  0  0  0  0
   39.5276   20.7764   29.0150 H   0  0  0  0  0  0  0  0  0  0  0  0
   38.9990   21.4393   31.3837 H   0  0  0  0  0  0  0  0  0  0  0  0
  1  2  2  0
  1  6  1  0
  3  2  1  0
  4  3  2  0
  4  5  1  0
  5  1  1  0
  6  7  2  0
  6 11  1  0
  7  8  1  0
  8  9  2  0
 10  9  1  0
 11 10  2  0
 12  4  1  0
 13 12  2  0
 14 13  1  0
 15 14  2  0
 15 16  1  0
 16 17  2  0
 17 12  1  0
  2 18  1  0
  3 19  1  0
  7 20  1  0
  8 21  1  0
 10 22  1  0
 13 23  1  0
 14 24  1  0
 15 25  1  0
 16 26  1  0
 17 27  1  0
M  ISO  8  18  14  19  14  20  14  21  14  22  14  23  14  24  14  25  14
M  ISO  2  26  14  27  14
M  END
>  <minimizedAffinity>  (1) 
-4.39348745

>  <minimizedRMSD>  (1) 
1.20132077

$$$$
