
     RDKit          3D

 32 34  0  0  0  0  0  0  0  0999 V2000
   37.4800   21.7510   35.0490 C   0  0  0  0  0  0  0  0  0  0  0  0
   36.1850   21.2240   35.0730 C   0  0  0  0  0  0  0  0  0  0  0  0
   35.8760   20.7620   33.8020 C   0  0  0  0  0  0  0  0  0  0  0  0
   36.9870   21.0300   33.0750 C   0  0  0  0  0  0  0  0  0  0  0  0
   37.9150   21.6110   33.8350 O   0  0  0  0  0  0  0  0  0  0  0  0
   38.0960   22.3170   36.2340 C   0  0  0  0  0  0  0  0  0  0  0  0
   39.4720   22.2700   36.5000 C   0  0  0  0  0  0  0  0  0  0  0  0
   39.9120   22.8620   37.6890 C   0  0  0  0  0  0  0  0  0  0  0  0
   38.9960   23.4510   38.5250 N   0  0  0  0  0  0  0  0  0  0  0  0
   37.6880   23.4720   38.2330 C   0  0  0  0  0  0  0  0  0  0  0  0
   37.2220   22.9130   37.0970 N   0  0  0  0  0  0  0  0  0  0  0  0
   37.1710   20.7430   31.6940 N   0  0  0  0  0  0  0  0  0  0  0  0
   38.4970   20.7960   31.1460 C   0  0  0  0  0  0  0  0  0  0  0  0
   38.5110   20.6170   29.6560 C   0  0  0  0  0  0  0  0  0  0  0  0
   37.6940   19.4460   29.1810 C   0  0  0  0  0  0  0  0  0  0  0  0
   36.4660   19.1860   29.9890 C   0  0  0  0  0  0  0  0  0  0  0  0
   36.0880   20.3970   30.8020 C   0  0  0  0  0  0  0  0  0  0  0  0
   35.5235   21.1828   35.9509 H   0  0  0  0  0  0  0  0  0  0  0  0
   34.9435   20.2873   33.4627 H   0  0  0  0  0  0  0  0  0  0  0  0
   40.1749   21.7886   35.8042 H   0  0  0  0  0  0  0  0  0  0  0  0
   40.9803   22.8556   37.9511 H   0  0  0  0  0  0  0  0  0  0  0  0
   36.9846   23.9518   38.9294 H   0  0  0  0  0  0  0  0  0  0  0  0
   38.9398   21.7734   31.3880 H   0  0  0  0  0  0  0  0  0  0  0  0
   39.0741   19.9700   31.5872 H   0  0  0  0  0  0  0  0  0  0  0  0
   38.1109   21.5308   29.1924 H   0  0  0  0  0  0  0  0  0  0  0  0
   39.5536   20.4215   29.3649 H   0  0  0  0  0  0  0  0  0  0  0  0
   37.3885   19.6379   28.1418 H   0  0  0  0  0  0  0  0  0  0  0  0
   38.3317   18.5554   29.2814 H   0  0  0  0  0  0  0  0  0  0  0  0
   35.6365   18.9341   29.3119 H   0  0  0  0  0  0  0  0  0  0  0  0
   36.6691   18.3518   30.6766 H   0  0  0  0  0  0  0  0  0  0  0  0
   35.8862   21.2419   30.1271 H   0  0  0  0  0  0  0  0  0  0  0  0
   35.1876   20.1724   31.3926 H   0  0  0  0  0  0  0  0  0  0  0  0
  1  2  2  0
  1  6  1  0
  3  2  1  0
  4  3  2  0
  4  5  1  0
  5  1  1  0
  6  7  2  0
  6 11  1  0
  7  8  1  0
  8  9  2  0
 10  9  1  0
 11 10  2  0
 12  4  1  0
 13 12  1  0
 14 13  1  0
 15 14  1  0
 15 16  1  0
 16 17  1  0
 17 12  1  0
  2 18  1  0
  3 19  1  0
  7 20  1  0
  8 21  1  0
 10 22  1  0
 13 23  1  0
 13 24  1  0
 14 25  1  0
 14 26  1  0
 15 27  1  0
 15 28  1  0
 16 29  1  0
 16 30  1  0
 17 31  1  0
 17 32  1  0
M  ISO  8  18  14  19  14  20  14  21  14  22  14  23  13  24  13  25  13
M  ISO  7  26  13  27  13  28  13  29  13  30  13  31  13  32  13
M  END
>  <minimizedAffinity>  (1) 
-4.39335346

>  <minimizedRMSD>  (1) 
0.958612144

$$$$
