
     RDKit          3D

 29 31  0  0  0  0  0  0  0  0999 V2000
   37.3370   21.6630   35.0460 C   0  0  0  0  0  0  0  0  0  0  0  0
   36.0450   21.1260   35.1910 C   0  0  0  0  0  0  0  0  0  0  0  0
   35.6790   20.6230   33.9460 C   0  0  0  0  0  0  0  0  0  0  0  0
   36.7500   20.8790   33.1330 C   0  0  0  0  0  0  0  0  0  0  0  0
   37.6960   21.4910   33.8300 O   0  0  0  0  0  0  0  0  0  0  0  0
   38.0000   22.2720   36.1950 C   0  0  0  0  0  0  0  0  0  0  0  0
   39.3940   22.2300   36.3920 C   0  0  0  0  0  0  0  0  0  0  0  0
   39.9150   22.8480   37.5290 C   0  0  0  0  0  0  0  0  0  0  0  0
   39.0460   23.4650   38.3960 N   0  0  0  0  0  0  0  0  0  0  0  0
   37.7110   23.4830   38.1720 C   0  0  0  0  0  0  0  0  0  0  0  0
   37.2060   22.8930   37.0860 N   0  0  0  0  0  0  0  0  0  0  0  0
   36.8050   20.5280   31.7570 N   0  0  0  0  0  0  0  0  0  0  0  0
   35.8050   19.7550   31.0630 C   0  0  0  0  0  0  0  0  0  0  0  0
   36.5710   19.1130   29.9250 C   0  0  0  0  0  0  0  0  0  0  0  0
   37.7130   20.0380   29.6380 C   0  0  0  0  0  0  0  0  0  0  0  0
   37.8890   20.9030   30.8420 C   0  0  0  0  0  0  0  0  0  0  0  0
   35.4410   21.1073   36.1102 H   0  0  0  0  0  0  0  0  0  0  0  0
   34.7350   20.1278   33.6746 H   0  0  0  0  0  0  0  0  0  0  0  0
   40.0527   21.7246   35.6704 H   0  0  0  0  0  0  0  0  0  0  0  0
   40.9970   22.8414   37.7269 H   0  0  0  0  0  0  0  0  0  0  0  0
   37.0412   23.9846   38.8860 H   0  0  0  0  0  0  0  0  0  0  0  0
   35.3718   18.9903   31.7245 H   0  0  0  0  0  0  0  0  0  0  0  0
   34.9596   20.3669   30.7153 H   0  0  0  0  0  0  0  0  0  0  0  0
   36.9446   18.1225   30.2239 H   0  0  0  0  0  0  0  0  0  0  0  0
   35.9357   18.9627   29.0396 H   0  0  0  0  0  0  0  0  0  0  0  0
   38.6298   19.4594   29.4515 H   0  0  0  0  0  0  0  0  0  0  0  0
   37.5096   20.6465   28.7445 H   0  0  0  0  0  0  0  0  0  0  0  0
   38.8675   20.7173   31.3089 H   0  0  0  0  0  0  0  0  0  0  0  0
   37.8540   21.9719   30.5847 H   0  0  0  0  0  0  0  0  0  0  0  0
  1  2  2  0
  1  6  1  0
  3  2  1  0
  4  5  1  0
  4  3  2  0
  5  1  1  0
  6  7  2  0
  6 11  1  0
  7  8  1  0
  8  9  2  0
 10  9  1  0
 11 10  2  0
 12  4  1  0
 13 12  1  0
 14 13  1  0
 15 14  1  0
 15 16  1  0
 16 12  1  0
  2 17  1  0
  3 18  1  0
  7 19  1  0
  8 20  1  0
 10 21  1  0
 13 22  1  0
 13 23  1  0
 14 24  1  0
 14 25  1  0
 15 26  1  0
 15 27  1  0
 16 28  1  0
 16 29  1  0
M  ISO  8  17  14  18  14  19  14  20  14  21  14  22  13  23  13  24  13
M  ISO  5  25  13  26  13  27  13  28  13  29  13
M  END
>  <minimizedAffinity>  (1) 
-4.34578514

>  <minimizedRMSD>  (1) 
0.730207741

$$$$
