
     RDKit          3D

 21 22  0  0  0  0  0  0  0  0999 V2000
   38.2010   22.5710   36.1220 C   0  0  0  0  0  0  0  0  0  0  0  0
   38.1710   23.7470   36.9150 C   0  0  0  0  0  0  0  0  0  0  0  0
   38.2190   24.9670   36.2550 C   0  0  0  0  0  0  0  0  0  0  0  0
   38.2920   24.9930   34.8950 N   0  0  0  0  0  0  0  0  0  0  0  0
   38.3180   23.8380   34.1860 C   0  0  0  0  0  0  0  0  0  0  0  0
   38.2740   22.6650   34.7880 N   0  0  0  0  0  0  0  0  0  0  0  0
   38.0920   23.7280   38.3980 C   0  0  0  0  0  0  0  0  0  0  0  0
   39.3670   23.4170   38.8570 F   0  0  0  0  0  0  0  0  0  0  0  0
   37.2410   22.8000   38.8790 F   0  0  0  0  0  0  0  0  0  0  0  0
   37.8650   25.0170   38.8990 F   0  0  0  0  0  0  0  0  0  0  0  0
   38.4150   24.0020   32.3960 S   0  0  0  0  0  0  0  0  0  0  0  0
   36.8940   24.7150   31.7850 C   0  0  0  0  0  0  0  0  0  0  0  0
   35.7460   24.1220   31.3650 C   0  0  0  0  0  0  0  0  0  0  0  0
   34.9160   25.1700   31.0090 C   0  0  0  0  0  0  0  0  0  0  0  0
   35.5810   26.3460   31.2220 C   0  0  0  0  0  0  0  0  0  0  0  0
   36.7760   26.0290   31.6930 O   0  0  0  0  0  0  0  0  0  0  0  0
   38.1643   21.5823   36.6027 H   0  0  0  0  0  0  0  0  0  0  0  0
   38.1982   25.9067   36.8264 H   0  0  0  0  0  0  0  0  0  0  0  0
   35.5251   23.0454   31.3183 H   0  0  0  0  0  0  0  0  0  0  0  0
   33.8918   25.0735   30.6195 H   0  0  0  0  0  0  0  0  0  0  0  0
   35.1964   27.3599   31.0373 H   0  0  0  0  0  0  0  0  0  0  0  0
  1  2  2  0
  2  7  1  0
  3  2  1  0
  4  3  2  0
  5  6  2  0
  5  4  1  0
  6  1  1  0
  7  8  1  0
  7  9  1  0
  7 10  1  0
 11  5  1  0
 12 11  1  0
 13 12  2  0
 14 15  2  0
 14 13  1  0
 15 16  1  0
 16 12  1  0
  1 17  1  0
  3 18  1  0
 13 19  1  0
 14 20  1  0
 15 21  1  0
M  ISO  5  17  14  18  14  19  14  20  14  21  14
M  END
>  <minimizedAffinity>  (1) 
-5.02481031

>  <minimizedRMSD>  (1) 
3.60425568

$$$$
