
     RDKit          3D

 25 27  0  0  0  0  0  0  0  0999 V2000
   37.4120   21.5940   34.7580 C   0  0  0  0  0  0  0  0  0  0  0  0
   36.0880   21.1860   34.7580 C   0  0  0  0  0  0  0  0  0  0  0  0
   35.7970   20.6500   33.5180 C   0  0  0  0  0  0  0  0  0  0  0  0
   36.9590   20.7620   32.8300 C   0  0  0  0  0  0  0  0  0  0  0  0
   37.8930   21.3210   33.5850 O   0  0  0  0  0  0  0  0  0  0  0  0
   38.0350   22.2100   35.9360 C   0  0  0  0  0  0  0  0  0  0  0  0
   39.4070   22.2420   36.1710 C   0  0  0  0  0  0  0  0  0  0  0  0
   39.8480   22.8650   37.3400 C   0  0  0  0  0  0  0  0  0  0  0  0
   38.9260   23.4140   38.1950 N   0  0  0  0  0  0  0  0  0  0  0  0
   37.6140   23.3580   37.9240 C   0  0  0  0  0  0  0  0  0  0  0  0
   37.1450   22.7670   36.8090 N   0  0  0  0  0  0  0  0  0  0  0  0
   37.1990   20.3400   31.4550 C   0  0  0  0  0  0  0  0  0  0  0  0
   36.3160   19.5340   30.7670 C   0  0  0  0  0  0  0  0  0  0  0  0
   36.5350   19.1280   29.4600 C   0  0  0  0  0  0  0  0  0  0  0  0
   37.6680   19.5370   28.8190 N   0  0  0  0  0  0  0  0  0  0  0  0
   38.5260   20.3290   29.5090 C   0  0  0  0  0  0  0  0  0  0  0  0
   38.3070   20.7270   30.7960 N   0  0  0  0  0  0  0  0  0  0  0  0
   35.3875   21.2738   35.6016 H   0  0  0  0  0  0  0  0  0  0  0  0
   34.8421   20.2294   33.1697 H   0  0  0  0  0  0  0  0  0  0  0  0
   40.1175   21.7928   35.4615 H   0  0  0  0  0  0  0  0  0  0  0  0
   40.9219   22.9151   37.5728 H   0  0  0  0  0  0  0  0  0  0  0  0
   36.9017   23.8070   38.6318 H   0  0  0  0  0  0  0  0  0  0  0  0
   35.4003   19.1997   31.2766 H   0  0  0  0  0  0  0  0  0  0  0  0
   35.8053   18.4848   28.9464 H   0  0  0  0  0  0  0  0  0  0  0  0
   39.4440   20.6674   29.0063 H   0  0  0  0  0  0  0  0  0  0  0  0
  1  6  1  0
  2  1  2  0
  3  2  1  0
  4  3  2  0
  4  5  1  0
  5  1  1  0
  6  7  2  0
  6 11  1  0
  7  8  1  0
  8  9  2  0
 10  9  1  0
 11 10  2  0
 12  4  1  0
 13 12  2  0
 14 13  1  0
 15 14  2  0
 15 16  1  0
 16 17  2  0
 17 12  1  0
  2 18  1  0
  3 19  1  0
  7 20  1  0
  8 21  1  0
 10 22  1  0
 13 23  1  0
 14 24  1  0
 16 25  1  0
M  ISO  8  18  14  19  14  20  14  21  14  22  14  23  14  24  14  25  14
M  END
>  <minimizedAffinity>  (1) 
-4.17425346

>  <minimizedRMSD>  (1) 
1.43489134

$$$$
