
     RDKit          3D

 23 24  0  0  0  0  0  0  0  0999 V2000
   38.5000   22.7680   36.2220 C   0  0  0  0  0  0  0  0  0  0  0  0
   38.2450   23.8800   37.0540 C   0  0  0  0  0  0  0  0  0  0  0  0
   38.0880   25.1110   36.4470 C   0  0  0  0  0  0  0  0  0  0  0  0
   38.1830   25.2040   35.0910 N   0  0  0  0  0  0  0  0  0  0  0  0
   38.4290   24.1020   34.3300 C   0  0  0  0  0  0  0  0  0  0  0  0
   38.5840   22.9060   34.9000 N   0  0  0  0  0  0  0  0  0  0  0  0
   38.1450   23.7780   38.5310 C   0  0  0  0  0  0  0  0  0  0  0  0
   39.4150   23.4720   39.0030 F   0  0  0  0  0  0  0  0  0  0  0  0
   37.2930   22.8240   38.9500 F   0  0  0  0  0  0  0  0  0  0  0  0
   37.9000   25.0540   39.0930 F   0  0  0  0  0  0  0  0  0  0  0  0
   38.5370   24.3680   32.5610 S   0  0  0  0  0  0  0  0  0  0  0  0
   37.6090   25.7740   32.0140 C   0  0  0  0  0  0  0  0  0  0  0  0
   38.3630   26.9240   31.8230 C   0  0  0  0  0  0  0  0  0  0  0  0
   37.7560   28.0880   31.3960 C   0  0  0  0  0  0  0  0  0  0  0  0
   36.3860   28.1230   31.1540 C   0  0  0  0  0  0  0  0  0  0  0  0
   35.6660   26.9450   31.3580 C   0  0  0  0  0  0  0  0  0  0  0  0
   36.2660   25.8140   31.7740 N   0  0  0  0  0  0  0  0  0  0  0  0
   38.6312   21.7730   36.6724 H   0  0  0  0  0  0  0  0  0  0  0  0
   37.8882   26.0074   37.0525 H   0  0  0  0  0  0  0  0  0  0  0  0
   39.4465   26.9076   32.0123 H   0  0  0  0  0  0  0  0  0  0  0  0
   38.3600   28.9950   31.2459 H   0  0  0  0  0  0  0  0  0  0  0  0
   35.8895   29.0441   30.8148 H   0  0  0  0  0  0  0  0  0  0  0  0
   34.5815   26.9406   31.1743 H   0  0  0  0  0  0  0  0  0  0  0  0
  1  2  2  0
  2  7  1  0
  3  2  1  0
  4  3  2  0
  5  6  2  0
  5  4  1  0
  6  1  1  0
  7  9  1  0
  7  8  1  0
  7 10  1  0
 11  5  1  0
 12 11  1  0
 13 12  2  0
 14 13  1  0
 15 16  1  0
 15 14  2  0
 16 17  2  0
 17 12  1  0
  1 18  1  0
  3 19  1  0
 13 20  1  0
 14 21  1  0
 15 22  1  0
 16 23  1  0
M  ISO  6  18  14  19  14  20  14  21  14  22  14  23  14
M  END
>  <minimizedAffinity>  (1) 
-4.89792776

>  <minimizedRMSD>  (1) 
6.11188698

$$$$
