
     RDKit          3D

 24 26  0  0  0  0  0  0  0  0999 V2000
   37.3120   21.6010   34.9820 C   0  0  0  0  0  0  0  0  0  0  0  0
   36.0120   21.1320   35.0860 C   0  0  0  0  0  0  0  0  0  0  0  0
   35.6420   20.5980   33.8740 C   0  0  0  0  0  0  0  0  0  0  0  0
   36.7330   20.7670   33.0890 C   0  0  0  0  0  0  0  0  0  0  0  0
   37.7130   21.3670   33.7760 O   0  0  0  0  0  0  0  0  0  0  0  0
   37.9940   22.2290   36.1130 C   0  0  0  0  0  0  0  0  0  0  0  0
   39.3780   22.2130   36.3020 C   0  0  0  0  0  0  0  0  0  0  0  0
   39.8700   22.8620   37.4380 C   0  0  0  0  0  0  0  0  0  0  0  0
   39.0120   23.4700   38.2980 N   0  0  0  0  0  0  0  0  0  0  0  0
   37.6820   23.4650   38.0830 C   0  0  0  0  0  0  0  0  0  0  0  0
   37.1680   22.8520   37.0020 N   0  0  0  0  0  0  0  0  0  0  0  0
   36.9400   20.4080   31.7260 N   0  0  0  0  0  0  0  0  0  0  0  0
   36.0860   19.5880   31.0540 C   0  0  0  0  0  0  0  0  0  0  0  0
   36.5570   19.4280   29.7510 C   0  0  0  0  0  0  0  0  0  0  0  0
   37.6750   20.1450   29.6550 N   0  0  0  0  0  0  0  0  0  0  0  0
   37.9200   20.7440   30.8410 C   0  0  0  0  0  0  0  0  0  0  0  0
   35.3821   21.1790   35.9866 H   0  0  0  0  0  0  0  0  0  0  0  0
   34.6798   20.1385   33.6037 H   0  0  0  0  0  0  0  0  0  0  0  0
   40.0500   21.7125   35.5893 H   0  0  0  0  0  0  0  0  0  0  0  0
   40.9519   22.8804   37.6356 H   0  0  0  0  0  0  0  0  0  0  0  0
   37.0116   23.9660   38.7969 H   0  0  0  0  0  0  0  0  0  0  0  0
   35.1768   19.1286   31.4691 H   0  0  0  0  0  0  0  0  0  0  0  0
   36.0940   18.8254   28.9557 H   0  0  0  0  0  0  0  0  0  0  0  0
   38.7760   21.3998   31.0580 H   0  0  0  0  0  0  0  0  0  0  0  0
  1  2  2  0
  1  6  1  0
  3  2  1  0
  4  5  1  0
  4  3  2  0
  5  1  1  0
  6  7  2  0
  6 11  1  0
  7  8  1  0
  8  9  2  0
 10  9  1  0
 11 10  2  0
 12  4  1  0
 13 12  1  0
 14 13  2  0
 15 14  1  0
 15 16  2  0
 16 12  1  0
  2 17  1  0
  3 18  1  0
  7 19  1  0
  8 20  1  0
 10 21  1  0
 13 22  1  0
 14 23  1  0
 16 24  1  0
M  ISO  8  17  14  18  14  19  14  20  14  21  14  22  14  23  14  24  14
M  END
>  <minimizedAffinity>  (1) 
-4.16129351

>  <minimizedRMSD>  (1) 
0.980535328

$$$$
