
     RDKit          3D

 23 25  0  0  0  0  0  0  0  0999 V2000
   37.3540   21.6130   34.9820 C   0  0  0  0  0  0  0  0  0  0  0  0
   36.0350   21.1450   35.0920 C   0  0  0  0  0  0  0  0  0  0  0  0
   35.6970   20.6020   33.8560 C   0  0  0  0  0  0  0  0  0  0  0  0
   36.8170   20.7720   33.0870 C   0  0  0  0  0  0  0  0  0  0  0  0
   37.7690   21.3720   33.7890 O   0  0  0  0  0  0  0  0  0  0  0  0
   38.0040   22.2460   36.1270 C   0  0  0  0  0  0  0  0  0  0  0  0
   39.3830   22.2370   36.3510 C   0  0  0  0  0  0  0  0  0  0  0  0
   39.8680   22.8830   37.4880 C   0  0  0  0  0  0  0  0  0  0  0  0
   38.9870   23.4900   38.3270 N   0  0  0  0  0  0  0  0  0  0  0  0
   37.6670   23.4830   38.0890 C   0  0  0  0  0  0  0  0  0  0  0  0
   37.1920   22.8680   37.0040 N   0  0  0  0  0  0  0  0  0  0  0  0
   36.8360   20.3260   31.7320 N   0  0  0  0  0  0  0  0  0  0  0  0
   37.8920   20.6340   30.9260 C   0  0  0  0  0  0  0  0  0  0  0  0
   37.6780   20.0990   29.6920 N   0  0  0  0  0  0  0  0  0  0  0  0
   36.4840   19.4610   29.7500 C   0  0  0  0  0  0  0  0  0  0  0  0
   35.9860   19.6090   30.9990 N   0  0  0  0  0  0  0  0  0  0  0  0
   35.3925   21.1974   35.9833 H   0  0  0  0  0  0  0  0  0  0  0  0
   34.7431   20.1395   33.5624 H   0  0  0  0  0  0  0  0  0  0  0  0
   40.0667   21.7348   35.6507 H   0  0  0  0  0  0  0  0  0  0  0  0
   40.9467   22.9011   37.7026 H   0  0  0  0  0  0  0  0  0  0  0  0
   36.9781   23.9826   38.7860 H   0  0  0  0  0  0  0  0  0  0  0  0
   38.7740   21.2198   31.2243 H   0  0  0  0  0  0  0  0  0  0  0  0
   36.0028   18.9167   28.9241 H   0  0  0  0  0  0  0  0  0  0  0  0
  1  2  2  0
  1  6  1  0
  3  2  1  0
  4  5  1  0
  4  3  2  0
  5  1  1  0
  6  7  2  0
  6 11  1  0
  7  8  1  0
  8  9  2  0
 10  9  1  0
 11 10  2  0
 12  4  1  0
 13 12  1  0
 14 15  1  0
 14 13  2  0
 15 16  2  0
 16 12  1  0
  2 17  1  0
  3 18  1  0
  7 19  1  0
  8 20  1  0
 10 21  1  0
 13 22  1  0
 15 23  1  0
M  ISO  7  17  14  18  14  19  14  20  14  21  14  22  14  23  14
M  END
>  <minimizedAffinity>  (1) 
-4.10571623

>  <minimizedRMSD>  (1) 
1.02265012

$$$$
