
     RDKit          3D

 22 23  0  0  0  0  0  0  0  0999 V2000
   38.1440   22.6920   36.2120 C   0  0  0  0  0  0  0  0  0  0  0  0
   38.1330   23.8450   37.0190 C   0  0  0  0  0  0  0  0  0  0  0  0
   38.0720   25.0800   36.3910 C   0  0  0  0  0  0  0  0  0  0  0  0
   38.0260   25.1470   35.0320 N   0  0  0  0  0  0  0  0  0  0  0  0
   38.0380   24.0060   34.2920 C   0  0  0  0  0  0  0  0  0  0  0  0
   38.0960   22.8210   34.8720 N   0  0  0  0  0  0  0  0  0  0  0  0
   38.1830   23.7850   38.5190 C   0  0  0  0  0  0  0  0  0  0  0  0
   39.4740   23.4350   38.8660 F   0  0  0  0  0  0  0  0  0  0  0  0
   37.3440   22.8240   39.0090 F   0  0  0  0  0  0  0  0  0  0  0  0
   37.9700   25.0470   39.0760 F   0  0  0  0  0  0  0  0  0  0  0  0
   37.9760   24.1440   32.5160 S   0  0  0  0  0  0  0  0  0  0  0  0
   37.3890   22.6740   31.7390 C   0  0  0  0  0  0  0  0  0  0  0  0
   36.0210   22.4890   31.7200 C   0  0  0  0  0  0  0  0  0  0  0  0
   35.4500   21.3800   31.1410 C   0  0  0  0  0  0  0  0  0  0  0  0
   36.2210   20.4300   30.5700 N   0  0  0  0  0  0  0  0  0  0  0  0
   37.5550   20.6200   30.5950 C   0  0  0  0  0  0  0  0  0  0  0  0
   38.1460   21.7080   31.1600 N   0  0  0  0  0  0  0  0  0  0  0  0
   38.1914   21.6938   36.6717 H   0  0  0  0  0  0  0  0  0  0  0  0
   38.0608   26.0030   36.9893 H   0  0  0  0  0  0  0  0  0  0  0  0
   35.3711   23.2481   32.1798 H   0  0  0  0  0  0  0  0  0  0  0  0
   34.3559   21.2659   31.1431 H   0  0  0  0  0  0  0  0  0  0  0  0
   38.1994   19.8563   30.1350 H   0  0  0  0  0  0  0  0  0  0  0  0
  1  2  2  0
  2  7  1  0
  3  2  1  0
  4  3  2  0
  5  6  2  0
  5  4  1  0
  6  1  1  0
  7  8  1  0
  7  9  1  0
  7 10  1  0
 11  5  1  0
 12 11  1  0
 13 12  2  0
 14 13  1  0
 15 16  1  0
 15 14  2  0
 16 17  2  0
 17 12  1  0
  1 18  1  0
  3 19  1  0
 13 20  1  0
 14 21  1  0
 16 22  1  0
M  ISO  5  18  14  19  14  20  14  21  14  22  14
M  END
>  <minimizedAffinity>  (1) 
-4.85569143

>  <minimizedRMSD>  (1) 
2.99684453

$$$$
