
     RDKit          3D

 19 20  0  0  0  0  0  0  0  0999 V2000
   37.1890   21.7710   35.0880 C   0  0  0  0  0  0  0  0  0  0  0  0
   36.0850   20.9480   35.2960 C   0  0  0  0  0  0  0  0  0  0  0  0
   35.5740   20.6120   34.0580 C   0  0  0  0  0  0  0  0  0  0  0  0
   36.3780   21.2370   33.1660 C   0  0  0  0  0  0  0  0  0  0  0  0
   37.3320   21.9220   33.8110 O   0  0  0  0  0  0  0  0  0  0  0  0
   37.9600   22.3030   36.2000 C   0  0  0  0  0  0  0  0  0  0  0  0
   39.3430   22.1980   36.3280 C   0  0  0  0  0  0  0  0  0  0  0  0
   39.9610   22.7490   37.4380 C   0  0  0  0  0  0  0  0  0  0  0  0
   39.1920   23.3750   38.3720 N   0  0  0  0  0  0  0  0  0  0  0  0
   37.8480   23.4690   38.2340 C   0  0  0  0  0  0  0  0  0  0  0  0
   37.2450   22.9350   37.1580 N   0  0  0  0  0  0  0  0  0  0  0  0
   36.2720   21.2080   31.7450 N   0  0  0  0  0  0  0  0  0  0  0  0
   35.6911   20.6241   36.2706 H   0  0  0  0  0  0  0  0  0  0  0  0
   34.7032   19.9751   33.8433 H   0  0  0  0  0  0  0  0  0  0  0  0
   39.9365   21.6841   35.5575 H   0  0  0  0  0  0  0  0  0  0  0  0
   41.0518   22.6825   37.5631 H   0  0  0  0  0  0  0  0  0  0  0  0
   37.2504   23.9820   39.0019 H   0  0  0  0  0  0  0  0  0  0  0  0
   35.5201   20.6661   31.2956 H   0  0  0  0  0  0  0  0  0  0  0  0
   36.9472   21.7290   31.1675 H   0  0  0  0  0  0  0  0  0  0  0  0
  1  2  2  0
  1  6  1  0
  3  2  1  0
  4  5  1  0
  4  3  2  0
  5  1  1  0
  6  7  2  0
  6 11  1  0
  7  8  1  0
  8  9  2  0
 10  9  1  0
 11 10  2  0
 12  4  1  0
  2 13  1  0
  3 14  1  0
  7 15  1  0
  8 16  1  0
 10 17  1  0
 12 18  1  0
 12 19  1  0
M  ISO  5  13  14  14  14  15  14  16  14  17  14
M  END
>  <minimizedAffinity>  (1) 
-3.85311508

>  <minimizedRMSD>  (1) 
0.0160482377

$$$$
