
     RDKit          3D

 18 19  0  0  0  0  0  0  0  0999 V2000
   37.9740   22.2960   36.2060 C   0  0  0  0  0  0  0  0  0  0  0  0
   39.3560   22.1970   36.3350 C   0  0  0  0  0  0  0  0  0  0  0  0
   39.9730   22.7520   37.4440 C   0  0  0  0  0  0  0  0  0  0  0  0
   39.1890   23.3830   38.3770 N   0  0  0  0  0  0  0  0  0  0  0  0
   37.8520   23.4720   38.2360 C   0  0  0  0  0  0  0  0  0  0  0  0
   37.2420   22.9370   37.1660 N   0  0  0  0  0  0  0  0  0  0  0  0
   37.1940   21.7620   35.0960 C   0  0  0  0  0  0  0  0  0  0  0  0
   36.0860   20.9530   35.3040 C   0  0  0  0  0  0  0  0  0  0  0  0
   35.5760   20.6170   34.0620 C   0  0  0  0  0  0  0  0  0  0  0  0
   36.3920   21.2320   33.1720 C   0  0  0  0  0  0  0  0  0  0  0  0
   37.3520   21.9100   33.8180 O   0  0  0  0  0  0  0  0  0  0  0  0
   36.4460   21.3080   31.7870 O   0  0  0  0  0  0  0  0  0  0  0  0
   39.9514   21.6841   35.5654 H   0  0  0  0  0  0  0  0  0  0  0  0
   41.0635   22.6886   37.5735 H   0  0  0  0  0  0  0  0  0  0  0  0
   37.2554   23.9870   39.0034 H   0  0  0  0  0  0  0  0  0  0  0  0
   35.6859   20.6364   36.2785 H   0  0  0  0  0  0  0  0  0  0  0  0
   34.6999   19.9883   33.8449 H   0  0  0  0  0  0  0  0  0  0  0  0
   35.7716   20.8342   31.2386 H   0  0  0  0  0  0  0  0  0  0  0  0
  1  2  2  0
  1  6  1  0
  2  3  1  0
  3  4  2  0
  5  4  1  0
  6  5  2  0
  7  8  2  0
  7  1  1  0
  9  8  1  0
 10 11  1  0
 10  9  2  0
 11  7  1  0
 12 10  1  0
  2 13  1  0
  3 14  1  0
  5 15  1  0
  8 16  1  0
  9 17  1  0
 12 18  1  0
M  ISO  6  13  14  14  14  15  14  16  14  17  14  18   3
M  END
>  <minimizedAffinity>  (1) 
-3.83851933

>  <minimizedRMSD>  (1) 
0.0149702411

$$$$
