
     RDKit          3D

 26 27  0  0  0  0  0  0  0  0999 V2000
   37.2210   21.7910   35.1750 C   0  0  0  0  0  0  0  0  0  0  0  0
   36.1110   20.9680   35.4370 C   0  0  0  0  0  0  0  0  0  0  0  0
   35.5850   20.6040   34.2000 C   0  0  0  0  0  0  0  0  0  0  0  0
   36.3960   21.2200   33.2760 C   0  0  0  0  0  0  0  0  0  0  0  0
   37.3350   21.8980   33.9050 O   0  0  0  0  0  0  0  0  0  0  0  0
   37.9940   22.3390   36.2850 C   0  0  0  0  0  0  0  0  0  0  0  0
   39.3950   22.2010   36.3830 C   0  0  0  0  0  0  0  0  0  0  0  0
   40.0210   22.7690   37.4950 C   0  0  0  0  0  0  0  0  0  0  0  0
   39.2710   23.4200   38.4230 N   0  0  0  0  0  0  0  0  0  0  0  0
   37.9210   23.5330   38.2950 C   0  0  0  0  0  0  0  0  0  0  0  0
   37.3020   22.9950   37.2350 N   0  0  0  0  0  0  0  0  0  0  0  0
   36.3290   21.1970   31.7880 C   0  0  0  0  0  0  0  0  0  0  0  0
   35.6740   22.4170   31.2280 C   0  0  0  0  0  0  0  0  0  0  0  0
   35.5400   19.9580   31.4130 C   0  0  0  0  0  0  0  0  0  0  0  0
   35.7323   20.6700   36.4258 H   0  0  0  0  0  0  0  0  0  0  0  0
   34.7120   19.9639   34.0048 H   0  0  0  0  0  0  0  0  0  0  0  0
   39.9717   21.6668   35.6135 H   0  0  0  0  0  0  0  0  0  0  0  0
   41.1112   22.6902   37.6186 H   0  0  0  0  0  0  0  0  0  0  0  0
   37.3382   24.0655   39.0610 H   0  0  0  0  0  0  0  0  0  0  0  0
   37.3459   21.1804   31.3690 H   0  0  0  0  0  0  0  0  0  0  0  0
   35.3293   23.0591   32.0520 H   0  0  0  0  0  0  0  0  0  0  0  0
   36.3965   22.9700   30.6098 H   0  0  0  0  0  0  0  0  0  0  0  0
   34.8139   22.1204   30.6098 H   0  0  0  0  0  0  0  0  0  0  0  0
   35.2114   19.4419   32.3272 H   0  0  0  0  0  0  0  0  0  0  0  0
   34.6605   20.2490   30.8199 H   0  0  0  0  0  0  0  0  0  0  0  0
   36.1756   19.2841   30.8199 H   0  0  0  0  0  0  0  0  0  0  0  0
  1  2  2  0
  1  6  1  0
  3  2  1  0
  4  5  1  0
  4  3  2  0
  5  1  1  0
  6  7  2  0
  6 11  1  0
  7  8  1  0
  8  9  2  0
 10  9  1  0
 11 10  2  0
 12  4  1  0
 13 12  1  0
 14 12  1  0
  2 15  1  0
  3 16  1  0
  7 17  1  0
  8 18  1  0
 10 19  1  0
 12 20  1  0
 13 21  1  0
 13 22  1  0
 13 23  1  0
 14 24  1  0
 14 25  1  0
 14 26  1  0
M  ISO  8  15  14  16  14  17  14  18  14  19  14  20   8  21   8  22   8
M  ISO  4  23   8  24   8  25   8  26   8
M  END
>  <minimizedAffinity>  (1) 
-4.44015455

>  <minimizedRMSD>  (1) 
0.148903579

$$$$
