
     RDKit          3D

 40 43  0  0  1  0  0  0  0  0999 V2000
   36.4570   21.0780   31.7190 C   0  0  2  0  0  0  0  0  0  0  0  0
   37.2120   21.7320   35.1300 C   0  0  0  0  0  0  0  0  0  0  0  0
   36.0560   20.9820   35.3490 C   0  0  0  0  0  0  0  0  0  0  0  0
   35.5840   20.6140   34.0890 C   0  0  0  0  0  0  0  0  0  0  0  0
   36.4830   21.1610   33.1940 C   0  0  0  0  0  0  0  0  0  0  0  0
   37.4080   21.7990   33.8580 O   0  0  0  0  0  0  0  0  0  0  0  0
   37.9670   22.2820   36.2460 C   0  0  0  0  0  0  0  0  0  0  0  0
   39.3510   22.1930   36.3890 C   0  0  0  0  0  0  0  0  0  0  0  0
   39.9370   22.7760   37.5030 C   0  0  0  0  0  0  0  0  0  0  0  0
   39.1640   23.4100   38.4130 N   0  0  0  0  0  0  0  0  0  0  0  0
   37.8150   23.4870   38.2570 C   0  0  0  0  0  0  0  0  0  0  0  0
   37.2500   22.9270   37.1860 N   0  0  0  0  0  0  0  0  0  0  0  0
   35.4270   22.0170   31.1280 C   0  0  0  0  0  0  0  0  0  0  0  0
   36.1830   19.6720   31.3120 C   0  0  0  0  0  0  0  0  0  0  0  0
   37.2460   18.6960   31.5310 C   0  0  0  0  0  0  0  0  0  0  0  0
   38.5820   18.8390   31.3770 N   0  0  0  0  0  0  0  0  0  0  0  0
   39.4940   17.9040   31.5790 C   0  0  0  0  0  0  0  0  0  0  0  0
   39.1420   16.6640   31.9760 N   0  0  0  0  0  0  0  0  0  0  0  0
   37.8150   16.3970   32.1660 C   0  0  0  0  0  0  0  0  0  0  0  0
   37.5090   15.1210   32.5780 C   0  0  0  0  0  0  0  0  0  0  0  0
   36.1810   14.8150   32.7890 C   0  0  0  0  0  0  0  0  0  0  0  0
   35.2140   15.7810   32.5850 C   0  0  0  0  0  0  0  0  0  0  0  0
   35.6180   17.0350   32.1710 C   0  0  0  0  0  0  0  0  0  0  0  0
   36.9100   17.4140   31.9400 C   0  0  0  0  0  0  0  0  0  0  0  0
   37.4385   21.3883   31.3312 H   0  0  0  0  0  0  0  0  0  0  0  0
   35.6066   20.7310   36.3211 H   0  0  0  0  0  0  0  0  0  0  0  0
   34.6893   20.0172   33.8580 H   0  0  0  0  0  0  0  0  0  0  0  0
   39.9631   21.6734   35.6371 H   0  0  0  0  0  0  0  0  0  0  0  0
   41.0264   22.7226   37.6454 H   0  0  0  0  0  0  0  0  0  0  0  0
   37.1971   24.0050   39.0052 H   0  0  0  0  0  0  0  0  0  0  0  0
   34.8783   22.5172   31.9397 H   0  0  0  0  0  0  0  0  0  0  0  0
   35.9322   22.7718   30.5075 H   0  0  0  0  0  0  0  0  0  0  0  0
   34.7220   21.4443   30.5075 H   0  0  0  0  0  0  0  0  0  0  0  0
   35.9548   19.6773   30.2359 H   0  0  0  0  0  0  0  0  0  0  0  0
   35.3580   19.3440   31.9615 H   0  0  0  0  0  0  0  0  0  0  0  0
   40.5565   18.1408   31.4209 H   0  0  0  0  0  0  0  0  0  0  0  0
   38.2972   14.3697   32.7340 H   0  0  0  0  0  0  0  0  0  0  0  0
   35.8925   13.8059   33.1184 H   0  0  0  0  0  0  0  0  0  0  0  0
   34.1495   15.5567   32.7482 H   0  0  0  0  0  0  0  0  0  0  0  0
   34.8347   17.7912   32.0143 H   0  0  0  0  0  0  0  0  0  0  0  0
  1  5  1  0
  2  3  2  0
  2  7  1  0
  4  3  1  0
  5  6  1  0
  5  4  2  0
  6  2  1  0
  7  8  2  0
  7 12  1  0
  8  9  1  0
  9 10  2  0
 11 10  1  0
 12 11  2  0
 13  1  1  0
 14 15  1  0
 14  1  1  0
 15 24  1  0
 16 15  2  0
 16 17  1  0
 17 18  2  0
 18 19  1  0
 19 20  1  0
 20 21  2  0
 22 21  1  0
 23 22  2  0
 24 19  2  0
 24 23  1  0
  1 25  1  6
  3 26  1  0
  4 27  1  0
  8 28  1  0
  9 29  1  0
 11 30  1  0
 13 31  1  0
 13 32  1  0
 13 33  1  0
 14 34  1  0
 14 35  1  0
 17 36  1  0
 20 37  1  0
 21 38  1  0
 22 39  1  0
 23 40  1  0
M  ISO  8  25   8  26  14  27  14  28  14  29  14  30  14  31   8  32   8
M  ISO  8  33   8  34   8  35   8  36  14  37  14  38  14  39  14  40  14
M  END
>  <minimizedAffinity>  (1) 
-5.6678195

>  <minimizedRMSD>  (1) 
1.33146358

$$$$
