
     RDKit          3D

 40 43  0  0  1  0  0  0  0  0999 V2000
   36.3030   21.6320   31.7480 C   0  0  2  0  0  0  0  0  0  0  0  0
   37.2780   21.9150   35.1570 C   0  0  0  0  0  0  0  0  0  0  0  0
   36.2250   20.9900   35.3640 C   0  0  0  0  0  0  0  0  0  0  0  0
   35.6740   20.7220   34.1110 C   0  0  0  0  0  0  0  0  0  0  0  0
   36.4200   21.4910   33.2320 C   0  0  0  0  0  0  0  0  0  0  0  0
   37.3320   22.1580   33.9040 O   0  0  0  0  0  0  0  0  0  0  0  0
   38.0560   22.3970   36.2920 C   0  0  0  0  0  0  0  0  0  0  0  0
   39.4400   22.2210   36.4010 C   0  0  0  0  0  0  0  0  0  0  0  0
   40.0380   22.7440   37.5570 C   0  0  0  0  0  0  0  0  0  0  0  0
   39.2990   23.3770   38.4940 N   0  0  0  0  0  0  0  0  0  0  0  0
   37.9550   23.5260   38.3470 C   0  0  0  0  0  0  0  0  0  0  0  0
   37.3590   23.0380   37.2600 N   0  0  0  0  0  0  0  0  0  0  0  0
   35.7800   23.0030   31.3760 C   0  0  0  0  0  0  0  0  0  0  0  0
   35.3390   20.5760   31.2940 C   0  0  0  0  0  0  0  0  0  0  0  0
   36.1360   19.4710   30.7500 N   0  0  0  0  0  0  0  0  0  0  0  0
   37.0650   19.4080   29.7730 C   0  0  0  0  0  0  0  0  0  0  0  0
   37.5000   18.1390   29.6640 N   0  0  0  0  0  0  0  0  0  0  0  0
   36.8770   17.3720   30.5460 C   0  0  0  0  0  0  0  0  0  0  0  0
   36.9630   16.0380   30.8280 C   0  0  0  0  0  0  0  0  0  0  0  0
   37.7330   15.2410   30.2280 O   0  0  0  0  0  0  0  0  0  0  0  0
   36.1940   15.5070   31.8000 N   0  0  0  0  0  0  0  0  0  0  0  0
   35.3580   16.3430   32.4610 C   0  0  0  0  0  0  0  0  0  0  0  0
   34.4870   15.9100   33.5130 N   0  0  0  0  0  0  0  0  0  0  0  0
   35.2560   17.6600   32.2000 N   0  0  0  0  0  0  0  0  0  0  0  0
   36.0170   18.2040   31.2330 C   0  0  0  0  0  0  0  0  0  0  0  0
   37.2860   21.5159   31.2682 H   0  0  0  0  0  0  0  0  0  0  0  0
   35.9041   20.5653   36.3266 H   0  0  0  0  0  0  0  0  0  0  0  0
   34.8354   20.0508   33.8737 H   0  0  0  0  0  0  0  0  0  0  0  0
   40.0243   21.7032   35.6261 H   0  0  0  0  0  0  0  0  0  0  0  0
   41.1231   22.6373   37.7025 H   0  0  0  0  0  0  0  0  0  0  0  0
   37.3660   24.0443   39.1180 H   0  0  0  0  0  0  0  0  0  0  0  0
   35.5625   23.5732   32.2912 H   0  0  0  0  0  0  0  0  0  0  0  0
   36.5379   23.5361   30.7832 H   0  0  0  0  0  0  0  0  0  0  0  0
   34.8596   22.8959   30.7832 H   0  0  0  0  0  0  0  0  0  0  0  0
   34.7366   20.2240   32.1444 H   0  0  0  0  0  0  0  0  0  0  0  0
   34.6508   20.9742   30.5339 H   0  0  0  0  0  0  0  0  0  0  0  0
   37.4107   20.2565   29.1643 H   0  0  0  0  0  0  0  0  0  0  0  0
   36.2405   14.5043   32.0310 H   0  0  0  0  0  0  0  0  0  0  0  0
   33.8706   16.5881   33.9832 H   0  0  0  0  0  0  0  0  0  0  0  0
   34.4773   14.9206   33.7991 H   0  0  0  0  0  0  0  0  0  0  0  0
  1  5  1  0
  2  3  2  0
  2  7  1  0
  4  3  1  0
  5  6  1  0
  5  4  2  0
  6  2  1  0
  7  8  2  0
  7 12  1  0
  8  9  1  0
  9 10  2  0
 11 10  1  0
 12 11  2  0
 13  1  1  0
 14  1  1  0
 15 25  1  0
 15 14  1  0
 16 15  1  0
 17 16  2  0
 17 18  1  0
 18 19  1  0
 18 25  2  0
 19 21  1  0
 20 19  2  0
 21 22  1  0
 22 23  1  0
 24 22  2  0
 25 24  1  0
  1 26  1  6
  3 27  1  0
  4 28  1  0
  8 29  1  0
  9 30  1  0
 11 31  1  0
 13 32  1  0
 13 33  1  0
 13 34  1  0
 14 35  1  0
 14 36  1  0
 16 37  1  0
 21 38  1  0
 23 39  1  0
 23 40  1  0
M  ISO  8  26   8  27  14  28  14  29  14  30  14  31  14  32   8  33   8
M  ISO  5  34   8  35   8  36   8  37  14  38   9
M  END
>  <minimizedAffinity>  (1) 
-5.57178831

>  <minimizedRMSD>  (1) 
2.48862863

$$$$
