
     RDKit          3D

 27 28  0  0  1  0  0  0  0  0999 V2000
   38.7220   25.8950   35.0350 C   0  0  2  0  0  0  0  0  0  0  0  0
   39.5910   22.9900   37.1110 C   0  0  0  0  0  0  0  0  0  0  0  0
   38.8140   23.1470   38.2760 C   0  0  0  0  0  0  0  0  0  0  0  0
   37.9830   24.2730   38.3410 C   0  0  0  0  0  0  0  0  0  0  0  0
   37.9760   25.1440   37.2810 N   0  0  0  0  0  0  0  0  0  0  0  0
   38.7260   24.9590   36.1970 C   0  0  0  0  0  0  0  0  0  0  0  0
   39.5290   23.8790   36.1230 N   0  0  0  0  0  0  0  0  0  0  0  0
   40.0730   26.5650   35.0020 C   0  0  0  0  0  0  0  0  0  0  0  0
   37.6780   26.9610   35.1930 C   0  0  0  0  0  0  0  0  0  0  0  0
   36.9210   27.3240   34.0060 C   0  0  0  0  0  0  0  0  0  0  0  0
   36.2010   28.4360   33.6740 C   0  0  0  0  0  0  0  0  0  0  0  0
   35.5530   28.5790   32.4640 C   0  0  0  0  0  0  0  0  0  0  0  0
   35.6330   27.5760   31.5690 N   0  0  0  0  0  0  0  0  0  0  0  0
   36.3380   26.4730   31.8790 C   0  0  0  0  0  0  0  0  0  0  0  0
   36.9800   26.3270   33.0710 N   0  0  0  0  0  0  0  0  0  0  0  0
   38.5059   25.3322   34.1149 H   0  0  0  0  0  0  0  0  0  0  0  0
   40.2581   22.1204   37.0171 H   0  0  0  0  0  0  0  0  0  0  0  0
   38.8580   22.4176   39.0982 H   0  0  0  0  0  0  0  0  0  0  0  0
   37.3502   24.4547   39.2222 H   0  0  0  0  0  0  0  0  0  0  0  0
   40.4217   26.7379   36.0308 H   0  0  0  0  0  0  0  0  0  0  0  0
   40.7903   25.9182   34.4756 H   0  0  0  0  0  0  0  0  0  0  0  0
   39.9922   27.5275   34.4756 H   0  0  0  0  0  0  0  0  0  0  0  0
   36.9605   26.6132   35.9508 H   0  0  0  0  0  0  0  0  0  0  0  0
   38.2357   27.8692   35.4652 H   0  0  0  0  0  0  0  0  0  0  0  0
   36.1345   29.2555   34.4048 H   0  0  0  0  0  0  0  0  0  0  0  0
   34.9837   29.4921   32.2356 H   0  0  0  0  0  0  0  0  0  0  0  0
   36.3981   25.6586   31.1420 H   0  0  0  0  0  0  0  0  0  0  0  0
  1  9  1  0
  1  6  1  0
  2  3  2  0
  3  4  1  0
  5  4  2  0
  6  5  1  0
  7  6  2  0
  7  2  1  0
  8  1  1  0
 10  9  1  0
 11 10  2  0
 12 11  1  0
 13 14  1  0
 13 12  2  0
 14 15  2  0
 15 10  1  0
  1 16  1  6
  2 17  1  0
  3 18  1  0
  4 19  1  0
  8 20  1  0
  8 21  1  0
  8 22  1  0
  9 23  1  0
  9 24  1  0
 11 25  1  0
 12 26  1  0
 14 27  1  0
M  ISO  8  16   8  17  14  18  14  19  14  20   8  21   8  22   8  23   8
M  ISO  4  24   8  25  14  26  14  27  14
M  END
>  <minimizedAffinity>  (1) 
-4.31474161

>  <minimizedRMSD>  (1) 
1.33844411

$$$$
