
     RDKit          3D

 39 42  0  0  1  0  0  0  0  0999 V2000
   36.3000   21.3370   31.7730 C   0  0  2  0  0  0  0  0  0  0  0  0
   37.2240   21.8140   35.1770 C   0  0  0  0  0  0  0  0  0  0  0  0
   36.1480   20.9540   35.4140 C   0  0  0  0  0  0  0  0  0  0  0  0
   35.6210   20.6300   34.1730 C   0  0  0  0  0  0  0  0  0  0  0  0
   36.4060   21.3100   33.2560 C   0  0  0  0  0  0  0  0  0  0  0  0
   37.3320   21.9890   33.9040 O   0  0  0  0  0  0  0  0  0  0  0  0
   38.0060   22.3470   36.2920 C   0  0  0  0  0  0  0  0  0  0  0  0
   39.3940   22.2080   36.4080 C   0  0  0  0  0  0  0  0  0  0  0  0
   40.0090   22.7700   37.5270 C   0  0  0  0  0  0  0  0  0  0  0  0
   39.2610   23.4180   38.4450 N   0  0  0  0  0  0  0  0  0  0  0  0
   37.9180   23.5400   38.3120 C   0  0  0  0  0  0  0  0  0  0  0  0
   37.3270   23.0000   37.2390 N   0  0  0  0  0  0  0  0  0  0  0  0
   35.7410   22.6610   31.2950 C   0  0  0  0  0  0  0  0  0  0  0  0
   35.4300   20.1980   31.3570 C   0  0  0  0  0  0  0  0  0  0  0  0
   36.1520   19.1830   30.6120 N   0  0  0  0  0  0  0  0  0  0  0  0
   36.6610   19.2460   29.3460 C   0  0  0  0  0  0  0  0  0  0  0  0
   37.2530   18.0930   29.0380 N   0  0  0  0  0  0  0  0  0  0  0  0
   37.1470   17.2570   30.0860 C   0  0  0  0  0  0  0  0  0  0  0  0
   37.6130   15.9630   30.2150 C   0  0  0  0  0  0  0  0  0  0  0  0
   37.3600   15.3580   31.3940 N   0  0  0  0  0  0  0  0  0  0  0  0
   36.6850   16.0030   32.3770 C   0  0  0  0  0  0  0  0  0  0  0  0
   36.2500   17.2650   32.2080 N   0  0  0  0  0  0  0  0  0  0  0  0
   36.4600   17.9360   31.0710 C   0  0  0  0  0  0  0  0  0  0  0  0
   38.3220   15.2870   29.1800 N   0  0  0  0  0  0  0  0  0  0  0  0
   37.2957   21.2321   31.3175 H   0  0  0  0  0  0  0  0  0  0  0  0
   35.7896   20.6030   36.3929 H   0  0  0  0  0  0  0  0  0  0  0  0
   34.7637   19.9739   33.9619 H   0  0  0  0  0  0  0  0  0  0  0  0
   39.9789   21.6747   35.6442 H   0  0  0  0  0  0  0  0  0  0  0  0
   41.0976   22.6855   37.6605 H   0  0  0  0  0  0  0  0  0  0  0  0
   37.3252   24.0721   39.0706 H   0  0  0  0  0  0  0  0  0  0  0  0
   35.4784   23.2831   32.1634 H   0  0  0  0  0  0  0  0  0  0  0  0
   36.4967   23.1801   30.6872 H   0  0  0  0  0  0  0  0  0  0  0  0
   34.8419   22.4814   30.6872 H   0  0  0  0  0  0  0  0  0  0  0  0
   35.0021   19.7349   32.2583 H   0  0  0  0  0  0  0  0  0  0  0  0
   34.6487   20.6016   30.6961 H   0  0  0  0  0  0  0  0  0  0  0  0
   36.5923   20.1188   28.6800 H   0  0  0  0  0  0  0  0  0  0  0  0
   36.4898   15.4862   33.3282 H   0  0  0  0  0  0  0  0  0  0  0  0
   38.6490   14.3212   29.3257 H   0  0  0  0  0  0  0  0  0  0  0  0
   38.5075   15.7642   28.2863 H   0  0  0  0  0  0  0  0  0  0  0  0
  1  5  1  0
  2  3  2  0
  2  7  1  0
  4  3  1  0
  5  6  1  0
  5  4  2  0
  6  2  1  0
  7  8  2  0
  7 12  1  0
  8  9  1  0
  9 10  2  0
 11 10  1  0
 12 11  2  0
 13  1  1  0
 14  1  1  0
 15 23  1  0
 15 14  1  0
 16 15  1  0
 17 16  2  0
 17 18  1  0
 18 19  2  0
 18 23  1  0
 19 20  1  0
 20 21  2  0
 22 21  1  0
 23 22  2  0
 24 19  1  0
  1 25  1  6
  3 26  1  0
  4 27  1  0
  8 28  1  0
  9 29  1  0
 11 30  1  0
 13 31  1  0
 13 32  1  0
 13 33  1  0
 14 34  1  0
 14 35  1  0
 16 36  1  0
 21 37  1  0
 24 38  1  0
 24 39  1  0
M  ISO  8  25   8  26  14  27  14  28  14  29  14  30  14  31   8  32   8
M  ISO  5  33   8  34   8  35   8  36  14  37  14
M  END
>  <minimizedAffinity>  (1) 
-5.26438665

>  <minimizedRMSD>  (1) 
2.31308436

$$$$
