
     RDKit          3D

 37 39  0  0  1  0  0  0  0  0999 V2000
   36.2750   21.1270   31.9050 C   0  0  2  0  0  0  0  0  0  0  0  0
   37.2150   21.7860   35.2680 C   0  0  0  0  0  0  0  0  0  0  0  0
   36.0860   21.0060   35.5690 C   0  0  0  0  0  0  0  0  0  0  0  0
   35.5350   20.6220   34.3440 C   0  0  0  0  0  0  0  0  0  0  0  0
   36.3640   21.1910   33.3870 C   0  0  0  0  0  0  0  0  0  0  0  0
   37.3380   21.8660   33.9860 O   0  0  0  0  0  0  0  0  0  0  0  0
   38.0230   22.3480   36.3520 C   0  0  0  0  0  0  0  0  0  0  0  0
   39.4090   22.2030   36.4510 C   0  0  0  0  0  0  0  0  0  0  0  0
   40.0450   22.7990   37.5470 C   0  0  0  0  0  0  0  0  0  0  0  0
   39.3070   23.4830   38.4560 N   0  0  0  0  0  0  0  0  0  0  0  0
   37.9670   23.6070   38.3340 C   0  0  0  0  0  0  0  0  0  0  0  0
   37.3700   23.0380   37.2910 N   0  0  0  0  0  0  0  0  0  0  0  0
   35.7910   22.4380   31.3300 C   0  0  0  0  0  0  0  0  0  0  0  0
   35.3430   20.0060   31.5700 C   0  0  0  0  0  0  0  0  0  0  0  0
   36.0030   18.7640   31.2220 N   0  0  0  0  0  0  0  0  0  0  0  0
   36.0210   17.7830   32.1710 C   0  0  0  0  0  0  0  0  0  0  0  0
   36.5990   16.5540   32.0170 C   0  0  0  0  0  0  0  0  0  0  0  0
   37.2160   16.2650   30.8190 C   0  0  0  0  0  0  0  0  0  0  0  0
   37.8440   15.0130   30.5660 N   0  0  0  0  0  0  0  0  0  0  0  0
   37.1880   17.2430   29.8950 N   0  0  0  0  0  0  0  0  0  0  0  0
   36.6140   18.4440   30.0680 C   0  0  0  0  0  0  0  0  0  0  0  0
   36.6010   19.3440   29.1890 O   0  0  0  0  0  0  0  0  0  0  0  0
   37.2664   20.9461   31.4642 H   0  0  0  0  0  0  0  0  0  0  0  0
   35.7104   20.7487   36.5704 H   0  0  0  0  0  0  0  0  0  0  0  0
   34.6406   20.0044   34.1749 H   0  0  0  0  0  0  0  0  0  0  0  0
   39.9793   21.6417   35.6963 H   0  0  0  0  0  0  0  0  0  0  0  0
   41.1348   22.7130   37.6696 H   0  0  0  0  0  0  0  0  0  0  0  0
   37.3834   24.1658   39.0804 H   0  0  0  0  0  0  0  0  0  0  0  0
   35.5369   23.1263   32.1496 H   0  0  0  0  0  0  0  0  0  0  0  0
   36.5845   22.8821   30.7109 H   0  0  0  0  0  0  0  0  0  0  0  0
   34.8993   22.2599   30.7109 H   0  0  0  0  0  0  0  0  0  0  0  0
   34.6993   19.8210   32.4426 H   0  0  0  0  0  0  0  0  0  0  0  0
   34.7782   20.3219   30.6805 H   0  0  0  0  0  0  0  0  0  0  0  0
   35.5331   17.9979   33.1332 H   0  0  0  0  0  0  0  0  0  0  0  0
   36.5723   15.8133   32.8298 H   0  0  0  0  0  0  0  0  0  0  0  0
   38.2942   14.8372   29.6565 H   0  0  0  0  0  0  0  0  0  0  0  0
   37.8482   14.2828   31.2925 H   0  0  0  0  0  0  0  0  0  0  0  0
  1  5  1  0
  2  3  2  0
  2  7  1  0
  4  3  1  0
  5  6  1  0
  5  4  2  0
  6  2  1  0
  7  8  2  0
  7 12  1  0
  8  9  1  0
  9 10  2  0
 11 10  1  0
 12 11  2  0
 13  1  1  0
 14  1  1  0
 15 14  1  0
 15 16  1  0
 17 16  2  0
 18 17  1  0
 19 18  1  0
 20 21  1  0
 20 18  2  0
 21 15  1  0
 22 21  2  0
  1 23  1  6
  3 24  1  0
  4 25  1  0
  8 26  1  0
  9 27  1  0
 11 28  1  0
 13 29  1  0
 13 30  1  0
 13 31  1  0
 14 32  1  0
 14 33  1  0
 16 34  1  0
 17 35  1  0
 19 36  1  0
 19 37  1  0
M  ISO  8  23   8  24  14  25  14  26  14  27  14  28  14  29   8  30   8
M  ISO  5  31   8  32   8  33   8  34  14  35  14
M  END
>  <minimizedAffinity>  (1) 
-5.15844107

>  <minimizedRMSD>  (1) 
2.46267247

$$$$
