
     RDKit          3D

 35 37  0  0  1  0  0  0  0  0999 V2000
   37.2500   21.8550   35.3280 C   0  0  0  0  0  0  0  0  0  0  0  0
   36.1790   21.0000   35.6340 C   0  0  0  0  0  0  0  0  0  0  0  0
   35.5750   20.6690   34.4240 C   0  0  0  0  0  0  0  0  0  0  0  0
   36.3210   21.3450   33.4690 C   0  0  0  0  0  0  0  0  0  0  0  0
   37.2900   22.0240   34.0510 O   0  0  0  0  0  0  0  0  0  0  0  0
   38.0860   22.3790   36.4040 C   0  0  0  0  0  0  0  0  0  0  0  0
   39.4700   22.1780   36.4760 C   0  0  0  0  0  0  0  0  0  0  0  0
   40.1550   22.7330   37.5560 C   0  0  0  0  0  0  0  0  0  0  0  0
   39.4730   23.4410   38.4880 N   0  0  0  0  0  0  0  0  0  0  0  0
   38.1330   23.6220   38.3960 C   0  0  0  0  0  0  0  0  0  0  0  0
   37.4750   23.0870   37.3570 N   0  0  0  0  0  0  0  0  0  0  0  0
   36.1460   21.3760   31.9820 C   0  0  2  0  0  0  0  0  0  0  0  0
   35.7100   22.7460   31.5180 C   0  0  0  0  0  0  0  0  0  0  0  0
   35.1220   20.3360   31.6420 C   0  0  0  0  0  0  0  0  0  0  0  0
   35.8960   19.1630   31.0960 C   0  0  0  0  0  0  0  0  0  0  0  0
   36.0870   18.0190   31.8160 C   0  0  0  0  0  0  0  0  0  0  0  0
   36.7820   16.9170   31.3750 C   0  0  0  0  0  0  0  0  0  0  0  0
   37.3260   16.9750   30.1040 C   0  0  0  0  0  0  0  0  0  0  0  0
   37.1350   18.1300   29.3710 C   0  0  0  0  0  0  0  0  0  0  0  0
   36.4460   19.1720   29.8600 N   0  0  0  0  0  0  0  0  0  0  0  0
   35.8762   20.6583   36.6348 H   0  0  0  0  0  0  0  0  0  0  0  0
   34.7031   20.0183   34.2617 H   0  0  0  0  0  0  0  0  0  0  0  0
   40.0001   21.6003   35.7045 H   0  0  0  0  0  0  0  0  0  0  0  0
   41.2424   22.5968   37.6507 H   0  0  0  0  0  0  0  0  0  0  0  0
   37.5934   24.1988   39.1616 H   0  0  0  0  0  0  0  0  0  0  0  0
   37.0968   21.1623   31.4717 H   0  0  0  0  0  0  0  0  0  0  0  0
   35.5076   23.3820   32.3923 H   0  0  0  0  0  0  0  0  0  0  0  0
   36.5083   23.1991   30.9119 H   0  0  0  0  0  0  0  0  0  0  0  0
   34.7966   22.6544   30.9119 H   0  0  0  0  0  0  0  0  0  0  0  0
   34.5623   20.0406   32.5417 H   0  0  0  0  0  0  0  0  0  0  0  0
   34.3883   20.7121   30.9138 H   0  0  0  0  0  0  0  0  0  0  0  0
   35.6521   17.9752   32.8254 H   0  0  0  0  0  0  0  0  0  0  0  0
   36.9007   16.0250   32.0076 H   0  0  0  0  0  0  0  0  0  0  0  0
   37.8928   16.1279   29.6904 H   0  0  0  0  0  0  0  0  0  0  0  0
   37.5595   18.1973   28.3585 H   0  0  0  0  0  0  0  0  0  0  0  0
  1  2  2  0
  1  6  1  0
  3  2  1  0
  4  5  1  0
  4  3  2  0
  5  1  1  0
  6  7  2  0
  6 11  1  0
  7  8  1  0
  8  9  2  0
 10  9  1  0
 11 10  2  0
 12  4  1  0
 13 12  1  0
 14 12  1  0
 15 14  1  0
 15 16  2  0
 17 16  1  0
 18 17  2  0
 19 20  2  0
 19 18  1  0
 20 15  1  0
  2 21  1  0
  3 22  1  0
  7 23  1  0
  8 24  1  0
 10 25  1  0
 12 26  1  6
 13 27  1  0
 13 28  1  0
 13 29  1  0
 14 30  1  0
 14 31  1  0
 16 32  1  0
 17 33  1  0
 18 34  1  0
 19 35  1  0
M  ISO  8  21  14  22  14  23  14  24  14  25  14  26   8  27   8  28   8
M  ISO  7  29   8  30   8  31   8  32  14  33  14  34  14  35  14
M  END
>  <minimizedAffinity>  (1) 
-5.03630304

>  <minimizedRMSD>  (1) 
1.90985203

$$$$
