
     RDKit          3D

 31 33  0  0  1  0  0  0  0  0999 V2000
   37.3200   21.9480   35.0640 C   0  0  0  0  0  0  0  0  0  0  0  0
   36.2690   21.0070   35.2320 C   0  0  0  0  0  0  0  0  0  0  0  0
   35.7670   20.7780   33.9530 C   0  0  0  0  0  0  0  0  0  0  0  0
   36.4970   21.5480   33.1240 C   0  0  0  0  0  0  0  0  0  0  0  0
   37.4010   22.2230   33.8150 O   0  0  0  0  0  0  0  0  0  0  0  0
   38.0760   22.4120   36.2270 C   0  0  0  0  0  0  0  0  0  0  0  0
   39.4560   22.2230   36.3610 C   0  0  0  0  0  0  0  0  0  0  0  0
   40.0330   22.7090   37.5430 C   0  0  0  0  0  0  0  0  0  0  0  0
   39.2740   23.3190   38.4760 N   0  0  0  0  0  0  0  0  0  0  0  0
   37.9390   23.4840   38.3090 C   0  0  0  0  0  0  0  0  0  0  0  0
   37.3500   23.0310   37.1910 N   0  0  0  0  0  0  0  0  0  0  0  0
   36.3910   21.6840   31.6650 C   0  0  2  0  0  0  0  0  0  0  0  0
   35.7570   23.0160   31.2560 C   0  0  0  0  0  0  0  0  0  0  0  0
   35.5940   20.5830   31.1000 C   0  0  0  0  0  0  0  0  0  0  0  0
   36.2230   19.5630   30.2680 C   0  0  0  0  0  0  0  0  0  0  0  0
   36.3710   18.4020   30.9890 N   0  0  0  0  0  0  0  0  0  0  0  0
   36.9010   17.4800   30.2670 O   0  0  0  0  0  0  0  0  0  0  0  0
   37.1340   17.9230   29.0760 C   0  0  0  0  0  0  0  0  0  0  0  0
   36.7250   19.1600   29.0960 N   0  0  0  0  0  0  0  0  0  0  0  0
   35.9243   20.5546   36.1736 H   0  0  0  0  0  0  0  0  0  0  0  0
   34.9420   20.1050   33.6765 H   0  0  0  0  0  0  0  0  0  0  0  0
   40.0532   21.7225   35.5846 H   0  0  0  0  0  0  0  0  0  0  0  0
   41.1138   22.5917   37.7106 H   0  0  0  0  0  0  0  0  0  0  0  0
   37.3420   23.9859   39.0847 H   0  0  0  0  0  0  0  0  0  0  0  0
   37.4163   21.6497   31.2680 H   0  0  0  0  0  0  0  0  0  0  0  0
   35.4861   23.5852   32.1574 H   0  0  0  0  0  0  0  0  0  0  0  0
   36.4757   23.5959   30.6583 H   0  0  0  0  0  0  0  0  0  0  0  0
   34.8537   22.8239   30.6583 H   0  0  0  0  0  0  0  0  0  0  0  0
   35.1360   20.0570   31.9507 H   0  0  0  0  0  0  0  0  0  0  0  0
   34.9256   21.0988   30.3949 H   0  0  0  0  0  0  0  0  0  0  0  0
   37.5793   17.3766   28.2315 H   0  0  0  0  0  0  0  0  0  0  0  0
  1  2  2  0
  1  6  1  0
  3  2  1  0
  4  5  1  0
  4  3  2  0
  5  1  1  0
  6  7  2  0
  6 11  1  0
  7  8  1  0
  8  9  2  0
 10  9  1  0
 11 10  2  0
 12  4  1  0
 13 12  1  0
 14 12  1  0
 15 16  2  0
 15 14  1  0
 17 16  1  0
 18 19  2  0
 18 17  1  0
 19 15  1  0
  2 20  1  0
  3 21  1  0
  7 22  1  0
  8 23  1  0
 10 24  1  0
 12 25  1  6
 13 26  1  0
 13 27  1  0
 13 28  1  0
 14 29  1  0
 14 30  1  0
 18 31  1  0
M  ISO  8  20  14  21  14  22  14  23  14  24  14  25   8  26   8  27   8
M  ISO  4  28   8  29   8  30   8  31  14
M  END
>  <minimizedAffinity>  (1) 
-4.83617544

>  <minimizedRMSD>  (1) 
2.32149339

$$$$
