
     RDKit          3D

 27 28  0  0  1  0  0  0  0  0999 V2000
   37.2020   21.7470   35.2160 C   0  0  0  0  0  0  0  0  0  0  0  0
   36.0920   20.9570   35.5090 C   0  0  0  0  0  0  0  0  0  0  0  0
   35.5450   20.5640   34.2830 C   0  0  0  0  0  0  0  0  0  0  0  0
   36.3710   21.1500   33.3350 C   0  0  0  0  0  0  0  0  0  0  0  0
   37.3180   21.8260   33.9320 O   0  0  0  0  0  0  0  0  0  0  0  0
   37.9970   22.3200   36.2970 C   0  0  0  0  0  0  0  0  0  0  0  0
   39.3870   22.2040   36.3890 C   0  0  0  0  0  0  0  0  0  0  0  0
   40.0260   22.8010   37.4660 C   0  0  0  0  0  0  0  0  0  0  0  0
   39.2930   23.4690   38.3860 N   0  0  0  0  0  0  0  0  0  0  0  0
   37.9490   23.5720   38.2810 C   0  0  0  0  0  0  0  0  0  0  0  0
   37.3430   22.9970   37.2440 N   0  0  0  0  0  0  0  0  0  0  0  0
   36.2730   21.0790   31.8500 C   0  0  2  0  0  0  0  0  0  0  0  0
   35.7510   22.3740   31.2680 C   0  0  0  0  0  0  0  0  0  0  0  0
   35.3540   19.9450   31.5120 C   0  0  0  0  0  0  0  0  0  0  0  0
   35.8820   19.0550   30.6120 O   0  0  0  0  0  0  0  0  0  0  0  0
   35.7186   20.6937   36.5096 H   0  0  0  0  0  0  0  0  0  0  0  0
   34.6605   19.9333   34.1099 H   0  0  0  0  0  0  0  0  0  0  0  0
   39.9591   21.6538   35.6274 H   0  0  0  0  0  0  0  0  0  0  0  0
   41.1188   22.7318   37.5709 H   0  0  0  0  0  0  0  0  0  0  0  0
   37.3677   24.1199   39.0372 H   0  0  0  0  0  0  0  0  0  0  0  0
   37.2712   20.9148   31.4180 H   0  0  0  0  0  0  0  0  0  0  0  0
   35.4753   23.0580   32.0842 H   0  0  0  0  0  0  0  0  0  0  0  0
   36.5321   22.8386   30.6483 H   0  0  0  0  0  0  0  0  0  0  0  0
   34.8660   22.1671   30.6483 H   0  0  0  0  0  0  0  0  0  0  0  0
   35.1175   19.4020   32.4389 H   0  0  0  0  0  0  0  0  0  0  0  0
   34.4615   20.3844   31.0426 H   0  0  0  0  0  0  0  0  0  0  0  0
   36.3216   18.3141   31.0997 H   0  0  0  0  0  0  0  0  0  0  0  0
  1  2  2  0
  1  6  1  0
  3  2  1  0
  4  5  1  0
  4  3  2  0
  5  1  1  0
  6  7  2  0
  6 11  1  0
  7  8  1  0
  8  9  2  0
 10  9  1  0
 11 10  2  0
 12  4  1  0
 13 12  1  0
 14 12  1  0
 15 14  1  0
  2 16  1  0
  3 17  1  0
  7 18  1  0
  8 19  1  0
 10 20  1  0
 12 21  1  6
 13 22  1  0
 13 23  1  0
 13 24  1  0
 14 25  1  0
 14 26  1  0
 15 27  1  0
M  ISO  8  16  14  17  14  18  14  19  14  20  14  21   8  22   8  23   8
M  ISO  4  24   8  25   8  26   8  27   3
M  END
>  <minimizedAffinity>  (1) 
-4.45543575

>  <minimizedRMSD>  (1) 
0.343751341

$$$$
