
     RDKit          3D

 23 23  0  0  0  0  0  0  0  0999 V2000
   38.1820   22.7670   36.1340 C   0  0  0  0  0  0  0  0  0  0  0  0
   38.1420   23.8960   37.0010 C   0  0  0  0  0  0  0  0  0  0  0  0
   38.0410   25.1430   36.4330 C   0  0  0  0  0  0  0  0  0  0  0  0
   37.9800   25.2820   35.0770 N   0  0  0  0  0  0  0  0  0  0  0  0
   38.0210   24.1720   34.2800 C   0  0  0  0  0  0  0  0  0  0  0  0
   38.1190   22.9590   34.8070 N   0  0  0  0  0  0  0  0  0  0  0  0
   38.1990   23.7630   38.4890 C   0  0  0  0  0  0  0  0  0  0  0  0
   39.4960   23.3950   38.8200 F   0  0  0  0  0  0  0  0  0  0  0  0
   37.3510   22.8050   38.9490 F   0  0  0  0  0  0  0  0  0  0  0  0
   38.0260   25.0030   39.1060 F   0  0  0  0  0  0  0  0  0  0  0  0
   37.9340   24.4210   32.5190 S   0  0  0  0  0  0  0  0  0  0  0  0
   36.4900   25.3960   32.0410 C   0  0  0  0  0  0  0  0  0  0  0  0
   36.9750   26.6910   31.4240 C   0  0  0  0  0  0  0  0  0  0  0  0
   35.5690   24.6540   31.1050 C   0  0  0  0  0  0  0  0  0  0  0  0
   38.2635   21.7505   36.5465 H   0  0  0  0  0  0  0  0  0  0  0  0
   38.0091   26.0352   37.0757 H   0  0  0  0  0  0  0  0  0  0  0  0
   35.8909   25.6037   32.9398 H   0  0  0  0  0  0  0  0  0  0  0  0
   37.2406   27.4003   32.2217 H   0  0  0  0  0  0  0  0  0  0  0  0
   37.8594   26.4917   30.8010 H   0  0  0  0  0  0  0  0  0  0  0  0
   36.1772   27.1217   30.8010 H   0  0  0  0  0  0  0  0  0  0  0  0
   34.8439   24.0698   31.6907 H   0  0  0  0  0  0  0  0  0  0  0  0
   35.0322   25.3749   30.4708 H   0  0  0  0  0  0  0  0  0  0  0  0
   36.1592   23.9761   30.4708 H   0  0  0  0  0  0  0  0  0  0  0  0
  1  2  2  0
  2  7  1  0
  3  2  1  0
  4  3  2  0
  5  6  2  0
  5  4  1  0
  6  1  1  0
  7  8  1  0
  7  9  1  0
  7 10  1  0
 11  5  1  0
 12 11  1  0
 13 12  1  0
 14 12  1  0
  1 15  1  0
  3 16  1  0
 12 17  1  0
 13 18  1  0
 13 19  1  0
 13 20  1  0
 14 21  1  0
 14 22  1  0
 14 23  1  0
M  ISO  8  15  14  16  14  17   8  18   8  19   8  20   8  21   8  22   8
M  ISO  1  23   8
M  END
>  <minimizedAffinity>  (1) 
-4.43202925

>  <minimizedRMSD>  (1) 
4.45672846

$$$$
