
     RDKit          3D

 45 49  0  0  1  0  0  0  0  0999 V2000
   36.2350   21.2540   31.8700 C   0  0  2  0  0  0  0  0  0  0  0  0
   37.2060   21.7800   35.2320 C   0  0  0  0  0  0  0  0  0  0  0  0
   36.1110   20.9720   35.4850 C   0  0  0  0  0  0  0  0  0  0  0  0
   35.5620   20.6380   34.2450 C   0  0  0  0  0  0  0  0  0  0  0  0
   36.3820   21.2820   33.3210 C   0  0  0  0  0  0  0  0  0  0  0  0
   37.3170   21.9270   33.9460 O   0  0  0  0  0  0  0  0  0  0  0  0
   38.0310   22.3250   36.3140 C   0  0  0  0  0  0  0  0  0  0  0  0
   39.4050   22.1970   36.4040 C   0  0  0  0  0  0  0  0  0  0  0  0
   40.0140   22.7940   37.5160 C   0  0  0  0  0  0  0  0  0  0  0  0
   39.2870   23.4510   38.4350 N   0  0  0  0  0  0  0  0  0  0  0  0
   37.9400   23.5600   38.3210 C   0  0  0  0  0  0  0  0  0  0  0  0
   37.3410   23.0050   37.2790 N   0  0  0  0  0  0  0  0  0  0  0  0
   35.6650   22.5690   31.3360 C   0  0  0  0  0  0  0  0  0  0  0  0
   35.4310   20.1170   31.4070 C   0  0  0  0  0  0  0  0  0  0  0  0
   36.0960   18.9160   31.0630 N   0  0  0  0  0  0  0  0  0  0  0  0
   36.7450   18.4270   29.9890 C   0  0  0  0  0  0  0  0  0  0  0  0
   37.1750   17.1780   30.2330 N   0  0  0  0  0  0  0  0  0  0  0  0
   36.7830   16.8820   31.4920 C   0  0  0  0  0  0  0  0  0  0  0  0
   36.1370   17.9520   31.9590 N   0  0  0  0  0  0  0  0  0  0  0  0
   37.0150   15.6450   32.1990 N   0  0  0  0  0  0  0  0  0  0  0  0
   38.1370   14.9040   32.2420 C   0  0  0  0  0  0  0  0  0  0  0  0
   37.8710   13.8430   33.0310 N   0  0  0  0  0  0  0  0  0  0  0  0
   36.5990   13.9210   33.4760 C   0  0  0  0  0  0  0  0  0  0  0  0
   35.8320   13.1210   34.2930 C   0  0  0  0  0  0  0  0  0  0  0  0
   34.5640   13.4530   34.5730 N   0  0  0  0  0  0  0  0  0  0  0  0
   34.0060   14.5860   34.0590 C   0  0  0  0  0  0  0  0  0  0  0  0
   34.7560   15.3670   33.2620 N   0  0  0  0  0  0  0  0  0  0  0  0
   36.0310   15.0770   32.9500 C   0  0  0  0  0  0  0  0  0  0  0  0
   36.3800   11.9320   34.8470 N   0  0  0  0  0  0  0  0  0  0  0  0
   37.2484   21.1252   31.4620 H   0  0  0  0  0  0  0  0  0  0  0  0
   35.7440   20.6543   36.4721 H   0  0  0  0  0  0  0  0  0  0  0  0
   34.6821   20.0093   34.0437 H   0  0  0  0  0  0  0  0  0  0  0  0
   39.9881   21.6561   35.6442 H   0  0  0  0  0  0  0  0  0  0  0  0
   41.1049   22.7235   37.6383 H   0  0  0  0  0  0  0  0  0  0  0  0
   37.3557   24.0999   39.0807 H   0  0  0  0  0  0  0  0  0  0  0  0
   35.3843   23.2165   32.1798 H   0  0  0  0  0  0  0  0  0  0  0  0
   36.4244   23.0753   30.7221 H   0  0  0  0  0  0  0  0  0  0  0  0
   34.7763   22.3609   30.7221 H   0  0  0  0  0  0  0  0  0  0  0  0
   34.7180   19.8753   32.2090 H   0  0  0  0  0  0  0  0  0  0  0  0
   34.9939   20.4641   30.4591 H   0  0  0  0  0  0  0  0  0  0  0  0
   36.9007   18.9725   29.0466 H   0  0  0  0  0  0  0  0  0  0  0  0
   39.0873   15.1214   31.7324 H   0  0  0  0  0  0  0  0  0  0  0  0
   32.9650   14.8551   34.2913 H   0  0  0  0  0  0  0  0  0  0  0  0
   35.8040   11.3354   35.4579 H   0  0  0  0  0  0  0  0  0  0  0  0
   37.3531   11.6671   34.6375 H   0  0  0  0  0  0  0  0  0  0  0  0
  1  5  1  0
  2  3  2  0
  2  7  1  0
  4  3  1  0
  5  6  1  0
  5  4  2  0
  6  2  1  0
  7  8  2  0
  7 12  1  0
  8  9  1  0
  9 10  2  0
 11 10  1  0
 12 11  2  0
 13  1  1  0
 14  1  1  0
 15 14  1  0
 15 19  1  0
 16 17  2  0
 16 15  1  0
 17 18  1  0
 18 19  2  0
 18 20  1  0
 20 21  1  0
 20 28  1  0
 21 22  2  0
 22 23  1  0
 23 24  2  0
 24 25  1  0
 24 29  1  0
 26 25  2  0
 27 26  1  0
 28 27  2  0
 28 23  1  0
  1 30  1  6
  3 31  1  0
  4 32  1  0
  8 33  1  0
  9 34  1  0
 11 35  1  0
 13 36  1  0
 13 37  1  0
 13 38  1  0
 14 39  1  0
 14 40  1  0
 16 41  1  0
 21 42  1  0
 26 43  1  0
 29 44  1  0
 29 45  1  0
M  ISO  8  30   8  31  14  32  14  33  14  34  14  35  14  36   8  37   8
M  ISO  6  38   8  39   8  40   8  41  14  42  14  43  14
M  END
>  <minimizedAffinity>  (1) 
-5.84265423

>  <minimizedRMSD>  (1) 
1.06956208

$$$$
