
     RDKit          3D

 43 47  0  0  1  0  0  0  0  0999 V2000
   36.2520   21.3070   31.8790 C   0  0  2  0  0  0  0  0  0  0  0  0
   37.2200   21.8060   35.2360 C   0  0  0  0  0  0  0  0  0  0  0  0
   36.1310   20.9840   35.4850 C   0  0  0  0  0  0  0  0  0  0  0  0
   35.5840   20.6580   34.2410 C   0  0  0  0  0  0  0  0  0  0  0  0
   36.4040   21.3230   33.3300 C   0  0  0  0  0  0  0  0  0  0  0  0
   37.3430   21.9770   33.9540 O   0  0  0  0  0  0  0  0  0  0  0  0
   38.0430   22.3460   36.3330 C   0  0  0  0  0  0  0  0  0  0  0  0
   39.4130   22.2050   36.4440 C   0  0  0  0  0  0  0  0  0  0  0  0
   40.0110   22.7950   37.5650 C   0  0  0  0  0  0  0  0  0  0  0  0
   39.2760   23.4600   38.4760 N   0  0  0  0  0  0  0  0  0  0  0  0
   37.9330   23.5810   38.3370 C   0  0  0  0  0  0  0  0  0  0  0  0
   37.3570   23.0290   37.2860 N   0  0  0  0  0  0  0  0  0  0  0  0
   35.7450   22.6540   31.3500 C   0  0  0  0  0  0  0  0  0  0  0  0
   35.4000   20.2150   31.4020 C   0  0  0  0  0  0  0  0  0  0  0  0
   36.0060   18.9780   31.0750 N   0  0  0  0  0  0  0  0  0  0  0  0
   36.7450   18.4810   30.0740 C   0  0  0  0  0  0  0  0  0  0  0  0
   37.0440   17.1950   30.2930 N   0  0  0  0  0  0  0  0  0  0  0  0
   36.4670   16.8740   31.4850 C   0  0  0  0  0  0  0  0  0  0  0  0
   35.8510   17.9770   31.9210 N   0  0  0  0  0  0  0  0  0  0  0  0
   36.5350   15.5900   32.1090 N   0  0  0  0  0  0  0  0  0  0  0  0
   37.4770   14.9160   32.8090 C   0  0  0  0  0  0  0  0  0  0  0  0
   36.9630   13.7090   33.1580 N   0  0  0  0  0  0  0  0  0  0  0  0
   35.7200   13.6300   32.6850 C   0  0  0  0  0  0  0  0  0  0  0  0
   34.8300   12.5780   32.8070 C   0  0  0  0  0  0  0  0  0  0  0  0
   33.5990   12.7160   32.2370 N   0  0  0  0  0  0  0  0  0  0  0  0
   33.3100   13.8760   31.5800 C   0  0  0  0  0  0  0  0  0  0  0  0
   34.1890   14.8830   31.4740 N   0  0  0  0  0  0  0  0  0  0  0  0
   35.4210   14.8040   32.0160 C   0  0  0  0  0  0  0  0  0  0  0  0
   37.2594   21.1275   31.4752 H   0  0  0  0  0  0  0  0  0  0  0  0
   35.7686   20.6532   36.4695 H   0  0  0  0  0  0  0  0  0  0  0  0
   34.7100   20.0243   34.0296 H   0  0  0  0  0  0  0  0  0  0  0  0
   40.0023   21.6589   35.6927 H   0  0  0  0  0  0  0  0  0  0  0  0
   41.0992   22.7136   37.7032 H   0  0  0  0  0  0  0  0  0  0  0  0
   37.3371   24.1268   39.0833 H   0  0  0  0  0  0  0  0  0  0  0  0
   35.4977   23.3109   32.1969 H   0  0  0  0  0  0  0  0  0  0  0  0
   36.5274   23.1251   30.7368 H   0  0  0  0  0  0  0  0  0  0  0  0
   34.8462   22.4923   30.7368 H   0  0  0  0  0  0  0  0  0  0  0  0
   34.6579   20.0149   32.1889 H   0  0  0  0  0  0  0  0  0  0  0  0
   35.0037   20.5820   30.4437 H   0  0  0  0  0  0  0  0  0  0  0  0
   37.0634   19.0534   29.1903 H   0  0  0  0  0  0  0  0  0  0  0  0
   38.4849   15.2828   33.0530 H   0  0  0  0  0  0  0  0  0  0  0  0
   35.1064   11.6600   33.3463 H   0  0  0  0  0  0  0  0  0  0  0  0
   32.3176   13.9897   31.1194 H   0  0  0  0  0  0  0  0  0  0  0  0
  1  5  1  0
  2  3  2  0
  2  7  1  0
  4  3  1  0
  5  6  1  0
  5  4  2  0
  6  2  1  0
  7  8  2  0
  7 12  1  0
  8  9  1  0
  9 10  2  0
 11 10  1  0
 12 11  2  0
 13  1  1  0
 14  1  1  0
 15 14  1  0
 15 19  1  0
 16 17  2  0
 16 15  1  0
 17 18  1  0
 18 19  2  0
 18 20  1  0
 20 21  1  0
 21 22  2  0
 23 24  2  0
 23 22  1  0
 25 24  1  0
 26 25  2  0
 27 26  1  0
 27 28  2  0
 28 20  1  0
 28 23  1  0
  1 29  1  6
  3 30  1  0
  4 31  1  0
  8 32  1  0
  9 33  1  0
 11 34  1  0
 13 35  1  0
 13 36  1  0
 13 37  1  0
 14 38  1  0
 14 39  1  0
 16 40  1  0
 21 41  1  0
 24 42  1  0
 26 43  1  0
M  ISO  8  29   8  30  14  31  14  32  14  33  14  34  14  35   8  36   8
M  ISO  7  37   8  38   8  39   8  40  14  41  14  42  14  43  14
M  END
>  <minimizedAffinity>  (1) 
-5.74125576

>  <minimizedRMSD>  (1) 
1.08887565

$$$$
