
     RDKit          3D

 47 50  0  0  1  0  0  0  0  0999 V2000
   36.2150   21.0830   31.9760 C   0  0  2  0  0  0  0  0  0  0  0  0
   37.2060   21.7540   35.2990 C   0  0  0  0  0  0  0  0  0  0  0  0
   36.0830   20.9940   35.6010 C   0  0  0  0  0  0  0  0  0  0  0  0
   35.5200   20.6120   34.3800 C   0  0  0  0  0  0  0  0  0  0  0  0
   36.3600   21.1790   33.4260 C   0  0  0  0  0  0  0  0  0  0  0  0
   37.3210   21.8300   34.0130 O   0  0  0  0  0  0  0  0  0  0  0  0
   38.0460   22.3260   36.3580 C   0  0  0  0  0  0  0  0  0  0  0  0
   39.4200   22.1960   36.4340 C   0  0  0  0  0  0  0  0  0  0  0  0
   40.0500   22.8150   37.5200 C   0  0  0  0  0  0  0  0  0  0  0  0
   39.3390   23.4970   38.4350 N   0  0  0  0  0  0  0  0  0  0  0  0
   37.9900   23.6090   38.3360 C   0  0  0  0  0  0  0  0  0  0  0  0
   37.3800   23.0290   37.3120 N   0  0  0  0  0  0  0  0  0  0  0  0
   35.7390   22.4060   31.3690 C   0  0  0  0  0  0  0  0  0  0  0  0
   35.3220   19.9860   31.5730 C   0  0  0  0  0  0  0  0  0  0  0  0
   35.8840   18.7010   31.3780 N   0  0  0  0  0  0  0  0  0  0  0  0
   36.7360   18.1210   30.5150 C   0  0  0  0  0  0  0  0  0  0  0  0
   36.9010   16.8250   30.8160 N   0  0  0  0  0  0  0  0  0  0  0  0
   36.1260   16.5890   31.9040 C   0  0  0  0  0  0  0  0  0  0  0  0
   35.5320   17.7390   32.2100 N   0  0  0  0  0  0  0  0  0  0  0  0
   36.0160   15.3210   32.5470 N   0  0  0  0  0  0  0  0  0  0  0  0
   34.7120   14.8480   32.9160 C   0  0  0  0  0  0  0  0  0  0  0  0
   34.7400   13.9540   34.1390 C   0  0  0  0  0  0  0  0  0  0  0  0
   35.8700   12.9600   33.9720 C   0  0  0  0  0  0  0  0  0  0  0  0
   37.1630   13.7760   34.0660 C   0  0  0  0  0  0  0  0  0  0  0  0
   37.2630   14.5850   32.7870 C   0  0  0  0  0  0  0  0  0  0  0  0
   37.2168   20.8581   31.5813 H   0  0  0  0  0  0  0  0  0  0  0  0
   35.7099   20.7421   36.6047 H   0  0  0  0  0  0  0  0  0  0  0  0
   34.6196   20.0030   34.2117 H   0  0  0  0  0  0  0  0  0  0  0  0
   39.9897   21.6344   35.6790 H   0  0  0  0  0  0  0  0  0  0  0  0
   41.1424   22.7424   37.6264 H   0  0  0  0  0  0  0  0  0  0  0  0
   37.4156   24.1687   39.0889 H   0  0  0  0  0  0  0  0  0  0  0  0
   35.4859   23.1095   32.1758 H   0  0  0  0  0  0  0  0  0  0  0  0
   36.5397   22.8334   30.7476 H   0  0  0  0  0  0  0  0  0  0  0  0
   34.8495   22.2253   30.7476 H   0  0  0  0  0  0  0  0  0  0  0  0
   34.5517   19.8899   32.3524 H   0  0  0  0  0  0  0  0  0  0  0  0
   34.9633   20.2800   30.5755 H   0  0  0  0  0  0  0  0  0  0  0  0
   37.2291   18.6377   29.6784 H   0  0  0  0  0  0  0  0  0  0  0  0
   34.0699   15.7155   33.1286 H   0  0  0  0  0  0  0  0  0  0  0  0
   34.3245   14.2517   32.0768 H   0  0  0  0  0  0  0  0  0  0  0  0
   34.9084   14.5613   35.0405 H   0  0  0  0  0  0  0  0  0  0  0  0
   33.7813   13.4253   34.2455 H   0  0  0  0  0  0  0  0  0  0  0  0
   35.8012   12.4632   32.9930 H   0  0  0  0  0  0  0  0  0  0  0  0
   35.8323   12.1725   34.7391 H   0  0  0  0  0  0  0  0  0  0  0  0
   37.1251   14.4470   34.9368 H   0  0  0  0  0  0  0  0  0  0  0  0
   38.0369   13.1192   34.1875 H   0  0  0  0  0  0  0  0  0  0  0  0
   37.4510   13.9057   31.9425 H   0  0  0  0  0  0  0  0  0  0  0  0
   38.0887   15.3052   32.8846 H   0  0  0  0  0  0  0  0  0  0  0  0
  1  5  1  0
  2  3  2  0
  2  7  1  0
  4  3  1  0
  5  6  1  0
  5  4  2  0
  6  2  1  0
  7  8  2  0
  7 12  1  0
  8  9  1  0
  9 10  2  0
 11 10  1  0
 12 11  2  0
 13  1  1  0
 14  1  1  0
 15 14  1  0
 15 19  1  0
 16 17  2  0
 16 15  1  0
 17 18  1  0
 18 19  2  0
 18 20  1  0
 20 25  1  0
 20 21  1  0
 21 22  1  0
 23 24  1  0
 23 22  1  0
 25 24  1  0
  1 26  1  6
  3 27  1  0
  4 28  1  0
  8 29  1  0
  9 30  1  0
 11 31  1  0
 13 32  1  0
 13 33  1  0
 13 34  1  0
 14 35  1  0
 14 36  1  0
 16 37  1  0
 21 38  1  0
 21 39  1  0
 22 40  1  0
 22 41  1  0
 23 42  1  0
 23 43  1  0
 24 44  1  0
 24 45  1  0
 25 46  1  0
 25 47  1  0
M  ISO  8  26   8  27  14  28  14  29  14  30  14  31  14  32   8  33   8
M  ISO  8  34   8  35   8  36   8  37  14  38  13  39  13  40  13  41  13
M  ISO  6  42  13  43  13  44  13  45  13  46  13  47  13
M  END
>  <minimizedAffinity>  (1) 
-5.62958908

>  <minimizedRMSD>  (1) 
1.61007917

$$$$
