
     RDKit          3D

 39 41  0  0  1  0  0  0  0  0999 V2000
   36.3410   21.6940   31.6680 C   0  0  2  0  0  0  0  0  0  0  0  0
   37.2810   21.8960   35.0700 C   0  0  0  0  0  0  0  0  0  0  0  0
   36.2310   21.0060   35.2270 C   0  0  0  0  0  0  0  0  0  0  0  0
   35.6990   20.7800   33.9530 C   0  0  0  0  0  0  0  0  0  0  0  0
   36.4880   21.5690   33.1160 C   0  0  0  0  0  0  0  0  0  0  0  0
   37.3890   22.1950   33.8100 O   0  0  0  0  0  0  0  0  0  0  0  0
   38.0790   22.3650   36.2140 C   0  0  0  0  0  0  0  0  0  0  0  0
   39.4460   22.2040   36.3450 C   0  0  0  0  0  0  0  0  0  0  0  0
   40.0200   22.7270   37.5160 C   0  0  0  0  0  0  0  0  0  0  0  0
   39.2720   23.3440   38.4430 N   0  0  0  0  0  0  0  0  0  0  0  0
   37.9300   23.4850   38.2820 C   0  0  0  0  0  0  0  0  0  0  0  0
   37.3580   23.0010   37.1860 N   0  0  0  0  0  0  0  0  0  0  0  0
   35.7920   23.0680   31.2730 C   0  0  0  0  0  0  0  0  0  0  0  0
   35.5130   20.6280   31.0890 C   0  0  0  0  0  0  0  0  0  0  0  0
   36.1560   19.4720   30.5850 N   0  0  0  0  0  0  0  0  0  0  0  0
   36.8960   19.1570   29.5080 C   0  0  0  0  0  0  0  0  0  0  0  0
   37.2440   17.8600   29.5440 N   0  0  0  0  0  0  0  0  0  0  0  0
   36.7000   17.3510   30.6830 C   0  0  0  0  0  0  0  0  0  0  0  0
   36.0520   18.3580   31.2820 N   0  0  0  0  0  0  0  0  0  0  0  0
   36.7960   15.9920   31.1660 N   0  0  0  0  0  0  0  0  0  0  0  0
   35.6550   15.1860   31.3740 C   0  0  0  0  0  0  0  0  0  0  0  0
   34.5590   15.7850   31.6630 N   0  0  0  0  0  0  0  0  0  0  0  0
   35.8760   13.7680   31.2300 N   0  0  0  0  0  0  0  0  0  0  0  0
   33.7090   15.2100   31.8190 H   0  0  0  0  0  0  0  0  0  0  0  0
   37.3531   21.5883   31.2503 H   0  0  0  0  0  0  0  0  0  0  0  0
   35.8827   20.5625   36.1714 H   0  0  0  0  0  0  0  0  0  0  0  0
   34.8550   20.1312   33.6759 H   0  0  0  0  0  0  0  0  0  0  0  0
   40.0487   21.6963   35.5776 H   0  0  0  0  0  0  0  0  0  0  0  0
   41.1039   22.6286   37.6757 H   0  0  0  0  0  0  0  0  0  0  0  0
   37.3264   23.9928   39.0487 H   0  0  0  0  0  0  0  0  0  0  0  0
   35.5613   23.6454   32.1804 H   0  0  0  0  0  0  0  0  0  0  0  0
   36.5442   23.6060   30.6774 H   0  0  0  0  0  0  0  0  0  0  0  0
   34.8761   22.9395   30.6774 H   0  0  0  0  0  0  0  0  0  0  0  0
   34.8160   20.2963   31.8727 H   0  0  0  0  0  0  0  0  0  0  0  0
   35.0585   21.0921   30.2013 H   0  0  0  0  0  0  0  0  0  0  0  0
   37.1766   19.8610   28.7107 H   0  0  0  0  0  0  0  0  0  0  0  0
   37.7269   15.5986   31.3650 H   0  0  0  0  0  0  0  0  0  0  0  0
   35.0961   13.1089   31.3650 H   0  0  0  0  0  0  0  0  0  0  0  0
   36.8137   13.4145   30.9921 H   0  0  0  0  0  0  0  0  0  0  0  0
  1  5  1  0
  2  3  2  0
  2  7  1  0
  4  3  1  0
  5  6  1  0
  5  4  2  0
  6  2  1  0
  7  8  2  0
  7 12  1  0
  8  9  1  0
  9 10  2  0
 11 10  1  0
 12 11  2  0
 13  1  1  0
 14  1  1  0
 15 14  1  0
 15 19  1  0
 16 17  2  0
 16 15  1  0
 17 18  1  0
 18 20  1  0
 18 19  2  0
 20 21  1  0
 21 22  2  0
 22 24  1  0
 23 21  1  0
  1 25  1  6
  3 26  1  0
  4 27  1  0
  8 28  1  0
  9 29  1  0
 11 30  1  0
 13 31  1  0
 13 32  1  0
 13 33  1  0
 14 34  1  0
 14 35  1  0
 16 36  1  0
 20 37  1  0
 23 38  1  0
 23 39  1  0
M  ISO  8  25   8  26  14  27  14  28  14  29  14  30  14  31   8  32   8
M  ISO  4  33   8  34   8  35   8  36  14
M  END
>  <minimizedAffinity>  (1) 
-5.47030878

>  <minimizedRMSD>  (1) 
0.374216944

$$$$
