
     RDKit          3D

 44 47  0  0  1  0  0  0  0  0999 V2000
   36.2590   21.1460   31.9240 C   0  0  2  0  0  0  0  0  0  0  0  0
   37.2110   21.7680   35.2720 C   0  0  0  0  0  0  0  0  0  0  0  0
   36.0900   21.0020   35.5460 C   0  0  0  0  0  0  0  0  0  0  0  0
   35.5390   20.6370   34.3130 C   0  0  0  0  0  0  0  0  0  0  0  0
   36.3920   21.2230   33.3770 C   0  0  0  0  0  0  0  0  0  0  0  0
   37.3420   21.8640   33.9830 O   0  0  0  0  0  0  0  0  0  0  0  0
   38.0430   22.3290   36.3420 C   0  0  0  0  0  0  0  0  0  0  0  0
   39.4180   22.1980   36.4280 C   0  0  0  0  0  0  0  0  0  0  0  0
   40.0330   22.8130   37.5290 C   0  0  0  0  0  0  0  0  0  0  0  0
   39.3080   23.4880   38.4420 N   0  0  0  0  0  0  0  0  0  0  0  0
   37.9640   23.5980   38.3290 C   0  0  0  0  0  0  0  0  0  0  0  0
   37.3660   23.0240   37.2950 N   0  0  0  0  0  0  0  0  0  0  0  0
   35.7750   22.4750   31.3340 C   0  0  0  0  0  0  0  0  0  0  0  0
   35.3780   20.0510   31.4950 C   0  0  0  0  0  0  0  0  0  0  0  0
   35.9430   18.7690   31.3080 N   0  0  0  0  0  0  0  0  0  0  0  0
   36.7730   18.1790   30.4310 C   0  0  0  0  0  0  0  0  0  0  0  0
   36.9580   16.8890   30.7500 N   0  0  0  0  0  0  0  0  0  0  0  0
   36.2180   16.6630   31.8640 C   0  0  0  0  0  0  0  0  0  0  0  0
   35.6230   17.8190   32.1680 N   0  0  0  0  0  0  0  0  0  0  0  0
   36.1150   15.4180   32.5570 N   0  0  0  0  0  0  0  0  0  0  0  0
   37.2670   14.5620   32.8740 C   0  0  0  0  0  0  0  0  0  0  0  0
   36.8090   13.7030   34.0280 C   0  0  0  0  0  0  0  0  0  0  0  0
   35.3420   13.5370   33.6960 C   0  0  0  0  0  0  0  0  0  0  0  0
   34.9020   14.8190   33.0430 C   0  0  0  0  0  0  0  0  0  0  0  0
   37.2660   20.9326   31.5361 H   0  0  0  0  0  0  0  0  0  0  0  0
   35.7068   20.7326   36.5413 H   0  0  0  0  0  0  0  0  0  0  0  0
   34.6417   20.0292   34.1250 H   0  0  0  0  0  0  0  0  0  0  0  0
   39.9966   21.6426   35.6751 H   0  0  0  0  0  0  0  0  0  0  0  0
   41.1242   22.7429   37.6485 H   0  0  0  0  0  0  0  0  0  0  0  0
   37.3805   24.1519   39.0792 H   0  0  0  0  0  0  0  0  0  0  0  0
   35.5226   23.1681   32.1500 H   0  0  0  0  0  0  0  0  0  0  0  0
   36.5714   22.9127   30.7143 H   0  0  0  0  0  0  0  0  0  0  0  0
   34.8836   22.2981   30.7143 H   0  0  0  0  0  0  0  0  0  0  0  0
   34.5891   19.9512   32.2551 H   0  0  0  0  0  0  0  0  0  0  0  0
   35.0447   20.3494   30.4901 H   0  0  0  0  0  0  0  0  0  0  0  0
   37.2366   18.6839   29.5706 H   0  0  0  0  0  0  0  0  0  0  0  0
   37.5341   13.9372   32.0090 H   0  0  0  0  0  0  0  0  0  0  0  0
   38.1619   15.1499   33.1259 H   0  0  0  0  0  0  0  0  0  0  0  0
   37.3320   12.7354   34.0445 H   0  0  0  0  0  0  0  0  0  0  0  0
   37.0044   14.1339   35.0210 H   0  0  0  0  0  0  0  0  0  0  0  0
   35.2022   12.6919   33.0058 H   0  0  0  0  0  0  0  0  0  0  0  0
   34.7514   13.3291   34.6004 H   0  0  0  0  0  0  0  0  0  0  0  0
   34.4104   15.4776   33.7742 H   0  0  0  0  0  0  0  0  0  0  0  0
   34.1725   14.6462   32.2381 H   0  0  0  0  0  0  0  0  0  0  0  0
  1  5  1  0
  2  3  2  0
  2  7  1  0
  4  3  1  0
  5  6  1  0
  5  4  2  0
  6  2  1  0
  7  8  2  0
  7 12  1  0
  8  9  1  0
  9 10  2  0
 11 10  1  0
 12 11  2  0
 13  1  1  0
 14  1  1  0
 15 14  1  0
 15 19  1  0
 16 17  2  0
 16 15  1  0
 17 18  1  0
 18 19  2  0
 18 20  1  0
 20 21  1  0
 20 24  1  0
 21 22  1  0
 23 22  1  0
 24 23  1  0
  1 25  1  6
  3 26  1  0
  4 27  1  0
  8 28  1  0
  9 29  1  0
 11 30  1  0
 13 31  1  0
 13 32  1  0
 13 33  1  0
 14 34  1  0
 14 35  1  0
 16 36  1  0
 21 37  1  0
 21 38  1  0
 22 39  1  0
 22 40  1  0
 23 41  1  0
 23 42  1  0
 24 43  1  0
 24 44  1  0
M  ISO  8  25   8  26  14  27  14  28  14  29  14  30  14  31   8  32   8
M  ISO  8  33   8  34   8  35   8  36  14  37  13  38  13  39  13  40  13
M  ISO  4  41  13  42  13  43  13  44  13
M  END
>  <minimizedAffinity>  (1) 
-5.46618557

>  <minimizedRMSD>  (1) 
1.42116654

$$$$
