
     RDKit          3D

 45 48  0  0  1  0  0  0  0  0999 V2000
   36.2600   21.1460   31.9100 C   0  0  2  0  0  0  0  0  0  0  0  0
   37.2080   21.7700   35.2550 C   0  0  0  0  0  0  0  0  0  0  0  0
   36.0870   21.0030   35.5310 C   0  0  0  0  0  0  0  0  0  0  0  0
   35.5380   20.6360   34.2970 C   0  0  0  0  0  0  0  0  0  0  0  0
   36.3920   21.2240   33.3640 C   0  0  0  0  0  0  0  0  0  0  0  0
   37.3470   21.8720   33.9670 O   0  0  0  0  0  0  0  0  0  0  0  0
   38.0390   22.3320   36.3320 C   0  0  0  0  0  0  0  0  0  0  0  0
   39.4140   22.2000   36.4220 C   0  0  0  0  0  0  0  0  0  0  0  0
   40.0310   22.8090   37.5270 C   0  0  0  0  0  0  0  0  0  0  0  0
   39.3040   23.4810   38.4380 N   0  0  0  0  0  0  0  0  0  0  0  0
   37.9600   23.5930   38.3230 C   0  0  0  0  0  0  0  0  0  0  0  0
   37.3660   23.0220   37.2830 N   0  0  0  0  0  0  0  0  0  0  0  0
   35.7800   22.4750   31.3170 C   0  0  0  0  0  0  0  0  0  0  0  0
   35.3830   20.0480   31.4810 C   0  0  0  0  0  0  0  0  0  0  0  0
   35.9460   18.7600   31.3190 N   0  0  0  0  0  0  0  0  0  0  0  0
   36.7940   18.1610   30.4660 C   0  0  0  0  0  0  0  0  0  0  0  0
   36.9670   16.8710   30.8070 N   0  0  0  0  0  0  0  0  0  0  0  0
   36.2010   16.6640   31.9110 C   0  0  0  0  0  0  0  0  0  0  0  0
   35.6010   17.8260   32.1870 N   0  0  0  0  0  0  0  0  0  0  0  0
   36.0870   15.4250   32.6090 N   0  0  0  0  0  0  0  0  0  0  0  0
   34.7660   14.9650   33.0110 C   0  0  0  0  0  0  0  0  0  0  0  0
   34.8490   13.8820   34.0600 C   0  0  0  0  0  0  0  0  0  0  0  0
   35.8490   12.9600   33.7800 O   0  0  0  0  0  0  0  0  0  0  0  0
   37.0890   13.5480   33.8300 C   0  0  0  0  0  0  0  0  0  0  0  0
   37.3070   14.6810   32.8850 C   0  0  0  0  0  0  0  0  0  0  0  0
   37.2672   20.9331   31.5224 H   0  0  0  0  0  0  0  0  0  0  0  0
   35.7034   20.7348   36.5265 H   0  0  0  0  0  0  0  0  0  0  0  0
   34.6423   20.0263   34.1073 H   0  0  0  0  0  0  0  0  0  0  0  0
   39.9930   21.6471   35.6676 H   0  0  0  0  0  0  0  0  0  0  0  0
   41.1217   22.7357   37.6491 H   0  0  0  0  0  0  0  0  0  0  0  0
   37.3744   24.1441   39.0736 H   0  0  0  0  0  0  0  0  0  0  0  0
   35.5288   23.1705   32.1314 H   0  0  0  0  0  0  0  0  0  0  0  0
   36.5780   22.9094   30.6970 H   0  0  0  0  0  0  0  0  0  0  0  0
   34.8886   22.2992   30.6970 H   0  0  0  0  0  0  0  0  0  0  0  0
   34.5817   19.9607   32.2295 H   0  0  0  0  0  0  0  0  0  0  0  0
   35.0682   20.3345   30.4667 H   0  0  0  0  0  0  0  0  0  0  0  0
   37.2779   18.6550   29.6106 H   0  0  0  0  0  0  0  0  0  0  0  0
   34.2012   15.8156   33.4202 H   0  0  0  0  0  0  0  0  0  0  0  0
   34.2631   14.5483   32.1259 H   0  0  0  0  0  0  0  0  0  0  0  0
   35.0581   14.3473   35.0346 H   0  0  0  0  0  0  0  0  0  0  0  0
   33.8880   13.3469   34.0716 H   0  0  0  0  0  0  0  0  0  0  0  0
   37.2427   13.9258   34.8516 H   0  0  0  0  0  0  0  0  0  0  0  0
   37.8032   12.7667   33.5306 H   0  0  0  0  0  0  0  0  0  0  0  0
   37.6961   14.2793   31.9378 H   0  0  0  0  0  0  0  0  0  0  0  0
   38.0194   15.3742   33.3561 H   0  0  0  0  0  0  0  0  0  0  0  0
  1  5  1  0
  2  3  2  0
  2  7  1  0
  4  3  1  0
  5  6  1  0
  5  4  2  0
  6  2  1  0
  7  8  2  0
  7 12  1  0
  8  9  1  0
  9 10  2  0
 11 10  1  0
 12 11  2  0
 13  1  1  0
 14  1  1  0
 15 14  1  0
 15 19  1  0
 16 17  2  0
 16 15  1  0
 17 18  1  0
 18 19  2  0
 18 20  1  0
 20 25  1  0
 20 21  1  0
 21 22  1  0
 23 24  1  0
 23 22  1  0
 25 24  1  0
  1 26  1  6
  3 27  1  0
  4 28  1  0
  8 29  1  0
  9 30  1  0
 11 31  1  0
 13 32  1  0
 13 33  1  0
 13 34  1  0
 14 35  1  0
 14 36  1  0
 16 37  1  0
 21 38  1  0
 21 39  1  0
 22 40  1  0
 22 41  1  0
 24 42  1  0
 24 43  1  0
 25 44  1  0
 25 45  1  0
M  ISO  8  26   8  27  14  28  14  29  14  30  14  31  14  32   8  33   8
M  ISO  8  34   8  35   8  36   8  37  14  38  13  39  13  40  13  41  13
M  ISO  4  42  13  43  13  44  13  45  13
M  END
>  <minimizedAffinity>  (1) 
-5.46358109

>  <minimizedRMSD>  (1) 
1.57319438

$$$$
