
     RDKit          3D

 39 42  0  0  1  0  0  0  0  0999 V2000
   36.1940   21.3250   31.9790 C   0  0  2  0  0  0  0  0  0  0  0  0
   37.2380   21.8260   35.3120 C   0  0  0  0  0  0  0  0  0  0  0  0
   36.1370   21.0170   35.5920 C   0  0  0  0  0  0  0  0  0  0  0  0
   35.5580   20.6930   34.3610 C   0  0  0  0  0  0  0  0  0  0  0  0
   36.3690   21.3400   33.4310 C   0  0  0  0  0  0  0  0  0  0  0  0
   37.3340   21.9870   34.0260 O   0  0  0  0  0  0  0  0  0  0  0  0
   38.0880   22.3580   36.3890 C   0  0  0  0  0  0  0  0  0  0  0  0
   39.4600   22.2040   36.4610 C   0  0  0  0  0  0  0  0  0  0  0  0
   40.1050   22.7830   37.5650 C   0  0  0  0  0  0  0  0  0  0  0  0
   39.3900   23.4540   38.5000 N   0  0  0  0  0  0  0  0  0  0  0  0
   38.0520   23.5850   38.3980 C   0  0  0  0  0  0  0  0  0  0  0  0
   37.4260   23.0440   37.3600 N   0  0  0  0  0  0  0  0  0  0  0  0
   35.6970   22.6760   31.4550 C   0  0  0  0  0  0  0  0  0  0  0  0
   35.3040   20.2440   31.5290 C   0  0  0  0  0  0  0  0  0  0  0  0
   35.8650   18.9640   31.3030 N   0  0  0  0  0  0  0  0  0  0  0  0
   36.6680   18.3840   30.3940 C   0  0  0  0  0  0  0  0  0  0  0  0
   36.8620   17.0930   30.6950 N   0  0  0  0  0  0  0  0  0  0  0  0
   36.1560   16.8550   31.8310 C   0  0  0  0  0  0  0  0  0  0  0  0
   35.5730   18.0030   32.1630 N   0  0  0  0  0  0  0  0  0  0  0  0
   36.0680   15.6010   32.5260 N   0  0  0  0  0  0  0  0  0  0  0  0
   34.9800   15.0260   32.9940 N   0  0  0  0  0  0  0  0  0  0  0  0
   35.2800   13.8560   33.5860 C   0  0  0  0  0  0  0  0  0  0  0  0
   36.6510   13.6970   33.4770 C   0  0  0  0  0  0  0  0  0  0  0  0
   37.1270   14.8170   32.7990 C   0  0  0  0  0  0  0  0  0  0  0  0
   37.1904   21.1317   31.5549 H   0  0  0  0  0  0  0  0  0  0  0  0
   35.7918   20.6966   36.5861 H   0  0  0  0  0  0  0  0  0  0  0  0
   34.6698   20.0724   34.1713 H   0  0  0  0  0  0  0  0  0  0  0  0
   40.0194   21.6540   35.6899 H   0  0  0  0  0  0  0  0  0  0  0  0
   41.1960   22.6916   37.6716 H   0  0  0  0  0  0  0  0  0  0  0  0
   37.4861   24.1334   39.1655 H   0  0  0  0  0  0  0  0  0  0  0  0
   35.4556   23.3323   32.3041 H   0  0  0  0  0  0  0  0  0  0  0  0
   36.4822   23.1430   30.8423 H   0  0  0  0  0  0  0  0  0  0  0  0
   34.7964   22.5228   30.8423 H   0  0  0  0  0  0  0  0  0  0  0  0
   34.5217   20.1266   32.2934 H   0  0  0  0  0  0  0  0  0  0  0  0
   34.9613   20.5698   30.5358 H   0  0  0  0  0  0  0  0  0  0  0  0
   37.1046   18.8976   29.5247 H   0  0  0  0  0  0  0  0  0  0  0  0
   34.5737   13.1610   34.0636 H   0  0  0  0  0  0  0  0  0  0  0  0
   37.2473   12.8522   33.8521 H   0  0  0  0  0  0  0  0  0  0  0  0
   38.1750   15.0225   32.5355 H   0  0  0  0  0  0  0  0  0  0  0  0
  1  5  1  0
  2  3  2  0
  2  7  1  0
  4  3  1  0
  5  6  1  0
  5  4  2  0
  6  2  1  0
  7  8  2  0
  7 12  1  0
  8  9  1  0
  9 10  2  0
 11 10  1  0
 12 11  2  0
 13  1  1  0
 14  1  1  0
 15 14  1  0
 15 19  1  0
 16 17  2  0
 16 15  1  0
 17 18  1  0
 18 19  2  0
 18 20  1  0
 20 24  1  0
 20 21  1  0
 21 22  2  0
 23 22  1  0
 24 23  2  0
  1 25  1  6
  3 26  1  0
  4 27  1  0
  8 28  1  0
  9 29  1  0
 11 30  1  0
 13 31  1  0
 13 32  1  0
 13 33  1  0
 14 34  1  0
 14 35  1  0
 16 36  1  0
 22 37  1  0
 23 38  1  0
 24 39  1  0
M  ISO  8  25   8  26  14  27  14  28  14  29  14  30  14  31   8  32   8
M  ISO  7  33   8  34   8  35   8  36  14  37  14  38  14  39  14
M  END
>  <minimizedAffinity>  (1) 
-5.44680691

>  <minimizedRMSD>  (1) 
1.35129166

$$$$
