
     RDKit          3D

 48 51  0  0  1  0  0  0  0  0999 V2000
   36.3450   21.6850   31.6650 C   0  0  2  0  0  0  0  0  0  0  0  0
   37.2850   21.8980   35.0700 C   0  0  0  0  0  0  0  0  0  0  0  0
   36.2350   21.0090   35.2280 C   0  0  0  0  0  0  0  0  0  0  0  0
   35.7010   20.7780   33.9550 C   0  0  0  0  0  0  0  0  0  0  0  0
   36.4900   21.5620   33.1150 C   0  0  0  0  0  0  0  0  0  0  0  0
   37.3900   22.1890   33.8070 O   0  0  0  0  0  0  0  0  0  0  0  0
   38.0760   22.3650   36.2110 C   0  0  0  0  0  0  0  0  0  0  0  0
   39.4450   22.2040   36.3460 C   0  0  0  0  0  0  0  0  0  0  0  0
   40.0210   22.7250   37.5140 C   0  0  0  0  0  0  0  0  0  0  0  0
   39.2650   23.3440   38.4420 N   0  0  0  0  0  0  0  0  0  0  0  0
   37.9300   23.4850   38.2820 C   0  0  0  0  0  0  0  0  0  0  0  0
   37.3670   22.9990   37.1820 N   0  0  0  0  0  0  0  0  0  0  0  0
   35.7960   23.0590   31.2700 C   0  0  0  0  0  0  0  0  0  0  0  0
   35.5100   20.6200   31.0900 C   0  0  0  0  0  0  0  0  0  0  0  0
   36.1490   19.4640   30.5840 N   0  0  0  0  0  0  0  0  0  0  0  0
   36.8800   19.1420   29.5030 C   0  0  0  0  0  0  0  0  0  0  0  0
   37.2250   17.8440   29.5390 N   0  0  0  0  0  0  0  0  0  0  0  0
   36.6920   17.3440   30.6790 C   0  0  0  0  0  0  0  0  0  0  0  0
   36.0520   18.3490   31.2810 N   0  0  0  0  0  0  0  0  0  0  0  0
   36.7960   15.9250   31.1810 C   0  0  0  0  0  0  0  0  0  0  0  0
   37.8060   15.9600   32.3110 C   0  0  0  0  0  0  0  0  0  0  0  0
   38.0080   14.6170   32.9420 C   0  0  0  0  0  0  0  0  0  0  0  0
   36.7510   13.7650   32.9380 C   0  0  0  0  0  0  0  0  0  0  0  0
   35.5870   14.7310   33.0430 C   0  0  0  0  0  0  0  0  0  0  0  0
   35.4730   15.4250   31.7070 C   0  0  0  0  0  0  0  0  0  0  0  0
   37.3564   21.5764   31.2462 H   0  0  0  0  0  0  0  0  0  0  0  0
   35.8869   20.5683   36.1739 H   0  0  0  0  0  0  0  0  0  0  0  0
   34.8559   20.1292   33.6813 H   0  0  0  0  0  0  0  0  0  0  0  0
   40.0476   21.6953   35.5791 H   0  0  0  0  0  0  0  0  0  0  0  0
   41.1048   22.6269   37.6747 H   0  0  0  0  0  0  0  0  0  0  0  0
   37.3230   23.9916   39.0468 H   0  0  0  0  0  0  0  0  0  0  0  0
   35.5653   23.6364   32.1774 H   0  0  0  0  0  0  0  0  0  0  0  0
   36.5482   23.5970   30.6744 H   0  0  0  0  0  0  0  0  0  0  0  0
   34.8801   22.9305   30.6744 H   0  0  0  0  0  0  0  0  0  0  0  0
   34.8161   20.2899   31.8771 H   0  0  0  0  0  0  0  0  0  0  0  0
   35.0505   21.0845   30.2050 H   0  0  0  0  0  0  0  0  0  0  0  0
   37.1569   19.8427   28.7015 H   0  0  0  0  0  0  0  0  0  0  0  0
   37.0950   15.2487   30.3666 H   0  0  0  0  0  0  0  0  0  0  0  0
   38.7693   16.3108   31.9123 H   0  0  0  0  0  0  0  0  0  0  0  0
   37.4176   16.6379   33.0853 H   0  0  0  0  0  0  0  0  0  0  0  0
   38.7946   14.0840   32.3878 H   0  0  0  0  0  0  0  0  0  0  0  0
   38.2882   14.7855   33.9923 H   0  0  0  0  0  0  0  0  0  0  0  0
   36.6845   13.1873   32.0043 H   0  0  0  0  0  0  0  0  0  0  0  0
   36.7514   13.0448   33.7695 H   0  0  0  0  0  0  0  0  0  0  0  0
   34.6594   14.1832   33.2654 H   0  0  0  0  0  0  0  0  0  0  0  0
   35.7497   15.4580   33.8524 H   0  0  0  0  0  0  0  0  0  0  0  0
   34.7934   16.2831   31.8159 H   0  0  0  0  0  0  0  0  0  0  0  0
   35.0936   14.6856   30.9864 H   0  0  0  0  0  0  0  0  0  0  0  0
  1  5  1  0
  2  3  2  0
  2  7  1  0
  4  3  1  0
  5  6  1  0
  5  4  2  0
  6  2  1  0
  7  8  2  0
  7 12  1  0
  8  9  1  0
  9 10  2  0
 11 10  1  0
 12 11  2  0
 13  1  1  0
 14  1  1  0
 15 14  1  0
 15 19  1  0
 16 17  2  0
 16 15  1  0
 17 18  1  0
 18 20  1  0
 18 19  2  0
 20 25  1  0
 20 21  1  0
 21 22  1  0
 23 22  1  0
 23 24  1  0
 25 24  1  0
  1 26  1  6
  3 27  1  0
  4 28  1  0
  8 29  1  0
  9 30  1  0
 11 31  1  0
 13 32  1  0
 13 33  1  0
 13 34  1  0
 14 35  1  0
 14 36  1  0
 16 37  1  0
 20 38  1  0
 21 39  1  0
 21 40  1  0
 22 41  1  0
 22 42  1  0
 23 43  1  0
 23 44  1  0
 24 45  1  0
 24 46  1  0
 25 47  1  0
 25 48  1  0
M  ISO  8  26   8  27  14  28  14  29  14  30  14  31  14  32   8  33   8
M  ISO  8  34   8  35   8  36   8  37  14  38  13  39  13  40  13  41  13
M  ISO  7  42  13  43  13  44  13  45  13  46  13  47  13  48  13
M  END
>  <minimizedAffinity>  (1) 
-5.43999815

>  <minimizedRMSD>  (1) 
0.459133416

$$$$
