
     RDKit          3D

 27 28  0  0  0  0  0  0  0  0999 V2000
   40.4010   22.3680   37.7430 C   0  0  0  0  0  0  0  0  0  0  0  0
   39.3640   23.2940   37.4700 C   0  0  0  0  0  0  0  0  0  0  0  0
   39.2670   23.7960   36.1860 C   0  0  0  0  0  0  0  0  0  0  0  0
   40.1480   23.3970   35.2380 N   0  0  0  0  0  0  0  0  0  0  0  0
   41.1320   22.5040   35.5380 C   0  0  0  0  0  0  0  0  0  0  0  0
   41.2490   22.0050   36.7680 N   0  0  0  0  0  0  0  0  0  0  0  0
   38.3930   23.7270   38.5290 C   0  0  0  0  0  0  0  0  0  0  0  0
   39.0940   23.9250   39.6880 F   0  0  0  0  0  0  0  0  0  0  0  0
   37.4200   22.8200   38.7510 F   0  0  0  0  0  0  0  0  0  0  0  0
   37.8940   25.0110   38.2090 F   0  0  0  0  0  0  0  0  0  0  0  0
   42.2380   22.0440   34.2090 S   0  0  0  0  0  0  0  0  0  0  0  0
   43.7800   22.9360   34.4330 C   0  0  0  0  0  0  0  0  0  0  0  0
   44.5900   22.4790   35.6170 C   0  0  0  0  0  0  0  0  0  0  0  0
   44.9170   23.7570   36.4050 C   0  0  0  0  0  0  0  0  0  0  0  0
   44.9620   24.7600   35.2390 C   0  0  0  0  0  0  0  0  0  0  0  0
   43.5880   24.4250   34.6400 C   0  0  0  0  0  0  0  0  0  0  0  0
   40.5110   21.9469   38.7532 H   0  0  0  0  0  0  0  0  0  0  0  0
   38.4761   24.5180   35.9346 H   0  0  0  0  0  0  0  0  0  0  0  0
   44.3076   22.7213   33.4920 H   0  0  0  0  0  0  0  0  0  0  0  0
   44.0061   21.7831   36.2373 H   0  0  0  0  0  0  0  0  0  0  0  0
   45.5004   21.9444   35.3082 H   0  0  0  0  0  0  0  0  0  0  0  0
   44.1294   24.0055   37.1316 H   0  0  0  0  0  0  0  0  0  0  0  0
   45.8266   23.7105   37.0219 H   0  0  0  0  0  0  0  0  0  0  0  0
   45.0262   25.8024   35.5845 H   0  0  0  0  0  0  0  0  0  0  0  0
   45.8239   24.6827   34.5599 H   0  0  0  0  0  0  0  0  0  0  0  0
   43.4105   24.9542   33.6922 H   0  0  0  0  0  0  0  0  0  0  0  0
   42.7207   24.7107   35.2534 H   0  0  0  0  0  0  0  0  0  0  0  0
  2  1  2  0
  2  7  1  0
  3  2  1  0
  4  5  1  0
  4  3  2  0
  5  6  2  0
  6  1  1  0
  7  9  1  0
  7  8  1  0
 10  7  1  0
 11 12  1  0
 11  5  1  0
 12 16  1  0
 12 13  1  0
 13 14  1  0
 15 14  1  0
 16 15  1  0
  1 17  1  0
  3 18  1  0
 12 19  1  0
 13 20  1  0
 13 21  1  0
 14 22  1  0
 14 23  1  0
 15 24  1  0
 15 25  1  0
 16 26  1  0
 16 27  1  0
M  ISO  8  17  14  18  14  19  13  20  13  21  13  22  13  23  13  24  13
M  ISO  3  25  13  26  13  27  13
M  END
>  <minimizedAffinity>  (1) 
-4.10463333

>  <minimizedRMSD>  (1) 
1.98457873

$$$$
