
     RDKit          3D

 41 44  0  0  1  0  0  0  0  0999 V2000
   36.2350   21.3940   31.8800 C   0  0  2  0  0  0  0  0  0  0  0  0
   37.2210   21.8330   35.2410 C   0  0  0  0  0  0  0  0  0  0  0  0
   36.1340   21.0090   35.4850 C   0  0  0  0  0  0  0  0  0  0  0  0
   35.5780   20.7020   34.2380 C   0  0  0  0  0  0  0  0  0  0  0  0
   36.3910   21.3820   33.3320 C   0  0  0  0  0  0  0  0  0  0  0  0
   37.3340   22.0260   33.9610 O   0  0  0  0  0  0  0  0  0  0  0  0
   38.0540   22.3590   36.3370 C   0  0  0  0  0  0  0  0  0  0  0  0
   39.4240   22.2110   36.4360 C   0  0  0  0  0  0  0  0  0  0  0  0
   40.0410   22.7820   37.5550 C   0  0  0  0  0  0  0  0  0  0  0  0
   39.3110   23.4440   38.4810 N   0  0  0  0  0  0  0  0  0  0  0  0
   37.9730   23.5720   38.3550 C   0  0  0  0  0  0  0  0  0  0  0  0
   37.3690   23.0370   37.3030 N   0  0  0  0  0  0  0  0  0  0  0  0
   35.7400   22.7540   31.3770 C   0  0  0  0  0  0  0  0  0  0  0  0
   35.3630   20.3190   31.3950 C   0  0  0  0  0  0  0  0  0  0  0  0
   35.9250   19.0410   31.1700 N   0  0  0  0  0  0  0  0  0  0  0  0
   36.7030   18.4560   30.2410 C   0  0  0  0  0  0  0  0  0  0  0  0
   36.9190   17.1680   30.5510 N   0  0  0  0  0  0  0  0  0  0  0  0
   36.2530   16.9430   31.7130 C   0  0  0  0  0  0  0  0  0  0  0  0
   35.6700   18.0920   32.0530 N   0  0  0  0  0  0  0  0  0  0  0  0
   36.1920   15.6660   32.4550 C   0  0  0  0  0  0  0  0  0  0  0  0
   37.2820   14.8560   32.6980 C   0  0  0  0  0  0  0  0  0  0  0  0
   37.0310   13.6860   33.4170 C   0  0  0  0  0  0  0  0  0  0  0  0
   35.7480   13.3970   33.8390 C   0  0  0  0  0  0  0  0  0  0  0  0
   34.6790   14.2360   33.5740 C   0  0  0  0  0  0  0  0  0  0  0  0
   34.9450   15.3680   32.8750 N   0  0  0  0  0  0  0  0  0  0  0  0
   37.2376   21.2129   31.4654 H   0  0  0  0  0  0  0  0  0  0  0  0
   35.7778   20.6637   36.4668 H   0  0  0  0  0  0  0  0  0  0  0  0
   34.7031   20.0710   34.0226 H   0  0  0  0  0  0  0  0  0  0  0  0
   40.0021   21.6704   35.6721 H   0  0  0  0  0  0  0  0  0  0  0  0
   41.1298   22.6914   37.6824 H   0  0  0  0  0  0  0  0  0  0  0  0
   37.3912   24.1134   39.1156 H   0  0  0  0  0  0  0  0  0  0  0  0
   35.5051   23.3994   32.2362 H   0  0  0  0  0  0  0  0  0  0  0  0
   36.5237   23.2267   30.7668 H   0  0  0  0  0  0  0  0  0  0  0  0
   34.8358   22.6123   30.7668 H   0  0  0  0  0  0  0  0  0  0  0  0
   34.5596   20.1940   32.1359 H   0  0  0  0  0  0  0  0  0  0  0  0
   35.0533   20.6557   30.3946 H   0  0  0  0  0  0  0  0  0  0  0  0
   37.1058   18.9626   29.3516 H   0  0  0  0  0  0  0  0  0  0  0  0
   38.2908   15.1170   32.3455 H   0  0  0  0  0  0  0  0  0  0  0  0
   37.8548   12.9944   33.6474 H   0  0  0  0  0  0  0  0  0  0  0  0
   35.5697   12.4702   34.4040 H   0  0  0  0  0  0  0  0  0  0  0  0
   33.6610   13.9959   33.9145 H   0  0  0  0  0  0  0  0  0  0  0  0
  1  5  1  0
  2  3  2  0
  2  7  1  0
  4  3  1  0
  5  6  1  0
  5  4  2  0
  6  2  1  0
  7  8  2  0
  7 12  1  0
  8  9  1  0
  9 10  2  0
 11 10  1  0
 12 11  2  0
 13  1  1  0
 14  1  1  0
 15 14  1  0
 15 19  1  0
 16 17  2  0
 16 15  1  0
 17 18  1  0
 18 19  2  0
 18 20  1  0
 20 21  2  0
 20 25  1  0
 21 22  1  0
 22 23  2  0
 24 23  1  0
 25 24  2  0
  1 26  1  6
  3 27  1  0
  4 28  1  0
  8 29  1  0
  9 30  1  0
 11 31  1  0
 13 32  1  0
 13 33  1  0
 13 34  1  0
 14 35  1  0
 14 36  1  0
 16 37  1  0
 21 38  1  0
 22 39  1  0
 23 40  1  0
 24 41  1  0
M  ISO  8  26   8  27  14  28  14  29  14  30  14  31  14  32   8  33   8
M  ISO  8  34   8  35   8  36   8  37  14  38  14  39  14  40  14  41  14
M  END
>  <minimizedAffinity>  (1) 
-5.43432474

>  <minimizedRMSD>  (1) 
1.34568501

$$$$
