
     RDKit          3D

 40 43  0  0  1  0  0  0  0  0999 V2000
   36.2430   21.3940   31.8670 C   0  0  2  0  0  0  0  0  0  0  0  0
   37.2300   21.8380   35.2280 C   0  0  0  0  0  0  0  0  0  0  0  0
   36.1400   21.0110   35.4710 C   0  0  0  0  0  0  0  0  0  0  0  0
   35.5860   20.7060   34.2230 C   0  0  0  0  0  0  0  0  0  0  0  0
   36.4020   21.3850   33.3190 C   0  0  0  0  0  0  0  0  0  0  0  0
   37.3470   22.0300   33.9470 O   0  0  0  0  0  0  0  0  0  0  0  0
   38.0590   22.3600   36.3290 C   0  0  0  0  0  0  0  0  0  0  0  0
   39.4300   22.2090   36.4310 C   0  0  0  0  0  0  0  0  0  0  0  0
   40.0540   22.7740   37.5500 C   0  0  0  0  0  0  0  0  0  0  0  0
   39.3200   23.4350   38.4780 N   0  0  0  0  0  0  0  0  0  0  0  0
   37.9640   23.5670   38.3500 C   0  0  0  0  0  0  0  0  0  0  0  0
   37.3610   23.0340   37.2920 N   0  0  0  0  0  0  0  0  0  0  0  0
   35.7350   22.7490   31.3630 C   0  0  0  0  0  0  0  0  0  0  0  0
   35.3850   20.3100   31.3800 C   0  0  0  0  0  0  0  0  0  0  0  0
   35.9660   19.0430   31.1350 N   0  0  0  0  0  0  0  0  0  0  0  0
   36.7250   18.4720   30.1900 C   0  0  0  0  0  0  0  0  0  0  0  0
   36.9810   17.1930   30.4820 N   0  0  0  0  0  0  0  0  0  0  0  0
   36.3540   16.9490   31.6640 C   0  0  0  0  0  0  0  0  0  0  0  0
   35.7540   18.0910   32.0220 N   0  0  0  0  0  0  0  0  0  0  0  0
   36.3300   15.6740   32.4190 C   0  0  0  0  0  0  0  0  0  0  0  0
   35.0870   15.1920   32.7780 C   0  0  0  0  0  0  0  0  0  0  0  0
   35.1030   13.9970   33.4830 C   0  0  0  0  0  0  0  0  0  0  0  0
   36.2330   13.3230   33.8140 N   0  0  0  0  0  0  0  0  0  0  0  0
   37.4280   13.8500   33.4310 C   0  0  0  0  0  0  0  0  0  0  0  0
   37.4850   15.0190   32.7380 N   0  0  0  0  0  0  0  0  0  0  0  0
   37.2475   21.2218   31.4532 H   0  0  0  0  0  0  0  0  0  0  0  0
   35.7829   20.6643   36.4519 H   0  0  0  0  0  0  0  0  0  0  0  0
   34.7103   20.0768   34.0055 H   0  0  0  0  0  0  0  0  0  0  0  0
   40.0058   21.6680   35.6656 H   0  0  0  0  0  0  0  0  0  0  0  0
   41.1428   22.6811   37.6762 H   0  0  0  0  0  0  0  0  0  0  0  0
   37.3815   24.1063   39.1115 H   0  0  0  0  0  0  0  0  0  0  0  0
   35.4937   23.3926   32.2218 H   0  0  0  0  0  0  0  0  0  0  0  0
   36.5143   23.2288   30.7527 H   0  0  0  0  0  0  0  0  0  0  0  0
   34.8323   22.5982   30.7527 H   0  0  0  0  0  0  0  0  0  0  0  0
   34.5918   20.1636   32.1280 H   0  0  0  0  0  0  0  0  0  0  0  0
   35.0596   20.6519   30.3864 H   0  0  0  0  0  0  0  0  0  0  0  0
   37.0902   18.9889   29.2903 H   0  0  0  0  0  0  0  0  0  0  0  0
   34.1538   15.7161   32.5241 H   0  0  0  0  0  0  0  0  0  0  0  0
   34.1383   13.5690   33.7932 H   0  0  0  0  0  0  0  0  0  0  0  0
   38.3599   13.3237   33.6852 H   0  0  0  0  0  0  0  0  0  0  0  0
  1  5  1  0
  2  3  2  0
  2  7  1  0
  4  3  1  0
  5  6  1  0
  5  4  2  0
  6  2  1  0
  7  8  2  0
  7 12  1  0
  8  9  1  0
  9 10  2  0
 11 10  1  0
 12 11  2  0
 13  1  1  0
 14  1  1  0
 15 14  1  0
 15 19  1  0
 16 17  2  0
 16 15  1  0
 17 18  1  0
 18 19  2  0
 18 20  1  0
 20 25  1  0
 20 21  2  0
 21 22  1  0
 22 23  2  0
 24 23  1  0
 25 24  2  0
  1 26  1  6
  3 27  1  0
  4 28  1  0
  8 29  1  0
  9 30  1  0
 11 31  1  0
 13 32  1  0
 13 33  1  0
 13 34  1  0
 14 35  1  0
 14 36  1  0
 16 37  1  0
 21 38  1  0
 22 39  1  0
 24 40  1  0
M  ISO  8  26   8  27  14  28  14  29  14  30  14  31  14  32   8  33   8
M  ISO  7  34   8  35   8  36   8  37  14  38  14  39  14  40  14
M  END
>  <minimizedAffinity>  (1) 
-5.30087709

>  <minimizedRMSD>  (1) 
1.27447248

$$$$
