
     RDKit          3D

 40 43  0  0  1  0  0  0  0  0999 V2000
   36.2350   21.3790   31.8780 C   0  0  2  0  0  0  0  0  0  0  0  0
   37.2270   21.8340   35.2430 C   0  0  0  0  0  0  0  0  0  0  0  0
   36.1380   21.0110   35.4820 C   0  0  0  0  0  0  0  0  0  0  0  0
   35.5850   20.7050   34.2380 C   0  0  0  0  0  0  0  0  0  0  0  0
   36.3940   21.3750   33.3290 C   0  0  0  0  0  0  0  0  0  0  0  0
   37.3300   22.0130   33.9630 O   0  0  0  0  0  0  0  0  0  0  0  0
   38.0550   22.3580   36.3360 C   0  0  0  0  0  0  0  0  0  0  0  0
   39.4260   22.2080   36.4370 C   0  0  0  0  0  0  0  0  0  0  0  0
   40.0430   22.7810   37.5570 C   0  0  0  0  0  0  0  0  0  0  0  0
   39.3170   23.4410   38.4780 N   0  0  0  0  0  0  0  0  0  0  0  0
   37.9640   23.5750   38.3540 C   0  0  0  0  0  0  0  0  0  0  0  0
   37.3650   23.0380   37.3010 N   0  0  0  0  0  0  0  0  0  0  0  0
   35.7290   22.7310   31.3680 C   0  0  0  0  0  0  0  0  0  0  0  0
   35.3850   20.2900   31.3950 C   0  0  0  0  0  0  0  0  0  0  0  0
   35.9720   19.0240   31.1600 N   0  0  0  0  0  0  0  0  0  0  0  0
   36.7290   18.4450   30.2100 C   0  0  0  0  0  0  0  0  0  0  0  0
   36.9880   17.1700   30.5260 N   0  0  0  0  0  0  0  0  0  0  0  0
   36.3680   16.9420   31.7210 C   0  0  0  0  0  0  0  0  0  0  0  0
   35.7730   18.0770   32.0620 N   0  0  0  0  0  0  0  0  0  0  0  0
   36.3920   15.6660   32.4340 C   0  0  0  0  0  0  0  0  0  0  0  0
   35.1360   15.1870   32.7830 C   0  0  0  0  0  0  0  0  0  0  0  0
   34.9920   14.0000   33.4580 C   0  0  0  0  0  0  0  0  0  0  0  0
   36.1220   13.3120   33.7720 N   0  0  0  0  0  0  0  0  0  0  0  0
   37.3170   13.8220   33.4090 C   0  0  0  0  0  0  0  0  0  0  0  0
   37.4910   14.9930   32.7420 N   0  0  0  0  0  0  0  0  0  0  0  0
   37.2396   21.2085   31.4637 H   0  0  0  0  0  0  0  0  0  0  0  0
   35.7790   20.6657   36.4627 H   0  0  0  0  0  0  0  0  0  0  0  0
   34.7078   20.0762   34.0254 H   0  0  0  0  0  0  0  0  0  0  0  0
   40.0043   21.6651   35.6749 H   0  0  0  0  0  0  0  0  0  0  0  0
   41.1318   22.6904   37.6847 H   0  0  0  0  0  0  0  0  0  0  0  0
   37.3824   24.1182   39.1134 H   0  0  0  0  0  0  0  0  0  0  0  0
   35.4867   23.3783   32.2237 H   0  0  0  0  0  0  0  0  0  0  0  0
   36.5095   23.2078   30.7569 H   0  0  0  0  0  0  0  0  0  0  0  0
   34.8272   22.5782   30.7569 H   0  0  0  0  0  0  0  0  0  0  0  0
   34.5895   20.1448   32.1407 H   0  0  0  0  0  0  0  0  0  0  0  0
   35.0624   20.6245   30.3980 H   0  0  0  0  0  0  0  0  0  0  0  0
   37.0856   18.9494   29.2998 H   0  0  0  0  0  0  0  0  0  0  0  0
   34.2416   15.7682   32.5142 H   0  0  0  0  0  0  0  0  0  0  0  0
   33.9979   13.6192   33.7349 H   0  0  0  0  0  0  0  0  0  0  0  0
   38.2172   13.2474   33.6725 H   0  0  0  0  0  0  0  0  0  0  0  0
  1  5  1  0
  2  3  2  0
  2  7  1  0
  4  3  1  0
  5  6  1  0
  5  4  2  0
  6  2  1  0
  7  8  2  0
  7 12  1  0
  8  9  1  0
  9 10  2  0
 11 10  1  0
 12 11  2  0
 13  1  1  0
 14  1  1  0
 15 14  1  0
 15 19  1  0
 16 17  2  0
 16 15  1  0
 17 18  1  0
 18 19  2  0
 18 20  1  0
 20 25  1  0
 20 21  2  0
 21 22  1  0
 22 23  2  0
 24 23  1  0
 25 24  2  0
  1 26  1  6
  3 27  1  0
  4 28  1  0
  8 29  1  0
  9 30  1  0
 11 31  1  0
 13 32  1  0
 13 33  1  0
 13 34  1  0
 14 35  1  0
 14 36  1  0
 16 37  1  0
 21 38  1  0
 22 39  1  0
 24 40  1  0
M  ISO  8  26   8  27  14  28  14  29  14  30  14  31  14  32   8  33   8
M  ISO  7  34   8  35   8  36   8  37  14  38  14  39  14  40  14
M  END
>  <minimizedAffinity>  (1) 
-5.29613972

>  <minimizedRMSD>  (1) 
1.27068567

$$$$
