
     RDKit          3D

 27 28  0  0  0  0  0  0  0  0999 V2000
   40.5020   22.4240   37.8850 C   0  0  0  0  0  0  0  0  0  0  0  0
   39.3660   23.0800   37.3730 C   0  0  0  0  0  0  0  0  0  0  0  0
   39.2080   23.1140   35.9990 C   0  0  0  0  0  0  0  0  0  0  0  0
   40.1330   22.5270   35.1830 N   0  0  0  0  0  0  0  0  0  0  0  0
   41.2210   21.9010   35.7470 C   0  0  0  0  0  0  0  0  0  0  0  0
   41.3840   21.8630   37.0640 N   0  0  0  0  0  0  0  0  0  0  0  0
   38.3360   23.7320   38.2390 C   0  0  0  0  0  0  0  0  0  0  0  0
   38.9550   23.9990   39.4540 F   0  0  0  0  0  0  0  0  0  0  0  0
   37.2610   22.9550   38.4650 F   0  0  0  0  0  0  0  0  0  0  0  0
   38.0210   25.0170   37.7410 F   0  0  0  0  0  0  0  0  0  0  0  0
   42.3690   21.1650   34.5790 S   0  0  0  0  0  0  0  0  0  0  0  0
   45.3250   18.2930   36.6140 C   0  0  0  0  0  0  0  0  0  0  0  0
   44.0900   17.8950   36.1050 C   0  0  0  0  0  0  0  0  0  0  0  0
   43.2510   18.8080   35.5070 C   0  0  0  0  0  0  0  0  0  0  0  0
   43.5800   20.1610   35.3760 C   0  0  0  0  0  0  0  0  0  0  0  0
   44.7990   20.5400   35.8800 C   0  0  0  0  0  0  0  0  0  0  0  0
   45.6460   19.6260   36.4830 C   0  0  0  0  0  0  0  0  0  0  0  0
   46.3700   17.1300   37.3640 S   0  0  0  0  0  0  0  0  0  0  0  0
   45.8330   16.6100   38.6640 O   0  0  0  0  0  0  0  0  0  0  0  0
   47.7240   17.7420   37.5940 O   0  0  0  0  0  0  0  0  0  0  0  0
   40.6606   22.3755   38.9724 H   0  0  0  0  0  0  0  0  0  0  0  0
   38.3328   23.6164   35.5613 H   0  0  0  0  0  0  0  0  0  0  0  0
   43.7829   16.8415   36.1818 H   0  0  0  0  0  0  0  0  0  0  0  0
   42.2834   18.4595   35.1167 H   0  0  0  0  0  0  0  0  0  0  0  0
   45.1096   21.5924   35.8032 H   0  0  0  0  0  0  0  0  0  0  0  0
   46.6127   19.9779   36.8725 H   0  0  0  0  0  0  0  0  0  0  0  0
   46.4578   16.0643   36.5076 H   0  0  0  0  0  0  0  0  0  0  0  0
  2  1  2  0
  2  7  1  0
  3  2  1  0
  4  5  1  0
  4  3  2  0
  5  6  2  0
  6  1  1  0
  7  9  1  0
  7  8  1  0
 10  7  1  0
 11 15  1  0
 11  5  1  0
 12 18  1  0
 13 12  2  0
 14 13  1  0
 15 14  2  0
 15 16  1  0
 16 17  2  0
 17 12  1  0
 18 20  2  0
 18 19  2  0
  1 21  1  0
  3 22  1  0
 13 23  1  0
 14 24  1  0
 16 25  1  0
 17 26  1  0
 18 27  1  0
M  ISO  7  21  14  22  14  23  14  24  14  25  14  26  14  27  11
M  END
>  <minimizedAffinity>  (1) 
-4.06893396

>  <minimizedRMSD>  (1) 
1.5331372

$$$$
