
     RDKit          3D

 44 46  0  0  1  0  0  0  0  0999 V2000
   36.2550   21.5580   31.8230 C   0  0  2  0  0  0  0  0  0  0  0  0
   37.2460   21.8750   35.1960 C   0  0  0  0  0  0  0  0  0  0  0  0
   36.1940   20.9930   35.4050 C   0  0  0  0  0  0  0  0  0  0  0  0
   35.6430   20.7260   34.1480 C   0  0  0  0  0  0  0  0  0  0  0  0
   36.4210   21.4810   33.2720 C   0  0  0  0  0  0  0  0  0  0  0  0
   37.3420   22.1340   33.9260 O   0  0  0  0  0  0  0  0  0  0  0  0
   38.0630   22.3780   36.3160 C   0  0  0  0  0  0  0  0  0  0  0  0
   39.4310   22.2180   36.4320 C   0  0  0  0  0  0  0  0  0  0  0  0
   40.0390   22.7680   37.5720 C   0  0  0  0  0  0  0  0  0  0  0  0
   39.2930   23.4190   38.4940 N   0  0  0  0  0  0  0  0  0  0  0  0
   37.9530   23.5600   38.3520 C   0  0  0  0  0  0  0  0  0  0  0  0
   37.3740   23.0420   37.2770 N   0  0  0  0  0  0  0  0  0  0  0  0
   35.7390   22.9330   31.3860 C   0  0  0  0  0  0  0  0  0  0  0  0
   35.3870   20.4950   31.2960 C   0  0  0  0  0  0  0  0  0  0  0  0
   35.9880   19.2870   30.8730 N   0  0  0  0  0  0  0  0  0  0  0  0
   36.7050   18.8610   29.8190 C   0  0  0  0  0  0  0  0  0  0  0  0
   37.0120   17.5620   29.9530 N   0  0  0  0  0  0  0  0  0  0  0  0
   36.4660   17.1650   31.1330 C   0  0  0  0  0  0  0  0  0  0  0  0
   35.8590   18.2270   31.6570 N   0  0  0  0  0  0  0  0  0  0  0  0
   36.5690   15.7830   31.6740 C   0  0  0  0  0  0  0  0  0  0  0  0
   37.9100   15.6300   32.3620 C   0  0  0  0  0  0  0  0  0  0  0  0
   35.4150   15.4790   32.5930 C   0  0  0  0  0  0  0  0  0  0  0  0
   36.5700   14.8320   30.4900 C   0  0  0  0  0  0  0  0  0  0  0  0
   37.2568   21.4083   31.3940 H   0  0  0  0  0  0  0  0  0  0  0  0
   35.8597   20.5845   36.3701 H   0  0  0  0  0  0  0  0  0  0  0  0
   34.7925   20.0716   33.9064 H   0  0  0  0  0  0  0  0  0  0  0  0
   40.0156   21.6851   35.6676 H   0  0  0  0  0  0  0  0  0  0  0  0
   41.1251   22.6693   37.7158 H   0  0  0  0  0  0  0  0  0  0  0  0
   37.3593   24.0915   39.1103 H   0  0  0  0  0  0  0  0  0  0  0  0
   35.5116   23.5389   32.2754 H   0  0  0  0  0  0  0  0  0  0  0  0
   36.5084   23.4391   30.7844 H   0  0  0  0  0  0  0  0  0  0  0  0
   34.8266   22.8080   30.7844 H   0  0  0  0  0  0  0  0  0  0  0  0
   34.6665   20.2407   32.0873 H   0  0  0  0  0  0  0  0  0  0  0  0
   34.9613   20.9230   30.3764 H   0  0  0  0  0  0  0  0  0  0  0  0
   36.9990   19.4897   28.9656 H   0  0  0  0  0  0  0  0  0  0  0  0
   37.7666   15.6464   33.4525 H   0  0  0  0  0  0  0  0  0  0  0  0
   38.3667   14.6739   32.0665 H   0  0  0  0  0  0  0  0  0  0  0  0
   38.5704   16.4586   32.0665 H   0  0  0  0  0  0  0  0  0  0  0  0
   35.7460   15.5662   33.6384 H   0  0  0  0  0  0  0  0  0  0  0  0
   34.5993   16.1929   32.4059 H   0  0  0  0  0  0  0  0  0  0  0  0
   35.0569   14.4559   32.4059 H   0  0  0  0  0  0  0  0  0  0  0  0
   36.5711   13.7938   30.8536 H   0  0  0  0  0  0  0  0  0  0  0  0
   35.6717   15.0057   29.8794 H   0  0  0  0  0  0  0  0  0  0  0  0
   37.4680   15.0076   29.8794 H   0  0  0  0  0  0  0  0  0  0  0  0
  1  5  1  0
  2  3  2  0
  2  7  1  0
  4  3  1  0
  5  6  1  0
  5  4  2  0
  6  2  1  0
  7  8  2  0
  7 12  1  0
  8  9  1  0
  9 10  2  0
 11 10  1  0
 12 11  2  0
 13  1  1  0
 14  1  1  0
 15 14  1  0
 15 19  1  0
 16 17  2  0
 16 15  1  0
 17 18  1  0
 18 19  2  0
 18 20  1  0
 20 21  1  0
 20 22  1  0
 23 20  1  0
  1 24  1  6
  3 25  1  0
  4 26  1  0
  8 27  1  0
  9 28  1  0
 11 29  1  0
 13 30  1  0
 13 31  1  0
 13 32  1  0
 14 33  1  0
 14 34  1  0
 16 35  1  0
 21 36  1  0
 21 37  1  0
 21 38  1  0
 22 39  1  0
 22 40  1  0
 22 41  1  0
 23 42  1  0
 23 43  1  0
 23 44  1  0
M  ISO  8  24   8  25  14  26  14  27  14  28  14  29  14  30   8  31   8
M  ISO  8  32   8  33   8  34   8  35  14  36   8  37   8  38   8  39   8
M  ISO  5  40   8  41   8  42   8  43   8  44   8
M  END
>  <minimizedAffinity>  (1) 
-5.13140631

>  <minimizedRMSD>  (1) 
0.636530221

$$$$
