
     RDKit          3D

 35 37  0  0  1  0  0  0  0  0999 V2000
   36.2510   21.3870   31.8720 C   0  0  2  0  0  0  0  0  0  0  0  0
   37.2410   21.8500   35.2280 C   0  0  0  0  0  0  0  0  0  0  0  0
   36.1520   20.9990   35.4800 C   0  0  0  0  0  0  0  0  0  0  0  0
   35.6040   20.6890   34.2350 C   0  0  0  0  0  0  0  0  0  0  0  0
   36.4030   21.3750   33.3240 C   0  0  0  0  0  0  0  0  0  0  0  0
   37.3290   22.0260   33.9590 O   0  0  0  0  0  0  0  0  0  0  0  0
   38.0470   22.3710   36.3330 C   0  0  0  0  0  0  0  0  0  0  0  0
   39.4160   22.2160   36.4460 C   0  0  0  0  0  0  0  0  0  0  0  0
   40.0340   22.7790   37.5700 C   0  0  0  0  0  0  0  0  0  0  0  0
   39.2910   23.4410   38.4920 N   0  0  0  0  0  0  0  0  0  0  0  0
   37.9570   23.5750   38.3560 C   0  0  0  0  0  0  0  0  0  0  0  0
   37.3690   23.0450   37.2940 N   0  0  0  0  0  0  0  0  0  0  0  0
   35.7260   22.7380   31.3760 C   0  0  0  0  0  0  0  0  0  0  0  0
   35.3860   20.2990   31.3910 C   0  0  0  0  0  0  0  0  0  0  0  0
   35.9840   19.0530   31.0860 N   0  0  0  0  0  0  0  0  0  0  0  0
   36.7390   18.5390   30.0960 C   0  0  0  0  0  0  0  0  0  0  0  0
   37.0140   17.2510   30.3300 N   0  0  0  0  0  0  0  0  0  0  0  0
   36.4140   16.9460   31.5040 C   0  0  0  0  0  0  0  0  0  0  0  0
   35.8070   18.0560   31.9260 N   0  0  0  0  0  0  0  0  0  0  0  0
   36.4230   15.6130   32.2110 C   0  0  0  0  0  0  0  0  0  0  0  0
   36.3360   14.6040   31.2510 F   0  0  0  0  0  0  0  0  0  0  0  0
   37.5740   15.4230   32.9050 F   0  0  0  0  0  0  0  0  0  0  0  0
   35.2750   15.5600   32.9850 F   0  0  0  0  0  0  0  0  0  0  0  0
   37.2555   21.2242   31.4543 H   0  0  0  0  0  0  0  0  0  0  0  0
   35.8017   20.6476   36.4618 H   0  0  0  0  0  0  0  0  0  0  0  0
   34.7364   20.0474   34.0213 H   0  0  0  0  0  0  0  0  0  0  0  0
   39.9959   21.6732   35.6850 H   0  0  0  0  0  0  0  0  0  0  0  0
   41.1216   22.6843   37.7050 H   0  0  0  0  0  0  0  0  0  0  0  0
   37.3677   24.1141   39.1124 H   0  0  0  0  0  0  0  0  0  0  0  0
   35.4787   23.3743   32.2385 H   0  0  0  0  0  0  0  0  0  0  0  0
   36.4983   23.2302   30.7667 H   0  0  0  0  0  0  0  0  0  0  0  0
   34.8240   22.5796   30.7667 H   0  0  0  0  0  0  0  0  0  0  0  0
   34.6297   20.1159   32.1685 H   0  0  0  0  0  0  0  0  0  0  0  0
   35.0046   20.6615   30.4250 H   0  0  0  0  0  0  0  0  0  0  0  0
   37.0825   19.1016   29.2154 H   0  0  0  0  0  0  0  0  0  0  0  0
  1  5  1  0
  2  3  2  0
  2  7  1  0
  4  3  1  0
  5  6  1  0
  5  4  2  0
  6  2  1  0
  7  8  2  0
  7 12  1  0
  8  9  1  0
  9 10  2  0
 11 10  1  0
 12 11  2  0
 13  1  1  0
 14  1  1  0
 15 14  1  0
 15 19  1  0
 16 17  2  0
 16 15  1  0
 17 18  1  0
 18 19  2  0
 18 20  1  0
 20 22  1  0
 20 23  1  0
 21 20  1  0
  1 24  1  6
  3 25  1  0
  4 26  1  0
  8 27  1  0
  9 28  1  0
 11 29  1  0
 13 30  1  0
 13 31  1  0
 13 32  1  0
 14 33  1  0
 14 34  1  0
 16 35  1  0
M  ISO  8  24   8  25  14  26  14  27  14  28  14  29  14  30   8  31   8
M  ISO  4  32   8  33   8  34   8  35  14
M  END
>  <minimizedAffinity>  (1) 
-5.10360384

>  <minimizedRMSD>  (1) 
0.881546915

$$$$
