
     RDKit          3D

 41 43  0  0  1  0  0  0  0  0999 V2000
   36.3140   21.6540   31.6880 C   0  0  2  0  0  0  0  0  0  0  0  0
   37.2690   21.8960   35.0820 C   0  0  0  0  0  0  0  0  0  0  0  0
   36.2100   21.0080   35.2560 C   0  0  0  0  0  0  0  0  0  0  0  0
   35.6780   20.7740   33.9880 C   0  0  0  0  0  0  0  0  0  0  0  0
   36.4650   21.5450   33.1360 C   0  0  0  0  0  0  0  0  0  0  0  0
   37.3730   22.1770   33.8180 O   0  0  0  0  0  0  0  0  0  0  0  0
   38.0650   22.3670   36.2200 C   0  0  0  0  0  0  0  0  0  0  0  0
   39.4340   22.2060   36.3480 C   0  0  0  0  0  0  0  0  0  0  0  0
   40.0270   22.7240   37.5080 C   0  0  0  0  0  0  0  0  0  0  0  0
   39.2720   23.3470   38.4410 N   0  0  0  0  0  0  0  0  0  0  0  0
   37.9400   23.4880   38.2860 C   0  0  0  0  0  0  0  0  0  0  0  0
   37.3630   23.0030   37.1930 N   0  0  0  0  0  0  0  0  0  0  0  0
   35.7870   23.0330   31.2800 C   0  0  0  0  0  0  0  0  0  0  0  0
   35.4690   20.5930   31.1250 C   0  0  0  0  0  0  0  0  0  0  0  0
   36.0960   19.4190   30.6450 N   0  0  0  0  0  0  0  0  0  0  0  0
   36.7530   19.0330   29.5360 C   0  0  0  0  0  0  0  0  0  0  0  0
   37.1300   17.7510   29.6320 N   0  0  0  0  0  0  0  0  0  0  0  0
   36.6930   17.3210   30.8480 C   0  0  0  0  0  0  0  0  0  0  0  0
   36.0810   18.3500   31.4170 N   0  0  0  0  0  0  0  0  0  0  0  0
   36.8720   15.9390   31.4270 C   0  0  0  0  0  0  0  0  0  0  0  0
   35.7060   15.7760   32.4100 C   0  0  0  0  0  0  0  0  0  0  0  0
   38.1350   15.9200   32.2590 C   0  0  0  0  0  0  0  0  0  0  0  0
   37.3216   21.5265   31.2656 H   0  0  0  0  0  0  0  0  0  0  0  0
   35.8619   20.5764   36.2060 H   0  0  0  0  0  0  0  0  0  0  0  0
   34.8292   20.1271   33.7214 H   0  0  0  0  0  0  0  0  0  0  0  0
   40.0285   21.6957   35.5759 H   0  0  0  0  0  0  0  0  0  0  0  0
   41.1118   22.6231   37.6599 H   0  0  0  0  0  0  0  0  0  0  0  0
   37.3399   23.9976   39.0542 H   0  0  0  0  0  0  0  0  0  0  0  0
   35.5622   23.6212   32.1819 H   0  0  0  0  0  0  0  0  0  0  0  0
   36.5491   23.5547   30.6825 H   0  0  0  0  0  0  0  0  0  0  0  0
   34.8712   22.9135   30.6825 H   0  0  0  0  0  0  0  0  0  0  0  0
   34.7635   20.2869   31.9115 H   0  0  0  0  0  0  0  0  0  0  0  0
   35.0235   21.0484   30.2283 H   0  0  0  0  0  0  0  0  0  0  0  0
   36.9530   19.6809   28.6698 H   0  0  0  0  0  0  0  0  0  0  0  0
   36.9145   15.1668   30.6448 H   0  0  0  0  0  0  0  0  0  0  0  0
   36.0855   15.8291   33.4411 H   0  0  0  0  0  0  0  0  0  0  0  0
   34.9738   16.5805   32.2470 H   0  0  0  0  0  0  0  0  0  0  0  0
   35.2225   14.8015   32.2470 H   0  0  0  0  0  0  0  0  0  0  0  0
   37.8708   15.9240   33.3268 H   0  0  0  0  0  0  0  0  0  0  0  0
   38.7129   15.0131   32.0276 H   0  0  0  0  0  0  0  0  0  0  0  0
   38.7399   16.8091   32.0276 H   0  0  0  0  0  0  0  0  0  0  0  0
  1  5  1  0
  2  3  2  0
  2  7  1  0
  4  3  1  0
  5  6  1  0
  5  4  2  0
  6  2  1  0
  7  8  2  0
  7 12  1  0
  8  9  1  0
  9 10  2  0
 11 10  1  0
 12 11  2  0
 13  1  1  0
 14  1  1  0
 15 14  1  0
 15 19  1  0
 16 17  2  0
 16 15  1  0
 17 18  1  0
 18 19  2  0
 18 20  1  0
 20 22  1  0
 20 21  1  0
  1 23  1  6
  3 24  1  0
  4 25  1  0
  8 26  1  0
  9 27  1  0
 11 28  1  0
 13 29  1  0
 13 30  1  0
 13 31  1  0
 14 32  1  0
 14 33  1  0
 16 34  1  0
 20 35  1  0
 21 36  1  0
 21 37  1  0
 21 38  1  0
 22 39  1  0
 22 40  1  0
 22 41  1  0
M  ISO  8  23   8  24  14  25  14  26  14  27  14  28  14  29   8  30   8
M  ISO  8  31   8  32   8  33   8  34  14  35   8  36   8  37   8  38   8
M  ISO  3  39   8  40   8  41   8
M  END
>  <minimizedAffinity>  (1) 
-5.05573654

>  <minimizedRMSD>  (1) 
0.478202492

$$$$
