
     RDKit          3D

 34 36  0  0  1  0  0  0  0  0999 V2000
   36.2800   21.5470   31.7380 C   0  0  2  0  0  0  0  0  0  0  0  0
   37.2420   21.8510   35.1250 C   0  0  0  0  0  0  0  0  0  0  0  0
   36.1930   20.9660   35.3140 C   0  0  0  0  0  0  0  0  0  0  0  0
   35.6600   20.7090   34.0510 C   0  0  0  0  0  0  0  0  0  0  0  0
   36.4380   21.4680   33.1850 C   0  0  0  0  0  0  0  0  0  0  0  0
   37.3430   22.1130   33.8560 O   0  0  0  0  0  0  0  0  0  0  0  0
   38.0430   22.3500   36.2500 C   0  0  0  0  0  0  0  0  0  0  0  0
   39.4130   22.2080   36.3730 C   0  0  0  0  0  0  0  0  0  0  0  0
   39.9980   22.7560   37.5230 C   0  0  0  0  0  0  0  0  0  0  0  0
   39.2450   23.3870   38.4510 N   0  0  0  0  0  0  0  0  0  0  0  0
   37.9090   23.5080   38.3010 C   0  0  0  0  0  0  0  0  0  0  0  0
   37.3330   22.9970   37.2190 N   0  0  0  0  0  0  0  0  0  0  0  0
   35.7300   22.9080   31.3030 C   0  0  0  0  0  0  0  0  0  0  0  0
   35.4730   20.4570   31.1890 C   0  0  0  0  0  0  0  0  0  0  0  0
   36.1330   19.3830   30.5420 N   0  0  0  0  0  0  0  0  0  0  0  0
   36.6890   19.1420   29.3500 C   0  0  0  0  0  0  0  0  0  0  0  0
   37.1790   17.8900   29.3030 N   0  0  0  0  0  0  0  0  0  0  0  0
   36.9140   17.3360   30.5160 C   0  0  0  0  0  0  0  0  0  0  0  0
   36.2860   18.2620   31.2330 N   0  0  0  0  0  0  0  0  0  0  0  0
   37.2650   15.9970   30.9080 N   0  0  0  0  0  0  0  0  0  0  0  0
   37.2905   21.4339   31.3183 H   0  0  0  0  0  0  0  0  0  0  0  0
   35.8484   20.5483   36.2715 H   0  0  0  0  0  0  0  0  0  0  0  0
   34.8141   20.0531   33.7974 H   0  0  0  0  0  0  0  0  0  0  0  0
   40.0124   21.6920   35.6085 H   0  0  0  0  0  0  0  0  0  0  0  0
   41.0846   22.6713   37.6721 H   0  0  0  0  0  0  0  0  0  0  0  0
   37.3062   24.0224   39.0639 H   0  0  0  0  0  0  0  0  0  0  0  0
   35.4879   23.5071   32.1932 H   0  0  0  0  0  0  0  0  0  0  0  0
   36.4862   23.4339   30.7016 H   0  0  0  0  0  0  0  0  0  0  0  0
   34.8208   22.7608   30.7016 H   0  0  0  0  0  0  0  0  0  0  0  0
   34.8970   20.0286   32.0225 H   0  0  0  0  0  0  0  0  0  0  0  0
   34.8884   20.9335   30.3883 H   0  0  0  0  0  0  0  0  0  0  0  0
   36.7388   19.8662   28.5235 H   0  0  0  0  0  0  0  0  0  0  0  0
   37.0253   15.6566   31.8501 H   0  0  0  0  0  0  0  0  0  0  0  0
   37.7560   15.3787   30.2465 H   0  0  0  0  0  0  0  0  0  0  0  0
  1  5  1  0
  2  3  2  0
  2  7  1  0
  4  3  1  0
  5  6  1  0
  5  4  2  0
  6  2  1  0
  7  8  2  0
  7 12  1  0
  8  9  1  0
  9 10  2  0
 11 10  1  0
 12 11  2  0
 13  1  1  0
 14  1  1  0
 15 14  1  0
 15 19  1  0
 16 15  1  0
 17 16  2  0
 17 18  1  0
 18 20  1  0
 18 19  2  0
  1 21  1  6
  3 22  1  0
  4 23  1  0
  8 24  1  0
  9 25  1  0
 11 26  1  0
 13 27  1  0
 13 28  1  0
 13 29  1  0
 14 30  1  0
 14 31  1  0
 16 32  1  0
 20 33  1  0
 20 34  1  0
M  ISO  8  21   8  22  14  23  14  24  14  25  14  26  14  27   8  28   8
M  ISO  4  29   8  30   8  31   8  32  14
M  END
>  <minimizedAffinity>  (1) 
-4.83967972

>  <minimizedRMSD>  (1) 
0.0527810939

$$$$
