
     RDKit          3D

 22 23  0  0  0  0  0  0  0  0999 V2000
   40.5110   22.4920   37.8710 C   0  0  0  0  0  0  0  0  0  0  0  0
   39.3120   23.1060   37.4390 C   0  0  0  0  0  0  0  0  0  0  0  0
   39.0460   23.1160   36.0780 C   0  0  0  0  0  0  0  0  0  0  0  0
   39.9180   22.5530   35.2070 N   0  0  0  0  0  0  0  0  0  0  0  0
   41.0700   21.9700   35.6880 C   0  0  0  0  0  0  0  0  0  0  0  0
   41.3370   21.9530   36.9830 N   0  0  0  0  0  0  0  0  0  0  0  0
   38.3410   23.7300   38.3940 C   0  0  0  0  0  0  0  0  0  0  0  0
   39.0130   23.9700   39.5660 F   0  0  0  0  0  0  0  0  0  0  0  0
   37.2790   22.9100   38.6490 F   0  0  0  0  0  0  0  0  0  0  0  0
   37.9430   24.9890   37.9360 F   0  0  0  0  0  0  0  0  0  0  0  0
   42.1580   21.2580   34.4480 S   0  0  0  0  0  0  0  0  0  0  0  0
   43.5230   20.5110   35.3270 C   0  0  0  0  0  0  0  0  0  0  0  0
   44.8020   20.9700   35.4650 C   0  0  0  0  0  0  0  0  0  0  0  0
   45.6910   20.2090   36.1990 C   0  0  0  0  0  0  0  0  0  0  0  0
   45.3070   19.0540   36.7580 N   0  0  0  0  0  0  0  0  0  0  0  0
   44.0380   18.5880   36.6260 C   0  0  0  0  0  0  0  0  0  0  0  0
   43.1610   19.3400   35.9010 N   0  0  0  0  0  0  0  0  0  0  0  0
   40.7586   22.4613   38.9423 H   0  0  0  0  0  0  0  0  0  0  0  0
   38.1230   23.5831   35.7039 H   0  0  0  0  0  0  0  0  0  0  0  0
   45.1152   21.9187   35.0047 H   0  0  0  0  0  0  0  0  0  0  0  0
   46.7271   20.5559   36.3260 H   0  0  0  0  0  0  0  0  0  0  0  0
   43.7288   17.6384   37.0872 H   0  0  0  0  0  0  0  0  0  0  0  0
  2  1  2  0
  2  7  1  0
  3  2  1  0
  4  5  1  0
  4  3  2  0
  5  6  2  0
  6  1  1  0
  7  9  1  0
  7  8  1  0
 10  7  1  0
 11 12  1  0
 11  5  1  0
 12 13  2  0
 12 17  1  0
 13 14  1  0
 14 15  2  0
 16 15  1  0
 17 16  2  0
  1 18  1  0
  3 19  1  0
 13 20  1  0
 14 21  1  0
 16 22  1  0
M  ISO  5  18  14  19  14  20  14  21  14  22  14
M  END
>  <minimizedAffinity>  (1) 
-4.05640602

>  <minimizedRMSD>  (1) 
0.729169667

$$$$
