
     RDKit          3D

 52 56  0  0  1  0  0  0  0  0999 V2000
   36.4350   21.4320   31.7370 C   0  0  2  0  0  0  0  0  0  0  0  0
   37.2710   21.8470   35.1270 C   0  0  0  0  0  0  0  0  0  0  0  0
   36.1420   21.0700   35.3270 C   0  0  0  0  0  0  0  0  0  0  0  0
   35.6260   20.7760   34.0580 C   0  0  0  0  0  0  0  0  0  0  0  0
   36.5210   21.4240   33.1910 C   0  0  0  0  0  0  0  0  0  0  0  0
   37.4710   22.0400   33.8460 O   0  0  0  0  0  0  0  0  0  0  0  0
   38.0820   22.3490   36.2610 C   0  0  0  0  0  0  0  0  0  0  0  0
   39.4400   22.2070   36.3930 C   0  0  0  0  0  0  0  0  0  0  0  0
   40.0070   22.7630   37.5490 C   0  0  0  0  0  0  0  0  0  0  0  0
   39.2650   23.3910   38.4610 N   0  0  0  0  0  0  0  0  0  0  0  0
   37.9200   23.5180   38.3080 C   0  0  0  0  0  0  0  0  0  0  0  0
   37.3620   23.0020   37.2260 N   0  0  0  0  0  0  0  0  0  0  0  0
   35.9080   22.7990   31.2210 C   0  0  0  0  0  0  0  0  0  0  0  0
   35.6030   20.3720   31.1860 C   0  0  0  0  0  0  0  0  0  0  0  0
   36.0770   19.0450   31.1700 N   0  0  0  0  0  0  0  0  0  0  0  0
   36.9830   18.4030   30.4460 C   0  0  0  0  0  0  0  0  0  0  0  0
   37.0670   17.1180   30.8270 N   0  0  0  0  0  0  0  0  0  0  0  0
   36.1730   16.9660   31.8260 C   0  0  0  0  0  0  0  0  0  0  0  0
   35.6010   18.1450   32.0010 N   0  0  0  0  0  0  0  0  0  0  0  0
   35.9410   15.7400   32.5130 N   0  0  0  0  0  0  0  0  0  0  0  0
   36.8430   14.7990   32.7710 C   0  0  0  0  0  0  0  0  0  0  0  0
   36.2160   13.8100   33.4350 N   0  0  0  0  0  0  0  0  0  0  0  0
   34.9150   14.1430   33.5870 C   0  0  0  0  0  0  0  0  0  0  0  0
   34.7560   15.3450   33.0090 N   0  0  0  0  0  0  0  0  0  0  0  0
   33.9870   13.2970   34.2530 N   0  0  0  0  0  0  0  0  0  0  0  0
   32.8700   13.8990   34.9530 C   0  0  0  0  0  0  0  0  0  0  0  0
   31.6120   13.3560   34.3310 C   0  0  0  0  0  0  0  0  0  0  0  0
   31.7230   12.0290   33.8320 N   0  0  0  0  0  0  0  0  0  0  0  0
   32.7300   11.2050   34.4560 C   0  0  0  0  0  0  0  0  0  0  0  0
   34.0870   11.8490   34.2780 C   0  0  0  0  0  0  0  0  0  0  0  0
   37.4636   21.2551   31.3897 H   0  0  0  0  0  0  0  0  0  0  0  0
   35.7303   20.7465   36.2944 H   0  0  0  0  0  0  0  0  0  0  0  0
   34.7361   20.1820   33.8027 H   0  0  0  0  0  0  0  0  0  0  0  0
   40.0479   21.6880   35.6373 H   0  0  0  0  0  0  0  0  0  0  0  0
   41.0923   22.6786   37.7072 H   0  0  0  0  0  0  0  0  0  0  0  0
   37.3122   24.0363   39.0643 H   0  0  0  0  0  0  0  0  0  0  0  0
   35.6597   23.4432   32.0774 H   0  0  0  0  0  0  0  0  0  0  0  0
   36.6836   23.2840   30.6101 H   0  0  0  0  0  0  0  0  0  0  0  0
   35.0075   22.6379   30.6101 H   0  0  0  0  0  0  0  0  0  0  0  0
   34.6673   20.3688   31.7642 H   0  0  0  0  0  0  0  0  0  0  0  0
   35.5347   20.6307   30.1190 H   0  0  0  0  0  0  0  0  0  0  0  0
   37.5826   18.8593   29.6446 H   0  0  0  0  0  0  0  0  0  0  0  0
   37.9070   14.8236   32.4930 H   0  0  0  0  0  0  0  0  0  0  0  0
   32.9073   13.6351   36.0202 H   0  0  0  0  0  0  0  0  0  0  0  0
   32.9038   14.9956   34.8733 H   0  0  0  0  0  0  0  0  0  0  0  0
   30.8186   13.3708   35.0928 H   0  0  0  0  0  0  0  0  0  0  0  0
   31.3908   13.9971   33.4649 H   0  0  0  0  0  0  0  0  0  0  0  0
   30.8119   11.5660   33.9603 H   0  0  0  0  0  0  0  0  0  0  0  0
   32.5092   11.1049   35.5289 H   0  0  0  0  0  0  0  0  0  0  0  0
   32.7316   10.2093   33.9885 H   0  0  0  0  0  0  0  0  0  0  0  0
   34.5252   11.5041   33.3298 H   0  0  0  0  0  0  0  0  0  0  0  0
   34.7214   11.5605   35.1290 H   0  0  0  0  0  0  0  0  0  0  0  0
  1  5  1  0
  2  3  2  0
  2  7  1  0
  4  3  1  0
  5  6  1  0
  5  4  2  0
  6  2  1  0
  7  8  2  0
  7 12  1  0
  8  9  1  0
  9 10  2  0
 11 10  1  0
 12 11  2  0
 13  1  1  0
 14  1  1  0
 15 14  1  0
 15 19  1  0
 16 17  2  0
 16 15  1  0
 17 18  1  0
 18 19  2  0
 18 20  1  0
 20 21  1  0
 20 24  1  0
 21 22  2  0
 22 23  1  0
 23 25  1  0
 24 23  2  0
 25 30  1  0
 25 26  1  0
 27 26  1  0
 28 27  1  0
 28 29  1  0
 30 29  1  0
  1 31  1  6
  3 32  1  0
  4 33  1  0
  8 34  1  0
  9 35  1  0
 11 36  1  0
 13 37  1  0
 13 38  1  0
 13 39  1  0
 14 40  1  0
 14 41  1  0
 16 42  1  0
 21 43  1  0
 26 44  1  0
 26 45  1  0
 27 46  1  0
 27 47  1  0
 28 48  1  0
 29 49  1  0
 29 50  1  0
 30 51  1  0
 30 52  1  0
M  ISO  8  31   8  32  14  33  14  34  14  35  14  36  14  37   8  38   8
M  ISO  8  39   8  40   8  41   8  42  14  43  14  44  13  45  13  46  13
M  ISO  6  47  13  48   5  49  13  50  13  51  13  52  13
M  END
>  <minimizedAffinity>  (1) 
-6.32520247

>  <minimizedRMSD>  (1) 
0.420810252

$$$$
