
     RDKit          3D

 29 30  0  0  1  0  0  0  0  0999 V2000
   41.0260   24.9260   34.3210 C   0  0  2  0  0  0  0  0  0  0  0  0
   39.5770   22.8640   36.9710 C   0  0  0  0  0  0  0  0  0  0  0  0
   40.7020   22.1510   37.4910 C   0  0  0  0  0  0  0  0  0  0  0  0
   41.9580   22.4010   36.9080 C   0  0  0  0  0  0  0  0  0  0  0  0
   42.0170   23.3110   35.8780 N   0  0  0  0  0  0  0  0  0  0  0  0
   40.9300   23.9630   35.4170 C   0  0  0  0  0  0  0  0  0  0  0  0
   39.7300   23.7300   35.9690 N   0  0  0  0  0  0  0  0  0  0  0  0
   42.3520   24.7530   33.6250 C   0  0  0  0  0  0  0  0  0  0  0  0
   40.9290   26.3660   34.7790 C   0  0  0  0  0  0  0  0  0  0  0  0
   39.5630   26.8620   34.4580 C   0  0  0  0  0  0  0  0  0  0  0  0
   38.8030   27.2610   35.5350 C   0  0  0  0  0  0  0  0  0  0  0  0
   37.5110   27.7520   35.4400 C   0  0  0  0  0  0  0  0  0  0  0  0
   36.9900   27.8240   34.1420 C   0  0  0  0  0  0  0  0  0  0  0  0
   37.7260   27.4290   33.0330 C   0  0  0  0  0  0  0  0  0  0  0  0
   39.0060   26.9510   33.1940 C   0  0  0  0  0  0  0  0  0  0  0  0
   40.1763   24.7247   33.6520 H   0  0  0  0  0  0  0  0  0  0  0  0
   38.5783   22.6968   37.4007 H   0  0  0  0  0  0  0  0  0  0  0  0
   40.5897   21.4331   38.3168 H   0  0  0  0  0  0  0  0  0  0  0  0
   42.8625   21.8860   37.2639 H   0  0  0  0  0  0  0  0  0  0  0  0
   43.1493   24.6490   34.3757 H   0  0  0  0  0  0  0  0  0  0  0  0
   42.3209   23.8513   32.9957 H   0  0  0  0  0  0  0  0  0  0  0  0
   42.5533   25.6325   32.9957 H   0  0  0  0  0  0  0  0  0  0  0  0
   41.1017   26.4247   35.8638 H   0  0  0  0  0  0  0  0  0  0  0  0
   41.6868   26.9798   34.2700 H   0  0  0  0  0  0  0  0  0  0  0  0
   39.2513   27.1848   36.5366 H   0  0  0  0  0  0  0  0  0  0  0  0
   36.9341   28.0638   36.3232 H   0  0  0  0  0  0  0  0  0  0  0  0
   35.9681   28.2045   33.9970 H   0  0  0  0  0  0  0  0  0  0  0  0
   37.2863   27.4981   32.0271 H   0  0  0  0  0  0  0  0  0  0  0  0
   39.5889   26.6384   32.3150 H   0  0  0  0  0  0  0  0  0  0  0  0
  1  9  1  0
  1  6  1  0
  2  3  2  0
  4  3  1  0
  5  4  2  0
  6  5  1  0
  6  7  2  0
  7  2  1  0
  8  1  1  0
 10  9  1  0
 10 11  2  0
 12 11  1  0
 13 12  2  0
 14 15  2  0
 14 13  1  0
 15 10  1  0
  1 16  1  6
  2 17  1  0
  3 18  1  0
  4 19  1  0
  8 20  1  0
  8 21  1  0
  8 22  1  0
  9 23  1  0
  9 24  1  0
 11 25  1  0
 12 26  1  0
 13 27  1  0
 14 28  1  0
 15 29  1  0
M  ISO  8  16   8  17  14  18  14  19  14  20   8  21   8  22   8  23   8
M  ISO  6  24   8  25  14  26  14  27  14  28  14  29  14
M  END
>  <minimizedAffinity>  (1) 
-4.30379868

>  <minimizedRMSD>  (1) 
4.00274181

$$$$
