
     RDKit          3D

 40 43  0  0  1  0  0  0  0  0999 V2000
   36.3350   21.1370   31.9210 C   0  0  2  0  0  0  0  0  0  0  0  0
   37.2200   21.7660   35.2650 C   0  0  0  0  0  0  0  0  0  0  0  0
   36.0800   21.0230   35.5340 C   0  0  0  0  0  0  0  0  0  0  0  0
   35.5470   20.6550   34.2910 C   0  0  0  0  0  0  0  0  0  0  0  0
   36.4410   21.2260   33.3710 C   0  0  0  0  0  0  0  0  0  0  0  0
   37.4060   21.8680   33.9720 O   0  0  0  0  0  0  0  0  0  0  0  0
   38.0550   22.3330   36.3500 C   0  0  0  0  0  0  0  0  0  0  0  0
   39.4150   22.1990   36.4590 C   0  0  0  0  0  0  0  0  0  0  0  0
   40.0190   22.8130   37.5640 C   0  0  0  0  0  0  0  0  0  0  0  0
   39.2950   23.4910   38.4600 N   0  0  0  0  0  0  0  0  0  0  0  0
   37.9490   23.6090   38.3310 C   0  0  0  0  0  0  0  0  0  0  0  0
   37.3760   23.0330   37.2910 N   0  0  0  0  0  0  0  0  0  0  0  0
   35.8950   22.4970   31.3140 C   0  0  0  0  0  0  0  0  0  0  0  0
   35.4280   20.1010   31.4540 C   0  0  0  0  0  0  0  0  0  0  0  0
   35.8500   18.7580   31.4100 N   0  0  0  0  0  0  0  0  0  0  0  0
   36.6890   18.0900   30.6190 C   0  0  0  0  0  0  0  0  0  0  0  0
   36.7530   16.8010   30.9950 N   0  0  0  0  0  0  0  0  0  0  0  0
   35.9240   16.6720   32.0550 C   0  0  0  0  0  0  0  0  0  0  0  0
   35.4040   17.8690   32.2690 N   0  0  0  0  0  0  0  0  0  0  0  0
   35.7020   15.4560   32.7510 N   0  0  0  0  0  0  0  0  0  0  0  0
   36.5930   14.4890   32.9560 C   0  0  0  0  0  0  0  0  0  0  0  0
   35.9840   13.5130   33.6530 N   0  0  0  0  0  0  0  0  0  0  0  0
   34.6890   13.8840   33.8840 C   0  0  0  0  0  0  0  0  0  0  0  0
   34.5350   15.0990   33.3110 N   0  0  0  0  0  0  0  0  0  0  0  0
   33.5590   13.2670   34.5670 C   0  0  0  0  0  0  0  0  0  0  0  0
   32.4960   13.8250   34.9140 O   0  0  0  0  0  0  0  0  0  0  0  0
   37.3444   20.8656   31.5781 H   0  0  0  0  0  0  0  0  0  0  0  0
   35.6749   20.7724   36.5255 H   0  0  0  0  0  0  0  0  0  0  0  0
   34.6443   20.0610   34.0854 H   0  0  0  0  0  0  0  0  0  0  0  0
   40.0020   21.6381   35.7168 H   0  0  0  0  0  0  0  0  0  0  0  0
   41.1082   22.7358   37.6966 H   0  0  0  0  0  0  0  0  0  0  0  0
   37.3548   24.1669   39.0697 H   0  0  0  0  0  0  0  0  0  0  0  0
   35.6663   23.2038   32.1253 H   0  0  0  0  0  0  0  0  0  0  0  0
   36.7080   22.9017   30.6934 H   0  0  0  0  0  0  0  0  0  0  0  0
   34.9990   22.3488   30.6934 H   0  0  0  0  0  0  0  0  0  0  0  0
   34.5450   20.1342   32.1091 H   0  0  0  0  0  0  0  0  0  0  0  0
   35.2834   20.3535   30.3932 H   0  0  0  0  0  0  0  0  0  0  0  0
   37.2482   18.5297   29.7799 H   0  0  0  0  0  0  0  0  0  0  0  0
   37.6393   14.4880   32.6165 H   0  0  0  0  0  0  0  0  0  0  0  0
   33.6516   12.1964   34.8020 H   0  0  0  0  0  0  0  0  0  0  0  0
  1  5  1  0
  2  3  2  0
  2  7  1  0
  4  3  1  0
  5  6  1  0
  5  4  2  0
  6  2  1  0
  7  8  2  0
  7 12  1  0
  8  9  1  0
  9 10  2  0
 11 10  1  0
 12 11  2  0
 13  1  1  0
 14  1  1  0
 15 14  1  0
 15 19  1  0
 16 17  2  0
 16 15  1  0
 17 18  1  0
 18 19  2  0
 18 20  1  0
 20 21  1  0
 20 24  1  0
 21 22  2  0
 22 23  1  0
 23 25  1  0
 24 23  2  0
 25 26  2  0
  1 27  1  6
  3 28  1  0
  4 29  1  0
  8 30  1  0
  9 31  1  0
 11 32  1  0
 13 33  1  0
 13 34  1  0
 13 35  1  0
 14 36  1  0
 14 37  1  0
 16 38  1  0
 21 39  1  0
 25 40  1  0
M  ISO  8  27   8  28  14  29  14  30  14  31  14  32  14  33   8  34   8
M  ISO  6  35   8  36   8  37   8  38  14  39  14  40   6
M  END
>  <minimizedAffinity>  (1) 
-5.50046539

>  <minimizedRMSD>  (1) 
0.134964839

$$$$
