
     RDKit          3D

 25 26  0  0  0  0  0  0  0  0999 V2000
   37.4190   23.1360   37.0350 C   0  0  0  0  0  0  0  0  0  0  0  0
   38.3600   22.4940   36.2370 C   0  0  0  0  0  0  0  0  0  0  0  0
   39.6740   22.3560   36.7060 C   0  0  0  0  0  0  0  0  0  0  0  0
   39.9570   22.8740   37.9430 N   0  0  0  0  0  0  0  0  0  0  0  0
   39.0190   23.4900   38.6870 C   0  0  0  0  0  0  0  0  0  0  0  0
   37.7520   23.6190   38.2280 N   0  0  0  0  0  0  0  0  0  0  0  0
   37.9300   22.0060   34.9790 N   0  0  0  0  0  0  0  0  0  0  0  0
   38.5330   21.9190   33.7550 C   0  0  0  0  0  0  0  0  0  0  0  0
   37.6780   21.3670   32.8710 N   0  0  0  0  0  0  0  0  0  0  0  0
   36.5310   21.1080   33.5550 C   0  0  0  0  0  0  0  0  0  0  0  0
   36.7060   21.5090   34.8520 N   0  0  0  0  0  0  0  0  0  0  0  0
   35.3500   20.4920   32.9060 C   0  0  0  0  0  0  0  0  0  0  0  0
   35.1690   20.9860   31.4910 C   0  0  0  0  0  0  0  0  0  0  0  0
   35.4360   18.9770   32.9390 C   0  0  0  0  0  0  0  0  0  0  0  0
   36.3856   23.2456   36.6743 H   0  0  0  0  0  0  0  0  0  0  0  0
   40.4462   21.8526   36.1058 H   0  0  0  0  0  0  0  0  0  0  0  0
   39.2844   23.8918   39.6760 H   0  0  0  0  0  0  0  0  0  0  0  0
   39.5574   22.2485   33.5269 H   0  0  0  0  0  0  0  0  0  0  0  0
   34.4649   20.7998   33.4820 H   0  0  0  0  0  0  0  0  0  0  0  0
   34.7906   22.0187   31.5088 H   0  0  0  0  0  0  0  0  0  0  0  0
   36.1356   20.9586   30.9666 H   0  0  0  0  0  0  0  0  0  0  0  0
   34.4489   20.3406   30.9666 H   0  0  0  0  0  0  0  0  0  0  0  0
   35.4555   18.6335   33.9838 H   0  0  0  0  0  0  0  0  0  0  0  0
   34.5607   18.5488   32.4285 H   0  0  0  0  0  0  0  0  0  0  0  0
   36.3541   18.6507   32.4285 H   0  0  0  0  0  0  0  0  0  0  0  0
  1  6  2  0
  2  3  2  0
  2  1  1  0
  3  4  1  0
  4  5  2  0
  6  5  1  0
  7  2  1  0
  8  7  1  0
  9 10  1  0
  9  8  2  0
 10 11  2  0
 11  7  1  0
 12 14  1  0
 12 10  1  0
 13 12  1  0
  1 15  1  0
  3 16  1  0
  5 17  1  0
  8 18  1  0
 12 19  1  0
 13 20  1  0
 13 21  1  0
 13 22  1  0
 14 23  1  0
 14 24  1  0
 14 25  1  0
M  ISO  8  15  14  16  14  17  14  18  14  19   8  20   8  21   8  22   8
M  ISO  3  23   8  24   8  25   8
M  END
>  <minimizedAffinity>  (1) 
-4.21518421

>  <minimizedRMSD>  (1) 
1.09081066

$$$$
