
     RDKit          3D

 19 20  0  0  0  0  0  0  0  0999 V2000
   37.7350   22.2500   34.8240 N   0  0  0  0  0  0  0  0  0  0  0  0
   38.0400   22.6830   33.5770 C   0  0  0  0  0  0  0  0  0  0  0  0
   37.2370   22.0360   32.6900 N   0  0  0  0  0  0  0  0  0  0  0  0
   36.4360   21.2040   33.3980 C   0  0  0  0  0  0  0  0  0  0  0  0
   36.7630   21.3550   34.7000 N   0  0  0  0  0  0  0  0  0  0  0  0
   37.3400   23.1480   37.0240 C   0  0  0  0  0  0  0  0  0  0  0  0
   38.2520   22.5830   36.1050 C   0  0  0  0  0  0  0  0  0  0  0  0
   39.5620   22.3950   36.5090 C   0  0  0  0  0  0  0  0  0  0  0  0
   39.9160   22.7610   37.7670 N   0  0  0  0  0  0  0  0  0  0  0  0
   39.0180   23.3020   38.6300 C   0  0  0  0  0  0  0  0  0  0  0  0
   37.7370   23.4900   38.2460 N   0  0  0  0  0  0  0  0  0  0  0  0
   35.3820   20.2670   32.9910 C   0  0  0  0  0  0  0  0  0  0  0  0
   34.4580   20.5420   32.1730 O   0  0  0  0  0  0  0  0  0  0  0  0
   35.3060   18.9850   33.4700 O   0  0  0  0  0  0  0  0  0  0  0  0
   38.8065   23.4305   33.3248 H   0  0  0  0  0  0  0  0  0  0  0  0
   36.2930   23.3063   36.7262 H   0  0  0  0  0  0  0  0  0  0  0  0
   40.3025   21.9572   35.8235 H   0  0  0  0  0  0  0  0  0  0  0  0
   39.3346   23.5877   39.6440 H   0  0  0  0  0  0  0  0  0  0  0  0
   34.5776   18.3862   33.1683 H   0  0  0  0  0  0  0  0  0  0  0  0
  1  7  1  0
  2  1  1  0
  3  4  1  0
  3  2  2  0
  4  5  2  0
  5  1  1  0
  6 11  2  0
  7  8  2  0
  7  6  1  0
  8  9  1  0
  9 10  2  0
 11 10  1  0
 12  4  1  0
 12 14  1  0
 13 12  2  0
  2 15  1  0
  6 16  1  0
  8 17  1  0
 10 18  1  0
 14 19  1  0
M  ISO  5  15  14  16  14  17  14  18  14  19   3
M  END
>  <minimizedAffinity>  (1) 
-4.05469656

>  <minimizedRMSD>  (1) 
0.953915775

$$$$
