
     RDKit          3D

 30 32  0  0  0  0  0  0  0  0999 V2000
   38.2970   22.2740   33.7210 N   0  0  0  0  0  0  0  0  0  0  0  0
   39.3700   21.5260   33.3360 C   0  0  0  0  0  0  0  0  0  0  0  0
   38.9370   20.5170   32.5400 N   0  0  0  0  0  0  0  0  0  0  0  0
   37.5860   20.6490   32.4390 C   0  0  0  0  0  0  0  0  0  0  0  0
   37.2210   21.7240   33.1670 N   0  0  0  0  0  0  0  0  0  0  0  0
   36.7970   19.7710   31.6880 N   0  0  0  0  0  0  0  0  0  0  0  0
   36.2710   20.2020   30.4070 C   0  0  0  0  0  0  0  0  0  0  0  0
   36.4970   19.1810   29.3580 C   0  0  0  0  0  0  0  0  0  0  0  0
   36.5990   17.8400   29.7370 N   0  0  0  0  0  0  0  0  0  0  0  0
   36.9040   17.4850   31.0470 C   0  0  0  0  0  0  0  0  0  0  0  0
   36.4780   18.4290   32.1370 C   0  0  0  0  0  0  0  0  0  0  0  0
   37.9950   24.6550   33.8760 C   0  0  0  0  0  0  0  0  0  0  0  0
   38.1760   23.4210   34.5350 C   0  0  0  0  0  0  0  0  0  0  0  0
   38.2220   23.4090   35.9200 C   0  0  0  0  0  0  0  0  0  0  0  0
   38.0890   24.6050   36.5820 N   0  0  0  0  0  0  0  0  0  0  0  0
   37.9180   25.7620   35.9230 C   0  0  0  0  0  0  0  0  0  0  0  0
   37.8720   25.7820   34.5740 N   0  0  0  0  0  0  0  0  0  0  0  0
   40.4155   21.7107   33.6239 H   0  0  0  0  0  0  0  0  0  0  0  0
   35.1900   20.3802   30.5058 H   0  0  0  0  0  0  0  0  0  0  0  0
   36.7935   21.1236   30.1109 H   0  0  0  0  0  0  0  0  0  0  0  0
   37.4342   19.4448   28.8461 H   0  0  0  0  0  0  0  0  0  0  0  0
   35.5818   19.2172   28.7488 H   0  0  0  0  0  0  0  0  0  0  0  0
   35.6910   17.4049   29.5200 H   0  0  0  0  0  0  0  0  0  0  0  0
   36.4259   16.5145   31.2456 H   0  0  0  0  0  0  0  0  0  0  0  0
   38.0032   17.4842   31.0894 H   0  0  0  0  0  0  0  0  0  0  0  0
   37.0219   18.2027   33.0660 H   0  0  0  0  0  0  0  0  0  0  0  0
   35.4018   18.3302   32.3419 H   0  0  0  0  0  0  0  0  0  0  0  0
   37.9552   24.6864   32.7772 H   0  0  0  0  0  0  0  0  0  0  0  0
   38.3611   22.4685   36.4733 H   0  0  0  0  0  0  0  0  0  0  0  0
   37.8146   26.7010   36.4866 H   0  0  0  0  0  0  0  0  0  0  0  0
  1 13  1  0
  2  1  1  0
  3  2  2  0
  4  3  1  0
  4  5  2  0
  5  1  1  0
  6 11  1  0
  6  4  1  0
  7  6  1  0
  8  9  1  0
  8  7  1  0
  9 10  1  0
 10 11  1  0
 12 13  2  0
 12 17  1  0
 13 14  1  0
 14 15  2  0
 16 15  1  0
 17 16  2  0
  2 18  1  0
  7 19  1  0
  7 20  1  0
  8 21  1  0
  8 22  1  0
  9 23  1  0
 10 24  1  0
 10 25  1  0
 11 26  1  0
 11 27  1  0
 12 28  1  0
 14 29  1  0
 16 30  1  0
M  ISO  8  18  14  19  13  20  13  21  13  22  13  23   5  24  13  25  13
M  ISO  5  26  13  27  13  28  14  29  14  30  14
M  END
>  <minimizedAffinity>  (1) 
-3.78406191

>  <minimizedRMSD>  (1) 
3.25871325

$$$$
