
     RDKit          3D

 23 25  0  0  0  0  0  0  0  0999 V2000
   37.7220   22.0150   34.7870 N   0  0  0  0  0  0  0  0  0  0  0  0
   37.4870   22.4340   36.0610 C   0  0  0  0  0  0  0  0  0  0  0  0
   38.6700   22.7050   36.6550 N   0  0  0  0  0  0  0  0  0  0  0  0
   39.6390   22.4520   35.7430 C   0  0  0  0  0  0  0  0  0  0  0  0
   39.0410   22.0250   34.5880 N   0  0  0  0  0  0  0  0  0  0  0  0
   37.1210   22.1200   32.4570 C   0  0  0  0  0  0  0  0  0  0  0  0
   36.8580   21.6040   33.7250 C   0  0  0  0  0  0  0  0  0  0  0  0
   35.7810   20.7250   33.9070 C   0  0  0  0  0  0  0  0  0  0  0  0
   35.0450   20.4240   32.7940 N   0  0  0  0  0  0  0  0  0  0  0  0
   35.3200   20.9360   31.5800 C   0  0  0  0  0  0  0  0  0  0  0  0
   36.3510   21.7750   31.4230 N   0  0  0  0  0  0  0  0  0  0  0  0
   41.0670   22.6210   35.9940 C   0  0  0  0  0  0  0  0  0  0  0  0
   41.9290   21.6790   36.5130 C   0  0  0  0  0  0  0  0  0  0  0  0
   43.1610   22.2360   36.5840 N   0  0  0  0  0  0  0  0  0  0  0  0
   43.0030   23.4930   36.1060 C   0  0  0  0  0  0  0  0  0  0  0  0
   41.7240   23.7520   35.7370 N   0  0  0  0  0  0  0  0  0  0  0  0
   36.4970   22.5352   36.5296 H   0  0  0  0  0  0  0  0  0  0  0  0
   37.9634   22.8117   32.3087 H   0  0  0  0  0  0  0  0  0  0  0  0
   35.5406   20.2999   34.8927 H   0  0  0  0  0  0  0  0  0  0  0  0
   34.6964   20.6645   30.7155 H   0  0  0  0  0  0  0  0  0  0  0  0
   41.6630   20.6555   36.8160 H   0  0  0  0  0  0  0  0  0  0  0  0
   43.8216   24.2234   36.0259 H   0  0  0  0  0  0  0  0  0  0  0  0
   41.3453   24.6264   35.3459 H   0  0  0  0  0  0  0  0  0  0  0  0
  1  2  1  0
  2  3  2  0
  4 12  1  0
  4  3  1  0
  5  1  1  0
  5  4  2  0
  6  7  2  0
  7  8  1  0
  7  1  1  0
  9  8  2  0
 10  9  1  0
 11 10  2  0
 11  6  1  0
 12 13  2  0
 13 14  1  0
 15 14  2  0
 16 12  1  0
 16 15  1  0
  2 17  1  0
  6 18  1  0
  8 19  1  0
 10 20  1  0
 13 21  1  0
 15 22  1  0
 16 23  1  0
M  ISO  7  17  14  18  14  19  14  20  14  21  14  22  14  23   9
M  END
>  <minimizedAffinity>  (1) 
-3.65482545

>  <minimizedRMSD>  (1) 
6.90178013

$$$$
