
     RDKit          3D

 28 30  0  0  0  0  0  0  0  0999 V2000
   37.6490   21.4850   33.2820 N   0  0  0  0  0  0  0  0  0  0  0  0
   36.5710   21.0350   34.0040 C   0  0  0  0  0  0  0  0  0  0  0  0
   36.6450   21.5280   35.2610 N   0  0  0  0  0  0  0  0  0  0  0  0
   37.7870   22.2900   35.3020 C   0  0  0  0  0  0  0  0  0  0  0  0
   38.3700   22.2410   34.0830 N   0  0  0  0  0  0  0  0  0  0  0  0
   38.2870   23.0030   36.3990 N   0  0  0  0  0  0  0  0  0  0  0  0
   39.4280   22.6510   37.2500 C   0  0  0  0  0  0  0  0  0  0  0  0
   39.2850   23.4630   38.5090 C   0  0  0  0  0  0  0  0  0  0  0  0
   37.8330   23.9460   38.4250 C   0  0  0  0  0  0  0  0  0  0  0  0
   37.7670   24.2620   36.9280 C   0  0  0  0  0  0  0  0  0  0  0  0
   39.0410   22.0930   31.4290 C   0  0  0  0  0  0  0  0  0  0  0  0
   38.0240   21.2540   31.9330 C   0  0  0  0  0  0  0  0  0  0  0  0
   37.4770   20.2930   31.1010 C   0  0  0  0  0  0  0  0  0  0  0  0
   37.9370   20.1890   29.8270 N   0  0  0  0  0  0  0  0  0  0  0  0
   38.9130   21.0040   29.3680 C   0  0  0  0  0  0  0  0  0  0  0  0
   39.4600   21.9500   30.1680 N   0  0  0  0  0  0  0  0  0  0  0  0
   35.7753   20.3790   33.6213 H   0  0  0  0  0  0  0  0  0  0  0  0
   39.4096   21.5768   37.4859 H   0  0  0  0  0  0  0  0  0  0  0  0
   40.3823   22.8622   36.7453 H   0  0  0  0  0  0  0  0  0  0  0  0
   39.4472   22.8431   39.4031 H   0  0  0  0  0  0  0  0  0  0  0  0
   40.0164   24.2805   38.5905 H   0  0  0  0  0  0  0  0  0  0  0  0
   37.1200   23.1588   38.7115 H   0  0  0  0  0  0  0  0  0  0  0  0
   37.5740   24.7794   39.0946 H   0  0  0  0  0  0  0  0  0  0  0  0
   38.4058   25.1162   36.6593 H   0  0  0  0  0  0  0  0  0  0  0  0
   36.7760   24.5567   36.5525 H   0  0  0  0  0  0  0  0  0  0  0  0
   39.4884   22.8639   32.0736 H   0  0  0  0  0  0  0  0  0  0  0  0
   36.6830   19.6245   31.4651 H   0  0  0  0  0  0  0  0  0  0  0  0
   39.2672   20.8975   28.3321 H   0  0  0  0  0  0  0  0  0  0  0  0
  1  2  1  0
  1  5  1  0
  2  3  2  0
  3  4  1  0
  4  6  1  0
  5  4  2  0
  6 10  1  0
  6  7  1  0
  7  8  1  0
  9  8  1  0
 10  9  1  0
 11 12  2  0
 12  1  1  0
 13 12  1  0
 14 13  2  0
 15 14  1  0
 15 16  2  0
 16 11  1  0
  2 17  1  0
  7 18  1  0
  7 19  1  0
  8 20  1  0
  8 21  1  0
  9 22  1  0
  9 23  1  0
 10 24  1  0
 10 25  1  0
 11 26  1  0
 13 27  1  0
 15 28  1  0
M  ISO  8  17  14  18  13  19  13  20  13  21  13  22  13  23  13  24  13
M  ISO  4  25  13  26  14  27  14  28  14
M  END
>  <minimizedAffinity>  (1) 
-3.64368057

>  <minimizedRMSD>  (1) 
6.37983322

$$$$
