
     RDKit          3D

 19 20  0  0  0  0  0  0  0  0999 V2000
   37.3700   22.9300   36.8110 C   0  0  0  0  0  0  0  0  0  0  0  0
   38.3160   22.3490   35.9610 C   0  0  0  0  0  0  0  0  0  0  0  0
   39.6230   22.2660   36.4140 C   0  0  0  0  0  0  0  0  0  0  0  0
   39.9400   22.7430   37.6470 N   0  0  0  0  0  0  0  0  0  0  0  0
   38.9910   23.2990   38.4390 C   0  0  0  0  0  0  0  0  0  0  0  0
   37.7120   23.3890   38.0160 N   0  0  0  0  0  0  0  0  0  0  0  0
   37.8650   21.8900   34.7040 N   0  0  0  0  0  0  0  0  0  0  0  0
   38.4550   21.7960   33.4890 C   0  0  0  0  0  0  0  0  0  0  0  0
   37.5680   21.2770   32.5980 N   0  0  0  0  0  0  0  0  0  0  0  0
   36.4160   21.0520   33.2840 C   0  0  0  0  0  0  0  0  0  0  0  0
   36.6270   21.4340   34.5650 N   0  0  0  0  0  0  0  0  0  0  0  0
   35.1840   20.4850   32.6760 C   0  0  0  0  0  0  0  0  0  0  0  0
   36.3241   23.0101   36.4799 H   0  0  0  0  0  0  0  0  0  0  0  0
   40.4004   21.8162   35.7789 H   0  0  0  0  0  0  0  0  0  0  0  0
   39.2649   23.6798   39.4340 H   0  0  0  0  0  0  0  0  0  0  0  0
   39.4889   22.0927   33.2587 H   0  0  0  0  0  0  0  0  0  0  0  0
   34.4947   20.1678   33.4724 H   0  0  0  0  0  0  0  0  0  0  0  0
   34.6973   21.2497   32.0528 H   0  0  0  0  0  0  0  0  0  0  0  0
   35.4483   19.6179   32.0528 H   0  0  0  0  0  0  0  0  0  0  0  0
  1  6  2  0
  2  3  2  0
  2  1  1  0
  3  4  1  0
  4  5  2  0
  6  5  1  0
  7  2  1  0
  8  7  1  0
  9 10  1  0
  9  8  2  0
 10 11  2  0
 11  7  1  0
 12 10  1  0
  1 13  1  0
  3 14  1  0
  5 15  1  0
  8 16  1  0
 12 17  1  0
 12 18  1  0
 12 19  1  0
M  ISO  7  13  14  14  14  15  14  16  14  17   8  18   8  19   8
M  END
>  <minimizedAffinity>  (1) 
-3.59583306

>  <minimizedRMSD>  (1) 
0.78478694

$$$$
