
     RDKit          3D

 17 18  0  0  0  0  0  0  0  0999 V2000
   37.4340   22.9490   36.7800 C   0  0  0  0  0  0  0  0  0  0  0  0
   38.4330   22.3620   35.9870 C   0  0  0  0  0  0  0  0  0  0  0  0
   39.7140   22.2730   36.5110 C   0  0  0  0  0  0  0  0  0  0  0  0
   39.9390   22.7590   37.7690 N   0  0  0  0  0  0  0  0  0  0  0  0
   38.9630   23.3120   38.4960 C   0  0  0  0  0  0  0  0  0  0  0  0
   37.7260   23.4020   37.9990 N   0  0  0  0  0  0  0  0  0  0  0  0
   38.0510   21.9040   34.7050 N   0  0  0  0  0  0  0  0  0  0  0  0
   38.7320   21.7390   33.5420 C   0  0  0  0  0  0  0  0  0  0  0  0
   37.8760   21.2630   32.6070 N   0  0  0  0  0  0  0  0  0  0  0  0
   36.6590   21.1300   33.1870 C   0  0  0  0  0  0  0  0  0  0  0  0
   36.7880   21.5310   34.4840 N   0  0  0  0  0  0  0  0  0  0  0  0
   35.1670   20.5340   32.3750 S   0  0  0  0  0  0  0  0  0  0  0  0
   36.4075   23.0352   36.3941 H   0  0  0  0  0  0  0  0  0  0  0  0
   40.5303   21.8217   35.9279 H   0  0  0  0  0  0  0  0  0  0  0  0
   39.1786   23.6935   39.5049 H   0  0  0  0  0  0  0  0  0  0  0  0
   39.7991   21.9555   33.3857 H   0  0  0  0  0  0  0  0  0  0  0  0
   34.2475   20.1667   33.3218 H   0  0  0  0  0  0  0  0  0  0  0  0
  1  6  2  0
  2  3  2  0
  2  1  1  0
  3  4  1  0
  4  5  2  0
  6  5  1  0
  7  2  1  0
  8  7  1  0
  9 10  1  0
  9  8  2  0
 10 11  2  0
 11  7  1  0
 12 10  1  0
  1 13  1  0
  3 14  1  0
  5 15  1  0
  8 16  1  0
 12 17  1  0
M  ISO  5  13  14  14  14  15  14  16  14  17  11
M  END
>  <minimizedAffinity>  (1) 
-3.51119471

>  <minimizedRMSD>  (1) 
0.996811926

$$$$
