
     RDKit          3D

 31 34  0  0  0  0  0  0  0  0999 V2000
   38.3300   22.1120   34.7340 N   0  0  0  0  0  0  0  0  0  0  0  0
   39.1200   22.0690   33.6330 C   0  0  0  0  0  0  0  0  0  0  0  0
   38.3960   21.5900   32.5900 N   0  0  0  0  0  0  0  0  0  0  0  0
   37.1420   21.3370   33.0640 C   0  0  0  0  0  0  0  0  0  0  0  0
   37.1290   21.6660   34.3810 N   0  0  0  0  0  0  0  0  0  0  0  0
   37.4730   23.0150   36.7850 C   0  0  0  0  0  0  0  0  0  0  0  0
   38.5610   22.5210   36.0760 C   0  0  0  0  0  0  0  0  0  0  0  0
   39.7810   22.4580   36.7060 C   0  0  0  0  0  0  0  0  0  0  0  0
   39.9210   22.8680   37.9910 N   0  0  0  0  0  0  0  0  0  0  0  0
   38.8360   23.3470   38.6600 C   0  0  0  0  0  0  0  0  0  0  0  0
   37.6380   23.4130   38.0520 N   0  0  0  0  0  0  0  0  0  0  0  0
   36.0060   20.8420   32.4490 O   0  0  0  0  0  0  0  0  0  0  0  0
   35.9410   19.4990   32.1040 C   0  0  0  0  0  0  0  0  0  0  0  0
   35.4340   18.3640   32.7010 C   0  0  0  0  0  0  0  0  0  0  0  0
   35.6340   17.2900   31.9310 N   0  0  0  0  0  0  0  0  0  0  0  0
   36.2680   17.6890   30.8280 C   0  0  0  0  0  0  0  0  0  0  0  0
   36.6700   16.9000   29.7620 C   0  0  0  0  0  0  0  0  0  0  0  0
   37.3130   17.5120   28.7160 C   0  0  0  0  0  0  0  0  0  0  0  0
   37.5430   18.8920   28.7490 C   0  0  0  0  0  0  0  0  0  0  0  0
   37.1300   19.6650   29.8310 C   0  0  0  0  0  0  0  0  0  0  0  0
   36.4780   19.0480   30.8920 C   0  0  0  0  0  0  0  0  0  0  0  0
   40.1763   22.3730   33.5919 H   0  0  0  0  0  0  0  0  0  0  0  0
   36.4836   23.0785   36.3085 H   0  0  0  0  0  0  0  0  0  0  0  0
   40.6544   22.0703   36.1612 H   0  0  0  0  0  0  0  0  0  0  0  0
   38.9398   23.6816   39.7027 H   0  0  0  0  0  0  0  0  0  0  0  0
   34.9322   18.3451   33.6797 H   0  0  0  0  0  0  0  0  0  0  0  0
   35.3488   16.3250   32.1508 H   0  0  0  0  0  0  0  0  0  0  0  0
   36.4794   15.8167   29.7548 H   0  0  0  0  0  0  0  0  0  0  0  0
   37.6474   16.9186   27.8523 H   0  0  0  0  0  0  0  0  0  0  0  0
   38.0589   19.3743   27.9057 H   0  0  0  0  0  0  0  0  0  0  0  0
   37.3172   20.7489   29.8458 H   0  0  0  0  0  0  0  0  0  0  0  0
  1  7  1  0
  2  1  1  0
  3  4  1  0
  3  2  2  0
  4  5  2  0
  5  1  1  0
  6 11  2  0
  7  8  2  0
  7  6  1  0
  8  9  1  0
  9 10  2  0
 11 10  1  0
 12  4  1  0
 13 12  1  0
 13 14  2  0
 15 14  1  0
 16 21  2  0
 16 15  1  0
 17 16  1  0
 18 19  1  0
 18 17  2  0
 19 20  2  0
 20 21  1  0
 21 13  1  0
  2 22  1  0
  6 23  1  0
  8 24  1  0
 10 25  1  0
 14 26  1  0
 15 27  1  0
 17 28  1  0
 18 29  1  0
 19 30  1  0
 20 31  1  0
M  ISO  8  22  14  23  14  24  14  25  14  26  14  27   9  28  14  29  14
M  ISO  2  30  14  31  14
M  END
>  <minimizedAffinity>  (1) 
-4.78313398

>  <minimizedRMSD>  (1) 
2.85634136

$$$$
