
     RDKit          3D

 29 31  0  0  1  0  0  0  0  0999 V2000
   38.1320   23.1230   34.7960 N   0  0  0  0  0  0  0  0  0  0  0  0
   37.9440   24.0250   33.8090 C   0  0  0  0  0  0  0  0  0  0  0  0
   37.6710   23.3770   32.6540 N   0  0  0  0  0  0  0  0  0  0  0  0
   37.6940   22.0450   32.9440 C   0  0  0  0  0  0  0  0  0  0  0  0
   37.9820   21.9000   34.2780 N   0  0  0  0  0  0  0  0  0  0  0  0
   37.5660   23.9800   36.9670 C   0  0  0  0  0  0  0  0  0  0  0  0
   38.4380   23.2530   36.1780 C   0  0  0  0  0  0  0  0  0  0  0  0
   39.5630   22.6900   36.7770 C   0  0  0  0  0  0  0  0  0  0  0  0
   39.7620   22.8760   38.1130 N   0  0  0  0  0  0  0  0  0  0  0  0
   38.8790   23.5990   38.8530 C   0  0  0  0  0  0  0  0  0  0  0  0
   37.7940   24.1390   38.2640 N   0  0  0  0  0  0  0  0  0  0  0  0
   37.4910   20.8980   32.1720 O   0  0  0  0  0  0  0  0  0  0  0  0
   36.1120   19.6720   30.6580 N   0  0  0  0  0  0  0  0  0  0  0  0
   36.1190   18.5090   31.5220 C   0  0  0  0  0  0  0  0  0  0  0  0
   35.2870   18.9120   32.7430 C   0  0  0  0  0  0  0  0  0  0  0  0
   35.1380   20.4120   32.6080 C   0  0  0  0  0  0  0  0  0  0  0  0
   36.1980   20.7630   31.6090 C   0  0  1  0  0  0  0  0  0  0  0  0
   38.0036   25.1171   33.9263 H   0  0  0  0  0  0  0  0  0  0  0  0
   36.6718   24.4323   36.5134 H   0  0  0  0  0  0  0  0  0  0  0  0
   40.2792   22.1048   36.1815 H   0  0  0  0  0  0  0  0  0  0  0  0
   39.0503   23.7426   39.9301 H   0  0  0  0  0  0  0  0  0  0  0  0
   36.9210   19.6681   30.0205 H   0  0  0  0  0  0  0  0  0  0  0  0
   35.6639   17.6469   31.0124 H   0  0  0  0  0  0  0  0  0  0  0  0
   37.1401   18.2095   31.8005 H   0  0  0  0  0  0  0  0  0  0  0  0
   34.3040   18.4187   32.7260 H   0  0  0  0  0  0  0  0  0  0  0  0
   35.7593   18.6179   33.6919 H   0  0  0  0  0  0  0  0  0  0  0  0
   34.1382   20.6787   32.2349 H   0  0  0  0  0  0  0  0  0  0  0  0
   35.2453   20.9477   33.5627 H   0  0  0  0  0  0  0  0  0  0  0  0
   36.0361   21.7522   31.1560 H   0  0  0  0  0  0  0  0  0  0  0  0
  1  7  1  0
  2  1  1  0
  3  4  1  0
  3  2  2  0
  4  5  2  0
  5  1  1  0
  6 11  2  0
  7  8  2  0
  7  6  1  0
  8  9  1  0
  9 10  2  0
 11 10  1  0
 12  4  1  0
 13 14  1  0
 13 17  1  0
 14 15  1  0
 16 15  1  0
 17 12  1  0
 17 16  1  0
  2 18  1  0
  6 19  1  0
  8 20  1  0
 10 21  1  0
 13 22  1  0
 14 23  1  0
 14 24  1  0
 15 25  1  0
 15 26  1  0
 16 27  1  0
 16 28  1  0
 17 29  1  6
M  ISO  8  18  14  19  14  20  14  21  14  22   5  23  13  24  13  25  13
M  ISO  4  26  13  27  13  28  13  29  13
M  END
>  <minimizedAffinity>  (1) 
-4.46608543

>  <minimizedRMSD>  (1) 
1.82112217

$$$$
