
     RDKit          3D

 24 26  0  0  0  0  0  0  0  0999 V2000
   37.8470   22.6030   34.8160 N   0  0  0  0  0  0  0  0  0  0  0  0
   38.0720   23.2270   33.6320 C   0  0  0  0  0  0  0  0  0  0  0  0
   37.3620   22.6150   32.6680 N   0  0  0  0  0  0  0  0  0  0  0  0
   36.6850   21.5920   33.2680 C   0  0  0  0  0  0  0  0  0  0  0  0
   36.9990   21.6010   34.5970 N   0  0  0  0  0  0  0  0  0  0  0  0
   37.4550   23.4110   37.0460 C   0  0  0  0  0  0  0  0  0  0  0  0
   38.3330   22.8300   36.1430 C   0  0  0  0  0  0  0  0  0  0  0  0
   39.6210   22.4990   36.5550 C   0  0  0  0  0  0  0  0  0  0  0  0
   39.9680   22.7640   37.8460 N   0  0  0  0  0  0  0  0  0  0  0  0
   39.0940   23.3310   38.7070 C   0  0  0  0  0  0  0  0  0  0  0  0
   37.8540   23.6460   38.2980 N   0  0  0  0  0  0  0  0  0  0  0  0
   35.8050   20.6290   32.7750 O   0  0  0  0  0  0  0  0  0  0  0  0
   36.1870   19.6990   31.8220 C   0  0  0  0  0  0  0  0  0  0  0  0
   36.5700   18.3750   31.7760 C   0  0  0  0  0  0  0  0  0  0  0  0
   36.8170   18.0850   30.4320 C   0  0  0  0  0  0  0  0  0  0  0  0
   36.5660   19.2620   29.7470 C   0  0  0  0  0  0  0  0  0  0  0  0
   36.2000   20.1850   30.5870 O   0  0  0  0  0  0  0  0  0  0  0  0
   38.7307   24.0956   33.4844 H   0  0  0  0  0  0  0  0  0  0  0  0
   36.4348   23.6768   36.7320 H   0  0  0  0  0  0  0  0  0  0  0  0
   40.3372   22.0374   35.8593 H   0  0  0  0  0  0  0  0  0  0  0  0
   39.3986   23.5348   39.7442 H   0  0  0  0  0  0  0  0  0  0  0  0
   36.6625   17.6850   32.6277 H   0  0  0  0  0  0  0  0  0  0  0  0
   37.1424   17.1239   30.0072 H   0  0  0  0  0  0  0  0  0  0  0  0
   36.6615   19.3958   28.6594 H   0  0  0  0  0  0  0  0  0  0  0  0
  1  7  1  0
  2  1  1  0
  3  4  1  0
  3  2  2  0
  4  5  2  0
  5  1  1  0
  6 11  2  0
  7  8  2  0
  7  6  1  0
  8  9  1  0
  9 10  2  0
 11 10  1  0
 12  4  1  0
 13 12  1  0
 14 13  2  0
 15 14  1  0
 16 15  2  0
 16 17  1  0
 17 13  1  0
  2 18  1  0
  6 19  1  0
  8 20  1  0
 10 21  1  0
 14 22  1  0
 15 23  1  0
 16 24  1  0
M  ISO  7  18  14  19  14  20  14  21  14  22  14  23  14  24  14
M  END
>  <minimizedAffinity>  (1) 
-4.17258215

>  <minimizedRMSD>  (1) 
1.40271878

$$$$
