
     RDKit          3D

 20 21  0  0  0  0  0  0  0  0999 V2000
   37.3850   23.1570   37.0670 C   0  0  0  0  0  0  0  0  0  0  0  0
   38.2450   22.5410   36.1440 C   0  0  0  0  0  0  0  0  0  0  0  0
   39.5660   22.3430   36.4640 C   0  0  0  0  0  0  0  0  0  0  0  0
   40.0110   22.7530   37.6870 N   0  0  0  0  0  0  0  0  0  0  0  0
   39.1780   23.3420   38.5630 C   0  0  0  0  0  0  0  0  0  0  0  0
   37.8680   23.5420   38.2510 N   0  0  0  0  0  0  0  0  0  0  0  0
   37.6480   22.1630   34.9020 N   0  0  0  0  0  0  0  0  0  0  0  0
   37.8940   22.5580   33.6170 C   0  0  0  0  0  0  0  0  0  0  0  0
   37.0600   21.9120   32.7820 N   0  0  0  0  0  0  0  0  0  0  0  0
   36.2830   21.1000   33.5690 C   0  0  0  0  0  0  0  0  0  0  0  0
   36.6680   21.2770   34.8670 N   0  0  0  0  0  0  0  0  0  0  0  0
   35.2520   20.2030   33.2730 O   0  0  0  0  0  0  0  0  0  0  0  0
   34.6160   20.2540   31.9970 C   0  0  0  0  0  0  0  0  0  0  0  0
   36.3261   23.3205   36.8179 H   0  0  0  0  0  0  0  0  0  0  0  0
   40.2510   21.8638   35.7491 H   0  0  0  0  0  0  0  0  0  0  0  0
   39.5593   23.6659   39.5427 H   0  0  0  0  0  0  0  0  0  0  0  0
   38.6559   23.2907   33.3126 H   0  0  0  0  0  0  0  0  0  0  0  0
   33.5279   20.3413   32.1329 H   0  0  0  0  0  0  0  0  0  0  0  0
   34.9866   21.1253   31.4371 H   0  0  0  0  0  0  0  0  0  0  0  0
   34.8431   19.3348   31.4371 H   0  0  0  0  0  0  0  0  0  0  0  0
  1  6  2  0
  2  3  2  0
  2  1  1  0
  3  4  1  0
  4  5  2  0
  6  5  1  0
  7  2  1  0
  8  7  1  0
  9 10  1  0
  9  8  2  0
 10 11  2  0
 11  7  1  0
 12 10  1  0
 13 12  1  0
  1 14  1  0
  3 15  1  0
  5 16  1  0
  8 17  1  0
 13 18  1  0
 13 19  1  0
 13 20  1  0
M  ISO  7  14  14  15  14  16  14  17  14  18   8  19   8  20   8
M  END
>  <minimizedAffinity>  (1) 
-3.61215067

>  <minimizedRMSD>  (1) 
0.147635788

$$$$
