
     RDKit          3D

 17 17  0  0  0  0  0  0  0  0999 V2000
   40.4600   22.4350   37.7700 C   0  0  0  0  0  0  0  0  0  0  0  0
   39.2840   23.1300   37.4440 C   0  0  0  0  0  0  0  0  0  0  0  0
   38.9850   23.2820   36.1010 C   0  0  0  0  0  0  0  0  0  0  0  0
   39.8320   22.7580   35.1660 N   0  0  0  0  0  0  0  0  0  0  0  0
   40.9600   22.0950   35.5380 C   0  0  0  0  0  0  0  0  0  0  0  0
   41.2620   21.9390   36.8300 N   0  0  0  0  0  0  0  0  0  0  0  0
   38.3690   23.6970   38.4630 C   0  0  0  0  0  0  0  0  0  0  0  0
   39.1210   23.9210   39.6090 F   0  0  0  0  0  0  0  0  0  0  0  0
   37.3540   22.8670   38.7900 F   0  0  0  0  0  0  0  0  0  0  0  0
   37.9480   24.9920   38.0800 F   0  0  0  0  0  0  0  0  0  0  0  0
   41.9830   21.4610   34.2080 S   0  0  0  0  0  0  0  0  0  0  0  0
   43.7360   21.8040   34.5310 C   0  0  0  0  0  0  0  0  0  0  0  0
   44.2210   21.0230   35.5720 F   0  0  0  0  0  0  0  0  0  0  0  0
   43.9350   23.1090   34.9160 F   0  0  0  0  0  0  0  0  0  0  0  0
   44.4340   21.6050   33.3570 F   0  0  0  0  0  0  0  0  0  0  0  0
   40.7252   22.2969   38.8286 H   0  0  0  0  0  0  0  0  0  0  0  0
   38.0762   23.8183   35.7904 H   0  0  0  0  0  0  0  0  0  0  0  0
  2  1  2  0
  2  7  1  0
  3  2  1  0
  4  5  1  0
  4  3  2  0
  5  6  2  0
  6  1  1  0
  7  9  1  0
  7  8  1  0
 10  7  1  0
 11 12  1  0
 11  5  1  0
 12 14  1  0
 12 13  1  0
 15 12  1  0
  1 16  1  0
  3 17  1  0
M  ISO  2  16  14  17  14
M  END
>  <minimizedAffinity>  (1) 
-3.75718427

>  <minimizedRMSD>  (1) 
1.14696288

$$$$
