
     RDKit          3D

 31 34  0  0  1  0  0  0  0  0999 V2000
   38.6490   22.0630   34.7600 N   0  0  0  0  0  0  0  0  0  0  0  0
   39.5570   21.8780   33.7690 C   0  0  0  0  0  0  0  0  0  0  0  0
   38.9390   21.4260   32.6580 N   0  0  0  0  0  0  0  0  0  0  0  0
   37.5930   21.3290   32.9880 C   0  0  0  0  0  0  0  0  0  0  0  0
   37.4630   21.7240   34.2650 N   0  0  0  0  0  0  0  0  0  0  0  0
   37.5960   22.9970   36.6860 C   0  0  0  0  0  0  0  0  0  0  0  0
   38.7400   22.5060   36.1100 C   0  0  0  0  0  0  0  0  0  0  0  0
   39.9330   22.4640   36.8320 C   0  0  0  0  0  0  0  0  0  0  0  0
   39.9340   22.9200   38.1130 N   0  0  0  0  0  0  0  0  0  0  0  0
   38.8150   23.3980   38.6700 C   0  0  0  0  0  0  0  0  0  0  0  0
   37.6780   23.4290   37.9560 N   0  0  0  0  0  0  0  0  0  0  0  0
   36.5600   20.9090   32.1980 O   0  0  0  0  0  0  0  0  0  0  0  0
   35.4460   20.3590   32.9240 C   0  0  1  0  0  0  0  0  0  0  0  0
   34.2890   19.9610   32.0570 C   0  0  0  0  0  0  0  0  0  0  0  0
   35.1510   18.9090   32.7010 C   0  0  1  0  0  0  0  0  0  0  0  0
   35.9440   18.0790   31.7880 C   0  0  0  0  0  0  0  0  0  0  0  0
   36.5390   16.8620   32.0970 C   0  0  0  0  0  0  0  0  0  0  0  0
   37.1700   16.4200   31.0020 N   0  0  0  0  0  0  0  0  0  0  0  0
   37.0040   17.3110   29.9900 C   0  0  0  0  0  0  0  0  0  0  0  0
   36.2560   18.3050   30.5000 N   0  0  0  0  0  0  0  0  0  0  0  0
   40.6368   22.0683   33.8581 H   0  0  0  0  0  0  0  0  0  0  0  0
   36.6478   23.0357   36.1297 H   0  0  0  0  0  0  0  0  0  0  0  0
   40.8529   22.0705   36.3749 H   0  0  0  0  0  0  0  0  0  0  0  0
   38.8265   23.7636   39.7074 H   0  0  0  0  0  0  0  0  0  0  0  0
   35.5877   20.9796   33.8211 H   0  0  0  0  0  0  0  0  0  0  0  0
   34.3351   20.1208   30.9697 H   0  0  0  0  0  0  0  0  0  0  0  0
   33.2121   20.1850   32.0433 H   0  0  0  0  0  0  0  0  0  0  0  0
   35.0244   18.0632   33.3928 H   0  0  0  0  0  0  0  0  0  0  0  0
   36.4987   16.3513   33.0704 H   0  0  0  0  0  0  0  0  0  0  0  0
   37.3993   17.2350   28.9663 H   0  0  0  0  0  0  0  0  0  0  0  0
   35.9589   19.1365   29.9697 H   0  0  0  0  0  0  0  0  0  0  0  0
  1  7  1  0
  2  1  1  0
  3  4  1  0
  3  2  2  0
  4  5  2  0
  5  1  1  0
  6 11  2  0
  7  6  1  0
  7  8  2  0
  8  9  1  0
  9 10  2  0
 11 10  1  0
 12 13  1  0
 12  4  1  0
 14 15  1  0
 14 13  1  0
 15 13  1  0
 16 17  2  0
 16 15  1  0
 18 17  1  0
 19 20  1  0
 19 18  2  0
 20 16  1  0
  2 21  1  0
  6 22  1  0
  8 23  1  0
 10 24  1  0
 13 25  1  1
 14 26  1  0
 14 27  1  0
 15 28  1  1
 17 29  1  0
 19 30  1  0
 20 31  1  0
M  ISO  8  21  14  22  14  23  14  24  14  25  13  26  13  27  13  28  13
M  ISO  3  29  14  30  14  31   9
M  END
>  <minimizedAffinity>  (1) 
-4.78883171

>  <minimizedRMSD>  (1) 
0.437398583

$$$$
