
     RDKit          3D

 31 33  0  0  1  0  0  0  0  0999 V2000
   36.7660   20.9540   32.1410 O   0  0  0  0  0  0  0  0  0  0  0  0
   35.5440   20.6190   32.8240 C   0  0  1  0  0  0  0  0  0  0  0  0
   34.4780   20.0610   31.9290 C   0  0  0  0  0  0  0  0  0  0  0  0
   35.2080   19.1610   32.8910 C   0  0  1  0  0  0  0  0  0  0  0  0
   36.1530   18.2830   32.2340 N   0  0  0  0  0  0  0  0  0  0  0  0
   35.9010   16.8820   32.1800 C   0  0  0  0  0  0  0  0  0  0  0  0
   34.6990   16.4400   32.2700 N   0  0  0  0  0  0  0  0  0  0  0  0
   37.0170   16.0110   32.0250 N   0  0  0  0  0  0  0  0  0  0  0  0
   33.9360   17.1390   32.3810 H   0  0  0  0  0  0  0  0  0  0  0  0
   38.7740   22.0950   34.7690 N   0  0  0  0  0  0  0  0  0  0  0  0
   39.7130   21.9180   33.8130 C   0  0  0  0  0  0  0  0  0  0  0  0
   39.1270   21.4700   32.6830 N   0  0  0  0  0  0  0  0  0  0  0  0
   37.7760   21.3700   32.9650 C   0  0  0  0  0  0  0  0  0  0  0  0
   37.6030   21.7580   34.2380 N   0  0  0  0  0  0  0  0  0  0  0  0
   37.6520   23.0340   36.6600 C   0  0  0  0  0  0  0  0  0  0  0  0
   38.8150   22.5360   36.1320 C   0  0  0  0  0  0  0  0  0  0  0  0
   39.9860   22.4770   36.9000 C   0  0  0  0  0  0  0  0  0  0  0  0
   39.9250   22.9280   38.1760 N   0  0  0  0  0  0  0  0  0  0  0  0
   38.7910   23.4140   38.6950 C   0  0  0  0  0  0  0  0  0  0  0  0
   37.6830   23.4590   37.9350 N   0  0  0  0  0  0  0  0  0  0  0  0
   35.6066   21.4262   33.5686 H   0  0  0  0  0  0  0  0  0  0  0  0
   33.4223   20.3149   32.1055 H   0  0  0  0  0  0  0  0  0  0  0  0
   34.2947   20.0569   30.8444 H   0  0  0  0  0  0  0  0  0  0  0  0
   34.9280   18.4730   33.7023 H   0  0  0  0  0  0  0  0  0  0  0  0
   37.0061   18.6706   31.8063 H   0  0  0  0  0  0  0  0  0  0  0  0
   36.8729   14.9920   31.9820 H   0  0  0  0  0  0  0  0  0  0  0  0
   37.9682   16.4000   31.9559 H   0  0  0  0  0  0  0  0  0  0  0  0
   40.7891   22.1096   33.9370 H   0  0  0  0  0  0  0  0  0  0  0  0
   36.7291   23.0839   36.0635 H   0  0  0  0  0  0  0  0  0  0  0  0
   40.9218   22.0784   36.4813 H   0  0  0  0  0  0  0  0  0  0  0  0
   38.7659   23.7734   39.7343 H   0  0  0  0  0  0  0  0  0  0  0  0
  1  2  1  0
  1 13  1  0
  2  4  1  0
  3  2  1  0
  3  4  1  0
  5  4  1  0
  6  5  1  0
  6  7  2  0
  7  9  1  0
  8  6  1  0
 10 16  1  0
 11 10  1  0
 12 13  1  0
 12 11  2  0
 13 14  2  0
 14 10  1  0
 15 20  2  0
 16 15  1  0
 16 17  2  0
 17 18  1  0
 18 19  2  0
 20 19  1  0
  2 21  1  1
  3 22  1  0
  3 23  1  0
  4 24  1  1
  5 25  1  0
  8 26  1  0
  8 27  1  0
 11 28  1  0
 15 29  1  0
 17 30  1  0
 19 31  1  0
M  ISO  8  21  13  22  13  23  13  24  13  28  14  29  14  30  14  31  14
M  END
>  <minimizedAffinity>  (1) 
-4.6742878

>  <minimizedRMSD>  (1) 
0.458441675

$$$$
