
     RDKit          3D

 31 34  0  0  1  0  0  0  0  0999 V2000
   37.9970   22.9760   34.8390 N   0  0  0  0  0  0  0  0  0  0  0  0
   37.9960   23.7580   33.7510 C   0  0  0  0  0  0  0  0  0  0  0  0
   37.5570   23.0610   32.6810 N   0  0  0  0  0  0  0  0  0  0  0  0
   37.2810   21.7860   33.1520 C   0  0  0  0  0  0  0  0  0  0  0  0
   37.5560   21.7610   34.4730 N   0  0  0  0  0  0  0  0  0  0  0  0
   37.5160   23.9250   36.9890 C   0  0  0  0  0  0  0  0  0  0  0  0
   38.3590   23.1760   36.2080 C   0  0  0  0  0  0  0  0  0  0  0  0
   39.5260   22.6330   36.7600 C   0  0  0  0  0  0  0  0  0  0  0  0
   39.7920   22.8680   38.0750 N   0  0  0  0  0  0  0  0  0  0  0  0
   38.9540   23.6030   38.8200 C   0  0  0  0  0  0  0  0  0  0  0  0
   37.8170   24.1290   38.2710 N   0  0  0  0  0  0  0  0  0  0  0  0
   36.8150   20.7100   32.4450 O   0  0  0  0  0  0  0  0  0  0  0  0
   35.6940   20.0460   33.0500 C   0  0  1  0  0  0  0  0  0  0  0  0
   34.5910   19.6930   32.1050 C   0  0  0  0  0  0  0  0  0  0  0  0
   35.4690   18.6210   32.6560 C   0  0  1  0  0  0  0  0  0  0  0  0
   36.3620   17.9550   31.6570 C   0  0  0  0  0  0  0  0  0  0  0  0
   36.1590   16.6050   31.1240 C   0  0  0  0  0  0  0  0  0  0  0  0
   37.0920   16.7130   32.2480 C   0  0  0  0  0  0  0  0  0  0  0  0
   38.3071   24.8129   33.7322 H   0  0  0  0  0  0  0  0  0  0  0  0
   36.5984   24.3540   36.5602 H   0  0  0  0  0  0  0  0  0  0  0  0
   40.2117   22.0308   36.1459 H   0  0  0  0  0  0  0  0  0  0  0  0
   39.1825   23.7844   39.8806 H   0  0  0  0  0  0  0  0  0  0  0  0
   35.7728   20.5762   34.0106 H   0  0  0  0  0  0  0  0  0  0  0  0
   34.6655   19.9733   31.0439 H   0  0  0  0  0  0  0  0  0  0  0  0
   33.5058   19.8704   32.0761 H   0  0  0  0  0  0  0  0  0  0  0  0
   35.3495   17.6961   33.2393 H   0  0  0  0  0  0  0  0  0  0  0  0
   36.5614   18.9082   31.1455 H   0  0  0  0  0  0  0  0  0  0  0  0
   35.1899   16.1070   31.2752 H   0  0  0  0  0  0  0  0  0  0  0  0
   36.2429   16.1739   30.1155 H   0  0  0  0  0  0  0  0  0  0  0  0
   38.1717   16.5753   32.0891 H   0  0  0  0  0  0  0  0  0  0  0  0
   37.1876   16.2521   33.2422 H   0  0  0  0  0  0  0  0  0  0  0  0
  1  7  1  0
  2  1  1  0
  3  4  1  0
  3  2  2  0
  4  5  2  0
  5  1  1  0
  6 11  2  0
  7  8  2  0
  7  6  1  0
  8  9  1  0
  9 10  2  0
 11 10  1  0
 12 13  1  0
 12  4  1  0
 14 15  1  0
 14 13  1  0
 15 13  1  0
 16 18  1  0
 16 15  1  0
 17 16  1  0
 17 18  1  0
  2 19  1  0
  6 20  1  0
  8 21  1  0
 10 22  1  0
 13 23  1  1
 14 24  1  0
 14 25  1  0
 15 26  1  1
 16 27  1  0
 17 28  1  0
 17 29  1  0
 18 30  1  0
 18 31  1  0
M  ISO  8  19  14  20  14  21  14  22  14  23  13  24  13  25  13  26  13
M  ISO  5  27  13  28  13  29  13  30  13  31  13
M  END
>  <minimizedAffinity>  (1) 
-4.54974079

>  <minimizedRMSD>  (1) 
1.25980604

$$$$
