
     RDKit          3D

 36 38  0  0  1  0  0  0  0  0999 V2000
   38.5900   22.1550   34.8290 N   0  0  0  0  0  0  0  0  0  0  0  0
   39.4640   22.0200   33.8040 C   0  0  0  0  0  0  0  0  0  0  0  0
   38.8080   21.5680   32.7120 N   0  0  0  0  0  0  0  0  0  0  0  0
   37.4900   21.4220   33.0890 C   0  0  0  0  0  0  0  0  0  0  0  0
   37.3820   21.7870   34.3810 N   0  0  0  0  0  0  0  0  0  0  0  0
   37.5940   23.0810   36.7930 C   0  0  0  0  0  0  0  0  0  0  0  0
   38.7150   22.5780   36.1880 C   0  0  0  0  0  0  0  0  0  0  0  0
   39.9280   22.4940   36.8880 C   0  0  0  0  0  0  0  0  0  0  0  0
   39.9560   22.9240   38.1790 N   0  0  0  0  0  0  0  0  0  0  0  0
   38.8510   23.4130   38.7580 C   0  0  0  0  0  0  0  0  0  0  0  0
   37.6990   23.4860   38.0700 N   0  0  0  0  0  0  0  0  0  0  0  0
   36.4440   20.9860   32.3260 O   0  0  0  0  0  0  0  0  0  0  0  0
   35.6170   20.0040   32.9550 C   0  0  1  0  0  0  0  0  0  0  0  0
   34.5590   19.4240   32.0670 C   0  0  0  0  0  0  0  0  0  0  0  0
   35.7350   18.5940   32.5150 C   0  0  1  0  0  0  0  0  0  0  0  0
   36.6320   18.0880   31.4580 C   0  0  0  0  0  0  0  0  0  0  0  0
   36.4390   18.9170   30.1870 C   0  0  0  0  0  0  0  0  0  0  0  0
   36.2590   16.6620   31.1230 C   0  0  0  0  0  0  0  0  0  0  0  0
   38.0960   18.1330   31.7690 C   0  0  0  0  0  0  0  0  0  0  0  0
   40.5400   22.2433   33.8523 H   0  0  0  0  0  0  0  0  0  0  0  0
   36.6391   23.1512   36.2514 H   0  0  0  0  0  0  0  0  0  0  0  0
   40.8316   22.0917   36.4066 H   0  0  0  0  0  0  0  0  0  0  0  0
   38.8871   23.7566   39.8023 H   0  0  0  0  0  0  0  0  0  0  0  0
   35.6527   20.4879   33.9422 H   0  0  0  0  0  0  0  0  0  0  0  0
   34.4787   19.7480   31.0189 H   0  0  0  0  0  0  0  0  0  0  0  0
   33.4648   19.3225   32.1157 H   0  0  0  0  0  0  0  0  0  0  0  0
   35.9349   17.6739   33.0837 H   0  0  0  0  0  0  0  0  0  0  0  0
   36.1973   19.9550   30.4594 H   0  0  0  0  0  0  0  0  0  0  0  0
   37.3652   18.8997   29.5938 H   0  0  0  0  0  0  0  0  0  0  0  0
   35.6157   18.4924   29.5938 H   0  0  0  0  0  0  0  0  0  0  0  0
   36.1104   16.0937   32.0530 H   0  0  0  0  0  0  0  0  0  0  0  0
   35.3287   16.6546   30.5361 H   0  0  0  0  0  0  0  0  0  0  0  0
   37.0665   16.2000   30.5361 H   0  0  0  0  0  0  0  0  0  0  0  0
   38.2392   18.1374   32.8596 H   0  0  0  0  0  0  0  0  0  0  0  0
   38.5897   17.2496   31.3379 H   0  0  0  0  0  0  0  0  0  0  0  0
   38.5346   19.0450   31.3379 H   0  0  0  0  0  0  0  0  0  0  0  0
  1  7  1  0
  2  1  1  0
  3  4  1  0
  3  2  2  0
  4  5  2  0
  5  1  1  0
  6 11  2  0
  7  6  1  0
  7  8  2  0
  8  9  1  0
  9 10  2  0
 11 10  1  0
 12 13  1  0
 12  4  1  0
 14 15  1  0
 14 13  1  0
 15 13  1  0
 16 19  1  0
 16 15  1  0
 17 16  1  0
 18 16  1  0
  2 20  1  0
  6 21  1  0
  8 22  1  0
 10 23  1  0
 13 24  1  1
 14 25  1  0
 14 26  1  0
 15 27  1  1
 17 28  1  0
 17 29  1  0
 17 30  1  0
 18 31  1  0
 18 32  1  0
 18 33  1  0
 19 34  1  0
 19 35  1  0
 19 36  1  0
M  ISO  8  20  14  21  14  22  14  23  14  24  13  25  13  26  13  27  13
M  ISO  8  28   8  29   8  30   8  31   8  32   8  33   8  34   8  35   8
M  ISO  1  36   8
M  END
>  <minimizedAffinity>  (1) 
-4.539536

>  <minimizedRMSD>  (1) 
0.640400767

$$$$
