
     RDKit          3D

 27 29  0  0  1  0  0  0  0  0999 V2000
   38.6880   22.1010   34.7890 N   0  0  0  0  0  0  0  0  0  0  0  0
   39.5850   21.9080   33.8010 C   0  0  0  0  0  0  0  0  0  0  0  0
   38.9590   21.4760   32.6960 N   0  0  0  0  0  0  0  0  0  0  0  0
   37.6090   21.3980   33.0230 C   0  0  0  0  0  0  0  0  0  0  0  0
   37.4760   21.7870   34.3060 N   0  0  0  0  0  0  0  0  0  0  0  0
   37.6540   23.0480   36.7260 C   0  0  0  0  0  0  0  0  0  0  0  0
   38.7870   22.5380   36.1470 C   0  0  0  0  0  0  0  0  0  0  0  0
   39.9510   22.4730   36.8800 C   0  0  0  0  0  0  0  0  0  0  0  0
   39.9510   22.9190   38.1690 N   0  0  0  0  0  0  0  0  0  0  0  0
   38.8330   23.4150   38.7180 C   0  0  0  0  0  0  0  0  0  0  0  0
   37.6750   23.4740   37.9750 N   0  0  0  0  0  0  0  0  0  0  0  0
   36.5670   21.0020   32.2320 O   0  0  0  0  0  0  0  0  0  0  0  0
   35.9240   19.7980   32.6570 C   0  0  1  0  0  0  0  0  0  0  0  0
   34.5400   19.6020   32.1130 C   0  0  0  0  0  0  0  0  0  0  0  0
   35.6800   18.7630   31.5930 C   0  0  2  0  0  0  0  0  0  0  0  0
   35.8090   17.3430   31.9820 C   0  0  0  0  0  0  0  0  0  0  0  0
   36.8380   16.7510   32.4440 O   0  0  0  0  0  0  0  0  0  0  0  0
   34.6940   16.5030   31.8460 O   0  0  0  0  0  0  0  0  0  0  0  0
   40.6681   22.0792   33.8880 H   0  0  0  0  0  0  0  0  0  0  0  0
   36.7211   23.1026   36.1458 H   0  0  0  0  0  0  0  0  0  0  0  0
   40.8694   22.0664   36.4315 H   0  0  0  0  0  0  0  0  0  0  0  0
   38.8406   23.7735   39.7579 H   0  0  0  0  0  0  0  0  0  0  0  0
   36.3874   19.7809   33.6545 H   0  0  0  0  0  0  0  0  0  0  0  0
   33.7619   19.1439   32.7412 H   0  0  0  0  0  0  0  0  0  0  0  0
   33.7844   20.2571   31.6549 H   0  0  0  0  0  0  0  0  0  0  0  0
   36.0675   18.5460   30.5867 H   0  0  0  0  0  0  0  0  0  0  0  0
   34.7592   15.5486   32.1009 H   0  0  0  0  0  0  0  0  0  0  0  0
  1  7  1  0
  2  1  1  0
  3  4  1  0
  3  2  2  0
  4  5  2  0
  5  1  1  0
  6 11  2  0
  7  6  1  0
  7  8  2  0
  8  9  1  0
  9 10  2  0
 11 10  1  0
 12 13  1  0
 12  4  1  0
 14 13  1  0
 15 16  1  0
 15 14  1  0
 15 13  1  0
 16 17  2  0
 18 16  1  0
  2 19  1  0
  6 20  1  0
  8 21  1  0
 10 22  1  0
 13 23  1  1
 14 24  1  0
 14 25  1  0
 15 26  1  6
 18 27  1  0
M  ISO  8  19  14  20  14  21  14  22  14  23  13  24  13  25  13  26  13
M  ISO  1  27   3
M  END
>  <minimizedAffinity>  (1) 
-4.52063322

>  <minimizedRMSD>  (1) 
1.14298689

$$$$
