
     RDKit          3D

 31 34  0  0  1  0  0  0  0  0999 V2000
   38.7850   22.0950   34.7550 N   0  0  0  0  0  0  0  0  0  0  0  0
   39.7120   21.9720   33.7840 C   0  0  0  0  0  0  0  0  0  0  0  0
   39.1460   21.4840   32.6640 N   0  0  0  0  0  0  0  0  0  0  0  0
   37.8050   21.3000   32.9730 C   0  0  0  0  0  0  0  0  0  0  0  0
   37.6320   21.6830   34.2490 N   0  0  0  0  0  0  0  0  0  0  0  0
   37.6630   23.0420   36.6450 C   0  0  0  0  0  0  0  0  0  0  0  0
   38.8350   22.5430   36.1150 C   0  0  0  0  0  0  0  0  0  0  0  0
   40.0110   22.4750   36.8790 C   0  0  0  0  0  0  0  0  0  0  0  0
   39.9620   22.9170   38.1710 N   0  0  0  0  0  0  0  0  0  0  0  0
   38.7950   23.4050   38.6740 C   0  0  0  0  0  0  0  0  0  0  0  0
   37.6830   23.4610   37.9220 N   0  0  0  0  0  0  0  0  0  0  0  0
   36.8160   20.8160   32.1640 O   0  0  0  0  0  0  0  0  0  0  0  0
   35.5680   20.5700   32.8330 C   0  0  1  0  0  0  0  0  0  0  0  0
   34.4680   20.1050   31.9260 C   0  0  0  0  0  0  0  0  0  0  0  0
   35.1100   19.1440   32.8910 C   0  0  1  0  0  0  0  0  0  0  0  0
   35.9510   18.1020   32.3480 N   0  0  0  0  0  0  0  0  0  0  0  0
   37.1510   18.2690   31.8540 N   0  0  0  0  0  0  0  0  0  0  0  0
   37.6600   17.0910   31.4320 C   0  0  0  0  0  0  0  0  0  0  0  0
   36.6750   16.1390   31.6970 C   0  0  0  0  0  0  0  0  0  0  0  0
   35.6120   16.8190   32.2760 C   0  0  0  0  0  0  0  0  0  0  0  0
   40.7754   22.2323   33.8910 H   0  0  0  0  0  0  0  0  0  0  0  0
   36.7438   23.0951   36.0432 H   0  0  0  0  0  0  0  0  0  0  0  0
   40.9432   22.0781   36.4506 H   0  0  0  0  0  0  0  0  0  0  0  0
   38.7618   23.7598   39.7147 H   0  0  0  0  0  0  0  0  0  0  0  0
   35.6923   21.3639   33.5842 H   0  0  0  0  0  0  0  0  0  0  0  0
   33.4356   20.4457   32.0933 H   0  0  0  0  0  0  0  0  0  0  0  0
   34.2960   20.1193   30.8396 H   0  0  0  0  0  0  0  0  0  0  0  0
   34.7583   18.4817   33.6958 H   0  0  0  0  0  0  0  0  0  0  0  0
   38.6455   16.9183   30.9748 H   0  0  0  0  0  0  0  0  0  0  0  0
   36.7299   15.0604   31.4880 H   0  0  0  0  0  0  0  0  0  0  0  0
   34.6630   16.3768   32.6134 H   0  0  0  0  0  0  0  0  0  0  0  0
  1  7  1  0
  2  1  1  0
  3  4  1  0
  3  2  2  0
  4  5  2  0
  5  1  1  0
  6 11  2  0
  7  6  1  0
  7  8  2  0
  8  9  1  0
  9 10  2  0
 11 10  1  0
 12 13  1  0
 12  4  1  0
 13 15  1  0
 14 13  1  0
 14 15  1  0
 16 15  1  0
 17 16  1  0
 18 19  1  0
 18 17  2  0
 19 20  2  0
 20 16  1  0
  2 21  1  0
  6 22  1  0
  8 23  1  0
 10 24  1  0
 13 25  1  1
 14 26  1  0
 14 27  1  0
 15 28  1  1
 18 29  1  0
 19 30  1  0
 20 31  1  0
M  ISO  8  21  14  22  14  23  14  24  14  25  13  26  13  27  13  28  13
M  ISO  3  29  14  30  14  31  14
M  END
>  <minimizedAffinity>  (1) 
-4.48833799

>  <minimizedRMSD>  (1) 
0.52068001

$$$$
