
     RDKit          3D

 25 27  0  0  1  0  0  0  0  0999 V2000
   38.6900   22.0380   34.6990 N   0  0  0  0  0  0  0  0  0  0  0  0
   39.5990   21.8290   33.7380 C   0  0  0  0  0  0  0  0  0  0  0  0
   39.0070   21.3620   32.6280 N   0  0  0  0  0  0  0  0  0  0  0  0
   37.6510   21.2790   32.9250 C   0  0  0  0  0  0  0  0  0  0  0  0
   37.4960   21.7000   34.1920 N   0  0  0  0  0  0  0  0  0  0  0  0
   37.6010   22.9820   36.6140 C   0  0  0  0  0  0  0  0  0  0  0  0
   38.7490   22.4980   36.0460 C   0  0  0  0  0  0  0  0  0  0  0  0
   39.9100   22.4670   36.7940 C   0  0  0  0  0  0  0  0  0  0  0  0
   39.9140   22.9130   38.0790 N   0  0  0  0  0  0  0  0  0  0  0  0
   38.7570   23.3900   38.6170 C   0  0  0  0  0  0  0  0  0  0  0  0
   37.6080   23.4150   37.8640 N   0  0  0  0  0  0  0  0  0  0  0  0
   36.6230   20.8530   32.1250 O   0  0  0  0  0  0  0  0  0  0  0  0
   35.5960   20.1300   32.8190 C   0  0  1  0  0  0  0  0  0  0  0  0
   34.3240   19.9630   32.0410 C   0  0  0  0  0  0  0  0  0  0  0  0
   35.2410   18.7870   32.2420 C   0  0  2  0  0  0  0  0  0  0  0  0
   34.8610   17.7360   33.0350 O   0  0  0  0  0  0  0  0  0  0  0  0
   40.6782   22.0140   33.8436 H   0  0  0  0  0  0  0  0  0  0  0  0
   36.6699   23.0109   36.0290 H   0  0  0  0  0  0  0  0  0  0  0  0
   40.8374   22.0791   36.3475 H   0  0  0  0  0  0  0  0  0  0  0  0
   38.7426   23.7552   39.6545 H   0  0  0  0  0  0  0  0  0  0  0  0
   35.8626   20.4924   33.8228 H   0  0  0  0  0  0  0  0  0  0  0  0
   34.2249   20.4190   31.0449 H   0  0  0  0  0  0  0  0  0  0  0  0
   33.2603   20.1620   32.2382 H   0  0  0  0  0  0  0  0  0  0  0  0
   35.7558   18.0692   31.5864 H   0  0  0  0  0  0  0  0  0  0  0  0
   34.9531   17.9909   33.9872 H   0  0  0  0  0  0  0  0  0  0  0  0
  1  7  1  0
  2  1  1  0
  3  4  1  0
  3  2  2  0
  4  5  2  0
  5  1  1  0
  6 11  2  0
  7  6  1  0
  7  8  2  0
  8  9  1  0
  9 10  2  0
 11 10  1  0
 12 13  1  0
 12  4  1  0
 14 15  1  0
 14 13  1  0
 15 13  1  0
 15 16  1  0
  2 17  1  0
  6 18  1  0
  8 19  1  0
 10 20  1  0
 13 21  1  1
 14 22  1  0
 14 23  1  0
 15 24  1  6
 16 25  1  0
M  ISO  8  17  14  18  14  19  14  20  14  21  13  22  13  23  13  24  13
M  ISO  1  25   3
M  END
>  <minimizedAffinity>  (1) 
-4.46459341

>  <minimizedRMSD>  (1) 
0.333452791

$$$$
