
     RDKit          3D

 26 28  0  0  1  0  0  0  0  0999 V2000
   38.6170   22.0600   34.7210 N   0  0  0  0  0  0  0  0  0  0  0  0
   39.5060   21.8200   33.7420 C   0  0  0  0  0  0  0  0  0  0  0  0
   38.8510   21.3980   32.6340 N   0  0  0  0  0  0  0  0  0  0  0  0
   37.5140   21.3810   32.9590 C   0  0  0  0  0  0  0  0  0  0  0  0
   37.4110   21.7900   34.2330 N   0  0  0  0  0  0  0  0  0  0  0  0
   37.5860   22.9920   36.6740 C   0  0  0  0  0  0  0  0  0  0  0  0
   38.7220   22.5030   36.0810 C   0  0  0  0  0  0  0  0  0  0  0  0
   39.9320   22.4420   36.7890 C   0  0  0  0  0  0  0  0  0  0  0  0
   39.9570   22.8780   38.0780 N   0  0  0  0  0  0  0  0  0  0  0  0
   38.8250   23.3580   38.6440 C   0  0  0  0  0  0  0  0  0  0  0  0
   37.6750   23.4090   37.9530 N   0  0  0  0  0  0  0  0  0  0  0  0
   36.4590   21.0190   32.1670 O   0  0  0  0  0  0  0  0  0  0  0  0
   35.5020   20.1600   32.8060 C   0  0  1  0  0  0  0  0  0  0  0  0
   34.2440   19.9450   32.0300 C   0  0  0  0  0  0  0  0  0  0  0  0
   35.2550   18.8370   32.1470 C   0  0  2  0  0  0  0  0  0  0  0  0
   34.9520   17.6880   32.9430 N   0  0  0  0  0  0  0  0  0  0  0  0
   40.5954   21.9465   33.8272 H   0  0  0  0  0  0  0  0  0  0  0  0
   36.6344   23.0422   36.1245 H   0  0  0  0  0  0  0  0  0  0  0  0
   40.8421   22.0496   36.3117 H   0  0  0  0  0  0  0  0  0  0  0  0
   38.8476   23.7115   39.6854 H   0  0  0  0  0  0  0  0  0  0  0  0
   35.7506   20.4728   33.8309 H   0  0  0  0  0  0  0  0  0  0  0  0
   34.0974   20.4564   31.0672 H   0  0  0  0  0  0  0  0  0  0  0  0
   33.1700   20.0442   32.2462 H   0  0  0  0  0  0  0  0  0  0  0  0
   35.8106   18.2065   31.4372 H   0  0  0  0  0  0  0  0  0  0  0  0
   35.0171   17.9348   33.9409 H   0  0  0  0  0  0  0  0  0  0  0  0
   33.9972   17.3653   32.7307 H   0  0  0  0  0  0  0  0  0  0  0  0
  1  7  1  0
  2  1  1  0
  3  4  1  0
  3  2  2  0
  4  5  2  0
  5  1  1  0
  6 11  2  0
  7  6  1  0
  7  8  2  0
  8  9  1  0
  9 10  2  0
 11 10  1  0
 12 13  1  0
 12  4  1  0
 14 15  1  0
 14 13  1  0
 15 13  1  0
 15 16  1  0
  2 17  1  0
  6 18  1  0
  8 19  1  0
 10 20  1  0
 13 21  1  1
 14 22  1  0
 14 23  1  0
 15 24  1  6
 16 25  1  0
 16 26  1  0
M  ISO  8  17  14  18  14  19  14  20  14  21  13  22  13  23  13  24  13
M  ISO  2  25   5  26   5
M  END
>  <minimizedAffinity>  (1) 
-4.43647718

>  <minimizedRMSD>  (1) 
0.357346833

$$$$
