
     RDKit          3D

 30 33  0  0  1  0  0  0  0  0999 V2000
   38.0770   23.4290   34.7770 N   0  0  0  0  0  0  0  0  0  0  0  0
   38.2730   24.2960   33.7550 C   0  0  0  0  0  0  0  0  0  0  0  0
   37.7680   23.8030   32.6170 N   0  0  0  0  0  0  0  0  0  0  0  0
   37.2330   22.5600   32.9530 C   0  0  0  0  0  0  0  0  0  0  0  0
   37.4410   22.3800   34.2680 N   0  0  0  0  0  0  0  0  0  0  0  0
   37.5870   24.1540   36.9960 C   0  0  0  0  0  0  0  0  0  0  0  0
   38.4060   23.4390   36.1620 C   0  0  0  0  0  0  0  0  0  0  0  0
   39.5200   22.7640   36.6680 C   0  0  0  0  0  0  0  0  0  0  0  0
   39.7690   22.8350   38.0030 N   0  0  0  0  0  0  0  0  0  0  0  0
   38.9660   23.5350   38.8130 C   0  0  0  0  0  0  0  0  0  0  0  0
   37.9010   24.1760   38.3040 N   0  0  0  0  0  0  0  0  0  0  0  0
   36.6070   21.6510   32.1380 O   0  0  0  0  0  0  0  0  0  0  0  0
   35.7520   20.7310   32.8410 C   0  0  1  0  0  0  0  0  0  0  0  0
   34.5630   20.2830   32.0420 C   0  0  0  0  0  0  0  0  0  0  0  0
   35.6970   19.3290   32.3110 C   0  0  1  0  0  0  0  0  0  0  0  0
   36.6240   19.0520   31.2330 N   0  0  0  0  0  0  0  0  0  0  0  0
   37.8980   18.6270   31.3780 C   0  0  0  0  0  0  0  0  0  0  0  0
   38.4730   18.4720   30.1500 N   0  0  0  0  0  0  0  0  0  0  0  0
   37.5270   18.8110   29.2620 C   0  0  0  0  0  0  0  0  0  0  0  0
   36.4000   19.1650   29.9180 N   0  0  0  0  0  0  0  0  0  0  0  0
   38.7768   25.2695   33.8470 H   0  0  0  0  0  0  0  0  0  0  0  0
   36.7067   24.6894   36.6109 H   0  0  0  0  0  0  0  0  0  0  0  0
   40.1800   22.1887   36.0021 H   0  0  0  0  0  0  0  0  0  0  0  0
   39.1773   23.5852   39.8913 H   0  0  0  0  0  0  0  0  0  0  0  0
   35.9224   21.1622   33.8385 H   0  0  0  0  0  0  0  0  0  0  0  0
   34.4026   20.6751   31.0269 H   0  0  0  0  0  0  0  0  0  0  0  0
   33.4755   20.2663   32.2067 H   0  0  0  0  0  0  0  0  0  0  0  0
   35.7532   18.3138   32.7308 H   0  0  0  0  0  0  0  0  0  0  0  0
   38.3963   18.4350   32.3397 H   0  0  0  0  0  0  0  0  0  0  0  0
   37.6495   18.8022   28.1689 H   0  0  0  0  0  0  0  0  0  0  0  0
  1  7  1  0
  2  1  1  0
  3  4  1  0
  3  2  2  0
  4  5  2  0
  5  1  1  0
  6 11  2  0
  7  8  2  0
  7  6  1  0
  8  9  1  0
  9 10  2  0
 11 10  1  0
 12 13  1  0
 12  4  1  0
 14 15  1  0
 14 13  1  0
 15 13  1  0
 16 17  1  0
 16 15  1  0
 18 17  2  0
 19 20  2  0
 19 18  1  0
 20 16  1  0
  2 21  1  0
  6 22  1  0
  8 23  1  0
 10 24  1  0
 13 25  1  1
 14 26  1  0
 14 27  1  0
 15 28  1  1
 17 29  1  0
 19 30  1  0
M  ISO  8  21  14  22  14  23  14  24  14  25  13  26  13  27  13  28  13
M  ISO  2  29  14  30  14
M  END
>  <minimizedAffinity>  (1) 
-4.41534185

>  <minimizedRMSD>  (1) 
1.45177913

$$$$
