
     RDKit          3D

 36 39  0  0  1  0  0  0  0  0999 V2000
   38.5350   22.1340   34.8810 N   0  0  0  0  0  0  0  0  0  0  0  0
   39.4060   21.9710   33.8530 C   0  0  0  0  0  0  0  0  0  0  0  0
   38.7270   21.5160   32.7690 N   0  0  0  0  0  0  0  0  0  0  0  0
   37.4090   21.4010   33.1540 C   0  0  0  0  0  0  0  0  0  0  0  0
   37.3330   21.7860   34.4370 N   0  0  0  0  0  0  0  0  0  0  0  0
   37.5670   23.0870   36.8440 C   0  0  0  0  0  0  0  0  0  0  0  0
   38.6830   22.5710   36.2350 C   0  0  0  0  0  0  0  0  0  0  0  0
   39.8910   22.5050   36.9130 C   0  0  0  0  0  0  0  0  0  0  0  0
   39.9470   22.9640   38.1880 N   0  0  0  0  0  0  0  0  0  0  0  0
   38.8630   23.4700   38.7870 C   0  0  0  0  0  0  0  0  0  0  0  0
   37.7030   23.5200   38.1070 N   0  0  0  0  0  0  0  0  0  0  0  0
   36.3520   20.9740   32.4080 O   0  0  0  0  0  0  0  0  0  0  0  0
   35.6850   19.8150   32.9320 C   0  0  1  0  0  0  0  0  0  0  0  0
   34.6260   19.2630   32.0190 C   0  0  0  0  0  0  0  0  0  0  0  0
   35.8940   18.5220   32.2180 C   0  0  1  0  0  0  0  0  0  0  0  0
   36.9260   18.4620   31.2370 N   0  0  0  0  0  0  0  0  0  0  0  0
   36.6180   17.4570   30.2030 C   0  0  0  0  0  0  0  0  0  0  0  0
   36.6640   16.1430   30.9680 C   0  0  0  0  0  0  0  0  0  0  0  0
   37.6180   16.3810   32.1060 C   0  0  0  0  0  0  0  0  0  0  0  0
   38.1010   17.8050   31.8110 C   0  0  0  0  0  0  0  0  0  0  0  0
   40.4863   22.1744   33.8918 H   0  0  0  0  0  0  0  0  0  0  0  0
   36.6018   23.1434   36.3193 H   0  0  0  0  0  0  0  0  0  0  0  0
   40.7855   22.0888   36.4266 H   0  0  0  0  0  0  0  0  0  0  0  0
   38.9193   23.8401   39.8213 H   0  0  0  0  0  0  0  0  0  0  0  0
   35.7575   20.1249   33.9849 H   0  0  0  0  0  0  0  0  0  0  0  0
   34.4203   19.7527   31.0557 H   0  0  0  0  0  0  0  0  0  0  0  0
   33.5582   19.0201   32.1233 H   0  0  0  0  0  0  0  0  0  0  0  0
   36.1081   17.4777   32.4892 H   0  0  0  0  0  0  0  0  0  0  0  0
   35.6203   17.6276   29.7724 H   0  0  0  0  0  0  0  0  0  0  0  0
   37.3162   17.4853   29.3534 H   0  0  0  0  0  0  0  0  0  0  0  0
   35.6654   15.8840   31.3498 H   0  0  0  0  0  0  0  0  0  0  0  0
   36.9866   15.3073   30.3296 H   0  0  0  0  0  0  0  0  0  0  0  0
   37.1057   16.3242   33.0777 H   0  0  0  0  0  0  0  0  0  0  0  0
   38.4274   15.6392   32.1738 H   0  0  0  0  0  0  0  0  0  0  0  0
   38.9340   17.7950   31.0927 H   0  0  0  0  0  0  0  0  0  0  0  0
   38.4799   18.3191   32.7066 H   0  0  0  0  0  0  0  0  0  0  0  0
  1  7  1  0
  2  1  1  0
  3  4  1  0
  3  2  2  0
  4  5  2  0
  5  1  1  0
  6 11  2  0
  7  6  1  0
  7  8  2  0
  8  9  1  0
  9 10  2  0
 11 10  1  0
 12 13  1  0
 12  4  1  0
 14 15  1  0
 14 13  1  0
 15 13  1  0
 16 17  1  0
 16 20  1  0
 16 15  1  0
 17 18  1  0
 18 19  1  0
 20 19  1  0
  2 21  1  0
  6 22  1  0
  8 23  1  0
 10 24  1  0
 13 25  1  1
 14 26  1  0
 14 27  1  0
 15 28  1  1
 17 29  1  0
 17 30  1  0
 18 31  1  0
 18 32  1  0
 19 33  1  0
 19 34  1  0
 20 35  1  0
 20 36  1  0
M  ISO  8  21  14  22  14  23  14  24  14  25  13  26  13  27  13  28  13
M  ISO  8  29  13  30  13  31  13  32  13  33  13  34  13  35  13  36  13
M  END
>  <minimizedAffinity>  (1) 
-4.32417965

>  <minimizedRMSD>  (1) 
0.970718265

$$$$
