
     RDKit          3D

 30 32  0  0  1  0  0  0  0  0999 V2000
   38.6270   22.1910   34.8200 N   0  0  0  0  0  0  0  0  0  0  0  0
   39.5200   21.9600   33.8320 C   0  0  0  0  0  0  0  0  0  0  0  0
   38.8480   21.5900   32.7090 N   0  0  0  0  0  0  0  0  0  0  0  0
   37.5150   21.5980   33.0320 C   0  0  0  0  0  0  0  0  0  0  0  0
   37.4190   21.9680   34.3180 N   0  0  0  0  0  0  0  0  0  0  0  0
   37.6200   23.0940   36.7920 C   0  0  0  0  0  0  0  0  0  0  0  0
   38.7470   22.5890   36.1930 C   0  0  0  0  0  0  0  0  0  0  0  0
   39.9520   22.4900   36.8950 C   0  0  0  0  0  0  0  0  0  0  0  0
   39.9670   22.9100   38.1810 N   0  0  0  0  0  0  0  0  0  0  0  0
   38.8780   23.4050   38.7730 C   0  0  0  0  0  0  0  0  0  0  0  0
   37.7310   23.4870   38.0730 N   0  0  0  0  0  0  0  0  0  0  0  0
   36.4560   21.2890   32.2330 O   0  0  0  0  0  0  0  0  0  0  0  0
   35.5960   20.2600   32.7440 C   0  0  1  0  0  0  0  0  0  0  0  0
   34.3510   20.0360   31.9370 C   0  0  0  0  0  0  0  0  0  0  0  0
   35.4650   19.0240   31.9020 C   0  0  2  0  0  0  0  0  0  0  0  0
   35.2450   17.7450   32.6730 C   0  0  0  0  0  0  0  0  0  0  0  0
   36.1310   16.6280   32.1660 C   0  0  0  0  0  0  0  0  0  0  0  0
   40.6122   22.0557   33.9216 H   0  0  0  0  0  0  0  0  0  0  0  0
   36.6674   23.1737   36.2477 H   0  0  0  0  0  0  0  0  0  0  0  0
   40.8566   22.0846   36.4182 H   0  0  0  0  0  0  0  0  0  0  0  0
   38.9172   23.7417   39.8195 H   0  0  0  0  0  0  0  0  0  0  0  0
   35.8273   20.4461   33.8032 H   0  0  0  0  0  0  0  0  0  0  0  0
   33.4040   19.7946   32.4419 H   0  0  0  0  0  0  0  0  0  0  0  0
   33.7999   20.6132   31.1800 H   0  0  0  0  0  0  0  0  0  0  0  0
   36.0497   18.5493   31.1003 H   0  0  0  0  0  0  0  0  0  0  0  0
   35.4703   17.9251   33.7345 H   0  0  0  0  0  0  0  0  0  0  0  0
   34.1968   17.4394   32.5395 H   0  0  0  0  0  0  0  0  0  0  0  0
   36.5616   16.0851   33.0203 H   0  0  0  0  0  0  0  0  0  0  0  0
   35.5341   15.9353   31.5546 H   0  0  0  0  0  0  0  0  0  0  0  0
   36.9414   17.0516   31.5546 H   0  0  0  0  0  0  0  0  0  0  0  0
  1  7  1  0
  2  1  1  0
  3  4  1  0
  3  2  2  0
  4  5  2  0
  5  1  1  0
  6 11  2  0
  7  6  1  0
  7  8  2  0
  8  9  1  0
  9 10  2  0
 11 10  1  0
 12 13  1  0
 12  4  1  0
 14 13  1  0
 15 14  1  0
 15 16  1  0
 15 13  1  0
 17 16  1  0
  2 18  1  0
  6 19  1  0
  8 20  1  0
 10 21  1  0
 13 22  1  1
 14 23  1  0
 14 24  1  0
 15 25  1  6
 16 26  1  0
 16 27  1  0
 17 28  1  0
 17 29  1  0
 17 30  1  0
M  ISO  8  18  14  19  14  20  14  21  14  22  13  23  13  24  13  25  13
M  ISO  5  26   8  27   8  28   8  29   8  30   8
M  END
>  <minimizedAffinity>  (1) 
-4.30720091

>  <minimizedRMSD>  (1) 
0.703584492

$$$$
