
     RDKit          3D

 26 28  0  0  1  0  0  0  0  0999 V2000
   38.6550   22.0580   34.7570 N   0  0  0  0  0  0  0  0  0  0  0  0
   39.5670   21.8870   33.7770 C   0  0  0  0  0  0  0  0  0  0  0  0
   38.9490   21.4070   32.6680 N   0  0  0  0  0  0  0  0  0  0  0  0
   37.6150   21.2860   32.9970 C   0  0  0  0  0  0  0  0  0  0  0  0
   37.4760   21.6910   34.2680 N   0  0  0  0  0  0  0  0  0  0  0  0
   37.5890   23.0080   36.6760 C   0  0  0  0  0  0  0  0  0  0  0  0
   38.7330   22.5130   36.1040 C   0  0  0  0  0  0  0  0  0  0  0  0
   39.9240   22.4750   36.8450 C   0  0  0  0  0  0  0  0  0  0  0  0
   39.9040   22.9350   38.1170 N   0  0  0  0  0  0  0  0  0  0  0  0
   38.7840   23.4180   38.6680 C   0  0  0  0  0  0  0  0  0  0  0  0
   37.6530   23.4460   37.9440 N   0  0  0  0  0  0  0  0  0  0  0  0
   36.5930   20.8360   32.2120 O   0  0  0  0  0  0  0  0  0  0  0  0
   35.5150   20.2260   32.9240 C   0  0  1  0  0  0  0  0  0  0  0  0
   34.3880   19.7400   32.0640 C   0  0  0  0  0  0  0  0  0  0  0  0
   35.3200   18.7500   32.7130 C   0  0  1  0  0  0  0  0  0  0  0  0
   36.3320   18.0450   31.9000 C   0  0  0  0  0  0  0  0  0  0  0  0
   36.7630   16.9740   32.3380 O   0  0  0  0  0  0  0  0  0  0  0  0
   40.6422   22.1027   33.8634 H   0  0  0  0  0  0  0  0  0  0  0  0
   36.6453   23.0452   36.1120 H   0  0  0  0  0  0  0  0  0  0  0  0
   40.8508   22.0810   36.4026 H   0  0  0  0  0  0  0  0  0  0  0  0
   38.7897   23.7884   39.7037 H   0  0  0  0  0  0  0  0  0  0  0  0
   35.6081   20.8693   33.8114 H   0  0  0  0  0  0  0  0  0  0  0  0
   34.4210   19.8942   30.9754 H   0  0  0  0  0  0  0  0  0  0  0  0
   33.2983   19.8898   32.0524 H   0  0  0  0  0  0  0  0  0  0  0  0
   35.1709   17.8672   33.3521 H   0  0  0  0  0  0  0  0  0  0  0  0
   36.6870   18.4571   30.9439 H   0  0  0  0  0  0  0  0  0  0  0  0
  1  7  1  0
  2  1  1  0
  3  4  1  0
  3  2  2  0
  4  5  2  0
  5  1  1  0
  6 11  2  0
  7  6  1  0
  7  8  2  0
  8  9  1  0
  9 10  2  0
 11 10  1  0
 12 13  1  0
 12  4  1  0
 14 15  1  0
 14 13  1  0
 15 13  1  0
 16 17  2  0
 16 15  1  0
  2 18  1  0
  6 19  1  0
  8 20  1  0
 10 21  1  0
 13 22  1  1
 14 23  1  0
 14 24  1  0
 15 25  1  1
 16 26  1  0
M  ISO  8  18  14  19  14  20  14  21  14  22  13  23  13  24  13  25  13
M  ISO  1  26   6
M  END
>  <minimizedAffinity>  (1) 
-4.2763052

>  <minimizedRMSD>  (1) 
0.151151717

$$$$
