
     RDKit          3D

 25 27  0  0  1  0  0  0  0  0999 V2000
   38.6680   22.1090   34.8070 N   0  0  0  0  0  0  0  0  0  0  0  0
   39.5730   21.9090   33.8210 C   0  0  0  0  0  0  0  0  0  0  0  0
   38.9360   21.4760   32.7100 N   0  0  0  0  0  0  0  0  0  0  0  0
   37.5980   21.4110   33.0330 C   0  0  0  0  0  0  0  0  0  0  0  0
   37.4730   21.8020   34.3120 N   0  0  0  0  0  0  0  0  0  0  0  0
   37.6430   23.0530   36.7450 C   0  0  0  0  0  0  0  0  0  0  0  0
   38.7750   22.5470   36.1610 C   0  0  0  0  0  0  0  0  0  0  0  0
   39.9530   22.4820   36.8930 C   0  0  0  0  0  0  0  0  0  0  0  0
   39.9550   22.9220   38.1720 N   0  0  0  0  0  0  0  0  0  0  0  0
   38.8450   23.4150   38.7350 C   0  0  0  0  0  0  0  0  0  0  0  0
   37.6890   23.4750   38.0090 N   0  0  0  0  0  0  0  0  0  0  0  0
   36.5550   21.0220   32.2390 O   0  0  0  0  0  0  0  0  0  0  0  0
   35.8490   19.8590   32.7090 C   0  0  1  0  0  0  0  0  0  0  0  0
   34.5330   19.6260   32.0280 C   0  0  0  0  0  0  0  0  0  0  0  0
   35.7090   18.7360   31.7230 C   0  0  2  0  0  0  0  0  0  0  0  0
   35.6610   17.0360   32.2790 S   0  0  0  0  0  0  0  0  0  0  0  0
   40.6571   22.0730   33.9096 H   0  0  0  0  0  0  0  0  0  0  0  0
   36.7038   23.1105   36.1753 H   0  0  0  0  0  0  0  0  0  0  0  0
   40.8706   22.0788   36.4397 H   0  0  0  0  0  0  0  0  0  0  0  0
   38.8634   23.7697   39.7761 H   0  0  0  0  0  0  0  0  0  0  0  0
   36.1968   19.9282   33.7503 H   0  0  0  0  0  0  0  0  0  0  0  0
   33.6794   19.2332   32.5999 H   0  0  0  0  0  0  0  0  0  0  0  0
   33.8471   20.2423   31.4282 H   0  0  0  0  0  0  0  0  0  0  0  0
   36.2604   18.4357   30.8198 H   0  0  0  0  0  0  0  0  0  0  0  0
   35.6601   17.0033   33.6486 H   0  0  0  0  0  0  0  0  0  0  0  0
  1  7  1  0
  2  1  1  0
  3  4  1  0
  3  2  2  0
  4  5  2  0
  5  1  1  0
  6 11  2  0
  7  6  1  0
  7  8  2  0
  8  9  1  0
  9 10  2  0
 11 10  1  0
 12 13  1  0
 12  4  1  0
 14 13  1  0
 15 14  1  0
 15 16  1  0
 15 13  1  0
  2 17  1  0
  6 18  1  0
  8 19  1  0
 10 20  1  0
 13 21  1  1
 14 22  1  0
 14 23  1  0
 15 24  1  6
 16 25  1  0
M  ISO  8  17  14  18  14  19  14  20  14  21  13  22  13  23  13  24  13
M  ISO  1  25  11
M  END
>  <minimizedAffinity>  (1) 
-4.04090643

>  <minimizedRMSD>  (1) 
0.653805792

$$$$
