
     RDKit          3D

 33 34  0  0  1  0  0  0  0  0999 V2000
   38.7400   25.7420   34.8830 C   0  0  2  0  0  0  0  0  0  0  0  0
   39.6270   22.9670   37.1190 C   0  0  0  0  0  0  0  0  0  0  0  0
   38.8240   23.1930   38.2710 C   0  0  0  0  0  0  0  0  0  0  0  0
   37.9750   24.3150   38.2580 C   0  0  0  0  0  0  0  0  0  0  0  0
   37.9820   25.1100   37.1290 N   0  0  0  0  0  0  0  0  0  0  0  0
   38.7630   24.8520   36.0620 C   0  0  0  0  0  0  0  0  0  0  0  0
   39.5650   23.7940   36.0750 N   0  0  0  0  0  0  0  0  0  0  0  0
   39.8710   26.7290   35.0020 C   0  0  0  0  0  0  0  0  0  0  0  0
   37.4500   26.4840   34.7400 C   0  0  0  0  0  0  0  0  0  0  0  0
   36.8410   26.3840   33.4450 N   0  0  0  0  0  0  0  0  0  0  0  0
   37.3400   25.1510   32.8600 C   0  0  0  0  0  0  0  0  0  0  0  0
   36.7130   24.8510   31.5270 C   0  0  0  0  0  0  0  0  0  0  0  0
   36.9460   25.9510   30.6400 N   0  0  0  0  0  0  0  0  0  0  0  0
   36.4830   27.1690   31.2330 C   0  0  0  0  0  0  0  0  0  0  0  0
   37.1900   27.4510   32.5460 C   0  0  0  0  0  0  0  0  0  0  0  0
   38.8502   25.1125   33.9877 H   0  0  0  0  0  0  0  0  0  0  0  0
   40.3056   22.1018   37.0891 H   0  0  0  0  0  0  0  0  0  0  0  0
   38.8651   22.5172   39.1380 H   0  0  0  0  0  0  0  0  0  0  0  0
   37.3288   24.5504   39.1165 H   0  0  0  0  0  0  0  0  0  0  0  0
   40.0846   26.9154   36.0648 H   0  0  0  0  0  0  0  0  0  0  0  0
   40.7678   26.3196   34.5141 H   0  0  0  0  0  0  0  0  0  0  0  0
   39.5867   27.6730   34.5141 H   0  0  0  0  0  0  0  0  0  0  0  0
   36.7424   26.0872   35.4829 H   0  0  0  0  0  0  0  0  0  0  0  0
   37.6853   27.5479   34.8912 H   0  0  0  0  0  0  0  0  0  0  0  0
   38.4282   25.2393   32.7261 H   0  0  0  0  0  0  0  0  0  0  0  0
   37.0819   24.3285   33.5433 H   0  0  0  0  0  0  0  0  0  0  0  0
   37.1604   23.9382   31.1068 H   0  0  0  0  0  0  0  0  0  0  0  0
   35.6307   24.6999   31.6527 H   0  0  0  0  0  0  0  0  0  0  0  0
   36.4414   25.7890   29.7568 H   0  0  0  0  0  0  0  0  0  0  0  0
   36.6740   28.0002   30.5383 H   0  0  0  0  0  0  0  0  0  0  0  0
   35.4065   27.0676   31.4350 H   0  0  0  0  0  0  0  0  0  0  0  0
   38.2789   27.4751   32.3919 H   0  0  0  0  0  0  0  0  0  0  0  0
   36.8871   28.4261   32.9552 H   0  0  0  0  0  0  0  0  0  0  0  0
  1  8  1  0
  1  6  1  0
  2  3  2  0
  4  3  1  0
  5  4  2  0
  6  7  2  0
  6  5  1  0
  7  2  1  0
  9  1  1  0
 10  9  1  0
 11 10  1  0
 12 11  1  0
 13 14  1  0
 13 12  1  0
 14 15  1  0
 15 10  1  0
  1 16  1  6
  2 17  1  0
  3 18  1  0
  4 19  1  0
  8 20  1  0
  8 21  1  0
  8 22  1  0
  9 23  1  0
  9 24  1  0
 11 25  1  0
 11 26  1  0
 12 27  1  0
 12 28  1  0
 13 29  1  0
 14 30  1  0
 14 31  1  0
 15 32  1  0
 15 33  1  0
M  ISO  8  16   8  17  14  18  14  19  14  20   8  21   8  22   8  23   8
M  ISO  8  24   8  25  13  26  13  27  13  28  13  29   5  30  13  31  13
M  ISO  2  32  13  33  13
M  END
>  <minimizedAffinity>  (1) 
-4.25038576

>  <minimizedRMSD>  (1) 
1.59612536

$$$$
