
     RDKit          3D

 44 48  0  0  1  0  0  0  0  0999 V2000
   35.6600   20.3210   32.8580 C   0  0  1  0  0  0  0  0  0  0  0  0
   34.4490   20.0960   32.0350 C   0  0  0  0  0  0  0  0  0  0  0  0
   35.2250   18.9290   32.4870 C   0  0  1  0  0  0  0  0  0  0  0  0
   35.8450   18.0460   31.6310 N   0  0  0  0  0  0  0  0  0  0  0  0
   36.6160   18.5880   30.6280 C   0  0  0  0  0  0  0  0  0  0  0  0
   37.1470   17.5400   29.8800 C   0  0  0  0  0  0  0  0  0  0  0  0
   36.6880   16.3860   30.4430 N   0  0  0  0  0  0  0  0  0  0  0  0
   35.9140   16.7390   31.4870 C   0  0  0  0  0  0  0  0  0  0  0  0
   35.5150   15.4840   31.9790 N   0  0  0  0  0  0  0  0  0  0  0  0
   34.8880   15.3740   33.2110 C   0  0  0  0  0  0  0  0  0  0  0  0
   34.4160   14.2110   33.7800 C   0  0  0  0  0  0  0  0  0  0  0  0
   33.7600   14.2260   35.1080 C   0  0  0  0  0  0  0  0  0  0  0  0
   34.6240   13.1010   32.9940 C   0  0  0  0  0  0  0  0  0  0  0  0
   34.2190   11.9950   33.4460 O   0  0  0  0  0  0  0  0  0  0  0  0
   35.2180   13.0930   31.7920 N   0  0  0  0  0  0  0  0  0  0  0  0
   35.6270   14.2680   31.3530 C   0  0  0  0  0  0  0  0  0  0  0  0
   36.2020   14.3210   30.2100 O   0  0  0  0  0  0  0  0  0  0  0  0
   36.8520   20.7070   32.2250 O   0  0  0  0  0  0  0  0  0  0  0  0
   38.7990   22.0640   34.7720 N   0  0  0  0  0  0  0  0  0  0  0  0
   39.7120   21.9460   33.8040 C   0  0  0  0  0  0  0  0  0  0  0  0
   39.1430   21.4320   32.7160 N   0  0  0  0  0  0  0  0  0  0  0  0
   37.8280   21.2230   33.0200 C   0  0  0  0  0  0  0  0  0  0  0  0
   37.6250   21.6170   34.2910 N   0  0  0  0  0  0  0  0  0  0  0  0
   37.6430   23.0500   36.6500 C   0  0  0  0  0  0  0  0  0  0  0  0
   38.8180   22.5420   36.1320 C   0  0  0  0  0  0  0  0  0  0  0  0
   39.9860   22.4860   36.9050 C   0  0  0  0  0  0  0  0  0  0  0  0
   39.9040   22.9580   38.1890 N   0  0  0  0  0  0  0  0  0  0  0  0
   38.7340   23.4510   38.6680 C   0  0  0  0  0  0  0  0  0  0  0  0
   37.6330   23.4920   37.9060 N   0  0  0  0  0  0  0  0  0  0  0  0
   35.8475   20.9053   33.7709 H   0  0  0  0  0  0  0  0  0  0  0  0
   34.4517   20.3753   30.9710 H   0  0  0  0  0  0  0  0  0  0  0  0
   33.3947   20.3987   32.1170 H   0  0  0  0  0  0  0  0  0  0  0  0
   35.0443   18.0124   33.0677 H   0  0  0  0  0  0  0  0  0  0  0  0
   36.7834   19.6603   30.4487 H   0  0  0  0  0  0  0  0  0  0  0  0
   37.8081   17.6264   29.0051 H   0  0  0  0  0  0  0  0  0  0  0  0
   34.7550   16.3012   33.7877 H   0  0  0  0  0  0  0  0  0  0  0  0
   34.5272   14.2085   35.8961 H   0  0  0  0  0  0  0  0  0  0  0  0
   33.1534   15.1383   35.2070 H   0  0  0  0  0  0  0  0  0  0  0  0
   33.1123   13.3424   35.2070 H   0  0  0  0  0  0  0  0  0  0  0  0
   35.3464   12.2278   31.2480 H   0  0  0  0  0  0  0  0  0  0  0  0
   40.7710   22.2299   33.8924 H   0  0  0  0  0  0  0  0  0  0  0  0
   36.7313   23.0888   36.0358 H   0  0  0  0  0  0  0  0  0  0  0  0
   40.9253   22.0818   36.4996 H   0  0  0  0  0  0  0  0  0  0  0  0
   38.6888   23.8241   39.7018 H   0  0  0  0  0  0  0  0  0  0  0  0
  2  3  1  0
  2  1  1  0
  3  1  1  0
  4  3  1  0
  5  4  1  0
  6  7  1  0
  6  5  2  0
  7  8  2  0
  8  4  1  0
  8  9  1  0
  9 10  1  0
 10 11  2  0
 11 12  1  0
 13 14  2  0
 13 11  1  0
 15 13  1  0
 16 15  1  0
 16  9  1  0
 17 16  2  0
 18  1  1  0
 18 22  1  0
 19 25  1  0
 20 19  1  0
 21 22  1  0
 21 20  2  0
 22 23  2  0
 23 19  1  0
 24 29  2  0
 25 24  1  0
 25 26  2  0
 26 27  1  0
 27 28  2  0
 29 28  1  0
  1 30  1  1
  2 31  1  0
  2 32  1  0
  3 33  1  1
  5 34  1  0
  6 35  1  0
 10 36  1  0
 12 37  1  0
 12 38  1  0
 12 39  1  0
 15 40  1  0
 20 41  1  0
 24 42  1  0
 26 43  1  0
 28 44  1  0
M  ISO  8  30  13  31  13  32  13  33  13  34  14  35  14  36  14  37   8
M  ISO  7  38   8  39   8  40   9  41  14  42  14  43  14  44  14
M  END
>  <minimizedAffinity>  (1) 
-5.62682152

>  <minimizedRMSD>  (1) 
4.60058928

$$$$
