
     RDKit          3D

 38 41  0  0  1  0  0  0  0  0999 V2000
   35.7010   20.2150   33.0390 C   0  0  1  0  0  0  0  0  0  0  0  0
   34.6530   19.5540   32.2200 C   0  0  0  0  0  0  0  0  0  0  0  0
   35.7990   18.7530   32.6930 C   0  0  1  0  0  0  0  0  0  0  0  0
   36.6940   18.1660   31.8140 N   0  0  0  0  0  0  0  0  0  0  0  0
   37.9400   18.7730   31.7230 C   0  0  0  0  0  0  0  0  0  0  0  0
   38.6960   18.0860   30.7930 C   0  0  0  0  0  0  0  0  0  0  0  0
   37.9050   17.0910   30.3480 N   0  0  0  0  0  0  0  0  0  0  0  0
   36.7170   17.1550   30.9720 C   0  0  0  0  0  0  0  0  0  0  0  0
   35.8890   16.0590   30.7200 N   0  0  0  0  0  0  0  0  0  0  0  0
   34.8080   15.6720   31.5580 C   0  0  0  0  0  0  0  0  0  0  0  0
   34.6930   15.9550   32.8110 N   0  0  0  0  0  0  0  0  0  0  0  0
   33.6720   14.8880   31.1430 N   0  0  0  0  0  0  0  0  0  0  0  0
   35.4220   16.5030   33.2840 H   0  0  0  0  0  0  0  0  0  0  0  0
   36.6420   21.0160   32.3880 O   0  0  0  0  0  0  0  0  0  0  0  0
   37.9850   23.1330   34.8000 N   0  0  0  0  0  0  0  0  0  0  0  0
   38.0540   23.9400   33.7310 C   0  0  0  0  0  0  0  0  0  0  0  0
   37.5670   23.3000   32.6510 N   0  0  0  0  0  0  0  0  0  0  0  0
   37.1880   22.0390   33.1020 C   0  0  0  0  0  0  0  0  0  0  0  0
   37.4490   21.9590   34.4070 N   0  0  0  0  0  0  0  0  0  0  0  0
   37.5190   24.0050   36.9950 C   0  0  0  0  0  0  0  0  0  0  0  0
   38.3550   23.2680   36.1930 C   0  0  0  0  0  0  0  0  0  0  0  0
   39.5170   22.6620   36.6830 C   0  0  0  0  0  0  0  0  0  0  0  0
   39.7810   22.8430   38.0200 N   0  0  0  0  0  0  0  0  0  0  0  0
   38.9450   23.5740   38.7990 C   0  0  0  0  0  0  0  0  0  0  0  0
   37.8440   24.1370   38.2920 N   0  0  0  0  0  0  0  0  0  0  0  0
   35.6767   20.8306   33.9503 H   0  0  0  0  0  0  0  0  0  0  0  0
   34.5597   19.7972   31.1513 H   0  0  0  0  0  0  0  0  0  0  0  0
   33.5600   19.4574   32.2980 H   0  0  0  0  0  0  0  0  0  0  0  0
   35.9613   17.8473   33.2957 H   0  0  0  0  0  0  0  0  0  0  0  0
   38.2694   19.6528   32.2952 H   0  0  0  0  0  0  0  0  0  0  0  0
   39.7278   18.3056   30.4813 H   0  0  0  0  0  0  0  0  0  0  0  0
   36.0726   15.4974   29.8763 H   0  0  0  0  0  0  0  0  0  0  0  0
   32.9326   14.6538   31.8208 H   0  0  0  0  0  0  0  0  0  0  0  0
   33.5995   14.5620   30.1687 H   0  0  0  0  0  0  0  0  0  0  0  0
   38.4479   24.9670   33.7358 H   0  0  0  0  0  0  0  0  0  0  0  0
   36.6106   24.4732   36.5880 H   0  0  0  0  0  0  0  0  0  0  0  0
   40.1825   22.0734   36.0344 H   0  0  0  0  0  0  0  0  0  0  0  0
   39.1772   23.7056   39.8661 H   0  0  0  0  0  0  0  0  0  0  0  0
  2  3  1  0
  2  1  1  0
  3  1  1  0
  4  3  1  0
  5  4  1  0
  6  5  2  0
  7  6  1  0
  7  8  2  0
  8  4  1  0
  9  8  1  0
  9 10  1  0
 10 11  2  0
 11 13  1  0
 12 10  1  0
 14  1  1  0
 14 18  1  0
 15 21  1  0
 16 15  1  0
 17 18  1  0
 17 16  2  0
 18 19  2  0
 19 15  1  0
 20 25  2  0
 21 22  2  0
 21 20  1  0
 22 23  1  0
 23 24  2  0
 25 24  1  0
  1 26  1  1
  2 27  1  0
  2 28  1  0
  3 29  1  1
  5 30  1  0
  6 31  1  0
  9 32  1  0
 12 33  1  0
 12 34  1  0
 16 35  1  0
 20 36  1  0
 22 37  1  0
 24 38  1  0
M  ISO  8  26  13  27  13  28  13  29  13  30  14  31  14  35  14  36  14
M  ISO  2  37  14  38  14
M  END
>  <minimizedAffinity>  (1) 
-5.40854692

>  <minimizedRMSD>  (1) 
2.76010442

$$$$
