
     RDKit          3D

 42 46  0  0  1  0  0  0  0  0999 V2000
   35.3820   20.4240   32.9850 C   0  0  1  0  0  0  0  0  0  0  0  0
   34.4020   19.9750   31.9730 C   0  0  0  0  0  0  0  0  0  0  0  0
   35.1330   18.9530   32.7490 C   0  0  1  0  0  0  0  0  0  0  0  0
   35.9900   18.0420   32.1660 N   0  0  0  0  0  0  0  0  0  0  0  0
   35.7070   16.7090   32.3720 C   0  0  0  0  0  0  0  0  0  0  0  0
   36.6810   15.9610   31.7140 C   0  0  0  0  0  0  0  0  0  0  0  0
   37.5310   16.8510   31.1230 N   0  0  0  0  0  0  0  0  0  0  0  0
   37.0760   18.0800   31.4210 C   0  0  0  0  0  0  0  0  0  0  0  0
   38.0140   18.8930   30.7590 N   0  0  0  0  0  0  0  0  0  0  0  0
   39.1780   19.3560   31.3210 C   0  0  0  0  0  0  0  0  0  0  0  0
   40.1150   20.1770   30.7520 C   0  0  0  0  0  0  0  0  0  0  0  0
   39.7850   20.5340   29.4770 C   0  0  0  0  0  0  0  0  0  0  0  0
   40.6610   21.3940   28.7350 N   0  0  0  0  0  0  0  0  0  0  0  0
   38.6710   20.1430   28.8220 N   0  0  0  0  0  0  0  0  0  0  0  0
   37.7840   19.3200   29.4620 C   0  0  0  0  0  0  0  0  0  0  0  0
   36.7390   18.9240   28.9130 O   0  0  0  0  0  0  0  0  0  0  0  0
   36.6530   20.8470   32.5730 O   0  0  0  0  0  0  0  0  0  0  0  0
   38.0170   23.0190   34.9370 N   0  0  0  0  0  0  0  0  0  0  0  0
   38.0780   23.7840   33.8310 C   0  0  0  0  0  0  0  0  0  0  0  0
   37.5840   23.1140   32.7890 N   0  0  0  0  0  0  0  0  0  0  0  0
   37.2040   21.8860   33.2600 C   0  0  0  0  0  0  0  0  0  0  0  0
   37.4760   21.8470   34.5800 N   0  0  0  0  0  0  0  0  0  0  0  0
   37.5380   23.9680   37.0850 C   0  0  0  0  0  0  0  0  0  0  0  0
   38.3870   23.2080   36.3120 C   0  0  0  0  0  0  0  0  0  0  0  0
   39.5540   22.6500   36.8360 C   0  0  0  0  0  0  0  0  0  0  0  0
   39.8190   22.8950   38.1660 N   0  0  0  0  0  0  0  0  0  0  0  0
   38.9580   23.6520   38.9030 C   0  0  0  0  0  0  0  0  0  0  0  0
   37.8470   24.1700   38.3620 N   0  0  0  0  0  0  0  0  0  0  0  0
   35.3238   21.1402   33.8179 H   0  0  0  0  0  0  0  0  0  0  0  0
   34.6216   20.1088   30.9035 H   0  0  0  0  0  0  0  0  0  0  0  0
   33.3382   20.1840   31.7868 H   0  0  0  0  0  0  0  0  0  0  0  0
   34.8892   18.1102   33.4125 H   0  0  0  0  0  0  0  0  0  0  0  0
   34.8631   16.3075   32.9521 H   0  0  0  0  0  0  0  0  0  0  0  0
   36.7516   14.8639   31.6776 H   0  0  0  0  0  0  0  0  0  0  0  0
   39.3824   19.0285   32.3510 H   0  0  0  0  0  0  0  0  0  0  0  0
   41.0294   20.5106   31.2644 H   0  0  0  0  0  0  0  0  0  0  0  0
   40.4194   21.6683   27.7720 H   0  0  0  0  0  0  0  0  0  0  0  0
   41.5317   21.7373   29.1652 H   0  0  0  0  0  0  0  0  0  0  0  0
   38.4759   24.8088   33.7924 H   0  0  0  0  0  0  0  0  0  0  0  0
   36.6223   24.3994   36.6544 H   0  0  0  0  0  0  0  0  0  0  0  0
   40.2306   22.0431   36.2164 H   0  0  0  0  0  0  0  0  0  0  0  0
   39.1797   23.8416   39.9636 H   0  0  0  0  0  0  0  0  0  0  0  0
  2  3  1  0
  2  1  1  0
  3  1  1  0
  4  5  1  0
  4  3  1  0
  6  5  2  0
  7  8  2  0
  7  6  1  0
  8  4  1  0
  9 10  1  0
  9  8  1  0
 11 10  2  0
 12 11  1  0
 13 12  1  0
 14 15  1  0
 14 12  2  0
 15  9  1  0
 16 15  2  0
 17  1  1  0
 17 21  1  0
 18 24  1  0
 19 18  1  0
 20 21  1  0
 20 19  2  0
 21 22  2  0
 22 18  1  0
 23 28  2  0
 24 25  2  0
 24 23  1  0
 25 26  1  0
 26 27  2  0
 28 27  1  0
  1 29  1  1
  2 30  1  0
  2 31  1  0
  3 32  1  1
  5 33  1  0
  6 34  1  0
 10 35  1  0
 11 36  1  0
 13 37  1  0
 13 38  1  0
 19 39  1  0
 23 40  1  0
 25 41  1  0
 27 42  1  0
M  ISO  8  29  13  30  13  31  13  32  13  33  14  34  14  35  14  36  14
M  ISO  4  39  14  40  14  41  14  42  14
M  END
>  <minimizedAffinity>  (1) 
-5.33492899

>  <minimizedRMSD>  (1) 
0.899005055

$$$$
