
     RDKit          3D

 42 47  0  0  1  0  0  0  0  0999 V2000
   36.4570   21.0480   32.2630 C   0  0  1  0  0  0  0  0  0  0  0  0
   35.6090   21.1530   31.0500 C   0  0  0  0  0  0  0  0  0  0  0  0
   35.6320   19.8770   31.7930 C   0  0  1  0  0  0  0  0  0  0  0  0
   36.0830   18.6990   31.2360 N   0  0  0  0  0  0  0  0  0  0  0  0
   35.8360   17.5400   31.9510 C   0  0  0  0  0  0  0  0  0  0  0  0
   36.3760   16.4740   31.2370 C   0  0  0  0  0  0  0  0  0  0  0  0
   36.9290   17.0050   30.1180 N   0  0  0  0  0  0  0  0  0  0  0  0
   36.7290   18.3410   30.1550 C   0  0  0  0  0  0  0  0  0  0  0  0
   37.2980   18.7490   28.9400 N   0  0  0  0  0  0  0  0  0  0  0  0
   38.3680   19.6160   28.8390 C   0  0  0  0  0  0  0  0  0  0  0  0
   38.7030   19.8910   27.5470 N   0  0  0  0  0  0  0  0  0  0  0  0
   37.8220   19.1790   26.7920 C   0  0  0  0  0  0  0  0  0  0  0  0
   37.5680   18.9730   25.4560 C   0  0  0  0  0  0  0  0  0  0  0  0
   36.5920   18.1810   24.9880 N   0  0  0  0  0  0  0  0  0  0  0  0
   35.7880   17.5280   25.8440 C   0  0  0  0  0  0  0  0  0  0  0  0
   35.9750   17.6780   27.1860 N   0  0  0  0  0  0  0  0  0  0  0  0
   36.9660   18.4820   27.6560 C   0  0  0  0  0  0  0  0  0  0  0  0
   37.8380   20.8490   32.1100 O   0  0  0  0  0  0  0  0  0  0  0  0
   39.2470   22.2300   34.9760 N   0  0  0  0  0  0  0  0  0  0  0  0
   40.3520   22.0050   34.2460 C   0  0  0  0  0  0  0  0  0  0  0  0
   40.0080   21.4660   33.0790 N   0  0  0  0  0  0  0  0  0  0  0  0
   38.6480   21.3480   33.0790 C   0  0  0  0  0  0  0  0  0  0  0  0
   38.1810   21.8240   34.2550 N   0  0  0  0  0  0  0  0  0  0  0  0
   37.8030   23.4630   36.4570 C   0  0  0  0  0  0  0  0  0  0  0  0
   38.9870   22.7830   36.2860 C   0  0  0  0  0  0  0  0  0  0  0  0
   39.9040   22.6250   37.3290 C   0  0  0  0  0  0  0  0  0  0  0  0
   39.5650   23.1840   38.5340 N   0  0  0  0  0  0  0  0  0  0  0  0
   38.3940   23.8510   38.6860 C   0  0  0  0  0  0  0  0  0  0  0  0
   37.5330   23.9820   37.6520 N   0  0  0  0  0  0  0  0  0  0  0  0
   36.5555   21.6669   33.1670 H   0  0  0  0  0  0  0  0  0  0  0  0
   36.0797   21.2163   30.0578 H   0  0  0  0  0  0  0  0  0  0  0  0
   34.8145   21.8396   30.7223 H   0  0  0  0  0  0  0  0  0  0  0  0
   34.9097   19.2155   32.2937 H   0  0  0  0  0  0  0  0  0  0  0  0
   35.3068   17.4731   32.9130 H   0  0  0  0  0  0  0  0  0  0  0  0
   36.3579   15.4121   31.5233 H   0  0  0  0  0  0  0  0  0  0  0  0
   38.8934   20.0391   29.7079 H   0  0  0  0  0  0  0  0  0  0  0  0
   38.2060   19.4908   24.7247 H   0  0  0  0  0  0  0  0  0  0  0  0
   34.9857   16.8779   25.4651 H   0  0  0  0  0  0  0  0  0  0  0  0
   41.3807   22.2310   34.5634 H   0  0  0  0  0  0  0  0  0  0  0  0
   37.0945   23.5752   35.6231 H   0  0  0  0  0  0  0  0  0  0  0  0
   40.8493   22.0800   37.1901 H   0  0  0  0  0  0  0  0  0  0  0  0
   38.1418   24.2907   39.6623 H   0  0  0  0  0  0  0  0  0  0  0  0
  2  3  1  0
  2  1  1  0
  3  1  1  0
  4  3  1  0
  4  5  1  0
  6  5  2  0
  7  8  2  0
  7  6  1  0
  8  4  1  0
  9  8  1  0
 10  9  1  0
 11 10  2  0
 12 11  1  0
 12 17  2  0
 13 12  1  0
 14 13  2  0
 14 15  1  0
 15 16  2  0
 16 17  1  0
 17  9  1  0
 18  1  1  0
 18 22  1  0
 19 25  1  0
 20 19  1  0
 21 22  1  0
 21 20  2  0
 22 23  2  0
 23 19  1  0
 24 29  2  0
 25 24  1  0
 25 26  2  0
 26 27  1  0
 27 28  2  0
 29 28  1  0
  1 30  1  1
  2 31  1  0
  2 32  1  0
  3 33  1  1
  5 34  1  0
  6 35  1  0
 10 36  1  0
 13 37  1  0
 15 38  1  0
 20 39  1  0
 24 40  1  0
 26 41  1  0
 28 42  1  0
M  ISO  8  30  13  31  13  32  13  33  13  34  14  35  14  36  14  37  14
M  ISO  5  38  14  39  14  40  14  41  14  42  14
M  END
>  <minimizedAffinity>  (1) 
-5.22124624

>  <minimizedRMSD>  (1) 
2.05963206

$$$$
