
     RDKit          3D

 47 51  0  0  1  0  0  0  0  0999 V2000
   36.3710   21.8820   32.0360 C   0  0  1  0  0  0  0  0  0  0  0  0
   35.3910   21.7780   30.9400 C   0  0  0  0  0  0  0  0  0  0  0  0
   35.4970   20.6840   31.8860 C   0  0  1  0  0  0  0  0  0  0  0  0
   35.7670   19.3870   31.6200 N   0  0  0  0  0  0  0  0  0  0  0  0
   35.5680   18.4640   32.6440 C   0  0  0  0  0  0  0  0  0  0  0  0
   35.9980   17.2340   32.2150 C   0  0  0  0  0  0  0  0  0  0  0  0
   36.4400   17.4680   30.9350 N   0  0  0  0  0  0  0  0  0  0  0  0
   36.2900   18.7200   30.6060 C   0  0  0  0  0  0  0  0  0  0  0  0
   36.6360   18.9240   29.2080 C   0  0  0  0  0  0  0  0  0  0  0  0
   36.7830   17.6700   28.3890 C   0  0  0  0  0  0  0  0  0  0  0  0
   36.6420   17.9750   26.9240 C   0  0  0  0  0  0  0  0  0  0  0  0
   37.5330   19.1480   26.6410 C   0  0  0  0  0  0  0  0  0  0  0  0
   38.5420   19.3960   27.6980 C   0  0  0  0  0  0  0  0  0  0  0  0
   38.1440   19.3580   29.1050 C   0  0  0  0  0  0  0  0  0  0  0  0
   37.6970   21.5570   31.8500 O   0  0  0  0  0  0  0  0  0  0  0  0
   39.2440   22.2760   34.8810 N   0  0  0  0  0  0  0  0  0  0  0  0
   40.3120   21.9490   34.1460 C   0  0  0  0  0  0  0  0  0  0  0  0
   39.9170   21.6350   32.9140 N   0  0  0  0  0  0  0  0  0  0  0  0
   38.5430   21.7750   32.8900 C   0  0  0  0  0  0  0  0  0  0  0  0
   38.1470   22.1690   34.1020 N   0  0  0  0  0  0  0  0  0  0  0  0
   37.7910   23.1850   36.5830 C   0  0  0  0  0  0  0  0  0  0  0  0
   39.0480   22.6990   36.2490 C   0  0  0  0  0  0  0  0  0  0  0  0
   40.0760   22.6200   37.1960 C   0  0  0  0  0  0  0  0  0  0  0  0
   39.7780   23.0450   38.4620 N   0  0  0  0  0  0  0  0  0  0  0  0
   38.5390   23.5190   38.7700 C   0  0  0  0  0  0  0  0  0  0  0  0
   37.5680   23.5830   37.8340 N   0  0  0  0  0  0  0  0  0  0  0  0
   36.5817   22.6917   32.7502 H   0  0  0  0  0  0  0  0  0  0  0  0
   35.7402   21.6419   29.9058 H   0  0  0  0  0  0  0  0  0  0  0  0
   34.5646   22.4103   30.5832 H   0  0  0  0  0  0  0  0  0  0  0  0
   34.8403   20.1330   32.5753 H   0  0  0  0  0  0  0  0  0  0  0  0
   35.1377   18.6846   33.6320 H   0  0  0  0  0  0  0  0  0  0  0  0
   35.9907   16.2824   32.7668 H   0  0  0  0  0  0  0  0  0  0  0  0
   35.8401   19.6021   28.8664 H   0  0  0  0  0  0  0  0  0  0  0  0
   37.7752   17.2322   28.5732 H   0  0  0  0  0  0  0  0  0  0  0  0
   35.9940   16.9613   28.6811 H   0  0  0  0  0  0  0  0  0  0  0  0
   36.9550   17.1076   26.3242 H   0  0  0  0  0  0  0  0  0  0  0  0
   35.5968   18.2001   26.6652 H   0  0  0  0  0  0  0  0  0  0  0  0
   38.0603   18.9634   25.6934 H   0  0  0  0  0  0  0  0  0  0  0  0
   36.8888   20.0384   26.5950 H   0  0  0  0  0  0  0  0  0  0  0  0
   39.3307   18.6401   27.5694 H   0  0  0  0  0  0  0  0  0  0  0  0
   38.8237   20.4476   27.5405 H   0  0  0  0  0  0  0  0  0  0  0  0
   38.7722   18.6343   29.6450 H   0  0  0  0  0  0  0  0  0  0  0  0
   38.2712   20.3556   29.5506 H   0  0  0  0  0  0  0  0  0  0  0  0
   41.3525   21.9407   34.5028 H   0  0  0  0  0  0  0  0  0  0  0  0
   36.9934   23.2403   35.8275 H   0  0  0  0  0  0  0  0  0  0  0  0
   41.0732   22.2356   36.9354 H   0  0  0  0  0  0  0  0  0  0  0  0
   38.3263   23.8544   39.7958 H   0  0  0  0  0  0  0  0  0  0  0  0
  2  3  1  0
  2  1  1  0
  3  1  1  0
  4  3  1  0
  4  5  1  0
  6  5  2  0
  7  6  1  0
  8  7  2  0
  8  4  1  0
  9  8  1  0
 10  9  1  0
 11 10  1  0
 12 11  1  0
 12 13  1  0
 13 14  1  0
 14  9  1  0
 15  1  1  0
 15 19  1  0
 16 22  1  0
 17 16  1  0
 18 17  2  0
 19 18  1  0
 19 20  2  0
 20 16  1  0
 21 26  2  0
 22 21  1  0
 22 23  2  0
 23 24  1  0
 24 25  2  0
 26 25  1  0
  1 27  1  1
  2 28  1  0
  2 29  1  0
  3 30  1  1
  5 31  1  0
  6 32  1  0
  9 33  1  0
 10 34  1  0
 10 35  1  0
 11 36  1  0
 11 37  1  0
 12 38  1  0
 12 39  1  0
 13 40  1  0
 13 41  1  0
 14 42  1  0
 14 43  1  0
 17 44  1  0
 21 45  1  0
 23 46  1  0
 25 47  1  0
M  ISO  8  27  13  28  13  29  13  30  13  31  14  32  14  33  13  34  13
M  ISO  8  35  13  36  13  37  13  38  13  39  13  40  13  41  13  42  13
M  ISO  5  43  13  44  14  45  14  46  14  47  14
M  END
>  <minimizedAffinity>  (1) 
-5.02316952

>  <minimizedRMSD>  (1) 
1.86521518

$$$$
