
     RDKit          3D

 39 43  0  0  1  0  0  0  0  0999 V2000
   36.3260   21.8730   32.2400 C   0  0  1  0  0  0  0  0  0  0  0  0
   35.4220   21.8110   31.0660 C   0  0  0  0  0  0  0  0  0  0  0  0
   35.4210   20.6870   32.0240 C   0  0  1  0  0  0  0  0  0  0  0  0
   35.7730   19.4020   31.6820 N   0  0  0  0  0  0  0  0  0  0  0  0
   35.4090   18.4030   32.5580 C   0  0  0  0  0  0  0  0  0  0  0  0
   35.8610   17.1920   32.0380 C   0  0  0  0  0  0  0  0  0  0  0  0
   36.4890   17.4840   30.8570 N   0  0  0  0  0  0  0  0  0  0  0  0
   36.4080   18.8130   30.6910 C   0  0  0  0  0  0  0  0  0  0  0  0
   37.0780   18.9880   29.4280 C   0  0  0  0  0  0  0  0  0  0  0  0
   36.5290   18.5010   28.2170 C   0  0  0  0  0  0  0  0  0  0  0  0
   37.0940   18.6590   26.9700 C   0  0  0  0  0  0  0  0  0  0  0  0
   38.2380   19.3280   26.9710 N   0  0  0  0  0  0  0  0  0  0  0  0
   38.7830   19.8010   28.0950 C   0  0  0  0  0  0  0  0  0  0  0  0
   38.2450   19.6520   29.2970 N   0  0  0  0  0  0  0  0  0  0  0  0
   37.6840   21.5640   32.0700 O   0  0  0  0  0  0  0  0  0  0  0  0
   39.1420   22.4570   35.0980 N   0  0  0  0  0  0  0  0  0  0  0  0
   40.2340   22.0580   34.4140 C   0  0  0  0  0  0  0  0  0  0  0  0
   39.8600   21.6700   33.1870 N   0  0  0  0  0  0  0  0  0  0  0  0
   38.5020   21.8350   33.1220 C   0  0  0  0  0  0  0  0  0  0  0  0
   38.0710   22.3200   34.3010 N   0  0  0  0  0  0  0  0  0  0  0  0
   37.8000   23.7380   36.6260 C   0  0  0  0  0  0  0  0  0  0  0  0
   38.9320   22.9710   36.4350 C   0  0  0  0  0  0  0  0  0  0  0  0
   39.8180   22.6990   37.4760 C   0  0  0  0  0  0  0  0  0  0  0  0
   39.5150   23.2240   38.6960 N   0  0  0  0  0  0  0  0  0  0  0  0
   38.3970   23.9780   38.8690 C   0  0  0  0  0  0  0  0  0  0  0  0
   37.5670   24.2220   37.8500 N   0  0  0  0  0  0  0  0  0  0  0  0
   36.5026   22.6381   33.0104 H   0  0  0  0  0  0  0  0  0  0  0  0
   35.8424   21.6707   30.0592 H   0  0  0  0  0  0  0  0  0  0  0  0
   34.6463   22.4738   30.6550 H   0  0  0  0  0  0  0  0  0  0  0  0
   34.6936   20.1661   32.6640 H   0  0  0  0  0  0  0  0  0  0  0  0
   34.8589   18.5376   33.5010 H   0  0  0  0  0  0  0  0  0  0  0  0
   35.7374   16.1960   32.4883 H   0  0  0  0  0  0  0  0  0  0  0  0
   35.5767   17.9536   28.2763 H   0  0  0  0  0  0  0  0  0  0  0  0
   36.6346   18.2635   26.0521 H   0  0  0  0  0  0  0  0  0  0  0  0
   39.7350   20.3467   28.0184 H   0  0  0  0  0  0  0  0  0  0  0  0
   41.2639   22.0521   34.8005 H   0  0  0  0  0  0  0  0  0  0  0  0
   37.1098   23.9448   35.7949 H   0  0  0  0  0  0  0  0  0  0  0  0
   40.7198   22.0889   37.3198 H   0  0  0  0  0  0  0  0  0  0  0  0
   38.1721   24.3935   39.8624 H   0  0  0  0  0  0  0  0  0  0  0  0
  2  3  1  0
  2  1  1  0
  3  1  1  0
  4  3  1  0
  4  5  1  0
  6  5  2  0
  7  6  1  0
  8  7  2  0
  8  4  1  0
  9  8  1  0
 10  9  2  0
 11 12  2  0
 11 10  1  0
 12 13  1  0
 13 14  2  0
 14  9  1  0
 15  1  1  0
 15 19  1  0
 16 22  1  0
 17 16  1  0
 18 17  2  0
 19 18  1  0
 19 20  2  0
 20 16  1  0
 21 26  2  0
 22 21  1  0
 22 23  2  0
 23 24  1  0
 24 25  2  0
 26 25  1  0
  1 27  1  1
  2 28  1  0
  2 29  1  0
  3 30  1  1
  5 31  1  0
  6 32  1  0
 10 33  1  0
 11 34  1  0
 13 35  1  0
 17 36  1  0
 21 37  1  0
 23 38  1  0
 25 39  1  0
M  ISO  8  27  13  28  13  29  13  30  13  31  14  32  14  33  14  34  14
M  ISO  5  35  14  36  14  37  14  38  14  39  14
M  END
>  <minimizedAffinity>  (1) 
-4.8955884

>  <minimizedRMSD>  (1) 
1.8684324

$$$$
