
     RDKit          3D

 34 37  0  0  1  0  0  0  0  0999 V2000
   35.5240   20.4340   32.7460 C   0  0  1  0  0  0  0  0  0  0  0  0
   34.3920   19.9190   31.9710 C   0  0  0  0  0  0  0  0  0  0  0  0
   35.3710   18.9770   32.4390 C   0  0  1  0  0  0  0  0  0  0  0  0
   36.1380   18.1470   31.6730 N   0  0  0  0  0  0  0  0  0  0  0  0
   36.5160   16.9270   32.2590 C   0  0  0  0  0  0  0  0  0  0  0  0
   37.3850   16.3070   31.3970 C   0  0  0  0  0  0  0  0  0  0  0  0
   37.4970   17.1590   30.3240 N   0  0  0  0  0  0  0  0  0  0  0  0
   36.7570   18.2170   30.5040 C   0  0  0  0  0  0  0  0  0  0  0  0
   36.9010   19.0260   29.3100 C   0  0  0  0  0  0  0  0  0  0  0  0
   36.0590   19.0200   28.2630 F   0  0  0  0  0  0  0  0  0  0  0  0
   37.9790   18.5490   28.4500 F   0  0  0  0  0  0  0  0  0  0  0  0
   37.6120   20.2160   29.5430 F   0  0  0  0  0  0  0  0  0  0  0  0
   36.6510   20.9630   32.1600 O   0  0  0  0  0  0  0  0  0  0  0  0
   38.7120   22.0470   34.7360 N   0  0  0  0  0  0  0  0  0  0  0  0
   39.6210   21.8340   33.7860 C   0  0  0  0  0  0  0  0  0  0  0  0
   39.0300   21.4050   32.6760 N   0  0  0  0  0  0  0  0  0  0  0  0
   37.6760   21.3450   32.9580 C   0  0  0  0  0  0  0  0  0  0  0  0
   37.5040   21.7450   34.2260 N   0  0  0  0  0  0  0  0  0  0  0  0
   37.5850   23.0140   36.6400 C   0  0  0  0  0  0  0  0  0  0  0  0
   38.7630   22.5120   36.1020 C   0  0  0  0  0  0  0  0  0  0  0  0
   39.9460   22.4560   36.8430 C   0  0  0  0  0  0  0  0  0  0  0  0
   39.8860   22.9270   38.1380 N   0  0  0  0  0  0  0  0  0  0  0  0
   38.7190   23.4120   38.6350 C   0  0  0  0  0  0  0  0  0  0  0  0
   37.5960   23.4500   37.8920 N   0  0  0  0  0  0  0  0  0  0  0  0
   35.5650   21.1263   33.5998 H   0  0  0  0  0  0  0  0  0  0  0  0
   34.3219   20.1422   30.8962 H   0  0  0  0  0  0  0  0  0  0  0  0
   33.2991   19.9985   32.0673 H   0  0  0  0  0  0  0  0  0  0  0  0
   35.3865   18.0622   33.0497 H   0  0  0  0  0  0  0  0  0  0  0  0
   36.1771   16.5398   33.2312 H   0  0  0  0  0  0  0  0  0  0  0  0
   37.8846   15.3368   31.5349 H   0  0  0  0  0  0  0  0  0  0  0  0
   40.7035   21.9905   33.9033 H   0  0  0  0  0  0  0  0  0  0  0  0
   36.6633   23.0490   36.0406 H   0  0  0  0  0  0  0  0  0  0  0  0
   40.8776   22.0567   36.4156 H   0  0  0  0  0  0  0  0  0  0  0  0
   38.6900   23.7831   39.6701 H   0  0  0  0  0  0  0  0  0  0  0  0
  2  3  1  0
  2  1  1  0
  3  1  1  0
  4  5  1  0
  4  3  1  0
  6  5  2  0
  7  8  2  0
  7  6  1  0
  8  4  1  0
  9 12  1  0
  9  8  1  0
 10  9  1  0
 11  9  1  0
 13  1  1  0
 13 17  1  0
 14 20  1  0
 15 14  1  0
 16 17  1  0
 16 15  2  0
 17 18  2  0
 18 14  1  0
 19 24  2  0
 20 19  1  0
 20 21  2  0
 21 22  1  0
 22 23  2  0
 24 23  1  0
  1 25  1  1
  2 26  1  0
  2 27  1  0
  3 28  1  1
  5 29  1  0
  6 30  1  0
 15 31  1  0
 19 32  1  0
 21 33  1  0
 23 34  1  0
M  ISO  8  25  13  26  13  27  13  28  13  29  14  30  14  31  14  32  14
M  ISO  2  33  14  34  14
M  END
>  <minimizedAffinity>  (1) 
-4.88846302

>  <minimizedRMSD>  (1) 
1.19134986

$$$$
