
     RDKit          3D

 43 46  0  0  1  0  0  0  0  0999 V2000
   36.4400   21.6650   32.3170 C   0  0  1  0  0  0  0  0  0  0  0  0
   35.5720   21.7250   31.1400 C   0  0  0  0  0  0  0  0  0  0  0  0
   35.5560   20.5420   31.9070 C   0  0  1  0  0  0  0  0  0  0  0  0
   35.7780   19.2600   31.5550 N   0  0  0  0  0  0  0  0  0  0  0  0
   35.3440   18.2540   32.4640 C   0  0  0  0  0  0  0  0  0  0  0  0
   35.8430   17.0660   32.0120 C   0  0  0  0  0  0  0  0  0  0  0  0
   36.5340   17.3910   30.8640 N   0  0  0  0  0  0  0  0  0  0  0  0
   36.4770   18.6610   30.6070 C   0  0  0  0  0  0  0  0  0  0  0  0
   37.1420   18.7940   29.2860 C   0  0  0  0  0  0  0  0  0  0  0  0
   36.4750   18.5220   28.0230 C   0  0  0  0  0  0  0  0  0  0  0  0
   38.2410   19.8360   29.3070 C   0  0  0  0  0  0  0  0  0  0  0  0
   38.1790   17.5710   29.1080 C   0  0  0  0  0  0  0  0  0  0  0  0
   37.7410   21.2580   32.3110 O   0  0  0  0  0  0  0  0  0  0  0  0
   39.1570   22.4840   35.2320 N   0  0  0  0  0  0  0  0  0  0  0  0
   40.2630   22.1440   34.5730 C   0  0  0  0  0  0  0  0  0  0  0  0
   39.9400   21.6410   33.3950 N   0  0  0  0  0  0  0  0  0  0  0  0
   38.5670   21.6630   33.3060 C   0  0  0  0  0  0  0  0  0  0  0  0
   38.0990   22.1920   34.4570 N   0  0  0  0  0  0  0  0  0  0  0  0
   37.8420   23.9800   36.5920 C   0  0  0  0  0  0  0  0  0  0  0  0
   38.8950   23.0780   36.5240 C   0  0  0  0  0  0  0  0  0  0  0  0
   39.6610   22.7570   37.6480 C   0  0  0  0  0  0  0  0  0  0  0  0
   39.3230   23.3790   38.8230 N   0  0  0  0  0  0  0  0  0  0  0  0
   38.2840   24.2600   38.8650 C   0  0  0  0  0  0  0  0  0  0  0  0
   37.5670   24.5460   37.7640 N   0  0  0  0  0  0  0  0  0  0  0  0
   36.6108   22.4068   33.1111 H   0  0  0  0  0  0  0  0  0  0  0  0
   36.0181   21.7149   30.1346 H   0  0  0  0  0  0  0  0  0  0  0  0
   34.7951   22.4248   30.7984 H   0  0  0  0  0  0  0  0  0  0  0  0
   34.8090   19.9185   32.4202 H   0  0  0  0  0  0  0  0  0  0  0  0
   34.7244   18.4050   33.3602 H   0  0  0  0  0  0  0  0  0  0  0  0
   35.7208   16.0705   32.4636 H   0  0  0  0  0  0  0  0  0  0  0  0
   35.4726   18.1132   28.2183 H   0  0  0  0  0  0  0  0  0  0  0  0
   36.3847   19.4551   27.4476 H   0  0  0  0  0  0  0  0  0  0  0  0
   37.0630   17.7918   27.4476 H   0  0  0  0  0  0  0  0  0  0  0  0
   38.4966   20.0784   30.3491 H   0  0  0  0  0  0  0  0  0  0  0  0
   39.1302   19.4414   28.7936 H   0  0  0  0  0  0  0  0  0  0  0  0
   37.8943   20.7450   28.7936 H   0  0  0  0  0  0  0  0  0  0  0  0
   38.4887   17.2058   30.0983 H   0  0  0  0  0  0  0  0  0  0  0  0
   37.6926   16.7558   28.5522 H   0  0  0  0  0  0  0  0  0  0  0  0
   39.0627   17.9175   28.5522 H   0  0  0  0  0  0  0  0  0  0  0  0
   41.2888   22.2637   34.9517 H   0  0  0  0  0  0  0  0  0  0  0  0
   37.2488   24.2211   35.6976 H   0  0  0  0  0  0  0  0  0  0  0  0
   40.4940   22.0407   37.5932 H   0  0  0  0  0  0  0  0  0  0  0  0
   38.0271   24.7463   39.8176 H   0  0  0  0  0  0  0  0  0  0  0  0
  2  3  1  0
  2  1  1  0
  3  1  1  0
  4  3  1  0
  4  5  1  0
  6  5  2  0
  7  6  1  0
  8  7  2  0
  8  4  1  0
  9 11  1  0
  9  8  1  0
 10  9  1  0
 12  9  1  0
 13  1  1  0
 13 17  1  0
 14 20  1  0
 15 14  1  0
 16 15  2  0
 17 16  1  0
 17 18  2  0
 18 14  1  0
 19 24  2  0
 20 19  1  0
 20 21  2  0
 21 22  1  0
 22 23  2  0
 24 23  1  0
  1 25  1  1
  2 26  1  0
  2 27  1  0
  3 28  1  1
  5 29  1  0
  6 30  1  0
 10 31  1  0
 10 32  1  0
 10 33  1  0
 11 34  1  0
 11 35  1  0
 11 36  1  0
 12 37  1  0
 12 38  1  0
 12 39  1  0
 15 40  1  0
 19 41  1  0
 21 42  1  0
 23 43  1  0
M  ISO  8  25  13  26  13  27  13  28  13  29  14  30  14  31   8  32   8
M  ISO  8  33   8  34   8  35   8  36   8  37   8  38   8  39   8  40  14
M  ISO  3  41  14  42  14  43  14
M  END
>  <minimizedAffinity>  (1) 
-4.72355938

>  <minimizedRMSD>  (1) 
1.53640282

$$$$
