
     RDKit          3D

 36 39  0  0  0  0  0  0  0  0999 V2000
   43.3160   22.4730   33.8890 C   0  0  0  0  0  0  0  0  0  0  0  0
   43.4530   23.1300   32.6590 C   0  0  0  0  0  0  0  0  0  0  0  0
   45.0960   24.0250   32.8930 S   0  0  0  0  0  0  0  0  0  0  0  0
   45.2580   23.3300   34.6010 C   0  0  0  0  0  0  0  0  0  0  0  0
   44.3350   22.7450   34.6430 N   0  0  0  0  0  0  0  0  0  0  0  0
   46.2710   23.4350   35.7130 C   0  0  0  0  0  0  0  0  0  0  0  0
   47.4670   22.7180   35.6400 C   0  0  0  0  0  0  0  0  0  0  0  0
   48.3420   22.8530   36.6770 C   0  0  0  0  0  0  0  0  0  0  0  0
   48.1300   23.6390   37.7790 C   0  0  0  0  0  0  0  0  0  0  0  0
   46.9490   24.3350   37.8320 C   0  0  0  0  0  0  0  0  0  0  0  0
   46.7500   25.1200   38.9420 C   0  0  0  0  0  0  0  0  0  0  0  0
   45.5980   25.8610   39.0970 C   0  0  0  0  0  0  0  0  0  0  0  0
   44.6640   25.7610   38.0650 C   0  0  0  0  0  0  0  0  0  0  0  0
   44.9190   24.9590   36.9750 C   0  0  0  0  0  0  0  0  0  0  0  0
   46.0420   24.2230   36.8020 C   0  0  0  0  0  0  0  0  0  0  0  0
   41.8440   21.4630   34.1110 S   0  0  0  0  0  0  0  0  0  0  0  0
   40.4990   22.4720   37.7170 C   0  0  0  0  0  0  0  0  0  0  0  0
   39.2790   23.0940   37.4600 C   0  0  0  0  0  0  0  0  0  0  0  0
   38.8800   23.1920   36.1330 C   0  0  0  0  0  0  0  0  0  0  0  0
   39.6760   22.6880   35.1490 N   0  0  0  0  0  0  0  0  0  0  0  0
   40.8720   22.0840   35.4590 C   0  0  0  0  0  0  0  0  0  0  0  0
   41.2490   21.9920   36.7250 N   0  0  0  0  0  0  0  0  0  0  0  0
   38.4060   23.6460   38.5330 C   0  0  0  0  0  0  0  0  0  0  0  0
   39.2030   23.8750   39.6390 F   0  0  0  0  0  0  0  0  0  0  0  0
   37.3780   22.8440   38.8580 F   0  0  0  0  0  0  0  0  0  0  0  0
   37.9730   24.9590   38.1850 F   0  0  0  0  0  0  0  0  0  0  0  0
   42.7808   23.1250   31.7883 H   0  0  0  0  0  0  0  0  0  0  0  0
   47.6942   22.0703   34.7804 H   0  0  0  0  0  0  0  0  0  0  0  0
   49.2859   22.2905   36.6251 H   0  0  0  0  0  0  0  0  0  0  0  0
   48.8742   23.7089   38.5860 H   0  0  0  0  0  0  0  0  0  0  0  0
   47.5248   25.1579   39.7219 H   0  0  0  0  0  0  0  0  0  0  0  0
   45.4254   26.4929   39.9807 H   0  0  0  0  0  0  0  0  0  0  0  0
   43.7211   26.3246   38.1224 H   0  0  0  0  0  0  0  0  0  0  0  0
   44.1535   24.9130   36.1864 H   0  0  0  0  0  0  0  0  0  0  0  0
   40.8490   22.3755   38.7554 H   0  0  0  0  0  0  0  0  0  0  0  0
   37.9251   23.6747   35.8777 H   0  0  0  0  0  0  0  0  0  0  0  0
  1 16  1  0
  1  5  1  0
  2  3  1  0
  2  1  2  0
  3  4  1  0
  4  5  2  0
  4  6  1  0
  6 15  1  0
  7  6  2  0
  7  8  1  0
  8  9  2  0
  9 10  1  0
 10 11  2  0
 11 12  1  0
 13 12  2  0
 14 13  1  0
 15 14  2  0
 15 10  1  0
 16 21  1  0
 18 17  2  0
 18 23  1  0
 19 18  1  0
 20 21  1  0
 20 19  2  0
 21 22  2  0
 22 17  1  0
 23 25  1  0
 23 24  1  0
 26 23  1  0
  2 27  1  0
  7 28  1  0
  8 29  1  0
  9 30  1  0
 11 31  1  0
 12 32  1  0
 13 33  1  0
 14 34  1  0
 17 35  1  0
 19 36  1  0
M  ISO  8  27  14  28  14  29  14  30  14  31  14  32  14  33  14  34  14
M  ISO  2  35  14  36  14
M  END
>  <minimizedAffinity>  (1) 
-6.32502651

>  <minimizedRMSD>  (1) 
4.56496716

$$$$
