
     RDKit          3D

 20 21  0  0  0  0  0  0  0  0999 V2000
   39.9570   22.6140   37.2530 C   0  0  0  0  0  0  0  0  0  0  0  0
   39.3110   23.2710   38.3110 C   0  0  0  0  0  0  0  0  0  0  0  0
   37.9330   23.4560   38.2200 C   0  0  0  0  0  0  0  0  0  0  0  0
   37.2780   22.9990   37.1240 N   0  0  0  0  0  0  0  0  0  0  0  0
   37.9370   22.3670   36.1180 C   0  0  0  0  0  0  0  0  0  0  0  0
   39.2680   22.1790   36.1910 N   0  0  0  0  0  0  0  0  0  0  0  0
   37.2280   21.8680   34.9240 C   0  0  0  0  0  0  0  0  0  0  0  0
   36.1940   20.9770   35.1280 C   0  0  0  0  0  0  0  0  0  0  0  0
   35.4920   20.4750   34.0500 C   0  0  0  0  0  0  0  0  0  0  0  0
   35.8300   20.8700   32.7700 C   0  0  0  0  0  0  0  0  0  0  0  0
   36.8660   21.7590   32.5930 C   0  0  0  0  0  0  0  0  0  0  0  0
   37.6010   22.2900   33.6490 C   0  0  0  0  0  0  0  0  0  0  0  0
   41.0444   22.4542   37.2968 H   0  0  0  0  0  0  0  0  0  0  0  0
   39.8748   23.6289   39.1851 H   0  0  0  0  0  0  0  0  0  0  0  0
   37.3842   23.9655   39.0257 H   0  0  0  0  0  0  0  0  0  0  0  0
   35.9290   20.6667   36.1495 H   0  0  0  0  0  0  0  0  0  0  0  0
   34.6678   19.7642   34.2096 H   0  0  0  0  0  0  0  0  0  0  0  0
   35.2779   20.4788   31.9027 H   0  0  0  0  0  0  0  0  0  0  0  0
   37.1253   22.0642   31.5685 H   0  0  0  0  0  0  0  0  0  0  0  0
   38.4259   22.9994   33.4872 H   0  0  0  0  0  0  0  0  0  0  0  0
  1  2  2  0
  3  2  1  0
  4  3  2  0
  5  6  2  0
  5  4  1  0
  6  1  1  0
  7  8  2  0
  7  5  1  0
  9  8  1  0
 10  9  2  0
 11 10  1  0
 11 12  2  0
 12  7  1  0
  1 13  1  0
  2 14  1  0
  3 15  1  0
  8 16  1  0
  9 17  1  0
 10 18  1  0
 11 19  1  0
 12 20  1  0
M  ISO  8  13  14  14  14  15  14  16  14  17  14  18  14  19  14  20  14
M  END
>  <minimizedAffinity>  (1) 
-4.00244427

>  <minimizedRMSD>  (1) 
1.39228058

$$$$
