
     RDKit          3D

 34 37  0  0  0  0  0  0  0  0999 V2000
   43.2020   22.2200   33.8850 C   0  0  0  0  0  0  0  0  0  0  0  0
   43.8350   22.4350   32.6380 C   0  0  0  0  0  0  0  0  0  0  0  0
   45.5350   23.0420   33.1750 S   0  0  0  0  0  0  0  0  0  0  0  0
   45.0350   22.8790   34.9680 C   0  0  0  0  0  0  0  0  0  0  0  0
   43.9980   22.5110   34.8660 N   0  0  0  0  0  0  0  0  0  0  0  0
   46.0340   23.2410   35.9780 C   0  0  0  0  0  0  0  0  0  0  0  0
   47.3210   22.7720   36.1330 C   0  0  0  0  0  0  0  0  0  0  0  0
   47.7950   23.4260   37.2020 N   0  0  0  0  0  0  0  0  0  0  0  0
   46.8900   24.2620   37.7140 C   0  0  0  0  0  0  0  0  0  0  0  0
   46.9650   25.1170   38.8060 C   0  0  0  0  0  0  0  0  0  0  0  0
   45.8310   25.8550   39.0680 C   0  0  0  0  0  0  0  0  0  0  0  0
   44.6610   25.8050   38.3430 C   0  0  0  0  0  0  0  0  0  0  0  0
   44.6380   24.9280   37.2540 C   0  0  0  0  0  0  0  0  0  0  0  0
   45.7360   24.1570   36.9320 C   0  0  0  0  0  0  0  0  0  0  0  0
   41.5080   21.6200   33.8520 S   0  0  0  0  0  0  0  0  0  0  0  0
   40.3200   22.3780   37.5890 C   0  0  0  0  0  0  0  0  0  0  0  0
   39.1720   23.1550   37.4160 C   0  0  0  0  0  0  0  0  0  0  0  0
   38.7890   23.4290   36.1220 C   0  0  0  0  0  0  0  0  0  0  0  0
   39.5200   22.9470   35.0760 N   0  0  0  0  0  0  0  0  0  0  0  0
   40.6330   22.1940   35.2960 C   0  0  0  0  0  0  0  0  0  0  0  0
   41.0050   21.9280   36.5400 N   0  0  0  0  0  0  0  0  0  0  0  0
   38.3720   23.6820   38.5520 C   0  0  0  0  0  0  0  0  0  0  0  0
   39.2430   23.8330   39.6360 F   0  0  0  0  0  0  0  0  0  0  0  0
   37.3470   22.8840   38.9150 F   0  0  0  0  0  0  0  0  0  0  0  0
   37.9700   25.0220   38.2810 F   0  0  0  0  0  0  0  0  0  0  0  0
   43.4387   22.2867   31.6226 H   0  0  0  0  0  0  0  0  0  0  0  0
   47.8431   22.0261   35.5158 H   0  0  0  0  0  0  0  0  0  0  0  0
   48.7436   23.2987   37.5826 H   0  0  0  0  0  0  0  0  0  0  0  0
   47.8721   25.1998   39.4227 H   0  0  0  0  0  0  0  0  0  0  0  0
   45.8629   26.5409   39.9274 H   0  0  0  0  0  0  0  0  0  0  0  0
   43.7900   26.4228   38.6069 H   0  0  0  0  0  0  0  0  0  0  0  0
   43.7270   24.8513   36.6423 H   0  0  0  0  0  0  0  0  0  0  0  0
   40.6625   22.1348   38.6056 H   0  0  0  0  0  0  0  0  0  0  0  0
   37.8925   24.0373   35.9316 H   0  0  0  0  0  0  0  0  0  0  0  0
  1  5  1  0
  2  3  1  0
  2  1  2  0
  3  4  1  0
  4  6  1  0
  5  4  2  0
  6  7  2  0
  6 14  1  0
  7  8  1  0
  8  9  1  0
  9 10  2  0
 10 11  1  0
 12 11  2  0
 13 12  1  0
 14 13  2  0
 14  9  1  0
 15  1  1  0
 15 20  1  0
 17 16  2  0
 17 22  1  0
 18 17  1  0
 19 20  1  0
 19 18  2  0
 20 21  2  0
 21 16  1  0
 22 24  1  0
 22 23  1  0
 25 22  1  0
  2 26  1  0
  7 27  1  0
  8 28  1  0
 10 29  1  0
 11 30  1  0
 12 31  1  0
 13 32  1  0
 16 33  1  0
 18 34  1  0
M  ISO  8  26  14  27  14  28   9  29  14  30  14  31  14  32  14  33  14
M  ISO  1  34  14
M  END
>  <minimizedAffinity>  (1) 
-6.12609482

>  <minimizedRMSD>  (1) 
4.43914843

$$$$
