
     RDKit          3D

 33 36  0  0  0  0  0  0  0  0999 V2000
   37.2990   21.9690   35.0560 C   0  0  0  0  0  0  0  0  0  0  0  0
   36.3030   21.0280   35.2510 C   0  0  0  0  0  0  0  0  0  0  0  0
   35.5800   20.5590   34.1760 C   0  0  0  0  0  0  0  0  0  0  0  0
   35.8450   21.0240   32.9120 C   0  0  0  0  0  0  0  0  0  0  0  0
   36.8450   21.9670   32.7320 C   0  0  0  0  0  0  0  0  0  0  0  0
   37.5990   22.4660   33.7890 C   0  0  0  0  0  0  0  0  0  0  0  0
   40.0280   22.4760   37.4380 C   0  0  0  0  0  0  0  0  0  0  0  0
   39.4520   23.2840   38.4240 C   0  0  0  0  0  0  0  0  0  0  0  0
   38.1130   23.6580   38.2700 C   0  0  0  0  0  0  0  0  0  0  0  0
   37.4340   23.2240   37.1760 N   0  0  0  0  0  0  0  0  0  0  0  0
   38.0390   22.4350   36.2360 C   0  0  0  0  0  0  0  0  0  0  0  0
   39.3180   22.0750   36.3810 N   0  0  0  0  0  0  0  0  0  0  0  0
   38.6240   23.4330   33.6010 N   0  0  0  0  0  0  0  0  0  0  0  0
   39.8860   23.2760   33.1100 C   0  0  0  0  0  0  0  0  0  0  0  0
   40.5140   24.4720   33.1100 N   0  0  0  0  0  0  0  0  0  0  0  0
   39.6850   25.4050   33.5890 C   0  0  0  0  0  0  0  0  0  0  0  0
   39.7610   26.7630   33.8210 C   0  0  0  0  0  0  0  0  0  0  0  0
   38.7230   27.4820   34.3350 N   0  0  0  0  0  0  0  0  0  0  0  0
   37.5800   26.8000   34.6220 C   0  0  0  0  0  0  0  0  0  0  0  0
   37.4650   25.4690   34.4100 N   0  0  0  0  0  0  0  0  0  0  0  0
   38.5000   24.7530   33.8960 C   0  0  0  0  0  0  0  0  0  0  0  0
   40.9740   27.4030   33.5000 N   0  0  0  0  0  0  0  0  0  0  0  0
   36.0888   20.6549   36.2634 H   0  0  0  0  0  0  0  0  0  0  0  0
   34.7889   19.8105   34.3310 H   0  0  0  0  0  0  0  0  0  0  0  0
   35.2700   20.6523   32.0511 H   0  0  0  0  0  0  0  0  0  0  0  0
   37.0498   22.3343   31.7156 H   0  0  0  0  0  0  0  0  0  0  0  0
   41.0793   22.1671   37.5348 H   0  0  0  0  0  0  0  0  0  0  0  0
   40.0354   23.6158   39.2955 H   0  0  0  0  0  0  0  0  0  0  0  0
   37.6187   24.2919   39.0209 H   0  0  0  0  0  0  0  0  0  0  0  0
   40.3234   22.3264   32.7681 H   0  0  0  0  0  0  0  0  0  0  0  0
   36.7230   27.3488   35.0395 H   0  0  0  0  0  0  0  0  0  0  0  0
   41.0788   28.4158   33.6554 H   0  0  0  0  0  0  0  0  0  0  0  0
   41.7562   26.8582   33.1098 H   0  0  0  0  0  0  0  0  0  0  0  0
  1  2  2  0
  1 11  1  0
  3  2  1  0
  4  3  2  0
  5  4  1  0
  5  6  2  0
  6  1  1  0
  7  8  2  0
  9  8  1  0
 10  9  2  0
 11 12  2  0
 11 10  1  0
 12  7  1  0
 13  6  1  0
 13 21  1  0
 14 15  2  0
 14 13  1  0
 15 16  1  0
 16 17  1  0
 16 21  2  0
 17 18  2  0
 18 19  1  0
 20 19  2  0
 21 20  1  0
 22 17  1  0
  2 23  1  0
  3 24  1  0
  4 25  1  0
  5 26  1  0
  7 27  1  0
  8 28  1  0
  9 29  1  0
 14 30  1  0
 19 31  1  0
 22 32  1  0
 22 33  1  0
M  ISO  8  23  14  24  14  25  14  26  14  27  14  28  14  29  14  30  14
M  ISO  1  31  14
M  END
>  <minimizedAffinity>  (1) 
-5.30573034

>  <minimizedRMSD>  (1) 
0.282380164

$$$$
