
     RDKit          3D

 34 37  0  0  0  0  0  0  0  0999 V2000
   37.3680   21.9940   34.9490 C   0  0  0  0  0  0  0  0  0  0  0  0
   36.3930   21.0410   35.1130 C   0  0  0  0  0  0  0  0  0  0  0  0
   35.6220   20.6260   34.0590 C   0  0  0  0  0  0  0  0  0  0  0  0
   35.8380   21.1850   32.8040 C   0  0  0  0  0  0  0  0  0  0  0  0
   36.8140   22.1330   32.6590 C   0  0  0  0  0  0  0  0  0  0  0  0
   37.6080   22.5690   33.7160 C   0  0  0  0  0  0  0  0  0  0  0  0
   38.6460   23.5810   33.5500 C   0  0  0  0  0  0  0  0  0  0  0  0
   39.9100   23.5450   33.0050 C   0  0  0  0  0  0  0  0  0  0  0  0
   40.4660   24.7860   33.1050 N   0  0  0  0  0  0  0  0  0  0  0  0
   39.5800   25.6080   33.7000 C   0  0  0  0  0  0  0  0  0  0  0  0
   39.7140   26.9600   34.0080 C   0  0  0  0  0  0  0  0  0  0  0  0
   38.6530   27.5910   34.6250 C   0  0  0  0  0  0  0  0  0  0  0  0
   37.4800   26.9020   34.9360 C   0  0  0  0  0  0  0  0  0  0  0  0
   37.4060   25.5650   34.6080 C   0  0  0  0  0  0  0  0  0  0  0  0
   38.4400   24.8910   33.9890 C   0  0  0  0  0  0  0  0  0  0  0  0
   40.1700   22.3350   37.2680 C   0  0  0  0  0  0  0  0  0  0  0  0
   39.6440   23.0740   38.3270 C   0  0  0  0  0  0  0  0  0  0  0  0
   38.3170   23.4570   38.2430 C   0  0  0  0  0  0  0  0  0  0  0  0
   37.6000   23.1020   37.1500 N   0  0  0  0  0  0  0  0  0  0  0  0
   38.1470   22.3790   36.1350 C   0  0  0  0  0  0  0  0  0  0  0  0
   39.4440   21.9910   36.1890 N   0  0  0  0  0  0  0  0  0  0  0  0
   36.2280   20.6029   36.1084 H   0  0  0  0  0  0  0  0  0  0  0  0
   34.8438   19.8621   34.2034 H   0  0  0  0  0  0  0  0  0  0  0  0
   35.2333   20.8698   31.9409 H   0  0  0  0  0  0  0  0  0  0  0  0
   36.9785   22.5700   31.6630 H   0  0  0  0  0  0  0  0  0  0  0  0
   40.3918   22.6609   32.5620 H   0  0  0  0  0  0  0  0  0  0  0  0
   41.4067   25.0508   32.7798 H   0  0  0  0  0  0  0  0  0  0  0  0
   40.6370   27.5077   33.7669 H   0  0  0  0  0  0  0  0  0  0  0  0
   38.7336   28.6588   34.8768 H   0  0  0  0  0  0  0  0  0  0  0  0
   36.6385   27.4111   35.4287 H   0  0  0  0  0  0  0  0  0  0  0  0
   36.4858   25.0127   34.8492 H   0  0  0  0  0  0  0  0  0  0  0  0
   41.2228   22.0201   37.3169 H   0  0  0  0  0  0  0  0  0  0  0  0
   40.2611   23.3426   39.1970 H   0  0  0  0  0  0  0  0  0  0  0  0
   37.8517   24.0405   39.0511 H   0  0  0  0  0  0  0  0  0  0  0  0
  1  2  2  0
  1 20  1  0
  3  2  1  0
  4  3  2  0
  5  4  1  0
  5  6  2  0
  6  1  1  0
  7  6  1  0
  7 15  1  0
  8  9  1  0
  8  7  2  0
  9 10  1  0
 10 15  2  0
 10 11  1  0
 11 12  2  0
 12 13  1  0
 14 13  2  0
 15 14  1  0
 16 17  2  0
 18 17  1  0
 19 18  2  0
 20 21  2  0
 20 19  1  0
 21 16  1  0
  2 22  1  0
  3 23  1  0
  4 24  1  0
  5 25  1  0
  8 26  1  0
  9 27  1  0
 11 28  1  0
 12 29  1  0
 13 30  1  0
 14 31  1  0
 16 32  1  0
 17 33  1  0
 18 34  1  0
M  ISO  8  22  14  23  14  24  14  25  14  26  14  27   9  28  14  29  14
M  ISO  5  30  14  31  14  32  14  33  14  34  14
M  END
>  <minimizedAffinity>  (1) 
-5.26774883

>  <minimizedRMSD>  (1) 
0.387206078

$$$$
