
     RDKit          3D

 33 35  0  0  0  0  0  0  0  0999 V2000
   37.2380   22.0660   34.6470 C   0  0  0  0  0  0  0  0  0  0  0  0
   36.4140   20.9540   34.7260 C   0  0  0  0  0  0  0  0  0  0  0  0
   35.6730   20.5720   33.6140 C   0  0  0  0  0  0  0  0  0  0  0  0
   35.7670   21.3010   32.4480 C   0  0  0  0  0  0  0  0  0  0  0  0
   36.5950   22.4000   32.4040 C   0  0  0  0  0  0  0  0  0  0  0  0
   37.3520   22.8160   33.4890 C   0  0  0  0  0  0  0  0  0  0  0  0
   38.2060   23.9540   33.4390 N   0  0  0  0  0  0  0  0  0  0  0  0
   37.6970   25.1250   33.9210 C   0  0  0  0  0  0  0  0  0  0  0  0
   38.3970   26.2990   33.9390 C   0  0  0  0  0  0  0  0  0  0  0  0
   37.7540   27.5400   34.4910 C   0  0  0  0  0  0  0  0  0  0  0  0
   39.6860   26.3340   33.4500 C   0  0  0  0  0  0  0  0  0  0  0  0
   40.3670   27.3910   33.4470 O   0  0  0  0  0  0  0  0  0  0  0  0
   40.1600   25.1590   32.9790 N   0  0  0  0  0  0  0  0  0  0  0  0
   39.4650   24.0050   32.9650 C   0  0  0  0  0  0  0  0  0  0  0  0
   39.9190   22.9280   32.5260 O   0  0  0  0  0  0  0  0  0  0  0  0
   40.0170   22.3360   37.0210 C   0  0  0  0  0  0  0  0  0  0  0  0
   39.4510   23.0310   38.1060 C   0  0  0  0  0  0  0  0  0  0  0  0
   38.1050   23.4030   38.0090 C   0  0  0  0  0  0  0  0  0  0  0  0
   37.4270   23.0800   36.8920 N   0  0  0  0  0  0  0  0  0  0  0  0
   37.9890   22.4110   35.8570 C   0  0  0  0  0  0  0  0  0  0  0  0
   39.2750   22.0550   35.9490 N   0  0  0  0  0  0  0  0  0  0  0  0
   36.3472   20.3787   35.6612 H   0  0  0  0  0  0  0  0  0  0  0  0
   35.0147   19.6922   33.6642 H   0  0  0  0  0  0  0  0  0  0  0  0
   35.1861   21.0075   31.5612 H   0  0  0  0  0  0  0  0  0  0  0  0
   36.6589   22.9732   31.4673 H   0  0  0  0  0  0  0  0  0  0  0  0
   36.6702   25.1240   34.3155 H   0  0  0  0  0  0  0  0  0  0  0  0
   37.7724   27.5046   35.5903 H   0  0  0  0  0  0  0  0  0  0  0  0
   38.3069   28.4251   34.1434 H   0  0  0  0  0  0  0  0  0  0  0  0
   36.7120   27.5987   34.1434 H   0  0  0  0  0  0  0  0  0  0  0  0
   41.1195   25.1450   32.6047 H   0  0  0  0  0  0  0  0  0  0  0  0
   41.0714   22.0245   37.0571 H   0  0  0  0  0  0  0  0  0  0  0  0
   40.0456   23.2734   38.9991 H   0  0  0  0  0  0  0  0  0  0  0  0
   37.6121   23.9475   38.8279 H   0  0  0  0  0  0  0  0  0  0  0  0
  1  2  2  0
  1 20  1  0
  3  2  1  0
  4  3  2  0
  5  4  1  0
  5  6  2  0
  6  1  1  0
  7  6  1  0
  7  8  1  0
  8  9  2  0
  9 10  1  0
 11  9  1  0
 12 11  2  0
 13 11  1  0
 14 13  1  0
 14  7  1  0
 15 14  2  0
 16 17  2  0
 18 17  1  0
 19 18  2  0
 20 21  2  0
 20 19  1  0
 21 16  1  0
  2 22  1  0
  3 23  1  0
  4 24  1  0
  5 25  1  0
  8 26  1  0
 10 27  1  0
 10 28  1  0
 10 29  1  0
 13 30  1  0
 16 31  1  0
 17 32  1  0
 18 33  1  0
M  ISO  8  22  14  23  14  24  14  25  14  26  14  27   8  28   8  29   8
M  ISO  4  30   9  31  14  32  14  33  14
M  END
>  <minimizedAffinity>  (1) 
-5.00215626

>  <minimizedRMSD>  (1) 
1.38551116

$$$$
