
     RDKit          3D

 30 32  0  0  0  0  0  0  0  0999 V2000
   37.7490   22.6690   34.7890 C   0  0  0  0  0  0  0  0  0  0  0  0
   37.0630   21.4840   34.5550 C   0  0  0  0  0  0  0  0  0  0  0  0
   36.6100   21.2400   33.2660 C   0  0  0  0  0  0  0  0  0  0  0  0
   36.8300   22.1380   32.2510 C   0  0  0  0  0  0  0  0  0  0  0  0
   37.5100   23.2890   32.5310 C   0  0  0  0  0  0  0  0  0  0  0  0
   37.9890   23.5960   33.7900 C   0  0  0  0  0  0  0  0  0  0  0  0
   39.9330   22.7000   37.7250 C   0  0  0  0  0  0  0  0  0  0  0  0
   39.1450   23.2880   38.7190 C   0  0  0  0  0  0  0  0  0  0  0  0
   37.8560   23.6760   38.3770 C   0  0  0  0  0  0  0  0  0  0  0  0
   37.4230   23.4710   37.1110 N   0  0  0  0  0  0  0  0  0  0  0  0
   38.2170   22.8950   36.1710 C   0  0  0  0  0  0  0  0  0  0  0  0
   39.4640   22.5160   36.4880 N   0  0  0  0  0  0  0  0  0  0  0  0
   38.7220   24.8060   34.1570 C   0  0  0  0  0  0  0  0  0  0  0  0
   38.2190   25.9470   34.7630 C   0  0  0  0  0  0  0  0  0  0  0  0
   39.0630   27.0030   35.0390 C   0  0  0  0  0  0  0  0  0  0  0  0
   40.4080   26.9830   34.7370 C   0  0  0  0  0  0  0  0  0  0  0  0
   40.8960   25.8450   34.1340 C   0  0  0  0  0  0  0  0  0  0  0  0
   40.0850   24.7860   33.8510 C   0  0  0  0  0  0  0  0  0  0  0  0
   36.8845   20.7620   35.3655 H   0  0  0  0  0  0  0  0  0  0  0  0
   36.0641   20.3090   33.0534 H   0  0  0  0  0  0  0  0  0  0  0  0
   36.4660   21.9347   31.2331 H   0  0  0  0  0  0  0  0  0  0  0  0
   37.6846   24.0058   31.7151 H   0  0  0  0  0  0  0  0  0  0  0  0
   40.9583   22.3830   37.9662 H   0  0  0  0  0  0  0  0  0  0  0  0
   39.5328   23.4382   39.7374 H   0  0  0  0  0  0  0  0  0  0  0  0
   37.1969   24.1429   39.1237 H   0  0  0  0  0  0  0  0  0  0  0  0
   37.1519   26.0101   35.0226 H   0  0  0  0  0  0  0  0  0  0  0  0
   38.6448   27.8992   35.5206 H   0  0  0  0  0  0  0  0  0  0  0  0
   41.0617   27.8372   34.9672 H   0  0  0  0  0  0  0  0  0  0  0  0
   41.9636   25.7892   33.8750 H   0  0  0  0  0  0  0  0  0  0  0  0
   40.5142   23.8946   33.3702 H   0  0  0  0  0  0  0  0  0  0  0  0
  1 11  1  0
  2  1  2  0
  3  2  1  0
  4  5  1  0
  4  3  2  0
  5  6  2  0
  6 13  1  0
  6  1  1  0
  7  8  2  0
  9  8  1  0
 10  9  2  0
 11 12  2  0
 11 10  1  0
 12  7  1  0
 13 14  2  0
 14 15  1  0
 16 15  2  0
 17 16  1  0
 18 17  2  0
 18 13  1  0
  2 19  1  0
  3 20  1  0
  4 21  1  0
  5 22  1  0
  7 23  1  0
  8 24  1  0
  9 25  1  0
 14 26  1  0
 15 27  1  0
 16 28  1  0
 17 29  1  0
 18 30  1  0
M  ISO  8  19  14  20  14  21  14  22  14  23  14  24  14  25  14  26  14
M  ISO  4  27  14  28  14  29  14  30  14
M  END
>  <minimizedAffinity>  (1) 
-4.90911436

>  <minimizedRMSD>  (1) 
1.67194867

$$$$
