
     RDKit          3D

 31 33  0  0  0  0  0  0  0  0999 V2000
   37.8040   22.5380   34.7430 C   0  0  0  0  0  0  0  0  0  0  0  0
   36.8800   21.5130   34.6410 C   0  0  0  0  0  0  0  0  0  0  0  0
   36.4140   21.1560   33.3850 C   0  0  0  0  0  0  0  0  0  0  0  0
   36.8660   21.8150   32.2560 C   0  0  0  0  0  0  0  0  0  0  0  0
   37.7790   22.8230   32.4050 C   0  0  0  0  0  0  0  0  0  0  0  0
   38.2900   23.2330   33.6370 C   0  0  0  0  0  0  0  0  0  0  0  0
   39.2400   24.2830   33.7850 N   0  0  0  0  0  0  0  0  0  0  0  0
   40.5640   24.0440   33.7170 C   0  0  0  0  0  0  0  0  0  0  0  0
   41.4820   25.0760   33.8610 C   0  0  0  0  0  0  0  0  0  0  0  0
   40.9610   26.3370   34.0740 C   0  0  0  0  0  0  0  0  0  0  0  0
   41.8750   27.3960   34.2230 N   0  0  0  0  0  0  0  0  0  0  0  0
   39.6460   26.5470   34.1370 N   0  0  0  0  0  0  0  0  0  0  0  0
   38.7600   25.5420   33.9960 C   0  0  0  0  0  0  0  0  0  0  0  0
   37.5030   25.7150   34.0510 O   0  0  0  0  0  0  0  0  0  0  0  0
   39.9150   22.6320   37.7360 C   0  0  0  0  0  0  0  0  0  0  0  0
   39.1890   23.4690   38.6120 C   0  0  0  0  0  0  0  0  0  0  0  0
   37.9780   23.9980   38.1690 C   0  0  0  0  0  0  0  0  0  0  0  0
   37.5530   23.6830   36.9200 N   0  0  0  0  0  0  0  0  0  0  0  0
   38.2660   22.8780   36.0980 C   0  0  0  0  0  0  0  0  0  0  0  0
   39.4260   22.3760   36.5270 N   0  0  0  0  0  0  0  0  0  0  0  0
   36.5216   20.9908   35.5404 H   0  0  0  0  0  0  0  0  0  0  0  0
   35.6797   20.3430   33.2856 H   0  0  0  0  0  0  0  0  0  0  0  0
   36.4986   21.5341   31.2579 H   0  0  0  0  0  0  0  0  0  0  0  0
   38.1309   23.3406   31.5004 H   0  0  0  0  0  0  0  0  0  0  0  0
   40.9225   23.0184   33.5452 H   0  0  0  0  0  0  0  0  0  0  0  0
   42.5663   24.8985   33.8082 H   0  0  0  0  0  0  0  0  0  0  0  0
   41.5318   28.3538   34.3836 H   0  0  0  0  0  0  0  0  0  0  0  0
   42.8874   27.2136   34.1715 H   0  0  0  0  0  0  0  0  0  0  0  0
   40.8748   22.1967   38.0511 H   0  0  0  0  0  0  0  0  0  0  0  0
   39.5697   23.6976   39.6184 H   0  0  0  0  0  0  0  0  0  0  0  0
   37.3806   24.6558   38.8174 H   0  0  0  0  0  0  0  0  0  0  0  0
  1 19  1  0
  2  1  2  0
  3  2  1  0
  4  5  1  0
  4  3  2  0
  5  6  2  0
  6  7  1  0
  6  1  1  0
  7 13  1  0
  8  7  1  0
  8  9  2  0
  9 10  1  0
 10 12  2  0
 10 11  1  0
 13 14  2  0
 13 12  1  0
 15 16  2  0
 17 16  1  0
 18 17  2  0
 19 20  2  0
 19 18  1  0
 20 15  1  0
  2 21  1  0
  3 22  1  0
  4 23  1  0
  5 24  1  0
  8 25  1  0
  9 26  1  0
 11 27  1  0
 11 28  1  0
 15 29  1  0
 16 30  1  0
 17 31  1  0
M  ISO  8  21  14  22  14  23  14  24  14  25  14  26  14  29  14  30  14
M  ISO  1  31  14
M  END
>  <minimizedAffinity>  (1) 
-4.86494827

>  <minimizedRMSD>  (1) 
1.43789685

$$$$
