
     RDKit          3D

 30 32  0  0  0  0  0  0  0  0999 V2000
   37.4610   22.2970   34.6520 C   0  0  0  0  0  0  0  0  0  0  0  0
   36.6580   21.1870   34.5990 C   0  0  0  0  0  0  0  0  0  0  0  0
   36.0010   20.8600   33.4370 C   0  0  0  0  0  0  0  0  0  0  0  0
   36.1520   21.6540   32.3280 C   0  0  0  0  0  0  0  0  0  0  0  0
   36.9660   22.7710   32.4000 C   0  0  0  0  0  0  0  0  0  0  0  0
   37.6520   23.1430   33.5510 C   0  0  0  0  0  0  0  0  0  0  0  0
   40.0410   22.4060   37.2580 C   0  0  0  0  0  0  0  0  0  0  0  0
   39.4410   23.1290   38.2860 C   0  0  0  0  0  0  0  0  0  0  0  0
   38.1490   23.5790   38.0830 C   0  0  0  0  0  0  0  0  0  0  0  0
   37.5110   23.3100   36.9110 N   0  0  0  0  0  0  0  0  0  0  0  0
   38.1390   22.5950   35.9260 C   0  0  0  0  0  0  0  0  0  0  0  0
   39.3870   22.1600   36.1190 N   0  0  0  0  0  0  0  0  0  0  0  0
   38.4860   24.2900   33.6220 N   0  0  0  0  0  0  0  0  0  0  0  0
   37.9080   25.4320   34.0470 C   0  0  0  0  0  0  0  0  0  0  0  0
   38.7290   26.5370   34.1120 C   0  0  0  0  0  0  0  0  0  0  0  0
   40.0480   26.4100   33.7480 C   0  0  0  0  0  0  0  0  0  0  0  0
   40.8480   27.3840   33.7850 O   0  0  0  0  0  0  0  0  0  0  0  0
   40.5710   25.2420   33.3300 N   0  0  0  0  0  0  0  0  0  0  0  0
   39.7780   24.1410   33.2600 C   0  0  0  0  0  0  0  0  0  0  0  0
   40.1920   23.0170   32.8800 O   0  0  0  0  0  0  0  0  0  0  0  0
   36.5390   20.5548   35.4913 H   0  0  0  0  0  0  0  0  0  0  0  0
   35.3586   19.9680   33.3962 H   0  0  0  0  0  0  0  0  0  0  0  0
   35.6314   21.4052   31.3914 H   0  0  0  0  0  0  0  0  0  0  0  0
   37.0759   23.3960   31.5015 H   0  0  0  0  0  0  0  0  0  0  0  0
   41.0677   22.0322   37.3854 H   0  0  0  0  0  0  0  0  0  0  0  0
   39.9752   23.3347   39.2253 H   0  0  0  0  0  0  0  0  0  0  0  0
   37.6371   24.1542   38.8685 H   0  0  0  0  0  0  0  0  0  0  0  0
   36.8448   25.4787   34.3251 H   0  0  0  0  0  0  0  0  0  0  0  0
   38.3343   27.5064   34.4503 H   0  0  0  0  0  0  0  0  0  0  0  0
   41.5647   25.1835   33.0653 H   0  0  0  0  0  0  0  0  0  0  0  0
  1 11  1  0
  2  1  2  0
  3  2  1  0
  4  5  1  0
  4  3  2  0
  5  6  2  0
  6 13  1  0
  6  1  1  0
  7  8  2  0
  9  8  1  0
 10  9  2  0
 11 12  2  0
 11 10  1  0
 12  7  1  0
 13 14  1  0
 14 15  2  0
 16 17  2  0
 16 15  1  0
 18 16  1  0
 19 18  1  0
 19 13  1  0
 20 19  2  0
  2 21  1  0
  3 22  1  0
  4 23  1  0
  5 24  1  0
  7 25  1  0
  8 26  1  0
  9 27  1  0
 14 28  1  0
 15 29  1  0
 18 30  1  0
M  ISO  8  21  14  22  14  23  14  24  14  25  14  26  14  27  14  28  14
M  ISO  2  29  14  30   9
M  END
>  <minimizedAffinity>  (1) 
-4.706604

>  <minimizedRMSD>  (1) 
1.6427356

$$$$
