
     RDKit          3D

 23 24  0  0  0  0  0  0  0  0999 V2000
   40.0890   22.6490   38.0160 C   0  0  0  0  0  0  0  0  0  0  0  0
   39.1670   23.4760   37.3680 C   0  0  0  0  0  0  0  0  0  0  0  0
   39.5390   23.9790   36.1310 C   0  0  0  0  0  0  0  0  0  0  0  0
   40.7530   23.6620   35.5990 N   0  0  0  0  0  0  0  0  0  0  0  0
   41.6160   22.8460   36.2810 C   0  0  0  0  0  0  0  0  0  0  0  0
   41.2660   22.3640   37.4620 N   0  0  0  0  0  0  0  0  0  0  0  0
   37.8450   23.8260   37.9370 C   0  0  0  0  0  0  0  0  0  0  0  0
   38.0390   24.9400   38.7620 F   0  0  0  0  0  0  0  0  0  0  0  0
   37.2770   22.8400   38.6520 F   0  0  0  0  0  0  0  0  0  0  0  0
   36.9970   24.3320   36.9260 F   0  0  0  0  0  0  0  0  0  0  0  0
   43.1770   22.4990   35.4890 S   0  0  0  0  0  0  0  0  0  0  0  0
   44.4040   23.7010   36.0160 C   0  0  0  0  0  0  0  0  0  0  0  0
   45.4070   24.0510   35.0990 C   0  0  0  0  0  0  0  0  0  0  0  0
   46.4270   25.3000   36.0720 S   0  0  0  0  0  0  0  0  0  0  0  0
   45.2740   25.0870   37.5350 C   0  0  0  0  0  0  0  0  0  0  0  0
   44.5650   24.3450   37.1260 N   0  0  0  0  0  0  0  0  0  0  0  0
   45.4440   25.8270   38.8330 C   0  0  0  0  0  0  0  0  0  0  0  0
   44.2510   26.4110   39.1900 F   0  0  0  0  0  0  0  0  0  0  0  0
   45.8830   24.9040   39.7410 F   0  0  0  0  0  0  0  0  0  0  0  0
   46.4280   26.7890   38.7170 F   0  0  0  0  0  0  0  0  0  0  0  0
   39.8381   22.2265   39.0001 H   0  0  0  0  0  0  0  0  0  0  0  0
   38.8523   24.6360   35.5771 H   0  0  0  0  0  0  0  0  0  0  0  0
   45.5590   23.6878   34.0719 H   0  0  0  0  0  0  0  0  0  0  0  0
  2  7  1  0
  2  1  2  0
  3  2  1  0
  4  3  2  0
  4  5  1  0
  5  6  2  0
  6  1  1  0
  7  9  1  0
  7  8  1  0
 10  7  1  0
 11 12  1  0
 11  5  1  0
 12 16  1  0
 13 12  2  0
 13 14  1  0
 14 15  1  0
 15 17  1  0
 16 15  2  0
 17 18  1  0
 17 19  1  0
 20 17  1  0
  1 21  1  0
  3 22  1  0
 13 23  1  0
M  ISO  3  21  14  22  14  23  14
M  END
>  <minimizedAffinity>  (1) 
-5.42590857

>  <minimizedRMSD>  (1) 
4.16621399

$$$$
