
     RDKit          3D

 33 35  0  0  0  0  0  0  0  0999 V2000
   37.2220   22.0010   34.6410 C   0  0  0  0  0  0  0  0  0  0  0  0
   36.3340   20.9440   34.7970 C   0  0  0  0  0  0  0  0  0  0  0  0
   35.5670   20.5750   33.7020 C   0  0  0  0  0  0  0  0  0  0  0  0
   35.6810   21.2300   32.5020 C   0  0  0  0  0  0  0  0  0  0  0  0
   36.5690   22.2640   32.3980 C   0  0  0  0  0  0  0  0  0  0  0  0
   37.3870   22.7130   33.4450 C   0  0  0  0  0  0  0  0  0  0  0  0
   38.1030   23.4410   37.8990 C   0  0  0  0  0  0  0  0  0  0  0  0
   39.4470   23.1060   38.0500 C   0  0  0  0  0  0  0  0  0  0  0  0
   40.0660   22.3770   37.0230 C   0  0  0  0  0  0  0  0  0  0  0  0
   39.3250   22.0350   35.9370 N   0  0  0  0  0  0  0  0  0  0  0  0
   38.0210   22.3740   35.8210 C   0  0  0  0  0  0  0  0  0  0  0  0
   37.4480   23.0680   36.8050 N   0  0  0  0  0  0  0  0  0  0  0  0
   38.3240   23.8230   33.2860 C   0  0  0  0  0  0  0  0  0  0  0  0
   38.9320   23.9740   31.9320 C   0  0  0  0  0  0  0  0  0  0  0  0
   38.8220   25.4550   31.5650 C   0  0  0  0  0  0  0  0  0  0  0  0
   37.5340   25.8490   32.2500 C   0  0  0  0  0  0  0  0  0  0  0  0
   37.6290   25.1470   33.5670 C   0  0  0  0  0  0  0  0  0  0  0  0
   36.2422   20.4168   35.7580 H   0  0  0  0  0  0  0  0  0  0  0  0
   34.8546   19.7423   33.7974 H   0  0  0  0  0  0  0  0  0  0  0  0
   35.0689   20.9286   31.6392 H   0  0  0  0  0  0  0  0  0  0  0  0
   36.6472   22.7781   31.4287 H   0  0  0  0  0  0  0  0  0  0  0  0
   37.5857   24.0128   38.6835 H   0  0  0  0  0  0  0  0  0  0  0  0
   40.0069   23.4044   38.9486 H   0  0  0  0  0  0  0  0  0  0  0  0
   41.1253   22.0895   37.0956 H   0  0  0  0  0  0  0  0  0  0  0  0
   39.1252   23.5772   33.9985 H   0  0  0  0  0  0  0  0  0  0  0  0
   39.9878   23.6660   31.9537 H   0  0  0  0  0  0  0  0  0  0  0  0
   38.4158   23.3433   31.1933 H   0  0  0  0  0  0  0  0  0  0  0  0
   39.6752   26.0288   31.9559 H   0  0  0  0  0  0  0  0  0  0  0  0
   38.8270   25.6468   30.4819 H   0  0  0  0  0  0  0  0  0  0  0  0
   37.4751   26.9390   32.3857 H   0  0  0  0  0  0  0  0  0  0  0  0
   36.6356   25.5774   31.6763 H   0  0  0  0  0  0  0  0  0  0  0  0
   36.6247   24.9716   33.9802 H   0  0  0  0  0  0  0  0  0  0  0  0
   38.1843   25.7456   34.3041 H   0  0  0  0  0  0  0  0  0  0  0  0
  1  2  2  0
  1 11  1  0
  3  2  1  0
  4  3  2  0
  5  4  1  0
  5  6  2  0
  6  1  1  0
  7  8  2  0
  9  8  1  0
 10  9  2  0
 11 10  1  0
 11 12  2  0
 12  7  1  0
 13  6  1  0
 13 17  1  0
 14 13  1  0
 15 14  1  0
 15 16  1  0
 16 17  1  0
  2 18  1  0
  3 19  1  0
  4 20  1  0
  5 21  1  0
  7 22  1  0
  8 23  1  0
  9 24  1  0
 13 25  1  0
 14 26  1  0
 14 27  1  0
 15 28  1  0
 15 29  1  0
 16 30  1  0
 16 31  1  0
 17 32  1  0
 17 33  1  0
M  ISO  8  18  14  19  14  20  14  21  14  22  14  23  14  24  14  25  13
M  ISO  8  26  13  27  13  28  13  29  13  30  13  31  13  32  13  33  13
M  END
>  <minimizedAffinity>  (1) 
-4.48047495

>  <minimizedRMSD>  (1) 
2.23403645

$$$$
