
     RDKit          3D

 25 27  0  0  0  0  0  0  0  0999 V2000
   37.1910   21.9410   34.7080 C   0  0  0  0  0  0  0  0  0  0  0  0
   36.3150   20.8980   34.8490 C   0  0  0  0  0  0  0  0  0  0  0  0
   35.5400   20.4220   33.8240 C   0  0  0  0  0  0  0  0  0  0  0  0
   35.6680   21.0460   32.5910 C   0  0  0  0  0  0  0  0  0  0  0  0
   36.5550   22.1050   32.4380 C   0  0  0  0  0  0  0  0  0  0  0  0
   37.3280   22.5710   33.4870 C   0  0  0  0  0  0  0  0  0  0  0  0
   40.0040   22.3800   37.0000 C   0  0  0  0  0  0  0  0  0  0  0  0
   39.4540   23.1250   38.0420 C   0  0  0  0  0  0  0  0  0  0  0  0
   38.1000   23.4880   37.9650 C   0  0  0  0  0  0  0  0  0  0  0  0
   37.3910   23.0950   36.8790 N   0  0  0  0  0  0  0  0  0  0  0  0
   37.9670   22.3620   35.8740 C   0  0  0  0  0  0  0  0  0  0  0  0
   39.2560   22.0210   35.9530 N   0  0  0  0  0  0  0  0  0  0  0  0
   38.2310   23.6830   33.2680 C   0  0  0  0  0  0  0  0  0  0  0  0
   37.8310   24.9490   33.4210 N   0  0  0  0  0  0  0  0  0  0  0  0
   38.7870   25.7910   33.1840 O   0  0  0  0  0  0  0  0  0  0  0  0
   39.8420   25.0940   32.8680 C   0  0  0  0  0  0  0  0  0  0  0  0
   39.5170   23.7950   32.9150 N   0  0  0  0  0  0  0  0  0  0  0  0
   36.2291   20.4179   35.8350 H   0  0  0  0  0  0  0  0  0  0  0  0
   34.8462   19.5814   33.9721 H   0  0  0  0  0  0  0  0  0  0  0  0
   35.0679   20.7027   31.7354 H   0  0  0  0  0  0  0  0  0  0  0  0
   36.6453   22.5872   31.4535 H   0  0  0  0  0  0  0  0  0  0  0  0
   41.0630   22.0852   37.0402 H   0  0  0  0  0  0  0  0  0  0  0  0
   40.0674   23.4219   38.9055 H   0  0  0  0  0  0  0  0  0  0  0  0
   37.6270   24.0761   38.7653 H   0  0  0  0  0  0  0  0  0  0  0  0
   40.8297   25.5021   32.6074 H   0  0  0  0  0  0  0  0  0  0  0  0
  1  2  2  0
  1 11  1  0
  3  2  1  0
  4  3  2  0
  5  4  1  0
  5  6  2  0
  6  1  1  0
  7  8  2  0
  9  8  1  0
 10  9  2  0
 11 12  2  0
 11 10  1  0
 12  7  1  0
 13 14  2  0
 13  6  1  0
 15 14  1  0
 16 17  2  0
 16 15  1  0
 17 13  1  0
  2 18  1  0
  3 19  1  0
  4 20  1  0
  5 21  1  0
  7 22  1  0
  8 23  1  0
  9 24  1  0
 16 25  1  0
M  ISO  8  18  14  19  14  20  14  21  14  22  14  23  14  24  14  25  14
M  END
>  <minimizedAffinity>  (1) 
-4.39226103

>  <minimizedRMSD>  (1) 
0.802779615

$$$$
