
     RDKit          3D

 27 29  0  0  0  0  0  0  0  0999 V2000
   37.1990   21.9390   34.6890 C   0  0  0  0  0  0  0  0  0  0  0  0
   36.3350   20.8690   34.8630 C   0  0  0  0  0  0  0  0  0  0  0  0
   35.5450   20.4370   33.8180 C   0  0  0  0  0  0  0  0  0  0  0  0
   35.6190   21.0760   32.6020 C   0  0  0  0  0  0  0  0  0  0  0  0
   36.4800   22.1320   32.4500 C   0  0  0  0  0  0  0  0  0  0  0  0
   37.2920   22.5970   33.4750 C   0  0  0  0  0  0  0  0  0  0  0  0
   38.0630   23.4580   37.9010 C   0  0  0  0  0  0  0  0  0  0  0  0
   39.4120   23.1400   38.0620 C   0  0  0  0  0  0  0  0  0  0  0  0
   40.0280   22.3990   37.0630 C   0  0  0  0  0  0  0  0  0  0  0  0
   39.3080   22.0120   35.9710 N   0  0  0  0  0  0  0  0  0  0  0  0
   38.0060   22.3370   35.8480 C   0  0  0  0  0  0  0  0  0  0  0  0
   37.3940   23.0580   36.8130 N   0  0  0  0  0  0  0  0  0  0  0  0
   38.2120   23.7240   33.3150 C   0  0  0  0  0  0  0  0  0  0  0  0
   37.8800   25.0790   33.5580 C   0  0  0  0  0  0  0  0  0  0  0  0
   38.8660   26.0030   33.3560 C   0  0  0  0  0  0  0  0  0  0  0  0
   40.1310   25.5420   32.9230 C   0  0  0  0  0  0  0  0  0  0  0  0
   39.9480   23.7530   32.7890 S   0  0  0  0  0  0  0  0  0  0  0  0
   36.2792   20.3626   35.8379 H   0  0  0  0  0  0  0  0  0  0  0  0
   34.8604   19.5872   33.9561 H   0  0  0  0  0  0  0  0  0  0  0  0
   34.9938   20.7431   31.7604 H   0  0  0  0  0  0  0  0  0  0  0  0
   36.5295   22.6331   31.4720 H   0  0  0  0  0  0  0  0  0  0  0  0
   37.5447   24.0427   38.6752 H   0  0  0  0  0  0  0  0  0  0  0  0
   39.9696   23.4662   38.9523 H   0  0  0  0  0  0  0  0  0  0  0  0
   41.0898   22.1256   37.1513 H   0  0  0  0  0  0  0  0  0  0  0  0
   36.8749   25.3740   33.8938 H   0  0  0  0  0  0  0  0  0  0  0  0
   38.6813   27.0741   33.5252 H   0  0  0  0  0  0  0  0  0  0  0  0
   41.0287   26.1424   32.7140 H   0  0  0  0  0  0  0  0  0  0  0  0
  1  2  2  0
  1 11  1  0
  3  2  1  0
  4  3  2  0
  5  4  1  0
  5  6  2  0
  6  1  1  0
  7  8  2  0
  9  8  1  0
 10  9  2  0
 11 10  1  0
 11 12  2  0
 12  7  1  0
 13  6  1  0
 13 14  2  0
 15 14  1  0
 16 15  2  0
 17 16  1  0
 17 13  1  0
  2 18  1  0
  3 19  1  0
  4 20  1  0
  5 21  1  0
  7 22  1  0
  8 23  1  0
  9 24  1  0
 14 25  1  0
 15 26  1  0
 16 27  1  0
M  ISO  8  18  14  19  14  20  14  21  14  22  14  23  14  24  14  25  14
M  ISO  2  26  14  27  14
M  END
>  <minimizedAffinity>  (1) 
-4.38878727

>  <minimizedRMSD>  (1) 
1.56798089

$$$$
