
     RDKit          3D

 27 29  0  0  0  0  0  0  0  0999 V2000
   37.2180   22.0070   34.8720 C   0  0  0  0  0  0  0  0  0  0  0  0
   36.3260   20.9700   35.0100 C   0  0  0  0  0  0  0  0  0  0  0  0
   35.6200   20.5030   33.9200 C   0  0  0  0  0  0  0  0  0  0  0  0
   35.8160   21.0850   32.6930 C   0  0  0  0  0  0  0  0  0  0  0  0
   36.7090   22.1160   32.5790 C   0  0  0  0  0  0  0  0  0  0  0  0
   37.4510   22.6300   33.6450 C   0  0  0  0  0  0  0  0  0  0  0  0
   39.9120   22.4720   37.3080 C   0  0  0  0  0  0  0  0  0  0  0  0
   39.3230   23.2560   38.3040 C   0  0  0  0  0  0  0  0  0  0  0  0
   37.9880   23.6270   38.1360 C   0  0  0  0  0  0  0  0  0  0  0  0
   37.3330   23.2140   37.0260 N   0  0  0  0  0  0  0  0  0  0  0  0
   37.9320   22.4500   36.0720 C   0  0  0  0  0  0  0  0  0  0  0  0
   39.2110   22.0980   36.2380 N   0  0  0  0  0  0  0  0  0  0  0  0
   38.3760   23.7000   33.5150 N   0  0  0  0  0  0  0  0  0  0  0  0
   37.9850   24.9530   33.7750 N   0  0  0  0  0  0  0  0  0  0  0  0
   39.0220   25.8030   33.5880 C   0  0  0  0  0  0  0  0  0  0  0  0
   40.1140   25.0570   33.1930 C   0  0  0  0  0  0  0  0  0  0  0  0
   39.6790   23.7410   33.1570 C   0  0  0  0  0  0  0  0  0  0  0  0
   36.1738   20.5089   35.9970 H   0  0  0  0  0  0  0  0  0  0  0  0
   34.9075   19.6727   34.0337 H   0  0  0  0  0  0  0  0  0  0  0  0
   35.2625   20.7276   31.8122 H   0  0  0  0  0  0  0  0  0  0  0  0
   36.8512   22.5679   31.5862 H   0  0  0  0  0  0  0  0  0  0  0  0
   40.9624   22.1612   37.4081 H   0  0  0  0  0  0  0  0  0  0  0  0
   39.8927   23.5702   39.1909 H   0  0  0  0  0  0  0  0  0  0  0  0
   37.4781   24.2432   38.8912 H   0  0  0  0  0  0  0  0  0  0  0  0
   38.9985   26.8940   33.7263 H   0  0  0  0  0  0  0  0  0  0  0  0
   41.1214   25.4296   32.9557 H   0  0  0  0  0  0  0  0  0  0  0  0
   40.2941   22.8716   32.8819 H   0  0  0  0  0  0  0  0  0  0  0  0
  1  2  2  0
  1 11  1  0
  3  2  1  0
  4  3  2  0
  5  4  1  0
  5  6  2  0
  6  1  1  0
  7  8  2  0
  9  8  1  0
 10  9  2  0
 11 12  2  0
 11 10  1  0
 12  7  1  0
 13  6  1  0
 13 14  1  0
 15 14  2  0
 16 15  1  0
 17 16  2  0
 17 13  1  0
  2 18  1  0
  3 19  1  0
  4 20  1  0
  5 21  1  0
  7 22  1  0
  8 23  1  0
  9 24  1  0
 15 25  1  0
 16 26  1  0
 17 27  1  0
M  ISO  8  18  14  19  14  20  14  21  14  22  14  23  14  24  14  25  14
M  ISO  2  26  14  27  14
M  END
>  <minimizedAffinity>  (1) 
-4.38819122

>  <minimizedRMSD>  (1) 
0.606793463

$$$$
