
     RDKit          3D

 36 38  0  0  0  0  0  0  0  0999 V2000
   42.6440   21.4200   35.2320 S   0  0  0  0  0  0  0  0  0  0  0  0
   40.1350   22.6740   38.0730 C   0  0  0  0  0  0  0  0  0  0  0  0
   39.0240   23.1210   37.3440 C   0  0  0  0  0  0  0  0  0  0  0  0
   39.0790   23.0220   35.9700 C   0  0  0  0  0  0  0  0  0  0  0  0
   40.1920   22.5020   35.3720 N   0  0  0  0  0  0  0  0  0  0  0  0
   41.2470   22.0800   36.1260 C   0  0  0  0  0  0  0  0  0  0  0  0
   41.1980   22.1740   37.4490 N   0  0  0  0  0  0  0  0  0  0  0  0
   37.8110   23.6870   37.9950 C   0  0  0  0  0  0  0  0  0  0  0  0
   38.2250   24.7560   38.7840 F   0  0  0  0  0  0  0  0  0  0  0  0
   37.1410   22.8110   38.7610 F   0  0  0  0  0  0  0  0  0  0  0  0
   36.9940   24.3080   37.0260 F   0  0  0  0  0  0  0  0  0  0  0  0
   43.7620   22.7460   34.7640 C   0  0  0  0  0  0  0  0  0  0  0  0
   43.7490   23.1400   33.4180 C   0  0  0  0  0  0  0  0  0  0  0  0
   45.0430   24.5210   33.3850 S   0  0  0  0  0  0  0  0  0  0  0  0
   45.3300   24.2650   35.2310 C   0  0  0  0  0  0  0  0  0  0  0  0
   44.6160   23.4460   35.4390 N   0  0  0  0  0  0  0  0  0  0  0  0
   46.3130   25.0520   36.0680 C   0  0  0  0  0  0  0  0  0  0  0  0
   46.8000   24.0630   37.1120 C   0  0  0  0  0  0  0  0  0  0  0  0
   47.1550   24.7560   38.3980 C   0  0  0  0  0  0  0  0  0  0  0  0
   45.8650   25.2490   39.0130 C   0  0  0  0  0  0  0  0  0  0  0  0
   44.9600   25.9020   38.0160 C   0  0  0  0  0  0  0  0  0  0  0  0
   45.6550   26.2330   36.7230 C   0  0  0  0  0  0  0  0  0  0  0  0
   40.1276   22.7374   39.1711 H   0  0  0  0  0  0  0  0  0  0  0  0
   38.2302   23.3603   35.3576 H   0  0  0  0  0  0  0  0  0  0  0  0
   43.1406   22.7460   32.5906 H   0  0  0  0  0  0  0  0  0  0  0  0
   47.1319   25.4636   35.4597 H   0  0  0  0  0  0  0  0  0  0  0  0
   46.0048   23.3288   37.3084 H   0  0  0  0  0  0  0  0  0  0  0  0
   47.7019   23.5661   36.7252 H   0  0  0  0  0  0  0  0  0  0  0  0
   47.6524   24.0513   39.0806 H   0  0  0  0  0  0  0  0  0  0  0  0
   47.8433   25.5937   38.2122 H   0  0  0  0  0  0  0  0  0  0  0  0
   45.3378   24.3922   39.4580 H   0  0  0  0  0  0  0  0  0  0  0  0
   46.1258   26.0047   39.7686 H   0  0  0  0  0  0  0  0  0  0  0  0
   44.1245   25.2197   37.8007 H   0  0  0  0  0  0  0  0  0  0  0  0
   44.6126   26.8485   38.4558 H   0  0  0  0  0  0  0  0  0  0  0  0
   46.4263   26.9901   36.9279 H   0  0  0  0  0  0  0  0  0  0  0  0
   44.8830   26.5953   36.0283 H   0  0  0  0  0  0  0  0  0  0  0  0
  1  6  1  0
  3  8  1  0
  3  2  2  0
  4  3  1  0
  5  4  2  0
  5  6  1  0
  6  7  2  0
  7  2  1  0
  8 10  1  0
  8  9  1  0
 11  8  1  0
 12  1  1  0
 12 16  1  0
 13 12  2  0
 14 13  1  0
 14 15  1  0
 15 16  2  0
 15 17  1  0
 17 22  1  0
 17 18  1  0
 18 19  1  0
 19 20  1  0
 21 20  1  0
 22 21  1  0
  2 23  1  0
  4 24  1  0
 13 25  1  0
 17 26  1  0
 18 27  1  0
 18 28  1  0
 19 29  1  0
 19 30  1  0
 20 31  1  0
 20 32  1  0
 21 33  1  0
 21 34  1  0
 22 35  1  0
 22 36  1  0
M  ISO  8  23  14  24  14  25  14  26  13  27  13  28  13  29  13  30  13
M  ISO  6  31  13  32  13  33  13  34  13  35  13  36  13
M  END
>  <minimizedAffinity>  (1) 
-5.30971193

>  <minimizedRMSD>  (1) 
3.18933702

$$$$
