
     RDKit          3D

 23 24  0  0  0  0  0  0  0  0999 V2000
   37.2390   21.9820   34.8850 C   0  0  0  0  0  0  0  0  0  0  0  0
   36.3190   20.9710   35.0360 C   0  0  0  0  0  0  0  0  0  0  0  0
   35.5880   20.5180   33.9590 C   0  0  0  0  0  0  0  0  0  0  0  0
   35.7870   21.0890   32.7230 C   0  0  0  0  0  0  0  0  0  0  0  0
   36.7040   22.0940   32.5900 C   0  0  0  0  0  0  0  0  0  0  0  0
   37.4730   22.5930   33.6490 C   0  0  0  0  0  0  0  0  0  0  0  0
   37.9810   23.6190   38.0770 C   0  0  0  0  0  0  0  0  0  0  0  0
   39.3120   23.2780   38.3130 C   0  0  0  0  0  0  0  0  0  0  0  0
   39.9660   22.4750   37.3660 C   0  0  0  0  0  0  0  0  0  0  0  0
   39.2870   22.0630   36.2640 N   0  0  0  0  0  0  0  0  0  0  0  0
   37.9840   22.4190   36.0690 C   0  0  0  0  0  0  0  0  0  0  0  0
   37.3730   23.1830   36.9780 N   0  0  0  0  0  0  0  0  0  0  0  0
   38.4530   23.6710   33.4820 C   0  0  0  0  0  0  0  0  0  0  0  0
   38.3920   24.2510   32.2070 F   0  0  0  0  0  0  0  0  0  0  0  0
   39.7190   23.0690   33.5060 F   0  0  0  0  0  0  0  0  0  0  0  0
   38.4380   24.6060   34.4760 F   0  0  0  0  0  0  0  0  0  0  0  0
   36.1649   20.5191   36.0270 H   0  0  0  0  0  0  0  0  0  0  0  0
   34.8536   19.7090   34.0861 H   0  0  0  0  0  0  0  0  0  0  0  0
   35.2142   20.7404   31.8510 H   0  0  0  0  0  0  0  0  0  0  0  0
   36.8463   22.5367   31.5931 H   0  0  0  0  0  0  0  0  0  0  0  0
   37.4358   24.2465   38.7974 H   0  0  0  0  0  0  0  0  0  0  0  0
   39.8345   23.6282   39.2154 H   0  0  0  0  0  0  0  0  0  0  0  0
   41.0160   22.1827   37.5143 H   0  0  0  0  0  0  0  0  0  0  0  0
  1  2  2  0
  1 11  1  0
  3  2  1  0
  4  3  2  0
  5  4  1  0
  5  6  2  0
  6  1  1  0
  7  8  2  0
  9  8  1  0
 10  9  2  0
 11 10  1  0
 11 12  2  0
 12  7  1  0
 13 15  1  0
 13  6  1  0
 13 16  1  0
 14 13  1  0
  2 17  1  0
  3 18  1  0
  4 19  1  0
  5 20  1  0
  7 21  1  0
  8 22  1  0
  9 23  1  0
M  ISO  7  17  14  18  14  19  14  20  14  21  14  22  14  23  14
M  END
>  <minimizedAffinity>  (1) 
-4.24302101

>  <minimizedRMSD>  (1) 
1.34089732

$$$$
