
     RDKit          3D

 22 23  0  0  0  0  0  0  0  0999 V2000
   37.2150   21.8740   34.9370 C   0  0  0  0  0  0  0  0  0  0  0  0
   36.1860   20.9700   35.1710 C   0  0  0  0  0  0  0  0  0  0  0  0
   35.5020   20.4790   34.0650 C   0  0  0  0  0  0  0  0  0  0  0  0
   35.8200   20.8660   32.7880 C   0  0  0  0  0  0  0  0  0  0  0  0
   36.8400   21.7580   32.6090 C   0  0  0  0  0  0  0  0  0  0  0  0
   37.5720   22.2920   33.6670 C   0  0  0  0  0  0  0  0  0  0  0  0
   39.9500   22.6070   37.2570 C   0  0  0  0  0  0  0  0  0  0  0  0
   39.3190   23.2720   38.3130 C   0  0  0  0  0  0  0  0  0  0  0  0
   37.9420   23.4690   38.2270 C   0  0  0  0  0  0  0  0  0  0  0  0
   37.2800   23.0140   37.1340 N   0  0  0  0  0  0  0  0  0  0  0  0
   37.9240   22.3760   36.1340 C   0  0  0  0  0  0  0  0  0  0  0  0
   39.2610   22.1730   36.1960 N   0  0  0  0  0  0  0  0  0  0  0  0
   38.6280   23.2160   33.4760 N   0  0  0  0  0  0  0  0  0  0  0  0
   35.9230   20.6552   36.1916 H   0  0  0  0  0  0  0  0  0  0  0  0
   34.6833   19.7604   34.2180 H   0  0  0  0  0  0  0  0  0  0  0  0
   35.2656   20.4667   31.9259 H   0  0  0  0  0  0  0  0  0  0  0  0
   37.0940   22.0678   31.5845 H   0  0  0  0  0  0  0  0  0  0  0  0
   41.0360   22.4373   37.2999 H   0  0  0  0  0  0  0  0  0  0  0  0
   39.8906   23.6279   39.1828 H   0  0  0  0  0  0  0  0  0  0  0  0
   37.4003   23.9855   39.0331 H   0  0  0  0  0  0  0  0  0  0  0  0
   39.1425   23.5852   34.2883 H   0  0  0  0  0  0  0  0  0  0  0  0
   38.8816   23.5189   32.5247 H   0  0  0  0  0  0  0  0  0  0  0  0
  1  2  2  0
  1 11  1  0
  3  2  1  0
  4  3  2  0
  5  4  1  0
  5  6  2  0
  6  1  1  0
  7  8  2  0
  9  8  1  0
 10  9  2  0
 11 12  2  0
 11 10  1  0
 12  7  1  0
 13  6  1  0
  2 14  1  0
  3 15  1  0
  4 16  1  0
  5 17  1  0
  7 18  1  0
  8 19  1  0
  9 20  1  0
 13 21  1  0
 13 22  1  0
M  ISO  7  14  14  15  14  16  14  17  14  18  14  19  14  20  14
M  END
>  <minimizedAffinity>  (1) 
-4.15835571

>  <minimizedRMSD>  (1) 
0.0218623504

$$$$
