
     RDKit          3D

 26 27  0  0  0  0  0  0  0  0999 V2000
   37.2580   21.9840   34.8810 C   0  0  0  0  0  0  0  0  0  0  0  0
   36.3190   20.9880   35.0580 C   0  0  0  0  0  0  0  0  0  0  0  0
   35.5810   20.5260   33.9860 C   0  0  0  0  0  0  0  0  0  0  0  0
   35.7900   21.0670   32.7400 C   0  0  0  0  0  0  0  0  0  0  0  0
   36.7370   22.0650   32.5830 C   0  0  0  0  0  0  0  0  0  0  0  0
   37.4980   22.5550   33.6380 C   0  0  0  0  0  0  0  0  0  0  0  0
   38.0080   23.5830   38.0830 C   0  0  0  0  0  0  0  0  0  0  0  0
   39.3470   23.2630   38.3060 C   0  0  0  0  0  0  0  0  0  0  0  0
   39.9950   22.4960   37.3530 C   0  0  0  0  0  0  0  0  0  0  0  0
   39.3070   22.0950   36.2600 N   0  0  0  0  0  0  0  0  0  0  0  0
   38.0020   22.4220   36.0690 C   0  0  0  0  0  0  0  0  0  0  0  0
   37.3480   23.1710   36.9870 N   0  0  0  0  0  0  0  0  0  0  0  0
   38.5150   23.6170   33.5110 C   0  0  0  0  0  0  0  0  0  0  0  0
   37.7810   24.9440   33.3070 C   0  0  0  0  0  0  0  0  0  0  0  0
   36.1576   20.5599   36.0583 H   0  0  0  0  0  0  0  0  0  0  0  0
   34.8328   19.7323   34.1281 H   0  0  0  0  0  0  0  0  0  0  0  0
   35.2105   20.7106   31.8756 H   0  0  0  0  0  0  0  0  0  0  0  0
   36.8939   22.4884   31.5799 H   0  0  0  0  0  0  0  0  0  0  0  0
   37.4750   24.1921   38.8279 H   0  0  0  0  0  0  0  0  0  0  0  0
   39.8709   23.6087   39.2093 H   0  0  0  0  0  0  0  0  0  0  0  0
   41.0513   22.2175   37.4826 H   0  0  0  0  0  0  0  0  0  0  0  0
   39.1245   23.6630   34.4256 H   0  0  0  0  0  0  0  0  0  0  0  0
   39.1817   23.4115   32.6605 H   0  0  0  0  0  0  0  0  0  0  0  0
   37.5382   25.3830   34.2859 H   0  0  0  0  0  0  0  0  0  0  0  0
   38.4245   25.6362   32.7442 H   0  0  0  0  0  0  0  0  0  0  0  0
   36.8526   24.7668   32.7442 H   0  0  0  0  0  0  0  0  0  0  0  0
  1  2  2  0
  1 11  1  0
  3  2  1  0
  4  3  2  0
  5  4  1  0
  5  6  2  0
  6  1  1  0
  7  8  2  0
  9  8  1  0
 10  9  2  0
 11 10  1  0
 11 12  2  0
 12  7  1  0
 13  6  1  0
 14 13  1  0
  2 15  1  0
  3 16  1  0
  4 17  1  0
  5 18  1  0
  7 19  1  0
  8 20  1  0
  9 21  1  0
 13 22  1  0
 13 23  1  0
 14 24  1  0
 14 25  1  0
 14 26  1  0
M  ISO  8  15  14  16  14  17  14  18  14  19  14  20  14  21  14  22   8
M  ISO  4  23   8  24   8  25   8  26   8
M  END
>  <minimizedAffinity>  (1) 
-4.07647085

>  <minimizedRMSD>  (1) 
1.50795305

$$$$
