
     RDKit          3D

 22 23  0  0  0  0  0  0  0  0999 V2000
   37.2550   21.9750   34.9000 C   0  0  0  0  0  0  0  0  0  0  0  0
   36.3170   20.9890   35.0690 C   0  0  0  0  0  0  0  0  0  0  0  0
   35.5800   20.5230   33.9900 C   0  0  0  0  0  0  0  0  0  0  0  0
   35.8000   21.0600   32.7440 C   0  0  0  0  0  0  0  0  0  0  0  0
   36.7460   22.0490   32.5920 C   0  0  0  0  0  0  0  0  0  0  0  0
   37.4890   22.5270   33.6540 C   0  0  0  0  0  0  0  0  0  0  0  0
   37.9750   23.5880   38.1020 C   0  0  0  0  0  0  0  0  0  0  0  0
   39.3150   23.2840   38.3290 C   0  0  0  0  0  0  0  0  0  0  0  0
   39.9730   22.5210   37.3770 C   0  0  0  0  0  0  0  0  0  0  0  0
   39.2990   22.1060   36.2800 N   0  0  0  0  0  0  0  0  0  0  0  0
   37.9940   22.4180   36.0850 C   0  0  0  0  0  0  0  0  0  0  0  0
   37.3450   23.1590   37.0030 N   0  0  0  0  0  0  0  0  0  0  0  0
   38.4830   23.5710   33.4730 C   0  0  0  0  0  0  0  0  0  0  0  0
   38.3020   24.8100   33.5560 O   0  0  0  0  0  0  0  0  0  0  0  0
   36.1474   20.5637   36.0692 H   0  0  0  0  0  0  0  0  0  0  0  0
   34.8279   19.7326   34.1300 H   0  0  0  0  0  0  0  0  0  0  0  0
   35.2257   20.7030   31.8764 H   0  0  0  0  0  0  0  0  0  0  0  0
   36.9158   22.4727   31.5912 H   0  0  0  0  0  0  0  0  0  0  0  0
   37.4252   24.1914   38.8394 H   0  0  0  0  0  0  0  0  0  0  0  0
   39.8334   23.6372   39.2326 H   0  0  0  0  0  0  0  0  0  0  0  0
   41.0320   22.2558   37.5121 H   0  0  0  0  0  0  0  0  0  0  0  0
   39.5051   23.2394   33.2377 H   0  0  0  0  0  0  0  0  0  0  0  0
  1  2  2  0
  1 11  1  0
  3  2  1  0
  4  3  2  0
  5  4  1  0
  5  6  2  0
  6  1  1  0
  7  8  2  0
  9  8  1  0
 10  9  2  0
 11 10  1  0
 11 12  2  0
 12  7  1  0
 13 14  2  0
 13  6  1  0
  2 15  1  0
  3 16  1  0
  4 17  1  0
  5 18  1  0
  7 19  1  0
  8 20  1  0
  9 21  1  0
 13 22  1  0
M  ISO  8  15  14  16  14  17  14  18  14  19  14  20  14  21  14  22   6
M  END
>  <minimizedAffinity>  (1) 
-4.03866339

>  <minimizedRMSD>  (1) 
1.34698582

$$$$
