
     RDKit          3D

 31 34  0  0  0  0  0  0  0  0999 V2000
   43.4770   23.1840   33.9660 C   0  0  0  0  0  0  0  0  0  0  0  0
   43.6530   23.8140   32.7250 C   0  0  0  0  0  0  0  0  0  0  0  0
   45.1550   24.9190   33.0360 S   0  0  0  0  0  0  0  0  0  0  0  0
   45.2220   24.2780   34.8160 C   0  0  0  0  0  0  0  0  0  0  0  0
   44.3660   23.5770   34.8190 N   0  0  0  0  0  0  0  0  0  0  0  0
   46.1770   24.6400   35.8830 N   0  0  0  0  0  0  0  0  0  0  0  0
   46.4280   24.0120   37.0230 C   0  0  0  0  0  0  0  0  0  0  0  0
   47.3760   24.7120   37.6800 N   0  0  0  0  0  0  0  0  0  0  0  0
   47.6790   25.7800   36.8840 C   0  0  0  0  0  0  0  0  0  0  0  0
   48.6130   26.7880   37.1510 C   0  0  0  0  0  0  0  0  0  0  0  0
   48.7250   27.7470   36.1860 N   0  0  0  0  0  0  0  0  0  0  0  0
   48.0000   27.7350   35.0630 C   0  0  0  0  0  0  0  0  0  0  0  0
   47.1240   26.7530   34.8560 N   0  0  0  0  0  0  0  0  0  0  0  0
   46.9220   25.7510   35.7320 C   0  0  0  0  0  0  0  0  0  0  0  0
   42.1190   22.0140   34.1110 S   0  0  0  0  0  0  0  0  0  0  0  0
   40.4000   22.3460   37.6870 C   0  0  0  0  0  0  0  0  0  0  0  0
   39.3680   23.2730   37.4700 C   0  0  0  0  0  0  0  0  0  0  0  0
   39.2200   23.7910   36.1920 C   0  0  0  0  0  0  0  0  0  0  0  0
   40.0680   23.3870   35.2070 N   0  0  0  0  0  0  0  0  0  0  0  0
   41.0640   22.4780   35.4600 C   0  0  0  0  0  0  0  0  0  0  0  0
   41.2030   21.9830   36.6880 N   0  0  0  0  0  0  0  0  0  0  0  0
   38.4410   23.7120   38.5510 C   0  0  0  0  0  0  0  0  0  0  0  0
   39.2020   23.8830   39.6990 F   0  0  0  0  0  0  0  0  0  0  0  0
   37.4420   22.8330   38.7970 F   0  0  0  0  0  0  0  0  0  0  0  0
   37.9530   25.0170   38.2750 F   0  0  0  0  0  0  0  0  0  0  0  0
   43.0650   23.6950   31.8030 H   0  0  0  0  0  0  0  0  0  0  0  0
   45.9487   23.0852   37.3714 H   0  0  0  0  0  0  0  0  0  0  0  0
   49.2136   26.8060   38.0724 H   0  0  0  0  0  0  0  0  0  0  0  0
   48.1260   28.5311   34.3144 H   0  0  0  0  0  0  0  0  0  0  0  0
   40.5465   21.9165   38.6890 H   0  0  0  0  0  0  0  0  0  0  0  0
   38.4256   24.5207   35.9767 H   0  0  0  0  0  0  0  0  0  0  0  0
  1 15  1  0
  1  5  1  0
  2  3  1  0
  2  1  2  0
  3  4  1  0
  4  5  2  0
  4  6  1  0
  6  7  1  0
  7  8  2  0
  9 10  2  0
  9  8  1  0
 11 10  1  0
 12 11  2  0
 13 12  1  0
 13 14  2  0
 14  6  1  0
 14  9  1  0
 15 20  1  0
 17 16  2  0
 17 22  1  0
 18 17  1  0
 19 20  1  0
 19 18  2  0
 20 21  2  0
 21 16  1  0
 22 24  1  0
 22 23  1  0
 25 22  1  0
  2 26  1  0
  7 27  1  0
 10 28  1  0
 12 29  1  0
 16 30  1  0
 18 31  1  0
M  ISO  6  26  14  27  14  28  14  29  14  30  14  31  14
M  END
>  <minimizedAffinity>  (1) 
-5.1741395

>  <minimizedRMSD>  (1) 
3.35568857

$$$$
