
     RDKit          3D

 34 36  0  0  0  0  0  0  0  0999 V2000
   37.1870   21.9790   34.7200 C   0  0  0  0  0  0  0  0  0  0  0  0
   36.3460   20.9070   34.8290 C   0  0  0  0  0  0  0  0  0  0  0  0
   35.6110   20.4710   33.7610 C   0  0  0  0  0  0  0  0  0  0  0  0
   35.7190   21.1250   32.5490 C   0  0  0  0  0  0  0  0  0  0  0  0
   36.5700   22.2050   32.4510 C   0  0  0  0  0  0  0  0  0  0  0  0
   37.3330   22.6780   33.5160 C   0  0  0  0  0  0  0  0  0  0  0  0
   39.9950   22.4510   37.0180 C   0  0  0  0  0  0  0  0  0  0  0  0
   39.4270   23.1470   38.0860 C   0  0  0  0  0  0  0  0  0  0  0  0
   38.0820   23.4520   38.0120 C   0  0  0  0  0  0  0  0  0  0  0  0
   37.3700   23.0670   36.9170 N   0  0  0  0  0  0  0  0  0  0  0  0
   37.9620   22.3920   35.9030 C   0  0  0  0  0  0  0  0  0  0  0  0
   39.2770   22.0790   35.9460 N   0  0  0  0  0  0  0  0  0  0  0  0
   38.1620   23.7440   33.3880 O   0  0  0  0  0  0  0  0  0  0  0  0
   36.5570   27.5990   33.3350 C   0  0  0  0  0  0  0  0  0  0  0  0
   37.0770   27.1300   34.5150 C   0  0  0  0  0  0  0  0  0  0  0  0
   37.6270   25.8840   34.6430 C   0  0  0  0  0  0  0  0  0  0  0  0
   37.6810   25.0290   33.5680 C   0  0  0  0  0  0  0  0  0  0  0  0
   37.1570   25.4820   32.3500 C   0  0  0  0  0  0  0  0  0  0  0  0
   36.6000   26.7590   32.2410 C   0  0  0  0  0  0  0  0  0  0  0  0
   35.8830   29.2140   33.3060 S   0  0  0  0  0  0  0  0  0  0  0  0
   35.2860   29.4550   31.9290 O   0  0  0  0  0  0  0  0  0  0  0  0
   34.8750   29.4240   34.3760 O   0  0  0  0  0  0  0  0  0  0  0  0
   36.2587   20.3853   35.7935 H   0  0  0  0  0  0  0  0  0  0  0  0
   34.9392   19.6064   33.8664 H   0  0  0  0  0  0  0  0  0  0  0  0
   35.1366   20.7901   31.6780 H   0  0  0  0  0  0  0  0  0  0  0  0
   36.6506   22.7196   31.4822 H   0  0  0  0  0  0  0  0  0  0  0  0
   41.0651   22.1991   37.0556 H   0  0  0  0  0  0  0  0  0  0  0  0
   40.0301   23.4426   38.9572 H   0  0  0  0  0  0  0  0  0  0  0  0
   37.5909   24.0004   38.8294 H   0  0  0  0  0  0  0  0  0  0  0  0
   37.0504   27.7855   35.3979 H   0  0  0  0  0  0  0  0  0  0  0  0
   38.0297   25.5633   35.6151 H   0  0  0  0  0  0  0  0  0  0  0  0
   37.1844   24.8243   31.4687 H   0  0  0  0  0  0  0  0  0  0  0  0
   36.1930   27.0969   31.2765 H   0  0  0  0  0  0  0  0  0  0  0  0
   36.8813   30.1196   33.5514 H   0  0  0  0  0  0  0  0  0  0  0  0
  1  2  2  0
  1 11  1  0
  3  2  1  0
  4  3  2  0
  5  4  1  0
  5  6  2  0
  6  1  1  0
  7  8  2  0
  9  8  1  0
 10  9  2  0
 11 12  2  0
 11 10  1  0
 12  7  1  0
 13  6  1  0
 13 17  1  0
 14 15  2  0
 15 16  1  0
 17 16  2  0
 18 17  1  0
 19 18  2  0
 19 14  1  0
 20 14  1  0
 20 22  2  0
 21 20  2  0
  2 23  1  0
  3 24  1  0
  4 25  1  0
  5 26  1  0
  7 27  1  0
  8 28  1  0
  9 29  1  0
 15 30  1  0
 16 31  1  0
 18 32  1  0
 19 33  1  0
 20 34  1  0
M  ISO  8  23  14  24  14  25  14  26  14  27  14  28  14  29  14  30  14
M  ISO  4  31  14  32  14  33  14  34  11
M  END
>  <minimizedAffinity>  (1) 
-5.31580782

>  <minimizedRMSD>  (1) 
1.59318626

$$$$
