
     RDKit          3D

 28 30  0  0  0  0  0  0  0  0999 V2000
   37.1900   21.9790   34.7020 C   0  0  0  0  0  0  0  0  0  0  0  0
   36.3370   20.9040   34.8360 C   0  0  0  0  0  0  0  0  0  0  0  0
   35.5760   20.4630   33.7680 C   0  0  0  0  0  0  0  0  0  0  0  0
   35.6750   21.1090   32.5560 C   0  0  0  0  0  0  0  0  0  0  0  0
   36.5250   22.1740   32.4400 C   0  0  0  0  0  0  0  0  0  0  0  0
   37.2900   22.6280   33.4900 C   0  0  0  0  0  0  0  0  0  0  0  0
   39.9940   22.3630   37.0010 C   0  0  0  0  0  0  0  0  0  0  0  0
   39.4550   23.1360   38.0470 C   0  0  0  0  0  0  0  0  0  0  0  0
   38.1130   23.5250   37.9490 C   0  0  0  0  0  0  0  0  0  0  0  0
   37.4050   23.1370   36.8600 N   0  0  0  0  0  0  0  0  0  0  0  0
   37.9640   22.3910   35.8750 C   0  0  0  0  0  0  0  0  0  0  0  0
   39.2540   22.0020   35.9410 N   0  0  0  0  0  0  0  0  0  0  0  0
   38.1440   23.7080   33.3510 O   0  0  0  0  0  0  0  0  0  0  0  0
   37.6550   25.0060   33.3890 C   0  0  0  0  0  0  0  0  0  0  0  0
   37.1520   25.8460   32.4330 C   0  0  0  0  0  0  0  0  0  0  0  0
   36.8450   26.9690   33.0810 N   0  0  0  0  0  0  0  0  0  0  0  0
   37.1370   26.8610   34.3960 C   0  0  0  0  0  0  0  0  0  0  0  0
   37.6520   25.6160   34.6010 N   0  0  0  0  0  0  0  0  0  0  0  0
   36.2605   20.3899   35.8054 H   0  0  0  0  0  0  0  0  0  0  0  0
   34.8984   19.6046   33.8860 H   0  0  0  0  0  0  0  0  0  0  0  0
   35.0794   20.7735   31.6942 H   0  0  0  0  0  0  0  0  0  0  0  0
   36.6001   22.6875   31.4701 H   0  0  0  0  0  0  0  0  0  0  0  0
   41.0464   22.0475   37.0537 H   0  0  0  0  0  0  0  0  0  0  0  0
   40.0681   23.4252   38.9133 H   0  0  0  0  0  0  0  0  0  0  0  0
   37.6442   24.1316   38.7378 H   0  0  0  0  0  0  0  0  0  0  0  0
   37.0278   25.6386   31.3599 H   0  0  0  0  0  0  0  0  0  0  0  0
   36.9865   27.6366   35.1614 H   0  0  0  0  0  0  0  0  0  0  0  0
   37.9738   25.2185   35.4951 H   0  0  0  0  0  0  0  0  0  0  0  0
  1  2  2  0
  1 11  1  0
  3  2  1  0
  4  3  2  0
  5  4  1  0
  5  6  2  0
  6  1  1  0
  7  8  2  0
  9  8  1  0
 10  9  2  0
 11 12  2  0
 11 10  1  0
 12  7  1  0
 13 14  1  0
 13  6  1  0
 14 18  1  0
 15 16  1  0
 15 14  2  0
 16 17  2  0
 17 18  1  0
  2 19  1  0
  3 20  1  0
  4 21  1  0
  5 22  1  0
  7 23  1  0
  8 24  1  0
  9 25  1  0
 15 26  1  0
 17 27  1  0
 18 28  1  0
M  ISO  8  19  14  20  14  21  14  22  14  23  14  24  14  25  14  26  14
M  ISO  2  27  14  28   9
M  END
>  <minimizedAffinity>  (1) 
-4.65656424

>  <minimizedRMSD>  (1) 
2.20283365

$$$$
