
     RDKit          3D

 28 30  0  0  0  0  0  0  0  0999 V2000
   37.1560   21.9690   34.6890 C   0  0  0  0  0  0  0  0  0  0  0  0
   36.3430   20.8600   34.8090 C   0  0  0  0  0  0  0  0  0  0  0  0
   35.5830   20.4160   33.7590 C   0  0  0  0  0  0  0  0  0  0  0  0
   35.6400   21.1000   32.5680 C   0  0  0  0  0  0  0  0  0  0  0  0
   36.4620   22.2160   32.4520 C   0  0  0  0  0  0  0  0  0  0  0  0
   37.2330   22.6720   33.5050 C   0  0  0  0  0  0  0  0  0  0  0  0
   39.9770   22.4360   36.9690 C   0  0  0  0  0  0  0  0  0  0  0  0
   39.4090   23.1340   38.0560 C   0  0  0  0  0  0  0  0  0  0  0  0
   38.0480   23.4390   37.9910 C   0  0  0  0  0  0  0  0  0  0  0  0
   37.3360   23.0570   36.9020 N   0  0  0  0  0  0  0  0  0  0  0  0
   37.9370   22.3770   35.8680 C   0  0  0  0  0  0  0  0  0  0  0  0
   39.2360   22.0800   35.9160 N   0  0  0  0  0  0  0  0  0  0  0  0
   38.0350   23.7650   33.3870 O   0  0  0  0  0  0  0  0  0  0  0  0
   37.6370   25.0680   33.3030 C   0  0  0  0  0  0  0  0  0  0  0  0
   37.6950   25.7980   34.4790 C   0  0  0  0  0  0  0  0  0  0  0  0
   37.2570   27.0930   34.2170 C   0  0  0  0  0  0  0  0  0  0  0  0
   36.9500   27.1180   32.9090 N   0  0  0  0  0  0  0  0  0  0  0  0
   37.1800   25.9240   32.3950 N   0  0  0  0  0  0  0  0  0  0  0  0
   36.3045   20.3215   35.7674 H   0  0  0  0  0  0  0  0  0  0  0  0
   34.9401   19.5300   33.8669 H   0  0  0  0  0  0  0  0  0  0  0  0
   35.0379   20.7661   31.7101 H   0  0  0  0  0  0  0  0  0  0  0  0
   36.4998   22.7525   31.4925 H   0  0  0  0  0  0  0  0  0  0  0  0
   41.0468   22.1810   36.9891 H   0  0  0  0  0  0  0  0  0  0  0  0
   40.0173   23.4276   38.9242 H   0  0  0  0  0  0  0  0  0  0  0  0
   37.5594   23.9825   38.8131 H   0  0  0  0  0  0  0  0  0  0  0  0
   38.0306   25.4182   35.4553 H   0  0  0  0  0  0  0  0  0  0  0  0
   37.1784   27.9244   34.9330 H   0  0  0  0  0  0  0  0  0  0  0  0
   36.5937   27.9347   32.3923 H   0  0  0  0  0  0  0  0  0  0  0  0
  1  2  2  0
  1 11  1  0
  3  2  1  0
  4  3  2  0
  5  4  1  0
  5  6  2  0
  6  1  1  0
  7  8  2  0
  9  8  1  0
 10  9  2  0
 11 12  2  0
 11 10  1  0
 12  7  1  0
 13  6  1  0
 14 13  1  0
 14 15  1  0
 16 15  2  0
 17 16  1  0
 18 17  1  0
 18 14  2  0
  2 19  1  0
  3 20  1  0
  4 21  1  0
  5 22  1  0
  7 23  1  0
  8 24  1  0
  9 25  1  0
 15 26  1  0
 16 27  1  0
 17 28  1  0
M  ISO  8  19  14  20  14  21  14  22  14  23  14  24  14  25  14  26  14
M  ISO  2  27  14  28   9
M  END
>  <minimizedAffinity>  (1) 
-4.61173248

>  <minimizedRMSD>  (1) 
2.03292608

$$$$
