
     RDKit          3D

 24 25  0  0  0  0  0  0  0  0999 V2000
   37.1840   21.9350   34.9590 C   0  0  0  0  0  0  0  0  0  0  0  0
   36.2620   20.9360   35.1270 C   0  0  0  0  0  0  0  0  0  0  0  0
   35.5400   20.4500   34.0710 C   0  0  0  0  0  0  0  0  0  0  0  0
   35.7420   20.9730   32.8100 C   0  0  0  0  0  0  0  0  0  0  0  0
   36.6670   21.9750   32.6460 C   0  0  0  0  0  0  0  0  0  0  0  0
   37.4100   22.4820   33.7080 C   0  0  0  0  0  0  0  0  0  0  0  0
   39.9500   22.5490   37.2730 C   0  0  0  0  0  0  0  0  0  0  0  0
   39.3510   23.2730   38.3090 C   0  0  0  0  0  0  0  0  0  0  0  0
   37.9960   23.5510   38.2110 C   0  0  0  0  0  0  0  0  0  0  0  0
   37.3100   23.1150   37.1270 N   0  0  0  0  0  0  0  0  0  0  0  0
   37.9260   22.4100   36.1370 C   0  0  0  0  0  0  0  0  0  0  0  0
   39.2440   22.1270   36.2090 N   0  0  0  0  0  0  0  0  0  0  0  0
   38.3350   23.4860   33.5230 O   0  0  0  0  0  0  0  0  0  0  0  0
   37.8590   24.7900   33.6550 C   0  0  0  0  0  0  0  0  0  0  0  0
   38.1970   25.5360   34.6180 O   0  0  0  0  0  0  0  0  0  0  0  0
   36.9920   25.3950   32.7710 O   0  0  0  0  0  0  0  0  0  0  0  0
   36.0987   20.5162   36.1305 H   0  0  0  0  0  0  0  0  0  0  0  0
   34.8035   19.6478   34.2262 H   0  0  0  0  0  0  0  0  0  0  0  0
   35.1712   20.5934   31.9497 H   0  0  0  0  0  0  0  0  0  0  0  0
   36.8261   22.3912   31.6403 H   0  0  0  0  0  0  0  0  0  0  0  0
   41.0242   22.3193   37.3299 H   0  0  0  0  0  0  0  0  0  0  0  0
   39.9374   23.6118   39.1758 H   0  0  0  0  0  0  0  0  0  0  0  0
   37.4848   24.1180   39.0029 H   0  0  0  0  0  0  0  0  0  0  0  0
   36.6949   26.3262   32.9280 H   0  0  0  0  0  0  0  0  0  0  0  0
  1  2  2  0
  1 11  1  0
  3  2  1  0
  4  3  2  0
  5  4  1  0
  5  6  2  0
  6  1  1  0
  7  8  2  0
  9  8  1  0
 10  9  2  0
 11 12  2  0
 11 10  1  0
 12  7  1  0
 13 14  1  0
 13  6  1  0
 14 15  2  0
 16 14  1  0
  2 17  1  0
  3 18  1  0
  4 19  1  0
  5 20  1  0
  7 21  1  0
  8 22  1  0
  9 23  1  0
 16 24  1  0
M  ISO  8  17  14  18  14  19  14  20  14  21  14  22  14  23  14  24   3
M  END
>  <minimizedAffinity>  (1) 
-4.27391052

>  <minimizedRMSD>  (1) 
0.354304373

$$$$
