
     RDKit          3D

 30 31  0  0  0  0  0  0  0  0999 V2000
   37.2510   21.9200   34.7270 C   0  0  0  0  0  0  0  0  0  0  0  0
   36.2650   20.9680   34.8960 C   0  0  0  0  0  0  0  0  0  0  0  0
   35.5260   20.5150   33.8390 C   0  0  0  0  0  0  0  0  0  0  0  0
   35.7640   21.0140   32.5830 C   0  0  0  0  0  0  0  0  0  0  0  0
   36.7450   21.9560   32.4330 C   0  0  0  0  0  0  0  0  0  0  0  0
   37.5200   22.4430   33.4830 C   0  0  0  0  0  0  0  0  0  0  0  0
   40.0150   22.4310   37.0480 C   0  0  0  0  0  0  0  0  0  0  0  0
   39.4290   23.1560   38.1140 C   0  0  0  0  0  0  0  0  0  0  0  0
   38.0750   23.4590   38.0150 C   0  0  0  0  0  0  0  0  0  0  0  0
   37.3730   23.0580   36.9210 N   0  0  0  0  0  0  0  0  0  0  0  0
   37.9860   22.3550   35.9090 C   0  0  0  0  0  0  0  0  0  0  0  0
   39.2810   22.0650   36.0030 N   0  0  0  0  0  0  0  0  0  0  0  0
   38.4910   23.3790   33.3050 O   0  0  0  0  0  0  0  0  0  0  0  0
   38.3470   24.7430   33.1080 C   0  0  0  0  0  0  0  0  0  0  0  0
   38.3710   25.5020   34.4380 C   0  0  0  0  0  0  0  0  0  0  0  0
   36.9310   24.9670   32.5620 C   0  0  0  0  0  0  0  0  0  0  0  0
   36.0704   20.5662   35.9013 H   0  0  0  0  0  0  0  0  0  0  0  0
   34.7456   19.7554   33.9942 H   0  0  0  0  0  0  0  0  0  0  0  0
   35.1805   20.6653   31.7181 H   0  0  0  0  0  0  0  0  0  0  0  0
   36.9326   22.3519   31.4240 H   0  0  0  0  0  0  0  0  0  0  0  0
   41.0829   22.1697   37.0854 H   0  0  0  0  0  0  0  0  0  0  0  0
   40.0217   23.4676   38.9867 H   0  0  0  0  0  0  0  0  0  0  0  0
   37.5743   24.0203   38.8176 H   0  0  0  0  0  0  0  0  0  0  0  0
   39.1566   25.0884   32.4483 H   0  0  0  0  0  0  0  0  0  0  0  0
   38.3483   24.7835   35.2706 H   0  0  0  0  0  0  0  0  0  0  0  0
   39.2887   26.1054   34.4993 H   0  0  0  0  0  0  0  0  0  0  0  0
   37.4933   26.1622   34.4993 H   0  0  0  0  0  0  0  0  0  0  0  0
   36.2280   25.0782   33.4007 H   0  0  0  0  0  0  0  0  0  0  0  0
   36.9152   25.8788   31.9469 H   0  0  0  0  0  0  0  0  0  0  0  0
   36.6345   24.1046   31.9469 H   0  0  0  0  0  0  0  0  0  0  0  0
  1  2  2  0
  1 11  1  0
  3  2  1  0
  4  3  2  0
  5  4  1  0
  5  6  2  0
  6  1  1  0
  7  8  2  0
  9  8  1  0
 10  9  2  0
 11 12  2  0
 11 10  1  0
 12  7  1  0
 13  6  1  0
 14 13  1  0
 14 15  1  0
 16 14  1  0
  2 17  1  0
  3 18  1  0
  4 19  1  0
  5 20  1  0
  7 21  1  0
  8 22  1  0
  9 23  1  0
 14 24  1  0
 15 25  1  0
 15 26  1  0
 15 27  1  0
 16 28  1  0
 16 29  1  0
 16 30  1  0
M  ISO  8  17  14  18  14  19  14  20  14  21  14  22  14  23  14  24   8
M  ISO  6  25   8  26   8  27   8  28   8  29   8  30   8
M  END
>  <minimizedAffinity>  (1) 
-4.23920488

>  <minimizedRMSD>  (1) 
0.970530391

$$$$
