
     RDKit          3D

 32 34  0  0  0  0  0  0  0  0999 V2000
   42.2350   21.6340   34.3790 S   0  0  0  0  0  0  0  0  0  0  0  0
   43.8840   22.2720   34.7000 C   0  0  0  0  0  0  0  0  0  0  0  0
   44.9630   21.6350   34.0600 C   0  0  0  0  0  0  0  0  0  0  0  0
   46.4340   22.6270   34.6870 S   0  0  0  0  0  0  0  0  0  0  0  0
   45.2750   23.7020   35.6910 C   0  0  0  0  0  0  0  0  0  0  0  0
   44.2990   23.2490   35.4400 N   0  0  0  0  0  0  0  0  0  0  0  0
   45.6890   24.8180   36.5420 N   0  0  0  0  0  0  0  0  0  0  0  0
   45.2360   25.1210   37.8810 C   0  0  0  0  0  0  0  0  0  0  0  0
   46.4210   25.7250   38.6010 C   0  0  0  0  0  0  0  0  0  0  0  0
   47.4500   25.9960   37.5380 C   0  0  0  0  0  0  0  0  0  0  0  0
   46.6340   25.8750   36.2660 C   0  0  0  0  0  0  0  0  0  0  0  0
   40.3970   22.4190   37.8410 C   0  0  0  0  0  0  0  0  0  0  0  0
   39.2820   23.1710   37.4530 C   0  0  0  0  0  0  0  0  0  0  0  0
   39.1190   23.4220   36.1130 C   0  0  0  0  0  0  0  0  0  0  0  0
   40.0290   22.9440   35.2110 N   0  0  0  0  0  0  0  0  0  0  0  0
   41.1080   22.2110   35.6390 C   0  0  0  0  0  0  0  0  0  0  0  0
   41.2600   21.9720   36.9300 N   0  0  0  0  0  0  0  0  0  0  0  0
   38.2880   23.6930   38.4340 C   0  0  0  0  0  0  0  0  0  0  0  0
   38.9700   23.9680   39.6070 F   0  0  0  0  0  0  0  0  0  0  0  0
   37.2740   22.8340   38.6870 F   0  0  0  0  0  0  0  0  0  0  0  0
   37.8380   24.9770   38.0180 F   0  0  0  0  0  0  0  0  0  0  0  0
   44.9500   20.7779   33.3707 H   0  0  0  0  0  0  0  0  0  0  0  0
   44.4032   25.8389   37.8485 H   0  0  0  0  0  0  0  0  0  0  0  0
   44.8722   24.2189   38.3947 H   0  0  0  0  0  0  0  0  0  0  0  0
   46.1298   26.6610   39.1001 H   0  0  0  0  0  0  0  0  0  0  0  0
   46.8094   25.0510   39.3788 H   0  0  0  0  0  0  0  0  0  0  0  0
   47.8770   27.0042   37.6438 H   0  0  0  0  0  0  0  0  0  0  0  0
   48.3139   25.3161   37.5754 H   0  0  0  0  0  0  0  0  0  0  0  0
   47.2778   25.6085   35.4148 H   0  0  0  0  0  0  0  0  0  0  0  0
   46.1385   26.8191   35.9954 H   0  0  0  0  0  0  0  0  0  0  0  0
   40.5617   22.1956   38.9054 H   0  0  0  0  0  0  0  0  0  0  0  0
   38.2557   24.0081   35.7647 H   0  0  0  0  0  0  0  0  0  0  0  0
  1  2  1  0
  1 16  1  0
  2  6  1  0
  3  4  1  0
  3  2  2  0
  4  5  1  0
  5  7  1  0
  6  5  2  0
  7  8  1  0
  8  9  1  0
 10  9  1  0
 11  7  1  0
 11 10  1  0
 13 12  2  0
 13 18  1  0
 14 13  1  0
 15 16  1  0
 15 14  2  0
 16 17  2  0
 17 12  1  0
 18 20  1  0
 18 19  1  0
 21 18  1  0
  3 22  1  0
  8 23  1  0
  8 24  1  0
  9 25  1  0
  9 26  1  0
 10 27  1  0
 10 28  1  0
 11 29  1  0
 11 30  1  0
 12 31  1  0
 14 32  1  0
M  ISO  8  22  14  23  13  24  13  25  13  26  13  27  13  28  13  29  13
M  ISO  3  30  13  31  14  32  14
M  END
>  <minimizedAffinity>  (1) 
-5.06547213

>  <minimizedRMSD>  (1) 
3.55753422

$$$$
