
     RDKit          3D

 24 25  0  0  0  0  0  0  0  0999 V2000
   37.1790   21.9340   34.7320 C   0  0  0  0  0  0  0  0  0  0  0  0
   36.2890   20.9020   34.8940 C   0  0  0  0  0  0  0  0  0  0  0  0
   35.5450   20.4500   33.8300 C   0  0  0  0  0  0  0  0  0  0  0  0
   35.7040   21.0510   32.5840 C   0  0  0  0  0  0  0  0  0  0  0  0
   36.6070   22.0910   32.4410 C   0  0  0  0  0  0  0  0  0  0  0  0
   37.3610   22.5550   33.5040 C   0  0  0  0  0  0  0  0  0  0  0  0
   39.9960   22.4160   37.0150 C   0  0  0  0  0  0  0  0  0  0  0  0
   39.4420   23.1430   38.0710 C   0  0  0  0  0  0  0  0  0  0  0  0
   38.0810   23.4740   37.9980 C   0  0  0  0  0  0  0  0  0  0  0  0
   37.3780   23.0710   36.9130 N   0  0  0  0  0  0  0  0  0  0  0  0
   37.9480   22.3680   35.9090 C   0  0  0  0  0  0  0  0  0  0  0  0
   39.2590   22.0400   35.9600 N   0  0  0  0  0  0  0  0  0  0  0  0
   38.2430   23.5810   33.3380 O   0  0  0  0  0  0  0  0  0  0  0  0
   37.9270   24.9290   33.1860 C   0  0  0  0  0  0  0  0  0  0  0  0
   36.1701   20.4333   35.8820 H   0  0  0  0  0  0  0  0  0  0  0  0
   34.8320   19.6227   33.9615 H   0  0  0  0  0  0  0  0  0  0  0  0
   35.1175   20.7027   31.7210 H   0  0  0  0  0  0  0  0  0  0  0  0
   36.7282   22.5616   31.4542 H   0  0  0  0  0  0  0  0  0  0  0  0
   41.0617   22.1456   37.0497 H   0  0  0  0  0  0  0  0  0  0  0  0
   40.0540   23.4466   38.9331 H   0  0  0  0  0  0  0  0  0  0  0  0
   37.5965   24.0469   38.8024 H   0  0  0  0  0  0  0  0  0  0  0  0
   37.8180   25.3940   34.1769 H   0  0  0  0  0  0  0  0  0  0  0  0
   38.7312   25.4338   32.6305 H   0  0  0  0  0  0  0  0  0  0  0  0
   36.9823   25.0238   32.6305 H   0  0  0  0  0  0  0  0  0  0  0  0
  1  2  2  0
  1 11  1  0
  3  2  1  0
  4  3  2  0
  5  4  1  0
  5  6  2  0
  6  1  1  0
  7  8  2  0
  9  8  1  0
 10  9  2  0
 11 12  2  0
 11 10  1  0
 12  7  1  0
 13  6  1  0
 14 13  1  0
  2 15  1  0
  3 16  1  0
  4 17  1  0
  5 18  1  0
  7 19  1  0
  8 20  1  0
  9 21  1  0
 14 22  1  0
 14 23  1  0
 14 24  1  0
M  ISO  8  15  14  16  14  17  14  18  14  19  14  20  14  21  14  22   8
M  ISO  2  23   8  24   8
M  END
>  <minimizedAffinity>  (1) 
-4.00205946

>  <minimizedRMSD>  (1) 
0.5851897

$$$$
