
     RDKit          3D

 42 46  0  0  0  0  0  0  0  0999 V2000
   37.1950   21.8640   34.7580 C   0  0  0  0  0  0  0  0  0  0  0  0
   36.2190   20.9110   34.9690 C   0  0  0  0  0  0  0  0  0  0  0  0
   35.4720   20.4320   33.9270 C   0  0  0  0  0  0  0  0  0  0  0  0
   35.7150   20.9240   32.6450 C   0  0  0  0  0  0  0  0  0  0  0  0
   36.6870   21.8670   32.4570 C   0  0  0  0  0  0  0  0  0  0  0  0
   37.4590   22.3690   33.5050 C   0  0  0  0  0  0  0  0  0  0  0  0
   40.0050   22.4180   37.0270 C   0  0  0  0  0  0  0  0  0  0  0  0
   39.4440   23.1740   38.0680 C   0  0  0  0  0  0  0  0  0  0  0  0
   38.0980   23.4920   37.9840 C   0  0  0  0  0  0  0  0  0  0  0  0
   37.4050   23.0530   36.9040 N   0  0  0  0  0  0  0  0  0  0  0  0
   37.9550   22.3290   35.9160 C   0  0  0  0  0  0  0  0  0  0  0  0
   39.2690   22.0160   35.9920 N   0  0  0  0  0  0  0  0  0  0  0  0
   38.4110   23.3050   33.2620 O   0  0  0  0  0  0  0  0  0  0  0  0
   37.5720   26.2930   31.6080 N   0  0  0  0  0  0  0  0  0  0  0  0
   38.0640   25.0910   31.4830 N   0  0  0  0  0  0  0  0  0  0  0  0
   38.0520   24.5130   32.6980 C   0  0  0  0  0  0  0  0  0  0  0  0
   37.5100   25.4580   33.5880 C   0  0  0  0  0  0  0  0  0  0  0  0
   37.2050   26.5980   32.8770 C   0  0  0  0  0  0  0  0  0  0  0  0
   36.6440   27.9020   33.1510 C   0  0  0  0  0  0  0  0  0  0  0  0
   36.1950   28.3330   34.3820 C   0  0  0  0  0  0  0  0  0  0  0  0
   35.7310   29.5920   34.3070 N   0  0  0  0  0  0  0  0  0  0  0  0
   35.8460   30.0550   33.0510 C   0  0  0  0  0  0  0  0  0  0  0  0
   35.5300   31.2510   32.4440 C   0  0  0  0  0  0  0  0  0  0  0  0
   35.7690   31.4390   31.0990 C   0  0  0  0  0  0  0  0  0  0  0  0
   36.3290   30.4070   30.3770 C   0  0  0  0  0  0  0  0  0  0  0  0
   36.6280   29.2320   31.0260 C   0  0  0  0  0  0  0  0  0  0  0  0
   36.4070   29.0010   32.3630 C   0  0  0  0  0  0  0  0  0  0  0  0
   36.0396   20.5323   35.9860 H   0  0  0  0  0  0  0  0  0  0  0  0
   34.6943   19.6730   34.0976 H   0  0  0  0  0  0  0  0  0  0  0  0
   35.1284   20.5558   31.7904 H   0  0  0  0  0  0  0  0  0  0  0  0
   36.8673   22.2446   31.4397 H   0  0  0  0  0  0  0  0  0  0  0  0
   41.0718   22.1526   37.0665 H   0  0  0  0  0  0  0  0  0  0  0  0
   40.0531   23.5033   38.9227 H   0  0  0  0  0  0  0  0  0  0  0  0
   37.6059   24.0832   38.7703 H   0  0  0  0  0  0  0  0  0  0  0  0
   37.4721   26.9471   30.8187 H   0  0  0  0  0  0  0  0  0  0  0  0
   37.3560   25.3117   34.6673 H   0  0  0  0  0  0  0  0  0  0  0  0
   36.2141   27.7281   35.3006 H   0  0  0  0  0  0  0  0  0  0  0  0
   35.3431   30.1251   35.0983 H   0  0  0  0  0  0  0  0  0  0  0  0
   35.0834   32.0625   33.0373 H   0  0  0  0  0  0  0  0  0  0  0  0
   35.5179   32.3930   30.6123 H   0  0  0  0  0  0  0  0  0  0  0  0
   36.5329   30.5211   29.3021 H   0  0  0  0  0  0  0  0  0  0  0  0
   37.0753   28.4201   30.4338 H   0  0  0  0  0  0  0  0  0  0  0  0
  1  2  2  0
  1 11  1  0
  3  2  1  0
  4  3  2  0
  5  4  1  0
  5  6  2  0
  6  1  1  0
  7  8  2  0
  9  8  1  0
 10  9  2  0
 11 12  2  0
 11 10  1  0
 12  7  1  0
 13  6  1  0
 14 18  1  0
 15 14  1  0
 15 16  2  0
 16 13  1  0
 16 17  1  0
 18 19  1  0
 18 17  2  0
 19 20  2  0
 21 20  1  0
 22 21  1  0
 23 22  2  0
 24 23  1  0
 25 26  1  0
 25 24  2  0
 26 27  2  0
 27 22  1  0
 27 19  1  0
  2 28  1  0
  3 29  1  0
  4 30  1  0
  5 31  1  0
  7 32  1  0
  8 33  1  0
  9 34  1  0
 14 35  1  0
 17 36  1  0
 20 37  1  0
 21 38  1  0
 23 39  1  0
 24 40  1  0
 25 41  1  0
 26 42  1  0
M  ISO  8  28  14  29  14  30  14  31  14  32  14  33  14  34  14  35   9
M  ISO  7  36  14  37  14  38   9  39  14  40  14  41  14  42  14
M  END
>  <minimizedAffinity>  (1) 
-6.32778597

>  <minimizedRMSD>  (1) 
1.75432634

$$$$
