
     RDKit          3D

 42 46  0  0  0  0  0  0  0  0999 V2000
   36.6540   28.2840   32.9420 N   0  0  0  0  0  0  0  0  0  0  0  0
   37.3470   27.2290   32.6650 N   0  0  0  0  0  0  0  0  0  0  0  0
   37.6710   26.6370   33.8400 C   0  0  0  0  0  0  0  0  0  0  0  0
   37.1320   27.3960   34.8750 C   0  0  0  0  0  0  0  0  0  0  0  0
   36.4720   28.4660   34.2710 C   0  0  0  0  0  0  0  0  0  0  0  0
   35.7330   29.5760   34.7720 N   0  0  0  0  0  0  0  0  0  0  0  0
   36.1130   30.5740   35.5900 C   0  0  0  0  0  0  0  0  0  0  0  0
   35.0530   31.3830   35.7710 N   0  0  0  0  0  0  0  0  0  0  0  0
   33.9770   30.9250   35.0790 C   0  0  0  0  0  0  0  0  0  0  0  0
   32.6890   31.4030   34.9520 C   0  0  0  0  0  0  0  0  0  0  0  0
   32.2920   32.4490   35.5310 O   0  0  0  0  0  0  0  0  0  0  0  0
   31.8100   30.7330   34.1850 N   0  0  0  0  0  0  0  0  0  0  0  0
   32.3100   29.6290   33.6040 C   0  0  0  0  0  0  0  0  0  0  0  0
   31.4640   28.8520   32.7740 N   0  0  0  0  0  0  0  0  0  0  0  0
   33.5560   29.1210   33.6940 N   0  0  0  0  0  0  0  0  0  0  0  0
   34.4580   29.7850   34.4670 C   0  0  0  0  0  0  0  0  0  0  0  0
   38.3710   25.5160   34.2710 O   0  0  0  0  0  0  0  0  0  0  0  0
   37.9210   23.2020   34.7090 C   0  0  0  0  0  0  0  0  0  0  0  0
   37.5290   21.9580   34.2730 C   0  0  0  0  0  0  0  0  0  0  0  0
   37.1860   21.7520   32.9520 C   0  0  0  0  0  0  0  0  0  0  0  0
   37.2420   22.8240   32.0660 C   0  0  0  0  0  0  0  0  0  0  0  0
   37.6360   24.0530   32.5230 C   0  0  0  0  0  0  0  0  0  0  0  0
   37.9840   24.2800   33.8530 C   0  0  0  0  0  0  0  0  0  0  0  0
   39.7690   22.8710   37.8380 C   0  0  0  0  0  0  0  0  0  0  0  0
   38.9860   23.5940   38.7660 C   0  0  0  0  0  0  0  0  0  0  0  0
   37.8200   24.1930   38.2970 C   0  0  0  0  0  0  0  0  0  0  0  0
   37.5110   24.0440   36.9890 N   0  0  0  0  0  0  0  0  0  0  0  0
   38.2700   23.3500   36.1180 C   0  0  0  0  0  0  0  0  0  0  0  0
   39.4140   22.7570   36.5520 N   0  0  0  0  0  0  0  0  0  0  0  0
   36.2786   28.9211   32.2250 H   0  0  0  0  0  0  0  0  0  0  0  0
   37.2108   27.1926   35.9532 H   0  0  0  0  0  0  0  0  0  0  0  0
   37.1117   30.7053   36.0320 H   0  0  0  0  0  0  0  0  0  0  0  0
   30.8357   31.0403   34.0540 H   0  0  0  0  0  0  0  0  0  0  0  0
   30.4855   29.1370   32.6252 H   0  0  0  0  0  0  0  0  0  0  0  0
   31.8277   28.0022   32.3195 H   0  0  0  0  0  0  0  0  0  0  0  0
   37.4884   21.1193   34.9836 H   0  0  0  0  0  0  0  0  0  0  0  0
   36.8733   20.7562   32.6049 H   0  0  0  0  0  0  0  0  0  0  0  0
   36.9723   22.6851   31.0087 H   0  0  0  0  0  0  0  0  0  0  0  0
   37.6795   24.8926   31.8137 H   0  0  0  0  0  0  0  0  0  0  0  0
   40.6959   22.3885   38.1817 H   0  0  0  0  0  0  0  0  0  0  0  0
   39.2868   23.6804   39.8205 H   0  0  0  0  0  0  0  0  0  0  0  0
   37.1695   24.7703   38.9704 H   0  0  0  0  0  0  0  0  0  0  0  0
  1  5  1  0
  2  1  1  0
  2  3  2  0
  3 17  1  0
  3  4  1  0
  5  6  1  0
  5  4  2  0
  6  7  1  0
  7  8  2  0
  9  8  1  0
 10  9  1  0
 10 11  2  0
 12 10  1  0
 13 15  2  0
 13 12  1  0
 14 13  1  0
 15 16  1  0
 16  6  1  0
 16  9  2  0
 18 28  1  0
 19 18  2  0
 20 19  1  0
 21 22  1  0
 21 20  2  0
 22 23  2  0
 23 17  1  0
 23 18  1  0
 24 25  2  0
 26 25  1  0
 27 26  2  0
 28 29  2  0
 28 27  1  0
 29 24  1  0
  1 30  1  0
  4 31  1  0
  7 32  1  0
 12 33  1  0
 14 34  1  0
 14 35  1  0
 19 36  1  0
 20 37  1  0
 21 38  1  0
 22 39  1  0
 24 40  1  0
 25 41  1  0
 26 42  1  0
M  ISO  8  30   9  31  14  32  14  33   9  36  14  37  14  38  14  39  14
M  ISO  3  40  14  41  14  42  14
M  END
>  <minimizedAffinity>  (1) 
-6.31658936

>  <minimizedRMSD>  (1) 
1.999668

$$$$
