
     RDKit          3D

 38 41  0  0  0  0  0  0  0  0999 V2000
   37.2140   21.9500   34.7140 C   0  0  0  0  0  0  0  0  0  0  0  0
   36.2740   20.9590   34.9100 C   0  0  0  0  0  0  0  0  0  0  0  0
   35.5250   20.5090   33.8420 C   0  0  0  0  0  0  0  0  0  0  0  0
   35.7420   21.0760   32.5750 C   0  0  0  0  0  0  0  0  0  0  0  0
   36.6870   22.0590   32.4310 C   0  0  0  0  0  0  0  0  0  0  0  0
   37.4540   22.5290   33.4930 C   0  0  0  0  0  0  0  0  0  0  0  0
   40.0040   22.4140   37.0350 C   0  0  0  0  0  0  0  0  0  0  0  0
   39.4410   23.1580   38.0890 C   0  0  0  0  0  0  0  0  0  0  0  0
   38.0970   23.4970   37.9960 C   0  0  0  0  0  0  0  0  0  0  0  0
   37.4320   23.0880   36.8990 N   0  0  0  0  0  0  0  0  0  0  0  0
   37.9720   22.3790   35.8950 C   0  0  0  0  0  0  0  0  0  0  0  0
   39.2710   22.0460   35.9770 N   0  0  0  0  0  0  0  0  0  0  0  0
   38.3760   23.5010   33.3010 O   0  0  0  0  0  0  0  0  0  0  0  0
   37.5570   26.2890   31.2860 N   0  0  0  0  0  0  0  0  0  0  0  0
   38.0430   25.0820   31.3170 N   0  0  0  0  0  0  0  0  0  0  0  0
   38.0200   24.6510   32.5910 C   0  0  0  0  0  0  0  0  0  0  0  0
   37.4800   25.6840   33.3700 C   0  0  0  0  0  0  0  0  0  0  0  0
   37.1930   26.7240   32.4930 C   0  0  0  0  0  0  0  0  0  0  0  0
   36.6140   28.0170   32.8450 C   0  0  0  0  0  0  0  0  0  0  0  0
   36.2420   28.3480   34.1330 C   0  0  0  0  0  0  0  0  0  0  0  0
   35.6920   29.5620   34.4880 C   0  0  0  0  0  0  0  0  0  0  0  0
   35.5340   30.4610   33.4260 C   0  0  0  0  0  0  0  0  0  0  0  0
   35.8860   30.1890   32.1190 C   0  0  0  0  0  0  0  0  0  0  0  0
   36.4300   28.9490   31.8430 C   0  0  0  0  0  0  0  0  0  0  0  0
   36.1226   20.5303   35.9116 H   0  0  0  0  0  0  0  0  0  0  0  0
   34.7711   19.7200   33.9802 H   0  0  0  0  0  0  0  0  0  0  0  0
   35.1593   20.7346   31.7067 H   0  0  0  0  0  0  0  0  0  0  0  0
   36.8457   22.4947   31.4335 H   0  0  0  0  0  0  0  0  0  0  0  0
   41.0656   22.1298   37.0816 H   0  0  0  0  0  0  0  0  0  0  0  0
   40.0449   23.4608   38.9571 H   0  0  0  0  0  0  0  0  0  0  0  0
   37.5966   24.0759   38.7862 H   0  0  0  0  0  0  0  0  0  0  0  0
   37.4639   26.8464   30.4249 H   0  0  0  0  0  0  0  0  0  0  0  0
   37.3161   25.6737   34.4577 H   0  0  0  0  0  0  0  0  0  0  0  0
   36.3934   27.5983   34.9235 H   0  0  0  0  0  0  0  0  0  0  0  0
   35.4012   29.8042   35.5209 H   0  0  0  0  0  0  0  0  0  0  0  0
   35.1014   31.4478   33.6475 H   0  0  0  0  0  0  0  0  0  0  0  0
   35.7383   30.9345   31.3238 H   0  0  0  0  0  0  0  0  0  0  0  0
   36.7203   28.7012   30.8113 H   0  0  0  0  0  0  0  0  0  0  0  0
  1  2  2  0
  1 11  1  0
  3  2  1  0
  4  3  2  0
  5  4  1  0
  5  6  2  0
  6  1  1  0
  7  8  2  0
  9  8  1  0
 10  9  2  0
 11 12  2  0
 11 10  1  0
 12  7  1  0
 13  6  1  0
 14 15  1  0
 14 18  1  0
 15 16  2  0
 16 13  1  0
 16 17  1  0
 18 19  1  0
 18 17  2  0
 19 20  2  0
 20 21  1  0
 22 21  2  0
 23 22  1  0
 24 23  2  0
 24 19  1  0
  2 25  1  0
  3 26  1  0
  4 27  1  0
  5 28  1  0
  7 29  1  0
  8 30  1  0
  9 31  1  0
 14 32  1  0
 17 33  1  0
 20 34  1  0
 21 35  1  0
 22 36  1  0
 23 37  1  0
 24 38  1  0
M  ISO  8  25  14  26  14  27  14  28  14  29  14  30  14  31  14  32   9
M  ISO  6  33  14  34  14  35  14  36  14  37  14  38  14
M  END
>  <minimizedAffinity>  (1) 
-6.03028679

>  <minimizedRMSD>  (1) 
1.75231171

$$$$
