
     RDKit          3D

 39 42  0  0  0  0  0  0  0  0999 V2000
   37.1450   21.8340   34.7540 C   0  0  0  0  0  0  0  0  0  0  0  0
   36.2090   20.8560   35.0000 C   0  0  0  0  0  0  0  0  0  0  0  0
   35.4360   20.3650   33.9810 C   0  0  0  0  0  0  0  0  0  0  0  0
   35.6170   20.8750   32.6990 C   0  0  0  0  0  0  0  0  0  0  0  0
   36.5520   21.8470   32.4740 C   0  0  0  0  0  0  0  0  0  0  0  0
   37.3480   22.3580   33.5010 C   0  0  0  0  0  0  0  0  0  0  0  0
   39.9970   22.4350   36.9600 C   0  0  0  0  0  0  0  0  0  0  0  0
   39.4600   23.1960   38.0110 C   0  0  0  0  0  0  0  0  0  0  0  0
   38.0990   23.5030   37.9530 C   0  0  0  0  0  0  0  0  0  0  0  0
   37.3970   23.0480   36.8940 N   0  0  0  0  0  0  0  0  0  0  0  0
   37.9370   22.3130   35.8930 C   0  0  0  0  0  0  0  0  0  0  0  0
   39.2490   22.0120   35.9370 N   0  0  0  0  0  0  0  0  0  0  0  0
   38.2800   23.3330   33.2540 O   0  0  0  0  0  0  0  0  0  0  0  0
   38.0250   25.1190   30.2360 N   0  0  0  0  0  0  0  0  0  0  0  0
   38.2290   23.9620   30.7770 N   0  0  0  0  0  0  0  0  0  0  0  0
   38.1650   24.1080   32.1160 C   0  0  0  0  0  0  0  0  0  0  0  0
   37.9020   25.4590   32.3880 C   0  0  0  0  0  0  0  0  0  0  0  0
   37.8160   26.0870   31.1320 C   0  0  0  0  0  0  0  0  0  0  0  0
   37.5740   27.4300   30.7290 N   0  0  0  0  0  0  0  0  0  0  0  0
   38.4030   28.2700   30.0860 C   0  0  0  0  0  0  0  0  0  0  0  0
   37.9950   29.5490   29.7730 C   0  0  0  0  0  0  0  0  0  0  0  0
   36.7320   30.0000   30.1090 C   0  0  0  0  0  0  0  0  0  0  0  0
   36.2640   31.3090   29.8090 N   0  0  0  0  0  0  0  0  0  0  0  0
   35.9090   29.1490   30.7530 N   0  0  0  0  0  0  0  0  0  0  0  0
   36.3340   27.9010   31.0470 C   0  0  0  0  0  0  0  0  0  0  0  0
   35.4800   27.1950   31.6500 O   0  0  0  0  0  0  0  0  0  0  0  0
   36.0806   20.4662   36.0206 H   0  0  0  0  0  0  0  0  0  0  0  0
   34.6868   19.5827   34.1725 H   0  0  0  0  0  0  0  0  0  0  0  0
   35.0072   20.4958   31.8657 H   0  0  0  0  0  0  0  0  0  0  0  0
   36.6809   22.2379   31.4539 H   0  0  0  0  0  0  0  0  0  0  0  0
   41.0667   22.1792   36.9796 H   0  0  0  0  0  0  0  0  0  0  0  0
   40.0873   23.5371   38.8477 H   0  0  0  0  0  0  0  0  0  0  0  0
   37.6155   24.0956   38.7436 H   0  0  0  0  0  0  0  0  0  0  0  0
   38.0239   25.2776   29.2183 H   0  0  0  0  0  0  0  0  0  0  0  0
   37.7871   25.9287   33.3760 H   0  0  0  0  0  0  0  0  0  0  0  0
   39.4131   27.9349   29.8078 H   0  0  0  0  0  0  0  0  0  0  0  0
   38.6868   30.2229   29.2464 H   0  0  0  0  0  0  0  0  0  0  0  0
   35.3122   31.5912   30.0836 H   0  0  0  0  0  0  0  0  0  0  0  0
   36.8768   31.9749   29.3171 H   0  0  0  0  0  0  0  0  0  0  0  0
  1  2  2  0
  1 11  1  0
  3  2  1  0
  4  3  2  0
  5  4  1  0
  5  6  2  0
  6  1  1  0
  7  8  2  0
  9  8  1  0
 10  9  2  0
 11 12  2  0
 11 10  1  0
 12  7  1  0
 13  6  1  0
 14 15  1  0
 14 18  1  0
 15 16  2  0
 16 17  1  0
 16 13  1  0
 18 17  2  0
 19 25  1  0
 19 18  1  0
 20 19  1  0
 21 20  2  0
 21 22  1  0
 22 24  2  0
 23 22  1  0
 24 25  1  0
 25 26  2  0
  2 27  1  0
  3 28  1  0
  4 29  1  0
  5 30  1  0
  7 31  1  0
  8 32  1  0
  9 33  1  0
 14 34  1  0
 17 35  1  0
 20 36  1  0
 21 37  1  0
 23 38  1  0
 23 39  1  0
M  ISO  8  27  14  28  14  29  14  30  14  31  14  32  14  33  14  34   9
M  ISO  3  35  14  36  14  37  14
M  END
>  <minimizedAffinity>  (1) 
-6.00024748

>  <minimizedRMSD>  (1) 
3.40576744

$$$$
