
     RDKit          3D

 36 39  0  0  0  0  0  0  0  0999 V2000
   37.1110   21.8740   34.6800 C   0  0  0  0  0  0  0  0  0  0  0  0
   36.2270   20.8440   34.8940 C   0  0  0  0  0  0  0  0  0  0  0  0
   35.4520   20.3590   33.8720 C   0  0  0  0  0  0  0  0  0  0  0  0
   35.5890   20.9510   32.6050 C   0  0  0  0  0  0  0  0  0  0  0  0
   36.4780   21.9790   32.4130 C   0  0  0  0  0  0  0  0  0  0  0  0
   37.2630   22.4660   33.4530 C   0  0  0  0  0  0  0  0  0  0  0  0
   39.9600   22.4300   36.9020 C   0  0  0  0  0  0  0  0  0  0  0  0
   39.4100   23.1730   37.9760 C   0  0  0  0  0  0  0  0  0  0  0  0
   38.0550   23.4750   37.9180 C   0  0  0  0  0  0  0  0  0  0  0  0
   37.3620   23.0390   36.8470 N   0  0  0  0  0  0  0  0  0  0  0  0
   37.9010   22.3300   35.8280 C   0  0  0  0  0  0  0  0  0  0  0  0
   39.2070   22.0310   35.8700 N   0  0  0  0  0  0  0  0  0  0  0  0
   38.1380   23.4900   33.2320 O   0  0  0  0  0  0  0  0  0  0  0  0
   37.5870   25.6480   30.4950 N   0  0  0  0  0  0  0  0  0  0  0  0
   38.0530   24.4940   30.8850 N   0  0  0  0  0  0  0  0  0  0  0  0
   37.8780   24.4090   32.2240 C   0  0  0  0  0  0  0  0  0  0  0  0
   37.2720   25.5840   32.6520 C   0  0  0  0  0  0  0  0  0  0  0  0
   37.0960   26.3650   31.5070 C   0  0  0  0  0  0  0  0  0  0  0  0
   36.5080   27.6900   31.3940 C   0  0  0  0  0  0  0  0  0  0  0  0
   36.9180   28.6070   30.4570 C   0  0  0  0  0  0  0  0  0  0  0  0
   36.2460   29.8100   30.4980 C   0  0  0  0  0  0  0  0  0  0  0  0
   35.2650   30.1100   31.3600 N   0  0  0  0  0  0  0  0  0  0  0  0
   34.8970   29.1920   32.2540 C   0  0  0  0  0  0  0  0  0  0  0  0
   35.5240   27.9950   32.2560 N   0  0  0  0  0  0  0  0  0  0  0  0
   36.1399   20.4029   35.8979 H   0  0  0  0  0  0  0  0  0  0  0  0
   34.7454   19.5326   34.0387 H   0  0  0  0  0  0  0  0  0  0  0  0
   34.9809   20.5888   31.7630 H   0  0  0  0  0  0  0  0  0  0  0  0
   36.5719   22.4283   31.4133 H   0  0  0  0  0  0  0  0  0  0  0  0
   41.0300   22.1754   36.9168 H   0  0  0  0  0  0  0  0  0  0  0  0
   40.0319   23.4982   38.8231 H   0  0  0  0  0  0  0  0  0  0  0  0
   37.5650   24.0496   38.7178 H   0  0  0  0  0  0  0  0  0  0  0  0
   37.5970   25.9693   29.5165 H   0  0  0  0  0  0  0  0  0  0  0  0
   36.9887   25.8458   33.6821 H   0  0  0  0  0  0  0  0  0  0  0  0
   37.7185   28.3981   29.7320 H   0  0  0  0  0  0  0  0  0  0  0  0
   36.5367   30.5808   29.7690 H   0  0  0  0  0  0  0  0  0  0  0  0
   34.0966   29.4054   32.9777 H   0  0  0  0  0  0  0  0  0  0  0  0
  1  2  2  0
  1 11  1  0
  3  2  1  0
  4  3  2  0
  5  4  1  0
  5  6  2  0
  6  1  1  0
  7  8  2  0
  9  8  1  0
 10  9  2  0
 11 12  2  0
 11 10  1  0
 12  7  1  0
 13  6  1  0
 14 15  1  0
 14 18  1  0
 15 16  2  0
 16 17  1  0
 16 13  1  0
 18 17  2  0
 19 18  1  0
 19 24  2  0
 20 21  2  0
 20 19  1  0
 21 22  1  0
 22 23  2  0
 23 24  1  0
  2 25  1  0
  3 26  1  0
  4 27  1  0
  5 28  1  0
  7 29  1  0
  8 30  1  0
  9 31  1  0
 14 32  1  0
 17 33  1  0
 20 34  1  0
 21 35  1  0
 23 36  1  0
M  ISO  8  25  14  26  14  27  14  28  14  29  14  30  14  31  14  32   9
M  ISO  4  33  14  34  14  35  14  36  14
M  END
>  <minimizedAffinity>  (1) 
-5.71667004

>  <minimizedRMSD>  (1) 
2.65829968

$$$$
