
     RDKit          3D

 35 38  0  0  0  0  0  0  0  0999 V2000
   36.7090   21.4530   33.7810 C   0  0  0  0  0  0  0  0  0  0  0  0
   36.0570   20.2870   34.1010 C   0  0  0  0  0  0  0  0  0  0  0  0
   35.1660   19.7240   33.2110 C   0  0  0  0  0  0  0  0  0  0  0  0
   34.9470   20.3660   31.9860 C   0  0  0  0  0  0  0  0  0  0  0  0
   35.6140   21.5300   31.6990 C   0  0  0  0  0  0  0  0  0  0  0  0
   36.5120   22.1070   32.5850 C   0  0  0  0  0  0  0  0  0  0  0  0
   39.8350   22.4370   35.4000 C   0  0  0  0  0  0  0  0  0  0  0  0
   39.4250   23.0030   36.6200 C   0  0  0  0  0  0  0  0  0  0  0  0
   38.0630   23.0370   36.8680 C   0  0  0  0  0  0  0  0  0  0  0  0
   37.2300   22.5380   35.9490 N   0  0  0  0  0  0  0  0  0  0  0  0
   37.6370   21.9930   34.7710 C   0  0  0  0  0  0  0  0  0  0  0  0
   38.9590   21.9550   34.5200 N   0  0  0  0  0  0  0  0  0  0  0  0
   37.1570   23.2620   32.2670 O   0  0  0  0  0  0  0  0  0  0  0  0
   35.1870   25.6920   30.6380 N   0  0  0  0  0  0  0  0  0  0  0  0
   35.3160   24.4430   30.9430 N   0  0  0  0  0  0  0  0  0  0  0  0
   36.4480   24.2920   31.6520 C   0  0  0  0  0  0  0  0  0  0  0  0
   37.0390   25.5540   31.7790 C   0  0  0  0  0  0  0  0  0  0  0  0
   36.1870   26.4400   31.1040 C   0  0  0  0  0  0  0  0  0  0  0  0
   36.3140   27.8810   30.9180 C   0  0  0  0  0  0  0  0  0  0  0  0
   35.7800   28.8380   31.6870 C   0  0  0  0  0  0  0  0  0  0  0  0
   35.9960   30.1560   31.3750 C   0  0  0  0  0  0  0  0  0  0  0  0
   36.7790   30.3960   30.2460 C   0  0  0  0  0  0  0  0  0  0  0  0
   37.1990   28.6580   29.6430 S   0  0  0  0  0  0  0  0  0  0  0  0
   36.2459   19.8009   35.0695 H   0  0  0  0  0  0  0  0  0  0  0  0
   34.6389   18.7907   33.4583 H   0  0  0  0  0  0  0  0  0  0  0  0
   34.2430   19.9388   31.2567 H   0  0  0  0  0  0  0  0  0  0  0  0
   35.4304   22.0228   30.7329 H   0  0  0  0  0  0  0  0  0  0  0  0
   40.9088   22.3910   35.1658 H   0  0  0  0  0  0  0  0  0  0  0  0
   40.1521   23.4002   37.3436 H   0  0  0  0  0  0  0  0  0  0  0  0
   37.6740   23.4663   37.8031 H   0  0  0  0  0  0  0  0  0  0  0  0
   34.3975   26.0685   30.0941 H   0  0  0  0  0  0  0  0  0  0  0  0
   37.9763   25.7998   32.2997 H   0  0  0  0  0  0  0  0  0  0  0  0
   35.1720   28.5690   32.5633 H   0  0  0  0  0  0  0  0  0  0  0  0
   35.5770   30.9744   31.9788 H   0  0  0  0  0  0  0  0  0  0  0  0
   37.0784   31.3619   29.8131 H   0  0  0  0  0  0  0  0  0  0  0  0
  1  2  2  0
  1 11  1  0
  3  2  1  0
  4  3  2  0
  5  4  1  0
  5  6  2  0
  6  1  1  0
  7  8  2  0
  8  9  1  0
 10  9  2  0
 11 10  1  0
 12 11  2  0
 12  7  1  0
 13  6  1  0
 14 15  1  0
 14 18  1  0
 15 16  2  0
 16 17  1  0
 16 13  1  0
 18 17  2  0
 19 18  1  0
 19 20  2  0
 21 20  1  0
 22 21  2  0
 23 22  1  0
 23 19  1  0
  2 24  1  0
  3 25  1  0
  4 26  1  0
  5 27  1  0
  7 28  1  0
  8 29  1  0
  9 30  1  0
 14 31  1  0
 17 32  1  0
 20 33  1  0
 21 34  1  0
 22 35  1  0
M  ISO  8  24  14  25  14  26  14  27  14  28  14  29  14  30  14  31   9
M  ISO  4  32  14  33  14  34  14  35  14
M  END
>  <minimizedAffinity>  (1) 
-5.59556437

>  <minimizedRMSD>  (1) 
3.02405143

$$$$
