
     RDKit          3D

 33 36  0  0  0  0  0  0  0  0999 V2000
   37.1100   21.8930   34.7300 C   0  0  0  0  0  0  0  0  0  0  0  0
   36.2370   20.8490   34.9260 C   0  0  0  0  0  0  0  0  0  0  0  0
   35.4670   20.3700   33.8810 C   0  0  0  0  0  0  0  0  0  0  0  0
   35.5960   20.9700   32.6260 C   0  0  0  0  0  0  0  0  0  0  0  0
   36.4700   22.0010   32.4670 C   0  0  0  0  0  0  0  0  0  0  0  0
   37.2540   22.5010   33.4950 C   0  0  0  0  0  0  0  0  0  0  0  0
   39.9710   22.4360   36.9360 C   0  0  0  0  0  0  0  0  0  0  0  0
   39.4180   23.1750   38.0070 C   0  0  0  0  0  0  0  0  0  0  0  0
   38.0570   23.4810   37.9590 C   0  0  0  0  0  0  0  0  0  0  0  0
   37.3620   23.0510   36.8950 N   0  0  0  0  0  0  0  0  0  0  0  0
   37.8910   22.3470   35.8750 C   0  0  0  0  0  0  0  0  0  0  0  0
   39.2120   22.0410   35.9040 N   0  0  0  0  0  0  0  0  0  0  0  0
   38.1090   23.5310   33.2850 O   0  0  0  0  0  0  0  0  0  0  0  0
   37.4630   25.7850   30.6600 N   0  0  0  0  0  0  0  0  0  0  0  0
   37.9800   24.6450   30.9840 N   0  0  0  0  0  0  0  0  0  0  0  0
   37.8150   24.4750   32.3120 C   0  0  0  0  0  0  0  0  0  0  0  0
   37.1470   25.6150   32.7910 C   0  0  0  0  0  0  0  0  0  0  0  0
   36.9340   26.4460   31.6920 C   0  0  0  0  0  0  0  0  0  0  0  0
   36.2830   27.7490   31.6450 C   0  0  0  0  0  0  0  0  0  0  0  0
   36.3470   28.5860   30.5970 N   0  0  0  0  0  0  0  0  0  0  0  0
   35.6520   29.6630   30.8890 O   0  0  0  0  0  0  0  0  0  0  0  0
   35.1330   29.5700   32.0880 C   0  0  0  0  0  0  0  0  0  0  0  0
   35.5280   28.3570   32.5760 N   0  0  0  0  0  0  0  0  0  0  0  0
   36.1500   20.3906   35.9222 H   0  0  0  0  0  0  0  0  0  0  0  0
   34.7682   19.5346   34.0351 H   0  0  0  0  0  0  0  0  0  0  0  0
   34.9973   20.6128   31.7751 H   0  0  0  0  0  0  0  0  0  0  0  0
   36.5588   22.4611   31.4718 H   0  0  0  0  0  0  0  0  0  0  0  0
   41.0410   22.1811   36.9498 H   0  0  0  0  0  0  0  0  0  0  0  0
   40.0418   23.4992   38.8530 H   0  0  0  0  0  0  0  0  0  0  0  0
   37.5723   24.0534   38.7636 H   0  0  0  0  0  0  0  0  0  0  0  0
   37.4597   26.1488   29.6964 H   0  0  0  0  0  0  0  0  0  0  0  0
   36.8498   25.8132   33.8314 H   0  0  0  0  0  0  0  0  0  0  0  0
   34.5066   30.3167   32.5980 H   0  0  0  0  0  0  0  0  0  0  0  0
  1  2  2  0
  1 11  1  0
  3  2  1  0
  4  3  2  0
  5  4  1  0
  5  6  2  0
  6  1  1  0
  7  8  2  0
  9  8  1  0
 10  9  2  0
 11 12  2  0
 11 10  1  0
 12  7  1  0
 13  6  1  0
 14 15  1  0
 14 18  1  0
 15 16  2  0
 16 17  1  0
 16 13  1  0
 18 17  2  0
 19 18  1  0
 19 23  1  0
 20 21  1  0
 20 19  2  0
 21 22  1  0
 22 23  2  0
  2 24  1  0
  3 25  1  0
  4 26  1  0
  5 27  1  0
  7 28  1  0
  8 29  1  0
  9 30  1  0
 14 31  1  0
 17 32  1  0
 22 33  1  0
M  ISO  8  24  14  25  14  26  14  27  14  28  14  29  14  30  14  31   9
M  ISO  2  32  14  33  14
M  END
>  <minimizedAffinity>  (1) 
-5.52129459

>  <minimizedRMSD>  (1) 
2.35946131

$$$$
