
     RDKit          3D

 35 38  0  0  0  0  0  0  0  0999 V2000
   37.1170   21.8730   34.6120 C   0  0  0  0  0  0  0  0  0  0  0  0
   36.2370   20.8360   34.8120 C   0  0  0  0  0  0  0  0  0  0  0  0
   35.4530   20.3780   33.7690 C   0  0  0  0  0  0  0  0  0  0  0  0
   35.5750   20.9880   32.5250 C   0  0  0  0  0  0  0  0  0  0  0  0
   36.4590   22.0190   32.3510 C   0  0  0  0  0  0  0  0  0  0  0  0
   37.2620   22.4990   33.3890 C   0  0  0  0  0  0  0  0  0  0  0  0
   39.9860   22.3540   36.8250 C   0  0  0  0  0  0  0  0  0  0  0  0
   39.4590   23.0990   37.9020 C   0  0  0  0  0  0  0  0  0  0  0  0
   38.1120   23.4290   37.8560 C   0  0  0  0  0  0  0  0  0  0  0  0
   37.3990   23.0210   36.7930 N   0  0  0  0  0  0  0  0  0  0  0  0
   37.9190   22.3070   35.7660 C   0  0  0  0  0  0  0  0  0  0  0  0
   39.2210   21.9810   35.7990 N   0  0  0  0  0  0  0  0  0  0  0  0
   38.1340   23.5270   33.1880 O   0  0  0  0  0  0  0  0  0  0  0  0
   37.4510   25.8450   30.6250 N   0  0  0  0  0  0  0  0  0  0  0  0
   37.9840   24.7030   30.9130 N   0  0  0  0  0  0  0  0  0  0  0  0
   37.8200   24.5020   32.2420 C   0  0  0  0  0  0  0  0  0  0  0  0
   37.1430   25.6080   32.7620 C   0  0  0  0  0  0  0  0  0  0  0  0
   36.9140   26.4710   31.6800 C   0  0  0  0  0  0  0  0  0  0  0  0
   36.2610   27.7410   31.6620 N   0  0  0  0  0  0  0  0  0  0  0  0
   36.6930   28.5380   30.6430 C   0  0  0  0  0  0  0  0  0  0  0  0
   35.9960   29.7390   30.7220 C   0  0  0  0  0  0  0  0  0  0  0  0
   35.1740   29.6310   31.7750 N   0  0  0  0  0  0  0  0  0  0  0  0
   35.3300   28.4240   32.3470 C   0  0  0  0  0  0  0  0  0  0  0  0
   36.1562   20.3691   35.8047 H   0  0  0  0  0  0  0  0  0  0  0  0
   34.7471   19.5480   33.9201 H   0  0  0  0  0  0  0  0  0  0  0  0
   34.9610   20.6419   31.6805 H   0  0  0  0  0  0  0  0  0  0  0  0
   36.5400   22.4862   31.3585 H   0  0  0  0  0  0  0  0  0  0  0  0
   41.0501   22.0754   36.8325 H   0  0  0  0  0  0  0  0  0  0  0  0
   40.0929   23.4066   38.7467 H   0  0  0  0  0  0  0  0  0  0  0  0
   37.6422   24.0071   38.6654 H   0  0  0  0  0  0  0  0  0  0  0  0
   37.4404   26.2370   29.6726 H   0  0  0  0  0  0  0  0  0  0  0  0
   36.8487   25.7696   33.8095 H   0  0  0  0  0  0  0  0  0  0  0  0
   37.4552   28.2778   29.8938 H   0  0  0  0  0  0  0  0  0  0  0  0
   36.0990   30.6059   30.0527 H   0  0  0  0  0  0  0  0  0  0  0  0
   34.7853   28.0572   33.2295 H   0  0  0  0  0  0  0  0  0  0  0  0
  1  2  2  0
  1 11  1  0
  3  2  1  0
  4  3  2  0
  5  4  1  0
  5  6  2  0
  6  1  1  0
  7  8  2  0
  9  8  1  0
 10  9  2  0
 11 12  2  0
 11 10  1  0
 12  7  1  0
 13  6  1  0
 14 15  1  0
 14 18  1  0
 15 16  2  0
 16 17  1  0
 16 13  1  0
 18 17  2  0
 19 18  1  0
 19 23  1  0
 20 21  2  0
 20 19  1  0
 21 22  1  0
 22 23  2  0
  2 24  1  0
  3 25  1  0
  4 26  1  0
  5 27  1  0
  7 28  1  0
  8 29  1  0
  9 30  1  0
 14 31  1  0
 17 32  1  0
 20 33  1  0
 21 34  1  0
 23 35  1  0
M  ISO  8  24  14  25  14  26  14  27  14  28  14  29  14  30  14  31   9
M  ISO  4  32  14  33  14  34  14  35  14
M  END
>  <minimizedAffinity>  (1) 
-5.50661469

>  <minimizedRMSD>  (1) 
2.40088391

$$$$
