
     RDKit          3D

 34 37  0  0  0  0  0  0  0  0999 V2000
   37.1090   21.8450   34.7550 C   0  0  0  0  0  0  0  0  0  0  0  0
   36.2090   20.8220   34.9890 C   0  0  0  0  0  0  0  0  0  0  0  0
   35.4420   20.3360   33.9570 C   0  0  0  0  0  0  0  0  0  0  0  0
   35.5790   20.8800   32.6870 C   0  0  0  0  0  0  0  0  0  0  0  0
   36.4770   21.8920   32.4800 C   0  0  0  0  0  0  0  0  0  0  0  0
   37.2680   22.4040   33.5100 C   0  0  0  0  0  0  0  0  0  0  0  0
   39.9700   22.4430   36.9460 C   0  0  0  0  0  0  0  0  0  0  0  0
   39.4280   23.1940   38.0040 C   0  0  0  0  0  0  0  0  0  0  0  0
   38.0560   23.4940   37.9550 C   0  0  0  0  0  0  0  0  0  0  0  0
   37.3450   23.0480   36.9050 N   0  0  0  0  0  0  0  0  0  0  0  0
   37.9020   22.3240   35.8970 C   0  0  0  0  0  0  0  0  0  0  0  0
   39.2130   22.0270   35.9270 N   0  0  0  0  0  0  0  0  0  0  0  0
   38.1530   23.4130   33.2690 O   0  0  0  0  0  0  0  0  0  0  0  0
   37.6300   25.5190   30.4800 N   0  0  0  0  0  0  0  0  0  0  0  0
   38.0810   24.3740   30.8980 N   0  0  0  0  0  0  0  0  0  0  0  0
   37.9060   24.3130   32.2300 C   0  0  0  0  0  0  0  0  0  0  0  0
   37.3150   25.4900   32.6440 C   0  0  0  0  0  0  0  0  0  0  0  0
   37.1420   26.2660   31.4890 C   0  0  0  0  0  0  0  0  0  0  0  0
   36.5880   27.5650   31.2980 N   0  0  0  0  0  0  0  0  0  0  0  0
   36.5950   28.6030   30.4230 C   0  0  0  0  0  0  0  0  0  0  0  0
   35.7920   29.5660   30.9100 N   0  0  0  0  0  0  0  0  0  0  0  0
   35.2810   29.1530   32.0710 C   0  0  0  0  0  0  0  0  0  0  0  0
   35.7730   27.9300   32.2990 N   0  0  0  0  0  0  0  0  0  0  0  0
   36.1069   20.3979   35.9988 H   0  0  0  0  0  0  0  0  0  0  0  0
   34.7246   19.5216   34.1361 H   0  0  0  0  0  0  0  0  0  0  0  0
   34.9702   20.5004   31.8531 H   0  0  0  0  0  0  0  0  0  0  0  0
   36.5786   22.3154   31.4698 H   0  0  0  0  0  0  0  0  0  0  0  0
   41.0410   22.1925   36.9577 H   0  0  0  0  0  0  0  0  0  0  0  0
   40.0558   23.5347   38.8405 H   0  0  0  0  0  0  0  0  0  0  0  0
   37.5767   24.0781   38.7544 H   0  0  0  0  0  0  0  0  0  0  0  0
   37.6441   25.8193   29.4949 H   0  0  0  0  0  0  0  0  0  0  0  0
   37.0362   25.7637   33.6723 H   0  0  0  0  0  0  0  0  0  0  0  0
   37.1592   28.6486   29.4798 H   0  0  0  0  0  0  0  0  0  0  0  0
   34.5877   29.7113   32.7173 H   0  0  0  0  0  0  0  0  0  0  0  0
  1  2  2  0
  1 11  1  0
  3  2  1  0
  4  3  2  0
  5  4  1  0
  5  6  2  0
  6  1  1  0
  7  8  2  0
  9  8  1  0
 10  9  2  0
 11 12  2  0
 11 10  1  0
 12  7  1  0
 13  6  1  0
 14 15  1  0
 14 18  1  0
 15 16  2  0
 16 17  1  0
 16 13  1  0
 18 17  2  0
 19 18  1  0
 19 23  1  0
 20 21  2  0
 20 19  1  0
 21 22  1  0
 22 23  2  0
  2 24  1  0
  3 25  1  0
  4 26  1  0
  5 27  1  0
  7 28  1  0
  8 29  1  0
  9 30  1  0
 14 31  1  0
 17 32  1  0
 20 33  1  0
 22 34  1  0
M  ISO  8  24  14  25  14  26  14  27  14  28  14  29  14  30  14  31   9
M  ISO  3  32  14  33  14  34  14
M  END
>  <minimizedAffinity>  (1) 
-5.50425482

>  <minimizedRMSD>  (1) 
2.44363618

$$$$
