
     RDKit          3D

 34 37  0  0  0  0  0  0  0  0999 V2000
   37.1050   21.8800   34.5960 C   0  0  0  0  0  0  0  0  0  0  0  0
   36.2120   20.8380   34.7810 C   0  0  0  0  0  0  0  0  0  0  0  0
   35.4600   20.3670   33.7380 C   0  0  0  0  0  0  0  0  0  0  0  0
   35.6160   20.9620   32.4820 C   0  0  0  0  0  0  0  0  0  0  0  0
   36.5020   21.9870   32.3200 C   0  0  0  0  0  0  0  0  0  0  0  0
   37.2780   22.4820   33.3760 C   0  0  0  0  0  0  0  0  0  0  0  0
   39.9130   22.4350   36.8640 C   0  0  0  0  0  0  0  0  0  0  0  0
   39.3470   23.1530   37.9310 C   0  0  0  0  0  0  0  0  0  0  0  0
   37.9920   23.4420   37.8590 C   0  0  0  0  0  0  0  0  0  0  0  0
   37.3120   23.0180   36.7780 N   0  0  0  0  0  0  0  0  0  0  0  0
   37.8710   22.3260   35.7560 C   0  0  0  0  0  0  0  0  0  0  0  0
   39.1800   22.0380   35.8110 N   0  0  0  0  0  0  0  0  0  0  0  0
   38.1460   23.5020   33.1680 O   0  0  0  0  0  0  0  0  0  0  0  0
   37.4730   25.8320   30.6150 N   0  0  0  0  0  0  0  0  0  0  0  0
   37.9890   24.6880   30.9140 N   0  0  0  0  0  0  0  0  0  0  0  0
   37.8410   24.4730   32.2330 C   0  0  0  0  0  0  0  0  0  0  0  0
   37.1830   25.5930   32.7340 C   0  0  0  0  0  0  0  0  0  0  0  0
   36.9490   26.4660   31.6810 C   0  0  0  0  0  0  0  0  0  0  0  0
   36.3040   27.7660   31.6490 C   0  0  0  0  0  0  0  0  0  0  0  0
   36.6770   28.7790   30.6560 C   0  0  0  0  0  0  0  0  0  0  0  0
   35.5390   30.2250   31.0840 S   0  0  0  0  0  0  0  0  0  0  0  0
   34.8030   29.2060   32.4840 C   0  0  0  0  0  0  0  0  0  0  0  0
   35.3520   28.1380   32.4890 N   0  0  0  0  0  0  0  0  0  0  0  0
   36.1055   20.3835   35.7770 H   0  0  0  0  0  0  0  0  0  0  0  0
   34.7498   19.5399   33.8847 H   0  0  0  0  0  0  0  0  0  0  0  0
   35.0252   20.6042   31.6259 H   0  0  0  0  0  0  0  0  0  0  0  0
   36.6109   22.4411   31.3240 H   0  0  0  0  0  0  0  0  0  0  0  0
   40.9854   22.1915   36.8919 H   0  0  0  0  0  0  0  0  0  0  0  0
   39.9547   23.4735   38.7901 H   0  0  0  0  0  0  0  0  0  0  0  0
   37.4886   24.0010   38.6616 H   0  0  0  0  0  0  0  0  0  0  0  0
   37.4629   26.2197   29.6608 H   0  0  0  0  0  0  0  0  0  0  0  0
   36.8978   25.7575   33.7836 H   0  0  0  0  0  0  0  0  0  0  0  0
   37.4325   28.7131   29.8592 H   0  0  0  0  0  0  0  0  0  0  0  0
   34.0110   29.5307   33.1748 H   0  0  0  0  0  0  0  0  0  0  0  0
  1  2  2  0
  1 11  1  0
  3  2  1  0
  4  3  2  0
  5  4  1  0
  5  6  2  0
  6  1  1  0
  7  8  2  0
  9  8  1  0
 10  9  2  0
 11 12  2  0
 11 10  1  0
 12  7  1  0
 13  6  1  0
 14 15  1  0
 14 18  1  0
 15 16  2  0
 16 17  1  0
 16 13  1  0
 18 17  2  0
 19 18  1  0
 19 23  1  0
 20 21  1  0
 20 19  2  0
 21 22  1  0
 22 23  2  0
  2 24  1  0
  3 25  1  0
  4 26  1  0
  5 27  1  0
  7 28  1  0
  8 29  1  0
  9 30  1  0
 14 31  1  0
 17 32  1  0
 20 33  1  0
 22 34  1  0
M  ISO  8  24  14  25  14  26  14  27  14  28  14  29  14  30  14  31   9
M  ISO  3  32  14  33  14  34  14
M  END
>  <minimizedAffinity>  (1) 
-5.48009682

>  <minimizedRMSD>  (1) 
2.33584094

$$$$
