
     RDKit          3D

 31 33  0  0  0  0  0  0  0  0999 V2000
   37.0860   21.7900   34.7600 C   0  0  0  0  0  0  0  0  0  0  0  0
   36.2020   20.7580   34.9850 C   0  0  0  0  0  0  0  0  0  0  0  0
   35.4440   20.2470   33.9520 C   0  0  0  0  0  0  0  0  0  0  0  0
   35.5970   20.8040   32.6730 C   0  0  0  0  0  0  0  0  0  0  0  0
   36.4810   21.8280   32.4770 C   0  0  0  0  0  0  0  0  0  0  0  0
   37.2550   22.3580   33.5040 C   0  0  0  0  0  0  0  0  0  0  0  0
   39.9090   22.4720   36.9630 C   0  0  0  0  0  0  0  0  0  0  0  0
   39.3240   23.1810   38.0440 C   0  0  0  0  0  0  0  0  0  0  0  0
   37.9550   23.4150   38.0000 C   0  0  0  0  0  0  0  0  0  0  0  0
   37.2730   22.9550   36.9320 N   0  0  0  0  0  0  0  0  0  0  0  0
   37.8550   22.2770   35.9050 C   0  0  0  0  0  0  0  0  0  0  0  0
   39.1750   22.0460   35.9410 N   0  0  0  0  0  0  0  0  0  0  0  0
   38.1260   23.3740   33.2840 O   0  0  0  0  0  0  0  0  0  0  0  0
   36.8260   26.6160   32.7600 N   0  0  0  0  0  0  0  0  0  0  0  0
   37.0320   25.4350   32.2300 N   0  0  0  0  0  0  0  0  0  0  0  0
   37.6380   24.6790   33.1680 C   0  0  0  0  0  0  0  0  0  0  0  0
   37.8000   25.4480   34.3150 C   0  0  0  0  0  0  0  0  0  0  0  0
   37.2630   26.7000   34.0180 C   0  0  0  0  0  0  0  0  0  0  0  0
   37.1710   27.8870   34.8630 C   0  0  0  0  0  0  0  0  0  0  0  0
   36.2780   28.7180   34.5550 O   0  0  0  0  0  0  0  0  0  0  0  0
   38.0470   28.0510   35.9450 O   0  0  0  0  0  0  0  0  0  0  0  0
   36.0997   20.3380   35.9965 H   0  0  0  0  0  0  0  0  0  0  0  0
   34.7367   19.4228   34.1265 H   0  0  0  0  0  0  0  0  0  0  0  0
   35.0064   20.4171   31.8295 H   0  0  0  0  0  0  0  0  0  0  0  0
   36.5844   22.2499   31.4664 H   0  0  0  0  0  0  0  0  0  0  0  0
   40.9905   22.2714   36.9714 H   0  0  0  0  0  0  0  0  0  0  0  0
   39.9339   23.5337   38.8887 H   0  0  0  0  0  0  0  0  0  0  0  0
   37.4448   23.9575   38.8096 H   0  0  0  0  0  0  0  0  0  0  0  0
   36.3754   27.3952   32.2594 H   0  0  0  0  0  0  0  0  0  0  0  0
   38.2586   25.1327   35.2638 H   0  0  0  0  0  0  0  0  0  0  0  0
   37.9825   28.8569   36.5164 H   0  0  0  0  0  0  0  0  0  0  0  0
  1  2  2  0
  1 11  1  0
  3  2  1  0
  4  3  2  0
  5  4  1  0
  5  6  2  0
  6  1  1  0
  7  8  2  0
  9  8  1  0
 10  9  2  0
 11 12  2  0
 11 10  1  0
 12  7  1  0
 13  6  1  0
 14 18  1  0
 15 14  1  0
 15 16  2  0
 16 13  1  0
 16 17  1  0
 18 17  2  0
 18 19  1  0
 19 21  1  0
 20 19  2  0
  2 22  1  0
  3 23  1  0
  4 24  1  0
  5 25  1  0
  7 26  1  0
  8 27  1  0
  9 28  1  0
 14 29  1  0
 17 30  1  0
 21 31  1  0
M  ISO  8  22  14  23  14  24  14  25  14  26  14  27  14  28  14  29   9
M  ISO  2  30  14  31   3
M  END
>  <minimizedAffinity>  (1) 
-5.38307476

>  <minimizedRMSD>  (1) 
0.412986428

$$$$
