
     RDKit          3D

 37 39  0  0  0  0  0  0  0  0999 V2000
   37.1200   21.8780   34.5810 C   0  0  0  0  0  0  0  0  0  0  0  0
   36.2530   20.8320   34.7790 C   0  0  0  0  0  0  0  0  0  0  0  0
   35.4710   20.3740   33.7350 C   0  0  0  0  0  0  0  0  0  0  0  0
   35.5800   20.9910   32.4990 C   0  0  0  0  0  0  0  0  0  0  0  0
   36.4570   22.0390   32.3260 C   0  0  0  0  0  0  0  0  0  0  0  0
   37.2590   22.5180   33.3720 C   0  0  0  0  0  0  0  0  0  0  0  0
   40.0080   22.3530   36.7840 C   0  0  0  0  0  0  0  0  0  0  0  0
   39.4750   23.0880   37.8670 C   0  0  0  0  0  0  0  0  0  0  0  0
   38.1270   23.4160   37.8320 C   0  0  0  0  0  0  0  0  0  0  0  0
   37.4110   23.0090   36.7640 N   0  0  0  0  0  0  0  0  0  0  0  0
   37.9220   22.3110   35.7380 C   0  0  0  0  0  0  0  0  0  0  0  0
   39.2380   21.9830   35.7570 N   0  0  0  0  0  0  0  0  0  0  0  0
   38.1120   23.5520   33.1660 O   0  0  0  0  0  0  0  0  0  0  0  0
   37.3430   25.9690   30.7150 N   0  0  0  0  0  0  0  0  0  0  0  0
   37.9310   24.8410   30.9630 N   0  0  0  0  0  0  0  0  0  0  0  0
   37.7650   24.5490   32.2700 C   0  0  0  0  0  0  0  0  0  0  0  0
   37.0190   25.5840   32.8390 C   0  0  0  0  0  0  0  0  0  0  0  0
   36.7590   26.4950   31.8020 C   0  0  0  0  0  0  0  0  0  0  0  0
   35.9960   27.7860   31.8590 C   0  0  0  0  0  0  0  0  0  0  0  0
   36.2340   28.5290   33.1470 C   0  0  0  0  0  0  0  0  0  0  0  0
   36.4650   28.6810   30.7270 C   0  0  0  0  0  0  0  0  0  0  0  0
   36.1805   20.3580   35.7690 H   0  0  0  0  0  0  0  0  0  0  0  0
   34.7750   19.5351   33.8828 H   0  0  0  0  0  0  0  0  0  0  0  0
   34.9656   20.6436   31.6553 H   0  0  0  0  0  0  0  0  0  0  0  0
   36.5306   22.5148   31.3370 H   0  0  0  0  0  0  0  0  0  0  0  0
   41.0739   22.0812   36.7867 H   0  0  0  0  0  0  0  0  0  0  0  0
   40.1098   23.3911   38.7127 H   0  0  0  0  0  0  0  0  0  0  0  0
   37.6589   23.9879   38.6468 H   0  0  0  0  0  0  0  0  0  0  0  0
   37.3260   26.4127   29.7856 H   0  0  0  0  0  0  0  0  0  0  0  0
   36.6995   25.6685   33.8882 H   0  0  0  0  0  0  0  0  0  0  0  0
   34.9264   27.5415   31.7808 H   0  0  0  0  0  0  0  0  0  0  0  0
   36.0214   27.8651   33.9979 H   0  0  0  0  0  0  0  0  0  0  0  0
   37.2826   28.8583   33.1920 H   0  0  0  0  0  0  0  0  0  0  0  0
   35.5719   29.4063   33.1920 H   0  0  0  0  0  0  0  0  0  0  0  0
   36.9374   29.5826   31.1441 H   0  0  0  0  0  0  0  0  0  0  0  0
   37.1943   28.1377   30.1081 H   0  0  0  0  0  0  0  0  0  0  0  0
   35.6032   28.9715   30.1081 H   0  0  0  0  0  0  0  0  0  0  0  0
  1  2  2  0
  1 11  1  0
  3  2  1  0
  4  3  2  0
  5  4  1  0
  5  6  2  0
  6  1  1  0
  7  8  2  0
  9  8  1  0
 10  9  2  0
 11 12  2  0
 11 10  1  0
 12  7  1  0
 13  6  1  0
 14 15  1  0
 14 18  1  0
 15 16  2  0
 16 17  1  0
 16 13  1  0
 18 19  1  0
 18 17  2  0
 19 20  1  0
 21 19  1  0
  2 22  1  0
  3 23  1  0
  4 24  1  0
  5 25  1  0
  7 26  1  0
  8 27  1  0
  9 28  1  0
 14 29  1  0
 17 30  1  0
 19 31  1  0
 20 32  1  0
 20 33  1  0
 20 34  1  0
 21 35  1  0
 21 36  1  0
 21 37  1  0
M  ISO  8  22  14  23  14  24  14  25  14  26  14  27  14  28  14  29   9
M  ISO  8  30  14  31   8  32   8  33   8  34   8  35   8  36   8  37   8
M  END
>  <minimizedAffinity>  (1) 
-5.25962543

>  <minimizedRMSD>  (1) 
1.87004113

$$$$
