
     RDKit          3D

 40 42  0  0  0  0  0  0  0  0999 V2000
   36.9860   21.7140   34.3720 C   0  0  0  0  0  0  0  0  0  0  0  0
   36.0910   20.6950   34.6210 C   0  0  0  0  0  0  0  0  0  0  0  0
   35.3060   20.2000   33.6110 C   0  0  0  0  0  0  0  0  0  0  0  0
   35.4160   20.7340   32.3310 C   0  0  0  0  0  0  0  0  0  0  0  0
   36.3170   21.7500   32.1130 C   0  0  0  0  0  0  0  0  0  0  0  0
   37.1220   22.2650   33.1230 C   0  0  0  0  0  0  0  0  0  0  0  0
   39.8900   22.3540   36.4800 C   0  0  0  0  0  0  0  0  0  0  0  0
   39.3600   23.0790   37.5710 C   0  0  0  0  0  0  0  0  0  0  0  0
   37.9920   23.3430   37.5700 C   0  0  0  0  0  0  0  0  0  0  0  0
   37.2700   22.8860   36.5240 N   0  0  0  0  0  0  0  0  0  0  0  0
   37.7940   22.1960   35.4930 C   0  0  0  0  0  0  0  0  0  0  0  0
   39.1090   21.9350   35.4780 N   0  0  0  0  0  0  0  0  0  0  0  0
   37.9980   23.2730   32.8480 O   0  0  0  0  0  0  0  0  0  0  0  0
   36.9330   25.9530   30.8340 N   0  0  0  0  0  0  0  0  0  0  0  0
   37.3510   24.7300   30.8530 N   0  0  0  0  0  0  0  0  0  0  0  0
   37.5650   24.3890   32.1410 C   0  0  0  0  0  0  0  0  0  0  0  0
   37.2500   25.4920   32.9350 C   0  0  0  0  0  0  0  0  0  0  0  0
   36.8380   26.5040   32.0500 C   0  0  0  0  0  0  0  0  0  0  0  0
   36.3920   27.8930   32.4020 C   0  0  0  0  0  0  0  0  0  0  0  0
   34.9220   28.0790   32.0690 C   0  0  0  0  0  0  0  0  0  0  0  0
   36.5650   28.1930   33.8530 C   0  0  0  0  0  0  0  0  0  0  0  0
   37.1390   28.8840   31.5190 C   0  0  0  0  0  0  0  0  0  0  0  0
   36.0061   20.2769   35.6349 H   0  0  0  0  0  0  0  0  0  0  0  0
   34.5940   19.3859   33.8118 H   0  0  0  0  0  0  0  0  0  0  0  0
   34.7940   20.3508   31.5087 H   0  0  0  0  0  0  0  0  0  0  0  0
   36.4041   22.1714   31.1007 H   0  0  0  0  0  0  0  0  0  0  0  0
   40.9666   22.1296   36.4541 H   0  0  0  0  0  0  0  0  0  0  0  0
   40.0053   23.4231   38.3927 H   0  0  0  0  0  0  0  0  0  0  0  0
   37.5179   23.9024   38.3900 H   0  0  0  0  0  0  0  0  0  0  0  0
   36.6959   26.4552   29.9665 H   0  0  0  0  0  0  0  0  0  0  0  0
   37.3115   25.5569   34.0314 H   0  0  0  0  0  0  0  0  0  0  0  0
   34.3415   28.1525   33.0005 H   0  0  0  0  0  0  0  0  0  0  0  0
   34.7926   29.0007   31.4827 H   0  0  0  0  0  0  0  0  0  0  0  0
   34.5671   27.2186   31.4827 H   0  0  0  0  0  0  0  0  0  0  0  0
   36.1036   27.3929   34.4504 H   0  0  0  0  0  0  0  0  0  0  0  0
   37.6375   28.2550   34.0893 H   0  0  0  0  0  0  0  0  0  0  0  0
   36.0814   29.1523   34.0893 H   0  0  0  0  0  0  0  0  0  0  0  0
   37.6807   29.6027   32.1514 H   0  0  0  0  0  0  0  0  0  0  0  0
   37.8551   28.3419   30.8839 H   0  0  0  0  0  0  0  0  0  0  0  0
   36.4207   29.4231   30.8839 H   0  0  0  0  0  0  0  0  0  0  0  0
  1  2  2  0
  1 11  1  0
  3  2  1  0
  4  3  2  0
  5  4  1  0
  5  6  2  0
  6  1  1  0
  7  8  2  0
  9  8  1  0
 10  9  2  0
 11 10  1  0
 12 11  2  0
 12  7  1  0
 13  6  1  0
 14 15  1  0
 14 18  1  0
 15 16  2  0
 16 13  1  0
 16 17  1  0
 18 19  1  0
 18 17  2  0
 19 21  1  0
 20 19  1  0
 22 19  1  0
  2 23  1  0
  3 24  1  0
  4 25  1  0
  5 26  1  0
  7 27  1  0
  8 28  1  0
  9 29  1  0
 14 30  1  0
 17 31  1  0
 20 32  1  0
 20 33  1  0
 20 34  1  0
 21 35  1  0
 21 36  1  0
 21 37  1  0
 22 38  1  0
 22 39  1  0
 22 40  1  0
M  ISO  8  23  14  24  14  25  14  26  14  27  14  28  14  29  14  30   9
M  ISO  8  31  14  32   8  33   8  34   8  35   8  36   8  37   8  38   8
M  ISO  2  39   8  40   8
M  END
>  <minimizedAffinity>  (1) 
-5.25026321

>  <minimizedRMSD>  (1) 
1.69146645

$$$$
