
     RDKit          3D

 35 37  0  0  0  0  0  0  0  0999 V2000
   37.0270   21.7440   34.5640 C   0  0  0  0  0  0  0  0  0  0  0  0
   36.1210   20.7300   34.7770 C   0  0  0  0  0  0  0  0  0  0  0  0
   35.4110   20.2020   33.7100 C   0  0  0  0  0  0  0  0  0  0  0  0
   35.6250   20.7090   32.4370 C   0  0  0  0  0  0  0  0  0  0  0  0
   36.5370   21.7260   32.2570 C   0  0  0  0  0  0  0  0  0  0  0  0
   37.2630   22.2720   33.3130 C   0  0  0  0  0  0  0  0  0  0  0  0
   39.7940   22.4820   36.8310 C   0  0  0  0  0  0  0  0  0  0  0  0
   39.1910   23.1950   37.8770 C   0  0  0  0  0  0  0  0  0  0  0  0
   37.8160   23.4210   37.7910 C   0  0  0  0  0  0  0  0  0  0  0  0
   37.1520   22.9420   36.7160 N   0  0  0  0  0  0  0  0  0  0  0  0
   37.7450   22.2600   35.7250 C   0  0  0  0  0  0  0  0  0  0  0  0
   39.0850   22.0340   35.7950 N   0  0  0  0  0  0  0  0  0  0  0  0
   38.1450   23.2680   33.0740 O   0  0  0  0  0  0  0  0  0  0  0  0
   37.6440   25.5790   30.4730 N   0  0  0  0  0  0  0  0  0  0  0  0
   38.3470   24.5790   30.8940 N   0  0  0  0  0  0  0  0  0  0  0  0
   37.8610   24.2250   32.1070 C   0  0  0  0  0  0  0  0  0  0  0  0
   36.7990   25.0890   32.4030 C   0  0  0  0  0  0  0  0  0  0  0  0
   36.6840   25.9590   31.3180 C   0  0  0  0  0  0  0  0  0  0  0  0
   35.7330   27.0110   31.1790 N   0  0  0  0  0  0  0  0  0  0  0  0
   36.0460   28.3260   31.5740 C   0  0  0  0  0  0  0  0  0  0  0  0
   37.2720   28.7520   31.3820 N   0  0  0  0  0  0  0  0  0  0  0  0
   35.0170   29.1470   32.1670 N   0  0  0  0  0  0  0  0  0  0  0  0
   37.4540   29.7320   31.6920 H   0  0  0  0  0  0  0  0  0  0  0  0
   35.9606   20.3391   35.7926 H   0  0  0  0  0  0  0  0  0  0  0  0
   34.6863   19.3903   33.8711 H   0  0  0  0  0  0  0  0  0  0  0  0
   35.0711   20.3025   31.5780 H   0  0  0  0  0  0  0  0  0  0  0  0
   36.6976   22.1209   31.2430 H   0  0  0  0  0  0  0  0  0  0  0  0
   40.8762   22.2881   36.8662 H   0  0  0  0  0  0  0  0  0  0  0  0
   39.7782   23.5619   38.7317 H   0  0  0  0  0  0  0  0  0  0  0  0
   37.2859   23.9756   38.5793 H   0  0  0  0  0  0  0  0  0  0  0  0
   37.8100   26.0405   29.5673 H   0  0  0  0  0  0  0  0  0  0  0  0
   36.1784   25.0829   33.3112 H   0  0  0  0  0  0  0  0  0  0  0  0
   34.8038   26.8068   30.7842 H   0  0  0  0  0  0  0  0  0  0  0  0
   35.2323   30.1106   32.4604 H   0  0  0  0  0  0  0  0  0  0  0  0
   34.0676   28.7691   32.2966 H   0  0  0  0  0  0  0  0  0  0  0  0
  1  2  2  0
  1 11  1  0
  3  2  1  0
  4  3  2  0
  5  4  1  0
  5  6  2  0
  6  1  1  0
  7  8  2  0
  9  8  1  0
 10  9  2  0
 11 12  2  0
 11 10  1  0
 12  7  1  0
 13  6  1  0
 14 15  1  0
 14 18  1  0
 15 16  2  0
 16 17  1  0
 16 13  1  0
 18 17  2  0
 19 18  1  0
 19 20  1  0
 20 22  1  0
 21 20  2  0
 21 23  1  0
  2 24  1  0
  3 25  1  0
  4 26  1  0
  5 27  1  0
  7 28  1  0
  8 29  1  0
  9 30  1  0
 14 31  1  0
 17 32  1  0
 19 33  1  0
 22 34  1  0
 22 35  1  0
M  ISO  8  24  14  25  14  26  14  27  14  28  14  29  14  30  14  31   9
M  ISO  1  32  14
M  END
>  <minimizedAffinity>  (1) 
-5.24697161

>  <minimizedRMSD>  (1) 
2.56089044

$$$$
