
     RDKit          3D

 35 38  0  0  0  0  0  0  0  0999 V2000
   37.0790   21.8090   34.4720 C   0  0  0  0  0  0  0  0  0  0  0  0
   36.1820   20.7780   34.6960 C   0  0  0  0  0  0  0  0  0  0  0  0
   35.4090   20.3030   33.6650 C   0  0  0  0  0  0  0  0  0  0  0  0
   35.5450   20.8750   32.3980 C   0  0  0  0  0  0  0  0  0  0  0  0
   36.4430   21.8970   32.2060 C   0  0  0  0  0  0  0  0  0  0  0  0
   37.2360   22.3930   33.2400 C   0  0  0  0  0  0  0  0  0  0  0  0
   39.9440   22.3410   36.6680 C   0  0  0  0  0  0  0  0  0  0  0  0
   39.4230   23.0890   37.7360 C   0  0  0  0  0  0  0  0  0  0  0  0
   38.0710   23.4100   37.6950 C   0  0  0  0  0  0  0  0  0  0  0  0
   37.3600   22.9810   36.6350 N   0  0  0  0  0  0  0  0  0  0  0  0
   37.8650   22.2630   35.6100 C   0  0  0  0  0  0  0  0  0  0  0  0
   39.1790   21.9520   35.6520 N   0  0  0  0  0  0  0  0  0  0  0  0
   38.1180   23.4070   33.0200 O   0  0  0  0  0  0  0  0  0  0  0  0
   37.3040   25.9650   30.7250 N   0  0  0  0  0  0  0  0  0  0  0  0
   37.9180   24.8220   30.8980 N   0  0  0  0  0  0  0  0  0  0  0  0
   37.7490   24.4620   32.1840 C   0  0  0  0  0  0  0  0  0  0  0  0
   36.9960   25.4390   32.8100 C   0  0  0  0  0  0  0  0  0  0  0  0
   36.7180   26.4050   31.8450 C   0  0  0  0  0  0  0  0  0  0  0  0
   35.9360   27.6870   31.9600 C   0  0  0  0  0  0  0  0  0  0  0  0
   36.2000   28.5310   33.1670 C   0  0  0  0  0  0  0  0  0  0  0  0
   36.6520   28.9780   31.8030 C   0  0  0  0  0  0  0  0  0  0  0  0
   36.0886   20.3392   35.7004 H   0  0  0  0  0  0  0  0  0  0  0  0
   34.6937   19.4846   33.8344 H   0  0  0  0  0  0  0  0  0  0  0  0
   34.9362   20.5091   31.5581 H   0  0  0  0  0  0  0  0  0  0  0  0
   36.5395   22.3386   31.2032 H   0  0  0  0  0  0  0  0  0  0  0  0
   41.0102   22.0703   36.6717 H   0  0  0  0  0  0  0  0  0  0  0  0
   40.0605   23.4089   38.5734 H   0  0  0  0  0  0  0  0  0  0  0  0
   37.5991   23.9933   38.4994 H   0  0  0  0  0  0  0  0  0  0  0  0
   37.2751   26.4694   29.8274 H   0  0  0  0  0  0  0  0  0  0  0  0
   36.6788   25.4510   33.8632 H   0  0  0  0  0  0  0  0  0  0  0  0
   35.0454   27.2466   31.4878 H   0  0  0  0  0  0  0  0  0  0  0  0
   35.3704   29.0487   33.6707 H   0  0  0  0  0  0  0  0  0  0  0  0
   36.6885   28.3732   34.1399 H   0  0  0  0  0  0  0  0  0  0  0  0
   37.7234   28.9858   31.5540 H   0  0  0  0  0  0  0  0  0  0  0  0
   36.5031   29.8802   31.1916 H   0  0  0  0  0  0  0  0  0  0  0  0
  1  2  2  0
  1 11  1  0
  3  2  1  0
  4  3  2  0
  5  4  1  0
  5  6  2  0
  6  1  1  0
  7  8  2  0
  9  8  1  0
 10  9  2  0
 11 12  2  0
 11 10  1  0
 12  7  1  0
 13  6  1  0
 14 15  1  0
 14 18  1  0
 15 16  2  0
 16 17  1  0
 16 13  1  0
 18 19  1  0
 18 17  2  0
 19 20  1  0
 21 19  1  0
 21 20  1  0
  2 22  1  0
  3 23  1  0
  4 24  1  0
  5 25  1  0
  7 26  1  0
  8 27  1  0
  9 28  1  0
 14 29  1  0
 17 30  1  0
 19 31  1  0
 20 32  1  0
 20 33  1  0
 21 34  1  0
 21 35  1  0
M  ISO  8  22  14  23  14  24  14  25  14  26  14  27  14  28  14  29   9
M  ISO  6  30  14  31  13  32  13  33  13  34  13  35  13
M  END
>  <minimizedAffinity>  (1) 
-5.22469807

>  <minimizedRMSD>  (1) 
1.79396963

$$$$
