
     RDKit          3D

 31 33  0  0  0  0  0  0  0  0999 V2000
   37.2070   21.9640   34.7120 C   0  0  0  0  0  0  0  0  0  0  0  0
   36.3110   20.9320   34.8730 C   0  0  0  0  0  0  0  0  0  0  0  0
   35.5680   20.4920   33.7980 C   0  0  0  0  0  0  0  0  0  0  0  0
   35.7370   21.0980   32.5590 C   0  0  0  0  0  0  0  0  0  0  0  0
   36.6420   22.1290   32.4270 C   0  0  0  0  0  0  0  0  0  0  0  0
   37.4030   22.5940   33.4950 C   0  0  0  0  0  0  0  0  0  0  0  0
   40.0020   22.4100   37.0220 C   0  0  0  0  0  0  0  0  0  0  0  0
   39.4450   23.1420   38.0810 C   0  0  0  0  0  0  0  0  0  0  0  0
   38.1030   23.4790   37.9930 C   0  0  0  0  0  0  0  0  0  0  0  0
   37.4190   23.0850   36.9020 N   0  0  0  0  0  0  0  0  0  0  0  0
   37.9600   22.3820   35.8870 C   0  0  0  0  0  0  0  0  0  0  0  0
   39.2650   22.0510   35.9660 N   0  0  0  0  0  0  0  0  0  0  0  0
   38.2820   23.6090   33.3240 O   0  0  0  0  0  0  0  0  0  0  0  0
   37.0990   26.8040   32.4030 N   0  0  0  0  0  0  0  0  0  0  0  0
   37.5100   25.6330   31.9800 N   0  0  0  0  0  0  0  0  0  0  0  0
   37.8110   24.8910   33.0630 C   0  0  0  0  0  0  0  0  0  0  0  0
   37.5610   25.6730   34.2010 C   0  0  0  0  0  0  0  0  0  0  0  0
   37.1040   26.8990   33.7370 C   0  0  0  0  0  0  0  0  0  0  0  0
   36.6980   28.0870   34.5700 C   0  0  0  0  0  0  0  0  0  0  0  0
   36.1877   20.4586   35.8582 H   0  0  0  0  0  0  0  0  0  0  0  0
   34.8483   19.6691   33.9201 H   0  0  0  0  0  0  0  0  0  0  0  0
   35.1534   20.7577   31.6909 H   0  0  0  0  0  0  0  0  0  0  0  0
   36.7672   22.6014   31.4415 H   0  0  0  0  0  0  0  0  0  0  0  0
   41.0641   22.1263   37.0611 H   0  0  0  0  0  0  0  0  0  0  0  0
   40.0511   23.4380   38.9500 H   0  0  0  0  0  0  0  0  0  0  0  0
   37.6106   24.0524   38.7923 H   0  0  0  0  0  0  0  0  0  0  0  0
   36.8046   27.5669   31.7767 H   0  0  0  0  0  0  0  0  0  0  0  0
   37.6994   25.3744   35.2506 H   0  0  0  0  0  0  0  0  0  0  0  0
   36.7846   27.8335   35.6369 H   0  0  0  0  0  0  0  0  0  0  0  0
   37.3564   28.9378   34.3406 H   0  0  0  0  0  0  0  0  0  0  0  0
   35.6566   28.3570   34.3406 H   0  0  0  0  0  0  0  0  0  0  0  0
  1  2  2  0
  1 11  1  0
  3  2  1  0
  4  3  2  0
  5  4  1  0
  5  6  2  0
  6  1  1  0
  7  8  2  0
  9  8  1  0
 10  9  2  0
 11 12  2  0
 11 10  1  0
 12  7  1  0
 13  6  1  0
 14 18  1  0
 15 14  1  0
 15 16  2  0
 16 13  1  0
 16 17  1  0
 18 17  2  0
 18 19  1  0
  2 20  1  0
  3 21  1  0
  4 22  1  0
  5 23  1  0
  7 24  1  0
  8 25  1  0
  9 26  1  0
 14 27  1  0
 17 28  1  0
 19 29  1  0
 19 30  1  0
 19 31  1  0
M  ISO  8  20  14  21  14  22  14  23  14  24  14  25  14  26  14  27   9
M  ISO  4  28  14  29   8  30   8  31   8
M  END
>  <minimizedAffinity>  (1) 
-4.98969412

>  <minimizedRMSD>  (1) 
0.344100058

$$$$
