
     RDKit          3D

 29 31  0  0  0  0  0  0  0  0999 V2000
   37.1720   21.9780   34.7200 C   0  0  0  0  0  0  0  0  0  0  0  0
   36.3240   20.9010   34.8600 C   0  0  0  0  0  0  0  0  0  0  0  0
   35.5750   20.4540   33.7980 C   0  0  0  0  0  0  0  0  0  0  0  0
   35.6950   21.1180   32.5670 C   0  0  0  0  0  0  0  0  0  0  0  0
   36.5490   22.1900   32.4540 C   0  0  0  0  0  0  0  0  0  0  0  0
   37.3060   22.6470   33.5230 C   0  0  0  0  0  0  0  0  0  0  0  0
   39.9880   22.4190   37.0000 C   0  0  0  0  0  0  0  0  0  0  0  0
   39.4340   23.1270   38.0760 C   0  0  0  0  0  0  0  0  0  0  0  0
   38.0690   23.4580   38.0160 C   0  0  0  0  0  0  0  0  0  0  0  0
   37.3770   23.0710   36.9220 N   0  0  0  0  0  0  0  0  0  0  0  0
   37.9300   22.3900   35.8960 C   0  0  0  0  0  0  0  0  0  0  0  0
   39.2520   22.0670   35.9490 N   0  0  0  0  0  0  0  0  0  0  0  0
   38.1450   23.7110   33.3830 O   0  0  0  0  0  0  0  0  0  0  0  0
   36.7470   26.9050   32.8740 N   0  0  0  0  0  0  0  0  0  0  0  0
   37.0070   25.7420   32.3360 N   0  0  0  0  0  0  0  0  0  0  0  0
   37.6170   24.9870   33.2690 C   0  0  0  0  0  0  0  0  0  0  0  0
   37.7290   25.7470   34.4350 C   0  0  0  0  0  0  0  0  0  0  0  0
   37.1530   26.9910   34.1460 C   0  0  0  0  0  0  0  0  0  0  0  0
   37.0020   28.1140   34.9530 O   0  0  0  0  0  0  0  0  0  0  0  0
   36.2457   20.3933   35.8327 H   0  0  0  0  0  0  0  0  0  0  0  0
   34.8967   19.5953   33.9100 H   0  0  0  0  0  0  0  0  0  0  0  0
   35.1095   20.7829   31.6981 H   0  0  0  0  0  0  0  0  0  0  0  0
   36.6347   22.7019   31.4842 H   0  0  0  0  0  0  0  0  0  0  0  0
   41.0540   22.1488   37.0253 H   0  0  0  0  0  0  0  0  0  0  0  0
   40.0491   23.4149   38.9413 H   0  0  0  0  0  0  0  0  0  0  0  0
   37.5814   24.0127   38.8312 H   0  0  0  0  0  0  0  0  0  0  0  0
   36.2794   27.6733   32.3720 H   0  0  0  0  0  0  0  0  0  0  0  0
   38.1788   25.4324   35.3883 H   0  0  0  0  0  0  0  0  0  0  0  0
   37.3297   28.1000   35.8871 H   0  0  0  0  0  0  0  0  0  0  0  0
  1  2  2  0
  1 11  1  0
  3  2  1  0
  4  3  2  0
  5  4  1  0
  5  6  2  0
  6  1  1  0
  7  8  2  0
  9  8  1  0
 10  9  2  0
 11 12  2  0
 11 10  1  0
 12  7  1  0
 13  6  1  0
 14 18  1  0
 15 14  1  0
 15 16  2  0
 16 13  1  0
 16 17  1  0
 18 17  2  0
 18 19  1  0
  2 20  1  0
  3 21  1  0
  4 22  1  0
  5 23  1  0
  7 24  1  0
  8 25  1  0
  9 26  1  0
 14 27  1  0
 17 28  1  0
 19 29  1  0
M  ISO  8  20  14  21  14  22  14  23  14  24  14  25  14  26  14  27   9
M  ISO  2  28  14  29   3
M  END
>  <minimizedAffinity>  (1) 
-4.91987038

>  <minimizedRMSD>  (1) 
0.0837972313

$$$$
