
     RDKit          3D

 30 32  0  0  0  0  0  0  0  0999 V2000
   37.0540   21.7800   34.5040 C   0  0  0  0  0  0  0  0  0  0  0  0
   36.1870   20.7250   34.7000 C   0  0  0  0  0  0  0  0  0  0  0  0
   35.4230   20.2510   33.6710 C   0  0  0  0  0  0  0  0  0  0  0  0
   35.5330   20.8540   32.4070 C   0  0  0  0  0  0  0  0  0  0  0  0
   36.4070   21.9060   32.2410 C   0  0  0  0  0  0  0  0  0  0  0  0
   37.1860   22.3950   33.2810 C   0  0  0  0  0  0  0  0  0  0  0  0
   39.9230   22.3540   36.6890 C   0  0  0  0  0  0  0  0  0  0  0  0
   39.3710   23.0680   37.7760 C   0  0  0  0  0  0  0  0  0  0  0  0
   38.0070   23.3460   37.7480 C   0  0  0  0  0  0  0  0  0  0  0  0
   37.2930   22.9230   36.6890 N   0  0  0  0  0  0  0  0  0  0  0  0
   37.8420   22.2380   35.6530 C   0  0  0  0  0  0  0  0  0  0  0  0
   39.1630   21.9570   35.6630 N   0  0  0  0  0  0  0  0  0  0  0  0
   38.0300   23.4330   33.0640 O   0  0  0  0  0  0  0  0  0  0  0  0
   36.6820   26.6480   32.5180 N   0  0  0  0  0  0  0  0  0  0  0  0
   36.9220   25.4790   32.0080 N   0  0  0  0  0  0  0  0  0  0  0  0
   37.5240   24.7270   32.9470 C   0  0  0  0  0  0  0  0  0  0  0  0
   37.6560   25.5060   34.1040 C   0  0  0  0  0  0  0  0  0  0  0  0
   37.1000   26.7400   33.7890 C   0  0  0  0  0  0  0  0  0  0  0  0
   36.9740   27.9270   34.6330 C   0  0  0  0  0  0  0  0  0  0  0  0
   37.7520   28.0050   35.6180 O   0  0  0  0  0  0  0  0  0  0  0  0
   36.1100   20.2608   35.6943 H   0  0  0  0  0  0  0  0  0  0  0  0
   34.7322   19.4099   33.8300 H   0  0  0  0  0  0  0  0  0  0  0  0
   34.9298   20.4913   31.5616 H   0  0  0  0  0  0  0  0  0  0  0  0
   36.4906   22.3750   31.2495 H   0  0  0  0  0  0  0  0  0  0  0  0
   40.9979   22.1204   36.6867 H   0  0  0  0  0  0  0  0  0  0  0  0
   39.9992   23.3941   38.6181 H   0  0  0  0  0  0  0  0  0  0  0  0
   37.5260   23.8968   38.5698 H   0  0  0  0  0  0  0  0  0  0  0  0
   36.2239   27.4156   32.0063 H   0  0  0  0  0  0  0  0  0  0  0  0
   38.1057   25.2040   35.0614 H   0  0  0  0  0  0  0  0  0  0  0  0
   36.2353   28.7130   34.4172 H   0  0  0  0  0  0  0  0  0  0  0  0
  1  2  2  0
  1 11  1  0
  3  2  1  0
  4  3  2  0
  5  4  1  0
  5  6  2  0
  6  1  1  0
  7  8  2  0
  9  8  1  0
 10  9  2  0
 11 12  2  0
 11 10  1  0
 12  7  1  0
 13  6  1  0
 14 18  1  0
 15 14  1  0
 15 16  2  0
 16 13  1  0
 16 17  1  0
 18 17  2  0
 18 19  1  0
 19 20  2  0
  2 21  1  0
  3 22  1  0
  4 23  1  0
  5 24  1  0
  7 25  1  0
  8 26  1  0
  9 27  1  0
 14 28  1  0
 17 29  1  0
 19 30  1  0
M  ISO  8  21  14  22  14  23  14  24  14  25  14  26  14  27  14  28   9
M  ISO  2  29  14  30   6
M  END
>  <minimizedAffinity>  (1) 
-4.90093279

>  <minimizedRMSD>  (1) 
0.443027884

$$$$
