
     RDKit          3D

 38 41  0  0  0  0  0  0  0  0999 V2000
   37.2420   21.9710   34.7160 C   0  0  0  0  0  0  0  0  0  0  0  0
   36.2840   20.9900   34.8880 C   0  0  0  0  0  0  0  0  0  0  0  0
   35.5430   20.5520   33.8170 C   0  0  0  0  0  0  0  0  0  0  0  0
   35.7830   21.1220   32.5540 C   0  0  0  0  0  0  0  0  0  0  0  0
   36.7370   22.0900   32.4160 C   0  0  0  0  0  0  0  0  0  0  0  0
   37.4940   22.5440   33.4880 C   0  0  0  0  0  0  0  0  0  0  0  0
   40.0080   22.4100   37.0540 C   0  0  0  0  0  0  0  0  0  0  0  0
   39.4360   23.1530   38.1130 C   0  0  0  0  0  0  0  0  0  0  0  0
   38.0920   23.4960   38.0050 C   0  0  0  0  0  0  0  0  0  0  0  0
   37.4220   23.1010   36.9060 N   0  0  0  0  0  0  0  0  0  0  0  0
   37.9910   22.3870   35.9000 C   0  0  0  0  0  0  0  0  0  0  0  0
   39.3010   22.0390   35.9800 N   0  0  0  0  0  0  0  0  0  0  0  0
   38.4380   23.5100   33.3140 O   0  0  0  0  0  0  0  0  0  0  0  0
   37.6520   26.3670   31.3910 N   0  0  0  0  0  0  0  0  0  0  0  0
   38.1490   25.1720   31.3810 N   0  0  0  0  0  0  0  0  0  0  0  0
   38.0920   24.6830   32.6370 C   0  0  0  0  0  0  0  0  0  0  0  0
   37.5180   25.6690   33.4510 C   0  0  0  0  0  0  0  0  0  0  0  0
   37.2470   26.7410   32.6060 C   0  0  0  0  0  0  0  0  0  0  0  0
   36.6430   28.0170   32.9770 C   0  0  0  0  0  0  0  0  0  0  0  0
   36.3950   28.9300   31.9710 C   0  0  0  0  0  0  0  0  0  0  0  0
   35.8270   30.1550   32.2430 C   0  0  0  0  0  0  0  0  0  0  0  0
   35.5110   30.4420   33.5770 C   0  0  0  0  0  0  0  0  0  0  0  0
   35.7660   29.5120   34.5910 C   0  0  0  0  0  0  0  0  0  0  0  0
   36.3390   28.2830   34.2970 C   0  0  0  0  0  0  0  0  0  0  0  0
   36.1141   20.5584   35.8854 H   0  0  0  0  0  0  0  0  0  0  0  0
   34.7781   19.7719   33.9448 H   0  0  0  0  0  0  0  0  0  0  0  0
   35.2042   20.7894   31.6797 H   0  0  0  0  0  0  0  0  0  0  0  0
   36.9116   22.5250   31.4209 H   0  0  0  0  0  0  0  0  0  0  0  0
   41.0694   22.1277   37.1153 H   0  0  0  0  0  0  0  0  0  0  0  0
   40.0316   23.4486   38.9893 H   0  0  0  0  0  0  0  0  0  0  0  0
   37.5907   24.0738   38.7955 H   0  0  0  0  0  0  0  0  0  0  0  0
   37.5774   26.9629   30.5542 H   0  0  0  0  0  0  0  0  0  0  0  0
   37.3226   25.6082   34.5318 H   0  0  0  0  0  0  0  0  0  0  0  0
   36.6559   28.6743   30.9334 H   0  0  0  0  0  0  0  0  0  0  0  0
   35.6287   30.8817   31.4414 H   0  0  0  0  0  0  0  0  0  0  0  0
   35.0565   31.4110   33.8309 H   0  0  0  0  0  0  0  0  0  0  0  0
   35.5095   29.7578   35.6320 H   0  0  0  0  0  0  0  0  0  0  0  0
   36.5438   27.5465   35.0880 H   0  0  0  0  0  0  0  0  0  0  0  0
  1  2  2  0
  1 11  1  0
  3  2  1  0
  4  3  2  0
  5  4  1  0
  5  6  2  0
  6  1  1  0
  7  8  2  0
  9  8  1  0
 10  9  2  0
 11 12  2  0
 11 10  1  0
 12  7  1  0
 13  6  1  0
 14 18  1  0
 15 14  1  0
 15 16  2  0
 16 13  1  0
 16 17  1  0
 18 19  1  0
 18 17  2  0
 19 24  2  0
 20 21  2  0
 20 19  1  0
 21 22  1  0
 22 23  2  0
 24 23  1  0
  2 25  1  0
  3 26  1  0
  4 27  1  0
  5 28  1  0
  7 29  1  0
  8 30  1  0
  9 31  1  0
 14 32  1  0
 17 33  1  0
 20 34  1  0
 21 35  1  0
 22 36  1  0
 23 37  1  0
 24 38  1  0
M  ISO  8  25  14  26  14  27  14  28  14  29  14  30  14  31  14  32   9
M  ISO  6  33  14  34  14  35  14  36  14  37  14  38  14
M  END
>  <minimizedAffinity>  (1) 
-6.03203058

>  <minimizedRMSD>  (1) 
1.65169346

$$$$
