
     RDKit          3D

 45 49  0  0  0  0  0  0  0  0999 V2000
   39.1090   22.6220   33.5570 O   0  0  0  0  0  0  0  0  0  0  0  0
   37.3660   21.7560   34.9750 C   0  0  0  0  0  0  0  0  0  0  0  0
   36.1770   21.0600   35.1450 C   0  0  0  0  0  0  0  0  0  0  0  0
   35.5270   20.5260   34.0600 C   0  0  0  0  0  0  0  0  0  0  0  0
   36.0930   20.7010   32.7740 C   0  0  0  0  0  0  0  0  0  0  0  0
   37.2720   21.3950   32.6390 C   0  0  0  0  0  0  0  0  0  0  0  0
   37.9460   21.9450   33.7340 C   0  0  0  0  0  0  0  0  0  0  0  0
   39.9030   22.6220   37.4340 C   0  0  0  0  0  0  0  0  0  0  0  0
   39.1770   23.3140   38.4350 C   0  0  0  0  0  0  0  0  0  0  0  0
   37.8190   23.4720   38.2450 C   0  0  0  0  0  0  0  0  0  0  0  0
   37.2680   22.9600   37.1250 N   0  0  0  0  0  0  0  0  0  0  0  0
   37.9920   22.2950   36.1740 C   0  0  0  0  0  0  0  0  0  0  0  0
   39.3190   22.1290   36.3370 N   0  0  0  0  0  0  0  0  0  0  0  0
   39.1990   25.9810   32.4740 N   0  0  0  0  0  0  0  0  0  0  0  0
   39.8320   24.8570   32.5220 N   0  0  0  0  0  0  0  0  0  0  0  0
   39.0400   23.9680   33.1740 C   0  0  0  0  0  0  0  0  0  0  0  0
   37.8730   24.6400   33.5220 C   0  0  0  0  0  0  0  0  0  0  0  0
   37.9930   25.9310   33.0630 C   0  0  0  0  0  0  0  0  0  0  0  0
   37.0520   27.0220   33.1780 C   0  0  0  0  0  0  0  0  0  0  0  0
   36.1970   27.2730   32.1240 C   0  0  0  0  0  0  0  0  0  0  0  0
   35.2810   28.2890   32.1510 C   0  0  0  0  0  0  0  0  0  0  0  0
   35.2360   29.0850   33.3100 C   0  0  0  0  0  0  0  0  0  0  0  0
   36.0990   28.8230   34.3640 C   0  0  0  0  0  0  0  0  0  0  0  0
   37.0240   27.7820   34.3110 C   0  0  0  0  0  0  0  0  0  0  0  0
   37.8350   27.7130   35.5170 C   0  0  0  0  0  0  0  0  0  0  0  0
   38.2040   26.2940   35.9660 C   0  0  0  0  0  0  0  0  0  0  0  0
   39.2630   27.1190   35.4010 C   0  0  0  0  0  0  0  0  0  0  0  0
   35.7540   20.9359   36.1528 H   0  0  0  0  0  0  0  0  0  0  0  0
   34.5847   19.9729   34.1873 H   0  0  0  0  0  0  0  0  0  0  0  0
   35.5921   20.2840   31.8879 H   0  0  0  0  0  0  0  0  0  0  0  0
   37.7005   21.5222   31.6339 H   0  0  0  0  0  0  0  0  0  0  0  0
   40.9867   22.4854   37.5643 H   0  0  0  0  0  0  0  0  0  0  0  0
   39.6773   23.7107   39.3307 H   0  0  0  0  0  0  0  0  0  0  0  0
   37.2027   24.0011   38.9867 H   0  0  0  0  0  0  0  0  0  0  0  0
   39.5796   26.8288   32.0298 H   0  0  0  0  0  0  0  0  0  0  0  0
   37.0138   24.2175   34.0636 H   0  0  0  0  0  0  0  0  0  0  0  0
   36.2540   26.6336   31.2307 H   0  0  0  0  0  0  0  0  0  0  0  0
   34.6076   28.4757   31.3015 H   0  0  0  0  0  0  0  0  0  0  0  0
   34.5170   29.9145   33.3804 H   0  0  0  0  0  0  0  0  0  0  0  0
   36.0520   29.4530   35.2645 H   0  0  0  0  0  0  0  0  0  0  0  0
   37.3996   28.6221   35.9574 H   0  0  0  0  0  0  0  0  0  0  0  0
   38.2190   26.0504   37.0386 H   0  0  0  0  0  0  0  0  0  0  0  0
   37.8101   25.2935   35.7342 H   0  0  0  0  0  0  0  0  0  0  0  0
   39.6753   26.8764   34.4105 H   0  0  0  0  0  0  0  0  0  0  0  0
   40.2593   27.4352   35.7436 H   0  0  0  0  0  0  0  0  0  0  0  0
  1  7  1  0
  2  3  2  0
  2 12  1  0
  4  3  1  0
  5  4  2  0
  6  5  1  0
  6  7  2  0
  7  2  1  0
  8  9  2  0
 10  9  1  0
 11 10  2  0
 12 13  2  0
 12 11  1  0
 13  8  1  0
 14 15  1  0
 14 18  1  0
 15 16  2  0
 16 17  1  0
 16  1  1  0
 18 19  1  0
 18 17  2  0
 19 24  2  0
 20 21  2  0
 20 19  1  0
 21 22  1  0
 22 23  2  0
 24 23  1  0
 24 25  1  0
 25 26  1  0
 27 25  1  0
 27 26  1  0
  3 28  1  0
  4 29  1  0
  5 30  1  0
  6 31  1  0
  8 32  1  0
  9 33  1  0
 10 34  1  0
 14 35  1  0
 17 36  1  0
 20 37  1  0
 21 38  1  0
 22 39  1  0
 23 40  1  0
 25 41  1  0
 26 42  1  0
 26 43  1  0
 27 44  1  0
 27 45  1  0
M  ISO  8  28  14  29  14  30  14  31  14  32  14  33  14  34  14  35   9
M  ISO  8  36  14  37  14  38  14  39  14  40  14  41  13  42  13  43  13
M  ISO  2  44  13  45  13
M  END
>  <minimizedAffinity>  (1) 
-6.69897366

>  <minimizedRMSD>  (1) 
1.19906807

$$$$
