
     RDKit          3D

 50 53  0  0  0  0  0  0  0  0999 V2000
   37.8630   26.1200   30.7190 N   0  0  0  0  0  0  0  0  0  0  0  0
   38.3400   24.9580   30.3770 N   0  0  0  0  0  0  0  0  0  0  0  0
   37.9860   24.0820   31.3170 C   0  0  0  0  0  0  0  0  0  0  0  0
   37.2540   24.7600   32.2530 C   0  0  0  0  0  0  0  0  0  0  0  0
   37.1750   26.0850   31.8820 C   0  0  0  0  0  0  0  0  0  0  0  0
   36.5710   27.2120   32.5560 C   0  0  0  0  0  0  0  0  0  0  0  0
   35.4800   27.8300   31.9510 C   0  0  0  0  0  0  0  0  0  0  0  0
   34.8000   28.8670   32.5610 C   0  0  0  0  0  0  0  0  0  0  0  0
   35.2780   29.2360   33.8010 C   0  0  0  0  0  0  0  0  0  0  0  0
   36.3720   28.6110   34.3870 C   0  0  0  0  0  0  0  0  0  0  0  0
   37.0430   27.5950   33.7850 C   0  0  0  0  0  0  0  0  0  0  0  0
   38.1860   27.1290   34.6080 C   0  0  0  0  0  0  0  0  0  0  0  0
   38.2960   27.7210   35.9860 C   0  0  0  0  0  0  0  0  0  0  0  0
   37.8600   25.6300   35.0410 C   0  0  0  0  0  0  0  0  0  0  0  0
   39.4580   26.8690   33.8570 C   0  0  0  0  0  0  0  0  0  0  0  0
   38.1810   22.7210   31.5820 O   0  0  0  0  0  0  0  0  0  0  0  0
   37.0300   21.5260   33.3040 C   0  0  0  0  0  0  0  0  0  0  0  0
   35.9650   20.7500   33.7170 C   0  0  0  0  0  0  0  0  0  0  0  0
   34.9890   20.3920   32.8200 C   0  0  0  0  0  0  0  0  0  0  0  0
   35.0980   20.8300   31.4770 C   0  0  0  0  0  0  0  0  0  0  0  0
   36.1680   21.5960   31.1060 C   0  0  0  0  0  0  0  0  0  0  0  0
   37.1500   21.9610   32.0000 C   0  0  0  0  0  0  0  0  0  0  0  0
   40.2540   22.2160   34.8460 C   0  0  0  0  0  0  0  0  0  0  0  0
   39.9250   22.5200   36.1860 C   0  0  0  0  0  0  0  0  0  0  0  0
   38.5930   22.4810   36.5440 C   0  0  0  0  0  0  0  0  0  0  0  0
   37.6900   22.1540   35.5900 N   0  0  0  0  0  0  0  0  0  0  0  0
   38.0340   21.8660   34.3090 C   0  0  0  0  0  0  0  0  0  0  0  0
   39.3300   21.8980   33.9370 N   0  0  0  0  0  0  0  0  0  0  0  0
   37.9959   26.9761   30.1619 H   0  0  0  0  0  0  0  0  0  0  0  0
   36.8024   24.3197   33.1542 H   0  0  0  0  0  0  0  0  0  0  0  0
   35.1503   27.4834   30.9605 H   0  0  0  0  0  0  0  0  0  0  0  0
   33.9382   29.3632   32.0907 H   0  0  0  0  0  0  0  0  0  0  0  0
   34.7771   30.0513   34.3435 H   0  0  0  0  0  0  0  0  0  0  0  0
   36.7078   28.9524   35.3773 H   0  0  0  0  0  0  0  0  0  0  0  0
   38.1492   26.9310   36.7372 H   0  0  0  0  0  0  0  0  0  0  0  0
   39.2927   28.1684   36.1144 H   0  0  0  0  0  0  0  0  0  0  0  0
   37.5266   28.4966   36.1144 H   0  0  0  0  0  0  0  0  0  0  0  0
   37.8449   25.5605   36.1387 H   0  0  0  0  0  0  0  0  0  0  0  0
   36.8774   25.3384   34.6416 H   0  0  0  0  0  0  0  0  0  0  0  0
   38.6327   24.9567   34.6416 H   0  0  0  0  0  0  0  0  0  0  0  0
   40.2777   26.7014   34.5711 H   0  0  0  0  0  0  0  0  0  0  0  0
   39.3347   25.9775   33.2245 H   0  0  0  0  0  0  0  0  0  0  0  0
   39.6944   27.7374   33.2245 H   0  0  0  0  0  0  0  0  0  0  0  0
   35.8986   20.4189   34.7639 H   0  0  0  0  0  0  0  0  0  0  0  0
   34.1361   19.7750   33.1390 H   0  0  0  0  0  0  0  0  0  0  0  0
   34.3289   20.5563   30.7397 H   0  0  0  0  0  0  0  0  0  0  0  0
   36.2470   21.9311   30.0613 H   0  0  0  0  0  0  0  0  0  0  0  0
   41.3105   22.2424   34.5408 H   0  0  0  0  0  0  0  0  0  0  0  0
   40.7038   22.7788   36.9185 H   0  0  0  0  0  0  0  0  0  0  0  0
   38.2749   22.7084   37.5722 H   0  0  0  0  0  0  0  0  0  0  0  0
  1  5  1  0
  2  1  1  0
  2  3  2  0
  3 16  1  0
  3  4  1  0
  5  4  2  0
  5  6  1  0
  6 11  1  0
  7  6  2  0
  7  8  1  0
  8  9  2  0
  9 10  1  0
 11 10  2  0
 11 12  1  0
 12 14  1  0
 12 13  1  0
 15 12  1  0
 16 22  1  0
 17 18  2  0
 17 27  1  0
 19 18  1  0
 20 19  2  0
 21 20  1  0
 21 22  2  0
 22 17  1  0
 23 24  2  0
 24 25  1  0
 26 25  2  0
 27 26  1  0
 28 27  2  0
 28 23  1  0
  1 29  1  0
  4 30  1  0
  7 31  1  0
  8 32  1  0
  9 33  1  0
 10 34  1  0
 13 35  1  0
 13 36  1  0
 13 37  1  0
 14 38  1  0
 14 39  1  0
 14 40  1  0
 15 41  1  0
 15 42  1  0
 15 43  1  0
 18 44  1  0
 19 45  1  0
 20 46  1  0
 21 47  1  0
 23 48  1  0
 24 49  1  0
 25 50  1  0
M  ISO  8  29   9  30  14  31  14  32  14  33  14  34  14  35   8  36   8
M  ISO  8  37   8  38   8  39   8  40   8  41   8  42   8  43   8  44  14
M  ISO  6  45  14  46  14  47  14  48  14  49  14  50  14
M  END
>  <minimizedAffinity>  (1) 
-6.27094126

>  <minimizedRMSD>  (1) 
1.61131263

$$$$
