
     RDKit          3D

 50 54  0  0  0  0  0  0  0  0999 V2000
   37.8350   26.3070   30.6040 N   0  0  0  0  0  0  0  0  0  0  0  0
   38.3500   25.1500   30.3280 N   0  0  0  0  0  0  0  0  0  0  0  0
   38.0470   24.3180   31.3460 C   0  0  0  0  0  0  0  0  0  0  0  0
   37.3050   25.0500   32.2750 C   0  0  0  0  0  0  0  0  0  0  0  0
   37.1770   26.3310   31.7820 C   0  0  0  0  0  0  0  0  0  0  0  0
   36.5090   27.4750   32.3550 C   0  0  0  0  0  0  0  0  0  0  0  0
   35.8000   28.3260   31.5510 C   0  0  0  0  0  0  0  0  0  0  0  0
   35.1410   29.4260   32.0410 C   0  0  0  0  0  0  0  0  0  0  0  0
   35.2150   29.6540   33.4090 C   0  0  0  0  0  0  0  0  0  0  0  0
   35.9370   28.7910   34.2470 C   0  0  0  0  0  0  0  0  0  0  0  0
   36.5990   27.6760   33.7020 C   0  0  0  0  0  0  0  0  0  0  0  0
   37.2880   27.0560   34.7620 N   0  0  0  0  0  0  0  0  0  0  0  0
   37.4890   25.7420   35.4200 C   0  0  0  0  0  0  0  0  0  0  0  0
   39.0030   25.6120   35.1640 C   0  0  0  0  0  0  0  0  0  0  0  0
   39.4630   26.9990   35.6440 C   0  0  0  0  0  0  0  0  0  0  0  0
   38.1920   27.8190   35.6420 C   0  0  0  0  0  0  0  0  0  0  0  0
   38.2770   22.9810   31.6880 O   0  0  0  0  0  0  0  0  0  0  0  0
   37.1170   21.6580   33.3150 C   0  0  0  0  0  0  0  0  0  0  0  0
   36.0420   20.8620   33.6830 C   0  0  0  0  0  0  0  0  0  0  0  0
   35.0410   20.5880   32.7840 C   0  0  0  0  0  0  0  0  0  0  0  0
   35.1370   21.1370   31.4860 C   0  0  0  0  0  0  0  0  0  0  0  0
   36.2140   21.9240   31.1450 C   0  0  0  0  0  0  0  0  0  0  0  0
   37.2340   22.2050   32.0540 C   0  0  0  0  0  0  0  0  0  0  0  0
   40.3760   22.1020   34.8820 C   0  0  0  0  0  0  0  0  0  0  0  0
   40.0600   22.3600   36.2390 C   0  0  0  0  0  0  0  0  0  0  0  0
   38.7240   22.3780   36.5960 C   0  0  0  0  0  0  0  0  0  0  0  0
   37.8090   22.1490   35.6370 N   0  0  0  0  0  0  0  0  0  0  0  0
   38.1370   21.9020   34.3330 C   0  0  0  0  0  0  0  0  0  0  0  0
   39.4360   21.8800   33.9610 N   0  0  0  0  0  0  0  0  0  0  0  0
   37.9195   27.1265   29.9858 H   0  0  0  0  0  0  0  0  0  0  0  0
   36.8977   24.6739   33.2251 H   0  0  0  0  0  0  0  0  0  0  0  0
   35.7566   28.1207   30.4712 H   0  0  0  0  0  0  0  0  0  0  0  0
   34.5777   30.0989   31.3777 H   0  0  0  0  0  0  0  0  0  0  0  0
   34.6998   30.5242   33.8419 H   0  0  0  0  0  0  0  0  0  0  0  0
   35.9853   28.9860   35.3285 H   0  0  0  0  0  0  0  0  0  0  0  0
   37.2475   25.7706   36.4928 H   0  0  0  0  0  0  0  0  0  0  0  0
   36.8621   24.9152   35.0548 H   0  0  0  0  0  0  0  0  0  0  0  0
   39.4515   24.8026   35.7588 H   0  0  0  0  0  0  0  0  0  0  0  0
   39.2825   25.3582   34.1308 H   0  0  0  0  0  0  0  0  0  0  0  0
   39.8913   26.9418   36.6556 H   0  0  0  0  0  0  0  0  0  0  0  0
   40.2498   27.4308   35.0080 H   0  0  0  0  0  0  0  0  0  0  0  0
   38.3750   28.8260   35.2388 H   0  0  0  0  0  0  0  0  0  0  0  0
   37.7795   27.9702   36.6505 H   0  0  0  0  0  0  0  0  0  0  0  0
   35.9913   20.4480   34.7009 H   0  0  0  0  0  0  0  0  0  0  0  0
   34.1858   19.9569   33.0674 H   0  0  0  0  0  0  0  0  0  0  0  0
   34.3490   20.9351   30.7455 H   0  0  0  0  0  0  0  0  0  0  0  0
   36.2716   22.3421   30.1292 H   0  0  0  0  0  0  0  0  0  0  0  0
   41.4327   22.0841   34.5771 H   0  0  0  0  0  0  0  0  0  0  0  0
   40.8501   22.5398   36.9829 H   0  0  0  0  0  0  0  0  0  0  0  0
   38.4184   22.5740   37.6344 H   0  0  0  0  0  0  0  0  0  0  0  0
  1  5  1  0
  2  1  1  0
  2  3  2  0
  3 17  1  0
  3  4  1  0
  5  4  2  0
  5  6  1  0
  6 11  2  0
  7  8  2  0
  7  6  1  0
  8  9  1  0
  9 10  2  0
 11 10  1  0
 11 12  1  0
 12 13  1  0
 12 16  1  0
 14 13  1  0
 14 15  1  0
 16 15  1  0
 17 23  1  0
 18 19  2  0
 18 28  1  0
 20 19  1  0
 21 20  2  0
 22 21  1  0
 22 23  2  0
 23 18  1  0
 24 25  2  0
 25 26  1  0
 27 26  2  0
 28 27  1  0
 29 28  2  0
 29 24  1  0
  1 30  1  0
  4 31  1  0
  7 32  1  0
  8 33  1  0
  9 34  1  0
 10 35  1  0
 13 36  1  0
 13 37  1  0
 14 38  1  0
 14 39  1  0
 15 40  1  0
 15 41  1  0
 16 42  1  0
 16 43  1  0
 19 44  1  0
 20 45  1  0
 21 46  1  0
 22 47  1  0
 24 48  1  0
 25 49  1  0
 26 50  1  0
M  ISO  8  30   9  31  14  32  14  33  14  34  14  35  14  36  13  37  13
M  ISO  8  38  13  39  13  40  13  41  13  42  13  43  13  44  14  45  14
M  ISO  5  46  14  47  14  48  14  49  14  50  14
M  END
>  <minimizedAffinity>  (1) 
-6.1499033

>  <minimizedRMSD>  (1) 
1.42922127

$$$$
