
     RDKit          3D

 46 50  0  0  0  0  0  0  0  0999 V2000
   38.3210   25.5560   29.8720 N   0  0  0  0  0  0  0  0  0  0  0  0
   38.7120   24.3290   29.8620 N   0  0  0  0  0  0  0  0  0  0  0  0
   38.3890   23.7880   31.0580 C   0  0  0  0  0  0  0  0  0  0  0  0
   37.7670   24.7790   31.8090 C   0  0  0  0  0  0  0  0  0  0  0  0
   37.7310   25.9150   31.0270 C   0  0  0  0  0  0  0  0  0  0  0  0
   37.1950   27.2200   31.3360 C   0  0  0  0  0  0  0  0  0  0  0  0
   36.6790   27.9950   30.3330 C   0  0  0  0  0  0  0  0  0  0  0  0
   36.1580   29.2430   30.5500 C   0  0  0  0  0  0  0  0  0  0  0  0
   36.1700   29.7120   31.8570 C   0  0  0  0  0  0  0  0  0  0  0  0
   36.6980   28.9290   32.9020 C   0  0  0  0  0  0  0  0  0  0  0  0
   37.2140   27.6690   32.6250 C   0  0  0  0  0  0  0  0  0  0  0  0
   37.6680   27.1250   33.8740 C   0  0  0  0  0  0  0  0  0  0  0  0
   39.0590   27.2730   33.9870 C   0  0  0  0  0  0  0  0  0  0  0  0
   39.7670   26.7900   35.0810 C   0  0  0  0  0  0  0  0  0  0  0  0
   39.0830   26.1640   36.0500 N   0  0  0  0  0  0  0  0  0  0  0  0
   37.7530   26.0220   35.9430 C   0  0  0  0  0  0  0  0  0  0  0  0
   37.0160   26.4790   34.8900 N   0  0  0  0  0  0  0  0  0  0  0  0
   38.5170   22.5420   31.6930 O   0  0  0  0  0  0  0  0  0  0  0  0
   37.1210   21.5710   33.3950 C   0  0  0  0  0  0  0  0  0  0  0  0
   35.9650   20.8990   33.7680 C   0  0  0  0  0  0  0  0  0  0  0  0
   35.0370   20.5240   32.8220 C   0  0  0  0  0  0  0  0  0  0  0  0
   35.2940   20.8400   31.4670 C   0  0  0  0  0  0  0  0  0  0  0  0
   36.4480   21.5050   31.1250 C   0  0  0  0  0  0  0  0  0  0  0  0
   37.3900   21.8870   32.0710 C   0  0  0  0  0  0  0  0  0  0  0  0
   40.2450   22.2290   35.1410 C   0  0  0  0  0  0  0  0  0  0  0  0
   39.8230   22.6200   36.4370 C   0  0  0  0  0  0  0  0  0  0  0  0
   38.4640   22.6490   36.6830 C   0  0  0  0  0  0  0  0  0  0  0  0
   37.6230   22.3090   35.6940 N   0  0  0  0  0  0  0  0  0  0  0  0
   38.0520   21.9360   34.4560 C   0  0  0  0  0  0  0  0  0  0  0  0
   39.3780   21.8960   34.1790 N   0  0  0  0  0  0  0  0  0  0  0  0
   38.4471   26.1978   29.0763 H   0  0  0  0  0  0  0  0  0  0  0  0
   37.3774   24.6767   32.8326 H   0  0  0  0  0  0  0  0  0  0  0  0
   36.6828   27.5981   29.3071 H   0  0  0  0  0  0  0  0  0  0  0  0
   35.7487   29.8464   29.7264 H   0  0  0  0  0  0  0  0  0  0  0  0
   35.7615   30.7088   32.0793 H   0  0  0  0  0  0  0  0  0  0  0  0
   36.7018   29.3133   33.9327 H   0  0  0  0  0  0  0  0  0  0  0  0
   39.6065   27.7879   33.1838 H   0  0  0  0  0  0  0  0  0  0  0  0
   40.8574   26.9175   35.1502 H   0  0  0  0  0  0  0  0  0  0  0  0
   37.2233   25.5041   36.7561 H   0  0  0  0  0  0  0  0  0  0  0  0
   35.7887   20.6640   34.8281 H   0  0  0  0  0  0  0  0  0  0  0  0
   34.1190   19.9921   33.1126 H   0  0  0  0  0  0  0  0  0  0  0  0
   34.5717   20.5541   30.6882 H   0  0  0  0  0  0  0  0  0  0  0  0
   36.6310   21.7423   30.0666 H   0  0  0  0  0  0  0  0  0  0  0  0
   41.3220   22.1986   34.9195 H   0  0  0  0  0  0  0  0  0  0  0  0
   40.5502   22.8900   37.2169 H   0  0  0  0  0  0  0  0  0  0  0  0
   38.0788   22.9449   37.6699 H   0  0  0  0  0  0  0  0  0  0  0  0
  1  5  1  0
  2  1  1  0
  2  3  2  0
  3 18  1  0
  3  4  1  0
  5  6  1  0
  5  4  2  0
  6 11  2  0
  7  8  2  0
  7  6  1  0
  8  9  1  0
  9 10  2  0
 11 10  1  0
 11 12  1  0
 12 13  2  0
 12 17  1  0
 13 14  1  0
 14 15  2  0
 16 15  1  0
 17 16  2  0
 18 24  1  0
 19 20  2  0
 19 29  1  0
 21 20  1  0
 22 21  2  0
 23 22  1  0
 23 24  2  0
 24 19  1  0
 25 26  2  0
 26 27  1  0
 28 27  2  0
 29 28  1  0
 30 29  2  0
 30 25  1  0
  1 31  1  0
  4 32  1  0
  7 33  1  0
  8 34  1  0
  9 35  1  0
 10 36  1  0
 13 37  1  0
 14 38  1  0
 16 39  1  0
 20 40  1  0
 21 41  1  0
 22 42  1  0
 23 43  1  0
 25 44  1  0
 26 45  1  0
 27 46  1  0
M  ISO  8  31   9  32  14  33  14  34  14  35  14  36  14  37  14  38  14
M  ISO  8  39  14  40  14  41  14  42  14  43  14  44  14  45  14  46  14
M  END
>  <minimizedAffinity>  (1) 
-6.08306265

>  <minimizedRMSD>  (1) 
2.00000596

$$$$
