
     RDKit          3D

 27 29  0  0  0  0  0  0  0  0999 V2000
   40.4500   22.4840   37.6280 C   0  0  0  0  0  0  0  0  0  0  0  0
   39.4360   23.2430   37.0380 C   0  0  0  0  0  0  0  0  0  0  0  0
   39.7620   23.9710   35.9020 C   0  0  0  0  0  0  0  0  0  0  0  0
   41.0290   23.9240   35.4120 N   0  0  0  0  0  0  0  0  0  0  0  0
   41.9840   23.1680   36.0230 C   0  0  0  0  0  0  0  0  0  0  0  0
   41.6740   22.4690   37.1100 N   0  0  0  0  0  0  0  0  0  0  0  0
   38.0480   23.3080   37.5600 C   0  0  0  0  0  0  0  0  0  0  0  0
   38.0940   22.8480   38.8820 F   0  0  0  0  0  0  0  0  0  0  0  0
   37.1580   22.5820   36.8670 F   0  0  0  0  0  0  0  0  0  0  0  0
   37.6440   24.6550   37.7300 F   0  0  0  0  0  0  0  0  0  0  0  0
   43.6130   23.1720   35.3010 S   0  0  0  0  0  0  0  0  0  0  0  0
   44.7820   23.9440   36.4270 C   0  0  0  0  0  0  0  0  0  0  0  0
   44.3070   24.9820   37.2430 C   0  0  0  0  0  0  0  0  0  0  0  0
   45.8460   25.4590   38.2170 S   0  0  0  0  0  0  0  0  0  0  0  0
   46.8220   24.1250   37.2930 C   0  0  0  0  0  0  0  0  0  0  0  0
   46.0360   23.7120   36.6360 N   0  0  0  0  0  0  0  0  0  0  0  0
   48.3020   23.8460   37.5330 C   0  0  0  0  0  0  0  0  0  0  0  0
   49.1790   24.9980   37.8570 C   0  0  0  0  0  0  0  0  0  0  0  0
   48.7820   24.0080   38.9310 C   0  0  0  0  0  0  0  0  0  0  0  0
   40.2332   21.8930   38.5301 H   0  0  0  0  0  0  0  0  0  0  0  0
   38.9982   24.5834   35.4004 H   0  0  0  0  0  0  0  0  0  0  0  0
   43.2944   25.4081   37.2992 H   0  0  0  0  0  0  0  0  0  0  0  0
   48.3444   23.0440   36.7814 H   0  0  0  0  0  0  0  0  0  0  0  0
   50.2144   25.0241   37.4866 H   0  0  0  0  0  0  0  0  0  0  0  0
   49.1108   26.0893   37.7372 H   0  0  0  0  0  0  0  0  0  0  0  0
   48.0808   24.3059   39.7244 H   0  0  0  0  0  0  0  0  0  0  0  0
   49.3229   23.3757   39.6505 H   0  0  0  0  0  0  0  0  0  0  0  0
  2  7  1  0
  2  1  2  0
  3  2  1  0
  4  3  2  0
  4  5  1  0
  5  6  2  0
  6  1  1  0
  7 10  1  0
  7  8  1  0
  9  7  1  0
 11  5  1  0
 11 12  1  0
 12 16  1  0
 12 13  2  0
 13 14  1  0
 15 17  1  0
 15 14  1  0
 16 15  2  0
 17 18  1  0
 17 19  1  0
 18 19  1  0
  1 20  1  0
  3 21  1  0
 13 22  1  0
 17 23  1  0
 18 24  1  0
 18 25  1  0
 19 26  1  0
 19 27  1  0
M  ISO  8  20  14  21  14  22  14  23  13  24  13  25  13  26  13  27  13
M  END
>  <minimizedAffinity>  (1) 
-4.61926413

>  <minimizedRMSD>  (1) 
3.49886847

$$$$
