
     RDKit          3D

 44 48  0  0  0  0  0  0  0  0999 V2000
   37.7570   26.0930   30.4700 N   0  0  0  0  0  0  0  0  0  0  0  0
   38.2410   24.9140   30.2570 N   0  0  0  0  0  0  0  0  0  0  0  0
   38.0380   24.1780   31.3650 C   0  0  0  0  0  0  0  0  0  0  0  0
   37.3890   24.9920   32.2860 C   0  0  0  0  0  0  0  0  0  0  0  0
   37.2130   26.2260   31.6950 C   0  0  0  0  0  0  0  0  0  0  0  0
   36.5940   27.4190   32.2230 C   0  0  0  0  0  0  0  0  0  0  0  0
   35.8830   28.2340   31.3810 C   0  0  0  0  0  0  0  0  0  0  0  0
   35.2740   29.3890   31.8140 C   0  0  0  0  0  0  0  0  0  0  0  0
   35.4040   29.7080   33.1600 C   0  0  0  0  0  0  0  0  0  0  0  0
   36.1290   28.8790   34.0290 C   0  0  0  0  0  0  0  0  0  0  0  0
   36.7320   27.7190   33.5480 C   0  0  0  0  0  0  0  0  0  0  0  0
   37.3870   27.0950   34.6230 N   0  0  0  0  0  0  0  0  0  0  0  0
   38.6610   27.5620   34.8430 C   0  0  0  0  0  0  0  0  0  0  0  0
   39.1910   26.9150   35.9240 N   0  0  0  0  0  0  0  0  0  0  0  0
   38.2280   26.0530   36.3540 C   0  0  0  0  0  0  0  0  0  0  0  0
   37.1330   26.1670   35.5600 N   0  0  0  0  0  0  0  0  0  0  0  0
   38.2990   22.8720   31.8040 O   0  0  0  0  0  0  0  0  0  0  0  0
   37.0730   21.6180   33.4500 C   0  0  0  0  0  0  0  0  0  0  0  0
   36.0000   20.8080   33.8020 C   0  0  0  0  0  0  0  0  0  0  0  0
   35.0700   20.4390   32.8620 C   0  0  0  0  0  0  0  0  0  0  0  0
   35.2330   20.9020   31.5340 C   0  0  0  0  0  0  0  0  0  0  0  0
   36.3000   21.6990   31.2110 C   0  0  0  0  0  0  0  0  0  0  0  0
   37.2510   22.0810   32.1550 C   0  0  0  0  0  0  0  0  0  0  0  0
   40.2090   22.2190   35.1990 C   0  0  0  0  0  0  0  0  0  0  0  0
   39.7990   22.6160   36.4870 C   0  0  0  0  0  0  0  0  0  0  0  0
   38.4440   22.6750   36.7410 C   0  0  0  0  0  0  0  0  0  0  0  0
   37.5920   22.3480   35.7440 N   0  0  0  0  0  0  0  0  0  0  0  0
   38.0140   21.9660   34.5060 C   0  0  0  0  0  0  0  0  0  0  0  0
   39.3390   21.9020   34.2320 N   0  0  0  0  0  0  0  0  0  0  0  0
   37.7844   26.8526   29.7749 H   0  0  0  0  0  0  0  0  0  0  0  0
   37.0736   24.7049   33.3000 H   0  0  0  0  0  0  0  0  0  0  0  0
   35.7962   27.9544   30.3207 H   0  0  0  0  0  0  0  0  0  0  0  0
   34.7083   30.0325   31.1241 H   0  0  0  0  0  0  0  0  0  0  0  0
   34.9324   30.6224   33.5493 H   0  0  0  0  0  0  0  0  0  0  0  0
   36.2215   29.1455   35.0922 H   0  0  0  0  0  0  0  0  0  0  0  0
   39.1714   28.3319   34.2457 H   0  0  0  0  0  0  0  0  0  0  0  0
   38.3229   25.3705   37.2115 H   0  0  0  0  0  0  0  0  0  0  0  0
   35.8952   20.4603   34.8403 H   0  0  0  0  0  0  0  0  0  0  0  0
   34.2181   19.7986   33.1342 H   0  0  0  0  0  0  0  0  0  0  0  0
   34.5025   20.6217   30.7608 H   0  0  0  0  0  0  0  0  0  0  0  0
   36.4091   22.0482   30.1736 H   0  0  0  0  0  0  0  0  0  0  0  0
   41.2856   22.1675   34.9793 H   0  0  0  0  0  0  0  0  0  0  0  0
   40.5345   22.8705   37.2643 H   0  0  0  0  0  0  0  0  0  0  0  0
   38.0673   22.9800   37.7285 H   0  0  0  0  0  0  0  0  0  0  0  0
  1  5  1  0
  2  1  1  0
  2  3  2  0
  3 17  1  0
  3  4  1  0
  5  6  1  0
  5  4  2  0
  6 11  2  0
  7  8  2  0
  7  6  1  0
  8  9  1  0
  9 10  2  0
 11 10  1  0
 11 12  1  0
 12 13  1  0
 12 16  1  0
 13 14  2  0
 14 15  1  0
 16 15  2  0
 17 23  1  0
 18 19  2  0
 18 28  1  0
 20 19  1  0
 21 20  2  0
 22 21  1  0
 22 23  2  0
 23 18  1  0
 24 25  2  0
 25 26  1  0
 27 26  2  0
 28 27  1  0
 29 28  2  0
 29 24  1  0
  1 30  1  0
  4 31  1  0
  7 32  1  0
  8 33  1  0
  9 34  1  0
 10 35  1  0
 13 36  1  0
 15 37  1  0
 19 38  1  0
 20 39  1  0
 21 40  1  0
 22 41  1  0
 24 42  1  0
 25 43  1  0
 26 44  1  0
M  ISO  8  30   9  31  14  32  14  33  14  34  14  35  14  36  14  37  14
M  ISO  7  38  14  39  14  40  14  41  14  42  14  43  14  44  14
M  END
>  <minimizedAffinity>  (1) 
-5.96089792

>  <minimizedRMSD>  (1) 
1.43714821

$$$$
