
     RDKit          3D

 48 52  0  0  0  0  0  0  0  0999 V2000
   37.6240   25.4220   31.1650 N   0  0  0  0  0  0  0  0  0  0  0  0
   37.5720   24.4770   30.2820 N   0  0  0  0  0  0  0  0  0  0  0  0
   37.6550   23.3000   30.9350 C   0  0  0  0  0  0  0  0  0  0  0  0
   37.7630   23.5820   32.2930 C   0  0  0  0  0  0  0  0  0  0  0  0
   37.7410   24.9550   32.4240 C   0  0  0  0  0  0  0  0  0  0  0  0
   37.8190   25.7620   33.6170 C   0  0  0  0  0  0  0  0  0  0  0  0
   37.1330   26.9440   33.6790 C   0  0  0  0  0  0  0  0  0  0  0  0
   37.1720   27.7550   34.7780 C   0  0  0  0  0  0  0  0  0  0  0  0
   37.9450   27.3380   35.8590 C   0  0  0  0  0  0  0  0  0  0  0  0
   38.6550   26.1240   35.8090 C   0  0  0  0  0  0  0  0  0  0  0  0
   38.5810   25.3320   34.6640 C   0  0  0  0  0  0  0  0  0  0  0  0
   39.3520   24.1950   34.9490 N   0  0  0  0  0  0  0  0  0  0  0  0
   40.6520   24.5450   34.6560 C   0  0  0  0  0  0  0  0  0  0  0  0
   41.7090   23.6270   34.7640 C   0  0  0  0  0  0  0  0  0  0  0  0
   41.4010   22.3460   35.1790 C   0  0  0  0  0  0  0  0  0  0  0  0
   42.3200   21.4970   35.2840 O   0  0  0  0  0  0  0  0  0  0  0  0
   40.1350   22.0370   35.4570 N   0  0  0  0  0  0  0  0  0  0  0  0
   39.1230   22.9080   35.3560 C   0  0  0  0  0  0  0  0  0  0  0  0
   37.8950   22.7910   35.5740 O   0  0  0  0  0  0  0  0  0  0  0  0
   37.6560   21.9400   30.5940 O   0  0  0  0  0  0  0  0  0  0  0  0
   37.2730   19.9530   31.9030 C   0  0  0  0  0  0  0  0  0  0  0  0
   36.4100   19.1050   32.5790 C   0  0  0  0  0  0  0  0  0  0  0  0
   35.0560   19.3840   32.6370 C   0  0  0  0  0  0  0  0  0  0  0  0
   34.5850   20.5450   31.9920 C   0  0  0  0  0  0  0  0  0  0  0  0
   35.4670   21.3670   31.3290 C   0  0  0  0  0  0  0  0  0  0  0  0
   36.8300   21.0980   31.2630 C   0  0  0  0  0  0  0  0  0  0  0  0
   40.3260   18.0760   31.2800 C   0  0  0  0  0  0  0  0  0  0  0  0
   41.3450   18.8960   31.8410 C   0  0  0  0  0  0  0  0  0  0  0  0
   40.9420   20.0830   32.4230 C   0  0  0  0  0  0  0  0  0  0  0  0
   39.6390   20.3980   32.4310 N   0  0  0  0  0  0  0  0  0  0  0  0
   38.6850   19.5960   31.8870 C   0  0  0  0  0  0  0  0  0  0  0  0
   39.0340   18.4200   31.3050 N   0  0  0  0  0  0  0  0  0  0  0  0
   37.5806   26.4240   30.9306 H   0  0  0  0  0  0  0  0  0  0  0  0
   37.8496   22.8486   33.1083 H   0  0  0  0  0  0  0  0  0  0  0  0
   36.5285   27.2525   32.8133 H   0  0  0  0  0  0  0  0  0  0  0  0
   36.6135   28.7022   34.8079 H   0  0  0  0  0  0  0  0  0  0  0  0
   38.0011   27.9643   36.7615 H   0  0  0  0  0  0  0  0  0  0  0  0
   39.2638   25.8024   36.6669 H   0  0  0  0  0  0  0  0  0  0  0  0
   40.8679   25.5726   34.3282 H   0  0  0  0  0  0  0  0  0  0  0  0
   42.7433   23.9170   34.5271 H   0  0  0  0  0  0  0  0  0  0  0  0
   39.9237   21.0774   35.7659 H   0  0  0  0  0  0  0  0  0  0  0  0
   36.8040   18.2044   33.0726 H   0  0  0  0  0  0  0  0  0  0  0  0
   34.3650   18.7167   33.1728 H   0  0  0  0  0  0  0  0  0  0  0  0
   33.5138   20.7937   32.0185 H   0  0  0  0  0  0  0  0  0  0  0  0
   35.0802   22.2695   30.8332 H   0  0  0  0  0  0  0  0  0  0  0  0
   40.6117   17.1242   30.8085 H   0  0  0  0  0  0  0  0  0  0  0  0
   42.4038   18.5990   31.8127 H   0  0  0  0  0  0  0  0  0  0  0  0
   41.6814   20.7610   32.8742 H   0  0  0  0  0  0  0  0  0  0  0  0
  1  5  1  0
  2  3  2  0
  2  1  1  0
  3  4  1  0
  4  5  2  0
  5  6  1  0
  6  7  2  0
  6 11  1  0
  7  8  1  0
  8  9  2  0
 10  9  1  0
 11 12  1  0
 11 10  2  0
 12 18  1  0
 13 14  2  0
 13 12  1  0
 14 15  1  0
 15 16  2  0
 15 17  1  0
 18 17  1  0
 18 19  2  0
 20  3  1  0
 20 26  1  0
 21 22  2  0
 22 23  1  0
 24 23  2  0
 25 24  1  0
 26 25  2  0
 26 21  1  0
 27 32  2  0
 27 28  1  0
 28 29  2  0
 29 30  1  0
 31 21  1  0
 31 30  2  0
 32 31  1  0
  1 33  1  0
  4 34  1  0
  7 35  1  0
  8 36  1  0
  9 37  1  0
 10 38  1  0
 13 39  1  0
 14 40  1  0
 17 41  1  0
 22 42  1  0
 23 43  1  0
 24 44  1  0
 25 45  1  0
 27 46  1  0
 28 47  1  0
 29 48  1  0
M  ISO  8  33   9  34  14  35  14  36  14  37  14  38  14  39  14  40  14
M  ISO  8  41   9  42  14  43  14  44  14  45  14  46  14  47  14  48  14
M  END
>  <minimizedAffinity>  (1) 
-5.68905592

>  <minimizedRMSD>  (1) 
4.60975027

$$$$
