
     RDKit          3D

 53 57  0  0  0  0  0  0  0  0999 V2000
   37.8060   26.1970   30.6330 N   0  0  0  0  0  0  0  0  0  0  0  0
   38.3000   25.0480   30.2940 N   0  0  0  0  0  0  0  0  0  0  0  0
   38.0040   24.1640   31.2520 C   0  0  0  0  0  0  0  0  0  0  0  0
   37.2830   24.8460   32.2240 C   0  0  0  0  0  0  0  0  0  0  0  0
   37.1610   26.1570   31.8140 C   0  0  0  0  0  0  0  0  0  0  0  0
   36.4920   27.2660   32.4590 C   0  0  0  0  0  0  0  0  0  0  0  0
   35.3530   27.7850   31.9050 C   0  0  0  0  0  0  0  0  0  0  0  0
   34.6650   28.8330   32.4560 C   0  0  0  0  0  0  0  0  0  0  0  0
   35.1880   29.3620   33.6320 C   0  0  0  0  0  0  0  0  0  0  0  0
   36.3520   28.8470   34.2140 C   0  0  0  0  0  0  0  0  0  0  0  0
   37.0080   27.7840   33.6160 C   0  0  0  0  0  0  0  0  0  0  0  0
   38.0850   27.4290   34.4540 N   0  0  0  0  0  0  0  0  0  0  0  0
   39.4450   27.4450   33.8700 C   0  0  0  0  0  0  0  0  0  0  0  0
   39.8830   25.9730   33.9140 C   0  0  0  0  0  0  0  0  0  0  0  0
   39.9170   25.4840   35.3470 C   0  0  0  0  0  0  0  0  0  0  0  0
   38.5260   25.5440   35.9120 C   0  0  0  0  0  0  0  0  0  0  0  0
   38.0800   27.0060   35.8680 C   0  0  0  0  0  0  0  0  0  0  0  0
   38.2180   22.8040   31.5140 O   0  0  0  0  0  0  0  0  0  0  0  0
   37.1850   21.5170   33.2660 C   0  0  0  0  0  0  0  0  0  0  0  0
   36.1310   20.7560   33.7390 C   0  0  0  0  0  0  0  0  0  0  0  0
   35.0290   20.5070   32.9410 C   0  0  0  0  0  0  0  0  0  0  0  0
   35.0140   21.0520   31.6340 C   0  0  0  0  0  0  0  0  0  0  0  0
   36.0740   21.8020   31.1950 C   0  0  0  0  0  0  0  0  0  0  0  0
   37.1900   22.0560   31.9940 C   0  0  0  0  0  0  0  0  0  0  0  0
   40.5890   21.9330   34.4780 C   0  0  0  0  0  0  0  0  0  0  0  0
   40.4300   22.1420   35.8630 C   0  0  0  0  0  0  0  0  0  0  0  0
   39.1370   22.1370   36.3660 C   0  0  0  0  0  0  0  0  0  0  0  0
   38.1340   21.9330   35.5050 N   0  0  0  0  0  0  0  0  0  0  0  0
   38.3040   21.7340   34.1670 C   0  0  0  0  0  0  0  0  0  0  0  0
   39.5490   21.7350   33.6560 N   0  0  0  0  0  0  0  0  0  0  0  0
   37.8970   27.0486   30.0609 H   0  0  0  0  0  0  0  0  0  0  0  0
   36.8814   24.4172   33.1540 H   0  0  0  0  0  0  0  0  0  0  0  0
   34.9726   27.3396   30.9739 H   0  0  0  0  0  0  0  0  0  0  0  0
   33.7504   29.2341   31.9949 H   0  0  0  0  0  0  0  0  0  0  0  0
   34.6740   30.2055   34.1160 H   0  0  0  0  0  0  0  0  0  0  0  0
   36.7445   29.2852   35.1435 H   0  0  0  0  0  0  0  0  0  0  0  0
   40.1210   28.0726   34.4693 H   0  0  0  0  0  0  0  0  0  0  0  0
   39.4652   27.8635   32.8529 H   0  0  0  0  0  0  0  0  0  0  0  0
   39.1706   25.3638   33.3383 H   0  0  0  0  0  0  0  0  0  0  0  0
   40.8890   25.8830   33.4784 H   0  0  0  0  0  0  0  0  0  0  0  0
   40.2831   24.4471   35.3753 H   0  0  0  0  0  0  0  0  0  0  0  0
   40.5901   26.1182   35.9426 H   0  0  0  0  0  0  0  0  0  0  0  0
   37.8470   24.9250   35.3072 H   0  0  0  0  0  0  0  0  0  0  0  0
   38.5078   25.1622   36.9434 H   0  0  0  0  0  0  0  0  0  0  0  0
   38.7764   27.6287   36.4488 H   0  0  0  0  0  0  0  0  0  0  0  0
   37.0756   27.1179   36.3023 H   0  0  0  0  0  0  0  0  0  0  0  0
   36.1696   20.3453   34.7587 H   0  0  0  0  0  0  0  0  0  0  0  0
   34.1878   19.9026   33.3112 H   0  0  0  0  0  0  0  0  0  0  0  0
   34.1534   20.8738   30.9724 H   0  0  0  0  0  0  0  0  0  0  0  0
   36.0441   22.2183   30.1773 H   0  0  0  0  0  0  0  0  0  0  0  0
   41.6048   21.9324   34.0560 H   0  0  0  0  0  0  0  0  0  0  0  0
   41.2977   22.3029   36.5197 H   0  0  0  0  0  0  0  0  0  0  0  0
   38.9432   22.2955   37.4371 H   0  0  0  0  0  0  0  0  0  0  0  0
  1  5  1  0
  2  1  1  0
  2  3  2  0
  3 18  1  0
  3  4  1  0
  5  4  2  0
  5  6  1  0
  6 11  2  0
  7  8  2  0
  7  6  1  0
  8  9  1  0
  9 10  2  0
 11 10  1  0
 11 12  1  0
 12 17  1  0
 13 14  1  0
 13 12  1  0
 14 15  1  0
 15 16  1  0
 17 16  1  0
 18 24  1  0
 19 20  2  0
 19 29  1  0
 21 20  1  0
 22 21  2  0
 23 22  1  0
 23 24  2  0
 24 19  1  0
 25 26  2  0
 26 27  1  0
 28 27  2  0
 29 28  1  0
 30 29  2  0
 30 25  1  0
  1 31  1  0
  4 32  1  0
  7 33  1  0
  8 34  1  0
  9 35  1  0
 10 36  1  0
 13 37  1  0
 13 38  1  0
 14 39  1  0
 14 40  1  0
 15 41  1  0
 15 42  1  0
 16 43  1  0
 16 44  1  0
 17 45  1  0
 17 46  1  0
 20 47  1  0
 21 48  1  0
 22 49  1  0
 23 50  1  0
 25 51  1  0
 26 52  1  0
 27 53  1  0
M  ISO  8  31   9  32  14  33  14  34  14  35  14  36  14  37  13  38  13
M  ISO  8  39  13  40  13  41  13  42  13  43  13  44  13  45  13  46  13
M  ISO  7  47  14  48  14  49  14  50  14  51  14  52  14  53  14
M  END
>  <minimizedAffinity>  (1) 
-5.64324713

>  <minimizedRMSD>  (1) 
1.89404249

$$$$
