
     RDKit          3D

 23 24  0  0  0  0  0  0  0  0999 V2000
   38.2990   25.0080   36.1110 C   0  0  0  0  0  0  0  0  0  0  0  0
   39.6070   24.6940   35.6950 C   0  0  0  0  0  0  0  0  0  0  0  0
   40.3420   25.6770   35.0000 C   0  0  0  0  0  0  0  0  0  0  0  0
   39.7380   26.8750   34.7730 N   0  0  0  0  0  0  0  0  0  0  0  0
   38.4820   27.1480   35.1830 C   0  0  0  0  0  0  0  0  0  0  0  0
   37.7750   26.2080   35.8490 N   0  0  0  0  0  0  0  0  0  0  0  0
   40.2380   23.3920   35.9530 C   0  0  0  0  0  0  0  0  0  0  0  0
   41.7460   23.4320   35.8330 C   0  0  0  0  0  0  0  0  0  0  0  0
   42.2590   22.3300   36.7370 C   0  0  0  0  0  0  0  0  0  0  0  0
   41.0290   21.7170   37.3780 C   0  0  0  0  0  0  0  0  0  0  0  0
   40.0750   22.8960   37.3700 C   0  0  0  0  0  0  0  0  0  0  0  0
   37.7046   24.2596   36.6556 H   0  0  0  0  0  0  0  0  0  0  0  0
   41.3677   25.4820   34.6536 H   0  0  0  0  0  0  0  0  0  0  0  0
   38.0351   28.1316   34.9761 H   0  0  0  0  0  0  0  0  0  0  0  0
   39.7376   22.7557   35.2082 H   0  0  0  0  0  0  0  0  0  0  0  0
   42.0529   23.2486   34.7927 H   0  0  0  0  0  0  0  0  0  0  0  0
   42.1501   24.4138   36.1206 H   0  0  0  0  0  0  0  0  0  0  0  0
   42.8022   21.5746   36.1502 H   0  0  0  0  0  0  0  0  0  0  0  0
   42.9589   22.7178   37.4919 H   0  0  0  0  0  0  0  0  0  0  0  0
   40.6391   20.8787   36.7820 H   0  0  0  0  0  0  0  0  0  0  0  0
   41.2061   21.2860   38.3744 H   0  0  0  0  0  0  0  0  0  0  0  0
   40.3728   23.6611   38.1021 H   0  0  0  0  0  0  0  0  0  0  0  0
   39.0404   22.6428   37.6446 H   0  0  0  0  0  0  0  0  0  0  0  0
  2  7  1  0
  2  1  2  0
  3  2  1  0
  4  3  2  0
  4  5  1  0
  5  6  2  0
  6  1  1  0
  7 11  1  0
  8  7  1  0
  8  9  1  0
  9 10  1  0
 11 10  1  0
  1 12  1  0
  3 13  1  0
  5 14  1  0
  7 15  1  0
  8 16  1  0
  8 17  1  0
  9 18  1  0
  9 19  1  0
 10 20  1  0
 10 21  1  0
 11 22  1  0
 11 23  1  0
M  ISO  8  12  14  13  14  14  14  15  13  16  13  17  13  18  13  19  13
M  ISO  4  20  13  21  13  22  13  23  13
M  END
>  <minimizedAffinity>  (1) 
-3.34689593

>  <minimizedRMSD>  (1) 
4.57149792

$$$$
