
     RDKit          3D

 37 40  0  0  1  0  0  0  0  0999 V2000
   37.7410   27.1290   32.9300 C   0  0  1  0  0  0  0  0  0  0  0  0
   38.5370   27.6070   31.7180 C   0  0  0  0  0  0  0  0  0  0  0  0
   39.9290   27.1180   31.9480 C   0  0  0  0  0  0  0  0  0  0  0  0
   40.0580   26.7920   33.3890 C   0  0  0  0  0  0  0  0  0  0  0  0
   38.7320   27.1090   34.0080 C   0  0  2  0  0  0  0  0  0  0  0  0
   38.4310   25.9800   34.9600 C   0  0  0  0  0  0  0  0  0  0  0  0
   38.3760   26.3430   36.3040 C   0  0  0  0  0  0  0  0  0  0  0  0
   38.1130   25.2250   37.0450 N   0  0  0  0  0  0  0  0  0  0  0  0
   37.9980   24.1700   36.2360 C   0  0  0  0  0  0  0  0  0  0  0  0
   37.7460   22.8250   36.3310 C   0  0  0  0  0  0  0  0  0  0  0  0
   37.6970   22.0170   35.1990 C   0  0  0  0  0  0  0  0  0  0  0  0
   37.9020   22.5350   33.9160 C   0  0  0  0  0  0  0  0  0  0  0  0
   38.1600   23.8940   33.7750 C   0  0  0  0  0  0  0  0  0  0  0  0
   38.1920   24.6260   34.9590 C   0  0  0  0  0  0  0  0  0  0  0  0
   36.3180   28.6020   34.3180 C   0  0  0  0  0  0  0  0  0  0  0  0
   36.5310   27.9390   33.1210 C   0  0  0  0  0  0  0  0  0  0  0  0
   35.5630   28.0570   32.1170 C   0  0  0  0  0  0  0  0  0  0  0  0
   34.4690   28.8120   32.3700 N   0  0  0  0  0  0  0  0  0  0  0  0
   34.2740   29.4500   33.5390 C   0  0  0  0  0  0  0  0  0  0  0  0
   35.2110   29.3430   34.5240 N   0  0  0  0  0  0  0  0  0  0  0  0
   37.2996   26.1251   32.8446 H   0  0  0  0  0  0  0  0  0  0  0  0
   38.5194   28.7049   31.6532 H   0  0  0  0  0  0  0  0  0  0  0  0
   38.1179   27.2275   30.7744 H   0  0  0  0  0  0  0  0  0  0  0  0
   40.1156   26.2191   31.3420 H   0  0  0  0  0  0  0  0  0  0  0  0
   40.6609   27.8866   31.6590 H   0  0  0  0  0  0  0  0  0  0  0  0
   40.2947   25.7257   33.5193 H   0  0  0  0  0  0  0  0  0  0  0  0
   40.8686   27.3676   33.8597 H   0  0  0  0  0  0  0  0  0  0  0  0
   38.7227   28.0741   34.5357 H   0  0  0  0  0  0  0  0  0  0  0  0
   38.5200   27.3584   36.7018 H   0  0  0  0  0  0  0  0  0  0  0  0
   38.0181   25.2006   38.0703 H   0  0  0  0  0  0  0  0  0  0  0  0
   37.5794   22.3763   37.3214 H   0  0  0  0  0  0  0  0  0  0  0  0
   37.4917   20.9427   35.3163 H   0  0  0  0  0  0  0  0  0  0  0  0
   37.8599   21.8788   33.0341 H   0  0  0  0  0  0  0  0  0  0  0  0
   38.3278   24.3601   32.7929 H   0  0  0  0  0  0  0  0  0  0  0  0
   37.0686   28.5222   35.1182 H   0  0  0  0  0  0  0  0  0  0  0  0
   35.6882   27.5499   31.1489 H   0  0  0  0  0  0  0  0  0  0  0  0
   33.3673   30.0521   33.6983 H   0  0  0  0  0  0  0  0  0  0  0  0
  1 16  1  0
  1  5  1  0
  2  3  1  0
  2  1  1  0
  3  4  1  0
  4  5  1  0
  5  6  1  0
  6  7  2  0
  7  8  1  0
  9 10  2  0
  9  8  1  0
 11 10  1  0
 12 11  2  0
 13 12  1  0
 13 14  2  0
 14  6  1  0
 14  9  1  0
 15 20  2  0
 16 15  1  0
 17 18  1  0
 17 16  2  0
 18 19  2  0
 19 20  1  0
  1 21  1  6
  2 22  1  0
  2 23  1  0
  3 24  1  0
  3 25  1  0
  4 26  1  0
  4 27  1  0
  5 28  1  1
  7 29  1  0
  8 30  1  0
 10 31  1  0
 11 32  1  0
 12 33  1  0
 13 34  1  0
 15 35  1  0
 17 36  1  0
 19 37  1  0
M  ISO  8  21  13  22  13  23  13  24  13  25  13  26  13  27  13  28  13
M  ISO  8  29  14  30   9  31  14  32  14  33  14  34  14  35  14  36  14
M  ISO  1  37  14
M  END
>  <minimizedAffinity>  (1) 
-4.98060703

>  <minimizedRMSD>  (1) 
5.37176228

$$$$
