
     RDKit          3D

 34 36  0  0  1  0  0  0  0  0999 V2000
   39.3390   24.5310   34.8980 C   0  0  1  0  0  0  0  0  0  0  0  0
   40.8320   24.8520   34.8030 C   0  0  0  0  0  0  0  0  0  0  0  0
   41.5390   23.7190   35.4970 C   0  0  0  0  0  0  0  0  0  0  0  0
   40.4720   22.8940   36.1470 C   0  0  0  0  0  0  0  0  0  0  0  0
   39.2870   23.8340   36.1980 C   0  0  2  0  0  0  0  0  0  0  0  0
   38.1280   22.9940   36.4240 N   0  0  0  0  0  0  0  0  0  0  0  0
   37.6720   22.0900   35.5050 C   0  0  0  0  0  0  0  0  0  0  0  0
   36.5540   21.3190   35.7940 C   0  0  0  0  0  0  0  0  0  0  0  0
   35.8630   21.4260   37.0020 C   0  0  0  0  0  0  0  0  0  0  0  0
   34.7380   20.6290   37.2590 N   0  0  0  0  0  0  0  0  0  0  0  0
   36.3480   22.3330   37.8860 N   0  0  0  0  0  0  0  0  0  0  0  0
   37.4300   23.0730   37.5950 C   0  0  0  0  0  0  0  0  0  0  0  0
   37.7750   23.8830   38.5120 O   0  0  0  0  0  0  0  0  0  0  0  0
   38.5950   26.8180   35.7070 C   0  0  0  0  0  0  0  0  0  0  0  0
   38.5180   25.7540   34.8010 C   0  0  0  0  0  0  0  0  0  0  0  0
   37.6130   25.8490   33.7360 C   0  0  0  0  0  0  0  0  0  0  0  0
   36.8660   26.9930   33.6690 N   0  0  0  0  0  0  0  0  0  0  0  0
   36.9570   27.9980   34.5480 C   0  0  0  0  0  0  0  0  0  0  0  0
   37.8250   27.9030   35.5670 N   0  0  0  0  0  0  0  0  0  0  0  0
   38.9234   23.9190   34.0839 H   0  0  0  0  0  0  0  0  0  0  0  0
   41.1450   24.9114   33.7501 H   0  0  0  0  0  0  0  0  0  0  0  0
   41.0683   25.8214   35.2660 H   0  0  0  0  0  0  0  0  0  0  0  0
   42.0968   23.1139   34.7671 H   0  0  0  0  0  0  0  0  0  0  0  0
   42.2625   24.0922   36.2368 H   0  0  0  0  0  0  0  0  0  0  0  0
   40.2420   22.0024   35.5452 H   0  0  0  0  0  0  0  0  0  0  0  0
   40.7642   22.5159   37.1378 H   0  0  0  0  0  0  0  0  0  0  0  0
   39.2677   24.5959   36.9912 H   0  0  0  0  0  0  0  0  0  0  0  0
   38.1887   21.9741   34.5408 H   0  0  0  0  0  0  0  0  0  0  0  0
   36.1998   20.5972   35.0433 H   0  0  0  0  0  0  0  0  0  0  0  0
   34.2374   20.7182   38.1547 H   0  0  0  0  0  0  0  0  0  0  0  0
   34.4124   19.9544   36.5520 H   0  0  0  0  0  0  0  0  0  0  0  0
   39.3009   26.7611   36.5487 H   0  0  0  0  0  0  0  0  0  0  0  0
   37.5085   25.0454   32.9922 H   0  0  0  0  0  0  0  0  0  0  0  0
   36.3268   28.8927   34.4364 H   0  0  0  0  0  0  0  0  0  0  0  0
  1  5  1  0
  2  1  1  0
  2  3  1  0
  3  4  1  0
  4  5  1  0
  5  6  1  0
  6 12  1  0
  7  8  2  0
  7  6  1  0
  8  9  1  0
  9 10  1  0
  9 11  2  0
 12 11  1  0
 12 13  2  0
 15  1  1  0
 15 14  2  0
 16 15  1  0
 17 16  2  0
 17 18  1  0
 18 19  2  0
 19 14  1  0
  1 20  1  6
  2 21  1  0
  2 22  1  0
  3 23  1  0
  3 24  1  0
  4 25  1  0
  4 26  1  0
  5 27  1  1
  7 28  1  0
  8 29  1  0
 10 30  1  0
 10 31  1  0
 14 32  1  0
 16 33  1  0
 18 34  1  0
M  ISO  8  20  13  21  13  22  13  23  13  24  13  25  13  26  13  27  13
M  ISO  5  28  14  29  14  32  14  33  14  34  14
M  END
>  <minimizedAffinity>  (1) 
-4.86695242

>  <minimizedRMSD>  (1) 
1.79128134

$$$$
