
     RDKit          3D

 32 34  0  0  1  0  0  0  0  0999 V2000
   39.4750   26.2960   32.9110 C   0  0  1  0  0  0  0  0  0  0  0  0
   40.4420   27.1940   32.1970 C   0  0  0  0  0  0  0  0  0  0  0  0
   41.5540   27.4720   33.1820 C   0  0  0  0  0  0  0  0  0  0  0  0
   41.1630   26.8040   34.4600 C   0  0  0  0  0  0  0  0  0  0  0  0
   39.6420   26.7380   34.3530 C   0  0  2  0  0  0  0  0  0  0  0  0
   37.3560   25.2010   32.2320 C   0  0  0  0  0  0  0  0  0  0  0  0
   38.1170   26.3520   32.4160 C   0  0  0  0  0  0  0  0  0  0  0  0
   37.5550   27.6070   32.0600 C   0  0  0  0  0  0  0  0  0  0  0  0
   36.2980   27.6220   31.5530 N   0  0  0  0  0  0  0  0  0  0  0  0
   35.5780   26.4820   31.3830 C   0  0  0  0  0  0  0  0  0  0  0  0
   36.1160   25.2790   31.7250 N   0  0  0  0  0  0  0  0  0  0  0  0
   39.2420   25.6790   35.3300 C   0  0  0  0  0  0  0  0  0  0  0  0
   38.1860   25.7410   36.2460 C   0  0  0  0  0  0  0  0  0  0  0  0
   37.9660   24.6560   37.0690 C   0  0  0  0  0  0  0  0  0  0  0  0
   38.7510   23.5220   37.0150 C   0  0  0  0  0  0  0  0  0  0  0  0
   39.7770   23.4950   36.1060 C   0  0  0  0  0  0  0  0  0  0  0  0
   39.9990   24.5440   35.3030 N   0  0  0  0  0  0  0  0  0  0  0  0
   39.6871   25.2274   32.7588 H   0  0  0  0  0  0  0  0  0  0  0  0
   40.8399   26.6932   31.3021 H   0  0  0  0  0  0  0  0  0  0  0  0
   39.9581   28.1231   31.8615 H   0  0  0  0  0  0  0  0  0  0  0  0
   42.5031   27.0576   32.8111 H   0  0  0  0  0  0  0  0  0  0  0  0
   41.6985   28.5530   33.3253 H   0  0  0  0  0  0  0  0  0  0  0  0
   41.5996   25.7969   34.5308 H   0  0  0  0  0  0  0  0  0  0  0  0
   41.5147   27.3365   35.3560 H   0  0  0  0  0  0  0  0  0  0  0  0
   39.0557   27.6436   34.5678 H   0  0  0  0  0  0  0  0  0  0  0  0
   37.7741   24.2206   32.5041 H   0  0  0  0  0  0  0  0  0  0  0  0
   38.1233   28.5395   32.1919 H   0  0  0  0  0  0  0  0  0  0  0  0
   34.5601   26.5312   30.9689 H   0  0  0  0  0  0  0  0  0  0  0  0
   37.5464   26.6338   36.3083 H   0  0  0  0  0  0  0  0  0  0  0  0
   37.1379   24.6959   37.7919 H   0  0  0  0  0  0  0  0  0  0  0  0
   38.5595   22.6671   37.6802 H   0  0  0  0  0  0  0  0  0  0  0  0
   40.4218   22.6066   36.0356 H   0  0  0  0  0  0  0  0  0  0  0  0
  1  5  1  0
  2  1  1  0
  2  3  1  0
  3  4  1  0
  5  4  1  0
  5 12  1  0
  6  7  2  0
  7  1  1  0
  8  7  1  0
  9  8  2  0
 10  9  1  0
 10 11  2  0
 11  6  1  0
 12 13  2  0
 13 14  1  0
 15 14  2  0
 16 15  1  0
 17 12  1  0
 17 16  2  0
  1 18  1  1
  2 19  1  0
  2 20  1  0
  3 21  1  0
  3 22  1  0
  4 23  1  0
  4 24  1  0
  5 25  1  1
  6 26  1  0
  8 27  1  0
 10 28  1  0
 13 29  1  0
 14 30  1  0
 15 31  1  0
 16 32  1  0
M  ISO  8  18  13  19  13  20  13  21  13  22  13  23  13  24  13  25  13
M  ISO  7  26  14  27  14  28  14  29  14  30  14  31  14  32  14
M  END
>  <minimizedAffinity>  (1) 
-4.63115549

>  <minimizedRMSD>  (1) 
4.63561296

$$$$
