
     RDKit          3D

 30 32  0  0  1  0  0  0  0  0999 V2000
   39.4070   22.8740   37.2670 C   0  0  1  0  0  0  0  0  0  0  0  0
   39.2260   23.4600   38.6360 C   0  0  0  0  0  0  0  0  0  0  0  0
   37.9580   24.2660   38.5710 C   0  0  0  0  0  0  0  0  0  0  0  0
   37.4810   24.2040   37.1560 C   0  0  0  0  0  0  0  0  0  0  0  0
   38.7540   23.8930   36.3760 C   0  0  2  0  0  0  0  0  0  0  0  0
   41.5620   23.4570   36.2070 C   0  0  0  0  0  0  0  0  0  0  0  0
   40.8020   22.5610   36.9550 C   0  0  0  0  0  0  0  0  0  0  0  0
   41.3710   21.3530   37.3800 C   0  0  0  0  0  0  0  0  0  0  0  0
   42.6650   21.1060   37.0360 N   0  0  0  0  0  0  0  0  0  0  0  0
   43.3980   21.9900   36.3030 C   0  0  0  0  0  0  0  0  0  0  0  0
   42.8460   23.1670   35.8880 N   0  0  0  0  0  0  0  0  0  0  0  0
   38.2770   23.2270   35.1320 C   0  0  0  0  0  0  0  0  0  0  0  0
   37.6310   21.9990   35.1120 C   0  0  0  0  0  0  0  0  0  0  0  0
   37.3250   21.6910   33.8390 N   0  0  0  0  0  0  0  0  0  0  0  0
   37.7570   22.6890   33.0450 C   0  0  0  0  0  0  0  0  0  0  0  0
   38.3340   23.6230   33.8240 N   0  0  0  0  0  0  0  0  0  0  0  0
   38.9455   21.8832   37.1435 H   0  0  0  0  0  0  0  0  0  0  0  0
   39.1340   22.6606   39.3860 H   0  0  0  0  0  0  0  0  0  0  0  0
   40.0861   24.0803   38.9284 H   0  0  0  0  0  0  0  0  0  0  0  0
   37.2016   23.8376   39.2450 H   0  0  0  0  0  0  0  0  0  0  0  0
   38.1340   25.3058   38.8837 H   0  0  0  0  0  0  0  0  0  0  0  0
   36.7334   23.4077   37.0257 H   0  0  0  0  0  0  0  0  0  0  0  0
   36.9860   25.1290   36.8253 H   0  0  0  0  0  0  0  0  0  0  0  0
   39.4144   24.7374   36.1293 H   0  0  0  0  0  0  0  0  0  0  0  0
   41.1167   24.4059   35.8733 H   0  0  0  0  0  0  0  0  0  0  0  0
   40.7918   20.6287   37.9716 H   0  0  0  0  0  0  0  0  0  0  0  0
   44.4407   21.7537   36.0442 H   0  0  0  0  0  0  0  0  0  0  0  0
   37.4061   21.3793   35.9926 H   0  0  0  0  0  0  0  0  0  0  0  0
   37.6560   22.7334   31.9505 H   0  0  0  0  0  0  0  0  0  0  0  0
   38.7539   24.5010   33.4869 H   0  0  0  0  0  0  0  0  0  0  0  0
  1  2  1  0
  3  2  1  0
  4  3  1  0
  5  4  1  0
  5  1  1  0
  6  7  2  0
  7  1  1  0
  7  8  1  0
  9  8  2  0
 10  9  1  0
 11  6  1  0
 11 10  2  0
 12  5  1  0
 13 12  2  0
 14 13  1  0
 15 16  1  0
 15 14  2  0
 16 12  1  0
  1 17  1  1
  2 18  1  0
  2 19  1  0
  3 20  1  0
  3 21  1  0
  4 22  1  0
  4 23  1  0
  5 24  1  6
  6 25  1  0
  8 26  1  0
 10 27  1  0
 13 28  1  0
 15 29  1  0
 16 30  1  0
M  ISO  8  17  13  18  13  19  13  20  13  21  13  22  13  23  13  24  13
M  ISO  6  25  14  26  14  27  14  28  14  29  14  30   9
M  END
>  <minimizedAffinity>  (1) 
-4.46388578

>  <minimizedRMSD>  (1) 
4.50737953

$$$$
