
     RDKit          3D

 35 36  0  0  1  0  0  0  0  0999 V2000
   40.2000   24.8770   34.9230 C   0  0  1  0  0  0  0  0  0  0  0  0
   41.5310   25.6470   34.8630 C   0  0  0  0  0  0  0  0  0  0  0  0
   42.5400   24.6320   35.2880 C   0  0  0  0  0  0  0  0  0  0  0  0
   41.7740   23.4790   35.8990 C   0  0  0  0  0  0  0  0  0  0  0  0
   40.3900   24.0970   36.1330 C   0  0  2  0  0  0  0  0  0  0  0  0
   38.0800   25.5650   33.9200 C   0  0  0  0  0  0  0  0  0  0  0  0
   39.0890   25.8180   34.8530 C   0  0  0  0  0  0  0  0  0  0  0  0
   38.9860   26.9700   35.6830 C   0  0  0  0  0  0  0  0  0  0  0  0
   37.9090   27.7690   35.5320 N   0  0  0  0  0  0  0  0  0  0  0  0
   36.9410   27.4890   34.6110 C   0  0  0  0  0  0  0  0  0  0  0  0
   37.0400   26.3830   33.8110 N   0  0  0  0  0  0  0  0  0  0  0  0
   39.5350   23.0670   36.6950 C   0  0  0  0  0  0  0  0  0  0  0  0
   38.8510   22.1290   35.7310 C   0  0  0  0  0  0  0  0  0  0  0  0
   40.5600   22.0650   37.3600 C   0  0  0  0  0  0  0  0  0  0  0  0
   38.6780   23.4390   37.8810 C   0  0  0  0  0  0  0  0  0  0  0  0
   39.9407   24.2013   34.0947 H   0  0  0  0  0  0  0  0  0  0  0  0
   41.7351   26.0005   33.8415 H   0  0  0  0  0  0  0  0  0  0  0  0
   41.5348   26.5463   35.4964 H   0  0  0  0  0  0  0  0  0  0  0  0
   43.1163   24.2843   34.4179 H   0  0  0  0  0  0  0  0  0  0  0  0
   43.2489   25.0609   36.0116 H   0  0  0  0  0  0  0  0  0  0  0  0
   41.7180   22.6260   35.2067 H   0  0  0  0  0  0  0  0  0  0  0  0
   42.2373   23.0754   36.8114 H   0  0  0  0  0  0  0  0  0  0  0  0
   40.1537   24.8413   36.9077 H   0  0  0  0  0  0  0  0  0  0  0  0
   38.1480   24.6802   33.2700 H   0  0  0  0  0  0  0  0  0  0  0  0
   39.7626   27.2024   36.4266 H   0  0  0  0  0  0  0  0  0  0  0  0
   36.0738   28.1583   34.5110 H   0  0  0  0  0  0  0  0  0  0  0  0
   38.2944   21.3657   36.2946 H   0  0  0  0  0  0  0  0  0  0  0  0
   38.1543   22.6979   35.0978 H   0  0  0  0  0  0  0  0  0  0  0  0
   39.6057   21.6396   35.0978 H   0  0  0  0  0  0  0  0  0  0  0  0
   40.4857   22.1376   38.4551 H   0  0  0  0  0  0  0  0  0  0  0  0
   40.3261   21.0377   37.0439 H   0  0  0  0  0  0  0  0  0  0  0  0
   41.5817   22.3222   37.0439 H   0  0  0  0  0  0  0  0  0  0  0  0
   39.2172   23.2050   38.8108 H   0  0  0  0  0  0  0  0  0  0  0  0
   38.4538   24.5154   37.8482 H   0  0  0  0  0  0  0  0  0  0  0  0
   37.7386   22.8677   37.8482 H   0  0  0  0  0  0  0  0  0  0  0  0
  1  5  1  0
  2  1  1  0
  2  3  1  0
  3  4  1  0
  4  5  1  0
  5 12  1  0
  6  7  2  0
  7  1  1  0
  7  8  1  0
  9  8  2  0
 10  9  1  0
 11  6  1  0
 11 10  2  0
 12 14  1  0
 12 15  1  0
 13 12  1  0
  1 16  1  6
  2 17  1  0
  2 18  1  0
  3 19  1  0
  3 20  1  0
  4 21  1  0
  4 22  1  0
  5 23  1  1
  6 24  1  0
  8 25  1  0
 10 26  1  0
 13 27  1  0
 13 28  1  0
 13 29  1  0
 14 30  1  0
 14 31  1  0
 14 32  1  0
 15 33  1  0
 15 34  1  0
 15 35  1  0
M  ISO  8  16  13  17  13  18  13  19  13  20  13  21  13  22  13  23  13
M  ISO  8  24  14  25  14  26  14  27   8  28   8  29   8  30   8  31   8
M  ISO  4  32   8  33   8  34   8  35   8
M  END
>  <minimizedAffinity>  (1) 
-4.1973815

>  <minimizedRMSD>  (1) 
2.06052446

$$$$
