
     RDKit          3D

 30 32  0  0  1  0  0  0  0  0999 V2000
   38.9800   23.7740   35.1400 C   0  0  1  0  0  0  0  0  0  0  0  0
   40.4250   24.0770   35.4150 C   0  0  0  0  0  0  0  0  0  0  0  0
   40.8700   23.0520   36.4280 C   0  0  0  0  0  0  0  0  0  0  0  0
   39.6630   22.2720   36.8160 C   0  0  0  0  0  0  0  0  0  0  0  0
   38.5110   23.1900   36.4490 C   0  0  2  0  0  0  0  0  0  0  0  0
   37.9910   26.0150   35.5690 C   0  0  0  0  0  0  0  0  0  0  0  0
   38.2320   24.9590   34.6940 C   0  0  0  0  0  0  0  0  0  0  0  0
   37.7370   25.0390   33.3850 C   0  0  0  0  0  0  0  0  0  0  0  0
   37.0430   26.1390   33.0180 N   0  0  0  0  0  0  0  0  0  0  0  0
   36.8180   27.1620   33.8880 C   0  0  0  0  0  0  0  0  0  0  0  0
   37.2940   27.0970   35.1630 N   0  0  0  0  0  0  0  0  0  0  0  0
   37.3730   22.2800   36.1460 C   0  0  0  0  0  0  0  0  0  0  0  0
   37.0940   21.5630   35.0010 C   0  0  0  0  0  0  0  0  0  0  0  0
   35.9220   20.8660   35.2150 C   0  0  0  0  0  0  0  0  0  0  0  0
   35.5750   21.2210   36.4990 C   0  0  0  0  0  0  0  0  0  0  0  0
   36.4250   22.0500   37.0450 O   0  0  0  0  0  0  0  0  0  0  0  0
   38.8203   23.0791   34.3023 H   0  0  0  0  0  0  0  0  0  0  0  0
   41.0180   23.9878   34.4929 H   0  0  0  0  0  0  0  0  0  0  0  0
   40.5614   25.1029   35.7878 H   0  0  0  0  0  0  0  0  0  0  0  0
   41.6243   22.3853   35.9847 H   0  0  0  0  0  0  0  0  0  0  0  0
   41.3227   23.5374   37.3052 H   0  0  0  0  0  0  0  0  0  0  0  0
   39.6077   21.3284   36.2534 H   0  0  0  0  0  0  0  0  0  0  0  0
   39.6612   21.9881   37.8787 H   0  0  0  0  0  0  0  0  0  0  0  0
   38.2340   23.9424   37.2021 H   0  0  0  0  0  0  0  0  0  0  0  0
   38.3719   25.9669   36.5998 H   0  0  0  0  0  0  0  0  0  0  0  0
   37.9103   24.2215   32.6697 H   0  0  0  0  0  0  0  0  0  0  0  0
   36.2495   28.0447   33.5601 H   0  0  0  0  0  0  0  0  0  0  0  0
   37.6977   21.5492   34.0816 H   0  0  0  0  0  0  0  0  0  0  0  0
   35.3933   20.1905   34.5264 H   0  0  0  0  0  0  0  0  0  0  0  0
   34.6767   20.8463   37.0115 H   0  0  0  0  0  0  0  0  0  0  0  0
  1  2  1  0
  1  5  1  0
  2  3  1  0
  3  4  1  0
  5  4  1  0
  7  1  1  0
  7  6  2  0
  8  7  1  0
  9  8  2  0
  9 10  1  0
 10 11  2  0
 11  6  1  0
 12  5  1  0
 12 16  1  0
 13 14  1  0
 13 12  2  0
 14 15  2  0
 15 16  1  0
  1 17  1  6
  2 18  1  0
  2 19  1  0
  3 20  1  0
  3 21  1  0
  4 22  1  0
  4 23  1  0
  5 24  1  1
  6 25  1  0
  8 26  1  0
 10 27  1  0
 13 28  1  0
 14 29  1  0
 15 30  1  0
M  ISO  8  17  13  18  13  19  13  20  13  21  13  22  13  23  13  24  13
M  ISO  6  25  14  26  14  27  14  28  14  29  14  30  14
M  END
>  <minimizedAffinity>  (1) 
-4.11733103

>  <minimizedRMSD>  (1) 
2.09051013

$$$$
