
     RDKit          3D

 37 39  0  0  1  0  0  0  0  0999 V2000
   40.2560   24.7340   34.4400 C   0  0  1  0  0  0  0  0  0  0  0  0
   41.5480   25.3940   34.0690 C   0  0  0  0  0  0  0  0  0  0  0  0
   42.6480   24.4700   34.5480 C   0  0  0  0  0  0  0  0  0  0  0  0
   41.9540   23.3680   35.3000 C   0  0  0  0  0  0  0  0  0  0  0  0
   40.6610   24.0160   35.7100 C   0  0  2  0  0  0  0  0  0  0  0  0
   38.0120   25.6400   33.8300 C   0  0  0  0  0  0  0  0  0  0  0  0
   39.1580   25.7030   34.6200 C   0  0  0  0  0  0  0  0  0  0  0  0
   39.2660   26.7350   35.5920 C   0  0  0  0  0  0  0  0  0  0  0  0
   38.2360   27.6000   35.6870 N   0  0  0  0  0  0  0  0  0  0  0  0
   37.1290   27.5230   34.9080 C   0  0  0  0  0  0  0  0  0  0  0  0
   37.0270   26.5330   33.9770 N   0  0  0  0  0  0  0  0  0  0  0  0
   39.7000   23.1170   36.2460 N   0  0  0  0  0  0  0  0  0  0  0  0
   38.7150   22.8700   35.1740 C   0  0  0  0  0  0  0  0  0  0  0  0
   37.7440   21.7890   35.6160 C   0  0  0  0  0  0  0  0  0  0  0  0
   36.9700   22.3490   36.6930 N   0  0  0  0  0  0  0  0  0  0  0  0
   37.4970   23.6010   37.1750 C   0  0  0  0  0  0  0  0  0  0  0  0
   38.9900   23.6000   37.3970 C   0  0  0  0  0  0  0  0  0  0  0  0
   39.8407   24.0636   33.6731 H   0  0  0  0  0  0  0  0  0  0  0  0
   41.6092   25.5263   32.9787 H   0  0  0  0  0  0  0  0  0  0  0  0
   41.6345   26.3906   34.5264 H   0  0  0  0  0  0  0  0  0  0  0  0
   43.2040   24.0595   33.6922 H   0  0  0  0  0  0  0  0  0  0  0  0
   43.3755   24.9986   35.1815 H   0  0  0  0  0  0  0  0  0  0  0  0
   41.7741   22.4972   34.6524 H   0  0  0  0  0  0  0  0  0  0  0  0
   42.5382   22.9812   36.1480 H   0  0  0  0  0  0  0  0  0  0  0  0
   40.7584   24.7019   36.5644 H   0  0  0  0  0  0  0  0  0  0  0  0
   37.9160   24.8454   33.0754 H   0  0  0  0  0  0  0  0  0  0  0  0
   40.1515   26.8239   36.2385 H   0  0  0  0  0  0  0  0  0  0  0  0
   36.3173   28.2559   35.0268 H   0  0  0  0  0  0  0  0  0  0  0  0
   39.2385   22.5424   34.2637 H   0  0  0  0  0  0  0  0  0  0  0  0
   38.1607   23.7970   34.9655 H   0  0  0  0  0  0  0  0  0  0  0  0
   37.0851   21.5061   34.7818 H   0  0  0  0  0  0  0  0  0  0  0  0
   38.2779   20.8833   35.9394 H   0  0  0  0  0  0  0  0  0  0  0  0
   36.0081   22.5047   36.3592 H   0  0  0  0  0  0  0  0  0  0  0  0
   37.2584   24.3821   36.4382 H   0  0  0  0  0  0  0  0  0  0  0  0
   37.0320   23.7830   38.1552 H   0  0  0  0  0  0  0  0  0  0  0  0
   39.2218   22.9529   38.2558 H   0  0  0  0  0  0  0  0  0  0  0  0
   39.3084   24.6360   37.5852 H   0  0  0  0  0  0  0  0  0  0  0  0
  1  7  1  0
  1  5  1  0
  2  1  1  0
  2  3  1  0
  3  4  1  0
  4  5  1  0
  5 12  1  0
  6 11  2  0
  6  7  1  0
  7  8  2  0
  8  9  1  0
 10  9  2  0
 11 10  1  0
 12 17  1  0
 13 14  1  0
 13 12  1  0
 14 15  1  0
 15 16  1  0
 16 17  1  0
  1 18  1  6
  2 19  1  0
  2 20  1  0
  3 21  1  0
  3 22  1  0
  4 23  1  0
  4 24  1  0
  5 25  1  1
  6 26  1  0
  8 27  1  0
 10 28  1  0
 13 29  1  0
 13 30  1  0
 14 31  1  0
 14 32  1  0
 15 33  1  0
 16 34  1  0
 16 35  1  0
 17 36  1  0
 17 37  1  0
M  ISO  8  18  13  19  13  20  13  21  13  22  13  23  13  24  13  25  13
M  ISO  8  26  14  27  14  28  14  29  13  30  13  31  13  32  13  33   5
M  ISO  4  34  13  35  13  36  13  37  13
M  END
>  <minimizedAffinity>  (1) 
-4.06431961

>  <minimizedRMSD>  (1) 
2.02816129

$$$$
