
     RDKit          3D

 38 40  0  0  1  0  0  0  0  0999 V2000
   41.8540   23.4320   34.6820 C   0  0  1  0  0  0  0  0  0  0  0  0
   43.0350   23.6380   35.5720 C   0  0  0  0  0  0  0  0  0  0  0  0
   43.0130   22.4910   36.5660 C   0  0  0  0  0  0  0  0  0  0  0  0
   41.8410   21.6400   36.1720 C   0  0  0  0  0  0  0  0  0  0  0  0
   40.9220   22.6100   35.4930 C   0  0  1  0  0  0  0  0  0  0  0  0
   40.5070   24.7150   32.9600 C   0  0  0  0  0  0  0  0  0  0  0  0
   41.2820   24.6860   34.1450 C   0  0  0  0  0  0  0  0  0  0  0  0
   41.5320   25.8940   34.8430 C   0  0  0  0  0  0  0  0  0  0  0  0
   41.0010   27.0220   34.3180 N   0  0  0  0  0  0  0  0  0  0  0  0
   40.2670   27.0260   33.1900 C   0  0  0  0  0  0  0  0  0  0  0  0
   40.0310   25.8730   32.5280 N   0  0  0  0  0  0  0  0  0  0  0  0
   39.9670   23.2400   36.2940 N   0  0  0  0  0  0  0  0  0  0  0  0
   38.6850   23.3570   35.6150 C   0  0  0  0  0  0  0  0  0  0  0  0
   37.6590   22.4680   36.2710 C   0  0  0  0  0  0  0  0  0  0  0  0
   37.3380   23.1420   37.5960 C   0  0  0  0  0  0  0  0  0  0  0  0
   38.6050   23.5400   38.2660 C   0  0  0  0  0  0  0  0  0  0  0  0
   39.8610   22.9360   37.6650 C   0  0  0  0  0  0  0  0  0  0  0  0
   42.1219   22.9151   33.7487 H   0  0  0  0  0  0  0  0  0  0  0  0
   43.9648   23.6173   34.9846 H   0  0  0  0  0  0  0  0  0  0  0  0
   42.9925   24.6129   36.0798 H   0  0  0  0  0  0  0  0  0  0  0  0
   43.9462   21.9118   36.5051 H   0  0  0  0  0  0  0  0  0  0  0  0
   42.9257   22.8508   37.6018 H   0  0  0  0  0  0  0  0  0  0  0  0
   42.1490   20.8404   35.4822 H   0  0  0  0  0  0  0  0  0  0  0  0
   41.3728   21.1304   37.0271 H   0  0  0  0  0  0  0  0  0  0  0  0
   40.1725   22.1288   34.8475 H   0  0  0  0  0  0  0  0  0  0  0  0
   40.3029   23.7873   32.4053 H   0  0  0  0  0  0  0  0  0  0  0  0
   42.1288   25.9133   35.7668 H   0  0  0  0  0  0  0  0  0  0  0  0
   39.8578   27.9720   32.8059 H   0  0  0  0  0  0  0  0  0  0  0  0
   38.8036   23.0584   34.5630 H   0  0  0  0  0  0  0  0  0  0  0  0
   38.3433   24.4008   35.6757 H   0  0  0  0  0  0  0  0  0  0  0  0
   36.7563   22.3945   35.6467 H   0  0  0  0  0  0  0  0  0  0  0  0
   38.0318   21.4426   36.4105 H   0  0  0  0  0  0  0  0  0  0  0  0
   36.7225   24.0353   37.4140 H   0  0  0  0  0  0  0  0  0  0  0  0
   36.7850   22.4426   38.2402 H   0  0  0  0  0  0  0  0  0  0  0  0
   38.6918   24.6352   38.2105 H   0  0  0  0  0  0  0  0  0  0  0  0
   38.5421   23.1607   39.2966 H   0  0  0  0  0  0  0  0  0  0  0  0
   39.8283   21.8435   37.7887 H   0  0  0  0  0  0  0  0  0  0  0  0
   40.7336   23.3593   38.1840 H   0  0  0  0  0  0  0  0  0  0  0  0
  1  5  1  0
  1  2  1  0
  2  3  1  0
  4  3  1  0
  5  4  1  0
  5 12  1  0
  6  7  2  0
  7  1  1  0
  7  8  1  0
  9  8  2  0
 10  9  1  0
 11  6  1  0
 11 10  2  0
 12 17  1  0
 13 14  1  0
 13 12  1  0
 14 15  1  0
 15 16  1  0
 17 16  1  0
  1 18  1  6
  2 19  1  0
  2 20  1  0
  3 21  1  0
  3 22  1  0
  4 23  1  0
  4 24  1  0
  5 25  1  6
  6 26  1  0
  8 27  1  0
 10 28  1  0
 13 29  1  0
 13 30  1  0
 14 31  1  0
 14 32  1  0
 15 33  1  0
 15 34  1  0
 16 35  1  0
 16 36  1  0
 17 37  1  0
 17 38  1  0
M  ISO  8  18  13  19  13  20  13  21  13  22  13  23  13  24  13  25  13
M  ISO  8  26  14  27  14  28  14  29  13  30  13  31  13  32  13  33  13
M  ISO  5  34  13  35  13  36  13  37  13  38  13
M  END
>  <minimizedAffinity>  (1) 
-3.96797538

>  <minimizedRMSD>  (1) 
2.71096134

$$$$
