
     RDKit          3D

 30 32  0  0  1  0  0  0  0  0999 V2000
   38.0900   23.0570   35.5120 C   0  0  1  0  0  0  0  0  0  0  0  0
   39.1830   22.4920   36.3700 C   0  0  0  0  0  0  0  0  0  0  0  0
   39.1170   23.2770   37.6610 C   0  0  0  0  0  0  0  0  0  0  0  0
   38.0570   24.3310   37.4770 C   0  0  0  0  0  0  0  0  0  0  0  0
   38.0620   24.5090   35.9700 C   0  0  1  0  0  0  0  0  0  0  0  0
   37.5610   23.6220   33.1450 C   0  0  0  0  0  0  0  0  0  0  0  0
   38.2630   22.8810   34.0900 C   0  0  0  0  0  0  0  0  0  0  0  0
   39.1470   21.8760   33.6560 C   0  0  0  0  0  0  0  0  0  0  0  0
   39.2820   21.6650   32.3250 N   0  0  0  0  0  0  0  0  0  0  0  0
   38.5850   22.4010   31.4160 C   0  0  0  0  0  0  0  0  0  0  0  0
   37.7290   23.3760   31.8320 N   0  0  0  0  0  0  0  0  0  0  0  0
   39.2270   25.2860   35.5180 C   0  0  0  0  0  0  0  0  0  0  0  0
   40.4730   24.8650   35.0450 C   0  0  0  0  0  0  0  0  0  0  0  0
   41.2270   25.9810   34.7470 C   0  0  0  0  0  0  0  0  0  0  0  0
   40.4420   27.0440   35.0360 N   0  0  0  0  0  0  0  0  0  0  0  0
   39.2770   26.6300   35.4850 N   0  0  0  0  0  0  0  0  0  0  0  0
   37.1321   22.5321   35.6418 H   0  0  0  0  0  0  0  0  0  0  0  0
   39.0111   21.4222   36.5595 H   0  0  0  0  0  0  0  0  0  0  0  0
   40.1685   22.5736   35.8883 H   0  0  0  0  0  0  0  0  0  0  0  0
   38.8487   22.6119   38.4951 H   0  0  0  0  0  0  0  0  0  0  0  0
   40.0901   23.7332   37.8952 H   0  0  0  0  0  0  0  0  0  0  0  0
   37.0777   23.9825   37.8368 H   0  0  0  0  0  0  0  0  0  0  0  0
   38.2459   25.2583   38.0378 H   0  0  0  0  0  0  0  0  0  0  0  0
   37.2135   25.0799   35.5649 H   0  0  0  0  0  0  0  0  0  0  0  0
   36.8671   24.4107   33.4712 H   0  0  0  0  0  0  0  0  0  0  0  0
   39.7155   21.2753   34.3813 H   0  0  0  0  0  0  0  0  0  0  0  0
   38.7136   22.2076   30.3408 H   0  0  0  0  0  0  0  0  0  0  0  0
   40.7975   23.8203   34.9298 H   0  0  0  0  0  0  0  0  0  0  0  0
   42.2546   26.0021   34.3552 H   0  0  0  0  0  0  0  0  0  0  0  0
   40.7157   28.0304   34.9216 H   0  0  0  0  0  0  0  0  0  0  0  0
  1  5  1  0
  1  2  1  0
  2  3  1  0
  4  3  1  0
  5  4  1  0
  6  7  2  0
  7  1  1  0
  8  7  1  0
  9  8  2  0
 10 11  2  0
 10  9  1  0
 11  6  1  0
 12  5  1  0
 13 12  1  0
 14 15  1  0
 14 13  2  0
 15 16  1  0
 16 12  2  0
  1 17  1  1
  2 18  1  0
  2 19  1  0
  3 20  1  0
  3 21  1  0
  4 22  1  0
  4 23  1  0
  5 24  1  6
  6 25  1  0
  8 26  1  0
 10 27  1  0
 13 28  1  0
 14 29  1  0
 15 30  1  0
M  ISO  8  17  13  18  13  19  13  20  13  21  13  22  13  23  13  24  13
M  ISO  6  25  14  26  14  27  14  28  14  29  14  30   9
M  END
>  <minimizedAffinity>  (1) 
-3.92267561

>  <minimizedRMSD>  (1) 
4.189816

$$$$
