
     RDKit          3D

 32 33  0  0  1  0  0  0  0  0999 V2000
   40.1220   23.0540   35.2530 C   0  0  1  0  0  0  0  0  0  0  0  0
   41.3960   23.6970   35.7020 C   0  0  0  0  0  0  0  0  0  0  0  0
   41.8630   22.8580   36.8670 C   0  0  0  0  0  0  0  0  0  0  0  0
   40.7510   21.9370   37.2380 C   0  0  0  0  0  0  0  0  0  0  0  0
   39.5640   22.5080   36.5470 C   0  0  1  0  0  0  0  0  0  0  0  0
   38.2440   23.4180   33.6620 C   0  0  0  0  0  0  0  0  0  0  0  0
   39.2190   23.9150   34.5210 C   0  0  0  0  0  0  0  0  0  0  0  0
   39.3710   25.3050   34.6500 C   0  0  0  0  0  0  0  0  0  0  0  0
   38.5550   26.1260   33.9250 N   0  0  0  0  0  0  0  0  0  0  0  0
   37.6110   25.6090   33.0940 C   0  0  0  0  0  0  0  0  0  0  0  0
   37.4560   24.2600   32.9630 N   0  0  0  0  0  0  0  0  0  0  0  0
   38.7020   23.4230   37.3140 C   0  0  0  0  0  0  0  0  0  0  0  0
   37.2250   23.0140   37.1910 C   0  0  0  0  0  0  0  0  0  0  0  0
   38.9660   23.5540   38.7740 C   0  0  0  0  0  0  0  0  0  0  0  0
   40.2880   22.2773   34.4920 H   0  0  0  0  0  0  0  0  0  0  0  0
   42.1415   23.6858   34.8932 H   0  0  0  0  0  0  0  0  0  0  0  0
   41.2526   24.7513   35.9812 H   0  0  0  0  0  0  0  0  0  0  0  0
   42.7504   22.2761   36.5775 H   0  0  0  0  0  0  0  0  0  0  0  0
   42.1325   23.4990   37.7194 H   0  0  0  0  0  0  0  0  0  0  0  0
   40.9551   20.9155   36.8846 H   0  0  0  0  0  0  0  0  0  0  0  0
   40.6106   21.8602   38.3263 H   0  0  0  0  0  0  0  0  0  0  0  0
   38.8064   21.7284   36.3788 H   0  0  0  0  0  0  0  0  0  0  0  0
   38.1150   22.3311   33.5523 H   0  0  0  0  0  0  0  0  0  0  0  0
   40.1333   25.7250   35.3227 H   0  0  0  0  0  0  0  0  0  0  0  0
   36.9635   26.2878   32.5196 H   0  0  0  0  0  0  0  0  0  0  0  0
   38.9422   24.3928   36.8538 H   0  0  0  0  0  0  0  0  0  0  0  0
   36.7928   22.8943   38.1954 H   0  0  0  0  0  0  0  0  0  0  0  0
   36.6731   23.7931   36.6448 H   0  0  0  0  0  0  0  0  0  0  0  0
   37.1524   22.0620   36.6448 H   0  0  0  0  0  0  0  0  0  0  0  0
   38.1204   23.1344   39.3386 H   0  0  0  0  0  0  0  0  0  0  0  0
   39.8855   23.0076   39.0308 H   0  0  0  0  0  0  0  0  0  0  0  0
   39.0871   24.6167   39.0308 H   0  0  0  0  0  0  0  0  0  0  0  0
  1  2  1  0
  1  5  1  0
  2  3  1  0
  3  4  1  0
  5  4  1  0
  5 12  1  0
  6  7  2  0
  7  8  1  0
  7  1  1  0
  9  8  2  0
 10  9  1  0
 11 10  2  0
 11  6  1  0
 12 14  1  0
 13 12  1  0
  1 15  1  6
  2 16  1  0
  2 17  1  0
  3 18  1  0
  3 19  1  0
  4 20  1  0
  4 21  1  0
  5 22  1  6
  6 23  1  0
  8 24  1  0
 10 25  1  0
 12 26  1  0
 13 27  1  0
 13 28  1  0
 13 29  1  0
 14 30  1  0
 14 31  1  0
 14 32  1  0
M  ISO  8  15  13  16  13  17  13  18  13  19  13  20  13  21  13  22  13
M  ISO  8  23  14  24  14  25  14  26   8  27   8  28   8  29   8  30   8
M  ISO  2  31   8  32   8
M  END
>  <minimizedAffinity>  (1) 
-3.76203513

>  <minimizedRMSD>  (1) 
2.19203568

$$$$
