
     RDKit          3D

 29 31  0  0  1  0  0  0  0  0999 V2000
   39.3600   25.0610   34.2130 C   0  0  1  0  0  0  0  0  0  0  0  0
   38.5260   26.1890   33.6410 C   0  0  0  0  0  0  0  0  0  0  0  0
   39.5300   27.1650   33.0900 C   0  0  0  0  0  0  0  0  0  0  0  0
   40.8850   26.6990   33.5250 C   0  0  0  0  0  0  0  0  0  0  0  0
   40.5570   25.8350   34.7450 C   0  0  2  0  0  0  0  0  0  0  0  0
   38.2830   22.9700   35.0030 C   0  0  0  0  0  0  0  0  0  0  0  0
   38.6350   24.3030   35.2340 C   0  0  0  0  0  0  0  0  0  0  0  0
   38.2640   24.8920   36.4750 C   0  0  0  0  0  0  0  0  0  0  0  0
   37.5940   24.1280   37.3630 N   0  0  0  0  0  0  0  0  0  0  0  0
   37.2750   22.8370   37.0950 C   0  0  0  0  0  0  0  0  0  0  0  0
   37.6230   22.2590   35.9080 N   0  0  0  0  0  0  0  0  0  0  0  0
   41.6750   25.0490   35.1410 N   0  0  0  0  0  0  0  0  0  0  0  0
   42.9660   25.4750   34.9980 C   0  0  0  0  0  0  0  0  0  0  0  0
   43.7290   24.4720   35.4960 N   0  0  0  0  0  0  0  0  0  0  0  0
   42.8930   23.4870   35.9180 C   0  0  0  0  0  0  0  0  0  0  0  0
   41.6100   23.8300   35.7060 N   0  0  0  0  0  0  0  0  0  0  0  0
   39.6373   24.2739   33.4964 H   0  0  0  0  0  0  0  0  0  0  0  0
   37.8671   25.8178   32.8422 H   0  0  0  0  0  0  0  0  0  0  0  0
   37.8716   26.6474   34.3970 H   0  0  0  0  0  0  0  0  0  0  0  0
   39.3328   28.1723   33.4856 H   0  0  0  0  0  0  0  0  0  0  0  0
   39.4670   27.2126   31.9928 H   0  0  0  0  0  0  0  0  0  0  0  0
   41.3744   26.1070   32.7376 H   0  0  0  0  0  0  0  0  0  0  0  0
   41.5843   27.5199   33.7420 H   0  0  0  0  0  0  0  0  0  0  0  0
   40.3276   26.3690   35.6789 H   0  0  0  0  0  0  0  0  0  0  0  0
   38.5598   22.4994   34.0481 H   0  0  0  0  0  0  0  0  0  0  0  0
   38.5156   25.9382   36.7036 H   0  0  0  0  0  0  0  0  0  0  0  0
   36.7279   22.2471   37.8451 H   0  0  0  0  0  0  0  0  0  0  0  0
   43.3114   26.4278   34.5703 H   0  0  0  0  0  0  0  0  0  0  0  0
   43.2207   22.5395   36.3707 H   0  0  0  0  0  0  0  0  0  0  0  0
  1  5  1  0
  1  7  1  0
  2  1  1  0
  3  4  1  0
  3  2  1  0
  4  5  1  0
  5 12  1  0
  6  7  2  0
  6 11  1  0
  7  8  1  0
  8  9  2  0
 10  9  1  0
 11 10  2  0
 12 16  1  0
 13 12  1  0
 13 14  2  0
 14 15  1  0
 16 15  2  0
  1 17  1  6
  2 18  1  0
  2 19  1  0
  3 20  1  0
  3 21  1  0
  4 22  1  0
  4 23  1  0
  5 24  1  1
  6 25  1  0
  8 26  1  0
 10 27  1  0
 13 28  1  0
 15 29  1  0
M  ISO  8  17  13  18  13  19  13  20  13  21  13  22  13  23  13  24  13
M  ISO  5  25  14  26  14  27  14  28  14  29  14
M  END
>  <minimizedAffinity>  (1) 
-3.66562748

>  <minimizedRMSD>  (1) 
4.96569538

$$$$
