
     RDKit          3D

 35 37  0  0  0  0  0  0  0  0999 V2000
   41.9800   21.5510   34.1800 S   0  0  0  0  0  0  0  0  0  0  0  0
   43.6830   22.0260   34.4730 C   0  0  0  0  0  0  0  0  0  0  0  0
   44.1290   23.2410   33.9300 C   0  0  0  0  0  0  0  0  0  0  0  0
   45.9280   23.3290   34.4760 S   0  0  0  0  0  0  0  0  0  0  0  0
   45.7130   21.6640   35.3520 C   0  0  0  0  0  0  0  0  0  0  0  0
   44.6550   21.4390   35.1310 N   0  0  0  0  0  0  0  0  0  0  0  0
   46.7290   20.9490   36.0960 N   0  0  0  0  0  0  0  0  0  0  0  0
   46.6880   19.5690   36.5110 C   0  0  0  0  0  0  0  0  0  0  0  0
   47.8740   18.8620   35.8890 C   0  0  0  0  0  0  0  0  0  0  0  0
   49.1300   19.4390   36.4950 C   0  0  0  0  0  0  0  0  0  0  0  0
   49.1990   20.9060   36.1340 C   0  0  0  0  0  0  0  0  0  0  0  0
   47.9210   21.6360   36.4870 C   0  0  0  0  0  0  0  0  0  0  0  0
   40.4560   22.4300   37.7540 C   0  0  0  0  0  0  0  0  0  0  0  0
   39.2830   23.1440   37.4460 C   0  0  0  0  0  0  0  0  0  0  0  0
   38.9860   23.3400   36.1160 C   0  0  0  0  0  0  0  0  0  0  0  0
   39.8170   22.8480   35.1410 N   0  0  0  0  0  0  0  0  0  0  0  0
   40.9500   22.1580   35.5050 C   0  0  0  0  0  0  0  0  0  0  0  0
   41.2490   21.9630   36.7880 N   0  0  0  0  0  0  0  0  0  0  0  0
   38.3640   23.6880   38.4830 C   0  0  0  0  0  0  0  0  0  0  0  0
   39.1220   23.9050   39.6190 F   0  0  0  0  0  0  0  0  0  0  0  0
   37.3470   22.8520   38.8000 F   0  0  0  0  0  0  0  0  0  0  0  0
   37.9210   24.9740   38.1260 F   0  0  0  0  0  0  0  0  0  0  0  0
   43.5627   23.9678   33.3292 H   0  0  0  0  0  0  0  0  0  0  0  0
   46.7481   19.5063   37.6076 H   0  0  0  0  0  0  0  0  0  0  0  0
   45.7478   19.0987   36.1873 H   0  0  0  0  0  0  0  0  0  0  0  0
   47.8762   19.0231   34.8009 H   0  0  0  0  0  0  0  0  0  0  0  0
   47.8185   17.7804   36.0812 H   0  0  0  0  0  0  0  0  0  0  0  0
   49.1015   19.3258   37.5888 H   0  0  0  0  0  0  0  0  0  0  0  0
   50.0147   18.9111   36.1094 H   0  0  0  0  0  0  0  0  0  0  0  0
   49.3735   20.9979   35.0518 H   0  0  0  0  0  0  0  0  0  0  0  0
   50.0200   21.3597   36.7086 H   0  0  0  0  0  0  0  0  0  0  0  0
   47.9341   22.6163   35.9882 H   0  0  0  0  0  0  0  0  0  0  0  0
   47.8949   21.7176   37.5837 H   0  0  0  0  0  0  0  0  0  0  0  0
   40.7229   22.2544   38.8066 H   0  0  0  0  0  0  0  0  0  0  0  0
   38.0784   23.8936   35.8336 H   0  0  0  0  0  0  0  0  0  0  0  0
  1  2  1  0
  1 17  1  0
  2  6  1  0
  3  2  2  0
  3  4  1  0
  4  5  1  0
  5  7  1  0
  6  5  2  0
  7 12  1  0
  7  8  1  0
  9 10  1  0
  9  8  1  0
 11 12  1  0
 11 10  1  0
 14 13  2  0
 14 19  1  0
 15 14  1  0
 16 17  1  0
 16 15  2  0
 17 18  2  0
 18 13  1  0
 19 21  1  0
 19 20  1  0
 22 19  1  0
  3 23  1  0
  8 24  1  0
  8 25  1  0
  9 26  1  0
  9 27  1  0
 10 28  1  0
 10 29  1  0
 11 30  1  0
 11 31  1  0
 12 32  1  0
 12 33  1  0
 13 34  1  0
 15 35  1  0
M  ISO  8  23  14  24  13  25  13  26  13  27  13  28  13  29  13  30  13
M  ISO  5  31  13  32  13  33  13  34  14  35  14
M  END
>  <minimizedAffinity>  (1) 
-4.20408297

>  <minimizedRMSD>  (1) 
3.26800799

$$$$
