
     RDKit          3D

 24 25  0  0  1  0  0  0  0  0999 V2000
   40.1250   23.5630   35.4630 C   0  0  1  0  0  0  0  0  0  0  0  0
   41.5510   23.7520   35.8820 C   0  0  0  0  0  0  0  0  0  0  0  0
   41.9460   22.4400   36.5480 C   0  0  0  0  0  0  0  0  0  0  0  0
   40.7110   21.5860   36.5800 C   0  0  0  0  0  0  0  0  0  0  0  0
   39.6100   22.6050   36.5290 C   0  0  1  0  0  0  0  0  0  0  0  0
   37.9680   24.8410   35.3230 C   0  0  0  0  0  0  0  0  0  0  0  0
   39.3690   24.8080   35.3910 C   0  0  0  0  0  0  0  0  0  0  0  0
   40.0600   26.0560   35.3620 C   0  0  0  0  0  0  0  0  0  0  0  0
   39.3410   27.1910   35.2730 N   0  0  0  0  0  0  0  0  0  0  0  0
   37.9850   27.1870   35.2080 C   0  0  0  0  0  0  0  0  0  0  0  0
   37.3170   25.9990   35.2350 N   0  0  0  0  0  0  0  0  0  0  0  0
   39.2230   23.3860   38.0800 S   0  0  0  0  0  0  0  0  0  0  0  0
   40.0201   23.1766   34.4384 H   0  0  0  0  0  0  0  0  0  0  0  0
   42.1879   23.9480   35.0068 H   0  0  0  0  0  0  0  0  0  0  0  0
   41.6714   24.6106   36.5590 H   0  0  0  0  0  0  0  0  0  0  0  0
   42.7365   21.9424   35.9671 H   0  0  0  0  0  0  0  0  0  0  0  0
   42.3359   22.6116   37.5622 H   0  0  0  0  0  0  0  0  0  0  0  0
   40.6704   20.9131   35.7108 H   0  0  0  0  0  0  0  0  0  0  0  0
   40.6571   20.9257   37.4581 H   0  0  0  0  0  0  0  0  0  0  0  0
   38.6322   22.1595   36.2934 H   0  0  0  0  0  0  0  0  0  0  0  0
   37.4007   23.8988   35.3426 H   0  0  0  0  0  0  0  0  0  0  0  0
   41.1584   26.0903   35.4114 H   0  0  0  0  0  0  0  0  0  0  0  0
   37.4302   28.1340   35.1342 H   0  0  0  0  0  0  0  0  0  0  0  0
   39.6236   22.5775   39.1109 H   0  0  0  0  0  0  0  0  0  0  0  0
  1  2  1  0
  1  5  1  0
  2  3  1  0
  3  4  1  0
  5  4  1  0
  5 12  1  0
  6  7  2  0
  7  1  1  0
  8  7  1  0
  9  8  2  0
 10 11  2  0
 10  9  1  0
 11  6  1  0
  1 13  1  6
  2 14  1  0
  2 15  1  0
  3 16  1  0
  3 17  1  0
  4 18  1  0
  4 19  1  0
  5 20  1  6
  6 21  1  0
  8 22  1  0
 10 23  1  0
 12 24  1  0
M  ISO  8  13  13  14  13  15  13  16  13  17  13  18  13  19  13  20  13
M  ISO  4  21  14  22  14  23  14  24  11
M  END
>  <minimizedAffinity>  (1) 
-3.04771996

>  <minimizedRMSD>  (1) 
0.782330632

$$$$
