
     RDKit          3D

 43 47  0  0  1  0  0  0  0  0999 V2000
   39.4060   23.0050   37.0130 C   0  0  1  0  0  0  0  0  0  0  0  0
   39.1510   23.2640   38.4950 C   0  0  0  0  0  0  0  0  0  0  0  0
   37.9290   24.1340   38.5380 C   0  0  0  0  0  0  0  0  0  0  0  0
   37.5280   24.3790   37.1250 C   0  0  0  0  0  0  0  0  0  0  0  0
   38.8710   24.2370   36.3960 C   0  0  2  0  0  0  0  0  0  0  0  0
   38.5200   24.0090   34.9910 C   0  0  0  0  0  0  0  0  0  0  0  0
   38.1310   22.7230   34.5890 C   0  0  0  0  0  0  0  0  0  0  0  0
   37.8040   22.9380   32.8330 S   0  0  0  0  0  0  0  0  0  0  0  0
   38.2490   24.7880   32.8910 C   0  0  0  0  0  0  0  0  0  0  0  0
   38.5530   24.9750   34.1000 N   0  0  0  0  0  0  0  0  0  0  0  0
   38.2250   25.6850   31.8000 N   0  0  0  0  0  0  0  0  0  0  0  0
   39.0110   25.5370   30.6990 C   0  0  0  0  0  0  0  0  0  0  0  0
   38.7060   26.5710   29.8930 N   0  0  0  0  0  0  0  0  0  0  0  0
   37.7600   27.3530   30.4570 C   0  0  0  0  0  0  0  0  0  0  0  0
   37.0780   28.5050   30.1200 C   0  0  0  0  0  0  0  0  0  0  0  0
   37.3380   29.0520   29.0030 O   0  0  0  0  0  0  0  0  0  0  0  0
   36.1630   29.0360   30.9500 N   0  0  0  0  0  0  0  0  0  0  0  0
   35.8890   28.4570   32.1300 C   0  0  0  0  0  0  0  0  0  0  0  0
   34.9430   28.9330   33.0790 N   0  0  0  0  0  0  0  0  0  0  0  0
   36.5250   27.3350   32.5030 N   0  0  0  0  0  0  0  0  0  0  0  0
   37.4460   26.7810   31.6930 C   0  0  0  0  0  0  0  0  0  0  0  0
   41.5870   23.6010   36.0220 C   0  0  0  0  0  0  0  0  0  0  0  0
   40.8130   22.6800   36.7440 C   0  0  0  0  0  0  0  0  0  0  0  0
   41.3890   21.4890   37.2010 C   0  0  0  0  0  0  0  0  0  0  0  0
   42.6950   21.2880   36.9110 N   0  0  0  0  0  0  0  0  0  0  0  0
   43.4480   22.1800   36.2110 C   0  0  0  0  0  0  0  0  0  0  0  0
   42.8840   23.3490   35.7630 N   0  0  0  0  0  0  0  0  0  0  0  0
   38.9176   22.1143   36.5908 H   0  0  0  0  0  0  0  0  0  0  0  0
   38.9699   22.3180   39.0263 H   0  0  0  0  0  0  0  0  0  0  0  0
   40.0132   23.7419   38.9831 H   0  0  0  0  0  0  0  0  0  0  0  0
   37.1188   23.6231   39.0788 H   0  0  0  0  0  0  0  0  0  0  0  0
   38.1350   25.0798   39.0604 H   0  0  0  0  0  0  0  0  0  0  0  0
   36.8014   23.6296   36.7780 H   0  0  0  0  0  0  0  0  0  0  0  0
   37.0295   25.3459   36.9618 H   0  0  0  0  0  0  0  0  0  0  0  0
   39.5771   25.0782   36.4579 H   0  0  0  0  0  0  0  0  0  0  0  0
   38.0468   21.8098   35.1964 H   0  0  0  0  0  0  0  0  0  0  0  0
   39.7431   24.7386   30.5076 H   0  0  0  0  0  0  0  0  0  0  0  0
   35.6668   29.8965   30.6775 H   0  0  0  0  0  0  0  0  0  0  0  0
   34.7976   28.4226   33.9617 H   0  0  0  0  0  0  0  0  0  0  0  0
   34.4032   29.7882   32.8837 H   0  0  0  0  0  0  0  0  0  0  0  0
   41.1307   24.5360   35.6649 H   0  0  0  0  0  0  0  0  0  0  0  0
   40.8061   20.7499   37.7702 H   0  0  0  0  0  0  0  0  0  0  0  0
   44.5068   21.9647   36.0045 H   0  0  0  0  0  0  0  0  0  0  0  0
  1  2  1  0
  2  3  1  0
  4  3  1  0
  5  1  1  0
  5  4  1  0
  6  5  1  0
  7  6  2  0
  8  9  1  0
  8  7  1  0
  9 10  2  0
 10  6  1  0
 11  9  1  0
 12 11  1  0
 13 14  1  0
 13 12  2  0
 14 21  2  0
 15 14  1  0
 15 17  1  0
 16 15  2  0
 17 18  1  0
 18 20  2  0
 18 19  1  0
 21 11  1  0
 21 20  1  0
 22 23  2  0
 23  1  1  0
 23 24  1  0
 25 24  2  0
 26 25  1  0
 27 22  1  0
 27 26  2  0
  1 28  1  6
  2 29  1  0
  2 30  1  0
  3 31  1  0
  3 32  1  0
  4 33  1  0
  4 34  1  0
  5 35  1  6
  7 36  1  0
 12 37  1  0
 17 38  1  0
 19 39  1  0
 19 40  1  0
 22 41  1  0
 24 42  1  0
 26 43  1  0
M  ISO  8  28  13  29  13  30  13  31  13  32  13  33  13  34  13  35  13
M  ISO  6  36  14  37  14  38   9  41  14  42  14  43  14
M  END
>  <minimizedAffinity>  (1) 
-6.47266102

>  <minimizedRMSD>  (1) 
1.55081463

$$$$
