
     RDKit          3D

 39 42  0  0  1  0  0  0  0  0999 V2000
   39.3900   22.9730   36.9840 C   0  0  1  0  0  0  0  0  0  0  0  0
   39.1630   23.2230   38.4720 C   0  0  0  0  0  0  0  0  0  0  0  0
   37.9310   24.0790   38.5520 C   0  0  0  0  0  0  0  0  0  0  0  0
   37.4870   24.3010   37.1400 C   0  0  0  0  0  0  0  0  0  0  0  0
   38.8210   24.1970   36.3840 C   0  0  2  0  0  0  0  0  0  0  0  0
   38.4430   23.9710   34.9830 C   0  0  0  0  0  0  0  0  0  0  0  0
   38.2060   22.6580   34.5470 C   0  0  0  0  0  0  0  0  0  0  0  0
   37.7870   22.9030   32.8100 S   0  0  0  0  0  0  0  0  0  0  0  0
   38.0010   24.7920   32.9310 C   0  0  0  0  0  0  0  0  0  0  0  0
   38.3250   24.9720   34.1350 N   0  0  0  0  0  0  0  0  0  0  0  0
   37.8550   25.8850   31.9430 N   0  0  0  0  0  0  0  0  0  0  0  0
   38.8590   26.7140   31.6090 C   0  0  0  0  0  0  0  0  0  0  0  0
   38.5900   27.6900   30.6740 C   0  0  0  0  0  0  0  0  0  0  0  0
   37.3390   27.7940   30.1180 C   0  0  0  0  0  0  0  0  0  0  0  0
   37.0750   28.6730   29.2690 O   0  0  0  0  0  0  0  0  0  0  0  0
   36.4110   26.9110   30.5270 N   0  0  0  0  0  0  0  0  0  0  0  0
   36.6150   25.9460   31.4280 C   0  0  0  0  0  0  0  0  0  0  0  0
   35.6830   25.1640   31.7490 O   0  0  0  0  0  0  0  0  0  0  0  0
   41.5330   23.5950   35.9240 C   0  0  0  0  0  0  0  0  0  0  0  0
   40.7990   22.6760   36.6820 C   0  0  0  0  0  0  0  0  0  0  0  0
   41.4120   21.5070   37.1460 C   0  0  0  0  0  0  0  0  0  0  0  0
   42.7120   21.3230   36.8290 N   0  0  0  0  0  0  0  0  0  0  0  0
   43.4290   22.2190   36.0890 C   0  0  0  0  0  0  0  0  0  0  0  0
   42.8270   23.3660   35.6350 N   0  0  0  0  0  0  0  0  0  0  0  0
   38.9085   22.0745   36.5706 H   0  0  0  0  0  0  0  0  0  0  0  0
   39.0054   22.2720   39.0019 H   0  0  0  0  0  0  0  0  0  0  0  0
   40.0302   23.7112   38.9407 H   0  0  0  0  0  0  0  0  0  0  0  0
   37.1445   23.5636   39.1229 H   0  0  0  0  0  0  0  0  0  0  0  0
   38.1359   25.0312   39.0631 H   0  0  0  0  0  0  0  0  0  0  0  0
   36.7782   23.5254   36.8143 H   0  0  0  0  0  0  0  0  0  0  0  0
   36.9517   25.2486   36.9802 H   0  0  0  0  0  0  0  0  0  0  0  0
   39.5121   25.0512   36.4362 H   0  0  0  0  0  0  0  0  0  0  0  0
   38.2616   21.7197   35.1185 H   0  0  0  0  0  0  0  0  0  0  0  0
   39.8558   26.6172   32.0640 H   0  0  0  0  0  0  0  0  0  0  0  0
   39.3826   28.3901   30.3712 H   0  0  0  0  0  0  0  0  0  0  0  0
   35.4704   26.9843   30.1138 H   0  0  0  0  0  0  0  0  0  0  0  0
   41.0477   24.5130   35.5611 H   0  0  0  0  0  0  0  0  0  0  0  0
   40.8582   20.7684   37.7442 H   0  0  0  0  0  0  0  0  0  0  0  0
   44.4862   22.0222   35.8573 H   0  0  0  0  0  0  0  0  0  0  0  0
  1  2  1  0
  2  3  1  0
  4  3  1  0
  5  1  1  0
  5  4  1  0
  6  5  1  0
  7  6  2  0
  8  9  1  0
  8  7  1  0
  9 10  2  0
 10  6  1  0
 11  9  1  0
 12 11  1  0
 13 12  2  0
 14 16  1  0
 14 13  1  0
 15 14  2  0
 16 17  1  0
 17 18  2  0
 17 11  1  0
 19 20  2  0
 20  1  1  0
 20 21  1  0
 22 21  2  0
 23 22  1  0
 24 19  1  0
 24 23  2  0
  1 25  1  6
  2 26  1  0
  2 27  1  0
  3 28  1  0
  3 29  1  0
  4 30  1  0
  4 31  1  0
  5 32  1  6
  7 33  1  0
 12 34  1  0
 13 35  1  0
 16 36  1  0
 19 37  1  0
 21 38  1  0
 23 39  1  0
M  ISO  8  25  13  26  13  27  13  28  13  29  13  30  13  31  13  32  13
M  ISO  7  33  14  34  14  35  14  36   9  37  14  38  14  39  14
M  END
>  <minimizedAffinity>  (1) 
-6.23742437

>  <minimizedRMSD>  (1) 
1.53035593

$$$$
