
     RDKit          3D

 42 45  0  0  1  0  0  0  0  0999 V2000
   39.4210   22.9500   36.9210 C   0  0  1  0  0  0  0  0  0  0  0  0
   39.2630   23.2060   38.4180 C   0  0  0  0  0  0  0  0  0  0  0  0
   38.0160   24.0320   38.5500 C   0  0  0  0  0  0  0  0  0  0  0  0
   37.5120   24.2570   37.1660 C   0  0  0  0  0  0  0  0  0  0  0  0
   38.8110   24.1670   36.3470 C   0  0  2  0  0  0  0  0  0  0  0  0
   38.3710   23.9330   34.9660 C   0  0  0  0  0  0  0  0  0  0  0  0
   38.0080   22.6320   34.5810 C   0  0  0  0  0  0  0  0  0  0  0  0
   37.5510   22.8580   32.8520 S   0  0  0  0  0  0  0  0  0  0  0  0
   37.9280   24.7280   32.9030 C   0  0  0  0  0  0  0  0  0  0  0  0
   38.3080   24.9140   34.0890 N   0  0  0  0  0  0  0  0  0  0  0  0
   37.8380   25.7900   31.8820 N   0  0  0  0  0  0  0  0  0  0  0  0
   38.8620   26.5590   31.5220 C   0  0  0  0  0  0  0  0  0  0  0  0
   38.6660   27.5230   30.5560 C   0  0  0  0  0  0  0  0  0  0  0  0
   39.8280   28.3660   30.1760 C   0  0  0  0  0  0  0  0  0  0  0  0
   37.3870   27.6280   30.0140 C   0  0  0  0  0  0  0  0  0  0  0  0
   37.2250   28.5180   29.1290 O   0  0  0  0  0  0  0  0  0  0  0  0
   36.3980   26.8080   30.4350 N   0  0  0  0  0  0  0  0  0  0  0  0
   36.5970   25.8720   31.3740 C   0  0  0  0  0  0  0  0  0  0  0  0
   35.6230   25.1490   31.7090 O   0  0  0  0  0  0  0  0  0  0  0  0
   41.5250   23.6130   35.8130 C   0  0  0  0  0  0  0  0  0  0  0  0
   40.8140   22.6640   36.5540 C   0  0  0  0  0  0  0  0  0  0  0  0
   41.4410   21.4730   36.9380 C   0  0  0  0  0  0  0  0  0  0  0  0
   42.7260   21.3050   36.5610 N   0  0  0  0  0  0  0  0  0  0  0  0
   43.4190   22.2290   35.8390 C   0  0  0  0  0  0  0  0  0  0  0  0
   42.8060   23.3980   35.4610 N   0  0  0  0  0  0  0  0  0  0  0  0
   38.9303   22.0453   36.5327 H   0  0  0  0  0  0  0  0  0  0  0  0
   39.1551   22.2560   38.9619 H   0  0  0  0  0  0  0  0  0  0  0  0
   40.1401   23.7175   38.8411 H   0  0  0  0  0  0  0  0  0  0  0  0
   37.2643   23.4935   39.1458 H   0  0  0  0  0  0  0  0  0  0  0  0
   38.2210   24.9850   39.0596 H   0  0  0  0  0  0  0  0  0  0  0  0
   36.7946   23.4781   36.8682 H   0  0  0  0  0  0  0  0  0  0  0  0
   36.9652   25.2026   37.0365 H   0  0  0  0  0  0  0  0  0  0  0  0
   39.4933   25.0297   36.3654 H   0  0  0  0  0  0  0  0  0  0  0  0
   38.0037   21.7103   35.1814 H   0  0  0  0  0  0  0  0  0  0  0  0
   39.8498   26.4278   31.9878 H   0  0  0  0  0  0  0  0  0  0  0  0
   40.3297   28.7300   31.0847 H   0  0  0  0  0  0  0  0  0  0  0  0
   40.5349   27.7692   29.5809 H   0  0  0  0  0  0  0  0  0  0  0  0
   39.4801   29.2232   29.5809 H   0  0  0  0  0  0  0  0  0  0  0  0
   35.4602   26.9056   30.0204 H   0  0  0  0  0  0  0  0  0  0  0  0
   41.0302   24.5487   35.5135 H   0  0  0  0  0  0  0  0  0  0  0  0
   40.9095   20.7071   37.5218 H   0  0  0  0  0  0  0  0  0  0  0  0
   44.4659   22.0394   35.5598 H   0  0  0  0  0  0  0  0  0  0  0  0
  1  2  1  0
  2  3  1  0
  4  3  1  0
  5  1  1  0
  5  4  1  0
  6  5  1  0
  7  6  2  0
  8  9  1  0
  8  7  1  0
  9 10  2  0
 10  6  1  0
 11  9  1  0
 12 11  1  0
 13 12  2  0
 14 13  1  0
 15 17  1  0
 15 13  1  0
 16 15  2  0
 17 18  1  0
 18 19  2  0
 18 11  1  0
 20 21  2  0
 21  1  1  0
 21 22  1  0
 23 22  2  0
 24 23  1  0
 25 20  1  0
 25 24  2  0
  1 26  1  6
  2 27  1  0
  2 28  1  0
  3 29  1  0
  3 30  1  0
  4 31  1  0
  4 32  1  0
  5 33  1  6
  7 34  1  0
 12 35  1  0
 14 36  1  0
 14 37  1  0
 14 38  1  0
 17 39  1  0
 20 40  1  0
 22 41  1  0
 24 42  1  0
M  ISO  8  26  13  27  13  28  13  29  13  30  13  31  13  32  13  33  13
M  ISO  8  34  14  35  14  36   8  37   8  38   8  39   9  40  14  41  14
M  ISO  1  42  14
M  END
>  <minimizedAffinity>  (1) 
-6.19663429

>  <minimizedRMSD>  (1) 
1.56606507

$$$$
