
     RDKit          3D

 40 44  0  0  1  0  0  0  0  0999 V2000
   39.4290   22.9410   37.0470 C   0  0  1  0  0  0  0  0  0  0  0  0
   39.1820   23.2230   38.5220 C   0  0  0  0  0  0  0  0  0  0  0  0
   37.9680   24.1130   38.5610 C   0  0  0  0  0  0  0  0  0  0  0  0
   37.5200   24.2780   37.1470 C   0  0  0  0  0  0  0  0  0  0  0  0
   38.8570   24.1390   36.4050 C   0  0  2  0  0  0  0  0  0  0  0  0
   38.4910   23.8690   35.0110 C   0  0  0  0  0  0  0  0  0  0  0  0
   37.9530   22.6140   34.6880 C   0  0  0  0  0  0  0  0  0  0  0  0
   37.6710   22.7660   32.9100 S   0  0  0  0  0  0  0  0  0  0  0  0
   38.3400   24.5510   32.8630 C   0  0  0  0  0  0  0  0  0  0  0  0
   38.6520   24.7680   34.0630 N   0  0  0  0  0  0  0  0  0  0  0  0
   38.4550   25.4200   31.7360 N   0  0  0  0  0  0  0  0  0  0  0  0
   39.2980   25.4480   30.6850 C   0  0  0  0  0  0  0  0  0  0  0  0
   38.9510   26.5000   29.9100 N   0  0  0  0  0  0  0  0  0  0  0  0
   37.9100   27.1170   30.4660 C   0  0  0  0  0  0  0  0  0  0  0  0
   37.2150   28.2200   30.0540 C   0  0  0  0  0  0  0  0  0  0  0  0
   36.1830   28.6410   30.8230 N   0  0  0  0  0  0  0  0  0  0  0  0
   35.8490   27.9990   31.9560 C   0  0  0  0  0  0  0  0  0  0  0  0
   36.5380   26.9230   32.3440 N   0  0  0  0  0  0  0  0  0  0  0  0
   37.5790   26.4590   31.6150 C   0  0  0  0  0  0  0  0  0  0  0  0
   41.6000   23.5690   36.0560 C   0  0  0  0  0  0  0  0  0  0  0  0
   40.8380   22.6310   36.7690 C   0  0  0  0  0  0  0  0  0  0  0  0
   41.4250   21.4370   37.2030 C   0  0  0  0  0  0  0  0  0  0  0  0
   42.7340   21.2610   36.8960 N   0  0  0  0  0  0  0  0  0  0  0  0
   43.4720   22.1590   36.2110 C   0  0  0  0  0  0  0  0  0  0  0  0
   42.8960   23.3300   35.7850 N   0  0  0  0  0  0  0  0  0  0  0  0
   38.9562   22.0312   36.6485 H   0  0  0  0  0  0  0  0  0  0  0  0
   38.9902   22.2864   39.0661 H   0  0  0  0  0  0  0  0  0  0  0  0
   40.0523   23.6971   38.9992 H   0  0  0  0  0  0  0  0  0  0  0  0
   37.1726   23.6453   39.1598 H   0  0  0  0  0  0  0  0  0  0  0  0
   38.2008   25.0846   39.0212 H   0  0  0  0  0  0  0  0  0  0  0  0
   36.8097   23.4913   36.8527 H   0  0  0  0  0  0  0  0  0  0  0  0
   36.9822   25.2162   36.9456 H   0  0  0  0  0  0  0  0  0  0  0  0
   39.5483   24.9941   36.4353 H   0  0  0  0  0  0  0  0  0  0  0  0
   37.7539   21.7570   35.3483 H   0  0  0  0  0  0  0  0  0  0  0  0
   40.1198   24.7425   30.4925 H   0  0  0  0  0  0  0  0  0  0  0  0
   37.4854   28.7483   29.1278 H   0  0  0  0  0  0  0  0  0  0  0  0
   35.0069   28.3606   32.5643 H   0  0  0  0  0  0  0  0  0  0  0  0
   41.1346   24.5061   35.7163 H   0  0  0  0  0  0  0  0  0  0  0  0
   40.8548   20.6814   37.7634 H   0  0  0  0  0  0  0  0  0  0  0  0
   44.5308   21.9537   35.9948 H   0  0  0  0  0  0  0  0  0  0  0  0
  1  2  1  0
  2  3  1  0
  4  3  1  0
  5  1  1  0
  5  4  1  0
  6  5  1  0
  7  6  2  0
  8  7  1  0
  9  8  1  0
  9 10  2  0
 10  6  1  0
 11  9  1  0
 12 11  1  0
 13 14  1  0
 13 12  2  0
 14 19  2  0
 15 14  1  0
 15 16  2  0
 16 17  1  0
 17 18  2  0
 19 11  1  0
 19 18  1  0
 20 21  2  0
 21  1  1  0
 21 22  1  0
 23 22  2  0
 24 23  1  0
 25 20  1  0
 25 24  2  0
  1 26  1  6
  2 27  1  0
  2 28  1  0
  3 29  1  0
  3 30  1  0
  4 31  1  0
  4 32  1  0
  5 33  1  6
  7 34  1  0
 12 35  1  0
 15 36  1  0
 17 37  1  0
 20 38  1  0
 22 39  1  0
 24 40  1  0
M  ISO  8  26  13  27  13  28  13  29  13  30  13  31  13  32  13  33  13
M  ISO  7  34  14  35  14  36  14  37  14  38  14  39  14  40  14
M  END
>  <minimizedAffinity>  (1) 
-6.08768177

>  <minimizedRMSD>  (1) 
1.18170583

$$$$
