
     RDKit          3D

 43 47  0  0  1  0  0  0  0  0999 V2000
   39.4550   23.0520   36.9560 C   0  0  1  0  0  0  0  0  0  0  0  0
   39.1500   23.1870   38.4420 C   0  0  0  0  0  0  0  0  0  0  0  0
   37.9570   24.0950   38.5190 C   0  0  0  0  0  0  0  0  0  0  0  0
   37.6270   24.4810   37.1190 C   0  0  0  0  0  0  0  0  0  0  0  0
   39.0000   24.3550   36.4310 C   0  0  2  0  0  0  0  0  0  0  0  0
   41.6750   23.5960   36.0100 C   0  0  0  0  0  0  0  0  0  0  0  0
   40.8640   22.6890   36.7110 C   0  0  0  0  0  0  0  0  0  0  0  0
   41.3910   21.4750   37.1670 C   0  0  0  0  0  0  0  0  0  0  0  0
   42.6920   21.2350   36.9000 N   0  0  0  0  0  0  0  0  0  0  0  0
   43.4860   22.1150   36.2190 C   0  0  0  0  0  0  0  0  0  0  0  0
   42.9670   23.2970   35.7760 N   0  0  0  0  0  0  0  0  0  0  0  0
   38.6920   24.2670   34.9900 C   0  0  0  0  0  0  0  0  0  0  0  0
   38.0580   23.1110   34.5090 C   0  0  0  0  0  0  0  0  0  0  0  0
   37.9300   23.5210   32.7440 S   0  0  0  0  0  0  0  0  0  0  0  0
   38.7580   25.1960   32.9480 C   0  0  0  0  0  0  0  0  0  0  0  0
   39.0020   25.2390   34.1710 N   0  0  0  0  0  0  0  0  0  0  0  0
   38.8770   25.9450   31.6640 C   0  0  0  0  0  0  0  0  0  0  0  0
   39.7640   25.6840   30.7090 N   0  0  0  0  0  0  0  0  0  0  0  0
   39.8220   26.3940   29.5750 C   0  0  0  0  0  0  0  0  0  0  0  0
   38.9820   27.4170   29.3390 N   0  0  0  0  0  0  0  0  0  0  0  0
   38.0530   27.7490   30.2530 C   0  0  0  0  0  0  0  0  0  0  0  0
   37.1900   28.7970   30.0130 C   0  0  0  0  0  0  0  0  0  0  0  0
   36.2310   29.1270   30.9770 C   0  0  0  0  0  0  0  0  0  0  0  0
   36.2180   28.3470   32.1420 C   0  0  0  0  0  0  0  0  0  0  0  0
   37.0900   27.3220   32.3360 C   0  0  0  0  0  0  0  0  0  0  0  0
   38.0400   26.9830   31.4010 C   0  0  0  0  0  0  0  0  0  0  0  0
   38.9460   22.2256   36.4384 H   0  0  0  0  0  0  0  0  0  0  0  0
   38.9158   22.2048   38.8783 H   0  0  0  0  0  0  0  0  0  0  0  0
   40.0076   23.5872   39.0026 H   0  0  0  0  0  0  0  0  0  0  0  0
   37.1075   23.5680   38.9780 H   0  0  0  0  0  0  0  0  0  0  0  0
   38.1708   24.9806   39.1355 H   0  0  0  0  0  0  0  0  0  0  0  0
   36.8914   23.7936   36.6759 H   0  0  0  0  0  0  0  0  0  0  0  0
   37.1693   25.4769   37.0254 H   0  0  0  0  0  0  0  0  0  0  0  0
   39.7367   25.1556   36.5931 H   0  0  0  0  0  0  0  0  0  0  0  0
   41.2560   24.5483   35.6529 H   0  0  0  0  0  0  0  0  0  0  0  0
   40.7733   20.7501   37.7175 H   0  0  0  0  0  0  0  0  0  0  0  0
   44.5415   21.8709   36.0284 H   0  0  0  0  0  0  0  0  0  0  0  0
   37.7307   22.2102   35.0489 H   0  0  0  0  0  0  0  0  0  0  0  0
   40.5759   26.1337   28.8175 H   0  0  0  0  0  0  0  0  0  0  0  0
   37.2546   29.3672   29.0745 H   0  0  0  0  0  0  0  0  0  0  0  0
   35.5234   29.9560   30.8284 H   0  0  0  0  0  0  0  0  0  0  0  0
   35.4783   28.5716   32.9245 H   0  0  0  0  0  0  0  0  0  0  0  0
   37.0339   26.7452   33.2710 H   0  0  0  0  0  0  0  0  0  0  0  0
  1  2  1  0
  2  3  1  0
  4  3  1  0
  5  1  1  0
  5  4  1  0
  6  7  2  0
  7  1  1  0
  7  8  1  0
  9  8  2  0
 10  9  1  0
 11  6  1  0
 11 10  2  0
 12  5  1  0
 13 12  2  0
 14 15  1  0
 14 13  1  0
 15 16  2  0
 16 12  1  0
 17 15  1  0
 18 17  2  0
 19 18  1  0
 20 19  2  0
 20 21  1  0
 21 26  2  0
 22 21  1  0
 22 23  2  0
 23 24  1  0
 24 25  2  0
 26 17  1  0
 26 25  1  0
  1 27  1  6
  2 28  1  0
  2 29  1  0
  3 30  1  0
  3 31  1  0
  4 32  1  0
  4 33  1  0
  5 34  1  6
  6 35  1  0
  8 36  1  0
 10 37  1  0
 13 38  1  0
 19 39  1  0
 22 40  1  0
 23 41  1  0
 24 42  1  0
 25 43  1  0
M  ISO  8  27  13  28  13  29  13  30  13  31  13  32  13  33  13  34  13
M  ISO  8  35  14  36  14  37  14  38  14  39  14  40  14  41  14  42  14
M  ISO  1  43  14
M  END
>  <minimizedAffinity>  (1) 
-5.97052813

>  <minimizedRMSD>  (1) 
2.20649004

$$$$
