
     RDKit          3D

 45 49  0  0  1  0  0  0  0  0999 V2000
   39.5400   23.1230   36.8650 C   0  0  1  0  0  0  0  0  0  0  0  0
   39.3000   23.1800   38.3680 C   0  0  0  0  0  0  0  0  0  0  0  0
   38.0840   24.0470   38.5390 C   0  0  0  0  0  0  0  0  0  0  0  0
   37.6860   24.4910   37.1780 C   0  0  0  0  0  0  0  0  0  0  0  0
   39.0150   24.4370   36.4270 C   0  0  2  0  0  0  0  0  0  0  0  0
   41.7670   23.8740   36.0870 C   0  0  0  0  0  0  0  0  0  0  0  0
   40.9510   22.8280   36.5450 C   0  0  0  0  0  0  0  0  0  0  0  0
   41.4780   21.5410   36.7010 C   0  0  0  0  0  0  0  0  0  0  0  0
   42.7880   21.3830   36.3880 N   0  0  0  0  0  0  0  0  0  0  0  0
   43.5770   22.3930   35.9450 C   0  0  0  0  0  0  0  0  0  0  0  0
   43.0610   23.6560   35.7920 N   0  0  0  0  0  0  0  0  0  0  0  0
   38.6550   24.4080   35.0030 C   0  0  0  0  0  0  0  0  0  0  0  0
   37.9720   23.2880   34.5060 C   0  0  0  0  0  0  0  0  0  0  0  0
   37.7880   23.7420   32.7590 S   0  0  0  0  0  0  0  0  0  0  0  0
   38.6680   25.3880   32.9750 C   0  0  0  0  0  0  0  0  0  0  0  0
   38.9560   25.3880   34.1890 N   0  0  0  0  0  0  0  0  0  0  0  0
   38.7700   26.1720   31.7320 C   0  0  0  0  0  0  0  0  0  0  0  0
   39.6900   25.9260   30.7450 C   0  0  0  0  0  0  0  0  0  0  0  0
   39.7670   26.6740   29.5860 C   0  0  0  0  0  0  0  0  0  0  0  0
   38.8920   27.7060   29.4110 C   0  0  0  0  0  0  0  0  0  0  0  0
   37.9430   28.0150   30.3510 C   0  0  0  0  0  0  0  0  0  0  0  0
   37.0790   29.0550   30.1480 C   0  0  0  0  0  0  0  0  0  0  0  0
   36.1160   29.3580   31.1180 C   0  0  0  0  0  0  0  0  0  0  0  0
   36.1120   28.5490   32.2570 C   0  0  0  0  0  0  0  0  0  0  0  0
   36.9880   27.5130   32.4360 C   0  0  0  0  0  0  0  0  0  0  0  0
   37.9310   27.2230   31.4760 C   0  0  0  0  0  0  0  0  0  0  0  0
   39.0386   22.3038   36.3288 H   0  0  0  0  0  0  0  0  0  0  0  0
   39.1147   22.1721   38.7678 H   0  0  0  0  0  0  0  0  0  0  0  0
   40.1702   23.5801   38.9090 H   0  0  0  0  0  0  0  0  0  0  0  0
   37.2698   23.4718   39.0041 H   0  0  0  0  0  0  0  0  0  0  0  0
   38.2978   24.9070   39.1907 H   0  0  0  0  0  0  0  0  0  0  0  0
   36.9477   23.8070   36.7341 H   0  0  0  0  0  0  0  0  0  0  0  0
   37.2035   25.4793   37.1566 H   0  0  0  0  0  0  0  0  0  0  0  0
   39.7296   25.2556   36.5979 H   0  0  0  0  0  0  0  0  0  0  0  0
   41.3439   24.8824   35.9681 H   0  0  0  0  0  0  0  0  0  0  0  0
   40.8625   20.7023   37.0584 H   0  0  0  0  0  0  0  0  0  0  0  0
   44.6335   22.1998   35.7075 H   0  0  0  0  0  0  0  0  0  0  0  0
   37.6387   22.3813   35.0322 H   0  0  0  0  0  0  0  0  0  0  0  0
   40.3984   25.0958   30.8824 H   0  0  0  0  0  0  0  0  0  0  0  0
   40.5199   26.4418   28.8184 H   0  0  0  0  0  0  0  0  0  0  0  0
   38.9495   28.3063   28.4910 H   0  0  0  0  0  0  0  0  0  0  0  0
   37.1403   29.6515   29.2258 H   0  0  0  0  0  0  0  0  0  0  0  0
   35.4031   30.1859   30.9906 H   0  0  0  0  0  0  0  0  0  0  0  0
   35.3720   28.7538   33.0447 H   0  0  0  0  0  0  0  0  0  0  0  0
   36.9383   26.9079   33.3532 H   0  0  0  0  0  0  0  0  0  0  0  0
  1  2  1  0
  2  3  1  0
  4  3  1  0
  5  1  1  0
  5  4  1  0
  6  7  2  0
  7  8  1  0
  7  1  1  0
  9  8  2  0
 10  9  1  0
 11 10  2  0
 11  6  1  0
 12  5  1  0
 13 12  2  0
 14 15  1  0
 14 13  1  0
 15 16  2  0
 16 12  1  0
 17 15  1  0
 18 17  2  0
 19 18  1  0
 20 19  2  0
 20 21  1  0
 21 26  2  0
 22 21  1  0
 22 23  2  0
 23 24  1  0
 24 25  2  0
 26 17  1  0
 26 25  1  0
  1 27  1  6
  2 28  1  0
  2 29  1  0
  3 30  1  0
  3 31  1  0
  4 32  1  0
  4 33  1  0
  5 34  1  6
  6 35  1  0
  8 36  1  0
 10 37  1  0
 13 38  1  0
 18 39  1  0
 19 40  1  0
 20 41  1  0
 22 42  1  0
 23 43  1  0
 24 44  1  0
 25 45  1  0
M  ISO  8  27  13  28  13  29  13  30  13  31  13  32  13  33  13  34  13
M  ISO  8  35  14  36  14  37  14  38  14  39  14  40  14  41  14  42  14
M  ISO  3  43  14  44  14  45  14
M  END
>  <minimizedAffinity>  (1) 
-5.78532219

>  <minimizedRMSD>  (1) 
2.57456923

$$$$
