
     RDKit          3D

 42 45  0  0  1  0  0  0  0  0999 V2000
   39.4220   22.8710   37.1520 C   0  0  1  0  0  0  0  0  0  0  0  0
   39.2220   23.3180   38.5980 C   0  0  0  0  0  0  0  0  0  0  0  0
   37.9750   24.1580   38.5930 C   0  0  0  0  0  0  0  0  0  0  0  0
   37.5130   24.2220   37.1630 C   0  0  0  0  0  0  0  0  0  0  0  0
   38.8280   24.0010   36.4030 C   0  0  2  0  0  0  0  0  0  0  0  0
   38.4360   23.6010   35.0460 C   0  0  0  0  0  0  0  0  0  0  0  0
   37.8180   22.3520   34.8830 C   0  0  0  0  0  0  0  0  0  0  0  0
   37.5380   22.3070   33.0910 S   0  0  0  0  0  0  0  0  0  0  0  0
   38.3230   24.0260   32.8490 C   0  0  0  0  0  0  0  0  0  0  0  0
   38.6580   24.3800   34.0100 N   0  0  0  0  0  0  0  0  0  0  0  0
   38.3690   24.4850   31.4930 N   0  0  0  0  0  0  0  0  0  0  0  0
   38.9890   25.7830   31.2740 C   0  0  0  0  0  0  0  0  0  0  0  0
   39.2190   26.0360   29.8210 C   0  0  0  0  0  0  0  0  0  0  0  0
   39.6840   24.9590   29.1340 O   0  0  0  0  0  0  0  0  0  0  0  0
   39.1200   23.7420   29.3830 C   0  0  0  0  0  0  0  0  0  0  0  0
   37.8870   23.8120   30.3060 C   0  0  0  0  0  0  0  0  0  0  0  0
   41.5970   23.4610   36.1410 C   0  0  0  0  0  0  0  0  0  0  0  0
   40.8270   22.5520   36.8620 C   0  0  0  0  0  0  0  0  0  0  0  0
   41.3940   21.3360   37.3210 C   0  0  0  0  0  0  0  0  0  0  0  0
   42.6980   21.1300   37.0180 N   0  0  0  0  0  0  0  0  0  0  0  0
   43.4480   22.0100   36.3190 C   0  0  0  0  0  0  0  0  0  0  0  0
   42.8910   23.1840   35.8780 N   0  0  0  0  0  0  0  0  0  0  0  0
   38.9421   21.9205   36.8759 H   0  0  0  0  0  0  0  0  0  0  0  0
   39.0945   22.4454   39.2555 H   0  0  0  0  0  0  0  0  0  0  0  0
   40.0897   23.8800   38.9739 H   0  0  0  0  0  0  0  0  0  0  0  0
   37.2013   23.6944   39.2226 H   0  0  0  0  0  0  0  0  0  0  0  0
   38.1693   25.1633   38.9951 H   0  0  0  0  0  0  0  0  0  0  0  0
   36.7832   23.4294   36.9412 H   0  0  0  0  0  0  0  0  0  0  0  0
   36.9969   25.1574   36.9012 H   0  0  0  0  0  0  0  0  0  0  0  0
   39.5188   24.8539   36.3295 H   0  0  0  0  0  0  0  0  0  0  0  0
   37.5684   21.5971   35.6432 H   0  0  0  0  0  0  0  0  0  0  0  0
   38.3296   26.5672   31.6743 H   0  0  0  0  0  0  0  0  0  0  0  0
   39.9622   25.7938   31.7866 H   0  0  0  0  0  0  0  0  0  0  0  0
   38.2652   26.3472   29.3699 H   0  0  0  0  0  0  0  0  0  0  0  0
   39.9956   26.8122   29.7547 H   0  0  0  0  0  0  0  0  0  0  0  0
   38.8125   23.2982   28.4246 H   0  0  0  0  0  0  0  0  0  0  0  0
   39.8771   23.1347   29.9006 H   0  0  0  0  0  0  0  0  0  0  0  0
   37.0778   24.3875   29.8328 H   0  0  0  0  0  0  0  0  0  0  0  0
   37.4686   22.8187   30.5258 H   0  0  0  0  0  0  0  0  0  0  0  0
   41.1515   24.4023   35.7868 H   0  0  0  0  0  0  0  0  0  0  0  0
   40.8074   20.6008   37.8915 H   0  0  0  0  0  0  0  0  0  0  0  0
   44.5032   21.7858   36.1038 H   0  0  0  0  0  0  0  0  0  0  0  0
  1  2  1  0
  3  2  1  0
  4  3  1  0
  5  1  1  0
  5  4  1  0
  6  5  1  0
  7  6  2  0
  8  7  1  0
  9  8  1  0
  9 10  2  0
 10  6  1  0
 11  9  1  0
 12 11  1  0
 13 12  1  0
 14 15  1  0
 14 13  1  0
 15 16  1  0
 16 11  1  0
 17 18  2  0
 18  1  1  0
 18 19  1  0
 20 19  2  0
 21 20  1  0
 22 17  1  0
 22 21  2  0
  1 23  1  1
  2 24  1  0
  2 25  1  0
  3 26  1  0
  3 27  1  0
  4 28  1  0
  4 29  1  0
  5 30  1  6
  7 31  1  0
 12 32  1  0
 12 33  1  0
 13 34  1  0
 13 35  1  0
 15 36  1  0
 15 37  1  0
 16 38  1  0
 16 39  1  0
 17 40  1  0
 19 41  1  0
 21 42  1  0
M  ISO  8  23  13  24  13  25  13  26  13  27  13  28  13  29  13  30  13
M  ISO  8  31  14  32  13  33  13  34  13  35  13  36  13  37  13  38  13
M  ISO  4  39  13  40  14  41  14  42  14
M  END
>  <minimizedAffinity>  (1) 
-5.32463503

>  <minimizedRMSD>  (1) 
0.655511916

$$$$
