
     RDKit          3D

 36 39  0  0  1  0  0  0  0  0999 V2000
   39.4650   22.8030   37.1930 C   0  0  1  0  0  0  0  0  0  0  0  0
   39.2640   23.3700   38.5960 C   0  0  0  0  0  0  0  0  0  0  0  0
   37.9830   24.1580   38.5270 C   0  0  0  0  0  0  0  0  0  0  0  0
   37.4830   24.0290   37.1270 C   0  0  0  0  0  0  0  0  0  0  0  0
   38.7970   23.8240   36.3600 C   0  0  2  0  0  0  0  0  0  0  0  0
   38.3980   23.2660   35.0630 C   0  0  0  0  0  0  0  0  0  0  0  0
   37.6060   22.1080   35.0420 C   0  0  0  0  0  0  0  0  0  0  0  0
   37.3850   21.8310   33.2700 S   0  0  0  0  0  0  0  0  0  0  0  0
   38.4230   23.3600   32.8080 C   0  0  0  0  0  0  0  0  0  0  0  0
   38.7610   23.8250   33.9280 N   0  0  0  0  0  0  0  0  0  0  0  0
   38.6990   23.7970   31.4990 N   0  0  0  0  0  0  0  0  0  0  0  0
   39.0320   25.0300   31.1470 N   0  0  0  0  0  0  0  0  0  0  0  0
   39.2200   25.0730   29.8110 C   0  0  0  0  0  0  0  0  0  0  0  0
   38.9820   23.7830   29.3520 C   0  0  0  0  0  0  0  0  0  0  0  0
   38.6480   22.9660   30.4360 C   0  0  0  0  0  0  0  0  0  0  0  0
   41.6410   23.5090   36.2600 C   0  0  0  0  0  0  0  0  0  0  0  0
   40.8820   22.5250   36.9090 C   0  0  0  0  0  0  0  0  0  0  0  0
   41.4730   21.3120   37.2820 C   0  0  0  0  0  0  0  0  0  0  0  0
   42.7870   21.1600   36.9810 N   0  0  0  0  0  0  0  0  0  0  0  0
   43.5240   22.1050   36.3540 C   0  0  0  0  0  0  0  0  0  0  0  0
   42.9430   23.2940   35.9900 N   0  0  0  0  0  0  0  0  0  0  0  0
   39.0334   21.8082   37.0082 H   0  0  0  0  0  0  0  0  0  0  0  0
   39.1767   22.5566   39.3313 H   0  0  0  0  0  0  0  0  0  0  0  0
   40.1129   23.9946   38.9111 H   0  0  0  0  0  0  0  0  0  0  0  0
   37.2460   23.7483   39.2333 H   0  0  0  0  0  0  0  0  0  0  0  0
   38.1485   25.2118   38.7955 H   0  0  0  0  0  0  0  0  0  0  0  0
   36.8123   23.1642   37.0164 H   0  0  0  0  0  0  0  0  0  0  0  0
   36.8859   24.8851   36.7797 H   0  0  0  0  0  0  0  0  0  0  0  0
   39.4324   24.7059   36.1912 H   0  0  0  0  0  0  0  0  0  0  0  0
   37.2190   21.5198   35.8871 H   0  0  0  0  0  0  0  0  0  0  0  0
   39.5034   25.9491   29.2092 H   0  0  0  0  0  0  0  0  0  0  0  0
   39.0462   23.4570   28.3034 H   0  0  0  0  0  0  0  0  0  0  0  0
   38.4008   21.8942   30.4254 H   0  0  0  0  0  0  0  0  0  0  0  0
   41.1713   24.4605   35.9701 H   0  0  0  0  0  0  0  0  0  0  0  0
   40.9015   20.5230   37.7927 H   0  0  0  0  0  0  0  0  0  0  0  0
   44.5864   21.9211   36.1363 H   0  0  0  0  0  0  0  0  0  0  0  0
  1  2  1  0
  3  2  1  0
  4  3  1  0
  5  4  1  0
  5  1  1  0
  6  5  1  0
  7  6  2  0
  8  7  1  0
  9  8  1  0
  9 10  2  0
 10  6  1  0
 11  9  1  0
 12 11  1  0
 13 12  2  0
 14 13  1  0
 14 15  2  0
 15 11  1  0
 16 17  2  0
 17  1  1  0
 17 18  1  0
 19 18  2  0
 20 19  1  0
 21 16  1  0
 21 20  2  0
  1 22  1  1
  2 23  1  0
  2 24  1  0
  3 25  1  0
  3 26  1  0
  4 27  1  0
  4 28  1  0
  5 29  1  6
  7 30  1  0
 13 31  1  0
 14 32  1  0
 15 33  1  0
 16 34  1  0
 18 35  1  0
 20 36  1  0
M  ISO  8  22  13  23  13  24  13  25  13  26  13  27  13  28  13  29  13
M  ISO  7  30  14  31  14  32  14  33  14  34  14  35  14  36  14
M  END
>  <minimizedAffinity>  (1) 
-5.07081461

>  <minimizedRMSD>  (1) 
0.399267733

$$$$
