
     RDKit          3D

 42 45  0  0  1  0  0  0  0  0999 V2000
   39.4910   22.8150   37.1090 C   0  0  1  0  0  0  0  0  0  0  0  0
   39.2430   23.3370   38.5210 C   0  0  0  0  0  0  0  0  0  0  0  0
   37.9550   24.0970   38.4330 C   0  0  0  0  0  0  0  0  0  0  0  0
   37.5440   24.0870   37.0050 C   0  0  0  0  0  0  0  0  0  0  0  0
   38.8810   23.8780   36.2840 C   0  0  2  0  0  0  0  0  0  0  0  0
   41.7120   23.5110   36.2740 C   0  0  0  0  0  0  0  0  0  0  0  0
   40.9170   22.5250   36.8750 C   0  0  0  0  0  0  0  0  0  0  0  0
   41.4790   21.2970   37.2480 C   0  0  0  0  0  0  0  0  0  0  0  0
   42.7970   21.1300   36.9980 N   0  0  0  0  0  0  0  0  0  0  0  0
   43.5720   22.0870   36.4140 C   0  0  0  0  0  0  0  0  0  0  0  0
   43.0200   23.2900   36.0490 N   0  0  0  0  0  0  0  0  0  0  0  0
   38.5260   23.3750   34.9500 C   0  0  0  0  0  0  0  0  0  0  0  0
   37.6520   22.2780   34.8630 C   0  0  0  0  0  0  0  0  0  0  0  0
   37.5310   22.0520   33.0690 S   0  0  0  0  0  0  0  0  0  0  0  0
   38.6930   23.4910   32.7180 C   0  0  0  0  0  0  0  0  0  0  0  0
   39.0030   23.9270   33.8580 N   0  0  0  0  0  0  0  0  0  0  0  0
   39.5180   24.0760   28.6840 C   0  0  0  0  0  0  0  0  0  0  0  0
   39.4310   25.2120   29.4850 C   0  0  0  0  0  0  0  0  0  0  0  0
   39.1560   25.0870   30.8500 C   0  0  0  0  0  0  0  0  0  0  0  0
   38.9890   23.8020   31.3030 C   0  0  0  0  0  0  0  0  0  0  0  0
   39.0680   22.6540   30.5480 C   0  0  0  0  0  0  0  0  0  0  0  0
   39.3430   22.7990   29.1850 C   0  0  0  0  0  0  0  0  0  0  0  0
   39.8640   24.3020   26.9880 S   0  0  0  0  0  0  0  0  0  0  0  0
   39.1830   23.2100   26.2020 O   0  0  0  0  0  0  0  0  0  0  0  0
   41.3520   24.2370   26.7260 O   0  0  0  0  0  0  0  0  0  0  0  0
   39.0474   21.8364   36.8733 H   0  0  0  0  0  0  0  0  0  0  0  0
   39.1514   22.5021   39.2313 H   0  0  0  0  0  0  0  0  0  0  0  0
   40.0705   23.9667   38.8799 H   0  0  0  0  0  0  0  0  0  0  0  0
   37.1860   23.6108   39.0513 H   0  0  0  0  0  0  0  0  0  0  0  0
   38.0798   25.1267   38.7994 H   0  0  0  0  0  0  0  0  0  0  0  0
   36.8456   23.2630   36.7968 H   0  0  0  0  0  0  0  0  0  0  0  0
   37.0117   24.9975   36.6926 H   0  0  0  0  0  0  0  0  0  0  0  0
   39.5414   24.7503   36.1703 H   0  0  0  0  0  0  0  0  0  0  0  0
   41.2631   24.4725   35.9842 H   0  0  0  0  0  0  0  0  0  0  0  0
   40.8771   20.5072   37.7212 H   0  0  0  0  0  0  0  0  0  0  0  0
   44.6403   21.8955   36.2350 H   0  0  0  0  0  0  0  0  0  0  0  0
   37.1692   21.7075   35.6701 H   0  0  0  0  0  0  0  0  0  0  0  0
   39.5788   26.2085   29.0432 H   0  0  0  0  0  0  0  0  0  0  0  0
   39.0787   25.9592   31.5158 H   0  0  0  0  0  0  0  0  0  0  0  0
   38.9206   21.6617   30.9992 H   0  0  0  0  0  0  0  0  0  0  0  0
   39.4182   21.9200   28.5280 H   0  0  0  0  0  0  0  0  0  0  0  0
   39.4045   25.5351   26.6069 H   0  0  0  0  0  0  0  0  0  0  0  0
  1  2  1  0
  3  2  1  0
  4  3  1  0
  5  4  1  0
  5  1  1  0
  6  7  2  0
  7  1  1  0
  7  8  1  0
  9  8  2  0
 10  9  1  0
 11  6  1  0
 11 10  2  0
 12  5  1  0
 13 12  2  0
 14 13  1  0
 15 14  1  0
 15 16  2  0
 16 12  1  0
 17 22  2  0
 17 18  1  0
 18 19  2  0
 19 20  1  0
 20 15  1  0
 21 20  2  0
 22 21  1  0
 23 17  1  0
 24 23  2  0
 25 23  2  0
  1 26  1  1
  2 27  1  0
  2 28  1  0
  3 29  1  0
  3 30  1  0
  4 31  1  0
  4 32  1  0
  5 33  1  6
  6 34  1  0
  8 35  1  0
 10 36  1  0
 13 37  1  0
 18 38  1  0
 19 39  1  0
 21 40  1  0
 22 41  1  0
 23 42  1  0
M  ISO  8  26  13  27  13  28  13  29  13  30  13  31  13  32  13  33  13
M  ISO  8  34  14  35  14  36  14  37  14  38  14  39  14  40  14  41  14
M  ISO  1  42  11
M  END
>  <minimizedAffinity>  (1) 
-5.0136528

>  <minimizedRMSD>  (1) 
0.949597597

$$$$
