
     RDKit          3D

 36 39  0  0  1  0  0  0  0  0999 V2000
   39.4530   22.8000   37.2260 C   0  0  1  0  0  0  0  0  0  0  0  0
   39.2690   23.3950   38.6180 C   0  0  0  0  0  0  0  0  0  0  0  0
   37.9870   24.1830   38.5430 C   0  0  0  0  0  0  0  0  0  0  0  0
   37.4830   24.0410   37.1450 C   0  0  0  0  0  0  0  0  0  0  0  0
   38.7840   23.8040   36.3760 C   0  0  2  0  0  0  0  0  0  0  0  0
   41.6310   23.4980   36.2660 C   0  0  0  0  0  0  0  0  0  0  0  0
   40.8740   22.5210   36.9330 C   0  0  0  0  0  0  0  0  0  0  0  0
   41.4650   21.3080   37.3180 C   0  0  0  0  0  0  0  0  0  0  0  0
   42.7730   21.1420   37.0140 N   0  0  0  0  0  0  0  0  0  0  0  0
   43.5080   22.0930   36.3650 C   0  0  0  0  0  0  0  0  0  0  0  0
   42.9300   23.2800   35.9880 N   0  0  0  0  0  0  0  0  0  0  0  0
   38.3770   23.2250   35.0920 C   0  0  0  0  0  0  0  0  0  0  0  0
   37.5850   22.0650   35.1090 C   0  0  0  0  0  0  0  0  0  0  0  0
   37.3570   21.7470   33.3410 S   0  0  0  0  0  0  0  0  0  0  0  0
   38.3820   23.2510   32.8430 C   0  0  0  0  0  0  0  0  0  0  0  0
   38.7340   23.7580   33.9420 N   0  0  0  0  0  0  0  0  0  0  0  0
   38.6630   23.6770   31.4450 C   0  0  0  0  0  0  0  0  0  0  0  0
   38.6210   22.9570   30.2700 C   0  0  0  0  0  0  0  0  0  0  0  0
   38.9770   23.8670   29.2970 C   0  0  0  0  0  0  0  0  0  0  0  0
   39.2120   25.0720   29.9270 C   0  0  0  0  0  0  0  0  0  0  0  0
   39.0130   24.9160   31.2140 O   0  0  0  0  0  0  0  0  0  0  0  0
   39.0146   21.8034   37.0694 H   0  0  0  0  0  0  0  0  0  0  0  0
   39.1883   22.5973   39.3711 H   0  0  0  0  0  0  0  0  0  0  0  0
   40.1220   24.0237   38.9130 H   0  0  0  0  0  0  0  0  0  0  0  0
   37.2513   23.7804   39.2548 H   0  0  0  0  0  0  0  0  0  0  0  0
   38.1539   25.2394   38.8002 H   0  0  0  0  0  0  0  0  0  0  0  0
   36.7980   23.1857   37.0495 H   0  0  0  0  0  0  0  0  0  0  0  0
   36.9009   24.9033   36.7877 H   0  0  0  0  0  0  0  0  0  0  0  0
   39.4244   24.6774   36.1835 H   0  0  0  0  0  0  0  0  0  0  0  0
   41.1598   24.4466   35.9691 H   0  0  0  0  0  0  0  0  0  0  0  0
   40.8921   20.5289   37.8422 H   0  0  0  0  0  0  0  0  0  0  0  0
   44.5692   21.9068   36.1431 H   0  0  0  0  0  0  0  0  0  0  0  0
   37.2032   21.4981   35.9709 H   0  0  0  0  0  0  0  0  0  0  0  0
   38.3620   21.8961   30.1384 H   0  0  0  0  0  0  0  0  0  0  0  0
   39.0586   23.6689   28.2181 H   0  0  0  0  0  0  0  0  0  0  0  0
   39.5154   26.0067   29.4327 H   0  0  0  0  0  0  0  0  0  0  0  0
  1  2  1  0
  3  2  1  0
  4  3  1  0
  5  4  1  0
  5  1  1  0
  6  7  2  0
  7  1  1  0
  7  8  1  0
  9  8  2  0
 10  9  1  0
 11  6  1  0
 11 10  2  0
 12 13  2  0
 12  5  1  0
 14 13  1  0
 15 14  1  0
 15 16  2  0
 16 12  1  0
 17 15  1  0
 18 17  2  0
 19 20  2  0
 19 18  1  0
 20 21  1  0
 21 17  1  0
  1 22  1  1
  2 23  1  0
  2 24  1  0
  3 25  1  0
  3 26  1  0
  4 27  1  0
  4 28  1  0
  5 29  1  6
  6 30  1  0
  8 31  1  0
 10 32  1  0
 13 33  1  0
 18 34  1  0
 19 35  1  0
 20 36  1  0
M  ISO  8  22  13  23  13  24  13  25  13  26  13  27  13  28  13  29  13
M  ISO  7  30  14  31  14  32  14  33  14  34  14  35  14  36  14
M  END
>  <minimizedAffinity>  (1) 
-4.86554289

>  <minimizedRMSD>  (1) 
0.413808227

$$$$
