
     RDKit          3D

 36 39  0  0  1  0  0  0  0  0999 V2000
   39.4710   22.8160   37.1570 C   0  0  1  0  0  0  0  0  0  0  0  0
   39.2490   23.3580   38.5650 C   0  0  0  0  0  0  0  0  0  0  0  0
   37.9820   24.1610   38.4870 C   0  0  0  0  0  0  0  0  0  0  0  0
   37.5120   24.0700   37.0750 C   0  0  0  0  0  0  0  0  0  0  0  0
   38.8370   23.8610   36.3280 C   0  0  2  0  0  0  0  0  0  0  0  0
   41.6720   23.5080   36.2600 C   0  0  0  0  0  0  0  0  0  0  0  0
   40.8940   22.5290   36.8970 C   0  0  0  0  0  0  0  0  0  0  0  0
   41.4690   21.3120   37.2810 C   0  0  0  0  0  0  0  0  0  0  0  0
   42.7820   21.1440   37.0070 N   0  0  0  0  0  0  0  0  0  0  0  0
   43.5410   22.0920   36.3890 C   0  0  0  0  0  0  0  0  0  0  0  0
   42.9750   23.2810   36.0130 N   0  0  0  0  0  0  0  0  0  0  0  0
   38.4620   23.3470   35.0050 C   0  0  0  0  0  0  0  0  0  0  0  0
   37.6600   22.1950   34.9480 C   0  0  0  0  0  0  0  0  0  0  0  0
   37.4790   21.9690   33.1600 S   0  0  0  0  0  0  0  0  0  0  0  0
   38.5300   23.4840   32.7730 C   0  0  0  0  0  0  0  0  0  0  0  0
   38.8600   23.9370   33.9000 N   0  0  0  0  0  0  0  0  0  0  0  0
   38.7550   23.8330   31.3400 C   0  0  0  0  0  0  0  0  0  0  0  0
   38.5190   23.0790   30.2380 C   0  0  0  0  0  0  0  0  0  0  0  0
   38.9040   23.8920   29.2370 N   0  0  0  0  0  0  0  0  0  0  0  0
   39.3470   25.0770   29.7430 C   0  0  0  0  0  0  0  0  0  0  0  0
   39.2520   25.0410   31.1050 N   0  0  0  0  0  0  0  0  0  0  0  0
   39.0286   21.8311   36.9464 H   0  0  0  0  0  0  0  0  0  0  0  0
   39.1376   22.5317   39.2825 H   0  0  0  0  0  0  0  0  0  0  0  0
   40.0988   23.9662   38.9084 H   0  0  0  0  0  0  0  0  0  0  0  0
   37.2249   23.7442   39.1675 H   0  0  0  0  0  0  0  0  0  0  0  0
   38.1536   25.2063   38.7835 H   0  0  0  0  0  0  0  0  0  0  0  0
   36.8306   23.2184   36.9318 H   0  0  0  0  0  0  0  0  0  0  0  0
   36.9370   24.9440   36.7351 H   0  0  0  0  0  0  0  0  0  0  0  0
   39.4905   24.7349   36.1889 H   0  0  0  0  0  0  0  0  0  0  0  0
   41.2154   24.4633   35.9619 H   0  0  0  0  0  0  0  0  0  0  0  0
   40.8803   20.5294   37.7820 H   0  0  0  0  0  0  0  0  0  0  0  0
   44.6066   21.9026   36.1924 H   0  0  0  0  0  0  0  0  0  0  0  0
   37.2506   21.5906   35.7709 H   0  0  0  0  0  0  0  0  0  0  0  0
   38.1141   22.0580   30.1774 H   0  0  0  0  0  0  0  0  0  0  0  0
   39.7206   25.9252   29.1506 H   0  0  0  0  0  0  0  0  0  0  0  0
   39.5045   25.7730   31.7842 H   0  0  0  0  0  0  0  0  0  0  0  0
  1  2  1  0
  3  2  1  0
  4  3  1  0
  5  4  1  0
  5  1  1  0
  6  7  2  0
  7  1  1  0
  7  8  1  0
  9  8  2  0
 10  9  1  0
 11  6  1  0
 11 10  2  0
 12  5  1  0
 13 12  2  0
 14 13  1  0
 15 14  1  0
 15 16  2  0
 16 12  1  0
 17 15  1  0
 18 17  2  0
 19 20  2  0
 19 18  1  0
 20 21  1  0
 21 17  1  0
  1 22  1  1
  2 23  1  0
  2 24  1  0
  3 25  1  0
  3 26  1  0
  4 27  1  0
  4 28  1  0
  5 29  1  6
  6 30  1  0
  8 31  1  0
 10 32  1  0
 13 33  1  0
 18 34  1  0
 20 35  1  0
 21 36  1  0
M  ISO  8  22  13  23  13  24  13  25  13  26  13  27  13  28  13  29  13
M  ISO  7  30  14  31  14  32  14  33  14  34  14  35  14  36   9
M  END
>  <minimizedAffinity>  (1) 
-4.77392578

>  <minimizedRMSD>  (1) 
0.495359957

$$$$
