
     RDKit          3D

 32 34  0  0  1  0  0  0  0  0999 V2000
   39.4110   22.8480   37.1940 C   0  0  1  0  0  0  0  0  0  0  0  0
   39.2410   23.4170   38.5890 C   0  0  0  0  0  0  0  0  0  0  0  0
   37.9870   24.2430   38.5440 C   0  0  0  0  0  0  0  0  0  0  0  0
   37.4300   24.0690   37.1720 C   0  0  0  0  0  0  0  0  0  0  0  0
   38.7130   23.8440   36.3560 C   0  0  2  0  0  0  0  0  0  0  0  0
   41.5330   23.5190   36.1310 C   0  0  0  0  0  0  0  0  0  0  0  0
   40.8150   22.5660   36.8660 C   0  0  0  0  0  0  0  0  0  0  0  0
   41.4430   21.3850   37.2780 C   0  0  0  0  0  0  0  0  0  0  0  0
   42.7430   21.2290   36.9320 N   0  0  0  0  0  0  0  0  0  0  0  0
   43.4400   22.1490   36.2210 C   0  0  0  0  0  0  0  0  0  0  0  0
   42.8240   23.3090   35.8160 N   0  0  0  0  0  0  0  0  0  0  0  0
   38.2640   23.2530   35.0910 C   0  0  0  0  0  0  0  0  0  0  0  0
   37.6730   21.9820   35.1170 C   0  0  0  0  0  0  0  0  0  0  0  0
   37.3020   21.6950   33.3770 S   0  0  0  0  0  0  0  0  0  0  0  0
   38.0200   23.3780   32.8590 C   0  0  0  0  0  0  0  0  0  0  0  0
   38.4060   23.8850   33.9460 N   0  0  0  0  0  0  0  0  0  0  0  0
   38.1030   23.9590   31.4680 C   0  0  0  0  0  0  0  0  0  0  0  0
   38.9785   21.8479   37.0430 H   0  0  0  0  0  0  0  0  0  0  0  0
   39.1387   22.6051   39.3240 H   0  0  0  0  0  0  0  0  0  0  0  0
   40.1115   24.0185   38.8898 H   0  0  0  0  0  0  0  0  0  0  0  0
   37.2678   23.8874   39.2965 H   0  0  0  0  0  0  0  0  0  0  0  0
   38.1929   25.3009   38.7643 H   0  0  0  0  0  0  0  0  0  0  0  0
   36.7591   23.1991   37.1165 H   0  0  0  0  0  0  0  0  0  0  0  0
   36.8152   24.9121   36.8238 H   0  0  0  0  0  0  0  0  0  0  0  0
   39.3413   24.7193   36.1343 H   0  0  0  0  0  0  0  0  0  0  0  0
   41.0369   24.4465   35.8090 H   0  0  0  0  0  0  0  0  0  0  0  0
   40.9055   20.6189   37.8561 H   0  0  0  0  0  0  0  0  0  0  0  0
   44.4953   21.9677   35.9690 H   0  0  0  0  0  0  0  0  0  0  0  0
   37.4839   21.3266   35.9800 H   0  0  0  0  0  0  0  0  0  0  0  0
   38.2583   25.0460   31.5333 H   0  0  0  0  0  0  0  0  0  0  0  0
   38.9447   23.5001   30.9286 H   0  0  0  0  0  0  0  0  0  0  0  0
   37.1665   23.7542   30.9286 H   0  0  0  0  0  0  0  0  0  0  0  0
  1  2  1  0
  3  2  1  0
  4  3  1  0
  5  4  1  0
  5  1  1  0
  6  7  2  0
  7  1  1  0
  7  8  1  0
  9  8  2  0
 10  9  1  0
 11  6  1  0
 11 10  2  0
 12 13  2  0
 12  5  1  0
 14 13  1  0
 15 14  1  0
 15 16  2  0
 16 12  1  0
 17 15  1  0
  1 18  1  1
  2 19  1  0
  2 20  1  0
  3 21  1  0
  3 22  1  0
  4 23  1  0
  4 24  1  0
  5 25  1  6
  6 26  1  0
  8 27  1  0
 10 28  1  0
 13 29  1  0
 17 30  1  0
 17 31  1  0
 17 32  1  0
M  ISO  8  18  13  19  13  20  13  21  13  22  13  23  13  24  13  25  13
M  ISO  7  26  14  27  14  28  14  29  14  30   8  31   8  32   8
M  END
>  <minimizedAffinity>  (1) 
-4.58552599

>  <minimizedRMSD>  (1) 
0.0649096593

$$$$
