
     RDKit          3D

 27 29  0  0  0  0  0  0  0  0999 V2000
   41.8860   21.5230   34.0990 S   0  0  0  0  0  0  0  0  0  0  0  0
   43.2800   22.6090   33.8170 C   0  0  0  0  0  0  0  0  0  0  0  0
   43.2100   23.9010   34.3620 C   0  0  0  0  0  0  0  0  0  0  0  0
   44.8540   24.6600   33.8170 S   0  0  0  0  0  0  0  0  0  0  0  0
   45.2910   23.0370   32.9540 C   0  0  0  0  0  0  0  0  0  0  0  0
   44.3920   22.4330   33.1780 N   0  0  0  0  0  0  0  0  0  0  0  0
   46.5180   22.7610   32.2160 N   0  0  0  0  0  0  0  0  0  0  0  0
   47.4420   22.1630   32.9420 N   0  0  0  0  0  0  0  0  0  0  0  0
   48.4990   21.9860   32.1080 C   0  0  0  0  0  0  0  0  0  0  0  0
   48.1850   22.4970   30.8590 C   0  0  0  0  0  0  0  0  0  0  0  0
   46.8940   22.9900   30.9680 C   0  0  0  0  0  0  0  0  0  0  0  0
   40.4620   22.3860   37.7140 C   0  0  0  0  0  0  0  0  0  0  0  0
   39.2890   23.1280   37.4400 C   0  0  0  0  0  0  0  0  0  0  0  0
   38.9640   23.3460   36.1080 C   0  0  0  0  0  0  0  0  0  0  0  0
   39.7620   22.8530   35.1190 N   0  0  0  0  0  0  0  0  0  0  0  0
   40.8930   22.1370   35.4370 C   0  0  0  0  0  0  0  0  0  0  0  0
   41.2140   21.9230   36.7160 N   0  0  0  0  0  0  0  0  0  0  0  0
   38.4040   23.6760   38.5040 C   0  0  0  0  0  0  0  0  0  0  0  0
   39.2060   23.8600   39.6270 F   0  0  0  0  0  0  0  0  0  0  0  0
   37.3860   22.8520   38.8370 F   0  0  0  0  0  0  0  0  0  0  0  0
   37.9900   24.9810   38.1790 F   0  0  0  0  0  0  0  0  0  0  0  0
   42.4034   24.3563   34.9555 H   0  0  0  0  0  0  0  0  0  0  0  0
   49.4534   21.5120   32.3808 H   0  0  0  0  0  0  0  0  0  0  0  0
   48.8271   22.5090   29.9659 H   0  0  0  0  0  0  0  0  0  0  0  0
   46.3019   23.4737   30.1771 H   0  0  0  0  0  0  0  0  0  0  0  0
   40.7548   22.1903   38.7561 H   0  0  0  0  0  0  0  0  0  0  0  0
   38.0604   23.9179   35.8501 H   0  0  0  0  0  0  0  0  0  0  0  0
  1 16  1  0
  2  1  1  0
  2  3  2  0
  4  3  1  0
  5  6  2  0
  5  4  1  0
  6  2  1  0
  7  8  1  0
  7  5  1  0
  9  8  2  0
 10 11  2  0
 10  9  1  0
 11  7  1  0
 13 12  2  0
 13 18  1  0
 14 13  1  0
 15 16  1  0
 15 14  2  0
 16 17  2  0
 17 12  1  0
 18 20  1  0
 18 19  1  0
 21 18  1  0
  3 22  1  0
  9 23  1  0
 10 24  1  0
 11 25  1  0
 12 26  1  0
 14 27  1  0
M  ISO  6  22  14  23  14  24  14  25  14  26  14  27  14
M  END
>  <minimizedAffinity>  (1) 
-3.80006123

>  <minimizedRMSD>  (1) 
0.0818817392

$$$$
