
     RDKit          3D

 32 34  0  0  1  0  0  0  0  0999 V2000
   39.3590   22.8530   37.1750 C   0  0  1  0  0  0  0  0  0  0  0  0
   39.2570   23.4610   38.5650 C   0  0  0  0  0  0  0  0  0  0  0  0
   37.9800   24.2570   38.5620 C   0  0  0  0  0  0  0  0  0  0  0  0
   37.3860   24.0930   37.2050 C   0  0  0  0  0  0  0  0  0  0  0  0
   38.6310   23.8370   36.3490 C   0  0  2  0  0  0  0  0  0  0  0  0
   41.4230   23.4650   35.9640 C   0  0  0  0  0  0  0  0  0  0  0  0
   40.7520   22.5610   36.7970 C   0  0  0  0  0  0  0  0  0  0  0  0
   41.4100   21.4150   37.2560 C   0  0  0  0  0  0  0  0  0  0  0  0
   42.6900   21.2400   36.8590 N   0  0  0  0  0  0  0  0  0  0  0  0
   43.3410   22.1240   36.0470 C   0  0  0  0  0  0  0  0  0  0  0  0
   42.6970   23.2500   35.5950 N   0  0  0  0  0  0  0  0  0  0  0  0
   38.1360   23.2320   35.1090 C   0  0  0  0  0  0  0  0  0  0  0  0
   37.7240   21.8920   35.1470 C   0  0  0  0  0  0  0  0  0  0  0  0
   37.2180   21.5990   33.4380 S   0  0  0  0  0  0  0  0  0  0  0  0
   37.6550   23.3810   32.9220 C   0  0  0  0  0  0  0  0  0  0  0  0
   38.0770   23.9080   33.9840 N   0  0  0  0  0  0  0  0  0  0  0  0
   37.4920   23.9330   31.5270 C   0  0  0  0  0  0  0  0  0  0  0  0
   36.3770   23.3410   30.9230 F   0  0  0  0  0  0  0  0  0  0  0  0
   37.2050   25.2800   31.5660 F   0  0  0  0  0  0  0  0  0  0  0  0
   38.5930   23.6870   30.7610 F   0  0  0  0  0  0  0  0  0  0  0  0
   38.9145   21.8532   37.0620 H   0  0  0  0  0  0  0  0  0  0  0  0
   39.2155   22.6703   39.3285 H   0  0  0  0  0  0  0  0  0  0  0  0
   40.1289   24.0886   38.8013 H   0  0  0  0  0  0  0  0  0  0  0  0
   37.2904   23.8731   39.3282 H   0  0  0  0  0  0  0  0  0  0  0  0
   38.1696   25.3164   38.7893 H   0  0  0  0  0  0  0  0  0  0  0  0
   36.6936   23.2389   37.1710 H   0  0  0  0  0  0  0  0  0  0  0  0
   36.7858   24.9532   36.8737 H   0  0  0  0  0  0  0  0  0  0  0  0
   39.2560   24.7044   36.0903 H   0  0  0  0  0  0  0  0  0  0  0  0
   40.8995   24.3640   35.6066 H   0  0  0  0  0  0  0  0  0  0  0  0
   40.9077   20.6882   37.9113 H   0  0  0  0  0  0  0  0  0  0  0  0
   44.3841   21.9339   35.7540 H   0  0  0  0  0  0  0  0  0  0  0  0
   37.7121   21.1971   35.9996 H   0  0  0  0  0  0  0  0  0  0  0  0
  1  2  1  0
  3  2  1  0
  4  3  1  0
  5  1  1  0
  5  4  1  0
  6  7  2  0
  7  1  1  0
  7  8  1  0
  9  8  2  0
 10  9  1  0
 11  6  1  0
 11 10  2  0
 12 13  2  0
 12  5  1  0
 14 13  1  0
 15 14  1  0
 15 16  2  0
 16 12  1  0
 17 19  1  0
 17 15  1  0
 18 17  1  0
 20 17  1  0
  1 21  1  1
  2 22  1  0
  2 23  1  0
  3 24  1  0
  3 25  1  0
  4 26  1  0
  4 27  1  0
  5 28  1  6
  6 29  1  0
  8 30  1  0
 10 31  1  0
 13 32  1  0
M  ISO  8  21  13  22  13  23  13  24  13  25  13  26  13  27  13  28  13
M  ISO  4  29  14  30  14  31  14  32  14
M  END
>  <minimizedAffinity>  (1) 
-4.89239216

>  <minimizedRMSD>  (1) 
0.36738345

$$$$
