
     RDKit          3D

 33 35  0  0  0  0  0  0  0  0999 V2000
   41.8820   21.5260   34.0880 S   0  0  0  0  0  0  0  0  0  0  0  0
   43.2880   22.6110   33.8300 C   0  0  0  0  0  0  0  0  0  0  0  0
   43.2240   23.9030   34.3650 C   0  0  0  0  0  0  0  0  0  0  0  0
   44.8740   24.6530   33.8580 S   0  0  0  0  0  0  0  0  0  0  0  0
   45.3310   23.0280   33.0020 C   0  0  0  0  0  0  0  0  0  0  0  0
   44.4280   22.4240   33.2030 N   0  0  0  0  0  0  0  0  0  0  0  0
   46.5560   22.6830   32.2730 N   0  0  0  0  0  0  0  0  0  0  0  0
   46.4990   22.6300   30.8260 C   0  0  0  0  0  0  0  0  0  0  0  0
   47.9260   22.8590   30.3100 C   0  0  0  0  0  0  0  0  0  0  0  0
   48.8070   21.9020   30.7550 O   0  0  0  0  0  0  0  0  0  0  0  0
   48.6180   21.4670   32.0420 C   0  0  0  0  0  0  0  0  0  0  0  0
   47.8200   22.3930   32.9160 C   0  0  0  0  0  0  0  0  0  0  0  0
   40.4680   22.3870   37.7160 C   0  0  0  0  0  0  0  0  0  0  0  0
   39.2940   23.1270   37.4390 C   0  0  0  0  0  0  0  0  0  0  0  0
   38.9660   23.3420   36.1080 C   0  0  0  0  0  0  0  0  0  0  0  0
   39.7750   22.8420   35.1250 N   0  0  0  0  0  0  0  0  0  0  0  0
   40.8950   22.1360   35.4460 C   0  0  0  0  0  0  0  0  0  0  0  0
   41.2230   21.9200   36.7210 N   0  0  0  0  0  0  0  0  0  0  0  0
   38.4070   23.6760   38.4970 C   0  0  0  0  0  0  0  0  0  0  0  0
   39.2070   23.8620   39.6280 F   0  0  0  0  0  0  0  0  0  0  0  0
   37.3880   22.8580   38.8310 F   0  0  0  0  0  0  0  0  0  0  0  0
   37.9880   24.9770   38.1690 F   0  0  0  0  0  0  0  0  0  0  0  0
   42.4091   24.3663   34.9406 H   0  0  0  0  0  0  0  0  0  0  0  0
   46.1327   21.6458   30.4985 H   0  0  0  0  0  0  0  0  0  0  0  0
   45.8129   23.3946   30.4327 H   0  0  0  0  0  0  0  0  0  0  0  0
   48.2719   23.8445   30.6550 H   0  0  0  0  0  0  0  0  0  0  0  0
   47.8973   22.8019   29.2119 H   0  0  0  0  0  0  0  0  0  0  0  0
   48.0945   20.5004   32.0018 H   0  0  0  0  0  0  0  0  0  0  0  0
   49.6186   21.4041   32.4947 H   0  0  0  0  0  0  0  0  0  0  0  0
   48.3787   23.3283   33.0677 H   0  0  0  0  0  0  0  0  0  0  0  0
   47.6381   21.9162   33.8905 H   0  0  0  0  0  0  0  0  0  0  0  0
   40.7597   22.1957   38.7592 H   0  0  0  0  0  0  0  0  0  0  0  0
   38.0617   23.9106   35.8453 H   0  0  0  0  0  0  0  0  0  0  0  0
  1 17  1  0
  2  1  1  0
  2  3  2  0
  4  3  1  0
  5  6  2  0
  5  4  1  0
  6  2  1  0
  7 12  1  0
  7  5  1  0
  8  7  1  0
  9 10  1  0
  9  8  1  0
 10 11  1  0
 11 12  1  0
 14 13  2  0
 14 19  1  0
 15 14  1  0
 16 17  1  0
 16 15  2  0
 17 18  2  0
 18 13  1  0
 19 21  1  0
 19 20  1  0
 22 19  1  0
  3 23  1  0
  8 24  1  0
  8 25  1  0
  9 26  1  0
  9 27  1  0
 11 28  1  0
 11 29  1  0
 12 30  1  0
 12 31  1  0
 13 32  1  0
 15 33  1  0
M  ISO  8  23  14  24  13  25  13  26  13  27  13  28  13  29  13  30  13
M  ISO  3  31  13  32  14  33  14
M  END
>  <minimizedAffinity>  (1) 
-3.79977274

>  <minimizedRMSD>  (1) 
0.115399726

$$$$
