
     RDKit          3D

 41 44  0  0  1  0  0  0  0  0999 V2000
   39.4990   23.2770   36.2340 C   0  0  1  0  0  0  0  0  0  0  0  0
   38.8370   23.2030   37.6250 C   0  0  0  0  0  0  0  0  0  0  0  0
   37.7090   24.1720   37.5640 C   0  0  0  0  0  0  0  0  0  0  0  0
   37.8110   24.8760   36.2580 C   0  0  0  0  0  0  0  0  0  0  0  0
   39.2770   24.6550   35.8870 C   0  0  2  0  0  0  0  0  0  0  0  0
   41.9190   23.6580   35.8700 C   0  0  0  0  0  0  0  0  0  0  0  0
   40.8900   22.7920   36.2840 C   0  0  0  0  0  0  0  0  0  0  0  0
   41.1940   21.5080   36.7340 C   0  0  0  0  0  0  0  0  0  0  0  0
   42.4830   21.1380   36.7560 N   0  0  0  0  0  0  0  0  0  0  0  0
   43.4920   21.9740   36.3560 C   0  0  0  0  0  0  0  0  0  0  0  0
   43.1980   23.2420   35.9100 N   0  0  0  0  0  0  0  0  0  0  0  0
   39.4230   24.9660   34.4770 C   0  0  0  0  0  0  0  0  0  0  0  0
   38.6210   24.3130   33.6170 C   0  0  0  0  0  0  0  0  0  0  0  0
   39.1650   25.0370   32.0400 S   0  0  0  0  0  0  0  0  0  0  0  0
   40.4510   26.1610   32.8640 C   0  0  0  0  0  0  0  0  0  0  0  0
   40.2850   25.8500   34.0370 N   0  0  0  0  0  0  0  0  0  0  0  0
   37.5810   23.4170   33.2060 C   0  0  0  0  0  0  0  0  0  0  0  0
   36.6630   23.4520   32.1850 C   0  0  0  0  0  0  0  0  0  0  0  0
   35.7560   22.5420   31.7330 C   0  0  0  0  0  0  0  0  0  0  0  0
   35.7880   21.3790   32.4550 C   0  0  0  0  0  0  0  0  0  0  0  0
   36.6490   21.2120   33.4980 C   0  0  0  0  0  0  0  0  0  0  0  0
   37.4690   22.1820   33.8180 N   0  0  0  0  0  0  0  0  0  0  0  0
   41.3480   27.1230   32.1330 C   0  0  0  0  0  0  0  0  0  0  0  0
   40.5730   27.8570   31.2140 F   0  0  0  0  0  0  0  0  0  0  0  0
   41.8470   28.0650   33.0020 F   0  0  0  0  0  0  0  0  0  0  0  0
   42.3260   26.4740   31.4590 F   0  0  0  0  0  0  0  0  0  0  0  0
   39.0925   22.6211   35.4500 H   0  0  0  0  0  0  0  0  0  0  0  0
   38.4643   22.1871   37.8227 H   0  0  0  0  0  0  0  0  0  0  0  0
   39.5441   23.4408   38.4334 H   0  0  0  0  0  0  0  0  0  0  0  0
   36.7491   23.6391   37.6320 H   0  0  0  0  0  0  0  0  0  0  0  0
   37.7587   24.8856   38.3997 H   0  0  0  0  0  0  0  0  0  0  0  0
   37.1386   24.4297   35.5105 H   0  0  0  0  0  0  0  0  0  0  0  0
   37.5216   25.9363   36.3037 H   0  0  0  0  0  0  0  0  0  0  0  0
   40.0181   25.2855   36.4000 H   0  0  0  0  0  0  0  0  0  0  0  0
   41.6787   24.6711   35.5151 H   0  0  0  0  0  0  0  0  0  0  0  0
   40.4010   20.8194   37.0610 H   0  0  0  0  0  0  0  0  0  0  0  0
   44.5368   21.6316   36.3914 H   0  0  0  0  0  0  0  0  0  0  0  0
   36.6597   24.3980   31.6237 H   0  0  0  0  0  0  0  0  0  0  0  0
   35.0768   22.7206   30.8864 H   0  0  0  0  0  0  0  0  0  0  0  0
   35.1032   20.5609   32.1870 H   0  0  0  0  0  0  0  0  0  0  0  0
   36.6553   20.2703   34.0665 H   0  0  0  0  0  0  0  0  0  0  0  0
  1  7  1  0
  1  2  1  0
  3  2  1  0
  4  3  1  0
  5  1  1  0
  5  4  1  0
  6 11  2  0
  6  7  1  0
  7  8  2  0
  8  9  1  0
 10  9  2  0
 11 10  1  0
 12  5  1  0
 13 12  2  0
 14 15  1  0
 14 13  1  0
 15 16  2  0
 16 12  1  0
 17 13  1  0
 17 22  1  0
 18 17  2  0
 19 18  1  0
 19 20  2  0
 20 21  1  0
 21 22  2  0
 23 15  1  0
 23 25  1  0
 24 23  1  0
 26 23  1  0
  1 27  1  6
  2 28  1  0
  2 29  1  0
  3 30  1  0
  3 31  1  0
  4 32  1  0
  4 33  1  0
  5 34  1  1
  6 35  1  0
  8 36  1  0
 10 37  1  0
 18 38  1  0
 19 39  1  0
 20 40  1  0
 21 41  1  0
M  ISO  8  27  13  28  13  29  13  30  13  31  13  32  13  33  13  34  13
M  ISO  7  35  14  36  14  37  14  38  14  39  14  40  14  41  14
M  END
>  <minimizedAffinity>  (1) 
-5.32538128

>  <minimizedRMSD>  (1) 
3.52521992

$$$$
