
     RDKit          3D

 42 45  0  0  1  0  0  0  0  0999 V2000
   38.1050   24.5960   35.1390 C   0  0  1  0  0  0  0  0  0  0  0  0
   38.0840   26.0900   35.5070 C   0  0  0  0  0  0  0  0  0  0  0  0
   37.3590   26.7520   34.3870 C   0  0  0  0  0  0  0  0  0  0  0  0
   37.1760   25.7450   33.3100 C   0  0  0  0  0  0  0  0  0  0  0  0
   38.1480   24.6500   33.7070 C   0  0  2  0  0  0  0  0  0  0  0  0
   40.4980   24.0120   35.3580 C   0  0  0  0  0  0  0  0  0  0  0  0
   39.2100   23.8880   35.8350 C   0  0  0  0  0  0  0  0  0  0  0  0
   38.9170   23.1080   36.9750 C   0  0  0  0  0  0  0  0  0  0  0  0
   39.9640   22.4950   37.5630 N   0  0  0  0  0  0  0  0  0  0  0  0
   41.2360   22.6100   37.1030 C   0  0  0  0  0  0  0  0  0  0  0  0
   41.4980   23.3730   35.9930 N   0  0  0  0  0  0  0  0  0  0  0  0
   37.7740   23.4370   33.0110 C   0  0  0  0  0  0  0  0  0  0  0  0
   38.3380   23.2360   31.8150 C   0  0  0  0  0  0  0  0  0  0  0  0
   37.5420   21.6690   31.3270 S   0  0  0  0  0  0  0  0  0  0  0  0
   36.5340   21.5480   32.9270 C   0  0  0  0  0  0  0  0  0  0  0  0
   36.9070   22.5740   33.4910 N   0  0  0  0  0  0  0  0  0  0  0  0
   39.2240   23.6240   30.7520 C   0  0  0  0  0  0  0  0  0  0  0  0
   40.5630   23.9920   31.0020 C   0  0  0  0  0  0  0  0  0  0  0  0
   41.4380   24.4510   30.0440 C   0  0  0  0  0  0  0  0  0  0  0  0
   40.9850   24.5630   28.7590 C   0  0  0  0  0  0  0  0  0  0  0  0
   39.7110   24.2450   28.3620 C   0  0  0  0  0  0  0  0  0  0  0  0
   38.9590   23.8070   29.4050 C   0  0  0  0  0  0  0  0  0  0  0  0
   35.6080   20.4160   33.2650 C   0  0  0  0  0  0  0  0  0  0  0  0
   36.2340   19.1960   32.9430 F   0  0  0  0  0  0  0  0  0  0  0  0
   35.4280   20.3520   34.6410 F   0  0  0  0  0  0  0  0  0  0  0  0
   34.4390   20.5220   32.6020 F   0  0  0  0  0  0  0  0  0  0  0  0
   37.2451   23.9943   35.4684 H   0  0  0  0  0  0  0  0  0  0  0  0
   37.5531   26.2467   36.4576 H   0  0  0  0  0  0  0  0  0  0  0  0
   39.0971   26.4969   35.6416 H   0  0  0  0  0  0  0  0  0  0  0  0
   36.3791   27.1107   34.7350 H   0  0  0  0  0  0  0  0  0  0  0  0
   37.9305   27.6150   34.0147 H   0  0  0  0  0  0  0  0  0  0  0  0
   37.4326   26.1654   32.3264 H   0  0  0  0  0  0  0  0  0  0  0  0
   36.1383   25.3931   33.2138 H   0  0  0  0  0  0  0  0  0  0  0  0
   39.1951   24.8233   33.4181 H   0  0  0  0  0  0  0  0  0  0  0  0
   40.7056   24.6258   34.4691 H   0  0  0  0  0  0  0  0  0  0  0  0
   37.8922   23.0062   37.3616 H   0  0  0  0  0  0  0  0  0  0  0  0
   42.0568   22.0915   37.6201 H   0  0  0  0  0  0  0  0  0  0  0  0
   40.9332   23.9061   32.0343 H   0  0  0  0  0  0  0  0  0  0  0  0
   42.4722   24.7200   30.3048 H   0  0  0  0  0  0  0  0  0  0  0  0
   41.6861   24.9312   27.9955 H   0  0  0  0  0  0  0  0  0  0  0  0
   39.3444   24.3336   27.3287 H   0  0  0  0  0  0  0  0  0  0  0  0
   37.9291   23.5439   29.1219 H   0  0  0  0  0  0  0  0  0  0  0  0
  1  2  1  0
  1  7  1  0
  3  2  1  0
  4  5  1  0
  4  3  1  0
  5  1  1  0
  6  7  2  0
  6 11  1  0
  7  8  1  0
  8  9  2  0
 10  9  1  0
 11 10  2  0
 12 16  1  0
 12  5  1  0
 13 12  2  0
 14 13  1  0
 14 15  1  0
 15 23  1  0
 15 16  2  0
 17 18  2  0
 17 13  1  0
 19 18  1  0
 20 19  2  0
 21 20  1  0
 21 22  2  0
 22 17  1  0
 23 25  1  0
 24 23  1  0
 26 23  1  0
  1 27  1  6
  2 28  1  0
  2 29  1  0
  3 30  1  0
  3 31  1  0
  4 32  1  0
  4 33  1  0
  5 34  1  1
  6 35  1  0
  8 36  1  0
 10 37  1  0
 18 38  1  0
 19 39  1  0
 20 40  1  0
 21 41  1  0
 22 42  1  0
M  ISO  8  27  13  28  13  29  13  30  13  31  13  32  13  33  13  34  13
M  ISO  8  35  14  36  14  37  14  38  14  39  14  40  14  41  14  42  14
M  END
>  <minimizedAffinity>  (1) 
-5.30201483

>  <minimizedRMSD>  (1) 
5.40600634

$$$$
