
     RDKit          3D

 39 42  0  0  1  0  0  0  0  0999 V2000
   39.5000   23.0260   36.8320 C   0  0  1  0  0  0  0  0  0  0  0  0
   39.1310   23.2550   38.3060 C   0  0  0  0  0  0  0  0  0  0  0  0
   37.9460   24.1640   38.2780 C   0  0  0  0  0  0  0  0  0  0  0  0
   37.7320   24.5530   36.8590 C   0  0  0  0  0  0  0  0  0  0  0  0
   39.1020   24.2740   36.2300 C   0  0  2  0  0  0  0  0  0  0  0  0
   41.7960   23.4800   36.0710 C   0  0  0  0  0  0  0  0  0  0  0  0
   40.9020   22.5980   36.6790 C   0  0  0  0  0  0  0  0  0  0  0  0
   41.3150   21.3370   37.1470 C   0  0  0  0  0  0  0  0  0  0  0  0
   42.6220   21.0320   36.9730 N   0  0  0  0  0  0  0  0  0  0  0  0
   43.5090   21.8950   36.3750 C   0  0  0  0  0  0  0  0  0  0  0  0
   43.0880   23.1230   35.9240 N   0  0  0  0  0  0  0  0  0  0  0  0
   38.9060   24.2230   34.7940 C   0  0  0  0  0  0  0  0  0  0  0  0
   38.0570   23.2720   34.3200 C   0  0  0  0  0  0  0  0  0  0  0  0
   38.1250   23.5610   32.5340 S   0  0  0  0  0  0  0  0  0  0  0  0
   39.3580   25.0010   32.7370 C   0  0  0  0  0  0  0  0  0  0  0  0
   39.5070   25.0340   33.9650 N   0  0  0  0  0  0  0  0  0  0  0  0
   37.1830   22.2080   34.6290 N   0  0  0  0  0  0  0  0  0  0  0  0
   36.8210   21.7970   35.8670 N   0  0  0  0  0  0  0  0  0  0  0  0
   35.9690   20.7620   35.7740 C   0  0  0  0  0  0  0  0  0  0  0  0
   35.7810   20.5050   34.4320 C   0  0  0  0  0  0  0  0  0  0  0  0
   36.5380   21.4080   33.7090 C   0  0  0  0  0  0  0  0  0  0  0  0
   39.9140   25.8060   31.5950 C   0  0  0  0  0  0  0  0  0  0  0  0
   38.9750   25.8540   30.5560 F   0  0  0  0  0  0  0  0  0  0  0  0
   40.0650   27.1300   31.9780 F   0  0  0  0  0  0  0  0  0  0  0  0
   41.0660   25.2770   31.1240 F   0  0  0  0  0  0  0  0  0  0  0  0
   38.9971   22.1888   36.3259 H   0  0  0  0  0  0  0  0  0  0  0  0
   38.8744   22.3020   38.7917 H   0  0  0  0  0  0  0  0  0  0  0  0
   39.9666   23.6873   38.8760 H   0  0  0  0  0  0  0  0  0  0  0  0
   37.0589   23.6408   38.6645 H   0  0  0  0  0  0  0  0  0  0  0  0
   38.1152   25.0501   38.9074 H   0  0  0  0  0  0  0  0  0  0  0  0
   36.9475   23.9392   36.3922 H   0  0  0  0  0  0  0  0  0  0  0  0
   37.3952   25.5928   36.7347 H   0  0  0  0  0  0  0  0  0  0  0  0
   39.8880   25.0247   36.3995 H   0  0  0  0  0  0  0  0  0  0  0  0
   41.4489   24.4607   35.7137 H   0  0  0  0  0  0  0  0  0  0  0  0
   40.6146   20.6380   37.6275 H   0  0  0  0  0  0  0  0  0  0  0  0
   44.5623   21.6009   36.2567 H   0  0  0  0  0  0  0  0  0  0  0  0
   35.5072   20.2202   36.6126 H   0  0  0  0  0  0  0  0  0  0  0  0
   35.1395   19.7175   34.0099 H   0  0  0  0  0  0  0  0  0  0  0  0
   36.6116   21.4754   32.6135 H   0  0  0  0  0  0  0  0  0  0  0  0
  1  2  1  0
  3  2  1  0
  4  3  1  0
  5  1  1  0
  5  4  1  0
  6  7  2  0
  7  1  1  0
  7  8  1  0
  9  8  2  0
 10  9  1  0
 11  6  1  0
 11 10  2  0
 12  5  1  0
 13 17  1  0
 13 12  2  0
 14 15  1  0
 14 13  1  0
 15 16  2  0
 16 12  1  0
 17 18  1  0
 19 18  2  0
 20 19  1  0
 21 20  2  0
 21 17  1  0
 22 24  1  0
 22 15  1  0
 23 22  1  0
 25 22  1  0
  1 26  1  6
  2 27  1  0
  2 28  1  0
  3 29  1  0
  3 30  1  0
  4 31  1  0
  4 32  1  0
  5 33  1  6
  6 34  1  0
  8 35  1  0
 10 36  1  0
 19 37  1  0
 20 38  1  0
 21 39  1  0
M  ISO  8  26  13  27  13  28  13  29  13  30  13  31  13  32  13  33  13
M  ISO  6  34  14  35  14  36  14  37  14  38  14  39  14
M  END
>  <minimizedAffinity>  (1) 
-5.28385162

>  <minimizedRMSD>  (1) 
2.00205517

$$$$
