
     RDKit          3D

 35 37  0  0  1  0  0  0  0  0999 V2000
   39.4990   23.0980   36.7180 C   0  0  1  0  0  0  0  0  0  0  0  0
   39.2110   23.0370   38.2270 C   0  0  0  0  0  0  0  0  0  0  0  0
   37.9150   23.7520   38.3810 C   0  0  0  0  0  0  0  0  0  0  0  0
   37.6520   24.4730   37.1160 C   0  0  0  0  0  0  0  0  0  0  0  0
   38.9360   24.3550   36.3530 C   0  0  2  0  0  0  0  0  0  0  0  0
   41.6300   23.7960   35.7180 C   0  0  0  0  0  0  0  0  0  0  0  0
   40.9110   22.8420   36.4240 C   0  0  0  0  0  0  0  0  0  0  0  0
   41.5490   21.6660   36.8420 C   0  0  0  0  0  0  0  0  0  0  0  0
   42.8520   21.5170   36.5300 N   0  0  0  0  0  0  0  0  0  0  0  0
   43.5520   22.4550   35.8370 C   0  0  0  0  0  0  0  0  0  0  0  0
   42.9290   23.6140   35.4250 N   0  0  0  0  0  0  0  0  0  0  0  0
   38.6570   24.5660   34.9500 C   0  0  0  0  0  0  0  0  0  0  0  0
   38.0680   23.4870   34.2950 C   0  0  0  0  0  0  0  0  0  0  0  0
   38.0020   24.1900   32.6220 S   0  0  0  0  0  0  0  0  0  0  0  0
   38.7780   25.8500   33.1000 C   0  0  0  0  0  0  0  0  0  0  0  0
   38.9620   25.6590   34.2990 N   0  0  0  0  0  0  0  0  0  0  0  0
   38.9820   26.9850   32.1490 C   0  0  0  0  0  0  0  0  0  0  0  0
   38.7400   26.5470   30.8350 F   0  0  0  0  0  0  0  0  0  0  0  0
   38.0060   27.9500   32.3540 F   0  0  0  0  0  0  0  0  0  0  0  0
   40.2290   27.4790   32.2560 F   0  0  0  0  0  0  0  0  0  0  0  0
   37.5830   22.1550   34.3470 C   0  0  0  0  0  0  0  0  0  0  0  0
   38.6570   21.2810   33.9970 F   0  0  0  0  0  0  0  0  0  0  0  0
   37.1540   21.5140   35.4720 F   0  0  0  0  0  0  0  0  0  0  0  0
   36.6310   21.7370   33.4350 F   0  0  0  0  0  0  0  0  0  0  0  0
   39.0482   22.3090   36.0981 H   0  0  0  0  0  0  0  0  0  0  0  0
   39.1237   21.9940   38.5656 H   0  0  0  0  0  0  0  0  0  0  0  0
   40.0147   23.4879   38.8277 H   0  0  0  0  0  0  0  0  0  0  0  0
   37.1085   23.0299   38.5764 H   0  0  0  0  0  0  0  0  0  0  0  0
   37.9583   24.4550   39.2259 H   0  0  0  0  0  0  0  0  0  0  0  0
   36.8251   24.0029   36.5635 H   0  0  0  0  0  0  0  0  0  0  0  0
   37.3540   25.5190   37.2809 H   0  0  0  0  0  0  0  0  0  0  0  0
   39.6940   25.1161   36.5901 H   0  0  0  0  0  0  0  0  0  0  0  0
   41.1274   24.7185   35.3920 H   0  0  0  0  0  0  0  0  0  0  0  0
   41.0059   20.8923   37.4045 H   0  0  0  0  0  0  0  0  0  0  0  0
   44.6145   22.2890   35.6054 H   0  0  0  0  0  0  0  0  0  0  0  0
  1  2  1  0
  2  3  1  0
  4  3  1  0
  5  1  1  0
  5  4  1  0
  6  7  2  0
  7  1  1  0
  7  8  1  0
  9  8  2  0
 10  9  1  0
 11  6  1  0
 11 10  2  0
 12  5  1  0
 13 21  1  0
 13 12  2  0
 14 15  1  0
 14 13  1  0
 15 16  2  0
 16 12  1  0
 17 20  1  0
 17 19  1  0
 17 15  1  0
 18 17  1  0
 21 23  1  0
 22 21  1  0
 24 21  1  0
  1 25  1  6
  2 26  1  0
  2 27  1  0
  3 28  1  0
  3 29  1  0
  4 30  1  0
  4 31  1  0
  5 32  1  1
  6 33  1  0
  8 34  1  0
 10 35  1  0
M  ISO  8  25  13  26  13  27  13  28  13  29  13  30  13  31  13  32  13
M  ISO  3  33  14  34  14  35  14
M  END
>  <minimizedAffinity>  (1) 
-5.15738869

>  <minimizedRMSD>  (1) 
2.09626603

$$$$
