
     RDKit          3D

 41 43  0  0  1  0  0  0  0  0999 V2000
   39.3660   22.9780   37.0220 C   0  0  1  0  0  0  0  0  0  0  0  0
   39.1890   23.2870   38.5170 C   0  0  0  0  0  0  0  0  0  0  0  0
   37.9350   24.1080   38.5890 C   0  0  0  0  0  0  0  0  0  0  0  0
   37.5380   24.4350   37.2040 C   0  0  0  0  0  0  0  0  0  0  0  0
   38.7930   24.1400   36.4090 C   0  0  2  0  0  0  0  0  0  0  0  0
   41.4930   23.4880   35.8950 C   0  0  0  0  0  0  0  0  0  0  0  0
   40.7630   22.6340   36.6960 C   0  0  0  0  0  0  0  0  0  0  0  0
   41.3390   21.4540   37.2020 C   0  0  0  0  0  0  0  0  0  0  0  0
   42.6160   21.2070   36.8680 N   0  0  0  0  0  0  0  0  0  0  0  0
   43.3400   22.0430   36.0770 C   0  0  0  0  0  0  0  0  0  0  0  0
   42.7690   23.2030   35.5840 N   0  0  0  0  0  0  0  0  0  0  0  0
   38.4170   24.0220   35.0200 C   0  0  0  0  0  0  0  0  0  0  0  0
   37.8480   22.8150   34.6800 C   0  0  0  0  0  0  0  0  0  0  0  0
   37.5920   23.0830   32.8910 S   0  0  0  0  0  0  0  0  0  0  0  0
   38.3140   24.8450   32.9290 C   0  0  0  0  0  0  0  0  0  0  0  0
   38.6060   24.9490   34.1210 N   0  0  0  0  0  0  0  0  0  0  0  0
   38.3940   25.7540   31.7350 C   0  0  0  0  0  0  0  0  0  0  0  0
   37.3010   25.4890   30.8860 F   0  0  0  0  0  0  0  0  0  0  0  0
   38.1980   27.0670   32.1290 F   0  0  0  0  0  0  0  0  0  0  0  0
   39.5510   25.5760   31.0670 F   0  0  0  0  0  0  0  0  0  0  0  0
   37.3050   21.5300   34.9620 C   0  0  0  0  0  0  0  0  0  0  0  0
   36.2400   21.5660   36.1110 C   0  0  0  0  0  0  0  0  0  0  0  0
   36.5320   21.0220   33.7660 C   0  0  0  0  0  0  0  0  0  0  0  0
   38.8645   22.0742   36.6458 H   0  0  0  0  0  0  0  0  0  0  0  0
   39.0782   22.3577   39.0950 H   0  0  0  0  0  0  0  0  0  0  0  0
   40.0572   23.8143   38.9392 H   0  0  0  0  0  0  0  0  0  0  0  0
   37.1375   23.5331   39.0824 H   0  0  0  0  0  0  0  0  0  0  0  0
   38.1060   25.0263   39.1700 H   0  0  0  0  0  0  0  0  0  0  0  0
   36.7023   23.8012   36.8725 H   0  0  0  0  0  0  0  0  0  0  0  0
   37.1857   25.4706   37.0879 H   0  0  0  0  0  0  0  0  0  0  0  0
   39.5660   24.9225   36.4196 H   0  0  0  0  0  0  0  0  0  0  0  0
   41.0280   24.4071   35.5089 H   0  0  0  0  0  0  0  0  0  0  0  0
   40.7688   20.7649   37.8424 H   0  0  0  0  0  0  0  0  0  0  0  0
   44.3828   21.7964   35.8282 H   0  0  0  0  0  0  0  0  0  0  0  0
   38.1663   20.9023   35.2344 H   0  0  0  0  0  0  0  0  0  0  0  0
   36.7508   21.5487   37.0851 H   0  0  0  0  0  0  0  0  0  0  0  0
   35.6412   22.4849   36.0272 H   0  0  0  0  0  0  0  0  0  0  0  0
   35.5805   20.6896   36.0272 H   0  0  0  0  0  0  0  0  0  0  0  0
   35.6590   20.4483   34.1104 H   0  0  0  0  0  0  0  0  0  0  0  0
   36.1941   21.8746   33.1587 H   0  0  0  0  0  0  0  0  0  0  0  0
   37.1806   20.3735   33.1587 H   0  0  0  0  0  0  0  0  0  0  0  0
  1  2  1  0
  2  3  1  0
  4  3  1  0
  5  1  1  0
  5  4  1  0
  6  7  2  0
  7  1  1  0
  7  8  1  0
  9  8  2  0
 10  9  1  0
 11  6  1  0
 11 10  2  0
 12  5  1  0
 13 21  1  0
 13 12  2  0
 14 15  1  0
 14 13  1  0
 15 16  2  0
 16 12  1  0
 17 19  1  0
 17 15  1  0
 18 17  1  0
 20 17  1  0
 21 22  1  0
 23 21  1  0
  1 24  1  6
  2 25  1  0
  2 26  1  0
  3 27  1  0
  3 28  1  0
  4 29  1  0
  4 30  1  0
  5 31  1  6
  6 32  1  0
  8 33  1  0
 10 34  1  0
 21 35  1  0
 22 36  1  0
 22 37  1  0
 22 38  1  0
 23 39  1  0
 23 40  1  0
 23 41  1  0
M  ISO  8  24  13  25  13  26  13  27  13  28  13  29  13  30  13  31  13
M  ISO  8  32  14  33  14  34  14  35   8  36   8  37   8  38   8  39   8
M  ISO  2  40   8  41   8
M  END
>  <minimizedAffinity>  (1) 
-5.02473783

>  <minimizedRMSD>  (1) 
1.20666814

$$$$
