
     RDKit          3D

 48 51  0  0  1  0  0  0  0  0999 V2000
   38.6610   23.6630   35.9580 C   0  0  1  0  0  0  0  0  0  0  0  0
   37.7820   23.2460   37.1440 C   0  0  0  0  0  0  0  0  0  0  0  0
   38.7160   23.2070   38.3170 C   0  0  0  0  0  0  0  0  0  0  0  0
   40.0840   23.4100   37.7950 C   0  0  0  0  0  0  0  0  0  0  0  0
   39.9330   23.1160   36.3160 C   0  0  2  0  0  0  0  0  0  0  0  0
   37.6570   21.9510   34.5010 C   0  0  0  0  0  0  0  0  0  0  0  0
   38.0650   23.2660   34.6640 C   0  0  0  0  0  0  0  0  0  0  0  0
   37.9090   24.1980   33.6300 C   0  0  0  0  0  0  0  0  0  0  0  0
   37.3550   23.7590   32.4890 N   0  0  0  0  0  0  0  0  0  0  0  0
   36.9530   22.4780   32.3150 C   0  0  0  0  0  0  0  0  0  0  0  0
   37.1080   21.5770   33.3260 N   0  0  0  0  0  0  0  0  0  0  0  0
   41.0840   23.6780   35.6400 C   0  0  0  0  0  0  0  0  0  0  0  0
   42.1810   22.8650   35.5730 C   0  0  0  0  0  0  0  0  0  0  0  0
   43.3430   23.9750   34.7100 S   0  0  0  0  0  0  0  0  0  0  0  0
   42.0870   25.3930   34.5810 C   0  0  0  0  0  0  0  0  0  0  0  0
   41.1050   24.8930   35.1380 N   0  0  0  0  0  0  0  0  0  0  0  0
   42.8530   21.6320   35.8190 C   0  0  0  0  0  0  0  0  0  0  0  0
   42.5360   20.7020   34.6710 C   0  0  0  0  0  0  0  0  0  0  0  0
   43.3570   19.4450   34.6900 C   0  0  0  0  0  0  0  0  0  0  0  0
   43.3120   18.7410   36.0220 C   0  0  0  0  0  0  0  0  0  0  0  0
   43.2450   19.6330   37.2080 C   0  0  0  0  0  0  0  0  0  0  0  0
   42.3420   20.8210   37.0460 C   0  0  0  0  0  0  0  0  0  0  0  0
   42.3590   26.7120   33.9120 C   0  0  0  0  0  0  0  0  0  0  0  0
   42.3650   26.5250   32.5160 F   0  0  0  0  0  0  0  0  0  0  0  0
   41.3000   27.5790   34.1300 F   0  0  0  0  0  0  0  0  0  0  0  0
   43.5400   27.2260   34.3120 F   0  0  0  0  0  0  0  0  0  0  0  0
   38.7625   24.7444   35.7839 H   0  0  0  0  0  0  0  0  0  0  0  0
   36.9812   23.9815   37.3104 H   0  0  0  0  0  0  0  0  0  0  0  0
   37.2871   22.2783   36.9745 H   0  0  0  0  0  0  0  0  0  0  0  0
   38.4615   24.0070   39.0278 H   0  0  0  0  0  0  0  0  0  0  0  0
   38.6389   22.2451   38.8451 H   0  0  0  0  0  0  0  0  0  0  0  0
   40.4204   24.4442   37.9600 H   0  0  0  0  0  0  0  0  0  0  0  0
   40.8344   22.7747   38.2883 H   0  0  0  0  0  0  0  0  0  0  0  0
   39.9276   22.0536   36.0309 H   0  0  0  0  0  0  0  0  0  0  0  0
   37.7789   21.2234   35.3170 H   0  0  0  0  0  0  0  0  0  0  0  0
   38.2268   25.2445   33.7480 H   0  0  0  0  0  0  0  0  0  0  0  0
   36.5029   22.1654   31.3612 H   0  0  0  0  0  0  0  0  0  0  0  0
   43.9053   21.9150   35.9694 H   0  0  0  0  0  0  0  0  0  0  0  0
   42.7289   21.2323   33.7268 H   0  0  0  0  0  0  0  0  0  0  0  0
   41.4807   20.4071   34.7684 H   0  0  0  0  0  0  0  0  0  0  0  0
   42.9729   18.7621   33.9179 H   0  0  0  0  0  0  0  0  0  0  0  0
   44.4026   19.7282   34.4990 H   0  0  0  0  0  0  0  0  0  0  0  0
   42.4239   18.0921   36.0339 H   0  0  0  0  0  0  0  0  0  0  0  0
   44.2604   18.1904   36.1079 H   0  0  0  0  0  0  0  0  0  0  0  0
   42.8839   19.0415   38.0622 H   0  0  0  0  0  0  0  0  0  0  0  0
   44.2598   20.0307   37.3568 H   0  0  0  0  0  0  0  0  0  0  0  0
   42.3773   21.4459   37.9506 H   0  0  0  0  0  0  0  0  0  0  0  0
   41.3014   20.4992   36.8921 H   0  0  0  0  0  0  0  0  0  0  0  0
  1  5  1  0
  1  2  1  0
  2  3  1  0
  4  3  1  0
  5  4  1  0
  6  7  2  0
  7  1  1  0
  8  7  1  0
  9  8  2  0
 10  9  1  0
 10 11  2  0
 11  6  1  0
 12  5  1  0
 13 12  2  0
 13 17  1  0
 14 13  1  0
 15 14  1  0
 15 16  2  0
 16 12  1  0
 17 22  1  0
 18 19  1  0
 18 17  1  0
 19 20  1  0
 20 21  1  0
 22 21  1  0
 23 25  1  0
 23 26  1  0
 23 15  1  0
 24 23  1  0
  1 27  1  6
  2 28  1  0
  2 29  1  0
  3 30  1  0
  3 31  1  0
  4 32  1  0
  4 33  1  0
  5 34  1  1
  6 35  1  0
  8 36  1  0
 10 37  1  0
 17 38  1  0
 18 39  1  0
 18 40  1  0
 19 41  1  0
 19 42  1  0
 20 43  1  0
 20 44  1  0
 21 45  1  0
 21 46  1  0
 22 47  1  0
 22 48  1  0
M  ISO  8  27  13  28  13  29  13  30  13  31  13  32  13  33  13  34  13
M  ISO  8  35  14  36  14  37  14  38  13  39  13  40  13  41  13  42  13
M  ISO  6  43  13  44  13  45  13  46  13  47  13  48  13
M  END
>  <minimizedAffinity>  (1) 
-4.91174603

>  <minimizedRMSD>  (1) 
5.29767752

$$$$
