
     RDKit          3D

 21 22  0  0  0  0  0  0  0  0999 V2000
   40.4560   22.3910   37.7100 C   0  0  0  0  0  0  0  0  0  0  0  0
   39.2860   23.1320   37.4370 C   0  0  0  0  0  0  0  0  0  0  0  0
   38.9670   23.3470   36.1130 C   0  0  0  0  0  0  0  0  0  0  0  0
   39.7710   22.8490   35.1290 N   0  0  0  0  0  0  0  0  0  0  0  0
   40.8900   22.1390   35.4350 C   0  0  0  0  0  0  0  0  0  0  0  0
   41.2090   21.9250   36.7140 N   0  0  0  0  0  0  0  0  0  0  0  0
   38.4100   23.6750   38.5030 C   0  0  0  0  0  0  0  0  0  0  0  0
   39.2090   23.8560   39.6240 F   0  0  0  0  0  0  0  0  0  0  0  0
   37.3870   22.8510   38.8340 F   0  0  0  0  0  0  0  0  0  0  0  0
   37.9900   24.9820   38.1730 F   0  0  0  0  0  0  0  0  0  0  0  0
   41.8870   21.5180   34.1000 S   0  0  0  0  0  0  0  0  0  0  0  0
   43.2840   22.5910   33.8150 C   0  0  0  0  0  0  0  0  0  0  0  0
   43.2120   23.9010   34.3660 C   0  0  0  0  0  0  0  0  0  0  0  0
   44.8580   24.6620   33.8250 S   0  0  0  0  0  0  0  0  0  0  0  0
   45.2880   23.0500   32.9730 C   0  0  0  0  0  0  0  0  0  0  0  0
   44.4000   22.4240   33.1800 N   0  0  0  0  0  0  0  0  0  0  0  0
   46.4940   22.5860   32.1760 O   0  0  0  0  0  0  0  0  0  0  0  0
   40.7484   22.1967   38.7525 H   0  0  0  0  0  0  0  0  0  0  0  0
   38.0652   23.9194   35.8500 H   0  0  0  0  0  0  0  0  0  0  0  0
   42.4037   24.3563   34.9571 H   0  0  0  0  0  0  0  0  0  0  0  0
   47.2561   23.2004   32.0286 H   0  0  0  0  0  0  0  0  0  0  0  0
  2  1  2  0
  2  7  1  0
  3  2  1  0
  4  5  1  0
  4  3  2  0
  5  6  2  0
  6  1  1  0
  7  9  1  0
  7  8  1  0
 10  7  1  0
 11  5  1  0
 12 11  1  0
 12 13  2  0
 14 13  1  0
 15 16  2  0
 15 14  1  0
 16 12  1  0
 17 15  1  0
  1 18  1  0
  3 19  1  0
 13 20  1  0
 17 21  1  0
M  ISO  4  18  14  19  14  20  14  21   3
M  END
>  <minimizedAffinity>  (1) 
-3.78595591

>  <minimizedRMSD>  (1) 
0.0390186571

$$$$
