
     RDKit          3D

 42 45  0  0  1  0  0  0  0  0999 V2000
   38.9760   24.9520   36.4380 C   0  0  1  0  0  0  0  0  0  0  0  0
   38.0540   24.3430   37.5070 C   0  0  0  0  0  0  0  0  0  0  0  0
   38.7280   23.0850   37.9370 C   0  0  0  0  0  0  0  0  0  0  0  0
   39.9010   22.8930   37.0410 C   0  0  0  0  0  0  0  0  0  0  0  0
   39.5520   23.7770   35.8430 C   0  0  2  0  0  0  0  0  0  0  0  0
   37.6550   25.3890   34.4070 C   0  0  0  0  0  0  0  0  0  0  0  0
   38.2560   25.8960   35.5730 C   0  0  0  0  0  0  0  0  0  0  0  0
   38.1610   27.2540   35.9090 C   0  0  0  0  0  0  0  0  0  0  0  0
   37.4640   28.0390   35.0510 N   0  0  0  0  0  0  0  0  0  0  0  0
   36.8730   27.5520   33.9100 C   0  0  0  0  0  0  0  0  0  0  0  0
   36.9750   26.2190   33.5930 N   0  0  0  0  0  0  0  0  0  0  0  0
   40.7720   24.0000   35.0970 C   0  0  0  0  0  0  0  0  0  0  0  0
   40.7690   23.6080   33.7940 C   0  0  0  0  0  0  0  0  0  0  0  0
   42.4420   24.0620   33.2620 S   0  0  0  0  0  0  0  0  0  0  0  0
   42.8900   24.7500   34.9980 C   0  0  0  0  0  0  0  0  0  0  0  0
   41.8370   24.5490   35.6180 N   0  0  0  0  0  0  0  0  0  0  0  0
   40.1040   23.0380   32.7290 N   0  0  0  0  0  0  0  0  0  0  0  0
   39.4040   23.6170   31.7250 C   0  0  0  0  0  0  0  0  0  0  0  0
   38.7800   22.9590   30.6900 C   0  0  0  0  0  0  0  0  0  0  0  0
   38.9050   21.5870   30.7220 C   0  0  0  0  0  0  0  0  0  0  0  0
   38.3640   20.9090   29.8130 O   0  0  0  0  0  0  0  0  0  0  0  0
   39.5790   20.9230   31.6760 N   0  0  0  0  0  0  0  0  0  0  0  0
   40.1550   21.6590   32.6450 C   0  0  0  0  0  0  0  0  0  0  0  0
   40.7880   20.9960   33.5370 O   0  0  0  0  0  0  0  0  0  0  0  0
   44.2190   25.3560   35.3730 C   0  0  0  0  0  0  0  0  0  0  0  0
   44.2970   26.6480   34.8160 F   0  0  0  0  0  0  0  0  0  0  0  0
   44.2870   25.5600   36.7210 F   0  0  0  0  0  0  0  0  0  0  0  0
   45.2500   24.6250   34.8890 F   0  0  0  0  0  0  0  0  0  0  0  0
   39.7772   25.6156   36.7954 H   0  0  0  0  0  0  0  0  0  0  0  0
   37.9435   25.0312   38.3580 H   0  0  0  0  0  0  0  0  0  0  0  0
   37.0429   24.1541   37.1172 H   0  0  0  0  0  0  0  0  0  0  0  0
   39.0608   23.1726   38.9818 H   0  0  0  0  0  0  0  0  0  0  0  0
   38.0402   22.2289   37.8730 H   0  0  0  0  0  0  0  0  0  0  0  0
   40.8300   23.2286   37.5252 H   0  0  0  0  0  0  0  0  0  0  0  0
   40.0795   21.8414   36.7722 H   0  0  0  0  0  0  0  0  0  0  0  0
   38.8388   23.3585   35.1176 H   0  0  0  0  0  0  0  0  0  0  0  0
   37.7399   24.3202   34.1611 H   0  0  0  0  0  0  0  0  0  0  0  0
   38.6266   27.6603   36.8190 H   0  0  0  0  0  0  0  0  0  0  0  0
   36.3163   28.2317   33.2481 H   0  0  0  0  0  0  0  0  0  0  0  0
   39.3270   24.7142   31.7379 H   0  0  0  0  0  0  0  0  0  0  0  0
   38.2254   23.4863   29.8998 H   0  0  0  0  0  0  0  0  0  0  0  0
   39.6518   19.8956   31.6664 H   0  0  0  0  0  0  0  0  0  0  0  0
  1  2  1  0
  2  3  1  0
  4  3  1  0
  5  1  1  0
  5  4  1  0
  6  7  2  0
  7  8  1  0
  7  1  1  0
  9  8  2  0
 10  9  1  0
 11 10  2  0
 11  6  1  0
 12 16  1  0
 12  5  1  0
 13 12  2  0
 14 13  1  0
 14 15  1  0
 15 25  1  0
 15 16  2  0
 17 13  1  0
 18 17  1  0
 19 20  1  0
 19 18  2  0
 20 22  1  0
 21 20  2  0
 22 23  1  0
 23 17  1  0
 23 24  2  0
 25 27  1  0
 26 25  1  0
 28 25  1  0
  1 29  1  1
  2 30  1  0
  2 31  1  0
  3 32  1  0
  3 33  1  0
  4 34  1  0
  4 35  1  0
  5 36  1  6
  6 37  1  0
  8 38  1  0
 10 39  1  0
 18 40  1  0
 19 41  1  0
 22 42  1  0
M  ISO  8  29  13  30  13  31  13  32  13  33  13  34  13  35  13  36  13
M  ISO  6  37  14  38  14  39  14  40  14  41  14  42   9
M  END
>  <minimizedAffinity>  (1) 
-4.75356531

>  <minimizedRMSD>  (1) 
6.02465582

$$$$
