
     RDKit          3D

 32 35  0  0  0  0  0  0  0  0999 V2000
   37.7200   25.1260   34.4210 C   0  0  0  0  0  0  0  0  0  0  0  0
   38.1980   25.4750   35.7000 C   0  0  0  0  0  0  0  0  0  0  0  0
   38.1850   26.8090   36.0630 C   0  0  0  0  0  0  0  0  0  0  0  0
   37.7220   27.7400   35.2030 N   0  0  0  0  0  0  0  0  0  0  0  0
   37.2630   27.3820   33.9700 C   0  0  0  0  0  0  0  0  0  0  0  0
   37.2680   26.1020   33.5990 N   0  0  0  0  0  0  0  0  0  0  0  0
   36.7570   28.2880   32.9970 N   0  0  0  0  0  0  0  0  0  0  0  0
   37.2340   28.2380   31.7400 C   0  0  0  0  0  0  0  0  0  0  0  0
   36.7340   29.1220   30.8080 C   0  0  0  0  0  0  0  0  0  0  0  0
   35.7600   30.0190   31.2400 C   0  0  0  0  0  0  0  0  0  0  0  0
   35.1360   30.9990   30.4150 N   0  0  0  0  0  0  0  0  0  0  0  0
   35.3140   30.0340   32.5080 N   0  0  0  0  0  0  0  0  0  0  0  0
   35.8160   29.1550   33.4160 C   0  0  0  0  0  0  0  0  0  0  0  0
   35.4110   29.1490   34.6190 O   0  0  0  0  0  0  0  0  0  0  0  0
   38.6730   24.4750   36.5690 N   0  0  0  0  0  0  0  0  0  0  0  0
   38.1510   24.1500   37.7610 C   0  0  0  0  0  0  0  0  0  0  0  0
   38.8270   23.1560   38.3500 N   0  0  0  0  0  0  0  0  0  0  0  0
   39.8160   22.8300   37.5080 C   0  0  0  0  0  0  0  0  0  0  0  0
   40.8320   21.9070   37.5300 C   0  0  0  0  0  0  0  0  0  0  0  0
   41.7430   21.7470   36.5460 N   0  0  0  0  0  0  0  0  0  0  0  0
   41.5970   22.5850   35.4770 C   0  0  0  0  0  0  0  0  0  0  0  0
   40.6150   23.4810   35.4500 N   0  0  0  0  0  0  0  0  0  0  0  0
   39.7140   23.6580   36.3960 C   0  0  0  0  0  0  0  0  0  0  0  0
   37.7143   24.0754   34.0952 H   0  0  0  0  0  0  0  0  0  0  0  0
   38.5527   27.1119   37.0545 H   0  0  0  0  0  0  0  0  0  0  0  0
   38.0071   27.5067   31.4617 H   0  0  0  0  0  0  0  0  0  0  0  0
   37.0893   29.1191   29.7670 H   0  0  0  0  0  0  0  0  0  0  0  0
   34.4222   31.6270   30.8113 H   0  0  0  0  0  0  0  0  0  0  0  0
   35.3987   31.0794   29.4223 H   0  0  0  0  0  0  0  0  0  0  0  0
   37.2716   24.6419   38.2023 H   0  0  0  0  0  0  0  0  0  0  0  0
   40.9094   21.2522   38.4104 H   0  0  0  0  0  0  0  0  0  0  0  0
   42.2976   22.5179   34.6316 H   0  0  0  0  0  0  0  0  0  0  0  0
  1  2  2  0
  2  3  1  0
  2 15  1  0
  4  3  2  0
  5  4  1  0
  6  5  2  0
  6  1  1  0
  7 13  1  0
  7  5  1  0
  8  7  1  0
  9 10  1  0
  9  8  2  0
 10 12  2  0
 11 10  1  0
 12 13  1  0
 13 14  2  0
 15 16  1  0
 16 17  2  0
 18 19  2  0
 18 17  1  0
 20 19  1  0
 21 20  2  0
 22 21  1  0
 22 23  2  0
 23 15  1  0
 23 18  1  0
  1 24  1  0
  3 25  1  0
  8 26  1  0
  9 27  1  0
 11 28  1  0
 11 29  1  0
 16 30  1  0
 19 31  1  0
 21 32  1  0
M  ISO  7  24  14  25  14  26  14  27  14  30  14  31  14  32  14
M  END
>  <minimizedAffinity>  (1) 
-6.21251631

>  <minimizedRMSD>  (1) 
0.153144047

$$$$
