
     RDKit          3D

 36 39  0  0  0  0  0  0  0  0999 V2000
   37.7420   24.7360   34.1540 C   0  0  0  0  0  0  0  0  0  0  0  0
   38.0840   25.2020   35.4230 C   0  0  0  0  0  0  0  0  0  0  0  0
   37.8870   26.5390   35.7190 C   0  0  0  0  0  0  0  0  0  0  0  0
   37.3700   27.3590   34.7750 N   0  0  0  0  0  0  0  0  0  0  0  0
   37.0390   26.8880   33.5320 C   0  0  0  0  0  0  0  0  0  0  0  0
   37.2270   25.5890   33.2340 N   0  0  0  0  0  0  0  0  0  0  0  0
   36.4920   27.7690   32.5420 N   0  0  0  0  0  0  0  0  0  0  0  0
   35.9860   29.0710   32.9340 C   0  0  0  0  0  0  0  0  0  0  0  0
   35.3760   29.7270   31.7120 C   0  0  0  0  0  0  0  0  0  0  0  0
   36.4370   29.7700   30.6150 C   0  0  0  0  0  0  0  0  0  0  0  0
   36.8630   28.4070   30.1820 C   0  0  0  0  0  0  0  0  0  0  0  0
   36.4620   27.3260   31.1600 C   0  0  0  0  0  0  0  0  0  0  0  0
   38.6150   24.3220   36.3680 N   0  0  0  0  0  0  0  0  0  0  0  0
   38.1430   24.1030   37.6060 C   0  0  0  0  0  0  0  0  0  0  0  0
   38.8740   23.1940   38.2780 N   0  0  0  0  0  0  0  0  0  0  0  0
   39.8460   22.8170   37.4440 C   0  0  0  0  0  0  0  0  0  0  0  0
   40.9050   21.9300   37.5250 C   0  0  0  0  0  0  0  0  0  0  0  0
   41.7780   21.7090   36.5340 N   0  0  0  0  0  0  0  0  0  0  0  0
   41.5830   22.4170   35.3890 C   0  0  0  0  0  0  0  0  0  0  0  0
   40.5670   23.2650   35.3190 N   0  0  0  0  0  0  0  0  0  0  0  0
   39.6770   23.5250   36.2570 C   0  0  0  0  0  0  0  0  0  0  0  0
   37.8900   23.6762   33.8991 H   0  0  0  0  0  0  0  0  0  0  0  0
   38.1483   26.9318   36.7127 H   0  0  0  0  0  0  0  0  0  0  0  0
   35.2206   28.9537   33.7153 H   0  0  0  0  0  0  0  0  0  0  0  0
   36.8015   29.6923   33.3327 H   0  0  0  0  0  0  0  0  0  0  0  0
   34.5092   29.1429   31.3692 H   0  0  0  0  0  0  0  0  0  0  0  0
   35.0391   30.7455   31.9554 H   0  0  0  0  0  0  0  0  0  0  0  0
   36.0252   30.3041   29.7460 H   0  0  0  0  0  0  0  0  0  0  0  0
   37.3202   30.2838   31.0225 H   0  0  0  0  0  0  0  0  0  0  0  0
   36.4010   28.1879   29.2081 H   0  0  0  0  0  0  0  0  0  0  0  0
   37.9614   28.4079   30.1236 H   0  0  0  0  0  0  0  0  0  0  0  0
   35.4399   26.9980   30.9196 H   0  0  0  0  0  0  0  0  0  0  0  0
   37.1908   26.5080   31.0618 H   0  0  0  0  0  0  0  0  0  0  0  0
   37.2598   24.6087   38.0234 H   0  0  0  0  0  0  0  0  0  0  0  0
   41.0381   21.3710   38.4630 H   0  0  0  0  0  0  0  0  0  0  0  0
   42.2602   22.2873   34.5319 H   0  0  0  0  0  0  0  0  0  0  0  0
  1  2  2  0
  2  3  1  0
  2 13  1  0
  4  3  2  0
  5  4  1  0
  6  5  2  0
  6  1  1  0
  7  8  1  0
  7  5  1  0
  9  8  1  0
 10  9  1  0
 11 10  1  0
 11 12  1  0
 12  7  1  0
 13 14  1  0
 14 15  2  0
 16 17  2  0
 16 15  1  0
 18 17  1  0
 19 18  2  0
 20 19  1  0
 20 21  2  0
 21 13  1  0
 21 16  1  0
  1 22  1  0
  3 23  1  0
  8 24  1  0
  8 25  1  0
  9 26  1  0
  9 27  1  0
 10 28  1  0
 10 29  1  0
 11 30  1  0
 11 31  1  0
 12 32  1  0
 12 33  1  0
 14 34  1  0
 17 35  1  0
 19 36  1  0
M  ISO  8  22  14  23  14  24  13  25  13  26  13  27  13  28  13  29  13
M  ISO  7  30  13  31  13  32  13  33  13  34  14  35  14  36  14
M  END
>  <minimizedAffinity>  (1) 
-5.70790768

>  <minimizedRMSD>  (1) 
0.731477797

$$$$
