
     RDKit          3D

 35 38  0  0  0  0  0  0  0  0999 V2000
   37.8810   24.7800   34.0720 C   0  0  0  0  0  0  0  0  0  0  0  0
   38.9050   25.0800   34.9780 C   0  0  0  0  0  0  0  0  0  0  0  0
   39.5850   26.2700   34.8080 C   0  0  0  0  0  0  0  0  0  0  0  0
   39.2480   27.1020   33.7830 N   0  0  0  0  0  0  0  0  0  0  0  0
   38.2550   26.7840   32.9250 C   0  0  0  0  0  0  0  0  0  0  0  0
   37.5740   25.6270   33.0700 N   0  0  0  0  0  0  0  0  0  0  0  0
   37.9390   27.6850   31.8690 N   0  0  0  0  0  0  0  0  0  0  0  0
   36.7540   28.4890   31.9630 C   0  0  0  0  0  0  0  0  0  0  0  0
   36.2720   29.0620   30.6740 C   0  0  0  0  0  0  0  0  0  0  0  0
   36.6950   28.2060   29.5930 N   0  0  0  0  0  0  0  0  0  0  0  0
   38.1560   28.3560   29.5170 C   0  0  0  0  0  0  0  0  0  0  0  0
   38.8320   27.7710   30.7180 C   0  0  0  0  0  0  0  0  0  0  0  0
   39.2120   24.1950   36.0110 N   0  0  0  0  0  0  0  0  0  0  0  0
   38.5020   24.0500   37.1550 C   0  0  0  0  0  0  0  0  0  0  0  0
   39.0500   23.1180   37.9550 N   0  0  0  0  0  0  0  0  0  0  0  0
   40.1340   22.6590   37.3080 C   0  0  0  0  0  0  0  0  0  0  0  0
   41.0990   21.7160   37.5940 C   0  0  0  0  0  0  0  0  0  0  0  0
   42.1180   21.4080   36.7850 N   0  0  0  0  0  0  0  0  0  0  0  0
   42.1650   22.0970   35.6130 C   0  0  0  0  0  0  0  0  0  0  0  0
   41.2360   23.0080   35.3360 N   0  0  0  0  0  0  0  0  0  0  0  0
   40.2210   23.3380   36.1030 C   0  0  0  0  0  0  0  0  0  0  0  0
   37.3194   23.8403   34.1794 H   0  0  0  0  0  0  0  0  0  0  0  0
   40.3962   26.5453   35.4980 H   0  0  0  0  0  0  0  0  0  0  0  0
   35.9505   27.8635   32.3790 H   0  0  0  0  0  0  0  0  0  0  0  0
   37.0169   29.3470   32.5992 H   0  0  0  0  0  0  0  0  0  0  0  0
   35.1739   29.1255   30.6862 H   0  0  0  0  0  0  0  0  0  0  0  0
   36.6901   30.0700   30.5356 H   0  0  0  0  0  0  0  0  0  0  0  0
   36.4441   27.2268   29.7907 H   0  0  0  0  0  0  0  0  0  0  0  0
   38.5215   27.8421   28.6157 H   0  0  0  0  0  0  0  0  0  0  0  0
   38.3906   29.4300   29.4784 H   0  0  0  0  0  0  0  0  0  0  0  0
   39.1850   26.7597   30.4677 H   0  0  0  0  0  0  0  0  0  0  0  0
   39.6680   28.4325   30.9893 H   0  0  0  0  0  0  0  0  0  0  0  0
   37.5939   24.6210   37.3986 H   0  0  0  0  0  0  0  0  0  0  0  0
   41.0253   21.1812   38.5524 H   0  0  0  0  0  0  0  0  0  0  0  0
   42.9729   21.9004   34.8928 H   0  0  0  0  0  0  0  0  0  0  0  0
  1  2  2  0
  2 13  1  0
  3  2  1  0
  4  3  2  0
  5  6  2  0
  5  4  1  0
  6  1  1  0
  7  8  1  0
  7  5  1  0
  9  8  1  0
 10  9  1  0
 11 10  1  0
 11 12  1  0
 12  7  1  0
 13 21  1  0
 13 14  1  0
 14 15  2  0
 16 17  2  0
 16 15  1  0
 18 17  1  0
 19 18  2  0
 20 19  1  0
 20 21  2  0
 21 16  1  0
  1 22  1  0
  3 23  1  0
  8 24  1  0
  8 25  1  0
  9 26  1  0
  9 27  1  0
 10 28  1  0
 11 29  1  0
 11 30  1  0
 12 31  1  0
 12 32  1  0
 14 33  1  0
 17 34  1  0
 19 35  1  0
M  ISO  8  22  14  23  14  24  13  25  13  26  13  27  13  28   5  29  13
M  ISO  6  30  13  31  13  32  13  33  14  34  14  35  14
M  END
>  <minimizedAffinity>  (1) 
-5.46388674

>  <minimizedRMSD>  (1) 
1.49701691

$$$$
