
     RDKit          3D

 28 31  0  0  0  0  0  0  0  0999 V2000
   37.6620   24.9710   34.3050 C   0  0  0  0  0  0  0  0  0  0  0  0
   38.1060   25.3770   35.5600 C   0  0  0  0  0  0  0  0  0  0  0  0
   38.0290   26.7220   35.8900 C   0  0  0  0  0  0  0  0  0  0  0  0
   37.5220   27.5840   34.9620 N   0  0  0  0  0  0  0  0  0  0  0  0
   37.0990   27.1610   33.7500 C   0  0  0  0  0  0  0  0  0  0  0  0
   37.1670   25.8660   33.4210 N   0  0  0  0  0  0  0  0  0  0  0  0
   36.6210   28.2590   32.9880 N   0  0  0  0  0  0  0  0  0  0  0  0
   35.8730   29.3140   33.2020 N   0  0  0  0  0  0  0  0  0  0  0  0
   35.7590   30.0360   32.0490 C   0  0  0  0  0  0  0  0  0  0  0  0
   36.4930   29.3750   31.0570 C   0  0  0  0  0  0  0  0  0  0  0  0
   37.0280   28.2490   31.6900 C   0  0  0  0  0  0  0  0  0  0  0  0
   38.6180   24.4360   36.4710 N   0  0  0  0  0  0  0  0  0  0  0  0
   38.1130   24.1790   37.6980 C   0  0  0  0  0  0  0  0  0  0  0  0
   38.8240   23.2250   38.3300 N   0  0  0  0  0  0  0  0  0  0  0  0
   39.8110   22.8640   37.4810 C   0  0  0  0  0  0  0  0  0  0  0  0
   40.8340   21.9620   37.5480 C   0  0  0  0  0  0  0  0  0  0  0  0
   41.7260   21.7660   36.5490 N   0  0  0  0  0  0  0  0  0  0  0  0
   41.5520   22.5320   35.4380 C   0  0  0  0  0  0  0  0  0  0  0  0
   40.5500   23.4090   35.3840 N   0  0  0  0  0  0  0  0  0  0  0  0
   39.6560   23.6270   36.3470 C   0  0  0  0  0  0  0  0  0  0  0  0
   37.7146   23.9076   34.0287 H   0  0  0  0  0  0  0  0  0  0  0  0
   38.3672   27.0835   36.8723 H   0  0  0  0  0  0  0  0  0  0  0  0
   35.1919   30.9700   31.9221 H   0  0  0  0  0  0  0  0  0  0  0  0
   36.6211   29.6763   30.0068 H   0  0  0  0  0  0  0  0  0  0  0  0
   37.6672   27.4871   31.2199 H   0  0  0  0  0  0  0  0  0  0  0  0
   37.2343   24.6839   38.1257 H   0  0  0  0  0  0  0  0  0  0  0  0
   40.9389   21.3619   38.4639 H   0  0  0  0  0  0  0  0  0  0  0  0
   42.2382   22.4274   34.5846 H   0  0  0  0  0  0  0  0  0  0  0  0
  1  2  2  0
  2  3  1  0
  2 12  1  0
  4  3  2  0
  5  4  1  0
  6  5  2  0
  6  1  1  0
  7  8  1  0
  7  5  1  0
  9  8  2  0
 10 11  2  0
 10  9  1  0
 11  7  1  0
 12 13  1  0
 13 14  2  0
 15 16  2  0
 15 14  1  0
 17 16  1  0
 18 17  2  0
 19 18  1  0
 19 20  2  0
 20 12  1  0
 20 15  1  0
  1 21  1  0
  3 22  1  0
  9 23  1  0
 10 24  1  0
 11 25  1  0
 13 26  1  0
 16 27  1  0
 18 28  1  0
M  ISO  8  21  14  22  14  23  14  24  14  25  14  26  14  27  14  28  14
M  END
>  <minimizedAffinity>  (1) 
-5.34396791

>  <minimizedRMSD>  (1) 
0.40404284

$$$$
