
     RDKit          3D

 29 32  0  0  0  0  0  0  0  0999 V2000
   37.6550   24.9690   34.2940 C   0  0  0  0  0  0  0  0  0  0  0  0
   38.0860   25.3800   35.5600 C   0  0  0  0  0  0  0  0  0  0  0  0
   38.0100   26.7340   35.8660 C   0  0  0  0  0  0  0  0  0  0  0  0
   37.5210   27.6000   34.9260 N   0  0  0  0  0  0  0  0  0  0  0  0
   37.1150   27.1610   33.7150 C   0  0  0  0  0  0  0  0  0  0  0  0
   37.1780   25.8700   33.3980 N   0  0  0  0  0  0  0  0  0  0  0  0
   38.5760   24.4530   36.4820 N   0  0  0  0  0  0  0  0  0  0  0  0
   38.0790   24.1940   37.6940 C   0  0  0  0  0  0  0  0  0  0  0  0
   38.7810   23.2460   38.3320 N   0  0  0  0  0  0  0  0  0  0  0  0
   39.7740   22.8830   37.4920 C   0  0  0  0  0  0  0  0  0  0  0  0
   40.8030   21.9770   37.5680 C   0  0  0  0  0  0  0  0  0  0  0  0
   41.7000   21.7750   36.5820 N   0  0  0  0  0  0  0  0  0  0  0  0
   41.5310   22.5400   35.4680 C   0  0  0  0  0  0  0  0  0  0  0  0
   40.5280   23.4170   35.4060 N   0  0  0  0  0  0  0  0  0  0  0  0
   39.6320   23.6410   36.3480 C   0  0  0  0  0  0  0  0  0  0  0  0
   36.6020   28.1260   32.7480 C   0  0  0  0  0  0  0  0  0  0  0  0
   37.1940   28.2460   31.5080 C   0  0  0  0  0  0  0  0  0  0  0  0
   36.6970   29.1740   30.5860 C   0  0  0  0  0  0  0  0  0  0  0  0
   35.6400   29.9560   30.9030 N   0  0  0  0  0  0  0  0  0  0  0  0
   35.0850   29.8140   32.1190 C   0  0  0  0  0  0  0  0  0  0  0  0
   35.5530   28.9170   33.0320 N   0  0  0  0  0  0  0  0  0  0  0  0
   37.7032   23.9043   34.0219 H   0  0  0  0  0  0  0  0  0  0  0  0
   38.3379   27.1036   36.8488 H   0  0  0  0  0  0  0  0  0  0  0  0
   37.1984   24.6983   38.1187 H   0  0  0  0  0  0  0  0  0  0  0  0
   40.9012   21.3810   38.4873 H   0  0  0  0  0  0  0  0  0  0  0  0
   42.2222   22.4345   34.6188 H   0  0  0  0  0  0  0  0  0  0  0  0
   38.0547   27.6138   31.2445 H   0  0  0  0  0  0  0  0  0  0  0  0
   37.1691   29.2681   29.5969 H   0  0  0  0  0  0  0  0  0  0  0  0
   34.2234   30.4435   32.3863 H   0  0  0  0  0  0  0  0  0  0  0  0
  1  2  2  0
  2  3  1  0
  2  7  1  0
  4  3  2  0
  5  4  1  0
  6  5  2  0
  6  1  1  0
  7  8  1  0
  8  9  2  0
 10 11  2  0
 10  9  1  0
 12 11  1  0
 13 12  2  0
 14 13  1  0
 14 15  2  0
 15  7  1  0
 15 10  1  0
 16 21  1  0
 16  5  1  0
 17 16  2  0
 18 19  2  0
 18 17  1  0
 19 20  1  0
 20 21  2  0
  1 22  1  0
  3 23  1  0
  8 24  1  0
 11 25  1  0
 13 26  1  0
 17 27  1  0
 18 28  1  0
 20 29  1  0
M  ISO  8  22  14  23  14  24  14  25  14  26  14  27  14  28  14  29  14
M  END
>  <minimizedAffinity>  (1) 
-5.33973932

>  <minimizedRMSD>  (1) 
0.592211425

$$$$
