
     RDKit          3D

 28 31  0  0  0  0  0  0  0  0999 V2000
   37.7680   24.8710   33.7900 C   0  0  0  0  0  0  0  0  0  0  0  0
   37.9120   25.3340   35.0950 C   0  0  0  0  0  0  0  0  0  0  0  0
   37.6630   26.6770   35.3490 C   0  0  0  0  0  0  0  0  0  0  0  0
   37.2900   27.4880   34.3330 N   0  0  0  0  0  0  0  0  0  0  0  0
   37.1580   26.9970   33.0630 C   0  0  0  0  0  0  0  0  0  0  0  0
   37.3920   25.7150   32.8010 N   0  0  0  0  0  0  0  0  0  0  0  0
   38.3030   24.4600   36.1250 N   0  0  0  0  0  0  0  0  0  0  0  0
   37.5770   24.1130   37.1930 C   0  0  0  0  0  0  0  0  0  0  0  0
   38.2380   23.2610   37.9890 N   0  0  0  0  0  0  0  0  0  0  0  0
   39.4410   23.0500   37.4080 C   0  0  0  0  0  0  0  0  0  0  0  0
   40.5450   22.2940   37.7270 C   0  0  0  0  0  0  0  0  0  0  0  0
   41.6580   22.2350   36.9830 N   0  0  0  0  0  0  0  0  0  0  0  0
   41.6450   22.9890   35.8500 C   0  0  0  0  0  0  0  0  0  0  0  0
   40.5740   23.7220   35.5430 N   0  0  0  0  0  0  0  0  0  0  0  0
   39.4640   23.8040   36.2480 C   0  0  0  0  0  0  0  0  0  0  0  0
   36.7500   27.9700   32.0530 C   0  0  0  0  0  0  0  0  0  0  0  0
   36.2260   29.2450   32.1190 C   0  0  0  0  0  0  0  0  0  0  0  0
   36.0580   29.6280   30.7890 C   0  0  0  0  0  0  0  0  0  0  0  0
   36.4650   28.6200   29.9720 N   0  0  0  0  0  0  0  0  0  0  0  0
   36.8860   27.6100   30.7490 N   0  0  0  0  0  0  0  0  0  0  0  0
   37.9610   23.8125   33.5612 H   0  0  0  0  0  0  0  0  0  0  0  0
   37.7684   27.0774   36.3681 H   0  0  0  0  0  0  0  0  0  0  0  0
   36.5604   24.4821   37.3939 H   0  0  0  0  0  0  0  0  0  0  0  0
   40.5121   21.6998   38.6521 H   0  0  0  0  0  0  0  0  0  0  0  0
   42.5212   22.9938   35.1850 H   0  0  0  0  0  0  0  0  0  0  0  0
   35.9926   29.8296   33.0211 H   0  0  0  0  0  0  0  0  0  0  0  0
   35.6581   30.5959   30.4526 H   0  0  0  0  0  0  0  0  0  0  0  0
   36.4524   28.6299   28.9421 H   0  0  0  0  0  0  0  0  0  0  0  0
  1  2  2  0
  2  3  1  0
  2  7  1  0
  4  3  2  0
  5  4  1  0
  6  5  2  0
  6  1  1  0
  7 15  1  0
  7  8  1  0
  8  9  2  0
 10 11  2  0
 10  9  1  0
 12 11  1  0
 13 12  2  0
 14 13  1  0
 14 15  2  0
 15 10  1  0
 16 17  1  0
 16  5  1  0
 18 17  2  0
 19 20  1  0
 19 18  1  0
 20 16  2  0
  1 21  1  0
  3 22  1  0
  8 23  1  0
 11 24  1  0
 13 25  1  0
 17 26  1  0
 18 27  1  0
 19 28  1  0
M  ISO  8  21  14  22  14  23  14  24  14  25  14  26  14  27  14  28   9
M  END
>  <minimizedAffinity>  (1) 
-5.2862339

>  <minimizedRMSD>  (1) 
1.12667251

$$$$
