
     RDKit          3D

 28 31  0  0  0  0  0  0  0  0999 V2000
   37.6570   24.9580   34.2800 C   0  0  0  0  0  0  0  0  0  0  0  0
   38.0830   25.3880   35.5500 C   0  0  0  0  0  0  0  0  0  0  0  0
   38.0100   26.7460   35.8420 C   0  0  0  0  0  0  0  0  0  0  0  0
   37.5370   27.6090   34.9060 N   0  0  0  0  0  0  0  0  0  0  0  0
   37.1320   27.1490   33.6790 C   0  0  0  0  0  0  0  0  0  0  0  0
   37.1930   25.8540   33.3770 N   0  0  0  0  0  0  0  0  0  0  0  0
   38.5630   24.4700   36.4890 N   0  0  0  0  0  0  0  0  0  0  0  0
   38.0750   24.2530   37.7110 C   0  0  0  0  0  0  0  0  0  0  0  0
   38.7700   23.2990   38.3580 N   0  0  0  0  0  0  0  0  0  0  0  0
   39.7320   22.8920   37.5260 C   0  0  0  0  0  0  0  0  0  0  0  0
   40.7380   21.9640   37.6050 C   0  0  0  0  0  0  0  0  0  0  0  0
   41.6170   21.7160   36.6130 N   0  0  0  0  0  0  0  0  0  0  0  0
   41.4540   22.4540   35.4870 C   0  0  0  0  0  0  0  0  0  0  0  0
   40.4780   23.3550   35.4070 N   0  0  0  0  0  0  0  0  0  0  0  0
   39.5970   23.6250   36.3650 C   0  0  0  0  0  0  0  0  0  0  0  0
   36.6370   28.1520   32.7310 C   0  0  0  0  0  0  0  0  0  0  0  0
   37.0910   28.4420   31.5000 C   0  0  0  0  0  0  0  0  0  0  0  0
   36.4930   29.4220   30.7540 C   0  0  0  0  0  0  0  0  0  0  0  0
   35.3750   30.0770   31.4070 C   0  0  0  0  0  0  0  0  0  0  0  0
   35.2740   29.2330   33.0360 S   0  0  0  0  0  0  0  0  0  0  0  0
   37.7010   23.8902   34.0197 H   0  0  0  0  0  0  0  0  0  0  0  0
   38.3334   27.1187   36.8251 H   0  0  0  0  0  0  0  0  0  0  0  0
   37.2126   24.7868   38.1368 H   0  0  0  0  0  0  0  0  0  0  0  0
   40.8341   21.3856   38.5357 H   0  0  0  0  0  0  0  0  0  0  0  0
   42.1330   22.3069   34.6342 H   0  0  0  0  0  0  0  0  0  0  0  0
   37.9483   27.8887   31.0891 H   0  0  0  0  0  0  0  0  0  0  0  0
   36.8322   29.6907   29.7427 H   0  0  0  0  0  0  0  0  0  0  0  0
   34.7391   30.8864   31.0191 H   0  0  0  0  0  0  0  0  0  0  0  0
  1  2  2  0
  2  3  1  0
  2  7  1  0
  4  3  2  0
  5  4  1  0
  6  5  2  0
  6  1  1  0
  7  8  1  0
  8  9  2  0
 10 11  2  0
 10  9  1  0
 12 11  1  0
 13 12  2  0
 14 13  1  0
 14 15  2  0
 15  7  1  0
 15 10  1  0
 16 20  1  0
 16  5  1  0
 17 16  2  0
 18 19  2  0
 18 17  1  0
 19 20  1  0
  1 21  1  0
  3 22  1  0
  8 23  1  0
 11 24  1  0
 13 25  1  0
 17 26  1  0
 18 27  1  0
 19 28  1  0
M  ISO  8  21  14  22  14  23  14  24  14  25  14  26  14  27  14  28  14
M  END
>  <minimizedAffinity>  (1) 
-5.21470928

>  <minimizedRMSD>  (1) 
0.64534086

$$$$
