
     RDKit          3D

 26 29  0  0  0  0  0  0  0  0999 V2000
   37.7620   24.7620   34.1260 C   0  0  0  0  0  0  0  0  0  0  0  0
   38.0930   25.2180   35.3990 C   0  0  0  0  0  0  0  0  0  0  0  0
   37.8930   26.5600   35.7000 C   0  0  0  0  0  0  0  0  0  0  0  0
   37.3840   27.3800   34.7500 N   0  0  0  0  0  0  0  0  0  0  0  0
   37.0710   26.8980   33.5100 C   0  0  0  0  0  0  0  0  0  0  0  0
   37.2550   25.6080   33.1980 N   0  0  0  0  0  0  0  0  0  0  0  0
   38.6170   24.3300   36.3520 N   0  0  0  0  0  0  0  0  0  0  0  0
   38.1200   24.1150   37.5900 C   0  0  0  0  0  0  0  0  0  0  0  0
   38.8450   23.2040   38.2660 N   0  0  0  0  0  0  0  0  0  0  0  0
   39.8400   22.8220   37.4320 C   0  0  0  0  0  0  0  0  0  0  0  0
   40.8770   21.9400   37.5460 C   0  0  0  0  0  0  0  0  0  0  0  0
   41.7710   21.7140   36.5630 N   0  0  0  0  0  0  0  0  0  0  0  0
   41.5850   22.4270   35.4180 C   0  0  0  0  0  0  0  0  0  0  0  0
   40.5680   23.2830   35.3240 N   0  0  0  0  0  0  0  0  0  0  0  0
   39.6700   23.5330   36.2650 C   0  0  0  0  0  0  0  0  0  0  0  0
   36.5370   27.9190   32.6160 C   0  0  0  0  0  0  0  0  0  0  0  0
   35.4020   28.6380   32.4730 N   0  0  0  0  0  0  0  0  0  0  0  0
   35.5230   29.4250   31.4440 O   0  0  0  0  0  0  0  0  0  0  0  0
   36.7160   29.2620   30.8770 C   0  0  0  0  0  0  0  0  0  0  0  0
   37.3550   28.3250   31.6020 N   0  0  0  0  0  0  0  0  0  0  0  0
   37.9140   23.7028   33.8711 H   0  0  0  0  0  0  0  0  0  0  0  0
   38.1449   26.9510   36.6968 H   0  0  0  0  0  0  0  0  0  0  0  0
   37.2321   24.6220   37.9957 H   0  0  0  0  0  0  0  0  0  0  0  0
   40.9882   21.3853   38.4894 H   0  0  0  0  0  0  0  0  0  0  0  0
   42.2742   22.2964   34.5706 H   0  0  0  0  0  0  0  0  0  0  0  0
   37.1029   29.7883   29.9919 H   0  0  0  0  0  0  0  0  0  0  0  0
  1  2  2  0
  2  3  1  0
  2  7  1  0
  4  3  2  0
  5  4  1  0
  6  5  2  0
  6  1  1  0
  7  8  1  0
  8  9  2  0
 10 11  2  0
 10  9  1  0
 12 11  1  0
 13 12  2  0
 14 13  1  0
 14 15  2  0
 15  7  1  0
 15 10  1  0
 16  5  1  0
 17 16  2  0
 18 17  1  0
 19 18  1  0
 19 20  2  0
 20 16  1  0
  1 21  1  0
  3 22  1  0
  8 23  1  0
 11 24  1  0
 13 25  1  0
 19 26  1  0
M  ISO  6  21  14  22  14  23  14  24  14  25  14  26  14
M  END
>  <minimizedAffinity>  (1) 
-5.03496408

>  <minimizedRMSD>  (1) 
0.829424918

$$$$
