
     RDKit          3D

 28 31  0  0  0  0  0  0  0  0999 V2000
   38.6250   24.4480   36.5380 N   0  0  0  0  0  0  0  0  0  0  0  0
   38.1380   24.1510   37.7480 C   0  0  0  0  0  0  0  0  0  0  0  0
   38.8480   23.1790   38.3470 N   0  0  0  0  0  0  0  0  0  0  0  0
   39.8280   22.8460   37.4800 C   0  0  0  0  0  0  0  0  0  0  0  0
   40.8480   21.9320   37.5320 C   0  0  0  0  0  0  0  0  0  0  0  0
   41.7380   21.7590   36.5250 N   0  0  0  0  0  0  0  0  0  0  0  0
   41.5640   22.5560   35.4370 C   0  0  0  0  0  0  0  0  0  0  0  0
   40.5660   23.4400   35.4060 N   0  0  0  0  0  0  0  0  0  0  0  0
   39.6770   23.6390   36.3650 C   0  0  0  0  0  0  0  0  0  0  0  0
   37.6470   25.0290   34.3880 C   0  0  0  0  0  0  0  0  0  0  0  0
   38.1250   25.4120   35.6430 C   0  0  0  0  0  0  0  0  0  0  0  0
   38.1030   26.7630   36.0040 C   0  0  0  0  0  0  0  0  0  0  0  0
   37.6100   27.6620   35.1070 N   0  0  0  0  0  0  0  0  0  0  0  0
   37.1490   27.2530   33.8830 C   0  0  0  0  0  0  0  0  0  0  0  0
   37.1690   25.9670   33.5390 N   0  0  0  0  0  0  0  0  0  0  0  0
   36.6310   28.3120   32.9760 C   0  0  0  0  0  0  0  0  0  0  0  0
   35.7820   27.9230   31.8050 C   0  0  0  0  0  0  0  0  0  0  0  0
   37.1710   28.4960   31.6240 C   0  0  0  0  0  0  0  0  0  0  0  0
   37.2629   24.6424   38.1983 H   0  0  0  0  0  0  0  0  0  0  0  0
   40.9489   21.3097   38.4334 H   0  0  0  0  0  0  0  0  0  0  0  0
   42.2484   22.4713   34.5800 H   0  0  0  0  0  0  0  0  0  0  0  0
   37.6592   23.9698   34.0915 H   0  0  0  0  0  0  0  0  0  0  0  0
   38.4740   27.0910   36.9862 H   0  0  0  0  0  0  0  0  0  0  0  0
   36.5128   28.9814   33.8408 H   0  0  0  0  0  0  0  0  0  0  0  0
   35.5873   26.8621   31.5893 H   0  0  0  0  0  0  0  0  0  0  0  0
   34.7733   28.1746   31.4455 H   0  0  0  0  0  0  0  0  0  0  0  0
   37.9883   27.8523   31.2668 H   0  0  0  0  0  0  0  0  0  0  0  0
   37.5938   29.3445   31.0661 H   0  0  0  0  0  0  0  0  0  0  0  0
  1  2  1  0
  2  3  2  0
  4  5  2  0
  4  3  1  0
  6  5  1  0
  7  6  2  0
  8  7  1  0
  8  9  2  0
  9  1  1  0
  9  4  1  0
 10 11  2  0
 11 12  1  0
 11  1  1  0
 13 12  2  0
 14 13  1  0
 15 14  2  0
 15 10  1  0
 16 14  1  0
 17 16  1  0
 18 17  1  0
 18 16  1  0
  2 19  1  0
  5 20  1  0
  7 21  1  0
 10 22  1  0
 12 23  1  0
 16 24  1  0
 17 25  1  0
 17 26  1  0
 18 27  1  0
 18 28  1  0
M  ISO  8  19  14  20  14  21  14  22  14  23  14  24  13  25  13  26  13
M  ISO  2  27  13  28  13
M  END
>  <minimizedAffinity>  (1) 
-4.79721785

>  <minimizedRMSD>  (1) 
0.225829452

$$$$
