
     RDKit          3D

 23 25  0  0  0  0  0  0  0  0999 V2000
   38.5200   24.4770   36.3810 N   0  0  0  0  0  0  0  0  0  0  0  0
   37.9550   24.1990   37.5680 C   0  0  0  0  0  0  0  0  0  0  0  0
   38.6330   23.2580   38.2400 N   0  0  0  0  0  0  0  0  0  0  0  0
   39.6690   22.9220   37.4580 C   0  0  0  0  0  0  0  0  0  0  0  0
   40.7090   22.0320   37.5790 C   0  0  0  0  0  0  0  0  0  0  0  0
   41.6610   21.8540   36.6420 N   0  0  0  0  0  0  0  0  0  0  0  0
   41.5450   22.6240   35.5260 C   0  0  0  0  0  0  0  0  0  0  0  0
   40.5350   23.4880   35.4100 N   0  0  0  0  0  0  0  0  0  0  0  0
   39.5820   23.6840   36.3150 C   0  0  0  0  0  0  0  0  0  0  0  0
   37.6750   24.9810   34.1640 C   0  0  0  0  0  0  0  0  0  0  0  0
   38.0550   25.4090   35.4500 C   0  0  0  0  0  0  0  0  0  0  0  0
   37.9510   26.7530   35.7460 C   0  0  0  0  0  0  0  0  0  0  0  0
   37.4930   27.6080   34.8020 N   0  0  0  0  0  0  0  0  0  0  0  0
   37.1310   27.1850   33.5700 C   0  0  0  0  0  0  0  0  0  0  0  0
   37.2210   25.8940   33.2600 N   0  0  0  0  0  0  0  0  0  0  0  0
   36.6530   28.1980   32.6370 C   0  0  0  0  0  0  0  0  0  0  0  0
   35.5130   28.0490   32.1240 O   0  0  0  0  0  0  0  0  0  0  0  0
   37.0433   24.6863   37.9440 H   0  0  0  0  0  0  0  0  0  0  0  0
   40.7680   21.4281   38.4965 H   0  0  0  0  0  0  0  0  0  0  0  0
   42.2856   22.5339   34.7177 H   0  0  0  0  0  0  0  0  0  0  0  0
   37.7440   23.9177   33.8909 H   0  0  0  0  0  0  0  0  0  0  0  0
   38.2378   27.1260   36.7403 H   0  0  0  0  0  0  0  0  0  0  0  0
   37.2733   29.0714   32.3873 H   0  0  0  0  0  0  0  0  0  0  0  0
  1  2  1  0
  2  3  2  0
  4  5  2  0
  4  3  1  0
  6  5  1  0
  7  6  2  0
  8  7  1  0
  8  9  2  0
  9  1  1  0
  9  4  1  0
 10 11  2  0
 11 12  1  0
 11  1  1  0
 13 12  2  0
 14 13  1  0
 15 14  2  0
 15 10  1  0
 16 14  1  0
 17 16  2  0
  2 18  1  0
  5 19  1  0
  7 20  1  0
 10 21  1  0
 12 22  1  0
 16 23  1  0
M  ISO  6  18  14  19  14  20  14  21  14  22  14  23   6
M  END
>  <minimizedAffinity>  (1) 
-4.41247272

>  <minimizedRMSD>  (1) 
0.440420389

$$$$
