
     RDKit          3D

 35 38  0  0  0  0  0  0  0  0999 V2000
   37.5360   25.1160   34.5440 C   0  0  0  0  0  0  0  0  0  0  0  0
   38.1470   25.4690   35.7640 C   0  0  0  0  0  0  0  0  0  0  0  0
   38.2120   26.8130   36.1000 C   0  0  0  0  0  0  0  0  0  0  0  0
   37.6840   27.7330   35.2440 N   0  0  0  0  0  0  0  0  0  0  0  0
   37.1040   27.3520   34.0790 C   0  0  0  0  0  0  0  0  0  0  0  0
   37.0260   26.0560   33.7240 N   0  0  0  0  0  0  0  0  0  0  0  0
   38.6650   24.4790   36.5910 N   0  0  0  0  0  0  0  0  0  0  0  0
   38.1960   24.1540   37.8250 C   0  0  0  0  0  0  0  0  0  0  0  0
   38.9040   23.1560   38.3790 N   0  0  0  0  0  0  0  0  0  0  0  0
   39.8530   22.8360   37.4690 C   0  0  0  0  0  0  0  0  0  0  0  0
   40.8650   21.9040   37.4590 C   0  0  0  0  0  0  0  0  0  0  0  0
   41.7170   21.7490   36.4290 N   0  0  0  0  0  0  0  0  0  0  0  0
   41.5250   22.5780   35.3740 C   0  0  0  0  0  0  0  0  0  0  0  0
   40.5380   23.4800   35.3940 N   0  0  0  0  0  0  0  0  0  0  0  0
   39.6910   23.6590   36.3790 C   0  0  0  0  0  0  0  0  0  0  0  0
   36.4000   28.5280   32.9300 S   0  0  0  0  0  0  0  0  0  0  0  0
   38.7390   28.1530   29.1110 C   0  0  0  0  0  0  0  0  0  0  0  0
   39.2420   27.6370   30.2930 C   0  0  0  0  0  0  0  0  0  0  0  0
   38.4410   27.8040   31.4260 C   0  0  0  0  0  0  0  0  0  0  0  0
   37.2120   28.4550   31.3460 C   0  0  0  0  0  0  0  0  0  0  0  0
   36.7480   28.9480   30.1670 C   0  0  0  0  0  0  0  0  0  0  0  0
   37.5210   28.7960   29.0350 C   0  0  0  0  0  0  0  0  0  0  0  0
   39.7250   27.9600   27.6590 S   0  0  0  0  0  0  0  0  0  0  0  0
   41.1090   28.4660   27.9540 O   0  0  0  0  0  0  0  0  0  0  0  0
   39.7420   26.5360   27.2280 O   0  0  0  0  0  0  0  0  0  0  0  0
   37.4744   24.0560   34.2565 H   0  0  0  0  0  0  0  0  0  0  0  0
   38.6821   27.1314   37.0421 H   0  0  0  0  0  0  0  0  0  0  0  0
   37.3413   24.6479   38.3103 H   0  0  0  0  0  0  0  0  0  0  0  0
   40.9837   21.2526   38.3374 H   0  0  0  0  0  0  0  0  0  0  0  0
   42.1847   22.5084   34.4965 H   0  0  0  0  0  0  0  0  0  0  0  0
   40.2149   27.1256   30.3378 H   0  0  0  0  0  0  0  0  0  0  0  0
   38.7862   27.4156   32.3955 H   0  0  0  0  0  0  0  0  0  0  0  0
   35.7748   29.4583   30.1169 H   0  0  0  0  0  0  0  0  0  0  0  0
   37.1659   29.1879   28.0705 H   0  0  0  0  0  0  0  0  0  0  0  0
   39.1945   28.6851   26.6248 H   0  0  0  0  0  0  0  0  0  0  0  0
  1  2  2  0
  2  3  1  0
  2  7  1  0
  4  3  2  0
  5  4  1  0
  6  5  2  0
  6  1  1  0
  7  8  1  0
  8  9  2  0
 10  9  1  0
 11 10  2  0
 12 11  1  0
 13 14  1  0
 13 12  2  0
 14 15  2  0
 15  7  1  0
 15 10  1  0
 16  5  1  0
 17 18  2  0
 18 19  1  0
 20 19  2  0
 20 16  1  0
 21 20  1  0
 22 17  1  0
 22 21  2  0
 23 24  2  0
 23 17  1  0
 25 23  2  0
  1 26  1  0
  3 27  1  0
  8 28  1  0
 11 29  1  0
 13 30  1  0
 18 31  1  0
 19 32  1  0
 21 33  1  0
 22 34  1  0
 23 35  1  0
M  ISO  8  26  14  27  14  28  14  29  14  30  14  31  14  32  14  33  14
M  ISO  2  34  14  35  11
M  END
>  <minimizedAffinity>  (1) 
-5.42859602

>  <minimizedRMSD>  (1) 
1.61787033

$$$$
