
     RDKit          3D

 32 35  0  0  0  0  0  0  0  0999 V2000
   37.6440   25.0080   34.3940 C   0  0  0  0  0  0  0  0  0  0  0  0
   38.1590   25.4030   35.6300 C   0  0  0  0  0  0  0  0  0  0  0  0
   38.1660   26.7500   35.9390 C   0  0  0  0  0  0  0  0  0  0  0  0
   37.6720   27.6330   35.0260 N   0  0  0  0  0  0  0  0  0  0  0  0
   37.1820   27.2170   33.8440 C   0  0  0  0  0  0  0  0  0  0  0  0
   37.1640   25.9190   33.5180 N   0  0  0  0  0  0  0  0  0  0  0  0
   38.6500   24.4500   36.5180 N   0  0  0  0  0  0  0  0  0  0  0  0
   38.1370   24.1650   37.7430 C   0  0  0  0  0  0  0  0  0  0  0  0
   38.8300   23.1950   38.3690 N   0  0  0  0  0  0  0  0  0  0  0  0
   39.8190   22.8500   37.5060 C   0  0  0  0  0  0  0  0  0  0  0  0
   40.8420   21.9250   37.5730 C   0  0  0  0  0  0  0  0  0  0  0  0
   41.7350   21.7450   36.5770 N   0  0  0  0  0  0  0  0  0  0  0  0
   41.5770   22.5260   35.4910 C   0  0  0  0  0  0  0  0  0  0  0  0
   40.5840   23.4200   35.4350 N   0  0  0  0  0  0  0  0  0  0  0  0
   39.6880   23.6290   36.3880 C   0  0  0  0  0  0  0  0  0  0  0  0
   36.5260   28.3450   32.6240 S   0  0  0  0  0  0  0  0  0  0  0  0
   37.5110   28.3280   31.1360 C   0  0  0  0  0  0  0  0  0  0  0  0
   36.9070   28.9250   30.0310 C   0  0  0  0  0  0  0  0  0  0  0  0
   37.5500   28.9860   28.8130 C   0  0  0  0  0  0  0  0  0  0  0  0
   38.8240   28.4330   28.7160 C   0  0  0  0  0  0  0  0  0  0  0  0
   39.3980   27.8520   29.8080 C   0  0  0  0  0  0  0  0  0  0  0  0
   38.7680   27.7820   31.0340 C   0  0  0  0  0  0  0  0  0  0  0  0
   37.6285   23.9405   34.1291 H   0  0  0  0  0  0  0  0  0  0  0  0
   38.5624   27.1024   36.9027 H   0  0  0  0  0  0  0  0  0  0  0  0
   37.2583   24.6678   38.1733 H   0  0  0  0  0  0  0  0  0  0  0  0
   40.9333   21.3072   38.4785 H   0  0  0  0  0  0  0  0  0  0  0  0
   42.2707   22.4276   34.6430 H   0  0  0  0  0  0  0  0  0  0  0  0
   35.8996   29.3550   30.1324 H   0  0  0  0  0  0  0  0  0  0  0  0
   37.0703   29.4580   27.9429 H   0  0  0  0  0  0  0  0  0  0  0  0
   39.3668   28.4647   27.7598 H   0  0  0  0  0  0  0  0  0  0  0  0
   40.4051   27.4212   29.7076 H   0  0  0  0  0  0  0  0  0  0  0  0
   39.2545   27.3063   31.8983 H   0  0  0  0  0  0  0  0  0  0  0  0
  1  2  2  0
  2  3  1  0
  2  7  1  0
  4  3  2  0
  5  4  1  0
  6  5  2  0
  6  1  1  0
  7  8  1  0
  8  9  2  0
 10 11  2  0
 10  9  1  0
 12 11  1  0
 13 12  2  0
 14 13  1  0
 14 15  2  0
 15  7  1  0
 15 10  1  0
 16  5  1  0
 17 16  1  0
 18 17  2  0
 19 18  1  0
 20 19  2  0
 20 21  1  0
 21 22  2  0
 22 17  1  0
  1 23  1  0
  3 24  1  0
  8 25  1  0
 11 26  1  0
 13 27  1  0
 18 28  1  0
 19 29  1  0
 20 30  1  0
 21 31  1  0
 22 32  1  0
M  ISO  8  23  14  24  14  25  14  26  14  27  14  28  14  29  14  30  14
M  ISO  2  31  14  32  14
M  END
>  <minimizedAffinity>  (1) 
-5.28794003

>  <minimizedRMSD>  (1) 
0.909195542

$$$$
