
     RDKit          3D

 30 33  0  0  0  0  0  0  0  0999 V2000
   37.6650   25.0390   34.4110 C   0  0  0  0  0  0  0  0  0  0  0  0
   38.1830   25.4170   35.6690 C   0  0  0  0  0  0  0  0  0  0  0  0
   38.1700   26.7510   35.9870 C   0  0  0  0  0  0  0  0  0  0  0  0
   37.6760   27.6650   35.1200 N   0  0  0  0  0  0  0  0  0  0  0  0
   37.1820   27.2730   33.9090 C   0  0  0  0  0  0  0  0  0  0  0  0
   37.1790   25.9700   33.5620 N   0  0  0  0  0  0  0  0  0  0  0  0
   38.6780   24.4510   36.5230 N   0  0  0  0  0  0  0  0  0  0  0  0
   38.1720   24.1390   37.7420 C   0  0  0  0  0  0  0  0  0  0  0  0
   38.8680   23.1540   38.3380 N   0  0  0  0  0  0  0  0  0  0  0  0
   39.8550   22.8260   37.4650 C   0  0  0  0  0  0  0  0  0  0  0  0
   40.8690   21.8990   37.5180 C   0  0  0  0  0  0  0  0  0  0  0  0
   41.7580   21.7420   36.5090 N   0  0  0  0  0  0  0  0  0  0  0  0
   41.5950   22.5530   35.4350 C   0  0  0  0  0  0  0  0  0  0  0  0
   40.6090   23.4410   35.4060 N   0  0  0  0  0  0  0  0  0  0  0  0
   39.7170   23.6320   36.3660 C   0  0  0  0  0  0  0  0  0  0  0  0
   36.5110   28.3910   32.7020 S   0  0  0  0  0  0  0  0  0  0  0  0
   34.9700   29.1270   33.2150 C   0  0  0  0  0  0  0  0  0  0  0  0
   34.9970   29.8790   34.3800 C   0  0  0  0  0  0  0  0  0  0  0  0
   33.8110   30.4760   34.8250 C   0  0  0  0  0  0  0  0  0  0  0  0
   32.6770   30.3190   34.1290 N   0  0  0  0  0  0  0  0  0  0  0  0
   32.6640   29.5810   32.9920 C   0  0  0  0  0  0  0  0  0  0  0  0
   33.8110   29.0040   32.5630 N   0  0  0  0  0  0  0  0  0  0  0  0
   37.6573   23.9781   34.1203 H   0  0  0  0  0  0  0  0  0  0  0  0
   38.5659   27.0819   36.9585 H   0  0  0  0  0  0  0  0  0  0  0  0
   37.2969   24.6325   38.1899 H   0  0  0  0  0  0  0  0  0  0  0  0
   40.9611   21.2631   38.4108 H   0  0  0  0  0  0  0  0  0  0  0  0
   42.2847   22.4746   34.5817 H   0  0  0  0  0  0  0  0  0  0  0  0
   35.9330   30.0042   34.9442 H   0  0  0  0  0  0  0  0  0  0  0  0
   33.8104   31.0749   35.7477 H   0  0  0  0  0  0  0  0  0  0  0  0
   31.7310   29.4523   32.4238 H   0  0  0  0  0  0  0  0  0  0  0  0
  1  2  2  0
  2  3  1  0
  2  7  1  0
  4  3  2  0
  5  4  1  0
  6  5  2  0
  6  1  1  0
  7  8  1  0
  8  9  2  0
 10 11  2  0
 10  9  1  0
 12 11  1  0
 13 12  2  0
 14 13  1  0
 14 15  2  0
 15  7  1  0
 15 10  1  0
 16 17  1  0
 16  5  1  0
 17 18  2  0
 18 19  1  0
 20 19  2  0
 21 20  1  0
 22 21  2  0
 22 17  1  0
  1 23  1  0
  3 24  1  0
  8 25  1  0
 11 26  1  0
 13 27  1  0
 18 28  1  0
 19 29  1  0
 21 30  1  0
M  ISO  8  23  14  24  14  25  14  26  14  27  14  28  14  29  14  30  14
M  END
>  <minimizedAffinity>  (1) 
-5.19785595

>  <minimizedRMSD>  (1) 
0.711980224

$$$$
