
     RDKit          3D

 38 41  0  0  0  0  0  0  0  0999 V2000
   37.5830   24.9340   34.3250 C   0  0  0  0  0  0  0  0  0  0  0  0
   38.1210   25.3580   35.5590 C   0  0  0  0  0  0  0  0  0  0  0  0
   38.1040   26.7150   35.8280 C   0  0  0  0  0  0  0  0  0  0  0  0
   37.5880   27.5820   34.9310 N   0  0  0  0  0  0  0  0  0  0  0  0
   37.0800   27.1510   33.7600 C   0  0  0  0  0  0  0  0  0  0  0  0
   37.0780   25.8410   33.4600 N   0  0  0  0  0  0  0  0  0  0  0  0
   38.6390   24.4340   36.4470 N   0  0  0  0  0  0  0  0  0  0  0  0
   38.1630   24.1780   37.6890 C   0  0  0  0  0  0  0  0  0  0  0  0
   38.8870   23.2210   38.3100 N   0  0  0  0  0  0  0  0  0  0  0  0
   39.8440   22.8640   37.4410 C   0  0  0  0  0  0  0  0  0  0  0  0
   40.8680   21.9490   37.5030 C   0  0  0  0  0  0  0  0  0  0  0  0
   41.7370   21.7450   36.4890 N   0  0  0  0  0  0  0  0  0  0  0  0
   41.5420   22.5090   35.3790 C   0  0  0  0  0  0  0  0  0  0  0  0
   40.5490   23.3890   35.3330 N   0  0  0  0  0  0  0  0  0  0  0  0
   39.6720   23.6210   36.3050 C   0  0  0  0  0  0  0  0  0  0  0  0
   36.3660   28.1790   32.4800 S   0  0  0  0  0  0  0  0  0  0  0  0
   37.6240   28.5730   31.2160 C   0  0  0  0  0  0  0  0  0  0  0  0
   36.9690   28.4710   29.8570 C   0  0  0  0  0  0  0  0  0  0  0  0
   38.0140   28.8210   28.8200 C   0  0  0  0  0  0  0  0  0  0  0  0
   39.0800   27.7410   28.8760 C   0  0  0  0  0  0  0  0  0  0  0  0
   39.7420   27.6770   30.2240 C   0  0  0  0  0  0  0  0  0  0  0  0
   38.7580   27.6140   31.3580 C   0  0  0  0  0  0  0  0  0  0  0  0
   37.5748   23.8647   34.0673 H   0  0  0  0  0  0  0  0  0  0  0  0
   38.5131   27.0895   36.7779 H   0  0  0  0  0  0  0  0  0  0  0  0
   37.2956   24.6857   38.1361 H   0  0  0  0  0  0  0  0  0  0  0  0
   40.9853   21.3550   38.4214 H   0  0  0  0  0  0  0  0  0  0  0  0
   42.2121   22.3963   34.5140 H   0  0  0  0  0  0  0  0  0  0  0  0
   38.0219   29.5912   31.3386 H   0  0  0  0  0  0  0  0  0  0  0  0
   36.6047   27.4463   29.6918 H   0  0  0  0  0  0  0  0  0  0  0  0
   36.1111   29.1560   29.7884 H   0  0  0  0  0  0  0  0  0  0  0  0
   38.4580   29.8012   29.0480 H   0  0  0  0  0  0  0  0  0  0  0  0
   37.5660   28.8765   27.8169 H   0  0  0  0  0  0  0  0  0  0  0  0
   38.6125   26.7684   28.6627 H   0  0  0  0  0  0  0  0  0  0  0  0
   39.8502   27.9828   28.1288 H   0  0  0  0  0  0  0  0  0  0  0  0
   40.3771   26.7796   30.2605 H   0  0  0  0  0  0  0  0  0  0  0  0
   40.3281   28.5996   30.3473 H   0  0  0  0  0  0  0  0  0  0  0  0
   39.2902   27.8402   32.2937 H   0  0  0  0  0  0  0  0  0  0  0  0
   38.3276   26.6017   31.3570 H   0  0  0  0  0  0  0  0  0  0  0  0
  1  2  2  0
  2  3  1  0
  2  7  1  0
  4  3  2  0
  5  4  1  0
  6  5  2  0
  6  1  1  0
  7  8  1  0
  8  9  2  0
 10 11  2  0
 10  9  1  0
 12 11  1  0
 13 12  2  0
 14 13  1  0
 14 15  2  0
 15  7  1  0
 15 10  1  0
 16  5  1  0
 17 22  1  0
 17 16  1  0
 18 17  1  0
 19 20  1  0
 19 18  1  0
 20 21  1  0
 21 22  1  0
  1 23  1  0
  3 24  1  0
  8 25  1  0
 11 26  1  0
 13 27  1  0
 17 28  1  0
 18 29  1  0
 18 30  1  0
 19 31  1  0
 19 32  1  0
 20 33  1  0
 20 34  1  0
 21 35  1  0
 21 36  1  0
 22 37  1  0
 22 38  1  0
M  ISO  8  23  14  24  14  25  14  26  14  27  14  28  13  29  13  30  13
M  ISO  8  31  13  32  13  33  13  34  13  35  13  36  13  37  13  38  13
M  END
>  <minimizedAffinity>  (1) 
-5.15965462

>  <minimizedRMSD>  (1) 
0.397502571

$$$$
