
     RDKit          3D

 35 38  0  0  0  0  0  0  0  0999 V2000
   37.6510   25.0170   34.3840 C   0  0  0  0  0  0  0  0  0  0  0  0
   38.1610   25.4070   35.6320 C   0  0  0  0  0  0  0  0  0  0  0  0
   38.1540   26.7480   35.9370 C   0  0  0  0  0  0  0  0  0  0  0  0
   37.6690   27.6370   35.0470 N   0  0  0  0  0  0  0  0  0  0  0  0
   37.1830   27.2550   33.8580 C   0  0  0  0  0  0  0  0  0  0  0  0
   37.1740   25.9460   33.5250 N   0  0  0  0  0  0  0  0  0  0  0  0
   38.6570   24.4500   36.5170 N   0  0  0  0  0  0  0  0  0  0  0  0
   38.1410   24.1570   37.7280 C   0  0  0  0  0  0  0  0  0  0  0  0
   38.8310   23.1870   38.3410 N   0  0  0  0  0  0  0  0  0  0  0  0
   39.8310   22.8460   37.4870 C   0  0  0  0  0  0  0  0  0  0  0  0
   40.8390   21.9220   37.5570 C   0  0  0  0  0  0  0  0  0  0  0  0
   41.7320   21.7480   36.5630 N   0  0  0  0  0  0  0  0  0  0  0  0
   41.5770   22.5440   35.4730 C   0  0  0  0  0  0  0  0  0  0  0  0
   40.5900   23.4400   35.4190 N   0  0  0  0  0  0  0  0  0  0  0  0
   39.6960   23.6450   36.3710 C   0  0  0  0  0  0  0  0  0  0  0  0
   36.5180   28.3700   32.6360 S   0  0  0  0  0  0  0  0  0  0  0  0
   37.0530   27.9060   30.9760 C   0  0  0  0  0  0  0  0  0  0  0  0
   36.7260   29.0420   30.0510 C   0  0  0  0  0  0  0  0  0  0  0  0
   37.7530   28.9990   28.9400 C   0  0  0  0  0  0  0  0  0  0  0  0
   38.9800   28.4360   29.5810 C   0  0  0  0  0  0  0  0  0  0  0  0
   38.5760   27.8640   30.9000 C   0  0  0  0  0  0  0  0  0  0  0  0
   37.6393   23.9533   34.1040 H   0  0  0  0  0  0  0  0  0  0  0  0
   38.5435   27.0947   36.9056 H   0  0  0  0  0  0  0  0  0  0  0  0
   37.2601   24.6545   38.1598 H   0  0  0  0  0  0  0  0  0  0  0  0
   40.9230   21.2980   38.4590 H   0  0  0  0  0  0  0  0  0  0  0  0
   42.2725   22.4487   34.6262 H   0  0  0  0  0  0  0  0  0  0  0  0
   36.5808   26.9438   30.7285 H   0  0  0  0  0  0  0  0  0  0  0  0
   35.7140   28.9171   29.6384 H   0  0  0  0  0  0  0  0  0  0  0  0
   36.7513   30.0062   30.5798 H   0  0  0  0  0  0  0  0  0  0  0  0
   37.9470   30.0096   28.5514 H   0  0  0  0  0  0  0  0  0  0  0  0
   37.4159   28.3959   28.0840 H   0  0  0  0  0  0  0  0  0  0  0  0
   39.4077   27.6471   28.9448 H   0  0  0  0  0  0  0  0  0  0  0  0
   39.7407   29.2191   29.7153 H   0  0  0  0  0  0  0  0  0  0  0  0
   38.9268   26.8246   30.9810 H   0  0  0  0  0  0  0  0  0  0  0  0
   39.0193   28.4432   31.7235 H   0  0  0  0  0  0  0  0  0  0  0  0
  1  2  2  0
  2  3  1  0
  2  7  1  0
  4  3  2  0
  5  4  1  0
  6  5  2  0
  6  1  1  0
  7  8  1  0
  8  9  2  0
 10 11  2  0
 10  9  1  0
 12 11  1  0
 13 12  2  0
 14 13  1  0
 14 15  2  0
 15  7  1  0
 15 10  1  0
 16  5  1  0
 17 16  1  0
 18 17  1  0
 19 20  1  0
 19 18  1  0
 20 21  1  0
 21 17  1  0
  1 22  1  0
  3 23  1  0
  8 24  1  0
 11 25  1  0
 13 26  1  0
 17 27  1  0
 18 28  1  0
 18 29  1  0
 19 30  1  0
 19 31  1  0
 20 32  1  0
 20 33  1  0
 21 34  1  0
 21 35  1  0
M  ISO  8  22  14  23  14  24  14  25  14  26  14  27  13  28  13  29  13
M  ISO  6  30  13  31  13  32  13  33  13  34  13  35  13
M  END
>  <minimizedAffinity>  (1) 
-5.07725859

>  <minimizedRMSD>  (1) 
1.01580727

$$$$
