
     RDKit          3D

 29 32  0  0  0  0  0  0  0  0999 V2000
   37.6980   25.0240   34.3310 C   0  0  0  0  0  0  0  0  0  0  0  0
   38.1890   25.4220   35.5940 C   0  0  0  0  0  0  0  0  0  0  0  0
   38.1730   26.7620   35.9150 C   0  0  0  0  0  0  0  0  0  0  0  0
   37.6880   27.6570   35.0130 N   0  0  0  0  0  0  0  0  0  0  0  0
   37.2200   27.2330   33.8020 C   0  0  0  0  0  0  0  0  0  0  0  0
   37.2260   25.9370   33.4660 N   0  0  0  0  0  0  0  0  0  0  0  0
   38.6730   24.4550   36.4800 N   0  0  0  0  0  0  0  0  0  0  0  0
   38.1300   24.1610   37.6980 C   0  0  0  0  0  0  0  0  0  0  0  0
   38.8070   23.1880   38.3250 N   0  0  0  0  0  0  0  0  0  0  0  0
   39.8100   22.8510   37.4850 C   0  0  0  0  0  0  0  0  0  0  0  0
   40.8280   21.9240   37.5690 C   0  0  0  0  0  0  0  0  0  0  0  0
   41.7390   21.7570   36.5830 N   0  0  0  0  0  0  0  0  0  0  0  0
   41.6030   22.5540   35.4920 C   0  0  0  0  0  0  0  0  0  0  0  0
   40.6090   23.4430   35.4350 N   0  0  0  0  0  0  0  0  0  0  0  0
   39.7070   23.6370   36.3670 C   0  0  0  0  0  0  0  0  0  0  0  0
   36.5670   28.3760   32.5930 S   0  0  0  0  0  0  0  0  0  0  0  0
   35.1860   29.2130   33.4020 C   0  0  0  0  0  0  0  0  0  0  0  0
   35.2010   30.0420   34.5240 C   0  0  0  0  0  0  0  0  0  0  0  0
   33.9030   30.4360   34.7540 C   0  0  0  0  0  0  0  0  0  0  0  0
   33.1260   29.8710   33.8120 N   0  0  0  0  0  0  0  0  0  0  0  0
   33.8980   29.1480   33.0170 N   0  0  0  0  0  0  0  0  0  0  0  0
   37.7021   23.9595   34.0538 H   0  0  0  0  0  0  0  0  0  0  0  0
   38.5486   27.1043   36.8906 H   0  0  0  0  0  0  0  0  0  0  0  0
   37.2438   24.6621   38.1147 H   0  0  0  0  0  0  0  0  0  0  0  0
   40.9017   21.2979   38.4704 H   0  0  0  0  0  0  0  0  0  0  0  0
   42.3119   22.4670   34.6554 H   0  0  0  0  0  0  0  0  0  0  0  0
   36.0846   30.3271   35.1139 H   0  0  0  0  0  0  0  0  0  0  0  0
   33.5610   31.0962   35.5647 H   0  0  0  0  0  0  0  0  0  0  0  0
   32.1057   29.9822   33.7247 H   0  0  0  0  0  0  0  0  0  0  0  0
  1  2  2  0
  2  3  1  0
  2  7  1  0
  4  3  2  0
  5  4  1  0
  6  5  2  0
  6  1  1  0
  7  8  1  0
  8  9  2  0
 10 11  2  0
 10  9  1  0
 12 11  1  0
 13 12  2  0
 14 13  1  0
 14 15  2  0
 15  7  1  0
 15 10  1  0
 16 17  1  0
 16  5  1  0
 17 18  1  0
 18 19  2  0
 20 19  1  0
 21 17  2  0
 21 20  1  0
  1 22  1  0
  3 23  1  0
  8 24  1  0
 11 25  1  0
 13 26  1  0
 18 27  1  0
 19 28  1  0
 20 29  1  0
M  ISO  8  22  14  23  14  24  14  25  14  26  14  27  14  28  14  29   9
M  END
>  <minimizedAffinity>  (1) 
-5.03642845

>  <minimizedRMSD>  (1) 
0.87542969

$$$$
