
     RDKit          3D

 29 32  0  0  0  0  0  0  0  0999 V2000
   37.7340   25.0120   34.3640 C   0  0  0  0  0  0  0  0  0  0  0  0
   38.1920   25.3880   35.6280 C   0  0  0  0  0  0  0  0  0  0  0  0
   38.1300   26.7180   35.9620 C   0  0  0  0  0  0  0  0  0  0  0  0
   37.6400   27.6210   35.0880 N   0  0  0  0  0  0  0  0  0  0  0  0
   37.2030   27.2190   33.8620 C   0  0  0  0  0  0  0  0  0  0  0  0
   37.2480   25.9310   33.5030 N   0  0  0  0  0  0  0  0  0  0  0  0
   38.6890   24.4290   36.5020 N   0  0  0  0  0  0  0  0  0  0  0  0
   38.1880   24.1270   37.7250 C   0  0  0  0  0  0  0  0  0  0  0  0
   38.8850   23.1520   38.3370 N   0  0  0  0  0  0  0  0  0  0  0  0
   39.8660   22.8180   37.4800 C   0  0  0  0  0  0  0  0  0  0  0  0
   40.8830   21.9000   37.5390 C   0  0  0  0  0  0  0  0  0  0  0  0
   41.7740   21.7290   36.5370 N   0  0  0  0  0  0  0  0  0  0  0  0
   41.6160   22.5270   35.4440 C   0  0  0  0  0  0  0  0  0  0  0  0
   40.6190   23.4150   35.4080 N   0  0  0  0  0  0  0  0  0  0  0  0
   39.7350   23.6070   36.3590 C   0  0  0  0  0  0  0  0  0  0  0  0
   36.5340   28.3300   32.6250 S   0  0  0  0  0  0  0  0  0  0  0  0
   35.2000   29.2860   33.3490 C   0  0  0  0  0  0  0  0  0  0  0  0
   33.9640   29.5730   32.8220 C   0  0  0  0  0  0  0  0  0  0  0  0
   33.3780   30.3050   33.7670 N   0  0  0  0  0  0  0  0  0  0  0  0
   34.1970   30.4670   34.8230 C   0  0  0  0  0  0  0  0  0  0  0  0
   35.3650   29.8280   34.5840 N   0  0  0  0  0  0  0  0  0  0  0  0
   37.7696   23.9537   34.0660 H   0  0  0  0  0  0  0  0  0  0  0  0
   38.4825   27.0498   36.9497 H   0  0  0  0  0  0  0  0  0  0  0  0
   37.3111   24.6227   38.1670 H   0  0  0  0  0  0  0  0  0  0  0  0
   40.9777   21.2762   38.4401 H   0  0  0  0  0  0  0  0  0  0  0  0
   42.3079   22.4401   34.5933 H   0  0  0  0  0  0  0  0  0  0  0  0
   33.5545   29.2691   31.8474 H   0  0  0  0  0  0  0  0  0  0  0  0
   33.9546   31.0302   35.7363 H   0  0  0  0  0  0  0  0  0  0  0  0
   36.1901   29.7664   35.1974 H   0  0  0  0  0  0  0  0  0  0  0  0
  1  2  2  0
  2  3  1  0
  2  7  1  0
  4  3  2  0
  5  4  1  0
  6  5  2  0
  6  1  1  0
  7  8  1  0
  8  9  2  0
 10 11  2  0
 10  9  1  0
 12 11  1  0
 13 12  2  0
 14 13  1  0
 14 15  2  0
 15  7  1  0
 15 10  1  0
 16 17  1  0
 16  5  1  0
 17 21  1  0
 18 17  2  0
 18 19  1  0
 19 20  2  0
 21 20  1  0
  1 22  1  0
  3 23  1  0
  8 24  1  0
 11 25  1  0
 13 26  1  0
 18 27  1  0
 20 28  1  0
 21 29  1  0
M  ISO  8  22  14  23  14  24  14  25  14  26  14  27  14  28  14  29   9
M  END
>  <minimizedAffinity>  (1) 
-4.95394182

>  <minimizedRMSD>  (1) 
1.35566068

$$$$
