
     RDKit          3D

 27 29  0  0  0  0  0  0  0  0999 V2000
   41.9330   21.6000   34.0810 S   0  0  0  0  0  0  0  0  0  0  0  0
   40.4570   22.3920   37.7060 C   0  0  0  0  0  0  0  0  0  0  0  0
   39.3030   23.1330   37.4390 C   0  0  0  0  0  0  0  0  0  0  0  0
   39.0090   23.3710   36.1160 C   0  0  0  0  0  0  0  0  0  0  0  0
   39.8250   22.8930   35.1320 N   0  0  0  0  0  0  0  0  0  0  0  0
   40.9490   22.1690   35.4510 C   0  0  0  0  0  0  0  0  0  0  0  0
   41.2270   21.9430   36.7220 N   0  0  0  0  0  0  0  0  0  0  0  0
   38.4120   23.6550   38.5030 C   0  0  0  0  0  0  0  0  0  0  0  0
   39.2050   23.8710   39.6360 F   0  0  0  0  0  0  0  0  0  0  0  0
   37.3930   22.8450   38.8170 F   0  0  0  0  0  0  0  0  0  0  0  0
   37.9820   24.9680   38.1770 F   0  0  0  0  0  0  0  0  0  0  0  0
   43.3840   22.6480   33.9000 C   0  0  0  0  0  0  0  0  0  0  0  0
   43.3030   23.9590   34.4030 C   0  0  0  0  0  0  0  0  0  0  0  0
   45.0070   24.6410   33.9940 S   0  0  0  0  0  0  0  0  0  0  0  0
   45.4790   23.0020   33.2210 C   0  0  0  0  0  0  0  0  0  0  0  0
   44.5450   22.4320   33.3760 N   0  0  0  0  0  0  0  0  0  0  0  0
   46.8430   22.8920   32.6560 C   0  0  0  0  0  0  0  0  0  0  0  0
   47.4550   21.7820   32.1150 C   0  0  0  0  0  0  0  0  0  0  0  0
   48.6990   22.2820   31.7630 C   0  0  0  0  0  0  0  0  0  0  0  0
   48.7670   23.5930   32.0900 N   0  0  0  0  0  0  0  0  0  0  0  0
   47.6120   23.9800   32.6480 N   0  0  0  0  0  0  0  0  0  0  0  0
   40.7322   22.1770   38.7491 H   0  0  0  0  0  0  0  0  0  0  0  0
   38.1119   23.9494   35.8502 H   0  0  0  0  0  0  0  0  0  0  0  0
   42.4606   24.4567   34.9057 H   0  0  0  0  0  0  0  0  0  0  0  0
   47.0588   20.7630   31.9939 H   0  0  0  0  0  0  0  0  0  0  0  0
   49.5060   21.7025   31.2909 H   0  0  0  0  0  0  0  0  0  0  0  0
   49.5832   24.2015   31.9337 H   0  0  0  0  0  0  0  0  0  0  0  0
  1  6  1  0
  3  2  2  0
  3  8  1  0
  4  3  1  0
  5  6  1  0
  5  4  2  0
  6  7  2  0
  7  2  1  0
  8 10  1  0
  8  9  1  0
 11  8  1  0
 12  1  1  0
 12 13  2  0
 14 13  1  0
 15 16  2  0
 15 14  1  0
 16 12  1  0
 17 15  1  0
 18 17  1  0
 19 20  1  0
 19 18  2  0
 20 21  1  0
 21 17  2  0
  2 22  1  0
  4 23  1  0
 13 24  1  0
 18 25  1  0
 19 26  1  0
 20 27  1  0
M  ISO  6  22  14  23  14  24  14  25  14  26  14  27   9
M  END
>  <minimizedAffinity>  (1) 
-3.63529062

>  <minimizedRMSD>  (1) 
0.414261729

$$$$
