
     RDKit          3D

 28 30  0  0  0  0  0  0  0  0999 V2000
   38.6950   24.4720   36.5880 N   0  0  0  0  0  0  0  0  0  0  0  0
   38.2110   24.1310   37.8090 C   0  0  0  0  0  0  0  0  0  0  0  0
   38.9000   23.1310   38.3760 N   0  0  0  0  0  0  0  0  0  0  0  0
   39.8690   22.8160   37.4790 C   0  0  0  0  0  0  0  0  0  0  0  0
   40.8730   21.8800   37.4940 C   0  0  0  0  0  0  0  0  0  0  0  0
   41.7430   21.7420   36.4660 N   0  0  0  0  0  0  0  0  0  0  0  0
   41.5670   22.5840   35.4120 C   0  0  0  0  0  0  0  0  0  0  0  0
   40.5870   23.4830   35.4200 N   0  0  0  0  0  0  0  0  0  0  0  0
   39.7230   23.6520   36.3900 C   0  0  0  0  0  0  0  0  0  0  0  0
   37.6300   25.1170   34.5140 C   0  0  0  0  0  0  0  0  0  0  0  0
   38.1890   25.4730   35.7610 C   0  0  0  0  0  0  0  0  0  0  0  0
   38.2020   26.7980   36.1090 C   0  0  0  0  0  0  0  0  0  0  0  0
   37.6880   27.7230   35.2610 N   0  0  0  0  0  0  0  0  0  0  0  0
   37.1610   27.3510   34.0750 C   0  0  0  0  0  0  0  0  0  0  0  0
   37.1270   26.0690   33.6930 N   0  0  0  0  0  0  0  0  0  0  0  0
   36.4510   28.4940   32.8850 S   0  0  0  0  0  0  0  0  0  0  0  0
   35.0610   29.3260   33.6910 C   0  0  0  0  0  0  0  0  0  0  0  0
   35.5070   30.4950   34.5570 C   0  0  0  0  0  0  0  0  0  0  0  0
   37.3475   24.6217   38.2818 H   0  0  0  0  0  0  0  0  0  0  0  0
   40.9738   21.2212   38.3691 H   0  0  0  0  0  0  0  0  0  0  0  0
   42.2414   22.5206   34.5453 H   0  0  0  0  0  0  0  0  0  0  0  0
   37.6031   24.0608   34.2080 H   0  0  0  0  0  0  0  0  0  0  0  0
   38.6282   27.1107   37.0737 H   0  0  0  0  0  0  0  0  0  0  0  0
   34.3767   29.7016   32.9160 H   0  0  0  0  0  0  0  0  0  0  0  0
   34.5660   28.5936   34.3457 H   0  0  0  0  0  0  0  0  0  0  0  0
   35.4041   30.2252   35.6184 H   0  0  0  0  0  0  0  0  0  0  0  0
   36.5588   30.7323   34.3393 H   0  0  0  0  0  0  0  0  0  0  0  0
   34.8805   31.3726   34.3393 H   0  0  0  0  0  0  0  0  0  0  0  0
  1  2  1  0
  2  3  2  0
  4  5  2  0
  4  3  1  0
  6  5  1  0
  7  8  1  0
  7  6  2  0
  8  9  2  0
  9  1  1  0
  9  4  1  0
 10 11  2  0
 11 12  1  0
 11  1  1  0
 13 12  2  0
 14 13  1  0
 15 14  2  0
 15 10  1  0
 16 17  1  0
 16 14  1  0
 17 18  1  0
  2 19  1  0
  5 20  1  0
  7 21  1  0
 10 22  1  0
 12 23  1  0
 17 24  1  0
 17 25  1  0
 18 26  1  0
 18 27  1  0
 18 28  1  0
M  ISO  8  19  14  20  14  21  14  22  14  23  14  24   8  25   8  26   8
M  ISO  2  27   8  28   8
M  END
>  <minimizedAffinity>  (1) 
-4.45750284

>  <minimizedRMSD>  (1) 
0.498565346

$$$$
