
     RDKit          3D

 25 27  0  0  0  0  0  0  0  0999 V2000
   38.6470   24.4540   36.5150 N   0  0  0  0  0  0  0  0  0  0  0  0
   38.1410   24.1600   37.7310 C   0  0  0  0  0  0  0  0  0  0  0  0
   38.8370   23.1860   38.3470 N   0  0  0  0  0  0  0  0  0  0  0  0
   39.8260   22.8510   37.4760 C   0  0  0  0  0  0  0  0  0  0  0  0
   40.8380   21.9330   37.5420 C   0  0  0  0  0  0  0  0  0  0  0  0
   41.7360   21.7580   36.5340 N   0  0  0  0  0  0  0  0  0  0  0  0
   41.5700   22.5550   35.4510 C   0  0  0  0  0  0  0  0  0  0  0  0
   40.5780   23.4450   35.4060 N   0  0  0  0  0  0  0  0  0  0  0  0
   39.6940   23.6390   36.3590 C   0  0  0  0  0  0  0  0  0  0  0  0
   37.6780   25.0350   34.3790 C   0  0  0  0  0  0  0  0  0  0  0  0
   38.1500   25.4160   35.6320 C   0  0  0  0  0  0  0  0  0  0  0  0
   38.1120   26.7580   35.9660 C   0  0  0  0  0  0  0  0  0  0  0  0
   37.6210   27.6510   35.0750 N   0  0  0  0  0  0  0  0  0  0  0  0
   37.1680   27.2640   33.8670 C   0  0  0  0  0  0  0  0  0  0  0  0
   37.1910   25.9560   33.5060 N   0  0  0  0  0  0  0  0  0  0  0  0
   36.5050   28.3640   32.6310 S   0  0  0  0  0  0  0  0  0  0  0  0
   37.6400   28.2710   31.1980 C   0  0  0  0  0  0  0  0  0  0  0  0
   37.2627   24.6579   38.1677 H   0  0  0  0  0  0  0  0  0  0  0  0
   40.9298   21.3118   38.4451 H   0  0  0  0  0  0  0  0  0  0  0  0
   42.2610   22.4670   34.5997 H   0  0  0  0  0  0  0  0  0  0  0  0
   37.6995   23.9735   34.0913 H   0  0  0  0  0  0  0  0  0  0  0  0
   38.4775   27.0963   36.9468 H   0  0  0  0  0  0  0  0  0  0  0  0
   38.6766   28.1861   31.5562 H   0  0  0  0  0  0  0  0  0  0  0  0
   37.3894   27.3904   30.5883 H   0  0  0  0  0  0  0  0  0  0  0  0
   37.5361   29.1807   30.5883 H   0  0  0  0  0  0  0  0  0  0  0  0
  1  2  1  0
  2  3  2  0
  4  5  2  0
  4  3  1  0
  6  5  1  0
  7  6  2  0
  8  7  1  0
  8  9  2  0
  9  1  1  0
  9  4  1  0
 10 11  2  0
 11 12  1  0
 11  1  1  0
 13 12  2  0
 14 13  1  0
 15 14  2  0
 15 10  1  0
 16 14  1  0
 17 16  1  0
  2 18  1  0
  5 19  1  0
  7 20  1  0
 10 21  1  0
 12 22  1  0
 17 23  1  0
 17 24  1  0
 17 25  1  0
M  ISO  8  18  14  19  14  20  14  21  14  22  14  23   8  24   8  25   8
M  END
>  <minimizedAffinity>  (1) 
-4.39602184

>  <minimizedRMSD>  (1) 
0.195639417

$$$$
