
     RDKit          3D

 38 41  0  0  1  0  0  0  0  0999 V2000
   37.5940   25.0230   34.4150 C   0  0  0  0  0  0  0  0  0  0  0  0
   38.1780   25.4120   35.6280 C   0  0  0  0  0  0  0  0  0  0  0  0
   38.2420   26.7620   35.9050 C   0  0  0  0  0  0  0  0  0  0  0  0
   37.7420   27.6460   35.0050 N   0  0  0  0  0  0  0  0  0  0  0  0
   37.1810   27.2250   33.8350 C   0  0  0  0  0  0  0  0  0  0  0  0
   37.1070   25.9300   33.5430 N   0  0  0  0  0  0  0  0  0  0  0  0
   38.6690   24.4560   36.5030 N   0  0  0  0  0  0  0  0  0  0  0  0
   38.1470   24.1710   37.7290 C   0  0  0  0  0  0  0  0  0  0  0  0
   38.8310   23.2000   38.3530 N   0  0  0  0  0  0  0  0  0  0  0  0
   39.8180   22.8520   37.5020 C   0  0  0  0  0  0  0  0  0  0  0  0
   40.8290   21.9240   37.5770 C   0  0  0  0  0  0  0  0  0  0  0  0
   41.7200   21.7480   36.5800 N   0  0  0  0  0  0  0  0  0  0  0  0
   41.5730   22.5390   35.4830 C   0  0  0  0  0  0  0  0  0  0  0  0
   40.5910   23.4320   35.4210 N   0  0  0  0  0  0  0  0  0  0  0  0
   39.7050   23.6330   36.3700 C   0  0  0  0  0  0  0  0  0  0  0  0
   36.5210   28.3860   32.6460 S   0  0  0  0  0  0  0  0  0  0  0  0
   37.0820   27.9150   31.0040 C   0  0  1  0  0  0  0  0  0  0  0  0
   36.7720   29.0660   30.0550 C   0  0  0  0  0  0  0  0  0  0  0  0
   38.5810   27.6600   31.0000 C   0  0  0  0  0  0  0  0  0  0  0  0
   38.7790   26.2440   30.5960 C   0  0  0  0  0  0  0  0  0  0  0  0
   39.9040   25.5410   30.2210 C   0  0  0  0  0  0  0  0  0  0  0  0
   39.5600   24.2650   29.9450 N   0  0  0  0  0  0  0  0  0  0  0  0
   38.2170   24.1790   30.1500 C   0  0  0  0  0  0  0  0  0  0  0  0
   37.7470   25.3810   30.5450 N   0  0  0  0  0  0  0  0  0  0  0  0
   37.5312   23.9529   34.1680 H   0  0  0  0  0  0  0  0  0  0  0  0
   38.6926   27.1173   36.8435 H   0  0  0  0  0  0  0  0  0  0  0  0
   37.2688   24.6771   38.1565 H   0  0  0  0  0  0  0  0  0  0  0  0
   40.9144   21.3035   38.4813 H   0  0  0  0  0  0  0  0  0  0  0  0
   42.2729   22.4385   34.6403 H   0  0  0  0  0  0  0  0  0  0  0  0
   36.5712   26.9923   30.6915 H   0  0  0  0  0  0  0  0  0  0  0  0
   36.5294   29.9667   30.6380 H   0  0  0  0  0  0  0  0  0  0  0  0
   37.6486   29.2647   29.4209 H   0  0  0  0  0  0  0  0  0  0  0  0
   35.9142   28.7976   29.4209 H   0  0  0  0  0  0  0  0  0  0  0  0
   39.0765   28.3305   30.2824 H   0  0  0  0  0  0  0  0  0  0  0  0
   39.0143   27.8494   31.9931 H   0  0  0  0  0  0  0  0  0  0  0  0
   40.9213   25.9544   30.1568 H   0  0  0  0  0  0  0  0  0  0  0  0
   37.6098   23.2718   30.0149 H   0  0  0  0  0  0  0  0  0  0  0  0
   36.7660   25.6006   30.7692 H   0  0  0  0  0  0  0  0  0  0  0  0
  1  2  2  0
  2  3  1  0
  2  7  1  0
  4  3  2  0
  5  4  1  0
  6  5  2  0
  6  1  1  0
  7  8  1  0
  8  9  2  0
 10 11  2  0
 10  9  1  0
 12 11  1  0
 13 12  2  0
 14 13  1  0
 14 15  2  0
 15  7  1  0
 15 10  1  0
 16  5  1  0
 17 16  1  0
 18 17  1  0
 19 17  1  0
 20 19  1  0
 21 20  2  0
 22 23  2  0
 22 21  1  0
 23 24  1  0
 24 20  1  0
  1 25  1  0
  3 26  1  0
  8 27  1  0
 11 28  1  0
 13 29  1  0
 17 30  1  6
 18 31  1  0
 18 32  1  0
 18 33  1  0
 19 34  1  0
 19 35  1  0
 21 36  1  0
 23 37  1  0
 24 38  1  0
M  ISO  8  25  14  26  14  27  14  28  14  29  14  30   8  31   8  32   8
M  ISO  6  33   8  34   8  35   8  36  14  37  14  38   9
M  END
>  <minimizedAffinity>  (1) 
-5.01733875

>  <minimizedRMSD>  (1) 
1.37385702

$$$$
