
     RDKit          3D

 45 48  0  0  1  0  0  0  0  0999 V2000
   37.6610   25.0060   34.1550 C   0  0  0  0  0  0  0  0  0  0  0  0
   38.0720   25.4280   35.4380 C   0  0  0  0  0  0  0  0  0  0  0  0
   38.0110   26.7710   35.7160 C   0  0  0  0  0  0  0  0  0  0  0  0
   37.5670   27.6250   34.7610 N   0  0  0  0  0  0  0  0  0  0  0  0
   37.1790   27.1760   33.5310 C   0  0  0  0  0  0  0  0  0  0  0  0
   37.2220   25.8690   33.2180 N   0  0  0  0  0  0  0  0  0  0  0  0
   38.5110   24.4880   36.3550 N   0  0  0  0  0  0  0  0  0  0  0  0
   37.8570   24.1650   37.5150 C   0  0  0  0  0  0  0  0  0  0  0  0
   38.5110   23.2230   38.2110 N   0  0  0  0  0  0  0  0  0  0  0  0
   39.6170   22.9340   37.4740 C   0  0  0  0  0  0  0  0  0  0  0  0
   40.6580   22.0610   37.6620 C   0  0  0  0  0  0  0  0  0  0  0  0
   41.6670   21.9380   36.7780 N   0  0  0  0  0  0  0  0  0  0  0  0
   41.6050   22.7310   35.6790 C   0  0  0  0  0  0  0  0  0  0  0  0
   40.5870   23.5790   35.5080 N   0  0  0  0  0  0  0  0  0  0  0  0
   39.5890   23.7230   36.3460 C   0  0  0  0  0  0  0  0  0  0  0  0
   36.5890   28.3000   32.2620 S   0  0  0  0  0  0  0  0  0  0  0  0
   37.3880   27.8920   30.7210 C   0  0  1  0  0  0  0  0  0  0  0  0
   37.0360   29.0040   29.7060 C   0  0  0  0  0  0  0  0  0  0  0  0
   38.9050   27.8520   30.8320 C   0  0  0  0  0  0  0  0  0  0  0  0
   39.5790   26.8660   30.1560 N   0  0  0  0  0  0  0  0  0  0  0  0
   39.0150   25.6000   30.0460 C   0  0  0  0  0  0  0  0  0  0  0  0
   39.7400   24.7280   29.0080 C   0  0  0  0  0  0  0  0  0  0  0  0
   39.5550   25.3040   27.7100 N   0  0  0  0  0  0  0  0  0  0  0  0
   39.8380   26.7040   27.7000 C   0  0  0  0  0  0  0  0  0  0  0  0
   40.3120   27.2730   29.0150 C   0  0  0  0  0  0  0  0  0  0  0  0
   37.7006   23.9340   33.9115 H   0  0  0  0  0  0  0  0  0  0  0  0
   38.3187   27.1498   36.7018 H   0  0  0  0  0  0  0  0  0  0  0  0
   36.9100   24.6229   37.8367 H   0  0  0  0  0  0  0  0  0  0  0  0
   40.6694   21.4380   38.5685 H   0  0  0  0  0  0  0  0  0  0  0  0
   42.4006   22.6752   34.9214 H   0  0  0  0  0  0  0  0  0  0  0  0
   37.0401   26.8937   30.4170 H   0  0  0  0  0  0  0  0  0  0  0  0
   36.7471   29.9168   30.2476 H   0  0  0  0  0  0  0  0  0  0  0  0
   37.9115   29.2142   29.0741 H   0  0  0  0  0  0  0  0  0  0  0  0
   36.1990   28.6721   29.0741 H   0  0  0  0  0  0  0  0  0  0  0  0
   39.2844   28.8170   30.4649 H   0  0  0  0  0  0  0  0  0  0  0  0
   39.0949   27.6336   31.8932 H   0  0  0  0  0  0  0  0  0  0  0  0
   39.0683   25.1024   31.0256 H   0  0  0  0  0  0  0  0  0  0  0  0
   37.9733   25.7227   29.7147 H   0  0  0  0  0  0  0  0  0  0  0  0
   40.8135   24.6873   29.2446 H   0  0  0  0  0  0  0  0  0  0  0  0
   39.3295   23.7076   29.0256 H   0  0  0  0  0  0  0  0  0  0  0  0
   40.1843   24.8329   27.0445 H   0  0  0  0  0  0  0  0  0  0  0  0
   40.6196   26.8879   26.9481 H   0  0  0  0  0  0  0  0  0  0  0  0
   38.8856   27.2064   27.4755 H   0  0  0  0  0  0  0  0  0  0  0  0
   41.3590   26.9677   29.1584 H   0  0  0  0  0  0  0  0  0  0  0  0
   40.1733   28.3616   28.9400 H   0  0  0  0  0  0  0  0  0  0  0  0
  1  2  2  0
  2  3  1  0
  2  7  1  0
  4  3  2  0
  5  4  1  0
  6  5  2  0
  6  1  1  0
  7  8  1  0
  8  9  2  0
 10 11  2  0
 10  9  1  0
 12 11  1  0
 13 12  2  0
 14 13  1  0
 14 15  2  0
 15  7  1  0
 15 10  1  0
 16  5  1  0
 17 19  1  0
 17 16  1  0
 18 17  1  0
 20 19  1  0
 21 20  1  0
 22 21  1  0
 23 22  1  0
 24 23  1  0
 24 25  1  0
 25 20  1  0
  1 26  1  0
  3 27  1  0
  8 28  1  0
 11 29  1  0
 13 30  1  0
 17 31  1  6
 18 32  1  0
 18 33  1  0
 18 34  1  0
 19 35  1  0
 19 36  1  0
 21 37  1  0
 21 38  1  0
 22 39  1  0
 22 40  1  0
 23 41  1  0
 24 42  1  0
 24 43  1  0
 25 44  1  0
 25 45  1  0
M  ISO  8  26  14  27  14  28  14  29  14  30  14  31   8  32   8  33   8
M  ISO  8  34   8  35   8  36   8  37  13  38  13  39  13  40  13  41   5
M  ISO  4  42  13  43  13  44  13  45  13
M  END
>  <minimizedAffinity>  (1) 
-5.0074501

>  <minimizedRMSD>  (1) 
2.67828012

$$$$
