
     RDKit          3D

 37 40  0  0  1  0  0  0  0  0999 V2000
   37.5960   25.0360   34.4400 C   0  0  0  0  0  0  0  0  0  0  0  0
   38.1700   25.4340   35.6690 C   0  0  0  0  0  0  0  0  0  0  0  0
   38.2010   26.7700   35.9540 C   0  0  0  0  0  0  0  0  0  0  0  0
   37.6940   27.6640   35.0780 N   0  0  0  0  0  0  0  0  0  0  0  0
   37.1460   27.2530   33.9000 C   0  0  0  0  0  0  0  0  0  0  0  0
   37.0970   25.9480   33.5840 N   0  0  0  0  0  0  0  0  0  0  0  0
   38.6760   24.4600   36.5280 N   0  0  0  0  0  0  0  0  0  0  0  0
   38.1580   24.1670   37.7550 C   0  0  0  0  0  0  0  0  0  0  0  0
   38.8470   23.1840   38.3620 N   0  0  0  0  0  0  0  0  0  0  0  0
   39.8370   22.8420   37.4920 C   0  0  0  0  0  0  0  0  0  0  0  0
   40.8380   21.9180   37.5520 C   0  0  0  0  0  0  0  0  0  0  0  0
   41.7220   21.7500   36.5480 N   0  0  0  0  0  0  0  0  0  0  0  0
   41.5660   22.5500   35.4710 C   0  0  0  0  0  0  0  0  0  0  0  0
   40.5840   23.4490   35.4230 N   0  0  0  0  0  0  0  0  0  0  0  0
   39.7010   23.6430   36.3800 C   0  0  0  0  0  0  0  0  0  0  0  0
   36.4560   28.3810   32.6940 S   0  0  0  0  0  0  0  0  0  0  0  0
   37.0770   27.9430   31.0510 C   0  0  1  0  0  0  0  0  0  0  0  0
   36.7480   29.1200   30.1300 C   0  0  0  0  0  0  0  0  0  0  0  0
   38.5540   27.7040   31.0840 C   0  0  0  0  0  0  0  0  0  0  0  0
   38.9700   26.5040   30.2760 C   0  0  0  0  0  0  0  0  0  0  0  0
   39.9350   26.6420   29.1760 C   0  0  0  0  0  0  0  0  0  0  0  0
   40.0530   24.9360   28.5860 S   0  0  0  0  0  0  0  0  0  0  0  0
   38.8020   24.3210   29.8980 C   0  0  0  0  0  0  0  0  0  0  0  0
   38.4600   25.3030   30.5600 N   0  0  0  0  0  0  0  0  0  0  0  0
   37.5565   23.9680   34.1796 H   0  0  0  0  0  0  0  0  0  0  0  0
   38.6405   27.1185   36.9003 H   0  0  0  0  0  0  0  0  0  0  0  0
   37.2849   24.6720   38.1940 H   0  0  0  0  0  0  0  0  0  0  0  0
   40.9272   21.2886   38.4497 H   0  0  0  0  0  0  0  0  0  0  0  0
   42.2592   22.4580   34.6219 H   0  0  0  0  0  0  0  0  0  0  0  0
   36.6090   27.0140   30.6933 H   0  0  0  0  0  0  0  0  0  0  0  0
   36.5011   30.0031   30.7376 H   0  0  0  0  0  0  0  0  0  0  0  0
   37.6182   29.3432   29.4952 H   0  0  0  0  0  0  0  0  0  0  0  0
   35.8882   28.8597   29.4952 H   0  0  0  0  0  0  0  0  0  0  0  0
   39.0626   28.5922   30.6811 H   0  0  0  0  0  0  0  0  0  0  0  0
   38.8346   27.5118   32.1301 H   0  0  0  0  0  0  0  0  0  0  0  0
   40.4487   27.5428   28.8092 H   0  0  0  0  0  0  0  0  0  0  0  0
   38.4540   23.2866   30.0353 H   0  0  0  0  0  0  0  0  0  0  0  0
  1  2  2  0
  2  3  1  0
  2  7  1  0
  4  3  2  0
  5  4  1  0
  6  5  2  0
  6  1  1  0
  7  8  1  0
  8  9  2  0
 10 11  2  0
 10  9  1  0
 12 11  1  0
 13 12  2  0
 14 13  1  0
 14 15  2  0
 15  7  1  0
 15 10  1  0
 16  5  1  0
 17 19  1  0
 17 16  1  0
 18 17  1  0
 20 24  1  0
 20 19  1  0
 21 20  2  0
 22 21  1  0
 22 23  1  0
 23 24  2  0
  1 25  1  0
  3 26  1  0
  8 27  1  0
 11 28  1  0
 13 29  1  0
 17 30  1  6
 18 31  1  0
 18 32  1  0
 18 33  1  0
 19 34  1  0
 19 35  1  0
 21 36  1  0
 23 37  1  0
M  ISO  8  25  14  26  14  27  14  28  14  29  14  30   8  31   8  32   8
M  ISO  5  33   8  34   8  35   8  36  14  37  14
M  END
>  <minimizedAffinity>  (1) 
-4.88225126

>  <minimizedRMSD>  (1) 
0.985556483

$$$$
