
     RDKit          3D

 46 49  0  0  1  0  0  0  0  0999 V2000
   37.5890   25.0610   34.4470 C   0  0  0  0  0  0  0  0  0  0  0  0
   38.1630   25.4450   35.6810 C   0  0  0  0  0  0  0  0  0  0  0  0
   38.1890   26.7840   35.9910 C   0  0  0  0  0  0  0  0  0  0  0  0
   37.6710   27.6800   35.1160 N   0  0  0  0  0  0  0  0  0  0  0  0
   37.1250   27.2790   33.9330 C   0  0  0  0  0  0  0  0  0  0  0  0
   37.0830   25.9730   33.6000 N   0  0  0  0  0  0  0  0  0  0  0  0
   38.6650   24.4720   36.5240 N   0  0  0  0  0  0  0  0  0  0  0  0
   38.1670   24.1540   37.7570 C   0  0  0  0  0  0  0  0  0  0  0  0
   38.8570   23.1750   38.3440 N   0  0  0  0  0  0  0  0  0  0  0  0
   39.8420   22.8430   37.4620 C   0  0  0  0  0  0  0  0  0  0  0  0
   40.8390   21.9170   37.5150 C   0  0  0  0  0  0  0  0  0  0  0  0
   41.7270   21.7580   36.4850 N   0  0  0  0  0  0  0  0  0  0  0  0
   41.5540   22.5690   35.4190 C   0  0  0  0  0  0  0  0  0  0  0  0
   40.5680   23.4690   35.3920 N   0  0  0  0  0  0  0  0  0  0  0  0
   39.7050   23.6500   36.3520 C   0  0  0  0  0  0  0  0  0  0  0  0
   36.4310   28.4290   32.7630 S   0  0  0  0  0  0  0  0  0  0  0  0
   36.9920   27.9980   31.0950 C   0  0  1  0  0  0  0  0  0  0  0  0
   36.6710   29.2150   30.1980 C   0  0  0  0  0  0  0  0  0  0  0  0
   38.5000   27.7990   31.0900 C   0  0  0  0  0  0  0  0  0  0  0  0
   38.7420   26.6510   30.2180 N   0  0  0  0  0  0  0  0  0  0  0  0
   39.5770   27.0020   29.0840 C   0  0  0  0  0  0  0  0  0  0  0  0
   40.2540   25.7570   28.5240 C   0  0  0  0  0  0  0  0  0  0  0  0
   41.3890   25.3930   29.4580 C   0  0  0  0  0  0  0  0  0  0  0  0
   40.9540   25.8010   30.8360 C   0  0  0  0  0  0  0  0  0  0  0  0
   39.4430   25.6080   30.9490 C   0  0  0  0  0  0  0  0  0  0  0  0
   37.5561   23.9956   34.1754 H   0  0  0  0  0  0  0  0  0  0  0  0
   38.6264   27.1252   36.9409 H   0  0  0  0  0  0  0  0  0  0  0  0
   37.2968   24.6490   38.2128 H   0  0  0  0  0  0  0  0  0  0  0  0
   40.9333   21.2809   38.4075 H   0  0  0  0  0  0  0  0  0  0  0  0
   42.2359   22.4868   34.5598 H   0  0  0  0  0  0  0  0  0  0  0  0
   36.5032   27.0758   30.7476 H   0  0  0  0  0  0  0  0  0  0  0  0
   36.4413   30.0857   30.8298 H   0  0  0  0  0  0  0  0  0  0  0  0
   37.5400   29.4418   29.5629 H   0  0  0  0  0  0  0  0  0  0  0  0
   35.8032   28.9837   29.5629 H   0  0  0  0  0  0  0  0  0  0  0  0
   39.0041   28.6937   30.6957 H   0  0  0  0  0  0  0  0  0  0  0  0
   38.8916   27.6298   32.1039 H   0  0  0  0  0  0  0  0  0  0  0  0
   38.9538   27.4598   28.3017 H   0  0  0  0  0  0  0  0  0  0  0  0
   40.3490   27.7132   29.4130 H   0  0  0  0  0  0  0  0  0  0  0  0
   39.5317   24.9291   28.4711 H   0  0  0  0  0  0  0  0  0  0  0  0
   40.6347   25.9477   27.5097 H   0  0  0  0  0  0  0  0  0  0  0  0
   41.5768   24.3097   29.4239 H   0  0  0  0  0  0  0  0  0  0  0  0
   42.3211   25.9003   29.1683 H   0  0  0  0  0  0  0  0  0  0  0  0
   41.4640   25.1775   31.5851 H   0  0  0  0  0  0  0  0  0  0  0  0
   41.2118   26.8555   31.0139 H   0  0  0  0  0  0  0  0  0  0  0  0
   39.1507   25.6492   32.0087 H   0  0  0  0  0  0  0  0  0  0  0  0
   39.1754   24.6309   30.5204 H   0  0  0  0  0  0  0  0  0  0  0  0
  1  2  2  0
  2  3  1  0
  2  7  1  0
  4  3  2  0
  5  4  1  0
  6  5  2  0
  6  1  1  0
  7  8  1  0
  8  9  2  0
 10 11  2  0
 10  9  1  0
 12 11  1  0
 13 12  2  0
 14 13  1  0
 14 15  2  0
 15  7  1  0
 15 10  1  0
 16  5  1  0
 17 16  1  0
 18 17  1  0
 19 17  1  0
 20 25  1  0
 20 19  1  0
 21 20  1  0
 22 21  1  0
 22 23  1  0
 23 24  1  0
 24 25  1  0
  1 26  1  0
  3 27  1  0
  8 28  1  0
 11 29  1  0
 13 30  1  0
 17 31  1  6
 18 32  1  0
 18 33  1  0
 18 34  1  0
 19 35  1  0
 19 36  1  0
 21 37  1  0
 21 38  1  0
 22 39  1  0
 22 40  1  0
 23 41  1  0
 23 42  1  0
 24 43  1  0
 24 44  1  0
 25 45  1  0
 25 46  1  0
M  ISO  8  26  14  27  14  28  14  29  14  30  14  31   8  32   8  33   8
M  ISO  8  34   8  35   8  36   8  37  13  38  13  39  13  40  13  41  13
M  ISO  5  42  13  43  13  44  13  45  13  46  13
M  END
>  <minimizedAffinity>  (1) 
-4.78053856

>  <minimizedRMSD>  (1) 
1.05034733

$$$$
