
     RDKit          3D

 44 47  0  0  1  0  0  0  0  0999 V2000
   37.5470   25.1650   34.5690 C   0  0  0  0  0  0  0  0  0  0  0  0
   38.1590   25.5000   35.7820 C   0  0  0  0  0  0  0  0  0  0  0  0
   38.2320   26.8220   36.1110 C   0  0  0  0  0  0  0  0  0  0  0  0
   37.7210   27.7720   35.2740 N   0  0  0  0  0  0  0  0  0  0  0  0
   37.1270   27.3970   34.0920 C   0  0  0  0  0  0  0  0  0  0  0  0
   37.0430   26.1130   33.7470 N   0  0  0  0  0  0  0  0  0  0  0  0
   38.6570   24.5060   36.6020 N   0  0  0  0  0  0  0  0  0  0  0  0
   38.1800   24.1660   37.8260 C   0  0  0  0  0  0  0  0  0  0  0  0
   38.8760   23.1560   38.3830 N   0  0  0  0  0  0  0  0  0  0  0  0
   39.8260   22.8390   37.4940 C   0  0  0  0  0  0  0  0  0  0  0  0
   40.8380   21.9040   37.4870 C   0  0  0  0  0  0  0  0  0  0  0  0
   41.6970   21.7650   36.4610 N   0  0  0  0  0  0  0  0  0  0  0  0
   41.5260   22.6010   35.4080 C   0  0  0  0  0  0  0  0  0  0  0  0
   40.5490   23.5030   35.4160 N   0  0  0  0  0  0  0  0  0  0  0  0
   39.6850   23.6720   36.4030 C   0  0  0  0  0  0  0  0  0  0  0  0
   36.4370   28.5950   32.9750 S   0  0  0  0  0  0  0  0  0  0  0  0
   36.8700   28.1480   31.2880 C   0  0  1  0  0  0  0  0  0  0  0  0
   36.5030   29.3260   30.3870 C   0  0  0  0  0  0  0  0  0  0  0  0
   38.3050   27.7890   31.1400 C   0  0  0  0  0  0  0  0  0  0  0  0
   38.6690   26.8000   30.2110 N   0  0  0  0  0  0  0  0  0  0  0  0
   39.9030   27.1070   29.4980 C   0  0  0  0  0  0  0  0  0  0  0  0
   41.0150   26.1770   29.9710 C   0  0  0  0  0  0  0  0  0  0  0  0
   40.7450   24.8570   29.6050 O   0  0  0  0  0  0  0  0  0  0  0  0
   39.3710   24.6360   29.5060 C   0  0  0  0  0  0  0  0  0  0  0  0
   38.5990   25.4380   30.5680 C   0  0  0  0  0  0  0  0  0  0  0  0
   37.4743   24.1068   34.2777 H   0  0  0  0  0  0  0  0  0  0  0  0
   38.7056   27.1245   37.0566 H   0  0  0  0  0  0  0  0  0  0  0  0
   37.3229   24.6588   38.3083 H   0  0  0  0  0  0  0  0  0  0  0  0
   40.9484   21.2421   38.3586 H   0  0  0  0  0  0  0  0  0  0  0  0
   42.1998   22.5329   34.5412 H   0  0  0  0  0  0  0  0  0  0  0  0
   36.3091   27.2467   30.9997 H   0  0  0  0  0  0  0  0  0  0  0  0
   36.2330   30.1926   31.0083 H   0  0  0  0  0  0  0  0  0  0  0  0
   37.3634   29.5839   29.7520 H   0  0  0  0  0  0  0  0  0  0  0  0
   35.6484   29.0496   29.7520 H   0  0  0  0  0  0  0  0  0  0  0  0
   38.8394   28.7081   30.8578 H   0  0  0  0  0  0  0  0  0  0  0  0
   38.5668   27.3458   32.1121 H   0  0  0  0  0  0  0  0  0  0  0  0
   40.1899   28.1503   29.6961 H   0  0  0  0  0  0  0  0  0  0  0  0
   39.7447   26.9660   28.4186 H   0  0  0  0  0  0  0  0  0  0  0  0
   41.9658   26.4905   29.5154 H   0  0  0  0  0  0  0  0  0  0  0  0
   41.0797   26.2332   31.0677 H   0  0  0  0  0  0  0  0  0  0  0  0
   39.0296   24.9431   28.5065 H   0  0  0  0  0  0  0  0  0  0  0  0
   39.1783   23.5656   29.6706 H   0  0  0  0  0  0  0  0  0  0  0  0
   39.0553   25.2860   31.5573 H   0  0  0  0  0  0  0  0  0  0  0  0
   37.5515   25.1055   30.6159 H   0  0  0  0  0  0  0  0  0  0  0  0
  1  2  2  0
  2  3  1  0
  2  7  1  0
  4  3  2  0
  5  4  1  0
  6  5  2  0
  6  1  1  0
  7  8  1  0
  8  9  2  0
 10  9  1  0
 11 10  2  0
 12 11  1  0
 13 14  1  0
 13 12  2  0
 14 15  2  0
 15  7  1  0
 15 10  1  0
 16  5  1  0
 17 16  1  0
 18 17  1  0
 19 17  1  0
 20 25  1  0
 20 19  1  0
 21 22  1  0
 21 20  1  0
 23 22  1  0
 24 23  1  0
 24 25  1  0
  1 26  1  0
  3 27  1  0
  8 28  1  0
 11 29  1  0
 13 30  1  0
 17 31  1  6
 18 32  1  0
 18 33  1  0
 18 34  1  0
 19 35  1  0
 19 36  1  0
 21 37  1  0
 21 38  1  0
 22 39  1  0
 22 40  1  0
 24 41  1  0
 24 42  1  0
 25 43  1  0
 25 44  1  0
M  ISO  8  26  14  27  14  28  14  29  14  30  14  31   8  32   8  33   8
M  ISO  8  34   8  35   8  36   8  37  13  38  13  39  13  40  13  41  13
M  ISO  3  42  13  43  13  44  13
M  END
>  <minimizedAffinity>  (1) 
-4.77939844

>  <minimizedRMSD>  (1) 
0.722603798

$$$$
