
     RDKit          3D

 32 34  0  0  1  0  0  0  0  0999 V2000
   37.6400   25.0350   34.3980 C   0  0  0  0  0  0  0  0  0  0  0  0
   38.1630   25.4020   35.6450 C   0  0  0  0  0  0  0  0  0  0  0  0
   38.1520   26.7480   35.9600 C   0  0  0  0  0  0  0  0  0  0  0  0
   37.6470   27.6410   35.0730 N   0  0  0  0  0  0  0  0  0  0  0  0
   37.1490   27.2290   33.8680 C   0  0  0  0  0  0  0  0  0  0  0  0
   37.1460   25.9390   33.5340 N   0  0  0  0  0  0  0  0  0  0  0  0
   38.6670   24.4410   36.5140 N   0  0  0  0  0  0  0  0  0  0  0  0
   38.1580   24.1490   37.7400 C   0  0  0  0  0  0  0  0  0  0  0  0
   38.8620   23.1770   38.3370 N   0  0  0  0  0  0  0  0  0  0  0  0
   39.8420   22.8400   37.4790 C   0  0  0  0  0  0  0  0  0  0  0  0
   40.8440   21.9260   37.5490 C   0  0  0  0  0  0  0  0  0  0  0  0
   41.7400   21.7570   36.5310 N   0  0  0  0  0  0  0  0  0  0  0  0
   41.5740   22.5520   35.4470 C   0  0  0  0  0  0  0  0  0  0  0  0
   40.5810   23.4450   35.3990 N   0  0  0  0  0  0  0  0  0  0  0  0
   39.7110   23.6290   36.3530 C   0  0  0  0  0  0  0  0  0  0  0  0
   36.4800   28.3830   32.6850 S   0  0  0  0  0  0  0  0  0  0  0  0
   37.0930   27.9620   31.0470 C   0  0  1  0  0  0  0  0  0  0  0  0
   36.7540   29.1300   30.1170 C   0  0  0  0  0  0  0  0  0  0  0  0
   38.5980   27.7690   31.0660 C   0  0  0  0  0  0  0  0  0  0  0  0
   38.8440   26.4020   30.9320 O   0  0  0  0  0  0  0  0  0  0  0  0
   37.6333   23.9717   34.1165 H   0  0  0  0  0  0  0  0  0  0  0  0
   38.5509   27.0930   36.9253 H   0  0  0  0  0  0  0  0  0  0  0  0
   37.2827   24.6455   38.1843 H   0  0  0  0  0  0  0  0  0  0  0  0
   40.9371   21.3037   38.4512 H   0  0  0  0  0  0  0  0  0  0  0  0
   42.2649   22.4615   34.5959 H   0  0  0  0  0  0  0  0  0  0  0  0
   36.6297   27.0242   30.7066 H   0  0  0  0  0  0  0  0  0  0  0  0
   36.4972   30.0147   30.7181 H   0  0  0  0  0  0  0  0  0  0  0  0
   37.6232   29.3576   29.4824 H   0  0  0  0  0  0  0  0  0  0  0  0
   35.8981   28.8569   29.4824 H   0  0  0  0  0  0  0  0  0  0  0  0
   39.0582   28.3177   30.2310 H   0  0  0  0  0  0  0  0  0  0  0  0
   39.0273   28.1513   32.0039 H   0  0  0  0  0  0  0  0  0  0  0  0
   38.9181   25.9905   31.8294 H   0  0  0  0  0  0  0  0  0  0  0  0
  1  2  2  0
  2  3  1  0
  2  7  1  0
  4  3  2  0
  5  4  1  0
  6  5  2  0
  6  1  1  0
  7  8  1  0
  8  9  2  0
 10 11  2  0
 10  9  1  0
 12 11  1  0
 13 12  2  0
 14 13  1  0
 14 15  2  0
 15  7  1  0
 15 10  1  0
 16  5  1  0
 17 19  1  0
 17 16  1  0
 18 17  1  0
 20 19  1  0
  1 21  1  0
  3 22  1  0
  8 23  1  0
 11 24  1  0
 13 25  1  0
 17 26  1  6
 18 27  1  0
 18 28  1  0
 18 29  1  0
 19 30  1  0
 19 31  1  0
 20 32  1  0
M  ISO  8  21  14  22  14  23  14  24  14  25  14  26   8  27   8  28   8
M  ISO  4  29   8  30   8  31   8  32   3
M  END
>  <minimizedAffinity>  (1) 
-4.5119338

>  <minimizedRMSD>  (1) 
0.359666497

$$$$
