
     RDKit          3D

 32 34  0  0  1  0  0  0  0  0999 V2000
   37.6350   25.0140   34.3960 C   0  0  0  0  0  0  0  0  0  0  0  0
   38.1710   25.4110   35.6460 C   0  0  0  0  0  0  0  0  0  0  0  0
   38.1700   26.7450   35.9490 C   0  0  0  0  0  0  0  0  0  0  0  0
   37.6650   27.6380   35.0630 N   0  0  0  0  0  0  0  0  0  0  0  0
   37.1530   27.2290   33.8610 C   0  0  0  0  0  0  0  0  0  0  0  0
   37.1390   25.9250   33.5330 N   0  0  0  0  0  0  0  0  0  0  0  0
   38.6750   24.4500   36.5120 N   0  0  0  0  0  0  0  0  0  0  0  0
   38.1610   24.1540   37.7370 C   0  0  0  0  0  0  0  0  0  0  0  0
   38.8470   23.1810   38.3540 N   0  0  0  0  0  0  0  0  0  0  0  0
   39.8370   22.8380   37.4960 C   0  0  0  0  0  0  0  0  0  0  0  0
   40.8460   21.9220   37.5560 C   0  0  0  0  0  0  0  0  0  0  0  0
   41.7370   21.7510   36.5570 N   0  0  0  0  0  0  0  0  0  0  0  0
   41.5770   22.5530   35.4640 C   0  0  0  0  0  0  0  0  0  0  0  0
   40.5850   23.4430   35.4210 N   0  0  0  0  0  0  0  0  0  0  0  0
   39.7060   23.6340   36.3720 C   0  0  0  0  0  0  0  0  0  0  0  0
   36.4790   28.3540   32.6630 S   0  0  0  0  0  0  0  0  0  0  0  0
   37.1320   27.9830   31.0410 C   0  0  1  0  0  0  0  0  0  0  0  0
   36.7460   29.1350   30.1100 C   0  0  0  0  0  0  0  0  0  0  0  0
   38.6270   27.8190   31.0590 C   0  0  0  0  0  0  0  0  0  0  0  0
   39.3850   28.3160   29.4990 S   0  0  0  0  0  0  0  0  0  0  0  0
   37.6230   23.9479   34.1252 H   0  0  0  0  0  0  0  0  0  0  0  0
   38.5781   27.0923   36.9096 H   0  0  0  0  0  0  0  0  0  0  0  0
   37.2835   24.6555   38.1711 H   0  0  0  0  0  0  0  0  0  0  0  0
   40.9372   21.2966   38.4563 H   0  0  0  0  0  0  0  0  0  0  0  0
   42.2700   22.4646   34.6143 H   0  0  0  0  0  0  0  0  0  0  0  0
   36.7100   27.0289   30.6922 H   0  0  0  0  0  0  0  0  0  0  0  0
   36.4531   30.0091   30.7102 H   0  0  0  0  0  0  0  0  0  0  0  0
   37.6053   29.3973   29.4754 H   0  0  0  0  0  0  0  0  0  0  0  0
   35.9021   28.8266   29.4754 H   0  0  0  0  0  0  0  0  0  0  0  0
   39.0418   28.4385   31.8678 H   0  0  0  0  0  0  0  0  0  0  0  0
   38.8483   26.7533   31.2179 H   0  0  0  0  0  0  0  0  0  0  0  0
   40.5108   29.0542   29.7531 H   0  0  0  0  0  0  0  0  0  0  0  0
  1  2  2  0
  2  3  1  0
  2  7  1  0
  4  3  2  0
  5  4  1  0
  6  5  2  0
  6  1  1  0
  7  8  1  0
  8  9  2  0
 10 11  2  0
 10  9  1  0
 12 11  1  0
 13 12  2  0
 14 13  1  0
 14 15  2  0
 15  7  1  0
 15 10  1  0
 16  5  1  0
 17 19  1  0
 17 16  1  0
 18 17  1  0
 20 19  1  0
  1 21  1  0
  3 22  1  0
  8 23  1  0
 11 24  1  0
 13 25  1  0
 17 26  1  6
 18 27  1  0
 18 28  1  0
 18 29  1  0
 19 30  1  0
 19 31  1  0
 20 32  1  0
M  ISO  8  21  14  22  14  23  14  24  14  25  14  26   8  27   8  28   8
M  ISO  4  29   8  30   8  31   8  32  11
M  END
>  <minimizedAffinity>  (1) 
-4.49522305

>  <minimizedRMSD>  (1) 
0.531762064

$$$$
