
     RDKit          3D

 33 35  0  0  1  0  0  0  0  0999 V2000
   37.6360   25.0170   34.4070 C   0  0  0  0  0  0  0  0  0  0  0  0
   38.1680   25.4160   35.6470 C   0  0  0  0  0  0  0  0  0  0  0  0
   38.1680   26.7540   35.9480 C   0  0  0  0  0  0  0  0  0  0  0  0
   37.6630   27.6390   35.0500 N   0  0  0  0  0  0  0  0  0  0  0  0
   37.1560   27.2140   33.8570 C   0  0  0  0  0  0  0  0  0  0  0  0
   37.1400   25.9150   33.5330 N   0  0  0  0  0  0  0  0  0  0  0  0
   38.6670   24.4530   36.5150 N   0  0  0  0  0  0  0  0  0  0  0  0
   38.1500   24.1610   37.7440 C   0  0  0  0  0  0  0  0  0  0  0  0
   38.8520   23.1810   38.3530 N   0  0  0  0  0  0  0  0  0  0  0  0
   39.8350   22.8400   37.4970 C   0  0  0  0  0  0  0  0  0  0  0  0
   40.8480   21.9210   37.5560 C   0  0  0  0  0  0  0  0  0  0  0  0
   41.7350   21.7520   36.5570 N   0  0  0  0  0  0  0  0  0  0  0  0
   41.5740   22.5500   35.4710 C   0  0  0  0  0  0  0  0  0  0  0  0
   40.5860   23.4370   35.4280 N   0  0  0  0  0  0  0  0  0  0  0  0
   39.7010   23.6330   36.3810 C   0  0  0  0  0  0  0  0  0  0  0  0
   36.4860   28.3510   32.6590 S   0  0  0  0  0  0  0  0  0  0  0  0
   37.1260   27.9640   31.0330 C   0  0  1  0  0  0  0  0  0  0  0  0
   36.7650   29.1190   30.1010 C   0  0  0  0  0  0  0  0  0  0  0  0
   38.6370   27.8090   31.0690 C   0  0  0  0  0  0  0  0  0  0  0  0
   39.2570   28.4300   29.9270 N   0  0  0  0  0  0  0  0  0  0  0  0
   37.6247   23.9487   34.1452 H   0  0  0  0  0  0  0  0  0  0  0  0
   38.5732   27.1071   36.9077 H   0  0  0  0  0  0  0  0  0  0  0  0
   37.2734   24.6602   38.1825 H   0  0  0  0  0  0  0  0  0  0  0  0
   40.9411   21.2953   38.4559 H   0  0  0  0  0  0  0  0  0  0  0  0
   42.2663   22.4617   34.6207 H   0  0  0  0  0  0  0  0  0  0  0  0
   36.6901   27.0168   30.6826 H   0  0  0  0  0  0  0  0  0  0  0  0
   36.4896   30.0003   30.6989 H   0  0  0  0  0  0  0  0  0  0  0  0
   37.6300   29.3622   29.4664 H   0  0  0  0  0  0  0  0  0  0  0  0
   35.9155   28.8263   29.4664 H   0  0  0  0  0  0  0  0  0  0  0  0
   39.0231   28.2791   31.9855 H   0  0  0  0  0  0  0  0  0  0  0  0
   38.8751   26.7352   31.0506 H   0  0  0  0  0  0  0  0  0  0  0  0
   39.9488   29.1230   30.2464 H   0  0  0  0  0  0  0  0  0  0  0  0
   39.7279   27.7114   29.3589 H   0  0  0  0  0  0  0  0  0  0  0  0
  1  2  2  0
  2  3  1  0
  2  7  1  0
  4  3  2  0
  5  4  1  0
  6  5  2  0
  6  1  1  0
  7  8  1  0
  8  9  2  0
 10 11  2  0
 10  9  1  0
 12 11  1  0
 13 12  2  0
 14 13  1  0
 14 15  2  0
 15  7  1  0
 15 10  1  0
 16  5  1  0
 17 19  1  0
 17 16  1  0
 18 17  1  0
 20 19  1  0
  1 21  1  0
  3 22  1  0
  8 23  1  0
 11 24  1  0
 13 25  1  0
 17 26  1  6
 18 27  1  0
 18 28  1  0
 18 29  1  0
 19 30  1  0
 19 31  1  0
 20 32  1  0
 20 33  1  0
M  ISO  8  21  14  22  14  23  14  24  14  25  14  26   8  27   8  28   8
M  ISO  5  29   8  30   8  31   8  32   5  33   5
M  END
>  <minimizedAffinity>  (1) 
-4.4922657

>  <minimizedRMSD>  (1) 
0.382296622

$$$$
