
     RDKit          3D

 38 41  0  0  1  0  0  0  0  0999 V2000
   37.5920   25.0580   34.4550 C   0  0  0  0  0  0  0  0  0  0  0  0
   38.1670   25.4450   35.6760 C   0  0  0  0  0  0  0  0  0  0  0  0
   38.2040   26.7820   35.9750 C   0  0  0  0  0  0  0  0  0  0  0  0
   37.6840   27.6670   35.0800 N   0  0  0  0  0  0  0  0  0  0  0  0
   37.1350   27.2580   33.9060 C   0  0  0  0  0  0  0  0  0  0  0  0
   37.0890   25.9650   33.5960 N   0  0  0  0  0  0  0  0  0  0  0  0
   38.6740   24.4670   36.5300 N   0  0  0  0  0  0  0  0  0  0  0  0
   38.1640   24.1680   37.7600 C   0  0  0  0  0  0  0  0  0  0  0  0
   38.8580   23.1830   38.3550 N   0  0  0  0  0  0  0  0  0  0  0  0
   39.8320   22.8430   37.4890 C   0  0  0  0  0  0  0  0  0  0  0  0
   40.8380   21.9160   37.5330 C   0  0  0  0  0  0  0  0  0  0  0  0
   41.7220   21.7550   36.5080 N   0  0  0  0  0  0  0  0  0  0  0  0
   41.5560   22.5590   35.4410 C   0  0  0  0  0  0  0  0  0  0  0  0
   40.5720   23.4580   35.4110 N   0  0  0  0  0  0  0  0  0  0  0  0
   39.7050   23.6440   36.3700 C   0  0  0  0  0  0  0  0  0  0  0  0
   36.4510   28.4150   32.7230 S   0  0  0  0  0  0  0  0  0  0  0  0
   37.0260   27.9640   31.0780 C   0  0  1  0  0  0  0  0  0  0  0  0
   36.7130   29.1600   30.1580 C   0  0  0  0  0  0  0  0  0  0  0  0
   38.5340   27.7660   31.0780 C   0  0  0  0  0  0  0  0  0  0  0  0
   38.9270   26.5860   30.3410 N   0  0  0  0  0  0  0  0  0  0  0  0
   38.7000   25.2910   30.5280 C   0  0  0  0  0  0  0  0  0  0  0  0
   39.3230   24.5950   29.5030 C   0  0  0  0  0  0  0  0  0  0  0  0
   39.9160   25.5160   28.7210 N   0  0  0  0  0  0  0  0  0  0  0  0
   39.6730   26.7340   29.2350 C   0  0  0  0  0  0  0  0  0  0  0  0
   37.5515   23.9901   34.1942 H   0  0  0  0  0  0  0  0  0  0  0  0
   38.6451   27.1334   36.9194 H   0  0  0  0  0  0  0  0  0  0  0  0
   37.2940   24.6703   38.2082 H   0  0  0  0  0  0  0  0  0  0  0  0
   40.9364   21.2799   38.4250 H   0  0  0  0  0  0  0  0  0  0  0  0
   42.2402   22.4732   34.5840 H   0  0  0  0  0  0  0  0  0  0  0  0
   36.5394   27.0339   30.7492 H   0  0  0  0  0  0  0  0  0  0  0  0
   36.4818   30.0435   30.7711 H   0  0  0  0  0  0  0  0  0  0  0  0
   37.5858   29.3725   29.5231 H   0  0  0  0  0  0  0  0  0  0  0  0
   35.8480   28.9177   29.5231 H   0  0  0  0  0  0  0  0  0  0  0  0
   39.0074   28.6458   30.6177 H   0  0  0  0  0  0  0  0  0  0  0  0
   38.8591   27.6381   32.1211 H   0  0  0  0  0  0  0  0  0  0  0  0
   38.1199   24.8483   31.3511 H   0  0  0  0  0  0  0  0  0  0  0  0
   39.3309   23.5047   29.3577 H   0  0  0  0  0  0  0  0  0  0  0  0
   40.0256   27.6897   28.8198 H   0  0  0  0  0  0  0  0  0  0  0  0
  1  2  2  0
  2  3  1  0
  2  7  1  0
  4  3  2  0
  5  4  1  0
  6  5  2  0
  6  1  1  0
  7  8  1  0
  8  9  2  0
 10 11  2  0
 10  9  1  0
 12 11  1  0
 13 12  2  0
 14 13  1  0
 14 15  2  0
 15  7  1  0
 15 10  1  0
 16  5  1  0
 17 16  1  0
 18 17  1  0
 19 17  1  0
 20 21  1  0
 20 19  1  0
 22 21  2  0
 23 24  2  0
 23 22  1  0
 24 20  1  0
  1 25  1  0
  3 26  1  0
  8 27  1  0
 11 28  1  0
 13 29  1  0
 17 30  1  6
 18 31  1  0
 18 32  1  0
 18 33  1  0
 19 34  1  0
 19 35  1  0
 21 36  1  0
 22 37  1  0
 24 38  1  0
M  ISO  8  25  14  26  14  27  14  28  14  29  14  30   8  31   8  32   8
M  ISO  6  33   8  34   8  35   8  36  14  37  14  38  14
M  END
>  <minimizedAffinity>  (1) 
-4.7975502

>  <minimizedRMSD>  (1) 
0.948963165

$$$$
