
     RDKit          3D

 39 42  0  0  1  0  0  0  0  0999 V2000
   37.5870   25.0630   34.4610 C   0  0  0  0  0  0  0  0  0  0  0  0
   38.1530   25.4400   35.6780 C   0  0  0  0  0  0  0  0  0  0  0  0
   38.1830   26.7760   35.9790 C   0  0  0  0  0  0  0  0  0  0  0  0
   37.6640   27.6660   35.0870 N   0  0  0  0  0  0  0  0  0  0  0  0
   37.1220   27.2720   33.9160 C   0  0  0  0  0  0  0  0  0  0  0  0
   37.0890   25.9870   33.6190 N   0  0  0  0  0  0  0  0  0  0  0  0
   38.6620   24.4640   36.5350 N   0  0  0  0  0  0  0  0  0  0  0  0
   38.1560   24.1680   37.7680 C   0  0  0  0  0  0  0  0  0  0  0  0
   38.8530   23.1870   38.3610 N   0  0  0  0  0  0  0  0  0  0  0  0
   39.8310   22.8450   37.4860 C   0  0  0  0  0  0  0  0  0  0  0  0
   40.8300   21.9250   37.5350 C   0  0  0  0  0  0  0  0  0  0  0  0
   41.7060   21.7620   36.5150 N   0  0  0  0  0  0  0  0  0  0  0  0
   41.5390   22.5630   35.4410 C   0  0  0  0  0  0  0  0  0  0  0  0
   40.5620   23.4560   35.4050 N   0  0  0  0  0  0  0  0  0  0  0  0
   39.6900   23.6460   36.3720 C   0  0  0  0  0  0  0  0  0  0  0  0
   36.4340   28.4250   32.7270 S   0  0  0  0  0  0  0  0  0  0  0  0
   37.0270   27.9870   31.0940 C   0  0  1  0  0  0  0  0  0  0  0  0
   36.7170   29.1810   30.1650 C   0  0  0  0  0  0  0  0  0  0  0  0
   38.5210   27.7570   31.0990 C   0  0  0  0  0  0  0  0  0  0  0  0
   38.9320   26.6230   30.3340 N   0  0  0  0  0  0  0  0  0  0  0  0
   38.7900   25.3400   30.5530 C   0  0  0  0  0  0  0  0  0  0  0  0
   39.3670   24.6310   29.5030 C   0  0  0  0  0  0  0  0  0  0  0  0
   39.8490   25.5630   28.6620 N   0  0  0  0  0  0  0  0  0  0  0  0
   39.5830   26.7660   29.1710 C   0  0  0  0  0  0  0  0  0  0  0  0
   39.9990   27.8980   28.4570 O   0  0  0  0  0  0  0  0  0  0  0  0
   37.5471   23.9987   34.1861 H   0  0  0  0  0  0  0  0  0  0  0  0
   38.6194   27.1252   36.9264 H   0  0  0  0  0  0  0  0  0  0  0  0
   37.2870   24.6702   38.2181 H   0  0  0  0  0  0  0  0  0  0  0  0
   40.9302   21.2936   38.4302 H   0  0  0  0  0  0  0  0  0  0  0  0
   42.2235   22.4725   34.5847 H   0  0  0  0  0  0  0  0  0  0  0  0
   36.5381   27.0604   30.7587 H   0  0  0  0  0  0  0  0  0  0  0  0
   36.4866   30.0684   30.7729 H   0  0  0  0  0  0  0  0  0  0  0  0
   37.5911   29.3883   29.5302 H   0  0  0  0  0  0  0  0  0  0  0  0
   35.8525   28.9369   29.5302 H   0  0  0  0  0  0  0  0  0  0  0  0
   39.0109   28.6507   30.6851 H   0  0  0  0  0  0  0  0  0  0  0  0
   38.8118   27.5625   32.1419 H   0  0  0  0  0  0  0  0  0  0  0  0
   38.2939   24.8934   31.4273 H   0  0  0  0  0  0  0  0  0  0  0  0
   39.4179   23.5384   29.3860 H   0  0  0  0  0  0  0  0  0  0  0  0
   39.8141   28.8032   28.8127 H   0  0  0  0  0  0  0  0  0  0  0  0
  1  2  2  0
  2  3  1  0
  2  7  1  0
  4  3  2  0
  5  4  1  0
  6  5  2  0
  6  1  1  0
  7  8  1  0
  8  9  2  0
 10 11  2  0
 10  9  1  0
 12 11  1  0
 13 12  2  0
 14 13  1  0
 14 15  2  0
 15  7  1  0
 15 10  1  0
 16  5  1  0
 17 19  1  0
 17 16  1  0
 18 17  1  0
 20 21  1  0
 20 19  1  0
 22 21  2  0
 23 24  2  0
 23 22  1  0
 24 20  1  0
 25 24  1  0
  1 26  1  0
  3 27  1  0
  8 28  1  0
 11 29  1  0
 13 30  1  0
 17 31  1  6
 18 32  1  0
 18 33  1  0
 18 34  1  0
 19 35  1  0
 19 36  1  0
 21 37  1  0
 22 38  1  0
 25 39  1  0
M  ISO  8  26  14  27  14  28  14  29  14  30  14  31   8  32   8  33   8
M  ISO  6  34   8  35   8  36   8  37  14  38  14  39   3
M  END
>  <minimizedAffinity>  (1) 
-4.90020847

>  <minimizedRMSD>  (1) 
0.0587582402

$$$$
