
     RDKit          3D

 40 43  0  0  1  0  0  0  0  0999 V2000
   37.5920   25.0680   34.4660 C   0  0  0  0  0  0  0  0  0  0  0  0
   38.1650   25.4580   35.6890 C   0  0  0  0  0  0  0  0  0  0  0  0
   38.1940   26.7860   35.9840 C   0  0  0  0  0  0  0  0  0  0  0  0
   37.6700   27.6690   35.0910 N   0  0  0  0  0  0  0  0  0  0  0  0
   37.1240   27.2720   33.9220 C   0  0  0  0  0  0  0  0  0  0  0  0
   37.0880   25.9870   33.6200 N   0  0  0  0  0  0  0  0  0  0  0  0
   38.6740   24.4740   36.5340 N   0  0  0  0  0  0  0  0  0  0  0  0
   38.1560   24.1680   37.7670 C   0  0  0  0  0  0  0  0  0  0  0  0
   38.8480   23.1820   38.3520 N   0  0  0  0  0  0  0  0  0  0  0  0
   39.8320   22.8410   37.4810 C   0  0  0  0  0  0  0  0  0  0  0  0
   40.8300   21.9180   37.5270 C   0  0  0  0  0  0  0  0  0  0  0  0
   41.7100   21.7600   36.5120 N   0  0  0  0  0  0  0  0  0  0  0  0
   41.5500   22.5700   35.4450 C   0  0  0  0  0  0  0  0  0  0  0  0
   40.5670   23.4710   35.4160 N   0  0  0  0  0  0  0  0  0  0  0  0
   39.7000   23.6530   36.3730 C   0  0  0  0  0  0  0  0  0  0  0  0
   36.4300   28.4280   32.7360 S   0  0  0  0  0  0  0  0  0  0  0  0
   37.0040   27.9730   31.0920 C   0  0  1  0  0  0  0  0  0  0  0  0
   36.7060   29.1820   30.1700 C   0  0  0  0  0  0  0  0  0  0  0  0
   38.5130   27.7620   31.0970 C   0  0  0  0  0  0  0  0  0  0  0  0
   38.9300   26.6310   30.3330 N   0  0  0  0  0  0  0  0  0  0  0  0
   38.8190   25.3470   30.5700 C   0  0  0  0  0  0  0  0  0  0  0  0
   39.3870   24.6410   29.5130 C   0  0  0  0  0  0  0  0  0  0  0  0
   39.8300   25.5730   28.6570 N   0  0  0  0  0  0  0  0  0  0  0  0
   39.5520   26.7800   29.1570 C   0  0  0  0  0  0  0  0  0  0  0  0
   39.9060   27.9910   28.4660 N   0  0  0  0  0  0  0  0  0  0  0  0
   37.5549   24.0020   34.1973 H   0  0  0  0  0  0  0  0  0  0  0  0
   38.6335   27.1398   36.9283 H   0  0  0  0  0  0  0  0  0  0  0  0
   37.2853   24.6677   38.2167 H   0  0  0  0  0  0  0  0  0  0  0  0
   40.9245   21.2798   38.4179 H   0  0  0  0  0  0  0  0  0  0  0  0
   42.2373   22.4865   34.5902 H   0  0  0  0  0  0  0  0  0  0  0  0
   36.5090   27.0486   30.7597 H   0  0  0  0  0  0  0  0  0  0  0  0
   36.4878   30.0673   30.7853 H   0  0  0  0  0  0  0  0  0  0  0  0
   37.5814   29.3835   29.5351 H   0  0  0  0  0  0  0  0  0  0  0  0
   35.8373   28.9536   29.5351 H   0  0  0  0  0  0  0  0  0  0  0  0
   38.9920   28.6602   30.6800 H   0  0  0  0  0  0  0  0  0  0  0  0
   38.8115   27.5774   32.1395 H   0  0  0  0  0  0  0  0  0  0  0  0
   38.3526   24.8994   31.4600 H   0  0  0  0  0  0  0  0  0  0  0  0
   39.4575   23.5488   29.4033 H   0  0  0  0  0  0  0  0  0  0  0  0
   39.6768   28.9059   28.8799 H   0  0  0  0  0  0  0  0  0  0  0  0
   40.3887   27.9432   27.5574 H   0  0  0  0  0  0  0  0  0  0  0  0
  1  2  2  0
  2  3  1  0
  2  7  1  0
  4  3  2  0
  5  4  1  0
  6  5  2  0
  6  1  1  0
  7  8  1  0
  8  9  2  0
 10 11  2  0
 10  9  1  0
 12 11  1  0
 13 12  2  0
 14 13  1  0
 14 15  2  0
 15  7  1  0
 15 10  1  0
 16  5  1  0
 17 19  1  0
 17 16  1  0
 18 17  1  0
 20 21  1  0
 20 19  1  0
 22 21  2  0
 23 24  2  0
 23 22  1  0
 24 20  1  0
 25 24  1  0
  1 26  1  0
  3 27  1  0
  8 28  1  0
 11 29  1  0
 13 30  1  0
 17 31  1  6
 18 32  1  0
 18 33  1  0
 18 34  1  0
 19 35  1  0
 19 36  1  0
 21 37  1  0
 22 38  1  0
 25 39  1  0
 25 40  1  0
M  ISO  8  26  14  27  14  28  14  29  14  30  14  31   8  32   8  33   8
M  ISO  5  34   8  35   8  36   8  37  14  38  14
M  END
>  <minimizedAffinity>  (1) 
-4.89916849

>  <minimizedRMSD>  (1) 
0.0779286623

$$$$
