
     RDKit          3D

 22 22  0  0  0  0  0  0  0  0999 V2000
   38.0620   24.5230   35.7720 C   0  0  0  0  0  0  0  0  0  0  0  0
   39.3080   25.0850   35.4410 C   0  0  0  0  0  0  0  0  0  0  0  0
   40.4110   24.2160   35.4060 C   0  0  0  0  0  0  0  0  0  0  0  0
   40.2040   22.8880   35.6970 N   0  0  0  0  0  0  0  0  0  0  0  0
   38.9970   22.4000   36.0070 C   0  0  0  0  0  0  0  0  0  0  0  0
   37.9230   23.2180   36.0450 N   0  0  0  0  0  0  0  0  0  0  0  0
   41.7710   24.7190   35.0660 C   0  0  0  0  0  0  0  0  0  0  0  0
   39.4700   26.5210   35.1380 C   0  0  0  0  0  0  0  0  0  0  0  0
   39.1660   26.8590   33.6970 C   0  0  0  0  0  0  0  0  0  0  0  0
   38.5500   27.3080   36.0320 C   0  0  0  0  0  0  0  0  0  0  0  0
   37.1756   25.1734   35.8079 H   0  0  0  0  0  0  0  0  0  0  0  0
   38.8793   21.3296   36.2315 H   0  0  0  0  0  0  0  0  0  0  0  0
   42.3279   24.9250   35.9920 H   0  0  0  0  0  0  0  0  0  0  0  0
   42.3063   23.9594   34.4774 H   0  0  0  0  0  0  0  0  0  0  0  0
   41.6832   25.6441   34.4774 H   0  0  0  0  0  0  0  0  0  0  0  0
   40.5245   26.7794   35.3146 H   0  0  0  0  0  0  0  0  0  0  0  0
   38.4308   27.6764   33.6593 H   0  0  0  0  0  0  0  0  0  0  0  0
   40.0907   27.1739   33.1913 H   0  0  0  0  0  0  0  0  0  0  0  0
   38.7551   25.9727   33.1913 H   0  0  0  0  0  0  0  0  0  0  0  0
   38.7940   27.0993   37.0841 H   0  0  0  0  0  0  0  0  0  0  0  0
   38.6756   28.3825   35.8327 H   0  0  0  0  0  0  0  0  0  0  0  0
   37.5080   27.0175   35.8327 H   0  0  0  0  0  0  0  0  0  0  0  0
  1  6  2  0
  2  1  1  0
  3  2  2  0
  3  4  1  0
  4  5  2  0
  5  6  1  0
  7  3  1  0
  8  2  1  0
  8 10  1  0
  9  8  1  0
  1 11  1  0
  5 12  1  0
  7 13  1  0
  7 14  1  0
  7 15  1  0
  8 16  1  0
  9 17  1  0
  9 18  1  0
  9 19  1  0
 10 20  1  0
 10 21  1  0
 10 22  1  0
M  ISO  8  11  14  12  14  13   8  14   8  15   8  16   8  17   8  18   8
M  ISO  4  19   8  20   8  21   8  22   8
M  END
>  <minimizedAffinity>  (1) 
-3.13442755

>  <minimizedRMSD>  (1) 
4.23828411

$$$$
