
     RDKit          3D

 20 21  0  0  0  0  0  0  0  0999 V2000
   37.9150   24.7770   33.9760 C   0  0  0  0  0  0  0  0  0  0  0  0
   37.5770   26.1360   33.8820 C   0  0  0  0  0  0  0  0  0  0  0  0
   36.8240   26.5580   32.7700 C   0  0  0  0  0  0  0  0  0  0  0  0
   36.4710   25.6120   31.8570 N   0  0  0  0  0  0  0  0  0  0  0  0
   36.8110   24.3130   31.9770 C   0  0  0  0  0  0  0  0  0  0  0  0
   37.5340   23.9070   33.0420 N   0  0  0  0  0  0  0  0  0  0  0  0
   36.4380   27.9850   32.6210 C   0  0  0  0  0  0  0  0  0  0  0  0
   37.9500   27.1720   34.8590 C   0  0  0  0  0  0  0  0  0  0  0  0
   39.4330   27.1300   35.2350 C   0  0  0  0  0  0  0  0  0  0  0  0
   38.3780   26.7760   36.2370 C   0  0  0  0  0  0  0  0  0  0  0  0
   38.5044   24.4245   34.8353 H   0  0  0  0  0  0  0  0  0  0  0  0
   36.5007   23.5874   31.2107 H   0  0  0  0  0  0  0  0  0  0  0  0
   36.3156   28.4376   33.6161 H   0  0  0  0  0  0  0  0  0  0  0  0
   37.2233   28.5215   32.0683 H   0  0  0  0  0  0  0  0  0  0  0  0
   35.4893   28.0524   32.0683 H   0  0  0  0  0  0  0  0  0  0  0  0
   37.2151   27.9026   34.4900 H   0  0  0  0  0  0  0  0  0  0  0  0
   40.0857   26.3475   34.8206 H   0  0  0  0  0  0  0  0  0  0  0  0
   40.2698   27.8430   35.1988 H   0  0  0  0  0  0  0  0  0  0  0  0
   38.1819   27.4497   37.0842 H   0  0  0  0  0  0  0  0  0  0  0  0
   38.1898   25.9033   36.8796 H   0  0  0  0  0  0  0  0  0  0  0  0
  2  1  2  0
  2  8  1  0
  3  2  1  0
  4  5  1  0
  4  3  2  0
  5  6  2  0
  6  1  1  0
  7  3  1  0
  8  9  1  0
  8 10  1  0
  9 10  1  0
  1 11  1  0
  5 12  1  0
  7 13  1  0
  7 14  1  0
  7 15  1  0
  8 16  1  0
  9 17  1  0
  9 18  1  0
 10 19  1  0
 10 20  1  0
M  ISO  8  11  14  12  14  13   8  14   8  15   8  16  13  17  13  18  13
M  ISO  2  19  13  20  13
M  END
>  <minimizedAffinity>  (1) 
-3.12980413

>  <minimizedRMSD>  (1) 
5.75913191

$$$$
