
     RDKit          3D

 14 14  0  0  0  0  0  0  0  0999 V2000
   38.9520   23.4470   36.9930 C   0  0  0  0  0  0  0  0  0  0  0  0
   39.1890   23.2320   35.6340 C   0  0  0  0  0  0  0  0  0  0  0  0
   40.2530   22.3990   35.2580 C   0  0  0  0  0  0  0  0  0  0  0  0
   41.0040   21.8440   36.2440 N   0  0  0  0  0  0  0  0  0  0  0  0
   40.7410   22.0770   37.5550 C   0  0  0  0  0  0  0  0  0  0  0  0
   39.7210   22.8740   37.9160 N   0  0  0  0  0  0  0  0  0  0  0  0
   40.5400   22.1440   33.8130 C   0  0  0  0  0  0  0  0  0  0  0  0
   38.2290   23.9420   34.2970 S   0  0  0  0  0  0  0  0  0  0  0  0
   38.1209   24.0969   37.3042 H   0  0  0  0  0  0  0  0  0  0  0  0
   41.3680   21.6095   38.3285 H   0  0  0  0  0  0  0  0  0  0  0  0
   41.3597   21.4157   33.7249 H   0  0  0  0  0  0  0  0  0  0  0  0
   39.6392   21.7429   33.3255 H   0  0  0  0  0  0  0  0  0  0  0  0
   40.8323   23.0857   33.3255 H   0  0  0  0  0  0  0  0  0  0  0  0
   37.2099   24.6957   34.8168 H   0  0  0  0  0  0  0  0  0  0  0  0
  1  6  2  0
  2  1  1  0
  3  2  2  0
  3  4  1  0
  4  5  2  0
  5  6  1  0
  7  3  1  0
  8  2  1  0
  1  9  1  0
  5 10  1  0
  7 11  1  0
  7 12  1  0
  7 13  1  0
  8 14  1  0
M  ISO  6   9  14  10  14  11   8  12   8  13   8  14  11
M  END
>  <minimizedAffinity>  (1) 
-2.25704455

>  <minimizedRMSD>  (1) 
3.75686407

$$$$
