
     RDKit          3D

 33 35  0  0  0  0  0  0  0  0999 V2000
   41.7840   23.5960   35.3260 C   0  0  0  0  0  0  0  0  0  0  0  0
   39.5140   24.6720   35.4260 C   0  0  0  0  0  0  0  0  0  0  0  0
   40.4430   23.7490   35.8850 C   0  0  0  0  0  0  0  0  0  0  0  0
   40.0470   22.9300   36.9440 C   0  0  0  0  0  0  0  0  0  0  0  0
   38.8050   23.0710   37.4630 N   0  0  0  0  0  0  0  0  0  0  0  0
   37.9240   23.9820   36.9920 C   0  0  0  0  0  0  0  0  0  0  0  0
   38.2810   24.7850   35.9690 N   0  0  0  0  0  0  0  0  0  0  0  0
   41.0140   21.9040   37.4890 C   0  0  0  0  0  0  0  0  0  0  0  0
   42.7090   24.7390   35.4620 C   0  0  0  0  0  0  0  0  0  0  0  0
   44.1080   24.3180   35.7920 C   0  0  0  0  0  0  0  0  0  0  0  0
   44.9020   23.4680   35.0470 C   0  0  0  0  0  0  0  0  0  0  0  0
   46.1060   23.3020   35.6290 N   0  0  0  0  0  0  0  0  0  0  0  0
   46.0990   24.0460   36.7580 C   0  0  0  0  0  0  0  0  0  0  0  0
   47.0740   24.2400   37.7300 C   0  0  0  0  0  0  0  0  0  0  0  0
   46.7580   25.0730   38.7810 C   0  0  0  0  0  0  0  0  0  0  0  0
   45.5420   25.7170   38.9200 C   0  0  0  0  0  0  0  0  0  0  0  0
   44.5830   25.5050   37.9320 C   0  0  0  0  0  0  0  0  0  0  0  0
   44.8800   24.6780   36.8770 C   0  0  0  0  0  0  0  0  0  0  0  0
   41.6723   23.3873   34.2518 H   0  0  0  0  0  0  0  0  0  0  0  0
   42.2446   22.7885   35.9141 H   0  0  0  0  0  0  0  0  0  0  0  0
   39.7901   25.3341   34.5921 H   0  0  0  0  0  0  0  0  0  0  0  0
   36.9230   24.0676   37.4401 H   0  0  0  0  0  0  0  0  0  0  0  0
   40.9921   21.9272   38.5885 H   0  0  0  0  0  0  0  0  0  0  0  0
   40.7232   20.9030   37.1375 H   0  0  0  0  0  0  0  0  0  0  0  0
   42.0304   22.1351   37.1375 H   0  0  0  0  0  0  0  0  0  0  0  0
   42.7238   25.2939   34.5124 H   0  0  0  0  0  0  0  0  0  0  0  0
   42.3460   25.3615   36.2931 H   0  0  0  0  0  0  0  0  0  0  0  0
   44.5930   22.9908   34.1053 H   0  0  0  0  0  0  0  0  0  0  0  0
   46.8818   22.7206   35.2810 H   0  0  0  0  0  0  0  0  0  0  0  0
   48.0561   23.7492   37.6628 H   0  0  0  0  0  0  0  0  0  0  0  0
   47.5199   25.2359   39.5575 H   0  0  0  0  0  0  0  0  0  0  0  0
   45.3394   26.3729   39.7795 H   0  0  0  0  0  0  0  0  0  0  0  0
   43.5999   25.9942   37.9963 H   0  0  0  0  0  0  0  0  0  0  0  0
  1  9  1  0
  1  3  1  0
  2  3  2  0
  2  7  1  0
  3  4  1  0
  4  5  2  0
  4  8  1  0
  6  5  1  0
  7  6  2  0
  9 10  1  0
 10 18  1  0
 11 12  1  0
 11 10  2  0
 12 13  1  0
 13 18  2  0
 13 14  1  0
 14 15  2  0
 15 16  1  0
 17 16  2  0
 18 17  1  0
  1 19  1  0
  1 20  1  0
  2 21  1  0
  6 22  1  0
  8 23  1  0
  8 24  1  0
  8 25  1  0
  9 26  1  0
  9 27  1  0
 11 28  1  0
 12 29  1  0
 14 30  1  0
 15 31  1  0
 16 32  1  0
 17 33  1  0
M  ISO  8  19   8  20   8  21  14  22  14  23   8  24   8  25   8  26   8
M  ISO  7  27   8  28  14  29   9  30  14  31  14  32  14  33  14
M  END
>  <minimizedAffinity>  (1) 
-5.10407782

>  <minimizedRMSD>  (1) 
4.72928095

$$$$
