
     RDKit          3D

 28 29  0  0  0  0  0  0  0  0999 V2000
   38.3940   23.3810   34.5850 C   0  0  0  0  0  0  0  0  0  0  0  0
   37.5980   24.1240   36.8430 C   0  0  0  0  0  0  0  0  0  0  0  0
   38.5110   23.4640   36.0360 C   0  0  0  0  0  0  0  0  0  0  0  0
   39.5900   22.8460   36.6780 C   0  0  0  0  0  0  0  0  0  0  0  0
   39.6980   22.9130   38.0230 N   0  0  0  0  0  0  0  0  0  0  0  0
   38.7860   23.5670   38.7780 C   0  0  0  0  0  0  0  0  0  0  0  0
   37.7350   24.1730   38.1850 N   0  0  0  0  0  0  0  0  0  0  0  0
   40.6130   22.1160   35.8380 C   0  0  0  0  0  0  0  0  0  0  0  0
   38.3400   24.6190   33.8130 C   0  0  0  0  0  0  0  0  0  0  0  0
   37.2500   24.5980   32.7860 C   0  0  0  0  0  0  0  0  0  0  0  0
   36.7000   23.5040   32.1510 C   0  0  0  0  0  0  0  0  0  0  0  0
   35.6960   23.6970   31.2300 C   0  0  0  0  0  0  0  0  0  0  0  0
   35.2100   24.9400   30.9090 C   0  0  0  0  0  0  0  0  0  0  0  0
   35.7860   25.9950   31.5650 C   0  0  0  0  0  0  0  0  0  0  0  0
   36.7540   25.8280   32.4560 N   0  0  0  0  0  0  0  0  0  0  0  0
   39.2623   22.8112   34.2225 H   0  0  0  0  0  0  0  0  0  0  0  0
   37.4073   22.9225   34.4229 H   0  0  0  0  0  0  0  0  0  0  0  0
   36.7359   24.6228   36.3761 H   0  0  0  0  0  0  0  0  0  0  0  0
   38.9001   23.6051   39.8714 H   0  0  0  0  0  0  0  0  0  0  0  0
   41.3303   21.6042   36.4965 H   0  0  0  0  0  0  0  0  0  0  0  0
   40.1049   21.3752   35.2031 H   0  0  0  0  0  0  0  0  0  0  0  0
   41.1483   22.8374   35.2031 H   0  0  0  0  0  0  0  0  0  0  0  0
   38.1620   25.4583   34.5014 H   0  0  0  0  0  0  0  0  0  0  0  0
   39.2989   24.7303   33.2856 H   0  0  0  0  0  0  0  0  0  0  0  0
   37.0596   22.4896   32.3781 H   0  0  0  0  0  0  0  0  0  0  0  0
   35.2644   22.8176   30.7296 H   0  0  0  0  0  0  0  0  0  0  0  0
   34.4072   25.0800   30.1702 H   0  0  0  0  0  0  0  0  0  0  0  0
   35.4344   27.0140   31.3458 H   0  0  0  0  0  0  0  0  0  0  0  0
  1  3  1  0
  2  7  2  0
  3  4  2  0
  3  2  1  0
  4  5  1  0
  5  6  2  0
  7  6  1  0
  8  4  1  0
  9  1  1  0
 10  9  1  0
 11 10  2  0
 12 11  1  0
 13 12  2  0
 13 14  1  0
 14 15  2  0
 15 10  1  0
  1 16  1  0
  1 17  1  0
  2 18  1  0
  6 19  1  0
  8 20  1  0
  8 21  1  0
  8 22  1  0
  9 23  1  0
  9 24  1  0
 11 25  1  0
 12 26  1  0
 13 27  1  0
 14 28  1  0
M  ISO  8  16   8  17   8  18  14  19  14  20   8  21   8  22   8  23   8
M  ISO  5  24   8  25  14  26  14  27  14  28  14
M  END
>  <minimizedAffinity>  (1) 
-4.26266098

>  <minimizedRMSD>  (1) 
4.02547026

$$$$
