
     RDKit          3D

 38 42  0  0  0  0  0  0  0  0999 V2000
   40.1720   24.6190   32.0970 C   0  0  0  0  0  0  0  0  0  0  0  0
   40.9390   25.4290   32.9440 C   0  0  0  0  0  0  0  0  0  0  0  0
   41.3780   26.8930   31.8480 S   0  0  0  0  0  0  0  0  0  0  0  0
   40.4040   26.0800   30.4250 C   0  0  0  0  0  0  0  0  0  0  0  0
   40.0580   25.1600   30.9250 N   0  0  0  0  0  0  0  0  0  0  0  0
   40.2340   26.6210   29.0910 N   0  0  0  0  0  0  0  0  0  0  0  0
   41.1150   26.1480   28.1910 C   0  0  0  0  0  0  0  0  0  0  0  0
   40.8370   26.7420   26.9800 C   0  0  0  0  0  0  0  0  0  0  0  0
   39.7950   27.5520   27.2050 N   0  0  0  0  0  0  0  0  0  0  0  0
   39.4130   27.4900   28.4930 C   0  0  0  0  0  0  0  0  0  0  0  0
   38.3990   28.1110   29.2740 N   0  0  0  0  0  0  0  0  0  0  0  0
   37.7210   29.2200   28.8680 C   0  0  0  0  0  0  0  0  0  0  0  0
   36.8250   29.5570   29.8410 N   0  0  0  0  0  0  0  0  0  0  0  0
   36.9560   28.6590   30.8330 C   0  0  0  0  0  0  0  0  0  0  0  0
   36.2990   28.5250   32.0520 C   0  0  0  0  0  0  0  0  0  0  0  0
   36.6620   27.4920   32.8560 N   0  0  0  0  0  0  0  0  0  0  0  0
   37.6250   26.6090   32.5060 C   0  0  0  0  0  0  0  0  0  0  0  0
   38.2700   26.7330   31.3160 N   0  0  0  0  0  0  0  0  0  0  0  0
   37.9330   27.7510   30.4920 C   0  0  0  0  0  0  0  0  0  0  0  0
   39.5350   23.0860   32.7600 S   0  0  0  0  0  0  0  0  0  0  0  0
   39.6440   22.7280   36.7220 C   0  0  0  0  0  0  0  0  0  0  0  0
   38.6430   23.6150   37.1610 C   0  0  0  0  0  0  0  0  0  0  0  0
   37.9410   24.3180   36.2020 C   0  0  0  0  0  0  0  0  0  0  0  0
   38.2380   24.1330   34.8680 N   0  0  0  0  0  0  0  0  0  0  0  0
   39.2260   23.2550   34.4980 C   0  0  0  0  0  0  0  0  0  0  0  0
   39.9020   22.5770   35.4240 N   0  0  0  0  0  0  0  0  0  0  0  0
   38.3180   23.8170   38.5980 C   0  0  0  0  0  0  0  0  0  0  0  0
   39.5120   23.7640   39.2870 F   0  0  0  0  0  0  0  0  0  0  0  0
   37.4690   22.8870   39.0930 F   0  0  0  0  0  0  0  0  0  0  0  0
   37.8580   25.1390   38.8020 F   0  0  0  0  0  0  0  0  0  0  0  0
   41.2167   25.2521   33.9936 H   0  0  0  0  0  0  0  0  0  0  0  0
   41.9140   25.4178   28.3872 H   0  0  0  0  0  0  0  0  0  0  0  0
   41.3619   26.5839   26.0263 H   0  0  0  0  0  0  0  0  0  0  0  0
   37.8700   29.7535   27.9176 H   0  0  0  0  0  0  0  0  0  0  0  0
   35.5122   29.2317   32.3545 H   0  0  0  0  0  0  0  0  0  0  0  0
   37.8874   25.7866   33.1877 H   0  0  0  0  0  0  0  0  0  0  0  0
   40.2208   22.1520   37.4606 H   0  0  0  0  0  0  0  0  0  0  0  0
   37.1496   25.0214   36.5003 H   0  0  0  0  0  0  0  0  0  0  0  0
  1 20  1  0
  1  2  2  0
  3  2  1  0
  4  5  2  0
  4  3  1  0
  5  1  1  0
  6  4  1  0
  7  6  1  0
  8  9  1  0
  8  7  2  0
  9 10  2  0
 10  6  1  0
 10 11  1  0
 11 19  1  0
 12 11  1  0
 12 13  2  0
 13 14  1  0
 14 15  2  0
 15 16  1  0
 17 16  2  0
 18 17  1  0
 19 14  1  0
 19 18  2  0
 20 25  1  0
 21 22  2  0
 22 27  1  0
 23 22  1  0
 24 23  2  0
 25 24  1  0
 25 26  2  0
 26 21  1  0
 27 30  1  0
 27 29  1  0
 27 28  1  0
  2 31  1  0
  7 32  1  0
  8 33  1  0
 12 34  1  0
 15 35  1  0
 17 36  1  0
 21 37  1  0
 23 38  1  0
M  ISO  8  31  14  32  14  33  14  34  14  35  14  36  14  37  14  38  14
M  END
>  <minimizedAffinity>  (1) 
-6.15570164

>  <minimizedRMSD>  (1) 
6.55761147

$$$$
