
     RDKit          3D

 34 35  0  0  0  0  0  0  0  0999 V2000
   39.0040   22.1550   34.7100 C   0  0  0  0  0  0  0  0  0  0  0  0
   37.6840   23.1810   36.5770 C   0  0  0  0  0  0  0  0  0  0  0  0
   38.8540   22.6270   36.0800 C   0  0  0  0  0  0  0  0  0  0  0  0
   39.9220   22.5170   36.9560 C   0  0  0  0  0  0  0  0  0  0  0  0
   39.7690   22.9510   38.2350 N   0  0  0  0  0  0  0  0  0  0  0  0
   38.6340   23.4810   38.6940 C   0  0  0  0  0  0  0  0  0  0  0  0
   37.5730   23.6030   37.8640 N   0  0  0  0  0  0  0  0  0  0  0  0
   41.2260   21.9220   36.4730 C   0  0  0  0  0  0  0  0  0  0  0  0
   38.5660   23.0140   33.6160 C   0  0  0  0  0  0  0  0  0  0  0  0
   37.3170   22.7110   33.0130 N   0  0  0  0  0  0  0  0  0  0  0  0
   37.0740   23.3560   31.7740 C   0  0  0  0  0  0  0  0  0  0  0  0
   35.7140   23.0740   31.2410 C   0  0  0  0  0  0  0  0  0  0  0  0
   35.4620   21.5750   31.2620 C   0  0  0  0  0  0  0  0  0  0  0  0
   35.4970   21.1890   32.7440 C   0  0  0  0  0  0  0  0  0  0  0  0
   36.9780   21.3360   33.1120 C   0  0  0  0  0  0  0  0  0  0  0  0
   40.0740   21.9535   34.5535 H   0  0  0  0  0  0  0  0  0  0  0  0
   38.3283   21.2889   34.6531 H   0  0  0  0  0  0  0  0  0  0  0  0
   36.8171   23.2822   35.9074 H   0  0  0  0  0  0  0  0  0  0  0  0
   38.5616   23.8161   39.7392 H   0  0  0  0  0  0  0  0  0  0  0  0
   41.8434   21.6403   37.3387 H   0  0  0  0  0  0  0  0  0  0  0  0
   41.0186   21.0294   35.8645 H   0  0  0  0  0  0  0  0  0  0  0  0
   41.7643   22.6636   35.8645 H   0  0  0  0  0  0  0  0  0  0  0  0
   38.5048   24.0408   34.0057 H   0  0  0  0  0  0  0  0  0  0  0  0
   39.3096   22.8606   32.8201 H   0  0  0  0  0  0  0  0  0  0  0  0
   37.1792   24.4418   31.9151 H   0  0  0  0  0  0  0  0  0  0  0  0
   37.8040   22.9695   31.0476 H   0  0  0  0  0  0  0  0  0  0  0  0
   35.6414   23.4435   30.2075 H   0  0  0  0  0  0  0  0  0  0  0  0
   34.9633   23.5807   31.8653 H   0  0  0  0  0  0  0  0  0  0  0  0
   34.4800   21.3417   30.8246 H   0  0  0  0  0  0  0  0  0  0  0  0
   36.2082   21.0218   30.6727 H   0  0  0  0  0  0  0  0  0  0  0  0
   34.8728   21.8684   33.3430 H   0  0  0  0  0  0  0  0  0  0  0  0
   35.1041   20.1795   32.9352 H   0  0  0  0  0  0  0  0  0  0  0  0
   37.5959   20.7476   32.4178 H   0  0  0  0  0  0  0  0  0  0  0  0
   37.1576   20.9693   34.1334 H   0  0  0  0  0  0  0  0  0  0  0  0
  1  3  1  0
  2  7  2  0
  3  2  1  0
  3  4  2  0
  4  5  1  0
  5  6  2  0
  7  6  1  0
  8  4  1  0
  9  1  1  0
 10 15  1  0
 10  9  1  0
 11 10  1  0
 12 13  1  0
 12 11  1  0
 13 14  1  0
 14 15  1  0
  1 16  1  0
  1 17  1  0
  2 18  1  0
  6 19  1  0
  8 20  1  0
  8 21  1  0
  8 22  1  0
  9 23  1  0
  9 24  1  0
 11 25  1  0
 11 26  1  0
 12 27  1  0
 12 28  1  0
 13 29  1  0
 13 30  1  0
 14 31  1  0
 14 32  1  0
 15 33  1  0
 15 34  1  0
M  ISO  8  16   8  17   8  18  14  19  14  20   8  21   8  22   8  23   8
M  ISO  8  24   8  25  13  26  13  27  13  28  13  29  13  30  13  31  13
M  ISO  3  32  13  33  13  34  13
M  END
>  <minimizedAffinity>  (1) 
-4.21269894

>  <minimizedRMSD>  (1) 
3.82727408

$$$$
