
     RDKit          3D

 30 31  0  0  0  0  0  0  0  0999 V2000
   39.6950   23.7140   34.6070 C   0  0  0  0  0  0  0  0  0  0  0  0
   38.1530   24.3920   36.4720 C   0  0  0  0  0  0  0  0  0  0  0  0
   39.2580   23.7070   35.9930 C   0  0  0  0  0  0  0  0  0  0  0  0
   39.9760   22.9540   36.9170 C   0  0  0  0  0  0  0  0  0  0  0  0
   39.5790   22.9180   38.2190 N   0  0  0  0  0  0  0  0  0  0  0  0
   38.4990   23.5970   38.6490 C   0  0  0  0  0  0  0  0  0  0  0  0
   37.7870   24.3330   37.7800 N   0  0  0  0  0  0  0  0  0  0  0  0
   41.1980   22.1800   36.4650 C   0  0  0  0  0  0  0  0  0  0  0  0
   39.8940   25.0080   33.9610 C   0  0  0  0  0  0  0  0  0  0  0  0
   38.8910   25.3110   32.9880 N   0  0  0  0  0  0  0  0  0  0  0  0
   38.5980   24.5810   31.9040 C   0  0  0  0  0  0  0  0  0  0  0  0
   37.6160   24.9130   30.9870 C   0  0  0  0  0  0  0  0  0  0  0  0
   36.8870   26.0830   31.2090 C   0  0  0  0  0  0  0  0  0  0  0  0
   35.8590   26.4990   30.3150 N   0  0  0  0  0  0  0  0  0  0  0  0
   37.1960   26.7910   32.2930 N   0  0  0  0  0  0  0  0  0  0  0  0
   38.1570   26.4470   33.1710 C   0  0  0  0  0  0  0  0  0  0  0  0
   38.3670   27.1940   34.1670 O   0  0  0  0  0  0  0  0  0  0  0  0
   40.6527   23.1747   34.5626 H   0  0  0  0  0  0  0  0  0  0  0  0
   38.8638   23.2535   34.0529 H   0  0  0  0  0  0  0  0  0  0  0  0
   37.5562   24.9995   35.7757 H   0  0  0  0  0  0  0  0  0  0  0  0
   38.2012   23.5492   39.7068 H   0  0  0  0  0  0  0  0  0  0  0  0
   41.7550   21.8272   37.3455 H   0  0  0  0  0  0  0  0  0  0  0  0
   40.8824   21.3167   35.8607 H   0  0  0  0  0  0  0  0  0  0  0  0
   41.8436   22.8342   35.8607 H   0  0  0  0  0  0  0  0  0  0  0  0
   39.8794   25.7907   34.7338 H   0  0  0  0  0  0  0  0  0  0  0  0
   40.8588   24.9660   33.4343 H   0  0  0  0  0  0  0  0  0  0  0  0
   39.1740   23.6598   31.7317 H   0  0  0  0  0  0  0  0  0  0  0  0
   37.4165   24.2764   30.1124 H   0  0  0  0  0  0  0  0  0  0  0  0
   35.3351   27.3662   30.5004 H   0  0  0  0  0  0  0  0  0  0  0  0
   35.6396   25.9326   29.4832 H   0  0  0  0  0  0  0  0  0  0  0  0
  1  3  1  0
  2  7  2  0
  3  2  1  0
  3  4  2  0
  4  5  1  0
  5  6  2  0
  7  6  1  0
  8  4  1  0
  9  1  1  0
 10 16  1  0
 10  9  1  0
 11 10  1  0
 12 13  1  0
 12 11  2  0
 13 15  2  0
 14 13  1  0
 15 16  1  0
 16 17  2  0
  1 18  1  0
  1 19  1  0
  2 20  1  0
  6 21  1  0
  8 22  1  0
  8 23  1  0
  8 24  1  0
  9 25  1  0
  9 26  1  0
 11 27  1  0
 12 28  1  0
 14 29  1  0
 14 30  1  0
M  ISO  8  18   8  19   8  20  14  21  14  22   8  23   8  24   8  25   8
M  ISO  3  26   8  27  14  28  14
M  END
>  <minimizedAffinity>  (1) 
-4.21236038

>  <minimizedRMSD>  (1) 
4.41415358

$$$$
