
     RDKit          3D

 29 30  0  0  0  0  0  0  0  0999 V2000
   40.9990   23.3580   35.1970 C   0  0  0  0  0  0  0  0  0  0  0  0
   38.9030   24.5460   35.9780 C   0  0  0  0  0  0  0  0  0  0  0  0
   39.9170   23.6180   36.1420 C   0  0  0  0  0  0  0  0  0  0  0  0
   39.8780   22.8780   37.3290 C   0  0  0  0  0  0  0  0  0  0  0  0
   38.8870   23.1040   38.2180 N   0  0  0  0  0  0  0  0  0  0  0  0
   37.9300   24.0100   38.0170 C   0  0  0  0  0  0  0  0  0  0  0  0
   37.9350   24.7380   36.8890 N   0  0  0  0  0  0  0  0  0  0  0  0
   40.9420   21.8370   37.5980 C   0  0  0  0  0  0  0  0  0  0  0  0
   41.7320   24.5300   34.6770 C   0  0  0  0  0  0  0  0  0  0  0  0
   43.0090   24.8260   35.3390 C   0  0  0  0  0  0  0  0  0  0  0  0
   43.8050   25.8680   34.8720 C   0  0  0  0  0  0  0  0  0  0  0  0
   45.0190   26.2040   35.4460 C   0  0  0  0  0  0  0  0  0  0  0  0
   45.4520   25.4600   36.5380 C   0  0  0  0  0  0  0  0  0  0  0  0
   44.6840   24.4160   37.0280 C   0  0  0  0  0  0  0  0  0  0  0  0
   43.4700   24.1070   36.4270 C   0  0  0  0  0  0  0  0  0  0  0  0
   41.7290   22.7065   35.6996 H   0  0  0  0  0  0  0  0  0  0  0  0
   40.5093   22.9145   34.3175 H   0  0  0  0  0  0  0  0  0  0  0  0
   38.8895   25.1531   35.0608 H   0  0  0  0  0  0  0  0  0  0  0  0
   37.1421   24.1600   38.7698 H   0  0  0  0  0  0  0  0  0  0  0  0
   41.0681   21.7136   38.6838 H   0  0  0  0  0  0  0  0  0  0  0  0
   40.6377   20.8782   37.1529 H   0  0  0  0  0  0  0  0  0  0  0  0
   41.8939   22.1622   37.1529 H   0  0  0  0  0  0  0  0  0  0  0  0
   41.9365   24.3551   33.6104 H   0  0  0  0  0  0  0  0  0  0  0  0
   41.0852   25.3986   34.8698 H   0  0  0  0  0  0  0  0  0  0  0  0
   43.4535   26.4508   34.0078 H   0  0  0  0  0  0  0  0  0  0  0  0
   45.6227   27.0341   35.0504 H   0  0  0  0  0  0  0  0  0  0  0  0
   46.4122   25.7023   37.0168 H   0  0  0  0  0  0  0  0  0  0  0  0
   45.0350   23.8325   37.8919 H   0  0  0  0  0  0  0  0  0  0  0  0
   42.8658   23.2773   36.8228 H   0  0  0  0  0  0  0  0  0  0  0  0
  1  3  1  0
  2  3  2  0
  2  7  1  0
  3  4  1  0
  4  8  1  0
  4  5  2  0
  6  5  1  0
  7  6  2  0
  9  1  1  0
  9 10  1  0
 10 15  1  0
 11 10  2  0
 11 12  1  0
 12 13  2  0
 13 14  1  0
 15 14  2  0
  1 16  1  0
  1 17  1  0
  2 18  1  0
  6 19  1  0
  8 20  1  0
  8 21  1  0
  8 22  1  0
  9 23  1  0
  9 24  1  0
 11 25  1  0
 12 26  1  0
 13 27  1  0
 14 28  1  0
 15 29  1  0
M  ISO  8  16   8  17   8  18  14  19  14  20   8  21   8  22   8  23   8
M  ISO  6  24   8  25  14  26  14  27  14  28  14  29  14
M  END
>  <minimizedAffinity>  (1) 
-4.20154715

>  <minimizedRMSD>  (1) 
1.53020227

$$$$
