
     RDKit          3D

 27 28  0  0  0  0  0  0  0  0999 V2000
   38.2480   23.6240   34.5790 C   0  0  0  0  0  0  0  0  0  0  0  0
   37.5830   24.2640   36.9120 C   0  0  0  0  0  0  0  0  0  0  0  0
   38.4260   23.6110   36.0250 C   0  0  0  0  0  0  0  0  0  0  0  0
   39.4990   22.9010   36.5890 C   0  0  0  0  0  0  0  0  0  0  0  0
   39.6530   22.8880   37.9300 N   0  0  0  0  0  0  0  0  0  0  0  0
   38.8230   23.5260   38.7590 C   0  0  0  0  0  0  0  0  0  0  0  0
   37.7840   24.2170   38.2500 N   0  0  0  0  0  0  0  0  0  0  0  0
   40.4470   22.1740   35.6580 C   0  0  0  0  0  0  0  0  0  0  0  0
   38.3410   24.9010   33.8810 C   0  0  0  0  0  0  0  0  0  0  0  0
   37.2680   25.0350   32.8400 C   0  0  0  0  0  0  0  0  0  0  0  0
   36.7690   26.2280   32.3490 C   0  0  0  0  0  0  0  0  0  0  0  0
   35.7710   26.1540   31.3840 C   0  0  0  0  0  0  0  0  0  0  0  0
   35.2790   25.0150   30.9170 N   0  0  0  0  0  0  0  0  0  0  0  0
   35.7860   23.8640   31.4150 C   0  0  0  0  0  0  0  0  0  0  0  0
   36.7590   23.8650   32.3560 N   0  0  0  0  0  0  0  0  0  0  0  0
   39.0155   22.9625   34.1507 H   0  0  0  0  0  0  0  0  0  0  0  0
   37.2039   23.3104   34.4319 H   0  0  0  0  0  0  0  0  0  0  0  0
   36.7291   24.8348   36.5182 H   0  0  0  0  0  0  0  0  0  0  0  0
   38.9857   23.4879   39.8462 H   0  0  0  0  0  0  0  0  0  0  0  0
   41.1824   21.6101   36.2506 H   0  0  0  0  0  0  0  0  0  0  0  0
   39.8770   21.4793   35.0236 H   0  0  0  0  0  0  0  0  0  0  0  0
   40.9701   22.9047   35.0236 H   0  0  0  0  0  0  0  0  0  0  0  0
   38.2351   25.7167   34.6113 H   0  0  0  0  0  0  0  0  0  0  0  0
   39.3186   24.9511   33.3792 H   0  0  0  0  0  0  0  0  0  0  0  0
   37.1468   27.1968   32.7078 H   0  0  0  0  0  0  0  0  0  0  0  0
   35.3659   27.0955   30.9846 H   0  0  0  0  0  0  0  0  0  0  0  0
   35.3979   22.9032   31.0460 H   0  0  0  0  0  0  0  0  0  0  0  0
  1  3  1  0
  2  7  2  0
  3  4  2  0
  3  2  1  0
  4  5  1  0
  5  6  2  0
  7  6  1  0
  8  4  1  0
  9  1  1  0
 10  9  1  0
 11 10  2  0
 12 11  1  0
 13 12  2  0
 13 14  1  0
 14 15  2  0
 15 10  1  0
  1 16  1  0
  1 17  1  0
  2 18  1  0
  6 19  1  0
  8 20  1  0
  8 21  1  0
  8 22  1  0
  9 23  1  0
  9 24  1  0
 11 25  1  0
 12 26  1  0
 14 27  1  0
M  ISO  8  16   8  17   8  18  14  19  14  20   8  21   8  22   8  23   8
M  ISO  4  24   8  25  14  26  14  27  14
M  END
>  <minimizedAffinity>  (1) 
-4.11595964

>  <minimizedRMSD>  (1) 
4.21287489

$$$$
