
     RDKit          3D

 32 33  0  0  0  0  0  0  0  0999 V2000
   37.8080   24.6690   37.0590 C   0  0  0  0  0  0  0  0  0  0  0  0
   38.6470   24.1600   36.0790 C   0  0  0  0  0  0  0  0  0  0  0  0
   39.6090   23.2300   36.5040 C   0  0  0  0  0  0  0  0  0  0  0  0
   39.6730   22.8810   37.8040 N   0  0  0  0  0  0  0  0  0  0  0  0
   38.8450   23.3920   38.7270 C   0  0  0  0  0  0  0  0  0  0  0  0
   37.9040   24.2920   38.3600 N   0  0  0  0  0  0  0  0  0  0  0  0
   40.5530   22.6400   35.4780 C   0  0  0  0  0  0  0  0  0  0  0  0
   38.5730   24.5380   34.6710 C   0  0  0  0  0  0  0  0  0  0  0  0
   38.8670   25.9250   34.3160 C   0  0  0  0  0  0  0  0  0  0  0  0
   37.6110   26.5540   33.7060 C   0  0  0  0  0  0  0  0  0  0  0  0
   38.0020   27.4300   32.5320 C   0  0  0  0  0  0  0  0  0  0  0  0
   36.7320   28.2280   32.3140 C   0  0  0  0  0  0  0  0  0  0  0  0
   36.1580   28.4120   33.7100 C   0  0  0  0  0  0  0  0  0  0  0  0
   36.9790   27.5380   34.6390 C   0  0  0  0  0  0  0  0  0  0  0  0
   37.0395   25.4022   36.7730 H   0  0  0  0  0  0  0  0  0  0  0  0
   38.9307   23.0805   39.7785 H   0  0  0  0  0  0  0  0  0  0  0  0
   41.3777   22.1246   35.9921 H   0  0  0  0  0  0  0  0  0  0  0  0
   40.0076   21.9217   34.8482 H   0  0  0  0  0  0  0  0  0  0  0  0
   40.9596   23.4450   34.8482 H   0  0  0  0  0  0  0  0  0  0  0  0
   39.2850   23.9025   34.1240 H   0  0  0  0  0  0  0  0  0  0  0  0
   37.5135   24.4057   34.4066 H   0  0  0  0  0  0  0  0  0  0  0  0
   39.1599   26.4834   35.2173 H   0  0  0  0  0  0  0  0  0  0  0  0
   39.6927   25.9585   33.5899 H   0  0  0  0  0  0  0  0  0  0  0  0
   36.9447   25.7157   33.4544 H   0  0  0  0  0  0  0  0  0  0  0  0
   38.8495   28.0845   32.7837 H   0  0  0  0  0  0  0  0  0  0  0  0
   38.3372   26.8699   31.6466 H   0  0  0  0  0  0  0  0  0  0  0  0
   36.9578   29.2015   31.8544 H   0  0  0  0  0  0  0  0  0  0  0  0
   36.0299   27.7223   31.6348 H   0  0  0  0  0  0  0  0  0  0  0  0
   36.2346   29.4660   34.0153 H   0  0  0  0  0  0  0  0  0  0  0  0
   35.0949   28.1313   33.7403 H   0  0  0  0  0  0  0  0  0  0  0  0
   36.3370   27.0299   35.3736 H   0  0  0  0  0  0  0  0  0  0  0  0
   37.7119   28.1050   35.2318 H   0  0  0  0  0  0  0  0  0  0  0  0
  1  6  2  0
  2  3  2  0
  2  1  1  0
  3  4  1  0
  4  5  2  0
  6  5  1  0
  7  3  1  0
  8  2  1  0
  9  8  1  0
 10  9  1  0
 10 14  1  0
 11 10  1  0
 12 11  1  0
 12 13  1  0
 13 14  1  0
  1 15  1  0
  5 16  1  0
  7 17  1  0
  7 18  1  0
  7 19  1  0
  8 20  1  0
  8 21  1  0
  9 22  1  0
  9 23  1  0
 10 24  1  0
 11 25  1  0
 11 26  1  0
 12 27  1  0
 12 28  1  0
 13 29  1  0
 13 30  1  0
 14 31  1  0
 14 32  1  0
M  ISO  8  15  14  16  14  17   8  18   8  19   8  20   8  21   8  22   8
M  ISO  8  23   8  24  13  25  13  26  13  27  13  28  13  29  13  30  13
M  ISO  2  31  13  32  13
M  END
>  <minimizedAffinity>  (1) 
-4.04406881

>  <minimizedRMSD>  (1) 
4.37914896

$$$$
