
     RDKit          3D

 33 34  0  0  0  0  0  0  0  0999 V2000
   38.7050   23.2840   34.5390 C   0  0  0  0  0  0  0  0  0  0  0  0
   37.7050   24.0720   36.7160 C   0  0  0  0  0  0  0  0  0  0  0  0
   38.6920   23.3940   36.0160 C   0  0  0  0  0  0  0  0  0  0  0  0
   39.7080   22.7930   36.7390 C   0  0  0  0  0  0  0  0  0  0  0  0
   39.6910   22.8960   38.0830 N   0  0  0  0  0  0  0  0  0  0  0  0
   38.7370   23.5520   38.7530 C   0  0  0  0  0  0  0  0  0  0  0  0
   37.7370   24.1450   38.0720 N   0  0  0  0  0  0  0  0  0  0  0  0
   40.8030   22.0460   36.0370 C   0  0  0  0  0  0  0  0  0  0  0  0
   38.7310   24.5240   33.7650 C   0  0  0  0  0  0  0  0  0  0  0  0
   37.7570   24.6340   32.7210 N   0  0  0  0  0  0  0  0  0  0  0  0
   36.9410   25.8040   32.8190 C   0  0  0  0  0  0  0  0  0  0  0  0
   36.1040   25.9530   31.5730 C   0  0  0  0  0  0  0  0  0  0  0  0
   36.5570   24.9930   30.5950 N   0  0  0  0  0  0  0  0  0  0  0  0
   36.2440   23.6710   31.1420 C   0  0  0  0  0  0  0  0  0  0  0  0
   37.0730   23.4270   32.3840 C   0  0  0  0  0  0  0  0  0  0  0  0
   39.5975   22.7043   34.2607 H   0  0  0  0  0  0  0  0  0  0  0  0
   37.7406   22.8191   34.2865 H   0  0  0  0  0  0  0  0  0  0  0  0
   36.8853   24.5571   36.1657 H   0  0  0  0  0  0  0  0  0  0  0  0
   38.7687   23.6069   39.8512 H   0  0  0  0  0  0  0  0  0  0  0  0
   41.4716   21.5899   36.7819 H   0  0  0  0  0  0  0  0  0  0  0  0
   40.3640   21.2582   35.4071 H   0  0  0  0  0  0  0  0  0  0  0  0
   41.3763   22.7421   35.4071 H   0  0  0  0  0  0  0  0  0  0  0  0
   38.5720   25.3594   34.4627 H   0  0  0  0  0  0  0  0  0  0  0  0
   39.7085   24.5378   33.2607 H   0  0  0  0  0  0  0  0  0  0  0  0
   36.2800   25.7153   33.6938 H   0  0  0  0  0  0  0  0  0  0  0  0
   37.5870   26.6875   32.9287 H   0  0  0  0  0  0  0  0  0  0  0  0
   35.0467   25.7668   31.8126 H   0  0  0  0  0  0  0  0  0  0  0  0
   36.2050   26.9726   31.1728 H   0  0  0  0  0  0  0  0  0  0  0  0
   37.5720   25.0866   30.4468 H   0  0  0  0  0  0  0  0  0  0  0  0
   35.1757   23.6250   31.3999 H   0  0  0  0  0  0  0  0  0  0  0  0
   36.4748   22.9008   30.3913 H   0  0  0  0  0  0  0  0  0  0  0  0
   36.4165   23.1290   33.2148 H   0  0  0  0  0  0  0  0  0  0  0  0
   37.8003   22.6230   32.1977 H   0  0  0  0  0  0  0  0  0  0  0  0
  1  3  1  0
  2  7  2  0
  3  2  1  0
  3  4  2  0
  4  5  1  0
  5  6  2  0
  7  6  1  0
  8  4  1  0
  9  1  1  0
 10 11  1  0
 10  9  1  0
 12 11  1  0
 13 14  1  0
 13 12  1  0
 14 15  1  0
 15 10  1  0
  1 16  1  0
  1 17  1  0
  2 18  1  0
  6 19  1  0
  8 20  1  0
  8 21  1  0
  8 22  1  0
  9 23  1  0
  9 24  1  0
 11 25  1  0
 11 26  1  0
 12 27  1  0
 12 28  1  0
 13 29  1  0
 14 30  1  0
 14 31  1  0
 15 32  1  0
 15 33  1  0
M  ISO  8  16   8  17   8  18  14  19  14  20   8  21   8  22   8  23   8
M  ISO  8  24   8  25  13  26  13  27  13  28  13  29   5  30  13  31  13
M  ISO  2  32  13  33  13
M  END
>  <minimizedAffinity>  (1) 
-4.03846264

>  <minimizedRMSD>  (1) 
3.66173172

$$$$
