
     RDKit          3D

 26 27  0  0  0  0  0  0  0  0999 V2000
   37.6390   23.1460   36.5420 C   0  0  0  0  0  0  0  0  0  0  0  0
   38.7930   22.5990   36.0050 C   0  0  0  0  0  0  0  0  0  0  0  0
   39.8990   22.4890   36.8520 C   0  0  0  0  0  0  0  0  0  0  0  0
   39.7890   22.9140   38.1230 N   0  0  0  0  0  0  0  0  0  0  0  0
   38.6500   23.4410   38.6110 C   0  0  0  0  0  0  0  0  0  0  0  0
   37.5700   23.5620   37.8320 N   0  0  0  0  0  0  0  0  0  0  0  0
   41.1780   21.8990   36.3110 C   0  0  0  0  0  0  0  0  0  0  0  0
   38.8920   22.1400   34.6080 C   0  0  0  0  0  0  0  0  0  0  0  0
   38.9400   23.1640   33.5600 C   0  0  0  0  0  0  0  0  0  0  0  0
   37.7000   23.3100   32.8130 C   0  0  0  0  0  0  0  0  0  0  0  0
   36.7680   22.2600   32.5140 C   0  0  0  0  0  0  0  0  0  0  0  0
   35.6470   22.5750   31.8040 C   0  0  0  0  0  0  0  0  0  0  0  0
   35.4470   23.9620   31.3810 C   0  0  0  0  0  0  0  0  0  0  0  0
   37.0060   24.7750   32.0910 S   0  0  0  0  0  0  0  0  0  0  0  0
   36.7499   23.2464   35.9021 H   0  0  0  0  0  0  0  0  0  0  0  0
   38.6077   23.7745   39.6584 H   0  0  0  0  0  0  0  0  0  0  0  0
   41.8265   21.5999   37.1477 H   0  0  0  0  0  0  0  0  0  0  0  0
   40.9438   21.0179   35.6955 H   0  0  0  0  0  0  0  0  0  0  0  0
   41.6962   22.6491   35.6955 H   0  0  0  0  0  0  0  0  0  0  0  0
   39.8092   21.5387   34.5231 H   0  0  0  0  0  0  0  0  0  0  0  0
   37.9536   21.5961   34.4250 H   0  0  0  0  0  0  0  0  0  0  0  0
   39.1747   24.1297   34.0315 H   0  0  0  0  0  0  0  0  0  0  0  0
   39.7076   22.8443   32.8399 H   0  0  0  0  0  0  0  0  0  0  0  0
   36.9531   21.2286   32.8487 H   0  0  0  0  0  0  0  0  0  0  0  0
   34.9066   21.8009   31.5538 H   0  0  0  0  0  0  0  0  0  0  0  0
   34.6205   24.4092   30.8092 H   0  0  0  0  0  0  0  0  0  0  0  0
  1  6  2  0
  2  1  1  0
  2  3  2  0
  3  4  1  0
  4  5  2  0
  6  5  1  0
  7  3  1  0
  8  2  1  0
  9  8  1  0
 10  9  1  0
 11 10  2  0
 12 11  1  0
 13 12  2  0
 13 14  1  0
 14 10  1  0
  1 15  1  0
  5 16  1  0
  7 17  1  0
  7 18  1  0
  7 19  1  0
  8 20  1  0
  8 21  1  0
  9 22  1  0
  9 23  1  0
 11 24  1  0
 12 25  1  0
 13 26  1  0
M  ISO  8  15  14  16  14  17   8  18   8  19   8  20   8  21   8  22   8
M  ISO  4  23   8  24  14  25  14  26  14
M  END
>  <minimizedAffinity>  (1) 
-3.85640121

>  <minimizedRMSD>  (1) 
3.38481259

$$$$
