
     RDKit          3D

 26 27  0  0  0  0  0  0  0  0999 V2000
   40.2280   23.1790   34.9890 C   0  0  0  0  0  0  0  0  0  0  0  0
   38.2870   24.2440   36.1810 C   0  0  0  0  0  0  0  0  0  0  0  0
   39.4200   23.4500   36.1720 C   0  0  0  0  0  0  0  0  0  0  0  0
   39.7980   22.8780   37.3860 C   0  0  0  0  0  0  0  0  0  0  0  0
   39.0420   23.1280   38.4930 N   0  0  0  0  0  0  0  0  0  0  0  0
   37.9530   23.8970   38.4700 C   0  0  0  0  0  0  0  0  0  0  0  0
   37.5680   24.4630   37.3060 N   0  0  0  0  0  0  0  0  0  0  0  0
   41.0190   22.0020   37.4650 C   0  0  0  0  0  0  0  0  0  0  0  0
   40.0630   24.0580   33.8320 C   0  0  0  0  0  0  0  0  0  0  0  0
   40.8320   25.3270   33.9150 C   0  0  0  0  0  0  0  0  0  0  0  0
   40.6760   26.4290   33.0720 C   0  0  0  0  0  0  0  0  0  0  0  0
   41.5430   27.4520   33.4130 C   0  0  0  0  0  0  0  0  0  0  0  0
   42.2080   26.9380   34.4650 N   0  0  0  0  0  0  0  0  0  0  0  0
   41.8190   25.7240   34.7710 N   0  0  0  0  0  0  0  0  0  0  0  0
   41.2836   23.2332   35.2937 H   0  0  0  0  0  0  0  0  0  0  0  0
   39.8836   22.1946   34.6391 H   0  0  0  0  0  0  0  0  0  0  0  0
   37.9596   24.7132   35.2415 H   0  0  0  0  0  0  0  0  0  0  0  0
   37.3743   24.0686   39.3896 H   0  0  0  0  0  0  0  0  0  0  0  0
   41.2723   21.8203   38.5199 H   0  0  0  0  0  0  0  0  0  0  0  0
   40.8151   21.0429   36.9664 H   0  0  0  0  0  0  0  0  0  0  0  0
   41.8622   22.5024   36.9664 H   0  0  0  0  0  0  0  0  0  0  0  0
   38.9957   24.3072   33.7378 H   0  0  0  0  0  0  0  0  0  0  0  0
   40.4518   23.5098   32.9612 H   0  0  0  0  0  0  0  0  0  0  0  0
   39.9555   26.4777   32.2423 H   0  0  0  0  0  0  0  0  0  0  0  0
   41.6599   28.4392   32.9420 H   0  0  0  0  0  0  0  0  0  0  0  0
   42.9448   27.4453   34.9756 H   0  0  0  0  0  0  0  0  0  0  0  0
  1  3  1  0
  2  7  2  0
  3  2  1  0
  3  4  2  0
  4  8  1  0
  4  5  1  0
  6  5  2  0
  7  6  1  0
  9 10  1  0
  9  1  1  0
 10 14  2  0
 11 12  2  0
 11 10  1  0
 12 13  1  0
 13 14  1  0
  1 15  1  0
  1 16  1  0
  2 17  1  0
  6 18  1  0
  8 19  1  0
  8 20  1  0
  8 21  1  0
  9 22  1  0
  9 23  1  0
 11 24  1  0
 12 25  1  0
 13 26  1  0
M  ISO  8  15   8  16   8  17  14  18  14  19   8  20   8  21   8  22   8
M  ISO  4  23   8  24  14  25  14  26   9
M  END
>  <minimizedAffinity>  (1) 
-3.80570197

>  <minimizedRMSD>  (1) 
1.31791961

$$$$
