
     RDKit          3D

 26 26  0  0  0  0  0  0  0  0999 V2000
   40.1820   22.8840   34.9410 C   0  0  0  0  0  0  0  0  0  0  0  0
   38.3500   24.1540   36.1090 C   0  0  0  0  0  0  0  0  0  0  0  0
   39.4410   23.2980   36.1250 C   0  0  0  0  0  0  0  0  0  0  0  0
   39.8250   22.8190   37.3890 C   0  0  0  0  0  0  0  0  0  0  0  0
   39.1320   23.2050   38.4880 N   0  0  0  0  0  0  0  0  0  0  0  0
   38.0820   24.0370   38.4180 C   0  0  0  0  0  0  0  0  0  0  0  0
   37.6920   24.5120   37.2210 N   0  0  0  0  0  0  0  0  0  0  0  0
   41.0140   21.8820   37.4670 C   0  0  0  0  0  0  0  0  0  0  0  0
   40.8150   23.9190   34.1310 C   0  0  0  0  0  0  0  0  0  0  0  0
   42.1950   24.2160   34.4950 N   0  0  0  0  0  0  0  0  0  0  0  0
   42.3350   25.5770   34.9670 C   0  0  0  0  0  0  0  0  0  0  0  0
   41.4140   26.4730   34.8780 N   0  0  0  0  0  0  0  0  0  0  0  0
   43.5990   25.9140   35.5730 N   0  0  0  0  0  0  0  0  0  0  0  0
   41.5990   27.4160   35.2420 H   0  0  0  0  0  0  0  0  0  0  0  0
   40.9756   22.1994   35.2749 H   0  0  0  0  0  0  0  0  0  0  0  0
   39.4197   22.4464   34.2797 H   0  0  0  0  0  0  0  0  0  0  0  0
   38.0101   24.5562   35.1432 H   0  0  0  0  0  0  0  0  0  0  0  0
   37.5440   24.3286   39.3321 H   0  0  0  0  0  0  0  0  0  0  0  0
   41.2597   21.6884   38.5216 H   0  0  0  0  0  0  0  0  0  0  0  0
   40.7667   20.9334   36.9680 H   0  0  0  0  0  0  0  0  0  0  0  0
   41.8785   22.3443   36.9680 H   0  0  0  0  0  0  0  0  0  0  0  0
   40.2267   24.8428   34.2339 H   0  0  0  0  0  0  0  0  0  0  0  0
   40.8403   23.5358   33.1002 H   0  0  0  0  0  0  0  0  0  0  0  0
   42.9716   23.5430   34.4252 H   0  0  0  0  0  0  0  0  0  0  0  0
   43.7617   26.8667   35.9291 H   0  0  0  0  0  0  0  0  0  0  0  0
   44.3394   25.2021   35.6498 H   0  0  0  0  0  0  0  0  0  0  0  0
  1  3  1  0
  2  3  2  0
  2  7  1  0
  3  4  1  0
  4  8  1  0
  4  5  2  0
  6  5  1  0
  7  6  2  0
  9 10  1  0
  9  1  1  0
 10 11  1  0
 11 13  1  0
 12 11  2  0
 12 14  1  0
  1 15  1  0
  1 16  1  0
  2 17  1  0
  6 18  1  0
  8 19  1  0
  8 20  1  0
  8 21  1  0
  9 22  1  0
  9 23  1  0
 10 24  1  0
 13 25  1  0
 13 26  1  0
M  ISO  8  15   8  16   8  17  14  18  14  19   8  20   8  21   8  22   8
M  ISO  1  23   8
M  END
>  <minimizedAffinity>  (1) 
-3.79255247

>  <minimizedRMSD>  (1) 
2.8189857

$$$$
