
     RDKit          3D

 26 27  0  0  0  0  0  0  0  0999 V2000
   37.6490   24.2300   36.8360 C   0  0  0  0  0  0  0  0  0  0  0  0
   38.5610   23.5710   36.0230 C   0  0  0  0  0  0  0  0  0  0  0  0
   39.5960   22.8960   36.6480 C   0  0  0  0  0  0  0  0  0  0  0  0
   39.6590   22.9150   38.0070 N   0  0  0  0  0  0  0  0  0  0  0  0
   38.7730   23.5530   38.7750 C   0  0  0  0  0  0  0  0  0  0  0  0
   37.7510   24.2220   38.1930 N   0  0  0  0  0  0  0  0  0  0  0  0
   40.6180   22.1620   35.8310 C   0  0  0  0  0  0  0  0  0  0  0  0
   38.4680   23.5640   34.5670 C   0  0  0  0  0  0  0  0  0  0  0  0
   38.0710   24.8050   33.8940 C   0  0  0  0  0  0  0  0  0  0  0  0
   37.1740   24.5800   32.7470 C   0  0  0  0  0  0  0  0  0  0  0  0
   36.7920   23.5150   31.9900 C   0  0  0  0  0  0  0  0  0  0  0  0
   35.9100   23.9510   31.0450 N   0  0  0  0  0  0  0  0  0  0  0  0
   35.7360   25.2650   31.1960 C   0  0  0  0  0  0  0  0  0  0  0  0
   36.4970   25.6410   32.2210 N   0  0  0  0  0  0  0  0  0  0  0  0
   36.8168   24.7764   36.3681 H   0  0  0  0  0  0  0  0  0  0  0  0
   38.8728   23.5350   39.8703 H   0  0  0  0  0  0  0  0  0  0  0  0
   41.3265   21.6532   36.5011 H   0  0  0  0  0  0  0  0  0  0  0  0
   40.1145   21.4178   35.1964 H   0  0  0  0  0  0  0  0  0  0  0  0
   41.1623   22.8768   35.1964 H   0  0  0  0  0  0  0  0  0  0  0  0
   39.4580   23.2838   34.1779 H   0  0  0  0  0  0  0  0  0  0  0  0
   37.6508   22.8609   34.3485 H   0  0  0  0  0  0  0  0  0  0  0  0
   37.5540   25.4478   34.6217 H   0  0  0  0  0  0  0  0  0  0  0  0
   38.9869   25.2749   33.5064 H   0  0  0  0  0  0  0  0  0  0  0  0
   37.1363   22.4782   32.1186 H   0  0  0  0  0  0  0  0  0  0  0  0
   35.0873   25.9138   30.5891 H   0  0  0  0  0  0  0  0  0  0  0  0
   36.5658   26.6071   32.5714 H   0  0  0  0  0  0  0  0  0  0  0  0
  1  6  2  0
  2  3  2  0
  2  1  1  0
  3  4  1  0
  4  5  2  0
  6  5  1  0
  7  3  1  0
  8  2  1  0
  9  8  1  0
 10  9  1  0
 11 10  2  0
 12 13  2  0
 12 11  1  0
 13 14  1  0
 14 10  1  0
  1 15  1  0
  5 16  1  0
  7 17  1  0
  7 18  1  0
  7 19  1  0
  8 20  1  0
  8 21  1  0
  9 22  1  0
  9 23  1  0
 11 24  1  0
 13 25  1  0
 14 26  1  0
M  ISO  8  15  14  16  14  17   8  18   8  19   8  20   8  21   8  22   8
M  ISO  4  23   8  24  14  25  14  26   9
M  END
>  <minimizedAffinity>  (1) 
-3.7647872

>  <minimizedRMSD>  (1) 
3.59337759

$$$$
