
     RDKit          3D

 20 20  0  0  0  0  0  0  0  0999 V2000
   38.0940   23.8400   36.0950 C   0  0  0  0  0  0  0  0  0  0  0  0
   39.2470   23.0710   36.1300 C   0  0  0  0  0  0  0  0  0  0  0  0
   39.7620   22.7510   37.3990 C   0  0  0  0  0  0  0  0  0  0  0  0
   39.1310   23.1930   38.5110 N   0  0  0  0  0  0  0  0  0  0  0  0
   38.0080   23.9420   38.4320 C   0  0  0  0  0  0  0  0  0  0  0  0
   37.4890   24.2650   37.2240 N   0  0  0  0  0  0  0  0  0  0  0  0
   41.0220   21.9130   37.4800 C   0  0  0  0  0  0  0  0  0  0  0  0
   39.9380   22.5830   34.9420 C   0  0  0  0  0  0  0  0  0  0  0  0
   40.6200   23.5760   34.0930 C   0  0  0  0  0  0  0  0  0  0  0  0
   39.8500   23.9860   32.9860 O   0  0  0  0  0  0  0  0  0  0  0  0
   37.6607   24.1110   35.1209 H   0  0  0  0  0  0  0  0  0  0  0  0
   37.5148   24.2898   39.3517 H   0  0  0  0  0  0  0  0  0  0  0  0
   41.2807   21.7409   38.5352 H   0  0  0  0  0  0  0  0  0  0  0  0
   40.8526   20.9470   36.9818 H   0  0  0  0  0  0  0  0  0  0  0  0
   41.8473   22.4427   36.9818 H   0  0  0  0  0  0  0  0  0  0  0  0
   40.6963   21.8596   35.2762 H   0  0  0  0  0  0  0  0  0  0  0  0
   39.1414   22.1711   34.3050 H   0  0  0  0  0  0  0  0  0  0  0  0
   40.8493   24.4604   34.7056 H   0  0  0  0  0  0  0  0  0  0  0  0
   41.5288   23.0980   33.6985 H   0  0  0  0  0  0  0  0  0  0  0  0
   39.0226   24.4266   33.3045 H   0  0  0  0  0  0  0  0  0  0  0  0
  1  2  2  0
  1  6  1  0
  2  3  1  0
  3  7  1  0
  3  4  2  0
  5  4  1  0
  6  5  2  0
  8  2  1  0
  9  8  1  0
 10  9  1  0
  1 11  1  0
  5 12  1  0
  7 13  1  0
  7 14  1  0
  7 15  1  0
  8 16  1  0
  8 17  1  0
  9 18  1  0
  9 19  1  0
 10 20  1  0
M  ISO  8  11  14  12  14  13   8  14   8  15   8  16   8  17   8  18   8
M  ISO  2  19   8  20   3
M  END
>  <minimizedAffinity>  (1) 
-2.96469283

>  <minimizedRMSD>  (1) 
0.230718985

$$$$
