
     RDKit          3D

 38 41  0  0  0  0  0  0  0  0999 V2000
   43.0080   24.4180   35.6400 C   0  0  0  0  0  0  0  0  0  0  0  0
   43.6310   23.6990   36.5790 N   0  0  0  0  0  0  0  0  0  0  0  0
   44.8190   24.1310   36.8030 O   0  0  0  0  0  0  0  0  0  0  0  0
   45.0390   25.1530   36.0250 C   0  0  0  0  0  0  0  0  0  0  0  0
   43.9440   25.3410   35.3090 N   0  0  0  0  0  0  0  0  0  0  0  0
   46.2630   25.9210   35.9750 N   0  0  0  0  0  0  0  0  0  0  0  0
   47.3840   25.5570   36.6300 C   0  0  0  0  0  0  0  0  0  0  0  0
   48.3510   26.4770   36.3840 N   0  0  0  0  0  0  0  0  0  0  0  0
   47.7960   27.4060   35.5670 C   0  0  0  0  0  0  0  0  0  0  0  0
   48.3780   28.5580   35.0260 C   0  0  0  0  0  0  0  0  0  0  0  0
   49.5730   28.8700   35.2660 O   0  0  0  0  0  0  0  0  0  0  0  0
   47.5520   29.2810   34.2460 N   0  0  0  0  0  0  0  0  0  0  0  0
   46.2760   28.9460   33.9920 C   0  0  0  0  0  0  0  0  0  0  0  0
   45.5630   29.8400   33.1400 N   0  0  0  0  0  0  0  0  0  0  0  0
   45.7110   27.8280   34.5170 N   0  0  0  0  0  0  0  0  0  0  0  0
   46.4850   27.0610   35.3080 C   0  0  0  0  0  0  0  0  0  0  0  0
   41.7310   24.5100   34.9170 C   0  0  0  0  0  0  0  0  0  0  0  0
   40.7680   23.4520   35.1600 C   0  0  0  0  0  0  0  0  0  0  0  0
   38.7340   24.5660   36.1180 C   0  0  0  0  0  0  0  0  0  0  0  0
   39.7720   23.6430   36.2080 C   0  0  0  0  0  0  0  0  0  0  0  0
   39.8440   22.8770   37.3720 C   0  0  0  0  0  0  0  0  0  0  0  0
   38.8890   23.1020   38.3140 N   0  0  0  0  0  0  0  0  0  0  0  0
   37.9120   23.9820   38.2070 C   0  0  0  0  0  0  0  0  0  0  0  0
   37.8310   24.7230   37.1010 N   0  0  0  0  0  0  0  0  0  0  0  0
   40.9160   21.8660   37.5520 C   0  0  0  0  0  0  0  0  0  0  0  0
   47.4962   24.6621   37.2598 H   0  0  0  0  0  0  0  0  0  0  0  0
   47.9206   30.1425   33.8185 H   0  0  0  0  0  0  0  0  0  0  0  0
   44.5797   29.6488   32.9003 H   0  0  0  0  0  0  0  0  0  0  0  0
   46.0313   30.6769   32.7643 H   0  0  0  0  0  0  0  0  0  0  0  0
   41.9568   24.5146   33.8404 H   0  0  0  0  0  0  0  0  0  0  0  0
   41.2528   25.4279   35.2895 H   0  0  0  0  0  0  0  0  0  0  0  0
   40.2218   23.2881   34.2193 H   0  0  0  0  0  0  0  0  0  0  0  0
   41.3784   22.6106   35.5197 H   0  0  0  0  0  0  0  0  0  0  0  0
   38.6501   25.1866   35.2137 H   0  0  0  0  0  0  0  0  0  0  0  0
   37.1767   24.1026   39.0162 H   0  0  0  0  0  0  0  0  0  0  0  0
   41.0893   21.7026   38.6259 H   0  0  0  0  0  0  0  0  0  0  0  0
   40.6103   20.9197   37.0817 H   0  0  0  0  0  0  0  0  0  0  0  0
   41.8427   22.2265   37.0817 H   0  0  0  0  0  0  0  0  0  0  0  0
  1  2  2  0
  2  3  1  0
  4  3  1  0
  5  1  1  0
  5  4  2  0
  6  4  1  0
  6  7  1  0
  8  7  2  0
  9  8  1  0
 10 11  2  0
 10  9  1  0
 12 10  1  0
 13 12  1  0
 13 15  2  0
 14 13  1  0
 15 16  1  0
 16  9  2  0
 16  6  1  0
 17 18  1  0
 17  1  1  0
 18 20  1  0
 19 20  2  0
 19 24  1  0
 20 21  1  0
 21 25  1  0
 21 22  2  0
 23 22  1  0
 24 23  2  0
  7 26  1  0
 12 27  1  0
 14 28  1  0
 14 29  1  0
 17 30  1  0
 17 31  1  0
 18 32  1  0
 18 33  1  0
 19 34  1  0
 23 35  1  0
 25 36  1  0
 25 37  1  0
 25 38  1  0
M  ISO  8  26  14  27   9  30   8  31   8  32   8  33   8  34  14  35  14
M  ISO  3  36   8  37   8  38   8
M  END
>  <minimizedAffinity>  (1) 
-5.60383368

>  <minimizedRMSD>  (1) 
0.818536341

$$$$
