
     RDKit          3D

 37 40  0  0  0  0  0  0  0  0999 V2000
   40.2440   23.8170   33.9440 C   0  0  0  0  0  0  0  0  0  0  0  0
   41.4430   24.6280   34.2300 C   0  0  0  0  0  0  0  0  0  0  0  0
   41.9080   25.8860   34.1330 N   0  0  0  0  0  0  0  0  0  0  0  0
   43.1110   25.9710   34.5780 O   0  0  0  0  0  0  0  0  0  0  0  0
   43.4810   24.7930   34.9800 C   0  0  0  0  0  0  0  0  0  0  0  0
   42.4880   23.9560   34.7820 N   0  0  0  0  0  0  0  0  0  0  0  0
   44.7850   24.5160   35.5440 N   0  0  0  0  0  0  0  0  0  0  0  0
   45.8130   23.8840   34.9360 C   0  0  0  0  0  0  0  0  0  0  0  0
   46.8590   23.8200   35.7930 N   0  0  0  0  0  0  0  0  0  0  0  0
   46.4770   24.4160   36.9430 C   0  0  0  0  0  0  0  0  0  0  0  0
   47.1000   24.6510   38.1530 C   0  0  0  0  0  0  0  0  0  0  0  0
   46.4650   25.2880   39.1620 N   0  0  0  0  0  0  0  0  0  0  0  0
   45.1930   25.7140   39.0050 C   0  0  0  0  0  0  0  0  0  0  0  0
   44.5860   25.4910   37.8400 N   0  0  0  0  0  0  0  0  0  0  0  0
   45.1610   24.8630   36.8000 C   0  0  0  0  0  0  0  0  0  0  0  0
   48.4350   24.2250   38.3660 N   0  0  0  0  0  0  0  0  0  0  0  0
   39.9110   22.7860   34.9100 C   0  0  0  0  0  0  0  0  0  0  0  0
   38.0740   23.9500   36.1590 C   0  0  0  0  0  0  0  0  0  0  0  0
   39.2210   23.1860   36.1370 C   0  0  0  0  0  0  0  0  0  0  0  0
   39.7230   22.7950   37.3640 C   0  0  0  0  0  0  0  0  0  0  0  0
   39.0500   23.1960   38.4750 N   0  0  0  0  0  0  0  0  0  0  0  0
   37.9520   23.9280   38.4680 C   0  0  0  0  0  0  0  0  0  0  0  0
   37.4490   24.3180   37.2810 N   0  0  0  0  0  0  0  0  0  0  0  0
   40.9510   21.9650   37.4570 C   0  0  0  0  0  0  0  0  0  0  0  0
   39.3858   24.5020   33.8778 H   0  0  0  0  0  0  0  0  0  0  0  0
   40.4735   23.2785   33.0127 H   0  0  0  0  0  0  0  0  0  0  0  0
   45.8017   23.4859   33.9106 H   0  0  0  0  0  0  0  0  0  0  0  0
   44.6696   26.2337   39.8211 H   0  0  0  0  0  0  0  0  0  0  0  0
   48.8943   24.4031   39.2705 H   0  0  0  0  0  0  0  0  0  0  0  0
   48.9458   23.7373   37.6162 H   0  0  0  0  0  0  0  0  0  0  0  0
   39.2686   22.0544   34.3981 H   0  0  0  0  0  0  0  0  0  0  0  0
   40.8856   22.4102   35.2550 H   0  0  0  0  0  0  0  0  0  0  0  0
   37.6490   24.2753   35.1980 H   0  0  0  0  0  0  0  0  0  0  0  0
   37.4592   24.2129   39.4093 H   0  0  0  0  0  0  0  0  0  0  0  0
   41.2004   21.7964   38.5150 H   0  0  0  0  0  0  0  0  0  0  0  0
   40.7781   20.9978   36.9624 H   0  0  0  0  0  0  0  0  0  0  0  0
   41.7840   22.4860   36.9624 H   0  0  0  0  0  0  0  0  0  0  0  0
  1  2  1  0
  1 17  1  0
  2  6  1  0
  3  2  2  0
  3  4  1  0
  4  5  1  0
  5  7  1  0
  6  5  2  0
  7 15  1  0
  8  7  1  0
  8  9  2  0
  9 10  1  0
 10 11  2  0
 11 16  1  0
 11 12  1  0
 13 12  2  0
 14 13  1  0
 15 10  1  0
 15 14  2  0
 17 19  1  0
 18 23  2  0
 19 18  1  0
 19 20  2  0
 20 24  1  0
 20 21  1  0
 22 21  2  0
 23 22  1  0
  1 25  1  0
  1 26  1  0
  8 27  1  0
 13 28  1  0
 16 29  1  0
 16 30  1  0
 17 31  1  0
 17 32  1  0
 18 33  1  0
 22 34  1  0
 24 35  1  0
 24 36  1  0
 24 37  1  0
M  ISO  8  25   8  26   8  27  14  28  14  31   8  32   8  33  14  34  14
M  ISO  3  35   8  36   8  37   8
M  END
>  <minimizedAffinity>  (1) 
-5.4660759

>  <minimizedRMSD>  (1) 
3.08832955

$$$$
