
     RDKit          3D

 38 41  0  0  0  0  0  0  0  0999 V2000
   41.6500   24.3020   34.6400 C   0  0  0  0  0  0  0  0  0  0  0  0
   42.8500   24.5090   35.4730 C   0  0  0  0  0  0  0  0  0  0  0  0
   43.3780   24.2080   36.6630 N   0  0  0  0  0  0  0  0  0  0  0  0
   44.5390   24.7350   36.8020 O   0  0  0  0  0  0  0  0  0  0  0  0
   44.8410   25.4050   35.7280 C   0  0  0  0  0  0  0  0  0  0  0  0
   43.8210   25.2670   34.9250 N   0  0  0  0  0  0  0  0  0  0  0  0
   46.1520   26.0710   35.7370 C   0  0  0  0  0  0  0  0  0  0  0  0
   46.4740   27.1430   34.9870 N   0  0  0  0  0  0  0  0  0  0  0  0
   47.6680   27.7440   35.0010 C   0  0  0  0  0  0  0  0  0  0  0  0
   48.6690   27.3010   35.7970 N   0  0  0  0  0  0  0  0  0  0  0  0
   48.4420   26.2190   36.5960 C   0  0  0  0  0  0  0  0  0  0  0  0
   49.4640   25.7740   37.4040 C   0  0  0  0  0  0  0  0  0  0  0  0
   49.2660   24.6830   38.2240 C   0  0  0  0  0  0  0  0  0  0  0  0
   48.0220   24.0640   38.2040 C   0  0  0  0  0  0  0  0  0  0  0  0
   47.0540   24.5750   37.3650 C   0  0  0  0  0  0  0  0  0  0  0  0
   47.1950   25.6500   36.5340 C   0  0  0  0  0  0  0  0  0  0  0  0
   40.7520   23.2440   35.0800 C   0  0  0  0  0  0  0  0  0  0  0  0
   38.7690   24.4590   36.0390 C   0  0  0  0  0  0  0  0  0  0  0  0
   39.8010   23.5310   36.1320 C   0  0  0  0  0  0  0  0  0  0  0  0
   39.8920   22.8410   37.3520 C   0  0  0  0  0  0  0  0  0  0  0  0
   38.9690   23.1410   38.3220 N   0  0  0  0  0  0  0  0  0  0  0  0
   38.0090   24.0340   38.1750 C   0  0  0  0  0  0  0  0  0  0  0  0
   37.9020   24.7030   37.0240 N   0  0  0  0  0  0  0  0  0  0  0  0
   40.9550   21.8190   37.5670 C   0  0  0  0  0  0  0  0  0  0  0  0
   41.9839   24.0598   33.6203 H   0  0  0  0  0  0  0  0  0  0  0  0
   41.0716   25.2350   34.7096 H   0  0  0  0  0  0  0  0  0  0  0  0
   47.8404   28.6158   34.3528 H   0  0  0  0  0  0  0  0  0  0  0  0
   50.4367   26.2877   37.3956 H   0  0  0  0  0  0  0  0  0  0  0  0
   50.0708   24.3129   38.8761 H   0  0  0  0  0  0  0  0  0  0  0  0
   47.8151   23.1905   38.8398 H   0  0  0  0  0  0  0  0  0  0  0  0
   46.0770   24.0696   37.3650 H   0  0  0  0  0  0  0  0  0  0  0  0
   40.1745   22.9233   34.2005 H   0  0  0  0  0  0  0  0  0  0  0  0
   41.4221   22.4932   35.5241 H   0  0  0  0  0  0  0  0  0  0  0  0
   38.6614   25.0235   35.1010 H   0  0  0  0  0  0  0  0  0  0  0  0
   37.3014   24.2263   38.9950 H   0  0  0  0  0  0  0  0  0  0  0  0
   41.1087   21.6712   38.6461 H   0  0  0  0  0  0  0  0  0  0  0  0
   40.6480   20.8682   37.1068 H   0  0  0  0  0  0  0  0  0  0  0  0
   41.8930   22.1631   37.1068 H   0  0  0  0  0  0  0  0  0  0  0  0
  1 17  1  0
  1  2  1  0
  2  3  2  0
  3  4  1  0
  5  7  1  0
  5  4  1  0
  6  2  1  0
  6  5  2  0
  7 16  2  0
  8  9  2  0
  8  7  1  0
  9 10  1  0
 10 11  2  0
 11 12  1  0
 12 13  2  0
 14 13  1  0
 15 14  2  0
 16 11  1  0
 16 15  1  0
 17 19  1  0
 18 19  2  0
 18 23  1  0
 19 20  1  0
 20 24  1  0
 20 21  2  0
 22 21  1  0
 23 22  2  0
  1 25  1  0
  1 26  1  0
  9 27  1  0
 12 28  1  0
 13 29  1  0
 14 30  1  0
 15 31  1  0
 17 32  1  0
 17 33  1  0
 18 34  1  0
 22 35  1  0
 24 36  1  0
 24 37  1  0
 24 38  1  0
M  ISO  8  25   8  26   8  27  14  28  14  29  14  30  14  31  14  32   8
M  ISO  6  33   8  34  14  35  14  36   8  37   8  38   8
M  END
>  <minimizedAffinity>  (1) 
-5.24788284

>  <minimizedRMSD>  (1) 
0.854786932

$$$$
