
     RDKit          3D

 34 37  0  0  0  0  0  0  0  0999 V2000
   43.1900   22.3090   33.8520 C   0  0  0  0  0  0  0  0  0  0  0  0
   44.2990   21.4630   33.6420 C   0  0  0  0  0  0  0  0  0  0  0  0
   45.7460   22.6670   33.5780 S   0  0  0  0  0  0  0  0  0  0  0  0
   44.5280   24.1080   33.8540 C   0  0  0  0  0  0  0  0  0  0  0  0
   43.5630   23.5540   33.9200 N   0  0  0  0  0  0  0  0  0  0  0  0
   44.8490   25.5170   33.9380 N   0  0  0  0  0  0  0  0  0  0  0  0
   44.7390   26.1870   32.7870 C   0  0  0  0  0  0  0  0  0  0  0  0
   45.0790   27.5070   33.0530 C   0  0  0  0  0  0  0  0  0  0  0  0
   45.3810   27.5530   34.3730 N   0  0  0  0  0  0  0  0  0  0  0  0
   45.2400   26.3380   34.9160 C   0  0  0  0  0  0  0  0  0  0  0  0
   45.4400   25.8670   36.2770 C   0  0  0  0  0  0  0  0  0  0  0  0
   46.4140   25.0880   36.8240 C   0  0  0  0  0  0  0  0  0  0  0  0
   46.0880   24.9810   38.1250 N   0  0  0  0  0  0  0  0  0  0  0  0
   44.9580   25.6680   38.3700 C   0  0  0  0  0  0  0  0  0  0  0  0
   44.5470   26.2250   37.2170 N   0  0  0  0  0  0  0  0  0  0  0  0
   41.5790   21.5500   33.9770 S   0  0  0  0  0  0  0  0  0  0  0  0
   40.3610   22.3950   37.6870 C   0  0  0  0  0  0  0  0  0  0  0  0
   39.2690   23.2560   37.4780 C   0  0  0  0  0  0  0  0  0  0  0  0
   38.9340   23.5560   36.1650 C   0  0  0  0  0  0  0  0  0  0  0  0
   39.6570   23.0210   35.1370 N   0  0  0  0  0  0  0  0  0  0  0  0
   40.7130   22.1870   35.3940 C   0  0  0  0  0  0  0  0  0  0  0  0
   41.0470   21.8880   36.6610 N   0  0  0  0  0  0  0  0  0  0  0  0
   38.4770   23.8430   38.5880 C   0  0  0  0  0  0  0  0  0  0  0  0
   39.3380   23.9830   39.6620 F   0  0  0  0  0  0  0  0  0  0  0  0
   37.4240   23.0820   38.9570 F   0  0  0  0  0  0  0  0  0  0  0  0
   38.1120   25.1670   38.2700 F   0  0  0  0  0  0  0  0  0  0  0  0
   44.3149   20.3678   33.5404 H   0  0  0  0  0  0  0  0  0  0  0  0
   44.4367   25.7720   31.8142 H   0  0  0  0  0  0  0  0  0  0  0  0
   45.0990   28.3433   32.3388 H   0  0  0  0  0  0  0  0  0  0  0  0
   47.2801   24.6425   36.3127 H   0  0  0  0  0  0  0  0  0  0  0  0
   44.4567   25.7586   39.3449 H   0  0  0  0  0  0  0  0  0  0  0  0
   43.7113   26.8114   37.0804 H   0  0  0  0  0  0  0  0  0  0  0  0
   40.6549   22.1348   38.7146 H   0  0  0  0  0  0  0  0  0  0  0  0
   38.0866   24.2243   35.9523 H   0  0  0  0  0  0  0  0  0  0  0  0
  1  5  1  0
  1 16  1  0
  2  1  2  0
  3  2  1  0
  3  4  1  0
  4  5  2  0
  4  6  1  0
  6 10  1  0
  7  8  2  0
  7  6  1  0
  8  9  1  0
  9 10  2  0
 10 11  1  0
 11 12  2  0
 11 15  1  0
 12 13  1  0
 13 14  2  0
 15 14  1  0
 16 21  1  0
 18 17  2  0
 18 23  1  0
 19 18  1  0
 20 21  1  0
 20 19  2  0
 21 22  2  0
 22 17  1  0
 23 25  1  0
 23 24  1  0
 26 23  1  0
  2 27  1  0
  7 28  1  0
  8 29  1  0
 12 30  1  0
 14 31  1  0
 15 32  1  0
 17 33  1  0
 19 34  1  0
M  ISO  8  27  14  28  14  29  14  30  14  31  14  32   9  33  14  34  14
M  END
>  <minimizedAffinity>  (1) 
-5.47111368

>  <minimizedRMSD>  (1) 
4.49766827

$$$$
