
     RDKit          3D

 35 38  0  0  0  0  0  0  0  0999 V2000
   41.6740   24.3140   34.7510 C   0  0  0  0  0  0  0  0  0  0  0  0
   42.8980   24.3900   35.5760 C   0  0  0  0  0  0  0  0  0  0  0  0
   43.4370   23.9120   36.7150 N   0  0  0  0  0  0  0  0  0  0  0  0
   44.6060   24.3900   36.9020 O   0  0  0  0  0  0  0  0  0  0  0  0
   44.9120   25.1970   35.9230 C   0  0  0  0  0  0  0  0  0  0  0  0
   43.8770   25.2030   35.1100 N   0  0  0  0  0  0  0  0  0  0  0  0
   46.1600   25.8810   35.8580 N   0  0  0  0  0  0  0  0  0  0  0  0
   47.2390   25.3830   36.4940 C   0  0  0  0  0  0  0  0  0  0  0  0
   48.2580   26.2380   36.2540 N   0  0  0  0  0  0  0  0  0  0  0  0
   47.7910   27.2360   35.4810 C   0  0  0  0  0  0  0  0  0  0  0  0
   48.4240   28.3650   34.9520 C   0  0  0  0  0  0  0  0  0  0  0  0
   47.6520   29.1770   34.2070 N   0  0  0  0  0  0  0  0  0  0  0  0
   46.3480   28.9510   33.9640 C   0  0  0  0  0  0  0  0  0  0  0  0
   45.7020   27.8620   34.4640 N   0  0  0  0  0  0  0  0  0  0  0  0
   46.4510   27.0260   35.2180 C   0  0  0  0  0  0  0  0  0  0  0  0
   40.7240   23.2790   35.1140 C   0  0  0  0  0  0  0  0  0  0  0  0
   38.7370   24.4870   36.0850 C   0  0  0  0  0  0  0  0  0  0  0  0
   39.7640   23.5500   36.1780 C   0  0  0  0  0  0  0  0  0  0  0  0
   39.8470   22.8510   37.3770 C   0  0  0  0  0  0  0  0  0  0  0  0
   38.9310   23.1440   38.3340 N   0  0  0  0  0  0  0  0  0  0  0  0
   37.9680   24.0360   38.2220 C   0  0  0  0  0  0  0  0  0  0  0  0
   37.8750   24.7150   37.0780 N   0  0  0  0  0  0  0  0  0  0  0  0
   40.9020   21.8240   37.5800 C   0  0  0  0  0  0  0  0  0  0  0  0
   41.9809   24.1384   33.7094 H   0  0  0  0  0  0  0  0  0  0  0  0
   41.1490   25.2672   34.9118 H   0  0  0  0  0  0  0  0  0  0  0  0
   47.2819   24.4606   37.0918 H   0  0  0  0  0  0  0  0  0  0  0  0
   49.4881   28.5764   35.1338 H   0  0  0  0  0  0  0  0  0  0  0  0
   45.7881   29.6664   33.3438 H   0  0  0  0  0  0  0  0  0  0  0  0
   40.1455   23.0392   34.2096 H   0  0  0  0  0  0  0  0  0  0  0  0
   41.3514   22.4719   35.5202 H   0  0  0  0  0  0  0  0  0  0  0  0
   38.6323   25.0631   35.1538 H   0  0  0  0  0  0  0  0  0  0  0  0
   37.2624   24.2152   39.0467 H   0  0  0  0  0  0  0  0  0  0  0  0
   41.0608   21.6694   38.6575 H   0  0  0  0  0  0  0  0  0  0  0  0
   40.5865   20.8777   37.1164 H   0  0  0  0  0  0  0  0  0  0  0  0
   41.8395   22.1648   37.1164 H   0  0  0  0  0  0  0  0  0  0  0  0
  1 16  1  0
  1  2  1  0
  2  3  2  0
  3  4  1  0
  5  4  1  0
  6  2  1  0
  6  5  2  0
  7  5  1  0
  7  8  1  0
  9  8  2  0
 10  9  1  0
 11 10  2  0
 12 11  1  0
 13 12  2  0
 13 14  1  0
 14 15  2  0
 15 10  1  0
 15  7  1  0
 16 18  1  0
 17 18  2  0
 17 22  1  0
 18 19  1  0
 19 23  1  0
 19 20  2  0
 21 20  1  0
 22 21  2  0
  1 24  1  0
  1 25  1  0
  8 26  1  0
 11 27  1  0
 13 28  1  0
 16 29  1  0
 16 30  1  0
 17 31  1  0
 21 32  1  0
 23 33  1  0
 23 34  1  0
 23 35  1  0
M  ISO  8  24   8  25   8  26  14  27  14  28  14  29   8  30   8  31  14
M  ISO  4  32  14  33   8  34   8  35   8
M  END
>  <minimizedAffinity>  (1) 
-5.15701294

>  <minimizedRMSD>  (1) 
1.02053261

$$$$
