
     RDKit          3D

 38 41  0  0  0  0  0  0  0  0999 V2000
   41.8810   24.4530   34.8650 C   0  0  0  0  0  0  0  0  0  0  0  0
   43.0510   24.4370   35.7610 C   0  0  0  0  0  0  0  0  0  0  0  0
   43.4800   23.9320   36.9180 N   0  0  0  0  0  0  0  0  0  0  0  0
   44.6760   24.3050   37.1900 O   0  0  0  0  0  0  0  0  0  0  0  0
   45.1000   25.0760   36.2290 C   0  0  0  0  0  0  0  0  0  0  0  0
   44.1150   25.1660   35.3460 N   0  0  0  0  0  0  0  0  0  0  0  0
   46.4310   25.7230   36.1490 C   0  0  0  0  0  0  0  0  0  0  0  0
   46.7700   26.7900   35.3300 C   0  0  0  0  0  0  0  0  0  0  0  0
   48.0610   27.0470   35.5800 N   0  0  0  0  0  0  0  0  0  0  0  0
   48.5650   26.2130   36.5040 C   0  0  0  0  0  0  0  0  0  0  0  0
   49.8100   26.0640   37.0970 C   0  0  0  0  0  0  0  0  0  0  0  0
   49.9890   25.0740   38.0390 C   0  0  0  0  0  0  0  0  0  0  0  0
   48.9930   24.2190   38.4270 C   0  0  0  0  0  0  0  0  0  0  0  0
   47.7450   24.3590   37.8410 C   0  0  0  0  0  0  0  0  0  0  0  0
   47.5350   25.3470   36.8890 C   0  0  0  0  0  0  0  0  0  0  0  0
   40.8860   23.4210   35.0900 C   0  0  0  0  0  0  0  0  0  0  0  0
   38.8620   24.5960   36.0020 C   0  0  0  0  0  0  0  0  0  0  0  0
   39.8670   23.6430   36.1070 C   0  0  0  0  0  0  0  0  0  0  0  0
   39.8810   22.8630   37.2700 C   0  0  0  0  0  0  0  0  0  0  0  0
   38.9060   23.1160   38.1860 N   0  0  0  0  0  0  0  0  0  0  0  0
   37.9660   24.0320   38.0530 C   0  0  0  0  0  0  0  0  0  0  0  0
   37.9380   24.7790   36.9550 N   0  0  0  0  0  0  0  0  0  0  0  0
   40.9150   21.8160   37.4700 C   0  0  0  0  0  0  0  0  0  0  0  0
   42.2473   24.3465   33.8333 H   0  0  0  0  0  0  0  0  0  0  0  0
   41.3683   25.4047   35.0683 H   0  0  0  0  0  0  0  0  0  0  0  0
   46.1140   27.3167   34.6213 H   0  0  0  0  0  0  0  0  0  0  0  0
   48.6011   27.7934   35.1195 H   0  0  0  0  0  0  0  0  0  0  0  0
   50.6429   26.7267   36.8193 H   0  0  0  0  0  0  0  0  0  0  0  0
   50.9810   24.9656   38.5018 H   0  0  0  0  0  0  0  0  0  0  0  0
   49.1781   23.4420   39.1833 H   0  0  0  0  0  0  0  0  0  0  0  0
   46.9223   23.6883   38.1298 H   0  0  0  0  0  0  0  0  0  0  0  0
   40.3622   23.2624   34.1358 H   0  0  0  0  0  0  0  0  0  0  0  0
   41.4662   22.5691   35.4741 H   0  0  0  0  0  0  0  0  0  0  0  0
   38.8231   25.2255   35.1007 H   0  0  0  0  0  0  0  0  0  0  0  0
   37.2137   24.1756   38.8426 H   0  0  0  0  0  0  0  0  0  0  0  0
   41.0722   21.6569   38.5470 H   0  0  0  0  0  0  0  0  0  0  0  0
   40.5803   20.8767   37.0056 H   0  0  0  0  0  0  0  0  0  0  0  0
   41.8584   22.1389   37.0056 H   0  0  0  0  0  0  0  0  0  0  0  0
  1 16  1  0
  1  2  1  0
  2  3  2  0
  3  4  1  0
  5  4  1  0
  6  2  1  0
  6  5  2  0
  7  5  1  0
  7 15  1  0
  8  9  1  0
  8  7  2  0
  9 10  1  0
 10 15  2  0
 10 11  1  0
 11 12  2  0
 12 13  1  0
 14 13  2  0
 15 14  1  0
 16 18  1  0
 17 18  2  0
 17 22  1  0
 18 19  1  0
 19 23  1  0
 19 20  2  0
 21 20  1  0
 22 21  2  0
  1 24  1  0
  1 25  1  0
  8 26  1  0
  9 27  1  0
 11 28  1  0
 12 29  1  0
 13 30  1  0
 14 31  1  0
 16 32  1  0
 16 33  1  0
 17 34  1  0
 21 35  1  0
 23 36  1  0
 23 37  1  0
 23 38  1  0
M  ISO  8  24   8  25   8  26  14  27   9  28  14  29  14  30  14  31  14
M  ISO  7  32   8  33   8  34  14  35  14  36   8  37   8  38   8
M  END
>  <minimizedAffinity>  (1) 
-5.13839483

>  <minimizedRMSD>  (1) 
1.0208838

$$$$
