
     RDKit          3D

 31 33  0  0  0  0  0  0  0  0999 V2000
   40.6620   23.2030   35.0300 C   0  0  0  0  0  0  0  0  0  0  0  0
   38.7450   24.4680   36.0500 C   0  0  0  0  0  0  0  0  0  0  0  0
   39.7560   23.5170   36.1300 C   0  0  0  0  0  0  0  0  0  0  0  0
   39.8820   22.8560   37.3400 C   0  0  0  0  0  0  0  0  0  0  0  0
   39.0170   23.1880   38.3320 N   0  0  0  0  0  0  0  0  0  0  0  0
   38.0640   24.0950   38.2340 C   0  0  0  0  0  0  0  0  0  0  0  0
   37.9220   24.7520   37.0660 N   0  0  0  0  0  0  0  0  0  0  0  0
   40.9280   21.8180   37.5280 C   0  0  0  0  0  0  0  0  0  0  0  0
   41.7240   24.1470   34.7230 C   0  0  0  0  0  0  0  0  0  0  0  0
   42.9720   24.0030   35.4950 C   0  0  0  0  0  0  0  0  0  0  0  0
   43.8800   23.0990   35.8590 N   0  0  0  0  0  0  0  0  0  0  0  0
   44.8070   23.6050   36.5870 O   0  0  0  0  0  0  0  0  0  0  0  0
   44.5510   24.8750   36.7360 C   0  0  0  0  0  0  0  0  0  0  0  0
   43.4420   25.1340   36.0810 N   0  0  0  0  0  0  0  0  0  0  0  0
   45.3950   25.8440   37.5240 C   0  0  0  0  0  0  0  0  0  0  0  0
   44.8400   26.1920   38.9220 C   0  0  0  0  0  0  0  0  0  0  0  0
   46.0830   25.3880   38.7500 C   0  0  0  0  0  0  0  0  0  0  0  0
   41.1395   22.2404   35.2656 H   0  0  0  0  0  0  0  0  0  0  0  0
   40.0202   23.2154   34.1367 H   0  0  0  0  0  0  0  0  0  0  0  0
   38.6152   25.0143   35.1041 H   0  0  0  0  0  0  0  0  0  0  0  0
   37.4012   24.3098   39.0852 H   0  0  0  0  0  0  0  0  0  0  0  0
   41.0930   21.6543   38.6032 H   0  0  0  0  0  0  0  0  0  0  0  0
   40.6001   20.8781   37.0600 H   0  0  0  0  0  0  0  0  0  0  0  0
   41.8654   22.1531   37.0600 H   0  0  0  0  0  0  0  0  0  0  0  0
   41.9744   24.0344   33.6578 H   0  0  0  0  0  0  0  0  0  0  0  0
   41.3244   25.1352   34.9948 H   0  0  0  0  0  0  0  0  0  0  0  0
   45.7314   26.3821   36.6255 H   0  0  0  0  0  0  0  0  0  0  0  0
   44.8945   27.2238   39.2994 H   0  0  0  0  0  0  0  0  0  0  0  0
   43.8814   26.0585   39.4447 H   0  0  0  0  0  0  0  0  0  0  0  0
   46.0778   24.3190   39.0092 H   0  0  0  0  0  0  0  0  0  0  0  0
   47.1116   25.4856   39.1273 H   0  0  0  0  0  0  0  0  0  0  0  0
  1  3  1  0
  2  3  2  0
  2  7  1  0
  3  4  1  0
  4  8  1  0
  4  5  2  0
  6  5  1  0
  7  6  2  0
  9  1  1  0
  9 10  1  0
 10 11  2  0
 10 14  1  0
 11 12  1  0
 12 13  1  0
 13 15  1  0
 14 13  2  0
 15 17  1  0
 15 16  1  0
 17 16  1  0
  1 18  1  0
  1 19  1  0
  2 20  1  0
  6 21  1  0
  8 22  1  0
  8 23  1  0
  8 24  1  0
  9 25  1  0
  9 26  1  0
 15 27  1  0
 16 28  1  0
 16 29  1  0
 17 30  1  0
 17 31  1  0
M  ISO  8  18   8  19   8  20  14  21  14  22   8  23   8  24   8  25   8
M  ISO  6  26   8  27  13  28  13  29  13  30  13  31  13
M  END
>  <minimizedAffinity>  (1) 
-4.91735172

>  <minimizedRMSD>  (1) 
0.90285033

$$$$
