
     RDKit          3D

 32 35  0  0  0  0  0  0  0  0999 V2000
   44.8150   24.1220   36.6780 C   0  0  0  0  0  0  0  0  0  0  0  0
   44.0550   24.9710   37.4620 C   0  0  0  0  0  0  0  0  0  0  0  0
   45.3390   25.8180   38.5190 S   0  0  0  0  0  0  0  0  0  0  0  0
   46.7010   24.8040   37.6380 C   0  0  0  0  0  0  0  0  0  0  0  0
   46.0640   24.2320   36.9580 N   0  0  0  0  0  0  0  0  0  0  0  0
   48.1400   24.8490   37.8690 N   0  0  0  0  0  0  0  0  0  0  0  0
   48.6110   23.9360   38.7000 C   0  0  0  0  0  0  0  0  0  0  0  0
   49.9750   24.1490   38.7810 C   0  0  0  0  0  0  0  0  0  0  0  0
   50.2470   25.1890   37.9870 N   0  0  0  0  0  0  0  0  0  0  0  0
   49.1240   25.6450   37.4050 C   0  0  0  0  0  0  0  0  0  0  0  0
   48.8390   26.7220   36.4780 C   0  0  0  0  0  0  0  0  0  0  0  0
   48.1180   26.7860   35.3430 N   0  0  0  0  0  0  0  0  0  0  0  0
   48.1760   28.0040   34.8750 O   0  0  0  0  0  0  0  0  0  0  0  0
   48.9150   28.7660   35.6610 C   0  0  0  0  0  0  0  0  0  0  0  0
   49.3160   27.9480   36.6500 N   0  0  0  0  0  0  0  0  0  0  0  0
   43.8590   23.1180   35.5880 S   0  0  0  0  0  0  0  0  0  0  0  0
   40.4280   22.4590   37.4930 C   0  0  0  0  0  0  0  0  0  0  0  0
   39.5340   23.2820   36.7760 C   0  0  0  0  0  0  0  0  0  0  0  0
   40.0220   24.0300   35.7170 C   0  0  0  0  0  0  0  0  0  0  0  0
   41.3380   23.9390   35.3900 N   0  0  0  0  0  0  0  0  0  0  0  0
   42.1440   23.1170   36.1150 C   0  0  0  0  0  0  0  0  0  0  0  0
   41.6530   22.3950   37.1600 N   0  0  0  0  0  0  0  0  0  0  0  0
   38.0530   23.1120   36.9230 C   0  0  0  0  0  0  0  0  0  0  0  0
   37.7850   22.0250   36.0950 F   0  0  0  0  0  0  0  0  0  0  0  0
   37.5600   22.9520   38.0590 F   0  0  0  0  0  0  0  0  0  0  0  0
   37.5880   24.2220   36.1830 F   0  0  0  0  0  0  0  0  0  0  0  0
   42.9641   25.1121   37.4624 H   0  0  0  0  0  0  0  0  0  0  0  0
   48.0328   23.1604   39.2235 H   0  0  0  0  0  0  0  0  0  0  0  0
   50.6955   23.5745   39.3817 H   0  0  0  0  0  0  0  0  0  0  0  0
   49.1502   29.8331   35.5346 H   0  0  0  0  0  0  0  0  0  0  0  0
   40.0623   21.8687   38.3461 H   0  0  0  0  0  0  0  0  0  0  0  0
   39.3518   24.6903   35.1471 H   0  0  0  0  0  0  0  0  0  0  0  0
  1  5  1  0
  1  2  2  0
  2  3  1  0
  4  6  1  0
  4  3  1  0
  5  4  2  0
  6  7  1  0
  7  8  2  0
  9  8  1  0
 10  6  1  0
 10  9  2  0
 11 15  1  0
 11 10  1  0
 12 11  2  0
 13 12  1  0
 13 14  1  0
 14 15  2  0
 16 21  1  0
 16  1  1  0
 18 23  1  0
 18 17  2  0
 19 18  1  0
 20 19  2  0
 20 21  1  0
 21 22  2  0
 22 17  1  0
 23 25  1  0
 24 23  1  0
 26 23  1  0
  2 27  1  0
  7 28  1  0
  8 29  1  0
 14 30  1  0
 17 31  1  0
 19 32  1  0
M  ISO  6  27  14  28  14  29  14  30  14  31  14  32  14
M  END
>  <minimizedAffinity>  (1) 
-5.0807066

>  <minimizedRMSD>  (1) 
5.0650754

$$$$
