
     RDKit          3D

 33 35  0  0  0  0  0  0  0  0999 V2000
   41.0240   23.5760   35.1610 C   0  0  0  0  0  0  0  0  0  0  0  0
   38.8880   24.6430   35.9370 C   0  0  0  0  0  0  0  0  0  0  0  0
   39.9180   23.7230   36.1010 C   0  0  0  0  0  0  0  0  0  0  0  0
   39.8630   22.9120   37.2430 C   0  0  0  0  0  0  0  0  0  0  0  0
   38.8140   23.0990   38.0760 N   0  0  0  0  0  0  0  0  0  0  0  0
   37.8430   23.9750   37.9070 C   0  0  0  0  0  0  0  0  0  0  0  0
   37.8820   24.7570   36.8230 N   0  0  0  0  0  0  0  0  0  0  0  0
   40.9200   21.9000   37.4950 C   0  0  0  0  0  0  0  0  0  0  0  0
   41.9570   24.6770   35.0130 C   0  0  0  0  0  0  0  0  0  0  0  0
   43.1900   24.5990   35.8220 C   0  0  0  0  0  0  0  0  0  0  0  0
   43.7360   23.9260   36.8460 N   0  0  0  0  0  0  0  0  0  0  0  0
   44.9150   24.3530   37.1030 O   0  0  0  0  0  0  0  0  0  0  0  0
   45.2130   25.3190   36.2790 C   0  0  0  0  0  0  0  0  0  0  0  0
   44.1600   25.4790   35.4870 N   0  0  0  0  0  0  0  0  0  0  0  0
   46.4830   26.0810   36.2440 C   0  0  0  0  0  0  0  0  0  0  0  0
   47.3920   25.9720   37.3030 C   0  0  0  0  0  0  0  0  0  0  0  0
   48.5700   26.7140   37.2130 C   0  0  0  0  0  0  0  0  0  0  0  0
   48.7830   27.5080   36.1050 C   0  0  0  0  0  0  0  0  0  0  0  0
   47.8650   27.5970   35.0720 C   0  0  0  0  0  0  0  0  0  0  0  0
   46.7330   26.8710   35.1780 N   0  0  0  0  0  0  0  0  0  0  0  0
   41.6055   22.6979   35.4784 H   0  0  0  0  0  0  0  0  0  0  0  0
   40.5348   23.5034   34.1785 H   0  0  0  0  0  0  0  0  0  0  0  0
   38.8961   25.2989   35.0540 H   0  0  0  0  0  0  0  0  0  0  0  0
   37.0244   24.0600   38.6368 H   0  0  0  0  0  0  0  0  0  0  0  0
   41.0539   21.7718   38.5793 H   0  0  0  0  0  0  0  0  0  0  0  0
   40.6234   20.9405   37.0462 H   0  0  0  0  0  0  0  0  0  0  0  0
   41.8657   22.2380   37.0462 H   0  0  0  0  0  0  0  0  0  0  0  0
   42.2525   24.7268   33.9546 H   0  0  0  0  0  0  0  0  0  0  0  0
   41.4223   25.5672   35.3758 H   0  0  0  0  0  0  0  0  0  0  0  0
   47.1859   25.3278   38.1705 H   0  0  0  0  0  0  0  0  0  0  0  0
   49.3202   26.6665   38.0161 H   0  0  0  0  0  0  0  0  0  0  0  0
   49.7139   28.0903   36.0399 H   0  0  0  0  0  0  0  0  0  0  0  0
   48.0521   28.2365   34.1968 H   0  0  0  0  0  0  0  0  0  0  0  0
  1  3  1  0
  2  3  2  0
  2  7  1  0
  3  4  1  0
  4  8  1  0
  4  5  2  0
  6  5  1  0
  7  6  2  0
  9  1  1  0
  9 10  1  0
 10 11  2  0
 11 12  1  0
 13 12  1  0
 14 10  1  0
 14 13  2  0
 15 13  1  0
 15 16  2  0
 17 16  1  0
 18 17  2  0
 19 20  2  0
 19 18  1  0
 20 15  1  0
  1 21  1  0
  1 22  1  0
  2 23  1  0
  6 24  1  0
  8 25  1  0
  8 26  1  0
  8 27  1  0
  9 28  1  0
  9 29  1  0
 16 30  1  0
 17 31  1  0
 18 32  1  0
 19 33  1  0
M  ISO  8  21   8  22   8  23  14  24  14  25   8  26   8  27   8  28   8
M  ISO  5  29   8  30  14  31  14  32  14  33  14
M  END
>  <minimizedAffinity>  (1) 
-4.73628855

>  <minimizedRMSD>  (1) 
0.648639858

$$$$
