
     RDKit          3D

 31 32  0  0  0  0  0  0  0  0999 V2000
   41.6790   24.3520   34.8590 C   0  0  0  0  0  0  0  0  0  0  0  0
   42.9270   24.2630   35.6300 C   0  0  0  0  0  0  0  0  0  0  0  0
   43.6300   23.4270   36.3910 N   0  0  0  0  0  0  0  0  0  0  0  0
   44.7230   23.9550   36.8140 O   0  0  0  0  0  0  0  0  0  0  0  0
   44.7900   25.1720   36.3470 C   0  0  0  0  0  0  0  0  0  0  0  0
   43.7070   25.3720   35.6280 N   0  0  0  0  0  0  0  0  0  0  0  0
   45.8700   26.1030   36.5950 N   0  0  0  0  0  0  0  0  0  0  0  0
   46.8000   25.8510   37.6400 C   0  0  0  0  0  0  0  0  0  0  0  0
   46.3700   25.1730   38.6770 N   0  0  0  0  0  0  0  0  0  0  0  0
   48.1210   26.3830   37.4190 N   0  0  0  0  0  0  0  0  0  0  0  0
   47.1020   25.0110   39.4290 H   0  0  0  0  0  0  0  0  0  0  0  0
   40.6700   23.3390   35.1420 C   0  0  0  0  0  0  0  0  0  0  0  0
   38.6960   24.5260   36.1340 C   0  0  0  0  0  0  0  0  0  0  0  0
   39.7170   23.5940   36.2080 C   0  0  0  0  0  0  0  0  0  0  0  0
   39.8170   22.8730   37.3890 C   0  0  0  0  0  0  0  0  0  0  0  0
   38.9010   23.1450   38.3730 N   0  0  0  0  0  0  0  0  0  0  0  0
   37.9400   24.0430   38.2610 C   0  0  0  0  0  0  0  0  0  0  0  0
   37.8260   24.7470   37.1350 N   0  0  0  0  0  0  0  0  0  0  0  0
   40.8730   21.8440   37.5750 C   0  0  0  0  0  0  0  0  0  0  0  0
   41.9382   24.2777   33.7926 H   0  0  0  0  0  0  0  0  0  0  0  0
   41.2224   25.3094   35.1506 H   0  0  0  0  0  0  0  0  0  0  0  0
   45.9647   26.9483   36.0142 H   0  0  0  0  0  0  0  0  0  0  0  0
   48.8566   26.2456   38.1268 H   0  0  0  0  0  0  0  0  0  0  0  0
   48.3296   26.9006   36.5533 H   0  0  0  0  0  0  0  0  0  0  0  0
   40.0923   23.1880   34.2182 H   0  0  0  0  0  0  0  0  0  0  0  0
   41.2477   22.4727   35.4965 H   0  0  0  0  0  0  0  0  0  0  0  0
   38.5914   25.1148   35.2107 H   0  0  0  0  0  0  0  0  0  0  0  0
   37.2380   24.2092   39.0914 H   0  0  0  0  0  0  0  0  0  0  0  0
   41.0406   21.6807   38.6498 H   0  0  0  0  0  0  0  0  0  0  0  0
   40.5532   20.9016   37.1064 H   0  0  0  0  0  0  0  0  0  0  0  0
   41.8068   22.1881   37.1064 H   0  0  0  0  0  0  0  0  0  0  0  0
  1 12  1  0
  1  2  1  0
  2  3  2  0
  3  4  1  0
  5  7  1  0
  5  4  1  0
  6  2  1  0
  6  5  2  0
  7  8  1  0
  8  9  2  0
  9 11  1  0
 10  8  1  0
 12 14  1  0
 13 14  2  0
 13 18  1  0
 14 15  1  0
 15 19  1  0
 15 16  2  0
 17 16  1  0
 18 17  2  0
  1 20  1  0
  1 21  1  0
  7 22  1  0
 10 23  1  0
 10 24  1  0
 12 25  1  0
 12 26  1  0
 13 27  1  0
 17 28  1  0
 19 29  1  0
 19 30  1  0
 19 31  1  0
M  ISO  8  20   8  21   8  25   8  26   8  27  14  28  14  29   8  30   8
M  ISO  1  31   8
M  END
>  <minimizedAffinity>  (1) 
-4.6839838

>  <minimizedRMSD>  (1) 
0.426839978

$$$$
