
     RDKit          3D

 32 33  0  0  1  0  0  0  0  0999 V2000
   38.8160   25.6630   34.9420 C   0  0  2  0  0  0  0  0  0  0  0  0
   39.6020   22.9310   37.2350 C   0  0  0  0  0  0  0  0  0  0  0  0
   38.7830   23.1800   38.3550 C   0  0  0  0  0  0  0  0  0  0  0  0
   37.9590   24.3030   38.3040 C   0  0  0  0  0  0  0  0  0  0  0  0
   37.9940   25.0920   37.1770 N   0  0  0  0  0  0  0  0  0  0  0  0
   38.7900   24.8160   36.1360 C   0  0  0  0  0  0  0  0  0  0  0  0
   39.5850   23.7410   36.1730 N   0  0  0  0  0  0  0  0  0  0  0  0
   39.0000   27.1050   35.3640 C   0  0  0  0  0  0  0  0  0  0  0  0
   37.5630   25.6070   34.1220 C   0  0  0  0  0  0  0  0  0  0  0  0
   37.6800   25.9520   32.7530 N   0  0  0  0  0  0  0  0  0  0  0  0
   36.4800   26.0510   31.9970 C   0  0  0  0  0  0  0  0  0  0  0  0
   35.8620   24.7630   31.5630 C   0  0  0  0  0  0  0  0  0  0  0  0
   36.7840   24.0230   30.8400 O   0  0  0  0  0  0  0  0  0  0  0  0
   37.8200   23.7280   31.7280 C   0  0  0  0  0  0  0  0  0  0  0  0
   38.5620   24.9810   32.1380 C   0  0  0  0  0  0  0  0  0  0  0  0
   39.6429   25.2827   34.3243 H   0  0  0  0  0  0  0  0  0  0  0  0
   40.2666   22.0545   37.2356 H   0  0  0  0  0  0  0  0  0  0  0  0
   38.7938   22.5162   39.2320 H   0  0  0  0  0  0  0  0  0  0  0  0
   37.2959   24.5529   39.1453 H   0  0  0  0  0  0  0  0  0  0  0  0
   39.0080   27.1675   36.4622 H   0  0  0  0  0  0  0  0  0  0  0  0
   39.9538   27.4840   34.9682 H   0  0  0  0  0  0  0  0  0  0  0  0
   38.1719   27.7114   34.9682 H   0  0  0  0  0  0  0  0  0  0  0  0
   37.1767   24.5784   34.1742 H   0  0  0  0  0  0  0  0  0  0  0  0
   36.9006   26.3705   34.5558 H   0  0  0  0  0  0  0  0  0  0  0  0
   35.7409   26.5871   32.6105 H   0  0  0  0  0  0  0  0  0  0  0  0
   36.7612   26.5685   31.0679 H   0  0  0  0  0  0  0  0  0  0  0  0
   35.5481   24.1913   32.4488 H   0  0  0  0  0  0  0  0  0  0  0  0
   34.9872   24.9736   30.9303 H   0  0  0  0  0  0  0  0  0  0  0  0
   37.3988   23.2506   32.6250 H   0  0  0  0  0  0  0  0  0  0  0  0
   38.5279   23.0524   31.2255 H   0  0  0  0  0  0  0  0  0  0  0  0
   39.3491   24.7095   32.8568 H   0  0  0  0  0  0  0  0  0  0  0  0
   38.9922   25.4350   31.2331 H   0  0  0  0  0  0  0  0  0  0  0  0
  1  8  1  0
  1  6  1  0
  2  3  2  0
  4  3  1  0
  5  4  2  0
  6  7  2  0
  6  5  1  0
  7  2  1  0
  9  1  1  0
 10  9  1  0
 11 10  1  0
 12 11  1  0
 13 12  1  0
 13 14  1  0
 14 15  1  0
 15 10  1  0
  1 16  1  6
  2 17  1  0
  3 18  1  0
  4 19  1  0
  8 20  1  0
  8 21  1  0
  8 22  1  0
  9 23  1  0
  9 24  1  0
 11 25  1  0
 11 26  1  0
 12 27  1  0
 12 28  1  0
 14 29  1  0
 14 30  1  0
 15 31  1  0
 15 32  1  0
M  ISO  8  16   8  17  14  18  14  19  14  20   8  21   8  22   8  23   8
M  ISO  8  24   8  25  13  26  13  27  13  28  13  29  13  30  13  31  13
M  ISO  1  32  13
M  END
>  <minimizedAffinity>  (1) 
-4.041049

>  <minimizedRMSD>  (1) 
2.21873832

$$$$
