
     RDKit          3D

 40 42  0  0  0  0  0  0  0  0999 V2000
   40.5160   23.1880   35.1010 C   0  0  0  0  0  0  0  0  0  0  0  0
   38.6160   24.4730   36.1520 C   0  0  0  0  0  0  0  0  0  0  0  0
   39.6300   23.5250   36.2160 C   0  0  0  0  0  0  0  0  0  0  0  0
   39.7980   22.8660   37.4380 C   0  0  0  0  0  0  0  0  0  0  0  0
   38.9570   23.2180   38.4440 N   0  0  0  0  0  0  0  0  0  0  0  0
   38.0010   24.1240   38.3540 C   0  0  0  0  0  0  0  0  0  0  0  0
   37.8290   24.7610   37.1890 N   0  0  0  0  0  0  0  0  0  0  0  0
   40.8520   21.8310   37.6020 C   0  0  0  0  0  0  0  0  0  0  0  0
   41.5360   24.1500   34.7240 C   0  0  0  0  0  0  0  0  0  0  0  0
   42.8200   24.0340   35.4480 C   0  0  0  0  0  0  0  0  0  0  0  0
   43.6290   23.1300   36.0190 N   0  0  0  0  0  0  0  0  0  0  0  0
   44.6670   23.6900   36.5200 O   0  0  0  0  0  0  0  0  0  0  0  0
   44.6040   24.9740   36.3110 C   0  0  0  0  0  0  0  0  0  0  0  0
   43.4800   25.1970   35.6570 N   0  0  0  0  0  0  0  0  0  0  0  0
   45.6330   25.9870   36.7450 C   0  0  0  0  0  0  0  0  0  0  0  0
   46.2830   26.5590   35.4890 C   0  0  0  0  0  0  0  0  0  0  0  0
   47.5700   25.8200   35.1680 C   0  0  0  0  0  0  0  0  0  0  0  0
   48.5860   26.1000   36.2610 C   0  0  0  0  0  0  0  0  0  0  0  0
   47.9600   26.1390   37.6180 C   0  0  0  0  0  0  0  0  0  0  0  0
   46.6780   25.3660   37.6170 C   0  0  0  0  0  0  0  0  0  0  0  0
   41.0308   22.2521   35.3640 H   0  0  0  0  0  0  0  0  0  0  0  0
   39.8498   23.1384   34.2271 H   0  0  0  0  0  0  0  0  0  0  0  0
   38.4557   25.0090   35.2049 H   0  0  0  0  0  0  0  0  0  0  0  0
   37.3592   24.3508   39.2181 H   0  0  0  0  0  0  0  0  0  0  0  0
   41.0304   21.6558   38.6732 H   0  0  0  0  0  0  0  0  0  0  0  0
   40.5236   20.8947   37.1271 H   0  0  0  0  0  0  0  0  0  0  0  0
   41.7821   22.1764   37.1271 H   0  0  0  0  0  0  0  0  0  0  0  0
   41.7399   24.0243   33.6504 H   0  0  0  0  0  0  0  0  0  0  0  0
   41.1302   25.1383   34.9859 H   0  0  0  0  0  0  0  0  0  0  0  0
   45.1421   26.7775   37.3316 H   0  0  0  0  0  0  0  0  0  0  0  0
   45.5870   26.4566   34.6434 H   0  0  0  0  0  0  0  0  0  0  0  0
   46.5176   27.6195   35.6632 H   0  0  0  0  0  0  0  0  0  0  0  0
   47.3718   24.7392   35.1167 H   0  0  0  0  0  0  0  0  0  0  0  0
   47.9629   26.1612   34.1989 H   0  0  0  0  0  0  0  0  0  0  0  0
   49.3497   25.3084   36.2459 H   0  0  0  0  0  0  0  0  0  0  0  0
   49.0289   27.0877   36.0651 H   0  0  0  0  0  0  0  0  0  0  0  0
   48.6512   25.6959   38.3501 H   0  0  0  0  0  0  0  0  0  0  0  0
   47.7491   27.1846   37.8866 H   0  0  0  0  0  0  0  0  0  0  0  0
   46.2946   25.3181   38.6469 H   0  0  0  0  0  0  0  0  0  0  0  0
   46.8932   24.3640   37.2174 H   0  0  0  0  0  0  0  0  0  0  0  0
  1  3  1  0
  2  3  2  0
  2  7  1  0
  3  4  1  0
  4  8  1  0
  4  5  2  0
  6  5  1  0
  7  6  2  0
  9  1  1  0
  9 10  1  0
 10 14  1  0
 10 11  2  0
 11 12  1  0
 13 12  1  0
 13 15  1  0
 14 13  2  0
 15 20  1  0
 16 15  1  0
 17 16  1  0
 17 18  1  0
 18 19  1  0
 20 19  1  0
  1 21  1  0
  1 22  1  0
  2 23  1  0
  6 24  1  0
  8 25  1  0
  8 26  1  0
  8 27  1  0
  9 28  1  0
  9 29  1  0
 15 30  1  0
 16 31  1  0
 16 32  1  0
 17 33  1  0
 17 34  1  0
 18 35  1  0
 18 36  1  0
 19 37  1  0
 19 38  1  0
 20 39  1  0
 20 40  1  0
M  ISO  8  21   8  22   8  23  14  24  14  25   8  26   8  27   8  28   8
M  ISO  8  29   8  30  13  31  13  32  13  33  13  34  13  35  13  36  13
M  ISO  4  37  13  38  13  39  13  40  13
M  END
>  <minimizedAffinity>  (1) 
-4.61790514

>  <minimizedRMSD>  (1) 
0.755644321

$$$$
