
     RDKit          3D

 27 28  0  0  0  0  0  0  0  0999 V2000
   40.9420   23.2030   35.0480 C   0  0  0  0  0  0  0  0  0  0  0  0
   38.9620   24.4650   35.9670 C   0  0  0  0  0  0  0  0  0  0  0  0
   39.9740   23.5170   36.0810 C   0  0  0  0  0  0  0  0  0  0  0  0
   40.0380   22.8230   37.2750 C   0  0  0  0  0  0  0  0  0  0  0  0
   39.1140   23.1080   38.2590 N   0  0  0  0  0  0  0  0  0  0  0  0
   38.1580   24.0350   38.0880 C   0  0  0  0  0  0  0  0  0  0  0  0
   38.0800   24.7160   36.9430 N   0  0  0  0  0  0  0  0  0  0  0  0
   41.0400   21.7880   37.5450 C   0  0  0  0  0  0  0  0  0  0  0  0
   42.0030   24.1710   34.7850 C   0  0  0  0  0  0  0  0  0  0  0  0
   43.2120   24.0460   35.6050 C   0  0  0  0  0  0  0  0  0  0  0  0
   44.2440   23.2160   35.8450 N   0  0  0  0  0  0  0  0  0  0  0  0
   45.0350   23.7040   36.7520 O   0  0  0  0  0  0  0  0  0  0  0  0
   44.5600   24.8360   37.1230 C   0  0  0  0  0  0  0  0  0  0  0  0
   43.4540   25.0920   36.4590 N   0  0  0  0  0  0  0  0  0  0  0  0
   45.2270   25.6610   38.1550 C   0  0  0  0  0  0  0  0  0  0  0  0
   46.4770   25.8120   38.1110 O   0  0  0  0  0  0  0  0  0  0  0  0
   44.5450   26.2900   39.1900 O   0  0  0  0  0  0  0  0  0  0  0  0
   41.4257   22.2562   35.3301 H   0  0  0  0  0  0  0  0  0  0  0  0
   40.3541   23.1809   34.1185 H   0  0  0  0  0  0  0  0  0  0  0  0
   38.8825   25.0358   35.0301 H   0  0  0  0  0  0  0  0  0  0  0  0
   37.4367   24.2338   38.8943 H   0  0  0  0  0  0  0  0  0  0  0  0
   41.1578   21.6663   38.6319 H   0  0  0  0  0  0  0  0  0  0  0  0
   40.7118   20.8357   37.1029 H   0  0  0  0  0  0  0  0  0  0  0  0
   42.0024   22.0852   37.1029 H   0  0  0  0  0  0  0  0  0  0  0  0
   42.3000   24.0652   33.7312 H   0  0  0  0  0  0  0  0  0  0  0  0
   41.5755   25.1522   35.0391 H   0  0  0  0  0  0  0  0  0  0  0  0
   45.0422   26.8307   39.8538 H   0  0  0  0  0  0  0  0  0  0  0  0
  1  3  1  0
  2  3  2  0
  2  7  1  0
  3  4  1  0
  4  8  1  0
  4  5  2  0
  6  5  1  0
  7  6  2  0
  9  1  1  0
  9 10  1  0
 10 11  2  0
 10 14  1  0
 11 12  1  0
 12 13  1  0
 13 15  1  0
 14 13  2  0
 15 17  1  0
 16 15  2  0
  1 18  1  0
  1 19  1  0
  2 20  1  0
  6 21  1  0
  8 22  1  0
  8 23  1  0
  8 24  1  0
  9 25  1  0
  9 26  1  0
 17 27  1  0
M  ISO  8  18   8  19   8  20  14  21  14  22   8  23   8  24   8  25   8
M  ISO  2  26   8  27   3
M  END
>  <minimizedAffinity>  (1) 
-4.38642979

>  <minimizedRMSD>  (1) 
1.09630799

$$$$
