
     RDKit          3D

 25 26  0  0  0  0  0  0  0  0999 V2000
   40.9750   23.4060   35.1400 C   0  0  0  0  0  0  0  0  0  0  0  0
   38.9040   24.5580   35.9960 C   0  0  0  0  0  0  0  0  0  0  0  0
   39.9250   23.6190   36.1340 C   0  0  0  0  0  0  0  0  0  0  0  0
   39.9240   22.8540   37.3020 C   0  0  0  0  0  0  0  0  0  0  0  0
   38.9330   23.0970   38.1950 N   0  0  0  0  0  0  0  0  0  0  0  0
   37.9810   23.9950   38.0350 C   0  0  0  0  0  0  0  0  0  0  0  0
   37.9630   24.7320   36.9310 N   0  0  0  0  0  0  0  0  0  0  0  0
   40.9690   21.8220   37.5320 C   0  0  0  0  0  0  0  0  0  0  0  0
   41.9080   24.4900   34.8940 C   0  0  0  0  0  0  0  0  0  0  0  0
   43.1130   24.5150   35.7370 C   0  0  0  0  0  0  0  0  0  0  0  0
   43.6930   23.8630   36.7680 N   0  0  0  0  0  0  0  0  0  0  0  0
   44.8240   24.4110   37.0760 O   0  0  0  0  0  0  0  0  0  0  0  0
   45.0230   25.4070   36.2880 C   0  0  0  0  0  0  0  0  0  0  0  0
   44.0120   25.5140   35.4540 N   0  0  0  0  0  0  0  0  0  0  0  0
   46.1720   26.2220   36.3610 O   0  0  0  0  0  0  0  0  0  0  0  0
   41.5631   22.5355   35.4663 H   0  0  0  0  0  0  0  0  0  0  0  0
   40.4344   23.2867   34.1894 H   0  0  0  0  0  0  0  0  0  0  0  0
   38.8709   25.1770   35.0873 H   0  0  0  0  0  0  0  0  0  0  0  0
   37.2102   24.1320   38.8077 H   0  0  0  0  0  0  0  0  0  0  0  0
   41.1126   21.6802   38.6133 H   0  0  0  0  0  0  0  0  0  0  0  0
   40.6527   20.8720   37.0764 H   0  0  0  0  0  0  0  0  0  0  0  0
   41.9149   22.1501   37.0764 H   0  0  0  0  0  0  0  0  0  0  0  0
   42.2335   24.4209   33.8456 H   0  0  0  0  0  0  0  0  0  0  0  0
   41.3591   25.4113   35.1386 H   0  0  0  0  0  0  0  0  0  0  0  0
   46.2827   26.9790   35.7326 H   0  0  0  0  0  0  0  0  0  0  0  0
  1  3  1  0
  2  3  2  0
  2  7  1  0
  3  4  1  0
  4  8  1  0
  4  5  2  0
  6  5  1  0
  7  6  2  0
  9  1  1  0
  9 10  1  0
 10 11  2  0
 11 12  1  0
 13 15  1  0
 13 12  1  0
 14 10  1  0
 14 13  2  0
  1 16  1  0
  1 17  1  0
  2 18  1  0
  6 19  1  0
  8 20  1  0
  8 21  1  0
  8 22  1  0
  9 23  1  0
  9 24  1  0
 15 25  1  0
M  ISO  8  16   8  17   8  18  14  19  14  20   8  21   8  22   8  23   8
M  ISO  2  24   8  25   3
M  END
>  <minimizedAffinity>  (1) 
-3.92103577

>  <minimizedRMSD>  (1) 
0.134263173

$$$$
