
     RDKit          3D

 27 28  0  0  0  0  0  0  0  0999 V2000
   40.9540   23.4320   35.1390 C   0  0  0  0  0  0  0  0  0  0  0  0
   38.8900   24.5730   36.0010 C   0  0  0  0  0  0  0  0  0  0  0  0
   39.9110   23.6390   36.1320 C   0  0  0  0  0  0  0  0  0  0  0  0
   39.9040   22.8760   37.2910 C   0  0  0  0  0  0  0  0  0  0  0  0
   38.9090   23.1040   38.1920 N   0  0  0  0  0  0  0  0  0  0  0  0
   37.9500   23.9970   38.0470 C   0  0  0  0  0  0  0  0  0  0  0  0
   37.9480   24.7430   36.9260 N   0  0  0  0  0  0  0  0  0  0  0  0
   40.9460   21.8430   37.5300 C   0  0  0  0  0  0  0  0  0  0  0  0
   41.9010   24.5070   34.8970 C   0  0  0  0  0  0  0  0  0  0  0  0
   43.1110   24.5080   35.7350 C   0  0  0  0  0  0  0  0  0  0  0  0
   43.6640   23.9050   36.7870 N   0  0  0  0  0  0  0  0  0  0  0  0
   44.8210   24.3790   37.0700 O   0  0  0  0  0  0  0  0  0  0  0  0
   45.0930   25.3250   36.2170 C   0  0  0  0  0  0  0  0  0  0  0  0
   44.0610   25.4150   35.3970 N   0  0  0  0  0  0  0  0  0  0  0  0
   46.3590   26.1430   36.1960 C   0  0  0  0  0  0  0  0  0  0  0  0
   41.5342   22.5526   35.4553 H   0  0  0  0  0  0  0  0  0  0  0  0
   40.4075   23.3342   34.1893 H   0  0  0  0  0  0  0  0  0  0  0  0
   38.8592   25.1973   35.0958 H   0  0  0  0  0  0  0  0  0  0  0  0
   37.1760   24.1285   38.8174 H   0  0  0  0  0  0  0  0  0  0  0  0
   41.0846   21.7056   38.6125 H   0  0  0  0  0  0  0  0  0  0  0  0
   40.6299   20.8917   37.0771 H   0  0  0  0  0  0  0  0  0  0  0  0
   41.8945   22.1674   37.0771 H   0  0  0  0  0  0  0  0  0  0  0  0
   42.2204   24.4427   33.8464 H   0  0  0  0  0  0  0  0  0  0  0  0
   41.3658   25.4337   35.1516 H   0  0  0  0  0  0  0  0  0  0  0  0
   46.6791   26.3498   37.2279 H   0  0  0  0  0  0  0  0  0  0  0  0
   47.1483   25.5837   35.6724 H   0  0  0  0  0  0  0  0  0  0  0  0
   46.1735   27.0924   35.6724 H   0  0  0  0  0  0  0  0  0  0  0  0
  1  3  1  0
  2  3  2  0
  2  7  1  0
  3  4  1  0
  4  8  1  0
  4  5  2  0
  6  5  1  0
  7  6  2  0
  9  1  1  0
  9 10  1  0
 10 11  2  0
 11 12  1  0
 13 12  1  0
 14 10  1  0
 14 13  2  0
 15 13  1  0
  1 16  1  0
  1 17  1  0
  2 18  1  0
  6 19  1  0
  8 20  1  0
  8 21  1  0
  8 22  1  0
  9 23  1  0
  9 24  1  0
 15 25  1  0
 15 26  1  0
 15 27  1  0
M  ISO  8  16   8  17   8  18  14  19  14  20   8  21   8  22   8  23   8
M  ISO  4  24   8  25   8  26   8  27   8
M  END
>  <minimizedAffinity>  (1) 
-3.89883614

>  <minimizedRMSD>  (1) 
0.204460472

$$$$
