
     RDKit          3D

 49 52  0  0  1  0  0  0  0  0999 V2000
   43.0620   23.9880   35.5290 C   0  0  0  0  0  0  0  0  0  0  0  0
   43.8610   22.9450   35.4960 N   0  0  0  0  0  0  0  0  0  0  0  0
   44.9640   23.1190   36.1540 O   0  0  0  0  0  0  0  0  0  0  0  0
   44.9330   24.2930   36.6480 C   0  0  0  0  0  0  0  0  0  0  0  0
   43.7950   24.8290   36.2820 N   0  0  0  0  0  0  0  0  0  0  0  0
   45.8370   25.0420   37.4500 N   0  0  0  0  0  0  0  0  0  0  0  0
   46.0430   25.0250   38.9010 C   0  0  0  0  0  0  0  0  0  0  0  0
   47.5280   24.7120   39.0390 C   0  0  0  0  0  0  0  0  0  0  0  0
   48.0800   25.2700   37.7070 C   0  0  0  0  0  0  0  0  0  0  0  0
   46.8780   26.0700   37.2440 C   0  0  1  0  0  0  0  0  0  0  0  0
   46.9710   26.4720   35.8630 N   0  0  0  0  0  0  0  0  0  0  0  0
   45.9760   26.7490   35.0280 C   0  0  0  0  0  0  0  0  0  0  0  0
   46.2300   27.1240   33.7240 C   0  0  0  0  0  0  0  0  0  0  0  0
   45.1180   27.4280   32.8100 C   0  0  0  0  0  0  0  0  0  0  0  0
   47.5250   27.2150   33.2750 C   0  0  0  0  0  0  0  0  0  0  0  0
   47.7520   27.5520   32.1000 O   0  0  0  0  0  0  0  0  0  0  0  0
   48.5270   26.9330   34.1230 N   0  0  0  0  0  0  0  0  0  0  0  0
   48.2460   26.5720   35.3840 C   0  0  0  0  0  0  0  0  0  0  0  0
   49.2590   26.3230   36.1210 O   0  0  0  0  0  0  0  0  0  0  0  0
   41.7540   24.4110   35.0190 C   0  0  0  0  0  0  0  0  0  0  0  0
   40.6630   23.4560   35.1580 C   0  0  0  0  0  0  0  0  0  0  0  0
   38.6460   24.5690   36.2050 C   0  0  0  0  0  0  0  0  0  0  0  0
   39.7030   23.6490   36.2510 C   0  0  0  0  0  0  0  0  0  0  0  0
   39.8280   22.8950   37.3940 C   0  0  0  0  0  0  0  0  0  0  0  0
   38.9080   23.1130   38.3830 N   0  0  0  0  0  0  0  0  0  0  0  0
   37.9170   23.9880   38.3150 C   0  0  0  0  0  0  0  0  0  0  0  0
   37.7800   24.7320   37.2080 N   0  0  0  0  0  0  0  0  0  0  0  0
   40.9190   21.8930   37.5350 C   0  0  0  0  0  0  0  0  0  0  0  0
   45.8031   26.0025   39.3448 H   0  0  0  0  0  0  0  0  0  0  0  0
   45.3994   24.2989   39.4193 H   0  0  0  0  0  0  0  0  0  0  0  0
   47.9693   25.2270   39.9051 H   0  0  0  0  0  0  0  0  0  0  0  0
   47.7504   23.6481   39.2085 H   0  0  0  0  0  0  0  0  0  0  0  0
   48.9608   25.9097   37.8652 H   0  0  0  0  0  0  0  0  0  0  0  0
   48.4347   24.5097   36.9956 H   0  0  0  0  0  0  0  0  0  0  0  0
   46.7233   27.0269   37.7641 H   0  0  0  0  0  0  0  0  0  0  0  0
   44.9362   26.6787   35.3800 H   0  0  0  0  0  0  0  0  0  0  0  0
   44.2193   27.6737   33.3949 H   0  0  0  0  0  0  0  0  0  0  0  0
   45.3885   28.2852   32.1759 H   0  0  0  0  0  0  0  0  0  0  0  0
   44.9148   26.5525   32.1759 H   0  0  0  0  0  0  0  0  0  0  0  0
   49.5055   26.9935   33.8072 H   0  0  0  0  0  0  0  0  0  0  0  0
   41.8689   24.6337   33.9479 H   0  0  0  0  0  0  0  0  0  0  0  0
   41.4658   25.2745   35.6366 H   0  0  0  0  0  0  0  0  0  0  0  0
   40.0931   23.4738   34.2173 H   0  0  0  0  0  0  0  0  0  0  0  0
   41.1631   22.5069   35.4011 H   0  0  0  0  0  0  0  0  0  0  0  0
   38.5247   25.1845   35.3014 H   0  0  0  0  0  0  0  0  0  0  0  0
   37.2159   24.1031   39.1547 H   0  0  0  0  0  0  0  0  0  0  0  0
   41.1155   21.7126   38.6022 H   0  0  0  0  0  0  0  0  0  0  0  0
   40.6165   20.9514   37.0535 H   0  0  0  0  0  0  0  0  0  0  0  0
   41.8316   22.2743   37.0535 H   0  0  0  0  0  0  0  0  0  0  0  0
  1  5  1  0
  2  1  2  0
  2  3  1  0
  3  4  1  0
  4  6  1  0
  5  4  2  0
  6  7  1  0
  7  8  1  0
  9  8  1  0
 10  6  1  0
 10  9  1  0
 11 10  1  0
 12 11  1  0
 13 12  2  0
 14 13  1  0
 15 13  1  0
 15 17  1  0
 16 15  2  0
 17 18  1  0
 18 11  1  0
 18 19  2  0
 20 21  1  0
 20  1  1  0
 21 23  1  0
 22 23  2  0
 22 27  1  0
 23 24  1  0
 24 28  1  0
 24 25  2  0
 26 25  1  0
 27 26  2  0
  7 29  1  0
  7 30  1  0
  8 31  1  0
  8 32  1  0
  9 33  1  0
  9 34  1  0
 10 35  1  1
 12 36  1  0
 14 37  1  0
 14 38  1  0
 14 39  1  0
 17 40  1  0
 20 41  1  0
 20 42  1  0
 21 43  1  0
 21 44  1  0
 22 45  1  0
 26 46  1  0
 28 47  1  0
 28 48  1  0
 28 49  1  0
M  ISO  8  29  13  30  13  31  13  32  13  33  13  34  13  35  13  36  14
M  ISO  8  37   8  38   8  39   8  40   9  41   8  42   8  43   8  44   8
M  ISO  5  45  14  46  14  47   8  48   8  49   8
M  END
>  <minimizedAffinity>  (1) 
-5.39469957

>  <minimizedRMSD>  (1) 
0.23839958

$$$$
