
     RDKit          3D

 47 51  0  0  1  0  0  0  0  0999 V2000
   42.8960   23.7570   35.5070 C   0  0  0  0  0  0  0  0  0  0  0  0
   43.5900   22.6710   35.7690 N   0  0  0  0  0  0  0  0  0  0  0  0
   44.6560   22.9010   36.4690 O   0  0  0  0  0  0  0  0  0  0  0  0
   44.7050   24.1540   36.6960 C   0  0  0  0  0  0  0  0  0  0  0  0
   43.6530   24.6840   36.1250 N   0  0  0  0  0  0  0  0  0  0  0  0
   45.6230   24.9780   37.3970 N   0  0  0  0  0  0  0  0  0  0  0  0
   45.7240   25.3110   38.8140 C   0  0  0  0  0  0  0  0  0  0  0  0
   47.1510   24.8940   39.1680 C   0  0  0  0  0  0  0  0  0  0  0  0
   47.8630   25.0230   37.8080 C   0  0  0  0  0  0  0  0  0  0  0  0
   46.7980   25.8060   37.0480 C   0  0  1  0  0  0  0  0  0  0  0  0
   47.0900   25.7090   35.6510 N   0  0  0  0  0  0  0  0  0  0  0  0
   47.9270   24.8980   34.9410 C   0  0  0  0  0  0  0  0  0  0  0  0
   47.8480   25.1960   33.6430 N   0  0  0  0  0  0  0  0  0  0  0  0
   46.9590   26.1990   33.5160 C   0  0  0  0  0  0  0  0  0  0  0  0
   46.5470   26.8440   32.3520 C   0  0  0  0  0  0  0  0  0  0  0  0
   45.6320   27.8320   32.4930 N   0  0  0  0  0  0  0  0  0  0  0  0
   45.1780   28.1330   33.7350 C   0  0  0  0  0  0  0  0  0  0  0  0
   45.5490   27.5380   34.8830 N   0  0  0  0  0  0  0  0  0  0  0  0
   46.4660   26.5400   34.7790 C   0  0  0  0  0  0  0  0  0  0  0  0
   41.6760   24.1590   34.8050 C   0  0  0  0  0  0  0  0  0  0  0  0
   40.4980   23.3310   35.0100 C   0  0  0  0  0  0  0  0  0  0  0  0
   38.6490   24.6480   36.1220 C   0  0  0  0  0  0  0  0  0  0  0  0
   39.6220   23.6380   36.1470 C   0  0  0  0  0  0  0  0  0  0  0  0
   39.7380   22.9090   37.3090 C   0  0  0  0  0  0  0  0  0  0  0  0
   38.8960   23.2360   38.3310 N   0  0  0  0  0  0  0  0  0  0  0  0
   37.9870   24.1880   38.2970 C   0  0  0  0  0  0  0  0  0  0  0  0
   37.8580   24.9100   37.1710 N   0  0  0  0  0  0  0  0  0  0  0  0
   40.7520   21.8120   37.4210 C   0  0  0  0  0  0  0  0  0  0  0  0
   45.5755   26.3885   38.9778 H   0  0  0  0  0  0  0  0  0  0  0  0
   44.9623   24.8114   39.4306 H   0  0  0  0  0  0  0  0  0  0  0  0
   47.5916   25.5690   39.9165 H   0  0  0  0  0  0  0  0  0  0  0  0
   47.2243   23.8921   39.6162 H   0  0  0  0  0  0  0  0  0  0  0  0
   48.8063   25.5831   37.8888 H   0  0  0  0  0  0  0  0  0  0  0  0
   48.1695   24.0735   37.3450 H   0  0  0  0  0  0  0  0  0  0  0  0
   46.6964   26.8774   37.2754 H   0  0  0  0  0  0  0  0  0  0  0  0
   48.5695   24.1169   35.3735 H   0  0  0  0  0  0  0  0  0  0  0  0
   46.9458   26.5641   31.3658 H   0  0  0  0  0  0  0  0  0  0  0  0
   44.4354   28.9409   33.8109 H   0  0  0  0  0  0  0  0  0  0  0  0
   41.8976   24.1614   33.7275 H   0  0  0  0  0  0  0  0  0  0  0  0
   41.4135   25.1416   35.2241 H   0  0  0  0  0  0  0  0  0  0  0  0
   39.8863   23.4032   34.0986 H   0  0  0  0  0  0  0  0  0  0  0  0
   40.9029   22.3344   35.2401 H   0  0  0  0  0  0  0  0  0  0  0  0
   38.5311   25.2472   35.2071 H   0  0  0  0  0  0  0  0  0  0  0  0
   37.3481   24.3876   39.1699 H   0  0  0  0  0  0  0  0  0  0  0  0
   40.9476   21.6004   38.4826 H   0  0  0  0  0  0  0  0  0  0  0  0
   40.3670   20.9054   36.9313 H   0  0  0  0  0  0  0  0  0  0  0  0
   41.6861   22.1247   36.9313 H   0  0  0  0  0  0  0  0  0  0  0  0
  1  2  2  0
  1  5  1  0
  2  3  1  0
  3  4  1  0
  4  6  1  0
  5  4  2  0
  6  7  1  0
  7  8  1  0
  9  8  1  0
 10  6  1  0
 10  9  1  0
 11 10  1  0
 12 11  1  0
 13 12  2  0
 14 13  1  0
 14 19  2  0
 15 16  2  0
 15 14  1  0
 16 17  1  0
 17 18  2  0
 19 18  1  0
 19 11  1  0
 20 21  1  0
 20  1  1  0
 21 23  1  0
 22 23  2  0
 22 27  1  0
 23 24  1  0
 24 28  1  0
 24 25  2  0
 26 25  1  0
 27 26  2  0
  7 29  1  0
  7 30  1  0
  8 31  1  0
  8 32  1  0
  9 33  1  0
  9 34  1  0
 10 35  1  1
 12 36  1  0
 15 37  1  0
 17 38  1  0
 20 39  1  0
 20 40  1  0
 21 41  1  0
 21 42  1  0
 22 43  1  0
 26 44  1  0
 28 45  1  0
 28 46  1  0
 28 47  1  0
M  ISO  8  29  13  30  13  31  13  32  13  33  13  34  13  35  13  36  14
M  ISO  8  37  14  38  14  39   8  40   8  41   8  42   8  43  14  44  14
M  ISO  3  45   8  46   8  47   8
M  END
>  <minimizedAffinity>  (1) 
-5.38308144

>  <minimizedRMSD>  (1) 
0.691170931

$$$$
