
     RDKit          3D

 34 37  0  0  0  0  0  0  0  0999 V2000
   43.5600   23.4900   34.1020 C   0  0  0  0  0  0  0  0  0  0  0  0
   44.0380   24.0300   35.3070 C   0  0  0  0  0  0  0  0  0  0  0  0
   45.3330   25.2370   34.7190 S   0  0  0  0  0  0  0  0  0  0  0  0
   44.9610   24.7600   32.9180 C   0  0  0  0  0  0  0  0  0  0  0  0
   44.1700   24.0110   33.0890 N   0  0  0  0  0  0  0  0  0  0  0  0
   45.5890   25.2840   31.7130 N   0  0  0  0  0  0  0  0  0  0  0  0
   46.5950   24.5590   31.2510 C   0  0  0  0  0  0  0  0  0  0  0  0
   47.0740   25.1920   30.1150 C   0  0  0  0  0  0  0  0  0  0  0  0
   46.3010   26.2930   29.9600 N   0  0  0  0  0  0  0  0  0  0  0  0
   45.3890   26.3580   30.9350 C   0  0  0  0  0  0  0  0  0  0  0  0
   44.3440   27.2930   31.2470 C   0  0  0  0  0  0  0  0  0  0  0  0
   43.0360   27.1790   30.8190 C   0  0  0  0  0  0  0  0  0  0  0  0
   42.2610   28.2270   31.2760 C   0  0  0  0  0  0  0  0  0  0  0  0
   43.1210   28.9610   31.9790 N   0  0  0  0  0  0  0  0  0  0  0  0
   44.3130   28.4360   31.9680 N   0  0  0  0  0  0  0  0  0  0  0  0
   42.2610   22.2480   34.1970 S   0  0  0  0  0  0  0  0  0  0  0  0
   40.4220   22.3840   37.7200 C   0  0  0  0  0  0  0  0  0  0  0  0
   39.3760   23.2930   37.5210 C   0  0  0  0  0  0  0  0  0  0  0  0
   39.2590   23.8610   36.2600 C   0  0  0  0  0  0  0  0  0  0  0  0
   40.1520   23.5210   35.2750 N   0  0  0  0  0  0  0  0  0  0  0  0
   41.1550   22.6280   35.5250 C   0  0  0  0  0  0  0  0  0  0  0  0
   41.2670   22.0820   36.7340 N   0  0  0  0  0  0  0  0  0  0  0  0
   38.3980   23.6760   38.5720 C   0  0  0  0  0  0  0  0  0  0  0  0
   39.1380   23.9100   39.7300 F   0  0  0  0  0  0  0  0  0  0  0  0
   37.4670   22.7380   38.8150 F   0  0  0  0  0  0  0  0  0  0  0  0
   37.8420   24.9400   38.2790 F   0  0  0  0  0  0  0  0  0  0  0  0
   43.7274   23.7996   36.3368 H   0  0  0  0  0  0  0  0  0  0  0  0
   46.9801   23.6259   31.6881 H   0  0  0  0  0  0  0  0  0  0  0  0
   47.9071   24.8681   29.4739 H   0  0  0  0  0  0  0  0  0  0  0  0
   42.6588   26.3570   30.1929 H   0  0  0  0  0  0  0  0  0  0  0  0
   41.1907   28.4109   31.1012 H   0  0  0  0  0  0  0  0  0  0  0  0
   42.8751   29.8329   32.4691 H   0  0  0  0  0  0  0  0  0  0  0  0
   40.5486   21.9116   38.7053 H   0  0  0  0  0  0  0  0  0  0  0  0
   38.4538   24.5807   36.0510 H   0  0  0  0  0  0  0  0  0  0  0  0
  1 16  1  0
  1  2  2  0
  3  2  1  0
  4  5  2  0
  4  3  1  0
  5  1  1  0
  6  4  1  0
  7  6  1  0
  8  7  2  0
  9  8  1  0
  9 10  2  0
 10 11  1  0
 10  6  1  0
 11 15  2  0
 12 11  1  0
 12 13  2  0
 13 14  1  0
 15 14  1  0
 16 21  1  0
 18 17  2  0
 18 23  1  0
 19 18  1  0
 20 21  1  0
 20 19  2  0
 21 22  2  0
 22 17  1  0
 23 25  1  0
 23 24  1  0
 26 23  1  0
  2 27  1  0
  7 28  1  0
  8 29  1  0
 12 30  1  0
 13 31  1  0
 14 32  1  0
 17 33  1  0
 19 34  1  0
M  ISO  8  27  14  28  14  29  14  30  14  31  14  32   9  33  14  34  14
M  END
>  <minimizedAffinity>  (1) 
-4.28714132

>  <minimizedRMSD>  (1) 
2.90037918

$$$$
