
     RDKit          3D

 44 47  0  0  1  0  0  0  0  0999 V2000
   43.0680   23.9450   35.5450 C   0  0  0  0  0  0  0  0  0  0  0  0
   43.8460   22.8860   35.5590 N   0  0  0  0  0  0  0  0  0  0  0  0
   44.9490   23.0600   36.2160 O   0  0  0  0  0  0  0  0  0  0  0  0
   44.9370   24.2540   36.6640 C   0  0  0  0  0  0  0  0  0  0  0  0
   43.8130   24.8000   36.2710 N   0  0  0  0  0  0  0  0  0  0  0  0
   45.8510   25.0160   37.4440 N   0  0  0  0  0  0  0  0  0  0  0  0
   46.0450   25.0900   38.8920 C   0  0  0  0  0  0  0  0  0  0  0  0
   47.5210   24.7060   39.0610 C   0  0  0  0  0  0  0  0  0  0  0  0
   48.1070   25.1560   37.7170 C   0  0  0  0  0  0  0  0  0  0  0  0
   46.9320   25.9950   37.1730 C   0  0  1  0  0  0  0  0  0  0  0  0
   47.0120   26.1370   35.7150 C   0  0  0  0  0  0  0  0  0  0  0  0
   47.8820   25.3190   34.9850 C   0  0  0  0  0  0  0  0  0  0  0  0
   47.8950   25.5170   33.6430 C   0  0  0  0  0  0  0  0  0  0  0  0
   47.1420   26.4240   32.9980 N   0  0  0  0  0  0  0  0  0  0  0  0
   46.2990   27.2160   33.7160 C   0  0  0  0  0  0  0  0  0  0  0  0
   46.2640   27.0440   35.0530 N   0  0  0  0  0  0  0  0  0  0  0  0
   41.7720   24.3720   35.0120 C   0  0  0  0  0  0  0  0  0  0  0  0
   40.6630   23.4380   35.1480 C   0  0  0  0  0  0  0  0  0  0  0  0
   38.6560   24.5680   36.1930 C   0  0  0  0  0  0  0  0  0  0  0  0
   39.7080   23.6450   36.2370 C   0  0  0  0  0  0  0  0  0  0  0  0
   39.8220   22.8990   37.3870 C   0  0  0  0  0  0  0  0  0  0  0  0
   38.9050   23.1220   38.3810 N   0  0  0  0  0  0  0  0  0  0  0  0
   37.9210   24.0040   38.3090 C   0  0  0  0  0  0  0  0  0  0  0  0
   37.7920   24.7390   37.1990 N   0  0  0  0  0  0  0  0  0  0  0  0
   40.9120   21.8830   37.5370 C   0  0  0  0  0  0  0  0  0  0  0  0
   45.8557   26.1074   39.2650 H   0  0  0  0  0  0  0  0  0  0  0  0
   45.3600   24.4395   39.4555 H   0  0  0  0  0  0  0  0  0  0  0  0
   47.9830   25.2443   39.9017 H   0  0  0  0  0  0  0  0  0  0  0  0
   47.6855   23.6427   39.2897 H   0  0  0  0  0  0  0  0  0  0  0  0
   49.0138   25.7640   37.8512 H   0  0  0  0  0  0  0  0  0  0  0  0
   48.4325   24.3371   37.0586 H   0  0  0  0  0  0  0  0  0  0  0  0
   46.8520   27.0086   37.5928 H   0  0  0  0  0  0  0  0  0  0  0  0
   48.5162   24.5621   35.4696 H   0  0  0  0  0  0  0  0  0  0  0  0
   48.5695   24.8910   33.0404 H   0  0  0  0  0  0  0  0  0  0  0  0
   45.6683   27.9701   33.2226 H   0  0  0  0  0  0  0  0  0  0  0  0
   41.9049   24.5760   33.9393 H   0  0  0  0  0  0  0  0  0  0  0  0
   41.4870   25.2452   35.6172 H   0  0  0  0  0  0  0  0  0  0  0  0
   40.0945   23.4690   34.2068 H   0  0  0  0  0  0  0  0  0  0  0  0
   41.1452   22.4794   35.3900 H   0  0  0  0  0  0  0  0  0  0  0  0
   38.5346   25.1814   35.2880 H   0  0  0  0  0  0  0  0  0  0  0  0
   37.2209   24.1305   39.1480 H   0  0  0  0  0  0  0  0  0  0  0  0
   41.1029   21.7051   38.6056 H   0  0  0  0  0  0  0  0  0  0  0  0
   40.6045   20.9418   37.0578 H   0  0  0  0  0  0  0  0  0  0  0  0
   41.8293   22.2558   37.0578 H   0  0  0  0  0  0  0  0  0  0  0  0
  1  2  2  0
  1  5  1  0
  2  3  1  0
  3  4  1  0
  4  6  1  0
  5  4  2  0
  6  7  1  0
  7  8  1  0
  9  8  1  0
 10  6  1  0
 10  9  1  0
 11 10  1  0
 12 11  2  0
 13 12  1  0
 14 13  2  0
 14 15  1  0
 15 16  2  0
 16 11  1  0
 17 18  1  0
 17  1  1  0
 18 20  1  0
 19 20  2  0
 19 24  1  0
 20 21  1  0
 21 25  1  0
 21 22  2  0
 23 22  1  0
 24 23  2  0
  7 26  1  0
  7 27  1  0
  8 28  1  0
  8 29  1  0
  9 30  1  0
  9 31  1  0
 10 32  1  1
 12 33  1  0
 13 34  1  0
 15 35  1  0
 17 36  1  0
 17 37  1  0
 18 38  1  0
 18 39  1  0
 19 40  1  0
 23 41  1  0
 25 42  1  0
 25 43  1  0
 25 44  1  0
M  ISO  8  26  13  27  13  28  13  29  13  30  13  31  13  32  13  33  14
M  ISO  8  34  14  35  14  36   8  37   8  38   8  39   8  40  14  41  14
M  ISO  3  42   8  43   8  44   8
M  END
>  <minimizedAffinity>  (1) 
-5.18548489

>  <minimizedRMSD>  (1) 
0.387844443

$$$$
