
     RDKit          3D

 46 49  0  0  1  0  0  0  0  0999 V2000
   42.8520   23.7670   35.3740 C   0  0  0  0  0  0  0  0  0  0  0  0
   43.6570   22.7370   35.4930 N   0  0  0  0  0  0  0  0  0  0  0  0
   44.7360   22.9910   36.1400 O   0  0  0  0  0  0  0  0  0  0  0  0
   44.6960   24.2300   36.4880 C   0  0  0  0  0  0  0  0  0  0  0  0
   43.5680   24.6960   36.0310 N   0  0  0  0  0  0  0  0  0  0  0  0
   45.5900   25.0670   37.2080 N   0  0  0  0  0  0  0  0  0  0  0  0
   45.7420   25.2090   38.6760 C   0  0  0  0  0  0  0  0  0  0  0  0
   47.2150   24.9160   38.9100 C   0  0  0  0  0  0  0  0  0  0  0  0
   47.8190   25.2550   37.5550 C   0  0  0  0  0  0  0  0  0  0  0  0
   46.6400   26.0400   36.9340 C   0  0  1  0  0  0  0  0  0  0  0  0
   46.8750   26.3090   35.5200 C   0  0  0  0  0  0  0  0  0  0  0  0
   47.8330   25.8070   34.6740 C   0  0  0  0  0  0  0  0  0  0  0  0
   48.0000   26.1160   33.3580 C   0  0  0  0  0  0  0  0  0  0  0  0
   47.1430   27.0150   32.7820 C   0  0  0  0  0  0  0  0  0  0  0  0
   46.1370   27.5740   33.5740 C   0  0  0  0  0  0  0  0  0  0  0  0
   46.0140   27.2240   34.9070 C   0  0  0  0  0  0  0  0  0  0  0  0
   41.5610   24.1510   34.7970 C   0  0  0  0  0  0  0  0  0  0  0  0
   40.4430   23.2530   35.0630 C   0  0  0  0  0  0  0  0  0  0  0  0
   38.5490   24.5020   36.1900 C   0  0  0  0  0  0  0  0  0  0  0  0
   39.5850   23.5570   36.2140 C   0  0  0  0  0  0  0  0  0  0  0  0
   39.7760   22.8960   37.4020 C   0  0  0  0  0  0  0  0  0  0  0  0
   38.9520   23.2140   38.4350 N   0  0  0  0  0  0  0  0  0  0  0  0
   37.9730   24.1180   38.3840 C   0  0  0  0  0  0  0  0  0  0  0  0
   37.7730   24.7710   37.2360 N   0  0  0  0  0  0  0  0  0  0  0  0
   40.8500   21.8700   37.5350 C   0  0  0  0  0  0  0  0  0  0  0  0
   45.4875   26.2286   39.0009 H   0  0  0  0  0  0  0  0  0  0  0  0
   45.0769   24.5405   39.2423 H   0  0  0  0  0  0  0  0  0  0  0  0
   47.6291   25.5546   39.7042 H   0  0  0  0  0  0  0  0  0  0  0  0
   47.4171   23.8873   39.2430 H   0  0  0  0  0  0  0  0  0  0  0  0
   48.7200   25.8784   37.6526 H   0  0  0  0  0  0  0  0  0  0  0  0
   48.1642   24.3907   36.9687 H   0  0  0  0  0  0  0  0  0  0  0  0
   46.4333   27.0487   37.3209 H   0  0  0  0  0  0  0  0  0  0  0  0
   48.5384   25.0803   35.1034 H   0  0  0  0  0  0  0  0  0  0  0  0
   48.8064   25.6530   32.7704 H   0  0  0  0  0  0  0  0  0  0  0  0
   47.2440   27.2904   31.7218 H   0  0  0  0  0  0  0  0  0  0  0  0
   45.4364   28.2989   33.1339 H   0  0  0  0  0  0  0  0  0  0  0  0
   45.2116   27.6812   35.5046 H   0  0  0  0  0  0  0  0  0  0  0  0
   41.6871   24.2156   33.7062 H   0  0  0  0  0  0  0  0  0  0  0  0
   41.2947   25.1028   35.2799 H   0  0  0  0  0  0  0  0  0  0  0  0
   39.8036   23.2498   34.1679 H   0  0  0  0  0  0  0  0  0  0  0  0
   40.9122   22.2897   35.3117 H   0  0  0  0  0  0  0  0  0  0  0  0
   38.3683   25.0511   35.2542 H   0  0  0  0  0  0  0  0  0  0  0  0
   37.3461   24.3208   39.2648 H   0  0  0  0  0  0  0  0  0  0  0  0
   41.0472   21.6816   38.6007 H   0  0  0  0  0  0  0  0  0  0  0  0
   40.5271   20.9364   37.0512 H   0  0  0  0  0  0  0  0  0  0  0  0
   41.7679   22.2352   37.0512 H   0  0  0  0  0  0  0  0  0  0  0  0
  1  2  2  0
  1  5  1  0
  2  3  1  0
  3  4  1  0
  4  6  1  0
  5  4  2  0
  6  7  1  0
  7  8  1  0
  9  8  1  0
 10  6  1  0
 10  9  1  0
 11 10  1  0
 12 11  2  0
 13 12  1  0
 14 13  2  0
 14 15  1  0
 15 16  2  0
 16 11  1  0
 17 18  1  0
 17  1  1  0
 18 20  1  0
 19 20  2  0
 19 24  1  0
 20 21  1  0
 21 25  1  0
 21 22  2  0
 23 22  1  0
 24 23  2  0
  7 26  1  0
  7 27  1  0
  8 28  1  0
  8 29  1  0
  9 30  1  0
  9 31  1  0
 10 32  1  1
 12 33  1  0
 13 34  1  0
 14 35  1  0
 15 36  1  0
 16 37  1  0
 17 38  1  0
 17 39  1  0
 18 40  1  0
 18 41  1  0
 19 42  1  0
 23 43  1  0
 25 44  1  0
 25 45  1  0
 25 46  1  0
M  ISO  8  26  13  27  13  28  13  29  13  30  13  31  13  32  13  33  14
M  ISO  8  34  14  35  14  36  14  37  14  38   8  39   8  40   8  41   8
M  ISO  5  42  14  43  14  44   8  45   8  46   8
M  END
>  <minimizedAffinity>  (1) 
-5.15095758

>  <minimizedRMSD>  (1) 
0.356588185

$$$$
