
     RDKit          3D

 42 45  0  0  1  0  0  0  0  0999 V2000
   43.0510   23.9250   35.5590 C   0  0  0  0  0  0  0  0  0  0  0  0
   43.8200   22.8600   35.5940 N   0  0  0  0  0  0  0  0  0  0  0  0
   44.9170   23.0350   36.2460 O   0  0  0  0  0  0  0  0  0  0  0  0
   44.9240   24.2350   36.6760 C   0  0  0  0  0  0  0  0  0  0  0  0
   43.8060   24.7830   36.2710 N   0  0  0  0  0  0  0  0  0  0  0  0
   45.8450   25.0030   37.4430 N   0  0  0  0  0  0  0  0  0  0  0  0
   46.0400   25.0930   38.8900 C   0  0  0  0  0  0  0  0  0  0  0  0
   47.5080   24.7110   39.0630 C   0  0  0  0  0  0  0  0  0  0  0  0
   48.0940   25.1410   37.7230 C   0  0  0  0  0  0  0  0  0  0  0  0
   46.9280   25.9740   37.1590 C   0  0  1  0  0  0  0  0  0  0  0  0
   47.1080   26.1670   35.7160 C   0  0  0  0  0  0  0  0  0  0  0  0
   48.0260   25.3700   34.8800 C   0  0  0  0  0  0  0  0  0  0  0  0
   47.7970   26.0870   33.1970 S   0  0  0  0  0  0  0  0  0  0  0  0
   46.5250   27.3150   33.8960 C   0  0  0  0  0  0  0  0  0  0  0  0
   46.4740   27.0720   34.9930 N   0  0  0  0  0  0  0  0  0  0  0  0
   41.7620   24.3650   35.0170 C   0  0  0  0  0  0  0  0  0  0  0  0
   40.6500   23.4350   35.1420 C   0  0  0  0  0  0  0  0  0  0  0  0
   38.6500   24.5680   36.2090 C   0  0  0  0  0  0  0  0  0  0  0  0
   39.7020   23.6440   36.2360 C   0  0  0  0  0  0  0  0  0  0  0  0
   39.8120   22.9020   37.3890 C   0  0  0  0  0  0  0  0  0  0  0  0
   38.8950   23.1340   38.3860 N   0  0  0  0  0  0  0  0  0  0  0  0
   37.9220   24.0130   38.3200 C   0  0  0  0  0  0  0  0  0  0  0  0
   37.7950   24.7440   37.2130 N   0  0  0  0  0  0  0  0  0  0  0  0
   40.9000   21.8800   37.5340 C   0  0  0  0  0  0  0  0  0  0  0  0
   45.8521   26.1148   39.2515 H   0  0  0  0  0  0  0  0  0  0  0  0
   45.3544   24.4494   39.4607 H   0  0  0  0  0  0  0  0  0  0  0  0
   47.9700   25.2585   39.8978 H   0  0  0  0  0  0  0  0  0  0  0  0
   47.6699   23.6499   39.3035 H   0  0  0  0  0  0  0  0  0  0  0  0
   49.0013   25.7491   37.8533 H   0  0  0  0  0  0  0  0  0  0  0  0
   48.4178   24.3112   37.0776 H   0  0  0  0  0  0  0  0  0  0  0  0
   46.7861   26.9868   37.5641 H   0  0  0  0  0  0  0  0  0  0  0  0
   48.6876   24.5465   35.1869 H   0  0  0  0  0  0  0  0  0  0  0  0
   45.9651   28.0888   33.3505 H   0  0  0  0  0  0  0  0  0  0  0  0
   41.9040   24.5731   33.9462 H   0  0  0  0  0  0  0  0  0  0  0  0
   41.4774   25.2395   35.6206 H   0  0  0  0  0  0  0  0  0  0  0  0
   40.0801   23.4778   34.2021 H   0  0  0  0  0  0  0  0  0  0  0  0
   41.1234   22.4683   35.3685 H   0  0  0  0  0  0  0  0  0  0  0  0
   38.5234   25.1834   35.3061 H   0  0  0  0  0  0  0  0  0  0  0  0
   37.2257   24.1434   39.1615 H   0  0  0  0  0  0  0  0  0  0  0  0
   41.0929   21.6988   38.6017 H   0  0  0  0  0  0  0  0  0  0  0  0
   40.5876   20.9412   37.0533 H   0  0  0  0  0  0  0  0  0  0  0  0
   41.8175   22.2504   37.0533 H   0  0  0  0  0  0  0  0  0  0  0  0
  1  2  2  0
  1  5  1  0
  2  3  1  0
  3  4  1  0
  4  6  1  0
  5  4  2  0
  6  7  1  0
  7  8  1  0
  9  8  1  0
 10  6  1  0
 10  9  1  0
 11 10  1  0
 12 11  2  0
 13 14  1  0
 13 12  1  0
 14 15  2  0
 15 11  1  0
 16 17  1  0
 16  1  1  0
 17 19  1  0
 18 19  2  0
 18 23  1  0
 19 20  1  0
 20 24  1  0
 20 21  2  0
 22 21  1  0
 23 22  2  0
  7 25  1  0
  7 26  1  0
  8 27  1  0
  8 28  1  0
  9 29  1  0
  9 30  1  0
 10 31  1  1
 12 32  1  0
 14 33  1  0
 16 34  1  0
 16 35  1  0
 17 36  1  0
 17 37  1  0
 18 38  1  0
 22 39  1  0
 24 40  1  0
 24 41  1  0
 24 42  1  0
M  ISO  8  25  13  26  13  27  13  28  13  29  13  30  13  31  13  32  14
M  ISO  8  33  14  34   8  35   8  36   8  37   8  38  14  39  14  40   8
M  ISO  2  41   8  42   8
M  END
>  <minimizedAffinity>  (1) 
-5.13260746

>  <minimizedRMSD>  (1) 
0.338859946

$$$$
