
     RDKit          3D

 42 45  0  0  1  0  0  0  0  0999 V2000
   43.0390   23.9170   35.5370 C   0  0  0  0  0  0  0  0  0  0  0  0
   43.8120   22.8550   35.5700 N   0  0  0  0  0  0  0  0  0  0  0  0
   44.9150   23.0350   36.2270 O   0  0  0  0  0  0  0  0  0  0  0  0
   44.9090   24.2360   36.6550 C   0  0  0  0  0  0  0  0  0  0  0  0
   43.7900   24.7780   36.2490 N   0  0  0  0  0  0  0  0  0  0  0  0
   45.8260   25.0050   37.4230 N   0  0  0  0  0  0  0  0  0  0  0  0
   46.0150   25.1070   38.8680 C   0  0  0  0  0  0  0  0  0  0  0  0
   47.4790   24.7280   39.0610 C   0  0  0  0  0  0  0  0  0  0  0  0
   48.0770   25.1340   37.7160 C   0  0  0  0  0  0  0  0  0  0  0  0
   46.9150   25.9710   37.1450 C   0  0  1  0  0  0  0  0  0  0  0  0
   47.1380   26.1240   35.7290 N   0  0  0  0  0  0  0  0  0  0  0  0
   47.9660   25.4290   34.9230 C   0  0  0  0  0  0  0  0  0  0  0  0
   47.8890   25.8790   33.6390 N   0  0  0  0  0  0  0  0  0  0  0  0
   46.9740   26.8900   33.6700 C   0  0  0  0  0  0  0  0  0  0  0  0
   46.5580   26.9930   34.9420 N   0  0  0  0  0  0  0  0  0  0  0  0
   41.7480   24.3490   34.9950 C   0  0  0  0  0  0  0  0  0  0  0  0
   40.6370   23.4180   35.1390 C   0  0  0  0  0  0  0  0  0  0  0  0
   38.6460   24.5690   36.1920 C   0  0  0  0  0  0  0  0  0  0  0  0
   39.6910   23.6360   36.2390 C   0  0  0  0  0  0  0  0  0  0  0  0
   39.8170   22.8920   37.3960 C   0  0  0  0  0  0  0  0  0  0  0  0
   38.9070   23.1360   38.3880 N   0  0  0  0  0  0  0  0  0  0  0  0
   37.9270   24.0220   38.3200 C   0  0  0  0  0  0  0  0  0  0  0  0
   37.7880   24.7520   37.2090 N   0  0  0  0  0  0  0  0  0  0  0  0
   40.8990   21.8800   37.5330 C   0  0  0  0  0  0  0  0  0  0  0  0
   45.8244   26.1321   39.2184 H   0  0  0  0  0  0  0  0  0  0  0  0
   45.3268   24.4649   39.4373 H   0  0  0  0  0  0  0  0  0  0  0  0
   47.9341   25.2905   39.8896 H   0  0  0  0  0  0  0  0  0  0  0  0
   47.6386   23.6716   39.3228 H   0  0  0  0  0  0  0  0  0  0  0  0
   48.9899   25.7350   37.8403 H   0  0  0  0  0  0  0  0  0  0  0  0
   48.3983   24.2953   37.0809 H   0  0  0  0  0  0  0  0  0  0  0  0
   46.7533   26.9848   37.5401 H   0  0  0  0  0  0  0  0  0  0  0  0
   48.6171   24.6079   35.2575 H   0  0  0  0  0  0  0  0  0  0  0  0
   46.6417   27.5018   32.8184 H   0  0  0  0  0  0  0  0  0  0  0  0
   41.8846   24.5423   33.9208 H   0  0  0  0  0  0  0  0  0  0  0  0
   41.4654   25.2323   35.5866 H   0  0  0  0  0  0  0  0  0  0  0  0
   40.0614   23.4490   34.2022 H   0  0  0  0  0  0  0  0  0  0  0  0
   41.1150   22.4560   35.3757 H   0  0  0  0  0  0  0  0  0  0  0  0
   38.5234   25.1771   35.2836 H   0  0  0  0  0  0  0  0  0  0  0  0
   37.2364   24.1560   39.1657 H   0  0  0  0  0  0  0  0  0  0  0  0
   41.0959   21.6958   38.5994 H   0  0  0  0  0  0  0  0  0  0  0  0
   40.5870   20.9420   37.0504 H   0  0  0  0  0  0  0  0  0  0  0  0
   41.8140   22.2539   37.0504 H   0  0  0  0  0  0  0  0  0  0  0  0
  1  2  2  0
  1  5  1  0
  2  3  1  0
  3  4  1  0
  4  6  1  0
  5  4  2  0
  6  7  1  0
  7  8  1  0
  9  8  1  0
 10  6  1  0
 10  9  1  0
 11 10  1  0
 12 11  1  0
 13 14  1  0
 13 12  2  0
 14 15  2  0
 15 11  1  0
 16 17  1  0
 16  1  1  0
 17 19  1  0
 18 19  2  0
 18 23  1  0
 19 20  1  0
 20 24  1  0
 20 21  2  0
 22 21  1  0
 23 22  2  0
  7 25  1  0
  7 26  1  0
  8 27  1  0
  8 28  1  0
  9 29  1  0
  9 30  1  0
 10 31  1  1
 12 32  1  0
 14 33  1  0
 16 34  1  0
 16 35  1  0
 17 36  1  0
 17 37  1  0
 18 38  1  0
 22 39  1  0
 24 40  1  0
 24 41  1  0
 24 42  1  0
M  ISO  8  25  13  26  13  27  13  28  13  29  13  30  13  31  13  32  14
M  ISO  8  33  14  34   8  35   8  36   8  37   8  38  14  39  14  40   8
M  ISO  2  41   8  42   8
M  END
>  <minimizedAffinity>  (1) 
-5.10179424

>  <minimizedRMSD>  (1) 
0.436908841

$$$$
