
     RDKit          3D

 45 47  0  0  1  0  0  0  0  0999 V2000
   42.5270   23.5680   35.2370 C   0  0  0  0  0  0  0  0  0  0  0  0
   43.4060   22.6300   35.5190 N   0  0  0  0  0  0  0  0  0  0  0  0
   44.4010   23.0550   36.2240 O   0  0  0  0  0  0  0  0  0  0  0  0
   44.2200   24.3030   36.4380 C   0  0  0  0  0  0  0  0  0  0  0  0
   43.0960   24.6240   35.8510 N   0  0  0  0  0  0  0  0  0  0  0  0
   44.9650   25.2870   37.1360 N   0  0  0  0  0  0  0  0  0  0  0  0
   44.9800   25.5940   38.5860 C   0  0  0  0  0  0  0  0  0  0  0  0
   46.4460   25.4970   38.9410 C   0  0  0  0  0  0  0  0  0  0  0  0
   47.1330   25.7810   37.5850 C   0  0  0  0  0  0  0  0  0  0  0  0
   45.9460   26.3320   36.8130 C   0  0  1  0  0  0  0  0  0  0  0  0
   41.2590   23.7480   34.5220 C   0  0  0  0  0  0  0  0  0  0  0  0
   40.1420   22.9300   34.9790 C   0  0  0  0  0  0  0  0  0  0  0  0
   38.3650   24.3600   36.0750 C   0  0  0  0  0  0  0  0  0  0  0  0
   39.3810   23.3960   36.1410 C   0  0  0  0  0  0  0  0  0  0  0  0
   39.6580   22.8720   37.3810 C   0  0  0  0  0  0  0  0  0  0  0  0
   38.9150   23.3430   38.4300 N   0  0  0  0  0  0  0  0  0  0  0  0
   37.9680   24.2480   38.3400 C   0  0  0  0  0  0  0  0  0  0  0  0
   37.6820   24.7680   37.1510 N   0  0  0  0  0  0  0  0  0  0  0  0
   40.7270   21.8350   37.5550 C   0  0  0  0  0  0  0  0  0  0  0  0
   46.1590   26.3910   35.3310 C   0  0  0  0  0  0  0  0  0  0  0  0
   45.2400   27.4560   34.7340 C   0  0  0  0  0  0  0  0  0  0  0  0
   47.5720   26.5200   34.8910 C   0  0  0  0  0  0  0  0  0  0  0  0
   44.5927   26.6052   38.7797 H   0  0  0  0  0  0  0  0  0  0  0  0
   44.3458   24.9178   39.1780 H   0  0  0  0  0  0  0  0  0  0  0  0
   46.7242   26.2493   39.6938 H   0  0  0  0  0  0  0  0  0  0  0  0
   46.7288   24.5308   39.3842 H   0  0  0  0  0  0  0  0  0  0  0  0
   47.9399   26.5224   37.6811 H   0  0  0  0  0  0  0  0  0  0  0  0
   47.6317   24.9164   37.1226 H   0  0  0  0  0  0  0  0  0  0  0  0
   45.6896   27.3692   37.0748 H   0  0  0  0  0  0  0  0  0  0  0  0
   41.4351   23.5138   33.4617 H   0  0  0  0  0  0  0  0  0  0  0  0
   40.9589   24.7892   34.7112 H   0  0  0  0  0  0  0  0  0  0  0  0
   39.4365   22.8408   34.1398 H   0  0  0  0  0  0  0  0  0  0  0  0
   40.6067   21.9904   35.3125 H   0  0  0  0  0  0  0  0  0  0  0  0
   38.1189   24.7996   35.0972 H   0  0  0  0  0  0  0  0  0  0  0  0
   37.4188   24.5713   39.2366 H   0  0  0  0  0  0  0  0  0  0  0  0
   40.9020   21.6652   38.6276 H   0  0  0  0  0  0  0  0  0  0  0  0
   40.4062   20.8949   37.0825 H   0  0  0  0  0  0  0  0  0  0  0  0
   41.6570   22.1842   37.0825 H   0  0  0  0  0  0  0  0  0  0  0  0
   45.8838   25.4042   34.9304 H   0  0  0  0  0  0  0  0  0  0  0  0
   44.7548   28.0183   35.5454 H   0  0  0  0  0  0  0  0  0  0  0  0
   45.8318   28.1449   34.1134 H   0  0  0  0  0  0  0  0  0  0  0  0
   44.4719   26.9714   34.1134 H   0  0  0  0  0  0  0  0  0  0  0  0
   48.2267   26.5798   35.7730 H   0  0  0  0  0  0  0  0  0  0  0  0
   47.8495   25.6435   34.2871 H   0  0  0  0  0  0  0  0  0  0  0  0
   47.6862   27.4323   34.2871 H   0  0  0  0  0  0  0  0  0  0  0  0
  1  2  2  0
  1  5  1  0
  2  3  1  0
  3  4  1  0
  4  6  1  0
  5  4  2  0
  6  7  1  0
  7  8  1  0
  9  8  1  0
 10  6  1  0
 10  9  1  0
 11 12  1  0
 11  1  1  0
 12 14  1  0
 13 14  2  0
 13 18  1  0
 14 15  1  0
 15 19  1  0
 15 16  2  0
 17 16  1  0
 18 17  2  0
 20 10  1  0
 21 20  1  0
 22 20  1  0
  7 23  1  0
  7 24  1  0
  8 25  1  0
  8 26  1  0
  9 27  1  0
  9 28  1  0
 10 29  1  1
 11 30  1  0
 11 31  1  0
 12 32  1  0
 12 33  1  0
 13 34  1  0
 17 35  1  0
 19 36  1  0
 19 37  1  0
 19 38  1  0
 20 39  1  0
 21 40  1  0
 21 41  1  0
 21 42  1  0
 22 43  1  0
 22 44  1  0
 22 45  1  0
M  ISO  8  23  13  24  13  25  13  26  13  27  13  28  13  29  13  30   8
M  ISO  8  31   8  32   8  33   8  34  14  35  14  36   8  37   8  38   8
M  ISO  7  39   8  40   8  41   8  42   8  43   8  44   8  45   8
M  END
>  <minimizedAffinity>  (1) 
-5.04177952

>  <minimizedRMSD>  (1) 
0.80010587

$$$$
