
     RDKit          3D

 39 41  0  0  1  0  0  0  0  0999 V2000
   43.0580   23.9270   35.5390 C   0  0  0  0  0  0  0  0  0  0  0  0
   43.8360   22.8690   35.5660 N   0  0  0  0  0  0  0  0  0  0  0  0
   44.9320   23.0480   36.2180 O   0  0  0  0  0  0  0  0  0  0  0  0
   44.9300   24.2450   36.6580 C   0  0  0  0  0  0  0  0  0  0  0  0
   43.8080   24.7870   36.2570 N   0  0  0  0  0  0  0  0  0  0  0  0
   45.8470   25.0100   37.4300 N   0  0  0  0  0  0  0  0  0  0  0  0
   46.0340   25.1040   38.8750 C   0  0  0  0  0  0  0  0  0  0  0  0
   47.5080   24.7290   39.0550 C   0  0  0  0  0  0  0  0  0  0  0  0
   48.1000   25.1430   37.7150 C   0  0  0  0  0  0  0  0  0  0  0  0
   46.9350   25.9740   37.1540 C   0  0  1  0  0  0  0  0  0  0  0  0
   41.7650   24.3660   35.0050 C   0  0  0  0  0  0  0  0  0  0  0  0
   40.6550   23.4270   35.1390 C   0  0  0  0  0  0  0  0  0  0  0  0
   38.6550   24.5650   36.1930 C   0  0  0  0  0  0  0  0  0  0  0  0
   39.7060   23.6380   36.2330 C   0  0  0  0  0  0  0  0  0  0  0  0
   39.8240   22.8950   37.3840 C   0  0  0  0  0  0  0  0  0  0  0  0
   38.9090   23.1310   38.3740 N   0  0  0  0  0  0  0  0  0  0  0  0
   37.9260   24.0130   38.3110 C   0  0  0  0  0  0  0  0  0  0  0  0
   37.7940   24.7450   37.2000 N   0  0  0  0  0  0  0  0  0  0  0  0
   40.9100   21.8790   37.5310 C   0  0  0  0  0  0  0  0  0  0  0  0
   47.1520   26.0710   35.6730 C   0  0  0  0  0  0  0  0  0  0  0  0
   45.8390   26.1255   39.2336 H   0  0  0  0  0  0  0  0  0  0  0  0
   45.3491   24.4584   39.4443 H   0  0  0  0  0  0  0  0  0  0  0  0
   47.9651   25.2880   39.8848 H   0  0  0  0  0  0  0  0  0  0  0  0
   47.6711   23.6706   39.3064 H   0  0  0  0  0  0  0  0  0  0  0  0
   49.0100   25.7482   37.8402 H   0  0  0  0  0  0  0  0  0  0  0  0
   48.4252   24.3097   37.0748 H   0  0  0  0  0  0  0  0  0  0  0  0
   46.7842   26.9903   37.5469 H   0  0  0  0  0  0  0  0  0  0  0  0
   41.8990   24.5751   33.9334 H   0  0  0  0  0  0  0  0  0  0  0  0
   41.4818   25.2414   35.6079 H   0  0  0  0  0  0  0  0  0  0  0  0
   40.0838   23.4592   34.1995 H   0  0  0  0  0  0  0  0  0  0  0  0
   41.1349   22.4652   35.3727 H   0  0  0  0  0  0  0  0  0  0  0  0
   38.5324   25.1758   35.2864 H   0  0  0  0  0  0  0  0  0  0  0  0
   37.2318   24.1418   39.1545 H   0  0  0  0  0  0  0  0  0  0  0  0
   41.1020   21.6994   38.5991 H   0  0  0  0  0  0  0  0  0  0  0  0
   40.6001   20.9390   37.0510 H   0  0  0  0  0  0  0  0  0  0  0  0
   41.8273   22.2507   37.0510 H   0  0  0  0  0  0  0  0  0  0  0  0
   48.1399   26.5126   35.4753 H   0  0  0  0  0  0  0  0  0  0  0  0
   47.1041   25.0658   35.2288 H   0  0  0  0  0  0  0  0  0  0  0  0
   46.3711   26.7057   35.2288 H   0  0  0  0  0  0  0  0  0  0  0  0
  1  2  2  0
  1  5  1  0
  2  3  1  0
  3  4  1  0
  4  6  1  0
  5  4  2  0
  6  7  1  0
  7  8  1  0
  9  8  1  0
 10  6  1  0
 10  9  1  0
 11 12  1  0
 11  1  1  0
 12 14  1  0
 13 14  2  0
 13 18  1  0
 14 15  1  0
 15 19  1  0
 15 16  2  0
 17 16  1  0
 18 17  2  0
 20 10  1  0
  7 21  1  0
  7 22  1  0
  8 23  1  0
  8 24  1  0
  9 25  1  0
  9 26  1  0
 10 27  1  1
 11 28  1  0
 11 29  1  0
 12 30  1  0
 12 31  1  0
 13 32  1  0
 17 33  1  0
 19 34  1  0
 19 35  1  0
 19 36  1  0
 20 37  1  0
 20 38  1  0
 20 39  1  0
M  ISO  8  21  13  22  13  23  13  24  13  25  13  26  13  27  13  28   8
M  ISO  8  29   8  30   8  31   8  32  14  33  14  34   8  35   8  36   8
M  ISO  3  37   8  38   8  39   8
M  END
>  <minimizedAffinity>  (1) 
-4.98339081

>  <minimizedRMSD>  (1) 
0.0638930798

$$$$
