
     RDKit          3D

 37 39  0  0  1  0  0  0  0  0999 V2000
   43.0360   23.9070   35.5300 C   0  0  0  0  0  0  0  0  0  0  0  0
   43.8090   22.8440   35.5780 N   0  0  0  0  0  0  0  0  0  0  0  0
   44.9020   23.0300   36.2320 O   0  0  0  0  0  0  0  0  0  0  0  0
   44.9050   24.2330   36.6500 C   0  0  0  0  0  0  0  0  0  0  0  0
   43.7870   24.7730   36.2350 N   0  0  0  0  0  0  0  0  0  0  0  0
   45.8210   25.0080   37.4120 N   0  0  0  0  0  0  0  0  0  0  0  0
   46.0070   25.1230   38.8560 C   0  0  0  0  0  0  0  0  0  0  0  0
   47.4810   24.7430   39.0380 C   0  0  0  0  0  0  0  0  0  0  0  0
   48.0790   25.1440   37.6830 C   0  0  0  0  0  0  0  0  0  0  0  0
   46.9130   25.9680   37.1230 C   0  0  1  0  0  0  0  0  0  0  0  0
   41.7480   24.3420   34.9820 C   0  0  0  0  0  0  0  0  0  0  0  0
   40.6340   23.4140   35.1290 C   0  0  0  0  0  0  0  0  0  0  0  0
   38.6460   24.5710   36.1820 C   0  0  0  0  0  0  0  0  0  0  0  0
   39.6900   23.6360   36.2340 C   0  0  0  0  0  0  0  0  0  0  0  0
   39.8140   22.8980   37.3870 C   0  0  0  0  0  0  0  0  0  0  0  0
   38.9100   23.1350   38.3900 N   0  0  0  0  0  0  0  0  0  0  0  0
   37.9270   24.0270   38.3200 C   0  0  0  0  0  0  0  0  0  0  0  0
   37.7920   24.7570   37.2000 N   0  0  0  0  0  0  0  0  0  0  0  0
   40.8960   21.8820   37.5310 C   0  0  0  0  0  0  0  0  0  0  0  0
   47.0640   26.1430   35.7590 O   0  0  0  0  0  0  0  0  0  0  0  0
   45.8170   26.1505   39.1997 H   0  0  0  0  0  0  0  0  0  0  0  0
   45.3187   24.4908   39.4362 H   0  0  0  0  0  0  0  0  0  0  0  0
   47.9414   25.3081   39.8618 H   0  0  0  0  0  0  0  0  0  0  0  0
   47.6393   23.6863   39.2992 H   0  0  0  0  0  0  0  0  0  0  0  0
   48.9899   25.7494   37.7999 H   0  0  0  0  0  0  0  0  0  0  0  0
   48.4055   24.3058   37.0498 H   0  0  0  0  0  0  0  0  0  0  0  0
   46.7858   26.9816   37.5309 H   0  0  0  0  0  0  0  0  0  0  0  0
   41.8878   24.5292   33.9071 H   0  0  0  0  0  0  0  0  0  0  0  0
   41.4670   25.2303   35.5667 H   0  0  0  0  0  0  0  0  0  0  0  0
   40.0559   23.4467   34.1938 H   0  0  0  0  0  0  0  0  0  0  0  0
   41.1094   22.4503   35.3642 H   0  0  0  0  0  0  0  0  0  0  0  0
   38.5225   25.1754   35.2712 H   0  0  0  0  0  0  0  0  0  0  0  0
   37.2358   24.1652   39.1645 H   0  0  0  0  0  0  0  0  0  0  0  0
   41.0890   21.7007   38.5987 H   0  0  0  0  0  0  0  0  0  0  0  0
   40.5838   20.9432   37.0503 H   0  0  0  0  0  0  0  0  0  0  0  0
   41.8134   22.2526   37.0503 H   0  0  0  0  0  0  0  0  0  0  0  0
   47.7012   26.8815   35.5896 H   0  0  0  0  0  0  0  0  0  0  0  0
  1  2  2  0
  1  5  1  0
  2  3  1  0
  3  4  1  0
  4  6  1  0
  5  4  2  0
  6  7  1  0
  7  8  1  0
  9  8  1  0
 10  6  1  0
 10  9  1  0
 11 12  1  0
 11  1  1  0
 12 14  1  0
 13 14  2  0
 13 18  1  0
 14 15  1  0
 15 19  1  0
 15 16  2  0
 17 16  1  0
 18 17  2  0
 20 10  1  0
  7 21  1  0
  7 22  1  0
  8 23  1  0
  8 24  1  0
  9 25  1  0
  9 26  1  0
 10 27  1  1
 11 28  1  0
 11 29  1  0
 12 30  1  0
 12 31  1  0
 13 32  1  0
 17 33  1  0
 19 34  1  0
 19 35  1  0
 19 36  1  0
 20 37  1  0
M  ISO  8  21  13  22  13  23  13  24  13  25  13  26  13  27  13  28   8
M  ISO  8  29   8  30   8  31   8  32  14  33  14  34   8  35   8  36   8
M  ISO  1  37   3
M  END
>  <minimizedAffinity>  (1) 
-4.97981405

>  <minimizedRMSD>  (1) 
0.0345668048

$$$$
