
     RDKit          3D

 38 40  0  0  1  0  0  0  0  0999 V2000
   43.4150   23.8470   35.6920 C   0  0  0  0  0  0  0  0  0  0  0  0
   44.0220   22.6810   35.7460 N   0  0  0  0  0  0  0  0  0  0  0  0
   45.2010   22.7410   36.2700 O   0  0  0  0  0  0  0  0  0  0  0  0
   45.4230   23.9580   36.5860 C   0  0  0  0  0  0  0  0  0  0  0  0
   44.3560   24.6350   36.2440 N   0  0  0  0  0  0  0  0  0  0  0  0
   46.5280   24.6180   37.1860 N   0  0  0  0  0  0  0  0  0  0  0  0
   46.8810   24.7910   38.5960 C   0  0  0  0  0  0  0  0  0  0  0  0
   48.2870   24.2230   38.6760 C   0  0  0  0  0  0  0  0  0  0  0  0
   48.7890   24.4310   37.2480 C   0  0  0  0  0  0  0  0  0  0  0  0
   47.7100   25.3550   36.6920 C   0  0  2  0  0  0  0  0  0  0  0  0
   42.1510   24.4330   35.2420 C   0  0  0  0  0  0  0  0  0  0  0  0
   41.0040   23.5360   35.1660 C   0  0  0  0  0  0  0  0  0  0  0  0
   38.8960   24.6640   35.9910 C   0  0  0  0  0  0  0  0  0  0  0  0
   39.9180   23.7140   36.1350 C   0  0  0  0  0  0  0  0  0  0  0  0
   39.8770   22.9150   37.2540 C   0  0  0  0  0  0  0  0  0  0  0  0
   38.8470   23.1150   38.1250 N   0  0  0  0  0  0  0  0  0  0  0  0
   37.8840   24.0190   37.9770 C   0  0  0  0  0  0  0  0  0  0  0  0
   37.9110   24.8060   36.8910 N   0  0  0  0  0  0  0  0  0  0  0  0
   40.9220   21.8760   37.4930 C   0  0  0  0  0  0  0  0  0  0  0  0
   47.7820   26.7240   37.2060 C   0  0  0  0  0  0  0  0  0  0  0  0
   48.8460   27.3360   37.0670 O   0  0  0  0  0  0  0  0  0  0  0  0
   46.8689   25.8542   38.8777 H   0  0  0  0  0  0  0  0  0  0  0  0
   46.1767   24.2951   39.2802 H   0  0  0  0  0  0  0  0  0  0  0  0
   48.9018   24.7760   39.4014 H   0  0  0  0  0  0  0  0  0  0  0  0
   48.3267   23.1771   39.0145 H   0  0  0  0  0  0  0  0  0  0  0  0
   49.7786   24.9110   37.2336 H   0  0  0  0  0  0  0  0  0  0  0  0
   48.9287   23.5016   36.6765 H   0  0  0  0  0  0  0  0  0  0  0  0
   47.7547   25.5300   35.6069 H   0  0  0  0  0  0  0  0  0  0  0  0
   41.8936   25.2451   35.9379 H   0  0  0  0  0  0  0  0  0  0  0  0
   42.3345   24.7562   34.2067 H   0  0  0  0  0  0  0  0  0  0  0  0
   40.5674   23.6496   34.1628 H   0  0  0  0  0  0  0  0  0  0  0  0
   41.4183   22.5445   35.4010 H   0  0  0  0  0  0  0  0  0  0  0  0
   38.9023   25.3176   35.1063 H   0  0  0  0  0  0  0  0  0  0  0  0
   37.0849   24.1193   38.7262 H   0  0  0  0  0  0  0  0  0  0  0  0
   41.0609   21.7379   38.5754 H   0  0  0  0  0  0  0  0  0  0  0  0
   40.6043   20.9254   37.0398 H   0  0  0  0  0  0  0  0  0  0  0  0
   41.8708   22.1992   37.0398 H   0  0  0  0  0  0  0  0  0  0  0  0
   46.9175   27.1920   37.6995 H   0  0  0  0  0  0  0  0  0  0  0  0
  1  2  2  0
  1  5  1  0
  2  3  1  0
  3  4  1  0
  4  6  1  0
  5  4  2  0
  6  7  1  0
  7  8  1  0
  9  8  1  0
 10  6  1  0
 10 20  1  0
 10  9  1  0
 11  1  1  0
 12 11  1  0
 12 14  1  0
 13 14  2  0
 13 18  1  0
 14 15  1  0
 15 19  1  0
 15 16  2  0
 17 16  1  0
 18 17  2  0
 21 20  2  0
  7 22  1  0
  7 23  1  0
  8 24  1  0
  8 25  1  0
  9 26  1  0
  9 27  1  0
 10 28  1  6
 11 29  1  0
 11 30  1  0
 12 31  1  0
 12 32  1  0
 13 33  1  0
 17 34  1  0
 19 35  1  0
 19 36  1  0
 19 37  1  0
 20 38  1  0
M  ISO  8  22  13  23  13  24  13  25  13  26  13  27  13  28  13  29   8
M  ISO  8  30   8  31   8  32   8  33  14  34  14  35   8  36   8  37   8
M  ISO  1  38   6
M  END
>  <minimizedAffinity>  (1) 
-4.59898138

>  <minimizedRMSD>  (1) 
0.98957926

$$$$
