
     RDKit          3D

 31 34  0  0  1  0  0  0  0  0999 V2000
   37.5190   26.5780   35.0400 C   0  0  2  0  0  0  0  0  0  0  0  0
   38.9830   27.0450   35.2640 C   0  0  0  0  0  0  0  0  0  0  0  0
   38.6010   25.6230   35.0720 C   0  0  1  0  0  0  0  0  0  0  0  0
   38.7930   24.6930   36.2410 C   0  0  0  0  0  0  0  0  0  0  0  0
   37.9490   24.8310   37.2870 N   0  0  0  0  0  0  0  0  0  0  0  0
   37.9900   24.0810   38.3990 C   0  0  0  0  0  0  0  0  0  0  0  0
   38.9250   23.1190   38.5060 N   0  0  0  0  0  0  0  0  0  0  0  0
   39.7940   22.9330   37.4960 C   0  0  0  0  0  0  0  0  0  0  0  0
   40.7970   21.9600   37.5210 C   0  0  0  0  0  0  0  0  0  0  0  0
   41.6750   21.7930   36.4680 C   0  0  0  0  0  0  0  0  0  0  0  0
   41.5900   22.5970   35.3390 C   0  0  0  0  0  0  0  0  0  0  0  0
   40.6080   23.5640   35.2930 C   0  0  0  0  0  0  0  0  0  0  0  0
   39.7480   23.7080   36.3550 C   0  0  0  0  0  0  0  0  0  0  0  0
   36.3430   26.8780   31.4670 C   0  0  0  0  0  0  0  0  0  0  0  0
   36.9130   26.3540   32.6270 C   0  0  0  0  0  0  0  0  0  0  0  0
   36.9170   27.0970   33.8150 C   0  0  0  0  0  0  0  0  0  0  0  0
   36.3510   28.3200   33.7660 N   0  0  0  0  0  0  0  0  0  0  0  0
   35.8010   28.8260   32.6500 C   0  0  0  0  0  0  0  0  0  0  0  0
   35.7910   28.1130   31.4900 N   0  0  0  0  0  0  0  0  0  0  0  0
   36.5452   26.5821   35.5516 H   0  0  0  0  0  0  0  0  0  0  0  0
   39.5226   27.5902   34.4756 H   0  0  0  0  0  0  0  0  0  0  0  0
   39.5259   27.6288   36.0219 H   0  0  0  0  0  0  0  0  0  0  0  0
   38.8908   24.8271   34.3702 H   0  0  0  0  0  0  0  0  0  0  0  0
   37.2689   24.2503   39.2123 H   0  0  0  0  0  0  0  0  0  0  0  0
   40.8897   21.3096   38.4032 H   0  0  0  0  0  0  0  0  0  0  0  0
   42.4501   21.0145   36.5243 H   0  0  0  0  0  0  0  0  0  0  0  0
   42.2899   22.4655   34.5006 H   0  0  0  0  0  0  0  0  0  0  0  0
   40.5137   24.2158   34.4120 H   0  0  0  0  0  0  0  0  0  0  0  0
   36.3422   26.2898   30.5375 H   0  0  0  0  0  0  0  0  0  0  0  0
   37.3626   25.3503   32.6092 H   0  0  0  0  0  0  0  0  0  0  0  0
   35.3525   29.8301   32.6734 H   0  0  0  0  0  0  0  0  0  0  0  0
  1  3  1  0
  1  2  1  0
  3  2  1  0
  3  4  1  0
  4 13  1  0
  4  5  2  0
  5  6  1  0
  6  7  2  0
  8  9  2  0
  8  7  1  0
 10  9  1  0
 11 10  2  0
 12 11  1  0
 12 13  2  0
 13  8  1  0
 14 19  2  0
 14 15  1  0
 15 16  2  0
 16  1  1  0
 17 16  1  0
 18 17  2  0
 19 18  1  0
  1 20  1  1
  2 21  1  0
  2 22  1  0
  3 23  1  6
  6 24  1  0
  9 25  1  0
 10 26  1  0
 11 27  1  0
 12 28  1  0
 14 29  1  0
 15 30  1  0
 18 31  1  0
M  ISO  8  20  13  21  13  22  13  23  13  24  14  25  14  26  14  27  14
M  ISO  4  28  14  29  14  30  14  31  14
M  END
>  <minimizedAffinity>  (1) 
-5.55155802

>  <minimizedRMSD>  (1) 
7.22137976

$$$$
