
     RDKit          3D

 35 38  0  0  0  0  0  0  0  0999 V2000
   43.1400   22.9450   33.6800 C   0  0  0  0  0  0  0  0  0  0  0  0
   43.7390   23.6600   34.7380 C   0  0  0  0  0  0  0  0  0  0  0  0
   44.8870   24.8330   33.8370 S   0  0  0  0  0  0  0  0  0  0  0  0
   44.3210   24.1140   32.1770 C   0  0  0  0  0  0  0  0  0  0  0  0
   43.6030   23.3670   32.5490 N   0  0  0  0  0  0  0  0  0  0  0  0
   44.7580   24.4950   30.8480 N   0  0  0  0  0  0  0  0  0  0  0  0
   45.7460   23.7640   30.3490 C   0  0  0  0  0  0  0  0  0  0  0  0
   46.0340   24.2620   29.0860 C   0  0  0  0  0  0  0  0  0  0  0  0
   45.1770   25.2930   28.8950 N   0  0  0  0  0  0  0  0  0  0  0  0
   44.3940   25.4380   29.9740 C   0  0  0  0  0  0  0  0  0  0  0  0
   43.3330   26.3640   30.2880 C   0  0  0  0  0  0  0  0  0  0  0  0
   42.0840   26.0200   29.7630 C   0  0  0  0  0  0  0  0  0  0  0  0
   41.0150   26.8770   30.0330 C   0  0  0  0  0  0  0  0  0  0  0  0
   41.2090   27.9790   30.7710 N   0  0  0  0  0  0  0  0  0  0  0  0
   42.4120   28.3030   31.2720 C   0  0  0  0  0  0  0  0  0  0  0  0
   43.4380   27.4790   31.0110 N   0  0  0  0  0  0  0  0  0  0  0  0
   41.9430   21.6880   34.1120 S   0  0  0  0  0  0  0  0  0  0  0  0
   40.4240   22.3650   37.7400 C   0  0  0  0  0  0  0  0  0  0  0  0
   39.2920   23.1650   37.4640 C   0  0  0  0  0  0  0  0  0  0  0  0
   39.0290   23.4760   36.1480 C   0  0  0  0  0  0  0  0  0  0  0  0
   39.8490   23.0150   35.1480 N   0  0  0  0  0  0  0  0  0  0  0  0
   40.9390   22.2380   35.4710 C   0  0  0  0  0  0  0  0  0  0  0  0
   41.1960   21.9360   36.7450 N   0  0  0  0  0  0  0  0  0  0  0  0
   38.3870   23.6760   38.5290 C   0  0  0  0  0  0  0  0  0  0  0  0
   39.1700   23.8820   39.6560 F   0  0  0  0  0  0  0  0  0  0  0  0
   37.3860   22.8330   38.8390 F   0  0  0  0  0  0  0  0  0  0  0  0
   37.9430   24.9750   38.2080 F   0  0  0  0  0  0  0  0  0  0  0  0
   43.5733   23.5549   35.8204 H   0  0  0  0  0  0  0  0  0  0  0  0
   46.2452   22.9186   30.8450 H   0  0  0  0  0  0  0  0  0  0  0  0
   46.7991   23.8955   28.3858 H   0  0  0  0  0  0  0  0  0  0  0  0
   41.9485   25.1096   29.1606 H   0  0  0  0  0  0  0  0  0  0  0  0
   40.0135   26.6477   29.6400 H   0  0  0  0  0  0  0  0  0  0  0  0
   42.5513   29.2122   31.8753 H   0  0  0  0  0  0  0  0  0  0  0  0
   40.6670   22.0967   38.7787 H   0  0  0  0  0  0  0  0  0  0  0  0
   38.1568   24.0974   35.8969 H   0  0  0  0  0  0  0  0  0  0  0  0
  1 17  1  0
  1  2  2  0
  3  2  1  0
  4  5  2  0
  4  3  1  0
  5  1  1  0
  6  4  1  0
  7  6  1  0
  8  7  2  0
  9  8  1  0
  9 10  2  0
 10 11  1  0
 10  6  1  0
 11 16  2  0
 12 13  2  0
 12 11  1  0
 13 14  1  0
 14 15  2  0
 16 15  1  0
 17 22  1  0
 19 18  2  0
 19 24  1  0
 20 19  1  0
 21 22  1  0
 21 20  2  0
 22 23  2  0
 23 18  1  0
 24 26  1  0
 24 25  1  0
 27 24  1  0
  2 28  1  0
  7 29  1  0
  8 30  1  0
 12 31  1  0
 13 32  1  0
 15 33  1  0
 18 34  1  0
 20 35  1  0
M  ISO  8  28  14  29  14  30  14  31  14  32  14  33  14  34  14  35  14
M  END
>  <minimizedAffinity>  (1) 
-4.08456516

>  <minimizedRMSD>  (1) 
3.00046015

$$$$
