
     RDKit          3D

 30 32  0  0  1  0  0  0  0  0999 V2000
   38.4750   25.6250   35.0630 C   0  0  2  0  0  0  0  0  0  0  0  0
   39.0960   27.0340   35.2310 C   0  0  0  0  0  0  0  0  0  0  0  0
   37.6420   26.8100   35.1200 C   0  0  1  0  0  0  0  0  0  0  0  0
   38.0960   24.0340   38.4680 C   0  0  0  0  0  0  0  0  0  0  0  0
   37.8740   24.8890   37.3880 C   0  0  0  0  0  0  0  0  0  0  0  0
   38.6470   24.7420   36.2340 C   0  0  0  0  0  0  0  0  0  0  0  0
   39.5980   23.7570   36.2110 N   0  0  0  0  0  0  0  0  0  0  0  0
   39.7900   22.9500   37.2660 C   0  0  0  0  0  0  0  0  0  0  0  0
   39.0460   23.0750   38.4020 N   0  0  0  0  0  0  0  0  0  0  0  0
   36.8030   27.2870   33.9800 C   0  0  0  0  0  0  0  0  0  0  0  0
   36.0700   28.5620   34.3710 C   0  0  0  0  0  0  0  0  0  0  0  0
   36.0610   29.4650   33.1780 C   0  0  0  0  0  0  0  0  0  0  0  0
   36.5440   28.5870   32.0650 C   0  0  0  0  0  0  0  0  0  0  0  0
   37.5500   27.6390   32.7310 C   0  0  0  0  0  0  0  0  0  0  0  0
   38.5178   24.7805   34.3594 H   0  0  0  0  0  0  0  0  0  0  0  0
   39.5420   27.3360   36.1901 H   0  0  0  0  0  0  0  0  0  0  0  0
   39.8487   27.6378   34.7029 H   0  0  0  0  0  0  0  0  0  0  0  0
   36.7859   27.1069   35.7436 H   0  0  0  0  0  0  0  0  0  0  0  0
   37.4924   24.1414   39.3813 H   0  0  0  0  0  0  0  0  0  0  0  0
   37.1002   25.6688   37.4446 H   0  0  0  0  0  0  0  0  0  0  0  0
   40.5645   22.1706   37.2132 H   0  0  0  0  0  0  0  0  0  0  0  0
   36.1453   26.4309   33.7687 H   0  0  0  0  0  0  0  0  0  0  0  0
   35.0381   28.3246   34.6691 H   0  0  0  0  0  0  0  0  0  0  0  0
   36.5712   29.0499   35.2200 H   0  0  0  0  0  0  0  0  0  0  0  0
   35.0454   29.8347   32.9735 H   0  0  0  0  0  0  0  0  0  0  0  0
   36.6848   30.3604   33.3162 H   0  0  0  0  0  0  0  0  0  0  0  0
   37.0333   29.1854   31.2824 H   0  0  0  0  0  0  0  0  0  0  0  0
   35.7223   28.0458   31.5731 H   0  0  0  0  0  0  0  0  0  0  0  0
   37.7452   26.7520   32.1104 H   0  0  0  0  0  0  0  0  0  0  0  0
   38.5475   28.0714   32.8985 H   0  0  0  0  0  0  0  0  0  0  0  0
  1  3  1  0
  1  2  1  0
  1  6  1  0
  3  2  1  0
  5  4  2  0
  6  5  1  0
  7  6  2  0
  7  8  1  0
  8  9  2  0
  9  4  1  0
 10 11  1  0
 10  3  1  0
 12 11  1  0
 13 14  1  0
 13 12  1  0
 14 10  1  0
  1 15  1  6
  2 16  1  0
  2 17  1  0
  3 18  1  1
  4 19  1  0
  5 20  1  0
  8 21  1  0
 10 22  1  0
 11 23  1  0
 11 24  1  0
 12 25  1  0
 12 26  1  0
 13 27  1  0
 13 28  1  0
 14 29  1  0
 14 30  1  0
M  ISO  8  15  13  16  13  17  13  18  13  19  14  20  14  21  14  22  13
M  ISO  8  23  13  24  13  25  13  26  13  27  13  28  13  29  13  30  13
M  END
>  <minimizedAffinity>  (1) 
-4.52404928

>  <minimizedRMSD>  (1) 
1.17024982

$$$$
