
     RDKit          3D

 30 32  0  0  1  0  0  0  0  0999 V2000
   37.6340   26.5800   35.3790 C   0  0  2  0  0  0  0  0  0  0  0  0
   39.0540   27.1640   35.6440 C   0  0  0  0  0  0  0  0  0  0  0  0
   38.8210   25.7740   35.2030 C   0  0  1  0  0  0  0  0  0  0  0  0
   36.2260   27.3370   31.9490 C   0  0  0  0  0  0  0  0  0  0  0  0
   36.9120   26.6810   32.9870 C   0  0  0  0  0  0  0  0  0  0  0  0
   36.9180   27.2310   34.2720 C   0  0  0  0  0  0  0  0  0  0  0  0
   36.2510   28.3880   34.4510 N   0  0  0  0  0  0  0  0  0  0  0  0
   35.5960   29.0160   33.4620 C   0  0  0  0  0  0  0  0  0  0  0  0
   35.5890   28.4830   32.2170 N   0  0  0  0  0  0  0  0  0  0  0  0
   39.1110   24.6290   36.0730 N   0  0  0  0  0  0  0  0  0  0  0  0
   38.0270   24.4890   36.9790 C   0  0  0  0  0  0  0  0  0  0  0  0
   37.4180   23.1360   37.0800 C   0  0  0  0  0  0  0  0  0  0  0  0
   37.6140   22.2800   36.0300 O   0  0  0  0  0  0  0  0  0  0  0  0
   38.0870   22.8640   34.8660 C   0  0  0  0  0  0  0  0  0  0  0  0
   39.4030   23.5150   35.2310 C   0  0  0  0  0  0  0  0  0  0  0  0
   36.6920   26.3834   35.9119 H   0  0  0  0  0  0  0  0  0  0  0  0
   39.4917   27.9024   34.9561 H   0  0  0  0  0  0  0  0  0  0  0  0
   39.5680   27.6578   36.4818 H   0  0  0  0  0  0  0  0  0  0  0  0
   39.2071   25.1784   34.3627 H   0  0  0  0  0  0  0  0  0  0  0  0
   36.2133   26.9149   30.9333 H   0  0  0  0  0  0  0  0  0  0  0  0
   37.4422   25.7379   32.7881 H   0  0  0  0  0  0  0  0  0  0  0  0
   35.0671   29.9596   33.6618 H   0  0  0  0  0  0  0  0  0  0  0  0
   38.3892   24.7681   37.9794 H   0  0  0  0  0  0  0  0  0  0  0  0
   37.2314   25.1379   36.5841 H   0  0  0  0  0  0  0  0  0  0  0  0
   37.8289   22.6549   37.9798 H   0  0  0  0  0  0  0  0  0  0  0  0
   36.3329   23.3152   37.0999 H   0  0  0  0  0  0  0  0  0  0  0  0
   37.3754   23.6191   34.5007 H   0  0  0  0  0  0  0  0  0  0  0  0
   38.2136   22.1208   34.0650 H   0  0  0  0  0  0  0  0  0  0  0  0
   40.0416   22.7969   35.7662 H   0  0  0  0  0  0  0  0  0  0  0  0
   39.9375   23.8421   34.3269 H   0  0  0  0  0  0  0  0  0  0  0  0
  1  2  1  0
  3  1  1  0
  3  2  1  0
  3 10  1  0
  4  9  2  0
  4  5  1  0
  5  6  2  0
  6  7  1  0
  6  1  1  0
  8  7  2  0
  9  8  1  0
 10 11  1  0
 11 12  1  0
 13 12  1  0
 14 15  1  0
 14 13  1  0
 15 10  1  0
  1 16  1  1
  2 17  1  0
  2 18  1  0
  3 19  1  6
  4 20  1  0
  5 21  1  0
  8 22  1  0
 11 23  1  0
 11 24  1  0
 12 25  1  0
 12 26  1  0
 14 27  1  0
 14 28  1  0
 15 29  1  0
 15 30  1  0
M  ISO  8  16  13  17  13  18  13  19  13  20  14  21  14  22  14  23  13
M  ISO  7  24  13  25  13  26  13  27  13  28  13  29  13  30  13
M  END
>  <minimizedAffinity>  (1) 
-4.26555109

>  <minimizedRMSD>  (1) 
5.84715986

$$$$
