
     RDKit          3D

 34 37  0  0  0  0  0  0  0  0999 V2000
   43.4990   23.4970   34.0300 C   0  0  0  0  0  0  0  0  0  0  0  0
   43.9380   24.1510   35.1850 C   0  0  0  0  0  0  0  0  0  0  0  0
   45.1850   25.3970   34.5150 S   0  0  0  0  0  0  0  0  0  0  0  0
   44.8400   24.7520   32.7610 C   0  0  0  0  0  0  0  0  0  0  0  0
   44.0980   23.9840   32.9910 N   0  0  0  0  0  0  0  0  0  0  0  0
   45.4480   25.2170   31.5200 N   0  0  0  0  0  0  0  0  0  0  0  0
   46.5310   24.5190   31.1400 C   0  0  0  0  0  0  0  0  0  0  0  0
   46.9650   25.0990   29.9570 C   0  0  0  0  0  0  0  0  0  0  0  0
   46.1140   26.1180   29.6890 N   0  0  0  0  0  0  0  0  0  0  0  0
   45.1780   26.1960   30.6490 C   0  0  0  0  0  0  0  0  0  0  0  0
   44.0360   27.0750   30.8770 C   0  0  0  0  0  0  0  0  0  0  0  0
   42.7930   26.8050   30.3100 C   0  0  0  0  0  0  0  0  0  0  0  0
   41.9770   27.8310   30.7370 C   0  0  0  0  0  0  0  0  0  0  0  0
   42.7520   28.6740   31.5390 C   0  0  0  0  0  0  0  0  0  0  0  0
   43.9800   28.1590   31.5780 O   0  0  0  0  0  0  0  0  0  0  0  0
   42.2780   22.2080   34.2340 S   0  0  0  0  0  0  0  0  0  0  0  0
   40.4250   22.3840   37.7480 C   0  0  0  0  0  0  0  0  0  0  0  0
   39.3760   23.2930   37.5340 C   0  0  0  0  0  0  0  0  0  0  0  0
   39.2620   23.8480   36.2650 C   0  0  0  0  0  0  0  0  0  0  0  0
   40.1490   23.5070   35.2850 N   0  0  0  0  0  0  0  0  0  0  0  0
   41.1580   22.6140   35.5410 C   0  0  0  0  0  0  0  0  0  0  0  0
   41.2800   22.0670   36.7680 N   0  0  0  0  0  0  0  0  0  0  0  0
   38.3940   23.6870   38.5790 C   0  0  0  0  0  0  0  0  0  0  0  0
   39.1250   23.9150   39.7270 F   0  0  0  0  0  0  0  0  0  0  0  0
   37.4580   22.7370   38.8150 F   0  0  0  0  0  0  0  0  0  0  0  0
   37.8350   24.9400   38.2770 F   0  0  0  0  0  0  0  0  0  0  0  0
   43.6316   23.9808   36.2276 H   0  0  0  0  0  0  0  0  0  0  0  0
   46.9821   23.6617   31.6611 H   0  0  0  0  0  0  0  0  0  0  0  0
   47.8318   24.7912   29.3538 H   0  0  0  0  0  0  0  0  0  0  0  0
   42.5215   25.9580   29.6628 H   0  0  0  0  0  0  0  0  0  0  0  0
   40.9127   27.9621   30.4919 H   0  0  0  0  0  0  0  0  0  0  0  0
   42.4117   29.5905   32.0432 H   0  0  0  0  0  0  0  0  0  0  0  0
   40.5463   21.9238   38.7397 H   0  0  0  0  0  0  0  0  0  0  0  0
   38.4550   24.5638   36.0497 H   0  0  0  0  0  0  0  0  0  0  0  0
  1 16  1  0
  1  2  2  0
  3  2  1  0
  4  5  2  0
  4  3  1  0
  5  1  1  0
  6  4  1  0
  7  6  1  0
  8  7  2  0
  9  8  1  0
  9 10  2  0
 10 11  1  0
 10  6  1  0
 11 15  1  0
 12 13  1  0
 12 11  2  0
 13 14  2  0
 14 15  1  0
 16 21  1  0
 18 17  2  0
 18 23  1  0
 19 18  1  0
 20 21  1  0
 20 19  2  0
 21 22  2  0
 22 17  1  0
 23 25  1  0
 23 24  1  0
 26 23  1  0
  2 27  1  0
  7 28  1  0
  8 29  1  0
 12 30  1  0
 13 31  1  0
 14 32  1  0
 17 33  1  0
 19 34  1  0
M  ISO  8  27  14  28  14  29  14  30  14  31  14  32  14  33  14  34  14
M  END
>  <minimizedAffinity>  (1) 
-4.05093479

>  <minimizedRMSD>  (1) 
2.86019993

$$$$
