
     RDKit          3D

 24 26  0  0  1  0  0  0  0  0999 V2000
   38.1970   23.0350   34.6170 C   0  0  2  0  0  0  0  0  0  0  0  0
   39.3180   23.6020   33.7050 C   0  0  0  0  0  0  0  0  0  0  0  0
   37.9840   24.2040   33.7920 C   0  0  2  0  0  0  0  0  0  0  0  0
   37.8910   23.5170   38.3440 C   0  0  0  0  0  0  0  0  0  0  0  0
   37.5470   23.4900   36.9750 C   0  0  0  0  0  0  0  0  0  0  0  0
   38.5180   23.0610   36.0500 C   0  0  0  0  0  0  0  0  0  0  0  0
   39.7260   22.6980   36.5250 N   0  0  0  0  0  0  0  0  0  0  0  0
   40.0420   22.7290   37.8280 C   0  0  0  0  0  0  0  0  0  0  0  0
   39.1160   23.1400   38.7330 N   0  0  0  0  0  0  0  0  0  0  0  0
   37.9680   25.5710   34.3920 C   0  0  0  0  0  0  0  0  0  0  0  0
   39.1230   26.1850   34.8890 C   0  0  0  0  0  0  0  0  0  0  0  0
   38.7950   27.4340   35.3770 C   0  0  0  0  0  0  0  0  0  0  0  0
   37.4410   27.5240   35.1510 C   0  0  0  0  0  0  0  0  0  0  0  0
   37.0150   26.4430   34.5910 O   0  0  0  0  0  0  0  0  0  0  0  0
   37.5920   22.1269   34.7559 H   0  0  0  0  0  0  0  0  0  0  0  0
   39.6273   23.0601   32.7991 H   0  0  0  0  0  0  0  0  0  0  0  0
   40.3543   23.9451   33.8406 H   0  0  0  0  0  0  0  0  0  0  0  0
   37.1742   24.4386   33.0855 H   0  0  0  0  0  0  0  0  0  0  0  0
   37.1537   23.8473   39.0905 H   0  0  0  0  0  0  0  0  0  0  0  0
   36.5453   23.7965   36.6394 H   0  0  0  0  0  0  0  0  0  0  0  0
   41.0446   22.4236   38.1618 H   0  0  0  0  0  0  0  0  0  0  0  0
   40.1305   25.7434   34.8906 H   0  0  0  0  0  0  0  0  0  0  0  0
   39.4590   28.1804   35.8375 H   0  0  0  0  0  0  0  0  0  0  0  0
   36.8141   28.3901   35.4097 H   0  0  0  0  0  0  0  0  0  0  0  0
  1  6  1  0
  2  3  1  0
  2  1  1  0
  3 10  1  0
  3  1  1  0
  4  9  2  0
  5  4  1  0
  6  7  1  0
  6  5  2  0
  7  8  2  0
  8  9  1  0
 10 14  1  0
 10 11  2  0
 11 12  1  0
 13 12  2  0
 14 13  1  0
  1 15  1  6
  2 16  1  0
  2 17  1  0
  3 18  1  6
  4 19  1  0
  5 20  1  0
  8 21  1  0
 11 22  1  0
 12 23  1  0
 13 24  1  0
M  ISO  8  15  13  16  13  17  13  18  13  19  14  20  14  21  14  22  14
M  ISO  2  23  14  24  14
M  END
>  <minimizedAffinity>  (1) 
-4.06826353

>  <minimizedRMSD>  (1) 
2.91236329

$$$$
