
     RDKit          3D

 20 21  0  0  1  0  0  0  0  0999 V2000
   39.5460   25.0730   34.5060 C   0  0  2  0  0  0  0  0  0  0  0  0
   40.5280   26.2570   34.7300 C   0  0  0  0  0  0  0  0  0  0  0  0
   39.1530   26.4410   34.2440 C   0  0  2  0  0  0  0  0  0  0  0  0
   37.6320   23.7990   37.4890 C   0  0  0  0  0  0  0  0  0  0  0  0
   37.9130   24.4770   36.3060 C   0  0  0  0  0  0  0  0  0  0  0  0
   39.2080   24.3570   35.7440 C   0  0  0  0  0  0  0  0  0  0  0  0
   40.1020   23.5850   36.3960 N   0  0  0  0  0  0  0  0  0  0  0  0
   39.8130   22.9380   37.5360 C   0  0  0  0  0  0  0  0  0  0  0  0
   38.5730   23.0490   38.0820 N   0  0  0  0  0  0  0  0  0  0  0  0
   38.3060   27.2340   35.1870 C   0  0  0  0  0  0  0  0  0  0  0  0
   37.0740   27.5560   35.0630 O   0  0  0  0  0  0  0  0  0  0  0  0
   38.7660   27.7590   36.3910 O   0  0  0  0  0  0  0  0  0  0  0  0
   39.4484   24.1587   33.9022 H   0  0  0  0  0  0  0  0  0  0  0  0
   40.8058   26.5663   35.7484 H   0  0  0  0  0  0  0  0  0  0  0  0
   41.5360   26.5294   34.3841 H   0  0  0  0  0  0  0  0  0  0  0  0
   38.6557   26.8603   33.3570 H   0  0  0  0  0  0  0  0  0  0  0  0
   36.6320   23.8788   37.9403 H   0  0  0  0  0  0  0  0  0  0  0  0
   37.1446   25.0939   35.8171 H   0  0  0  0  0  0  0  0  0  0  0  0
   40.5781   22.3191   38.0275 H   0  0  0  0  0  0  0  0  0  0  0  0
   38.1533   28.2762   36.9717 H   0  0  0  0  0  0  0  0  0  0  0  0
  1  2  1  0
  1  6  1  0
  3  1  1  0
  3  2  1  0
  3 10  1  0
  4  9  2  0
  5  4  1  0
  6  5  2  0
  6  7  1  0
  7  8  2  0
  8  9  1  0
 10 12  1  0
 11 10  2  0
  1 13  1  6
  2 14  1  0
  2 15  1  0
  3 16  1  6
  4 17  1  0
  5 18  1  0
  8 19  1  0
 12 20  1  0
M  ISO  8  13  13  14  13  15  13  16  13  17  14  18  14  19  14  20   3
M  END
>  <minimizedAffinity>  (1) 
-3.9282999

>  <minimizedRMSD>  (1) 
1.66109002

$$$$
