
     RDKit          3D

 24 26  0  0  1  0  0  0  0  0999 V2000
   38.0990   23.0320   34.6780 C   0  0  2  0  0  0  0  0  0  0  0  0
   39.2670   23.4260   33.7360 C   0  0  0  0  0  0  0  0  0  0  0  0
   38.0280   24.2240   33.8630 C   0  0  2  0  0  0  0  0  0  0  0  0
   37.9250   23.4660   38.4150 C   0  0  0  0  0  0  0  0  0  0  0  0
   37.5200   23.4600   37.0830 C   0  0  0  0  0  0  0  0  0  0  0  0
   38.4570   23.0490   36.1020 C   0  0  0  0  0  0  0  0  0  0  0  0
   39.7020   22.6830   36.5190 N   0  0  0  0  0  0  0  0  0  0  0  0
   40.0520   22.7050   37.8140 C   0  0  0  0  0  0  0  0  0  0  0  0
   39.1620   23.0960   38.7620 N   0  0  0  0  0  0  0  0  0  0  0  0
   38.2110   25.5510   34.4590 N   0  0  0  0  0  0  0  0  0  0  0  0
   37.2570   26.4320   34.8120 C   0  0  0  0  0  0  0  0  0  0  0  0
   37.8430   27.5640   35.3390 C   0  0  0  0  0  0  0  0  0  0  0  0
   39.1730   27.3680   35.3060 N   0  0  0  0  0  0  0  0  0  0  0  0
   39.3780   26.1520   34.7730 C   0  0  0  0  0  0  0  0  0  0  0  0
   37.3842   22.2098   34.8297 H   0  0  0  0  0  0  0  0  0  0  0  0
   39.4670   22.8470   32.8223 H   0  0  0  0  0  0  0  0  0  0  0  0
   40.3463   23.6105   33.8414 H   0  0  0  0  0  0  0  0  0  0  0  0
   37.2443   24.5795   33.1778 H   0  0  0  0  0  0  0  0  0  0  0  0
   37.2156   23.7803   39.1947 H   0  0  0  0  0  0  0  0  0  0  0  0
   36.5019   23.7655   36.7999 H   0  0  0  0  0  0  0  0  0  0  0  0
   41.0678   22.4040   38.1100 H   0  0  0  0  0  0  0  0  0  0  0  0
   36.1745   26.2735   34.6977 H   0  0  0  0  0  0  0  0  0  0  0  0
   37.3218   28.4569   35.7147 H   0  0  0  0  0  0  0  0  0  0  0  0
   40.3697   25.7037   34.6130 H   0  0  0  0  0  0  0  0  0  0  0  0
  1  6  1  0
  2  3  1  0
  2  1  1  0
  3 10  1  0
  3  1  1  0
  4  9  2  0
  5  4  1  0
  6  7  1  0
  6  5  2  0
  7  8  2  0
  8  9  1  0
 10 14  1  0
 10 11  1  0
 11 12  2  0
 13 12  1  0
 14 13  2  0
  1 15  1  6
  2 16  1  0
  2 17  1  0
  3 18  1  6
  4 19  1  0
  5 20  1  0
  8 21  1  0
 11 22  1  0
 12 23  1  0
 14 24  1  0
M  ISO  8  15  13  16  13  17  13  18  13  19  14  20  14  21  14  22  14
M  ISO  2  23  14  24  14
M  END
>  <minimizedAffinity>  (1) 
-3.82997346

>  <minimizedRMSD>  (1) 
2.87882495

$$$$
