
     RDKit          3D

 23 25  0  0  1  0  0  0  0  0999 V2000
   37.9710   22.7800   34.7240 C   0  0  2  0  0  0  0  0  0  0  0  0
   39.1280   22.9170   33.7030 C   0  0  0  0  0  0  0  0  0  0  0  0
   38.0040   23.8610   33.7630 C   0  0  2  0  0  0  0  0  0  0  0  0
   37.9300   23.5700   38.4110 C   0  0  0  0  0  0  0  0  0  0  0  0
   37.4940   23.4360   37.0830 C   0  0  0  0  0  0  0  0  0  0  0  0
   38.3930   22.9150   36.1190 C   0  0  0  0  0  0  0  0  0  0  0  0
   39.6270   22.5740   36.5380 N   0  0  0  0  0  0  0  0  0  0  0  0
   40.0290   22.7070   37.8120 C   0  0  0  0  0  0  0  0  0  0  0  0
   39.1820   23.2060   38.7520 N   0  0  0  0  0  0  0  0  0  0  0  0
   38.3290   25.2090   34.2030 N   0  0  0  0  0  0  0  0  0  0  0  0
   37.4880   26.2090   34.5520 C   0  0  0  0  0  0  0  0  0  0  0  0
   38.1870   27.3060   34.9010 N   0  0  0  0  0  0  0  0  0  0  0  0
   39.5000   26.9960   34.7690 C   0  0  0  0  0  0  0  0  0  0  0  0
   39.5430   25.7220   34.3460 N   0  0  0  0  0  0  0  0  0  0  0  0
   37.1712   22.0786   35.0039 H   0  0  0  0  0  0  0  0  0  0  0  0
   39.2186   22.2104   32.8648 H   0  0  0  0  0  0  0  0  0  0  0  0
   40.2249   22.9847   33.7506 H   0  0  0  0  0  0  0  0  0  0  0  0
   37.2537   24.2209   33.0436 H   0  0  0  0  0  0  0  0  0  0  0  0
   37.2483   23.9729   39.1745 H   0  0  0  0  0  0  0  0  0  0  0  0
   36.4736   23.7299   36.7961 H   0  0  0  0  0  0  0  0  0  0  0  0
   41.0492   22.4107   38.0973 H   0  0  0  0  0  0  0  0  0  0  0  0
   36.3904   26.1367   34.5510 H   0  0  0  0  0  0  0  0  0  0  0  0
   40.3577   27.6553   34.9682 H   0  0  0  0  0  0  0  0  0  0  0  0
  1  6  1  0
  2  3  1  0
  2  1  1  0
  3 10  1  0
  3  1  1  0
  4  9  2  0
  5  4  1  0
  6  7  1  0
  6  5  2  0
  7  8  2  0
  8  9  1  0
 10 14  1  0
 10 11  1  0
 11 12  2  0
 13 12  1  0
 14 13  2  0
  1 15  1  1
  2 16  1  0
  2 17  1  0
  3 18  1  6
  4 19  1  0
  5 20  1  0
  8 21  1  0
 11 22  1  0
 13 23  1  0
M  ISO  8  15  13  16  13  17  13  18  13  19  14  20  14  21  14  22  14
M  ISO  1  23  14
M  END
>  <minimizedAffinity>  (1) 
-3.69695139

>  <minimizedRMSD>  (1) 
3.21942949

$$$$
