
     RDKit          3D

 23 24  0  0  1  0  0  0  0  0999 V2000
   38.2020   24.2200   34.7210 C   0  0  2  0  0  0  0  0  0  0  0  0
   39.2060   25.2360   34.1100 C   0  0  0  0  0  0  0  0  0  0  0  0
   37.7570   25.5140   34.2700 C   0  0  2  0  0  0  0  0  0  0  0  0
   37.9020   23.8030   38.4320 C   0  0  0  0  0  0  0  0  0  0  0  0
   37.6030   24.1510   37.1200 C   0  0  0  0  0  0  0  0  0  0  0  0
   38.5120   23.8390   36.1000 C   0  0  0  0  0  0  0  0  0  0  0  0
   39.6510   23.2060   36.4530 N   0  0  0  0  0  0  0  0  0  0  0  0
   39.9270   22.8750   37.7330 C   0  0  0  0  0  0  0  0  0  0  0  0
   39.0480   23.1770   38.7170 N   0  0  0  0  0  0  0  0  0  0  0  0
   37.4320   26.7140   35.0850 C   0  0  0  0  0  0  0  0  0  0  0  0
   38.7220   27.3710   35.6140 C   0  0  0  0  0  0  0  0  0  0  0  0
   37.7776   23.2217   34.5388 H   0  0  0  0  0  0  0  0  0  0  0  0
   39.6360   25.0660   33.1119 H   0  0  0  0  0  0  0  0  0  0  0  0
   40.1482   25.7111   34.4208 H   0  0  0  0  0  0  0  0  0  0  0  0
   36.8783   25.7432   33.6493 H   0  0  0  0  0  0  0  0  0  0  0  0
   37.1933   24.0435   39.2382 H   0  0  0  0  0  0  0  0  0  0  0  0
   36.6606   24.6671   36.8842 H   0  0  0  0  0  0  0  0  0  0  0  0
   40.8676   22.3592   37.9762 H   0  0  0  0  0  0  0  0  0  0  0  0
   36.8859   27.4378   34.4622 H   0  0  0  0  0  0  0  0  0  0  0  0
   36.8120   26.4068   35.9401 H   0  0  0  0  0  0  0  0  0  0  0  0
   38.7117   27.3658   36.7139 H   0  0  0  0  0  0  0  0  0  0  0  0
   39.5951   26.8077   35.2528 H   0  0  0  0  0  0  0  0  0  0  0  0
   38.7799   28.4084   35.2528 H   0  0  0  0  0  0  0  0  0  0  0  0
  1  6  1  0
  2  3  1  0
  2  1  1  0
  3  1  1  0
  3 10  1  0
  4  9  2  0
  5  4  1  0
  6  7  1  0
  6  5  2  0
  7  8  2  0
  8  9  1  0
 10 11  1  0
  1 12  1  6
  2 13  1  0
  2 14  1  0
  3 15  1  6
  4 16  1  0
  5 17  1  0
  8 18  1  0
 10 19  1  0
 10 20  1  0
 11 21  1  0
 11 22  1  0
 11 23  1  0
M  ISO  8  12  13  13  13  14  13  15  13  16  14  17  14  18  14  19   8
M  ISO  4  20   8  21   8  22   8  23   8
M  END
>  <minimizedAffinity>  (1) 
-3.62762189

>  <minimizedRMSD>  (1) 
1.64195848

$$$$
