
     RDKit          3D

 18 19  0  0  1  0  0  0  0  0999 V2000
   38.4500   23.5640   38.2710 C   0  0  0  0  0  0  0  0  0  0  0  0
   38.0390   24.6060   37.4080 C   0  0  0  0  0  0  0  0  0  0  0  0
   38.7210   24.7810   36.1930 C   0  0  0  0  0  0  0  0  0  0  0  0
   39.7390   23.9430   35.9130 N   0  0  0  0  0  0  0  0  0  0  0  0
   40.1230   22.9570   36.7400 C   0  0  0  0  0  0  0  0  0  0  0  0
   39.4830   22.7600   37.9240 N   0  0  0  0  0  0  0  0  0  0  0  0
   38.3140   25.8570   35.2900 C   0  0  2  0  0  0  0  0  0  0  0  0
   39.3630   27.0000   35.1710 C   0  0  0  0  0  0  0  0  0  0  0  0
   38.0020   27.2030   35.7230 C   0  0  1  0  0  0  0  0  0  0  0  0
   37.1220   28.0060   34.9900 O   0  0  0  0  0  0  0  0  0  0  0  0
   37.9292   23.4060   39.2269 H   0  0  0  0  0  0  0  0  0  0  0  0
   37.2027   25.2656   37.6826 H   0  0  0  0  0  0  0  0  0  0  0  0
   40.9617   22.3036   36.4577 H   0  0  0  0  0  0  0  0  0  0  0  0
   37.7560   25.1540   34.6540 H   0  0  0  0  0  0  0  0  0  0  0  0
   40.2425   27.0219   35.8313 H   0  0  0  0  0  0  0  0  0  0  0  0
   39.9701   27.4425   34.3675 H   0  0  0  0  0  0  0  0  0  0  0  0
   37.6023   27.5933   36.6705 H   0  0  0  0  0  0  0  0  0  0  0  0
   36.5531   28.5251   35.6120 H   0  0  0  0  0  0  0  0  0  0  0  0
  2  1  2  0
  3  2  1  0
  4  3  2  0
  4  5  1  0
  5  6  2  0
  6  1  1  0
  7  9  1  0
  7  3  1  0
  8  7  1  0
  8  9  1  0
 10  9  1  0
  1 11  1  0
  2 12  1  0
  5 13  1  0
  7 14  1  6
  8 15  1  0
  8 16  1  0
  9 17  1  1
 10 18  1  0
M  ISO  8  11  14  12  14  13  14  14  13  15  13  16  13  17  13  18   3
M  END
>  <minimizedAffinity>  (1) 
-3.46121144

>  <minimizedRMSD>  (1) 
0.134382904

$$$$
