
     RDKit          3D

 25 27  0  0  1  0  0  0  0  0999 V2000
   38.1450   24.3830   35.0380 C   0  0  2  0  0  0  0  0  0  0  0  0
   38.3730   25.6660   35.8920 C   0  0  0  0  0  0  0  0  0  0  0  0
   39.4410   24.7180   35.5860 C   0  0  2  0  0  0  0  0  0  0  0  0
   37.5280   23.9550   31.3530 C   0  0  0  0  0  0  0  0  0  0  0  0
   37.9360   23.6930   32.6840 C   0  0  0  0  0  0  0  0  0  0  0  0
   37.7080   24.6530   33.6740 C   0  0  0  0  0  0  0  0  0  0  0  0
   37.1010   25.7970   33.3010 N   0  0  0  0  0  0  0  0  0  0  0  0
   36.7160   26.0430   32.0400 C   0  0  0  0  0  0  0  0  0  0  0  0
   36.9270   25.1290   31.0710 N   0  0  0  0  0  0  0  0  0  0  0  0
   40.5140   25.2720   34.7040 C   0  0  0  0  0  0  0  0  0  0  0  0
   40.6470   26.6540   34.6220 C   0  0  0  0  0  0  0  0  0  0  0  0
   41.6200   27.2330   33.8140 C   0  0  0  0  0  0  0  0  0  0  0  0
   42.4310   26.4170   33.1090 N   0  0  0  0  0  0  0  0  0  0  0  0
   42.3060   25.0730   33.1830 C   0  0  0  0  0  0  0  0  0  0  0  0
   41.3590   24.5360   33.9720 N   0  0  0  0  0  0  0  0  0  0  0  0
   37.5800   23.4392   35.0447 H   0  0  0  0  0  0  0  0  0  0  0  0
   38.3574   26.6598   35.4207 H   0  0  0  0  0  0  0  0  0  0  0  0
   37.9352   26.1026   36.8018 H   0  0  0  0  0  0  0  0  0  0  0  0
   40.1443   24.1089   36.1729 H   0  0  0  0  0  0  0  0  0  0  0  0
   37.6989   23.2114   30.5606 H   0  0  0  0  0  0  0  0  0  0  0  0
   38.4281   22.7421   32.9363 H   0  0  0  0  0  0  0  0  0  0  0  0
   36.2250   26.9963   31.7946 H   0  0  0  0  0  0  0  0  0  0  0  0
   39.9727   27.2987   35.2048 H   0  0  0  0  0  0  0  0  0  0  0  0
   41.7254   28.3262   33.7515 H   0  0  0  0  0  0  0  0  0  0  0  0
   42.9753   24.4224   32.6010 H   0  0  0  0  0  0  0  0  0  0  0  0
  1  3  1  0
  1  2  1  0
  3  2  1  0
  4  5  2  0
  5  6  1  0
  6  1  1  0
  7  6  2  0
  8  7  1  0
  9  4  1  0
  9  8  2  0
 10  3  1  0
 11 10  2  0
 12 11  1  0
 13 14  1  0
 13 12  2  0
 14 15  2  0
 15 10  1  0
  1 16  1  1
  2 17  1  0
  2 18  1  0
  3 19  1  1
  4 20  1  0
  5 21  1  0
  8 22  1  0
 11 23  1  0
 12 24  1  0
 14 25  1  0
M  ISO  8  16  13  17  13  18  13  19  13  20  14  21  14  22  14  23  14
M  ISO  2  24  14  25  14
M  END
>  <minimizedAffinity>  (1) 
-3.22305536

>  <minimizedRMSD>  (1) 
5.55188799

$$$$
