
     RDKit          3D

 33 35  0  0  0  0  0  0  0  0999 V2000
   43.4340   21.7650   34.2920 C   0  0  0  0  0  0  0  0  0  0  0  0
   43.9780   23.0510   34.1730 C   0  0  0  0  0  0  0  0  0  0  0  0
   45.7870   22.7750   34.5620 S   0  0  0  0  0  0  0  0  0  0  0  0
   45.4430   20.9290   34.8160 C   0  0  0  0  0  0  0  0  0  0  0  0
   44.3660   20.9220   34.6140 N   0  0  0  0  0  0  0  0  0  0  0  0
   46.4100   19.9090   35.1750 N   0  0  0  0  0  0  0  0  0  0  0  0
   46.4760   19.6490   36.4920 C   0  0  0  0  0  0  0  0  0  0  0  0
   47.4270   18.6710   36.6820 C   0  0  0  0  0  0  0  0  0  0  0  0
   47.8940   18.3870   35.4450 N   0  0  0  0  0  0  0  0  0  0  0  0
   47.2810   19.1350   34.5200 C   0  0  0  0  0  0  0  0  0  0  0  0
   41.6840   21.5700   33.9960 S   0  0  0  0  0  0  0  0  0  0  0  0
   40.4350   22.4430   37.6830 C   0  0  0  0  0  0  0  0  0  0  0  0
   39.2260   23.1480   37.4610 C   0  0  0  0  0  0  0  0  0  0  0  0
   38.8320   23.3310   36.1430 C   0  0  0  0  0  0  0  0  0  0  0  0
   39.5880   22.8460   35.1140 N   0  0  0  0  0  0  0  0  0  0  0  0
   40.7550   22.1690   35.3920 C   0  0  0  0  0  0  0  0  0  0  0  0
   41.1510   21.9840   36.6580 N   0  0  0  0  0  0  0  0  0  0  0  0
   38.3880   23.6830   38.5630 C   0  0  0  0  0  0  0  0  0  0  0  0
   39.2300   23.8700   39.6480 F   0  0  0  0  0  0  0  0  0  0  0  0
   37.3710   22.8610   38.9040 F   0  0  0  0  0  0  0  0  0  0  0  0
   37.9790   25.0010   38.2560 F   0  0  0  0  0  0  0  0  0  0  0  0
   47.3920   19.2390   33.0700 C   0  0  0  0  0  0  0  0  0  0  0  0
   46.4640   18.3250   32.3000 C   0  0  0  0  0  0  0  0  0  0  0  0
   43.4675   23.9905   33.9147 H   0  0  0  0  0  0  0  0  0  0  0  0
   45.8770   20.1315   37.2783 H   0  0  0  0  0  0  0  0  0  0  0  0
   47.7394   18.2184   37.6347 H   0  0  0  0  0  0  0  0  0  0  0  0
   40.7855   22.2732   38.7117 H   0  0  0  0  0  0  0  0  0  0  0  0
   37.9000   23.8729   35.9245 H   0  0  0  0  0  0  0  0  0  0  0  0
   47.1680   20.2768   32.7823 H   0  0  0  0  0  0  0  0  0  0  0  0
   48.4164   18.9315   32.8129 H   0  0  0  0  0  0  0  0  0  0  0  0
   45.8631   17.7332   33.0062 H   0  0  0  0  0  0  0  0  0  0  0  0
   45.7969   18.9286   31.6670 H   0  0  0  0  0  0  0  0  0  0  0  0
   47.0574   17.6488   31.6670 H   0  0  0  0  0  0  0  0  0  0  0  0
  1  5  1  0
  2  1  2  0
  2  3  1  0
  3  4  1  0
  4  6  1  0
  5  4  2  0
  6  7  1  0
  7  8  2  0
  9  8  1  0
 10  6  1  0
 10  9  2  0
 11  1  1  0
 11 16  1  0
 13 12  2  0
 13 18  1  0
 14 13  1  0
 15 16  1  0
 15 14  2  0
 16 17  2  0
 17 12  1  0
 18 20  1  0
 18 19  1  0
 21 18  1  0
 22 10  1  0
 23 22  1  0
  2 24  1  0
  7 25  1  0
  8 26  1  0
 12 27  1  0
 14 28  1  0
 22 29  1  0
 22 30  1  0
 23 31  1  0
 23 32  1  0
 23 33  1  0
M  ISO  8  24  14  25  14  26  14  27  14  28  14  29   8  30   8  31   8
M  ISO  2  32   8  33   8
M  END
>  <minimizedAffinity>  (1) 
-3.91298723

>  <minimizedRMSD>  (1) 
2.93831515

$$$$
