
     RDKit          3D

 18 19  0  0  1  0  0  0  0  0999 V2000
   37.9450   23.8440   38.4750 C   0  0  0  0  0  0  0  0  0  0  0  0
   37.6320   24.2840   37.1920 C   0  0  0  0  0  0  0  0  0  0  0  0
   38.5060   24.0080   36.1100 C   0  0  0  0  0  0  0  0  0  0  0  0
   39.6240   23.3120   36.4020 N   0  0  0  0  0  0  0  0  0  0  0  0
   39.9190   22.8910   37.6440 C   0  0  0  0  0  0  0  0  0  0  0  0
   39.0780   23.1600   38.6690 N   0  0  0  0  0  0  0  0  0  0  0  0
   38.1870   24.4810   34.7610 C   0  0  2  0  0  0  0  0  0  0  0  0
   39.4330   24.9030   33.9370 C   0  0  0  0  0  0  0  0  0  0  0  0
   38.3550   25.8440   34.3110 C   0  0  2  0  0  0  0  0  0  0  0  0
   38.8340   27.0720   35.5570 S   0  0  0  0  0  0  0  0  0  0  0  0
   37.2701   24.0558   39.3174 H   0  0  0  0  0  0  0  0  0  0  0  0
   36.7037   24.8476   37.0169 H   0  0  0  0  0  0  0  0  0  0  0  0
   40.8455   22.3270   37.8272 H   0  0  0  0  0  0  0  0  0  0  0  0
   37.3229   23.8029   34.7011 H   0  0  0  0  0  0  0  0  0  0  0  0
   39.5502   24.5742   32.8939 H   0  0  0  0  0  0  0  0  0  0  0  0
   40.5246   24.8529   34.0631 H   0  0  0  0  0  0  0  0  0  0  0  0
   37.6955   26.5228   33.7503 H   0  0  0  0  0  0  0  0  0  0  0  0
   38.6322   26.5545   36.8094 H   0  0  0  0  0  0  0  0  0  0  0  0
  1  6  2  0
  2  1  1  0
  3  4  1  0
  3  2  2  0
  4  5  2  0
  5  6  1  0
  7  3  1  0
  8  9  1  0
  8  7  1  0
  9  7  1  0
  9 10  1  0
  1 11  1  0
  2 12  1  0
  5 13  1  0
  7 14  1  6
  8 15  1  0
  8 16  1  0
  9 17  1  6
 10 18  1  0
M  ISO  8  11  14  12  14  13  14  14  13  15  13  16  13  17  13  18  11
M  END
>  <minimizedAffinity>  (1) 
-3.21456885

>  <minimizedRMSD>  (1) 
1.46970761

$$$$
