
     RDKit          3D

 30 33  0  0  1  0  0  0  0  0999 V2000
   38.4980   25.7420   35.1760 C   0  0  2  0  0  0  0  0  0  0  0  0
   39.3270   27.0380   35.4020 C   0  0  0  0  0  0  0  0  0  0  0  0
   37.8470   27.0220   35.3230 C   0  0  1  0  0  0  0  0  0  0  0  0
   37.9870   23.8980   38.4340 C   0  0  0  0  0  0  0  0  0  0  0  0
   37.7980   24.8570   37.4390 C   0  0  0  0  0  0  0  0  0  0  0  0
   38.6080   24.7640   36.2800 C   0  0  0  0  0  0  0  0  0  0  0  0
   39.5240   23.7530   36.1900 N   0  0  0  0  0  0  0  0  0  0  0  0
   39.6700   22.8500   37.1790 C   0  0  0  0  0  0  0  0  0  0  0  0
   38.9040   22.9210   38.2980 N   0  0  0  0  0  0  0  0  0  0  0  0
   37.2210   27.7250   34.2480 N   0  0  0  0  0  0  0  0  0  0  0  0
   36.2380   28.6250   34.5420 C   0  0  0  0  0  0  0  0  0  0  0  0
   35.8080   29.1530   33.3870 N   0  0  0  0  0  0  0  0  0  0  0  0
   36.5120   28.5930   32.3740 C   0  0  0  0  0  0  0  0  0  0  0  0
   36.5210   28.7250   31.0210 C   0  0  0  0  0  0  0  0  0  0  0  0
   37.3800   27.9880   30.3080 N   0  0  0  0  0  0  0  0  0  0  0  0
   38.2430   27.1150   30.8570 C   0  0  0  0  0  0  0  0  0  0  0  0
   38.2400   26.9760   32.2060 N   0  0  0  0  0  0  0  0  0  0  0  0
   37.3930   27.7010   32.9330 C   0  0  0  0  0  0  0  0  0  0  0  0
   35.6070   29.6500   30.4420 N   0  0  0  0  0  0  0  0  0  0  0  0
   38.3801   24.9445   34.4276 H   0  0  0  0  0  0  0  0  0  0  0  0
   39.8336   27.2172   36.3618 H   0  0  0  0  0  0  0  0  0  0  0  0
   40.1468   27.5595   34.8862 H   0  0  0  0  0  0  0  0  0  0  0  0
   37.0205   27.3358   35.9775 H   0  0  0  0  0  0  0  0  0  0  0  0
   37.3754   23.9405   39.3473 H   0  0  0  0  0  0  0  0  0  0  0  0
   37.0489   25.6549   37.5497 H   0  0  0  0  0  0  0  0  0  0  0  0
   40.4163   22.0481   37.0792 H   0  0  0  0  0  0  0  0  0  0  0  0
   35.8652   28.8729   35.5468 H   0  0  0  0  0  0  0  0  0  0  0  0
   38.9318   26.5302   30.2297 H   0  0  0  0  0  0  0  0  0  0  0  0
   35.5827   29.7791   29.4204 H   0  0  0  0  0  0  0  0  0  0  0  0
   34.9699   30.1902   31.0446 H   0  0  0  0  0  0  0  0  0  0  0  0
  1  3  1  0
  1  2  1  0
  1  6  1  0
  3  2  1  0
  5  4  2  0
  6  5  1  0
  7  6  2  0
  7  8  1  0
  8  9  2  0
  9  4  1  0
 10 11  1  0
 10  3  1  0
 12 11  2  0
 13 18  2  0
 13 12  1  0
 14 13  1  0
 15 16  1  0
 15 14  2  0
 16 17  2  0
 17 18  1  0
 18 10  1  0
 19 14  1  0
  1 20  1  6
  2 21  1  0
  2 22  1  0
  3 23  1  1
  4 24  1  0
  5 25  1  0
  8 26  1  0
 11 27  1  0
 16 28  1  0
 19 29  1  0
 19 30  1  0
M  ISO  8  20  13  21  13  22  13  23  13  24  14  25  14  26  14  27  14
M  ISO  1  28  14
M  END
>  <minimizedAffinity>  (1) 
-5.12375164

>  <minimizedRMSD>  (1) 
1.65359032

$$$$
