
     RDKit          3D

 40 43  0  0  0  0  0  0  0  0999 V2000
   43.3540   22.6830   33.8890 C   0  0  0  0  0  0  0  0  0  0  0  0
   43.3140   23.9550   34.4790 C   0  0  0  0  0  0  0  0  0  0  0  0
   44.9860   24.6630   34.0320 S   0  0  0  0  0  0  0  0  0  0  0  0
   45.4150   23.0460   33.1090 C   0  0  0  0  0  0  0  0  0  0  0  0
   44.4840   22.4950   33.2870 N   0  0  0  0  0  0  0  0  0  0  0  0
   46.6500   22.7530   32.4210 N   0  0  0  0  0  0  0  0  0  0  0  0
   47.5630   22.1030   33.1640 C   0  0  0  0  0  0  0  0  0  0  0  0
   48.6780   21.9030   32.3730 C   0  0  0  0  0  0  0  0  0  0  0  0
   48.3730   22.4510   31.1870 N   0  0  0  0  0  0  0  0  0  0  0  0
   47.1450   22.9690   31.2040 C   0  0  0  0  0  0  0  0  0  0  0  0
   46.4250   23.6160   30.2020 N   0  0  0  0  0  0  0  0  0  0  0  0
   46.5070   24.9270   29.6810 C   0  0  0  0  0  0  0  0  0  0  0  0
   45.2500   25.6780   30.1510 C   0  0  0  0  0  0  0  0  0  0  0  0
   44.1620   24.8370   30.1370 O   0  0  0  0  0  0  0  0  0  0  0  0
   44.2680   23.8050   29.2130 C   0  0  0  0  0  0  0  0  0  0  0  0
   45.3880   22.8390   29.5430 C   0  0  0  0  0  0  0  0  0  0  0  0
   41.9170   21.6310   34.0800 S   0  0  0  0  0  0  0  0  0  0  0  0
   40.4450   22.3740   37.7170 C   0  0  0  0  0  0  0  0  0  0  0  0
   39.3040   23.1390   37.4660 C   0  0  0  0  0  0  0  0  0  0  0  0
   39.0110   23.4140   36.1280 C   0  0  0  0  0  0  0  0  0  0  0  0
   39.8260   22.9380   35.1400 N   0  0  0  0  0  0  0  0  0  0  0  0
   40.9320   22.1930   35.4560 C   0  0  0  0  0  0  0  0  0  0  0  0
   41.2150   21.9290   36.7300 N   0  0  0  0  0  0  0  0  0  0  0  0
   38.4060   23.6650   38.5150 C   0  0  0  0  0  0  0  0  0  0  0  0
   39.1950   23.8760   39.6400 F   0  0  0  0  0  0  0  0  0  0  0  0
   37.3880   22.8310   38.8190 F   0  0  0  0  0  0  0  0  0  0  0  0
   37.9810   24.9800   38.1930 F   0  0  0  0  0  0  0  0  0  0  0  0
   42.5028   24.4194   35.0590 H   0  0  0  0  0  0  0  0  0  0  0  0
   47.4438   21.7878   34.2111 H   0  0  0  0  0  0  0  0  0  0  0  0
   49.6155   21.4016   32.6553 H   0  0  0  0  0  0  0  0  0  0  0  0
   46.5390   24.8952   28.5819 H   0  0  0  0  0  0  0  0  0  0  0  0
   47.4194   25.4319   30.0312 H   0  0  0  0  0  0  0  0  0  0  0  0
   45.4095   26.0489   31.1742 H   0  0  0  0  0  0  0  0  0  0  0  0
   45.0605   26.5218   29.4712 H   0  0  0  0  0  0  0  0  0  0  0  0
   44.4585   24.2392   28.2204 H   0  0  0  0  0  0  0  0  0  0  0  0
   43.3242   23.2404   29.2350 H   0  0  0  0  0  0  0  0  0  0  0  0
   45.0218   22.0481   30.2141 H   0  0  0  0  0  0  0  0  0  0  0  0
   45.7732   22.3525   28.6347 H   0  0  0  0  0  0  0  0  0  0  0  0
   40.7126   22.1341   38.7566 H   0  0  0  0  0  0  0  0  0  0  0  0
   38.1252   24.0131   35.8702 H   0  0  0  0  0  0  0  0  0  0  0  0
  1 17  1  0
  1  2  2  0
  3  2  1  0
  4  5  2  0
  4  3  1  0
  5  1  1  0
  6  4  1  0
  6  7  1  0
  8  7  2  0
  9 10  2  0
  9  8  1  0
 10  6  1  0
 11 10  1  0
 12 13  1  0
 12 11  1  0
 14 13  1  0
 15 16  1  0
 15 14  1  0
 16 11  1  0
 17 22  1  0
 19 18  2  0
 19 24  1  0
 20 19  1  0
 21 22  1  0
 21 20  2  0
 22 23  2  0
 23 18  1  0
 24 26  1  0
 24 25  1  0
 27 24  1  0
  2 28  1  0
  7 29  1  0
  8 30  1  0
 12 31  1  0
 12 32  1  0
 13 33  1  0
 13 34  1  0
 15 35  1  0
 15 36  1  0
 16 37  1  0
 16 38  1  0
 18 39  1  0
 20 40  1  0
M  ISO  8  28  14  29  14  30  14  31  13  32  13  33  13  34  13  35  13
M  ISO  5  36  13  37  13  38  13  39  14  40  14
M  END
>  <minimizedAffinity>  (1) 
-3.83485508

>  <minimizedRMSD>  (1) 
0.108517759

$$$$
