
     RDKit          3D

 41 46  0  0  1  0  0  0  0  0999 V2000
   37.1230   27.7180   34.3530 N   0  0  0  0  0  0  0  0  0  0  0  0
   36.2550   28.7310   34.5960 C   0  0  0  0  0  0  0  0  0  0  0  0
   35.8300   29.2290   33.4320 N   0  0  0  0  0  0  0  0  0  0  0  0
   36.4270   28.5340   32.4420 C   0  0  0  0  0  0  0  0  0  0  0  0
   36.3870   28.5810   31.0840 C   0  0  0  0  0  0  0  0  0  0  0  0
   37.1300   27.7090   30.3940 N   0  0  0  0  0  0  0  0  0  0  0  0
   37.9210   26.7830   30.9620 C   0  0  0  0  0  0  0  0  0  0  0  0
   37.9620   26.7370   32.3120 N   0  0  0  0  0  0  0  0  0  0  0  0
   37.2310   27.5940   33.0390 C   0  0  0  0  0  0  0  0  0  0  0  0
   35.5500   29.5690   30.4850 N   0  0  0  0  0  0  0  0  0  0  0  0
   38.6970   25.8710   30.1940 N   0  0  0  0  0  0  0  0  0  0  0  0
   39.6720   26.2200   29.3340 C   0  0  0  0  0  0  0  0  0  0  0  0
   40.1890   25.1210   28.7880 N   0  0  0  0  0  0  0  0  0  0  0  0
   39.5630   24.0560   29.2810 C   0  0  0  0  0  0  0  0  0  0  0  0
   39.7080   22.6910   29.0540 C   0  0  0  0  0  0  0  0  0  0  0  0
   38.9000   21.8520   29.7290 N   0  0  0  0  0  0  0  0  0  0  0  0
   37.9730   22.3060   30.6030 C   0  0  0  0  0  0  0  0  0  0  0  0
   37.8280   23.6430   30.8270 N   0  0  0  0  0  0  0  0  0  0  0  0
   38.6160   24.5340   30.1750 C   0  0  0  0  0  0  0  0  0  0  0  0
   38.4550   25.7810   35.2800 C   0  0  2  0  0  0  0  0  0  0  0  0
   39.2120   27.1210   35.5900 C   0  0  0  0  0  0  0  0  0  0  0  0
   37.7350   27.0100   35.4290 C   0  0  1  0  0  0  0  0  0  0  0  0
   37.9680   23.8650   38.4900 C   0  0  0  0  0  0  0  0  0  0  0  0
   37.7750   24.8390   37.5130 C   0  0  0  0  0  0  0  0  0  0  0  0
   38.5910   24.7760   36.3480 C   0  0  0  0  0  0  0  0  0  0  0  0
   39.5170   23.7770   36.2340 N   0  0  0  0  0  0  0  0  0  0  0  0
   39.6530   22.8590   37.2240 C   0  0  0  0  0  0  0  0  0  0  0  0
   38.8900   22.8980   38.3390 N   0  0  0  0  0  0  0  0  0  0  0  0
   35.9500   29.0855   35.5916 H   0  0  0  0  0  0  0  0  0  0  0  0
   35.4899   29.6398   29.4592 H   0  0  0  0  0  0  0  0  0  0  0  0
   35.0059   30.2115   31.0784 H   0  0  0  0  0  0  0  0  0  0  0  0
   39.9911   27.2500   29.1167 H   0  0  0  0  0  0  0  0  0  0  0  0
   40.4585   22.3097   28.3459 H   0  0  0  0  0  0  0  0  0  0  0  0
   37.3308   21.5906   31.1375 H   0  0  0  0  0  0  0  0  0  0  0  0
   38.4008   25.0031   34.5041 H   0  0  0  0  0  0  0  0  0  0  0  0
   39.6571   27.2983   36.5802 H   0  0  0  0  0  0  0  0  0  0  0  0
   40.0264   27.7053   35.1369 H   0  0  0  0  0  0  0  0  0  0  0  0
   36.8569   27.2468   36.0478 H   0  0  0  0  0  0  0  0  0  0  0  0
   37.3543   23.8874   39.4026 H   0  0  0  0  0  0  0  0  0  0  0  0
   37.0192   25.6285   37.6371 H   0  0  0  0  0  0  0  0  0  0  0  0
   40.4038   22.0623   37.1163 H   0  0  0  0  0  0  0  0  0  0  0  0
  1  2  1  0
  1 22  1  0
  3  2  2  0
  4  9  2  0
  4  3  1  0
  5  4  1  0
  6  7  1  0
  6  5  2  0
  7  8  2  0
  8  9  1  0
  9  1  1  0
 10  5  1  0
 11  7  1  0
 12 11  1  0
 13 14  1  0
 13 12  2  0
 14 19  2  0
 15 14  1  0
 15 16  2  0
 16 17  1  0
 17 18  2  0
 19 11  1  0
 19 18  1  0
 20 22  1  0
 20 21  1  0
 20 25  1  0
 22 21  1  0
 24 23  2  0
 25 24  1  0
 26 25  2  0
 26 27  1  0
 27 28  2  0
 28 23  1  0
  2 29  1  0
 10 30  1  0
 10 31  1  0
 12 32  1  0
 15 33  1  0
 17 34  1  0
 20 35  1  6
 21 36  1  0
 21 37  1  0
 22 38  1  1
 23 39  1  0
 24 40  1  0
 27 41  1  0
M  ISO  8  29  14  32  14  33  14  34  14  35  13  36  13  37  13  38  13
M  ISO  3  39  14  40  14  41  14
M  END
>  <minimizedAffinity>  (1) 
-6.32469893

>  <minimizedRMSD>  (1) 
0.52597791

$$$$
