
     RDKit          3D

 46 51  0  0  1  0  0  0  0  0999 V2000
   37.1540   27.6820   34.2790 N   0  0  0  0  0  0  0  0  0  0  0  0
   36.2340   28.6760   34.5260 C   0  0  0  0  0  0  0  0  0  0  0  0
   35.8470   29.1860   33.3490 N   0  0  0  0  0  0  0  0  0  0  0  0
   36.5140   28.5220   32.3680 C   0  0  0  0  0  0  0  0  0  0  0  0
   36.5270   28.6010   31.0220 C   0  0  0  0  0  0  0  0  0  0  0  0
   37.3260   27.7640   30.3440 N   0  0  0  0  0  0  0  0  0  0  0  0
   38.1270   26.8410   30.9280 C   0  0  0  0  0  0  0  0  0  0  0  0
   38.0880   26.7920   32.2700 N   0  0  0  0  0  0  0  0  0  0  0  0
   37.3160   27.5960   32.9780 C   0  0  0  0  0  0  0  0  0  0  0  0
   35.7050   29.5710   30.3870 N   0  0  0  0  0  0  0  0  0  0  0  0
   38.8770   26.0590   29.9670 C   0  0  0  0  0  0  0  0  0  0  0  0
   39.6590   26.6760   29.0270 C   0  0  0  0  0  0  0  0  0  0  0  0
   40.4060   26.0150   28.0810 C   0  0  0  0  0  0  0  0  0  0  0  0
   40.4060   24.6490   28.0260 C   0  0  0  0  0  0  0  0  0  0  0  0
   39.6390   23.9690   28.9420 C   0  0  0  0  0  0  0  0  0  0  0  0
   39.6330   22.5950   28.9050 C   0  0  0  0  0  0  0  0  0  0  0  0
   38.8820   21.8510   29.8130 C   0  0  0  0  0  0  0  0  0  0  0  0
   38.1490   22.5780   30.7460 C   0  0  0  0  0  0  0  0  0  0  0  0
   38.1880   23.9510   30.7430 C   0  0  0  0  0  0  0  0  0  0  0  0
   38.9180   24.6920   29.8610 C   0  0  0  0  0  0  0  0  0  0  0  0
   38.4950   25.7790   35.2560 C   0  0  2  0  0  0  0  0  0  0  0  0
   39.1900   27.1430   35.6080 C   0  0  0  0  0  0  0  0  0  0  0  0
   37.7250   26.9800   35.3820 C   0  0  1  0  0  0  0  0  0  0  0  0
   37.9550   23.8680   38.4590 C   0  0  0  0  0  0  0  0  0  0  0  0
   37.7880   24.8380   37.4750 C   0  0  0  0  0  0  0  0  0  0  0  0
   38.6060   24.7750   36.3340 C   0  0  0  0  0  0  0  0  0  0  0  0
   39.5210   23.7750   36.2410 N   0  0  0  0  0  0  0  0  0  0  0  0
   39.6570   22.8520   37.2140 C   0  0  0  0  0  0  0  0  0  0  0  0
   38.8800   22.8960   38.3150 N   0  0  0  0  0  0  0  0  0  0  0  0
   35.8787   28.9957   35.5167 H   0  0  0  0  0  0  0  0  0  0  0  0
   35.6996   29.6486   29.3599 H   0  0  0  0  0  0  0  0  0  0  0  0
   35.1147   30.1964   30.9538 H   0  0  0  0  0  0  0  0  0  0  0  0
   39.6916   27.7755   29.0291 H   0  0  0  0  0  0  0  0  0  0  0  0
   41.0086   26.5899   27.3624 H   0  0  0  0  0  0  0  0  0  0  0  0
   41.0007   24.1112   27.2729 H   0  0  0  0  0  0  0  0  0  0  0  0
   40.2322   22.0729   28.1445 H   0  0  0  0  0  0  0  0  0  0  0  0
   38.8694   20.7512   29.7933 H   0  0  0  0  0  0  0  0  0  0  0  0
   37.5347   22.0501   31.4903 H   0  0  0  0  0  0  0  0  0  0  0  0
   37.5938   24.4858   31.4986 H   0  0  0  0  0  0  0  0  0  0  0  0
   38.5101   25.0067   34.4728 H   0  0  0  0  0  0  0  0  0  0  0  0
   39.5853   27.3277   36.6178 H   0  0  0  0  0  0  0  0  0  0  0  0
   40.0017   27.7599   35.1949 H   0  0  0  0  0  0  0  0  0  0  0  0
   36.8104   27.1738   35.9616 H   0  0  0  0  0  0  0  0  0  0  0  0
   37.3275   23.8939   39.3621 H   0  0  0  0  0  0  0  0  0  0  0  0
   37.0358   25.6327   37.5874 H   0  0  0  0  0  0  0  0  0  0  0  0
   40.4086   22.0558   37.1088 H   0  0  0  0  0  0  0  0  0  0  0  0
  1  2  1  0
  1 23  1  0
  3  2  2  0
  4  9  2  0
  4  3  1  0
  5  4  1  0
  6  7  1  0
  6  5  2  0
  7  8  2  0
  8  9  1  0
  9  1  1  0
 10  5  1  0
 11  7  1  0
 12 11  2  0
 13 12  1  0
 14 13  2  0
 14 15  1  0
 15 20  2  0
 16 15  1  0
 16 17  2  0
 17 18  1  0
 19 18  2  0
 20 11  1  0
 20 19  1  0
 21 23  1  0
 21 22  1  0
 21 26  1  0
 23 22  1  0
 25 24  2  0
 26 25  1  0
 27 26  2  0
 27 28  1  0
 28 29  2  0
 29 24  1  0
  2 30  1  0
 10 31  1  0
 10 32  1  0
 12 33  1  0
 13 34  1  0
 14 35  1  0
 16 36  1  0
 17 37  1  0
 18 38  1  0
 19 39  1  0
 21 40  1  6
 22 41  1  0
 22 42  1  0
 23 43  1  1
 24 44  1  0
 25 45  1  0
 28 46  1  0
M  ISO  8  30  14  33  14  34  14  35  14  36  14  37  14  38  14  39  14
M  ISO  7  40  13  41  13  42  13  43  13  44  14  45  14  46  14
M  END
>  <minimizedAffinity>  (1) 
-6.2647438

>  <minimizedRMSD>  (1) 
0.504797816

$$$$
