
     RDKit          3D

 45 49  0  0  1  0  0  0  0  0999 V2000
   37.1310   27.7070   34.3440 N   0  0  0  0  0  0  0  0  0  0  0  0
   36.2870   28.7370   34.5860 C   0  0  0  0  0  0  0  0  0  0  0  0
   35.8700   29.2310   33.4240 N   0  0  0  0  0  0  0  0  0  0  0  0
   36.4480   28.5170   32.4340 C   0  0  0  0  0  0  0  0  0  0  0  0
   36.4030   28.5540   31.0760 C   0  0  0  0  0  0  0  0  0  0  0  0
   37.1240   27.6670   30.3880 N   0  0  0  0  0  0  0  0  0  0  0  0
   37.8950   26.7350   30.9600 C   0  0  0  0  0  0  0  0  0  0  0  0
   37.9450   26.6920   32.3070 N   0  0  0  0  0  0  0  0  0  0  0  0
   37.2350   27.5650   33.0360 C   0  0  0  0  0  0  0  0  0  0  0  0
   35.5850   29.5530   30.4690 N   0  0  0  0  0  0  0  0  0  0  0  0
   38.6600   25.7920   30.2200 N   0  0  0  0  0  0  0  0  0  0  0  0
   38.2450   24.4070   30.1130 C   0  0  0  0  0  0  0  0  0  0  0  0
   39.3870   23.5430   29.6610 C   0  0  0  0  0  0  0  0  0  0  0  0
   40.0090   24.0000   28.3690 C   0  0  0  0  0  0  0  0  0  0  0  0
   39.9330   25.4900   28.2070 C   0  0  0  0  0  0  0  0  0  0  0  0
   39.8850   26.1670   29.5400 C   0  0  0  0  0  0  0  0  0  0  0  0
   38.4820   25.7770   35.2780 C   0  0  2  0  0  0  0  0  0  0  0  0
   39.2100   27.1280   35.6200 C   0  0  0  0  0  0  0  0  0  0  0  0
   37.7330   26.9900   35.4240 C   0  0  1  0  0  0  0  0  0  0  0  0
   37.9460   23.8510   38.4780 C   0  0  0  0  0  0  0  0  0  0  0  0
   37.7960   24.8100   37.4880 C   0  0  0  0  0  0  0  0  0  0  0  0
   38.6100   24.7620   36.3390 C   0  0  0  0  0  0  0  0  0  0  0  0
   39.5250   23.7650   36.2430 N   0  0  0  0  0  0  0  0  0  0  0  0
   39.6470   22.8450   37.2280 C   0  0  0  0  0  0  0  0  0  0  0  0
   38.8750   22.8770   38.3330 N   0  0  0  0  0  0  0  0  0  0  0  0
   35.9942   29.1050   35.5804 H   0  0  0  0  0  0  0  0  0  0  0  0
   35.5236   29.6147   29.4427 H   0  0  0  0  0  0  0  0  0  0  0  0
   35.0558   30.2126   31.0571 H   0  0  0  0  0  0  0  0  0  0  0  0
   37.8955   24.0580   31.0959 H   0  0  0  0  0  0  0  0  0  0  0  0
   37.4347   24.3373   29.3723 H   0  0  0  0  0  0  0  0  0  0  0  0
   40.1610   23.5516   30.4426 H   0  0  0  0  0  0  0  0  0  0  0  0
   38.9819   22.5352   29.4871 H   0  0  0  0  0  0  0  0  0  0  0  0
   41.0656   23.6943   28.3554 H   0  0  0  0  0  0  0  0  0  0  0  0
   39.4517   23.5384   27.5406 H   0  0  0  0  0  0  0  0  0  0  0  0
   40.8195   25.8387   27.6570 H   0  0  0  0  0  0  0  0  0  0  0  0
   39.0163   25.7382   27.6520 H   0  0  0  0  0  0  0  0  0  0  0  0
   40.7508   25.8553   30.1426 H   0  0  0  0  0  0  0  0  0  0  0  0
   39.9128   27.2580   29.4023 H   0  0  0  0  0  0  0  0  0  0  0  0
   38.4614   25.0078   34.4920 H   0  0  0  0  0  0  0  0  0  0  0  0
   39.6299   27.3019   36.6217 H   0  0  0  0  0  0  0  0  0  0  0  0
   40.0235   27.7321   35.1919 H   0  0  0  0  0  0  0  0  0  0  0  0
   36.8346   27.1984   36.0236 H   0  0  0  0  0  0  0  0  0  0  0  0
   37.3131   23.8814   39.3771 H   0  0  0  0  0  0  0  0  0  0  0  0
   37.0443   25.6053   37.5992 H   0  0  0  0  0  0  0  0  0  0  0  0
   40.3979   22.0479   37.1241 H   0  0  0  0  0  0  0  0  0  0  0  0
  1  2  1  0
  1 19  1  0
  3  2  2  0
  4  9  2  0
  4  3  1  0
  5  4  1  0
  6  7  1  0
  6  5  2  0
  7  8  2  0
  8  9  1  0
  9  1  1  0
 10  5  1  0
 11  7  1  0
 12 11  1  0
 13 12  1  0
 14 13  1  0
 15 14  1  0
 15 16  1  0
 16 11  1  0
 17 19  1  0
 17 18  1  0
 17 22  1  0
 19 18  1  0
 21 20  2  0
 22 21  1  0
 23 22  2  0
 23 24  1  0
 24 25  2  0
 25 20  1  0
  2 26  1  0
 10 27  1  0
 10 28  1  0
 12 29  1  0
 12 30  1  0
 13 31  1  0
 13 32  1  0
 14 33  1  0
 14 34  1  0
 15 35  1  0
 15 36  1  0
 16 37  1  0
 16 38  1  0
 17 39  1  6
 18 40  1  0
 18 41  1  0
 19 42  1  1
 20 43  1  0
 21 44  1  0
 24 45  1  0
M  ISO  8  26  14  29  13  30  13  31  13  32  13  33  13  34  13  35  13
M  ISO  8  36  13  37  13  38  13  39  13  40  13  41  13  42  13  43  14
M  ISO  2  44  14  45  14
M  END
>  <minimizedAffinity>  (1) 
-5.93769836

>  <minimizedRMSD>  (1) 
0.514498413

$$$$
