
     RDKit          3D

 37 41  0  0  1  0  0  0  0  0999 V2000
   37.0910   27.7830   34.3490 N   0  0  0  0  0  0  0  0  0  0  0  0
   36.1790   28.7450   34.6570 C   0  0  0  0  0  0  0  0  0  0  0  0
   35.7300   29.2770   33.5170 N   0  0  0  0  0  0  0  0  0  0  0  0
   36.3460   28.6630   32.4910 C   0  0  0  0  0  0  0  0  0  0  0  0
   36.2900   28.7790   31.1420 C   0  0  0  0  0  0  0  0  0  0  0  0
   37.0680   27.9760   30.4030 N   0  0  0  0  0  0  0  0  0  0  0  0
   37.9020   27.0590   30.9200 C   0  0  0  0  0  0  0  0  0  0  0  0
   37.9550   26.9450   32.2680 N   0  0  0  0  0  0  0  0  0  0  0  0
   37.1940   27.7300   33.0380 C   0  0  0  0  0  0  0  0  0  0  0  0
   35.4140   29.7440   30.5790 N   0  0  0  0  0  0  0  0  0  0  0  0
   38.7300   26.2030   30.1400 N   0  0  0  0  0  0  0  0  0  0  0  0
   39.6560   26.4220   29.1850 C   0  0  0  0  0  0  0  0  0  0  0  0
   40.1170   25.1770   28.8030 C   0  0  0  0  0  0  0  0  0  0  0  0
   39.4900   24.2030   29.5040 N   0  0  0  0  0  0  0  0  0  0  0  0
   38.6350   24.8690   30.3260 C   0  0  0  0  0  0  0  0  0  0  0  0
   38.4140   25.8070   35.2100 C   0  0  2  0  0  0  0  0  0  0  0  0
   39.2240   27.1260   35.4710 C   0  0  0  0  0  0  0  0  0  0  0  0
   37.7320   27.0520   35.3930 C   0  0  1  0  0  0  0  0  0  0  0  0
   37.9990   23.8930   38.4290 C   0  0  0  0  0  0  0  0  0  0  0  0
   37.7940   24.8630   37.4530 C   0  0  0  0  0  0  0  0  0  0  0  0
   38.5700   24.8010   36.2770 C   0  0  0  0  0  0  0  0  0  0  0  0
   39.4770   23.8020   36.1540 N   0  0  0  0  0  0  0  0  0  0  0  0
   39.6610   22.8750   37.1090 C   0  0  0  0  0  0  0  0  0  0  0  0
   38.9180   22.9210   38.2500 N   0  0  0  0  0  0  0  0  0  0  0  0
   35.8654   29.0347   35.6708 H   0  0  0  0  0  0  0  0  0  0  0  0
   35.3541   29.8507   29.5563 H   0  0  0  0  0  0  0  0  0  0  0  0
   34.8383   30.3375   31.1933 H   0  0  0  0  0  0  0  0  0  0  0  0
   39.9794   27.3961   28.7895 H   0  0  0  0  0  0  0  0  0  0  0  0
   40.8861   25.0015   28.0364 H   0  0  0  0  0  0  0  0  0  0  0  0
   37.9574   24.3859   31.0454 H   0  0  0  0  0  0  0  0  0  0  0  0
   38.3040   25.0292   34.4400 H   0  0  0  0  0  0  0  0  0  0  0  0
   39.7286   27.2942   36.4339 H   0  0  0  0  0  0  0  0  0  0  0  0
   40.0271   27.6871   34.9708 H   0  0  0  0  0  0  0  0  0  0  0  0
   36.8912   27.3047   36.0557 H   0  0  0  0  0  0  0  0  0  0  0  0
   37.4064   23.9185   39.3554 H   0  0  0  0  0  0  0  0  0  0  0  0
   37.0464   25.6573   37.5948 H   0  0  0  0  0  0  0  0  0  0  0  0
   40.4095   22.0811   36.9700 H   0  0  0  0  0  0  0  0  0  0  0  0
  1  2  1  0
  1 18  1  0
  3  2  2  0
  4  9  2  0
  4  3  1  0
  5  4  1  0
  6  7  1  0
  6  5  2  0
  7  8  2  0
  8  9  1  0
  9  1  1  0
 10  5  1  0
 11 15  1  0
 11  7  1  0
 12 11  1  0
 13 12  2  0
 13 14  1  0
 14 15  2  0
 16 18  1  0
 16 17  1  0
 16 21  1  0
 18 17  1  0
 20 19  2  0
 21 20  1  0
 22 21  2  0
 22 23  1  0
 23 24  2  0
 24 19  1  0
  2 25  1  0
 10 26  1  0
 10 27  1  0
 12 28  1  0
 13 29  1  0
 15 30  1  0
 16 31  1  6
 17 32  1  0
 17 33  1  0
 18 34  1  1
 19 35  1  0
 20 36  1  0
 23 37  1  0
M  ISO  8  25  14  28  14  29  14  30  14  31  13  32  13  33  13  34  13
M  ISO  3  35  14  36  14  37  14
M  END
>  <minimizedAffinity>  (1) 
-5.82334137

>  <minimizedRMSD>  (1) 
0.296041965

$$$$
