
     RDKit          3D

 41 44  0  0  0  0  0  0  0  0999 V2000
   43.3520   22.6590   33.8790 C   0  0  0  0  0  0  0  0  0  0  0  0
   43.3070   23.9490   34.4420 C   0  0  0  0  0  0  0  0  0  0  0  0
   44.9840   24.6470   33.9920 S   0  0  0  0  0  0  0  0  0  0  0  0
   45.4270   23.0300   33.1170 C   0  0  0  0  0  0  0  0  0  0  0  0
   44.4910   22.4520   33.2870 N   0  0  0  0  0  0  0  0  0  0  0  0
   46.6680   22.7180   32.4350 N   0  0  0  0  0  0  0  0  0  0  0  0
   47.5570   22.0360   33.1770 C   0  0  0  0  0  0  0  0  0  0  0  0
   48.6720   21.8190   32.3940 C   0  0  0  0  0  0  0  0  0  0  0  0
   48.4040   22.3820   31.2120 N   0  0  0  0  0  0  0  0  0  0  0  0
   47.1780   22.9380   31.2190 C   0  0  0  0  0  0  0  0  0  0  0  0
   46.4010   23.6490   30.2630 N   0  0  0  0  0  0  0  0  0  0  0  0
   46.2120   23.2900   28.8500 C   0  0  0  0  0  0  0  0  0  0  0  0
   45.9590   24.6180   28.1310 C   0  0  0  0  0  0  0  0  0  0  0  0
   44.6760   25.1710   28.5270 N   0  0  0  0  0  0  0  0  0  0  0  0
   44.3650   24.8510   29.9100 C   0  0  0  0  0  0  0  0  0  0  0  0
   45.6950   24.8580   30.6460 C   0  0  0  0  0  0  0  0  0  0  0  0
   41.9170   21.6150   34.0760 S   0  0  0  0  0  0  0  0  0  0  0  0
   40.4600   22.3910   37.7160 C   0  0  0  0  0  0  0  0  0  0  0  0
   39.3070   23.1370   37.4530 C   0  0  0  0  0  0  0  0  0  0  0  0
   39.0110   23.3800   36.1280 C   0  0  0  0  0  0  0  0  0  0  0  0
   39.8200   22.9070   35.1230 N   0  0  0  0  0  0  0  0  0  0  0  0
   40.9350   22.1840   35.4520 C   0  0  0  0  0  0  0  0  0  0  0  0
   41.2430   21.9340   36.7440 N   0  0  0  0  0  0  0  0  0  0  0  0
   38.4090   23.6650   38.5120 C   0  0  0  0  0  0  0  0  0  0  0  0
   39.2010   23.8660   39.6310 F   0  0  0  0  0  0  0  0  0  0  0  0
   37.3890   22.8320   38.8150 F   0  0  0  0  0  0  0  0  0  0  0  0
   37.9700   24.9600   38.1720 F   0  0  0  0  0  0  0  0  0  0  0  0
   42.4912   24.4263   35.0048 H   0  0  0  0  0  0  0  0  0  0  0  0
   47.4205   21.7102   34.2187 H   0  0  0  0  0  0  0  0  0  0  0  0
   49.5926   21.2910   32.6833 H   0  0  0  0  0  0  0  0  0  0  0  0
   47.1134   22.8010   28.4520 H   0  0  0  0  0  0  0  0  0  0  0  0
   45.3813   22.5822   28.7123 H   0  0  0  0  0  0  0  0  0  0  0  0
   45.9606   24.4479   27.0442 H   0  0  0  0  0  0  0  0  0  0  0  0
   46.7534   25.3285   28.4033 H   0  0  0  0  0  0  0  0  0  0  0  0
   44.7044   26.1948   28.4181 H   0  0  0  0  0  0  0  0  0  0  0  0
   43.6880   25.6067   30.3351 H   0  0  0  0  0  0  0  0  0  0  0  0
   43.8596   23.8778   29.9965 H   0  0  0  0  0  0  0  0  0  0  0  0
   45.5248   24.8674   31.7327 H   0  0  0  0  0  0  0  0  0  0  0  0
   46.2810   25.7522   30.3873 H   0  0  0  0  0  0  0  0  0  0  0  0
   40.7277   22.1754   38.7609 H   0  0  0  0  0  0  0  0  0  0  0  0
   38.1132   23.9616   35.8717 H   0  0  0  0  0  0  0  0  0  0  0  0
  1 17  1  0
  1  2  2  0
  3  2  1  0
  4  5  2  0
  4  3  1  0
  5  1  1  0
  6  4  1  0
  6  7  1  0
  8  7  2  0
  9 10  2  0
  9  8  1  0
 10  6  1  0
 11 16  1  0
 11 10  1  0
 12 11  1  0
 13 14  1  0
 13 12  1  0
 14 15  1  0
 15 16  1  0
 17 22  1  0
 19 18  2  0
 19 24  1  0
 20 19  1  0
 21 22  1  0
 21 20  2  0
 22 23  2  0
 23 18  1  0
 24 26  1  0
 24 25  1  0
 27 24  1  0
  2 28  1  0
  7 29  1  0
  8 30  1  0
 12 31  1  0
 12 32  1  0
 13 33  1  0
 13 34  1  0
 14 35  1  0
 15 36  1  0
 15 37  1  0
 16 38  1  0
 16 39  1  0
 18 40  1  0
 20 41  1  0
M  ISO  8  28  14  29  14  30  14  31  13  32  13  33  13  34  13  35   5
M  ISO  6  36  13  37  13  38  13  39  13  40  14  41  14
M  END
>  <minimizedAffinity>  (1) 
-3.82409382

>  <minimizedRMSD>  (1) 
0.046500653

$$$$
