
     RDKit          3D

 43 47  0  0  1  0  0  0  0  0999 V2000
   37.1840   27.6970   34.2510 N   0  0  0  0  0  0  0  0  0  0  0  0
   36.1440   28.5490   34.4800 C   0  0  0  0  0  0  0  0  0  0  0  0
   35.7670   29.0780   33.3160 N   0  0  0  0  0  0  0  0  0  0  0  0
   36.5540   28.5740   32.3490 C   0  0  0  0  0  0  0  0  0  0  0  0
   36.6400   28.7370   30.9980 C   0  0  0  0  0  0  0  0  0  0  0  0
   37.5660   28.0590   30.3330 N   0  0  0  0  0  0  0  0  0  0  0  0
   38.4440   27.2040   30.9120 C   0  0  0  0  0  0  0  0  0  0  0  0
   38.3600   27.0410   32.2480 N   0  0  0  0  0  0  0  0  0  0  0  0
   37.4390   27.7090   32.9550 C   0  0  0  0  0  0  0  0  0  0  0  0
   35.7330   29.6240   30.3780 N   0  0  0  0  0  0  0  0  0  0  0  0
   38.5070   25.7630   35.2080 C   0  0  2  0  0  0  0  0  0  0  0  0
   39.2680   27.1040   35.4980 C   0  0  0  0  0  0  0  0  0  0  0  0
   37.7860   26.9940   35.3340 C   0  0  1  0  0  0  0  0  0  0  0  0
   37.9680   23.8940   38.4370 C   0  0  0  0  0  0  0  0  0  0  0  0
   37.8060   24.8520   37.4390 C   0  0  0  0  0  0  0  0  0  0  0  0
   38.6190   24.7750   36.2940 C   0  0  0  0  0  0  0  0  0  0  0  0
   39.5250   23.7710   36.2120 N   0  0  0  0  0  0  0  0  0  0  0  0
   39.6630   22.8560   37.1920 C   0  0  0  0  0  0  0  0  0  0  0  0
   38.8860   22.9170   38.3020 N   0  0  0  0  0  0  0  0  0  0  0  0
   39.4750   26.4540   30.1420 C   0  0  0  0  0  0  0  0  0  0  0  0
   38.9430   25.0270   30.0130 C   0  0  0  0  0  0  0  0  0  0  0  0
   39.8140   24.4520   28.8910 C   0  0  0  0  0  0  0  0  0  0  0  0
   40.1710   25.6600   28.0390 C   0  0  0  0  0  0  0  0  0  0  0  0
   39.5490   26.8660   28.7110 C   0  0  0  0  0  0  0  0  0  0  0  0
   35.6925   28.7635   35.4599 H   0  0  0  0  0  0  0  0  0  0  0  0
   35.7707   29.7702   29.3591 H   0  0  0  0  0  0  0  0  0  0  0  0
   35.0337   30.1248   30.9446 H   0  0  0  0  0  0  0  0  0  0  0  0
   38.4634   24.9734   34.4433 H   0  0  0  0  0  0  0  0  0  0  0  0
   39.7109   27.2959   36.4864 H   0  0  0  0  0  0  0  0  0  0  0  0
   40.0857   27.6782   35.0379 H   0  0  0  0  0  0  0  0  0  0  0  0
   36.9022   27.2351   35.9428 H   0  0  0  0  0  0  0  0  0  0  0  0
   37.3426   23.9353   39.3410 H   0  0  0  0  0  0  0  0  0  0  0  0
   37.0581   25.6518   37.5441 H   0  0  0  0  0  0  0  0  0  0  0  0
   40.4102   22.0551   37.0910 H   0  0  0  0  0  0  0  0  0  0  0  0
   40.4371   26.6033   30.6540 H   0  0  0  0  0  0  0  0  0  0  0  0
   39.0782   24.4656   30.9493 H   0  0  0  0  0  0  0  0  0  0  0  0
   37.8646   24.9771   29.8020 H   0  0  0  0  0  0  0  0  0  0  0  0
   40.7202   23.9831   29.3021 H   0  0  0  0  0  0  0  0  0  0  0  0
   39.2977   23.6690   28.3162 H   0  0  0  0  0  0  0  0  0  0  0  0
   39.7654   25.5408   27.0235 H   0  0  0  0  0  0  0  0  0  0  0  0
   41.2616   25.7743   27.9521 H   0  0  0  0  0  0  0  0  0  0  0  0
   40.1825   27.7569   28.5887 H   0  0  0  0  0  0  0  0  0  0  0  0
   38.5711   27.1403   28.2886 H   0  0  0  0  0  0  0  0  0  0  0  0
  1  2  1  0
  1 13  1  0
  3  2  2  0
  4  9  2  0
  4  3  1  0
  5  4  1  0
  6  7  1  0
  6  5  2  0
  7  8  2  0
  8  9  1  0
  9  1  1  0
 10  5  1  0
 11 13  1  0
 11 12  1  0
 11 16  1  0
 13 12  1  0
 15 14  2  0
 16 15  1  0
 17 16  2  0
 17 18  1  0
 18 19  2  0
 19 14  1  0
 20  7  1  0
 21 20  1  0
 22 21  1  0
 23 24  1  0
 23 22  1  0
 24 20  1  0
  2 25  1  0
 10 26  1  0
 10 27  1  0
 11 28  1  6
 12 29  1  0
 12 30  1  0
 13 31  1  1
 14 32  1  0
 15 33  1  0
 18 34  1  0
 20 35  1  0
 21 36  1  0
 21 37  1  0
 22 38  1  0
 22 39  1  0
 23 40  1  0
 23 41  1  0
 24 42  1  0
 24 43  1  0
M  ISO  8  25  14  28  13  29  13  30  13  31  13  32  14  33  14  34  14
M  ISO  8  35  13  36  13  37  13  38  13  39  13  40  13  41  13  42  13
M  ISO  1  43  13
M  END
>  <minimizedAffinity>  (1) 
-5.57611656

>  <minimizedRMSD>  (1) 
0.215169892

$$$$
