
     RDKit          3D

 37 41  0  0  1  0  0  0  0  0999 V2000
   37.0780   27.7940   34.3460 N   0  0  0  0  0  0  0  0  0  0  0  0
   36.1560   28.7490   34.6460 C   0  0  0  0  0  0  0  0  0  0  0  0
   35.7060   29.2800   33.5160 N   0  0  0  0  0  0  0  0  0  0  0  0
   36.3330   28.6740   32.4870 C   0  0  0  0  0  0  0  0  0  0  0  0
   36.2890   28.7920   31.1340 C   0  0  0  0  0  0  0  0  0  0  0  0
   37.0690   28.0080   30.3950 N   0  0  0  0  0  0  0  0  0  0  0  0
   37.9070   27.0980   30.9080 C   0  0  0  0  0  0  0  0  0  0  0  0
   37.9620   26.9720   32.2540 N   0  0  0  0  0  0  0  0  0  0  0  0
   37.1880   27.7450   33.0300 C   0  0  0  0  0  0  0  0  0  0  0  0
   35.4080   29.7670   30.5860 N   0  0  0  0  0  0  0  0  0  0  0  0
   38.4080   25.8150   35.1960 C   0  0  2  0  0  0  0  0  0  0  0  0
   39.2240   27.1310   35.4480 C   0  0  0  0  0  0  0  0  0  0  0  0
   37.7320   27.0630   35.3790 C   0  0  1  0  0  0  0  0  0  0  0  0
   38.0140   23.8960   38.4180 C   0  0  0  0  0  0  0  0  0  0  0  0
   37.8000   24.8680   37.4460 C   0  0  0  0  0  0  0  0  0  0  0  0
   38.5750   24.8060   36.2550 C   0  0  0  0  0  0  0  0  0  0  0  0
   39.4850   23.8060   36.1150 N   0  0  0  0  0  0  0  0  0  0  0  0
   39.6570   22.8830   37.0900 C   0  0  0  0  0  0  0  0  0  0  0  0
   38.9350   22.9210   38.2270 N   0  0  0  0  0  0  0  0  0  0  0  0
   38.7690   26.2310   30.1110 C   0  0  0  0  0  0  0  0  0  0  0  0
   38.9930   24.8670   30.1260 C   0  0  0  0  0  0  0  0  0  0  0  0
   39.9190   24.5410   29.1510 C   0  0  0  0  0  0  0  0  0  0  0  0
   40.2320   25.7290   28.5690 N   0  0  0  0  0  0  0  0  0  0  0  0
   39.5580   26.7050   29.1350 N   0  0  0  0  0  0  0  0  0  0  0  0
   35.8361   29.0341   35.6591 H   0  0  0  0  0  0  0  0  0  0  0  0
   35.3449   29.8882   29.5651 H   0  0  0  0  0  0  0  0  0  0  0  0
   34.8338   30.3512   31.2105 H   0  0  0  0  0  0  0  0  0  0  0  0
   38.2855   25.0353   34.4298 H   0  0  0  0  0  0  0  0  0  0  0  0
   39.7348   27.3002   36.4074 H   0  0  0  0  0  0  0  0  0  0  0  0
   40.0264   27.6873   34.9413 H   0  0  0  0  0  0  0  0  0  0  0  0
   36.8964   27.3220   36.0458 H   0  0  0  0  0  0  0  0  0  0  0  0
   37.4302   23.9193   39.3500 H   0  0  0  0  0  0  0  0  0  0  0  0
   37.0529   25.6617   37.5943 H   0  0  0  0  0  0  0  0  0  0  0  0
   40.4016   22.0853   36.9512 H   0  0  0  0  0  0  0  0  0  0  0  0
   38.5098   24.1515   30.8076 H   0  0  0  0  0  0  0  0  0  0  0  0
   40.3133   23.5446   28.9026 H   0  0  0  0  0  0  0  0  0  0  0  0
   40.9015   25.8473   27.7953 H   0  0  0  0  0  0  0  0  0  0  0  0
  1  2  1  0
  1 13  1  0
  3  2  2  0
  4  9  2  0
  4  3  1  0
  5  4  1  0
  6  7  1  0
  6  5  2  0
  7  8  2  0
  8  9  1  0
  9  1  1  0
 10  5  1  0
 11 13  1  0
 11 12  1  0
 11 16  1  0
 13 12  1  0
 15 14  2  0
 16 15  1  0
 17 16  2  0
 17 18  1  0
 18 19  2  0
 19 14  1  0
 20 21  1  0
 20  7  1  0
 22 21  2  0
 23 24  1  0
 23 22  1  0
 24 20  2  0
  2 25  1  0
 10 26  1  0
 10 27  1  0
 11 28  1  6
 12 29  1  0
 12 30  1  0
 13 31  1  1
 14 32  1  0
 15 33  1  0
 18 34  1  0
 21 35  1  0
 22 36  1  0
 23 37  1  0
M  ISO  8  25  14  28  13  29  13  30  13  31  13  32  14  33  14  34  14
M  ISO  3  35  14  36  14  37   9
M  END
>  <minimizedAffinity>  (1) 
-5.51066113

>  <minimizedRMSD>  (1) 
0.476544797

$$$$
