
     RDKit          3D

 33 36  0  0  1  0  0  0  0  0999 V2000
   37.1670   27.7150   34.2870 N   0  0  0  0  0  0  0  0  0  0  0  0
   36.2160   28.6600   34.5190 C   0  0  0  0  0  0  0  0  0  0  0  0
   35.8200   29.1660   33.3500 N   0  0  0  0  0  0  0  0  0  0  0  0
   36.5140   28.5480   32.3710 C   0  0  0  0  0  0  0  0  0  0  0  0
   36.5350   28.6470   31.0180 C   0  0  0  0  0  0  0  0  0  0  0  0
   37.3690   27.8590   30.3370 N   0  0  0  0  0  0  0  0  0  0  0  0
   38.1880   26.9740   30.9100 C   0  0  0  0  0  0  0  0  0  0  0  0
   38.1710   26.8730   32.2590 N   0  0  0  0  0  0  0  0  0  0  0  0
   37.3470   27.6480   32.9780 C   0  0  0  0  0  0  0  0  0  0  0  0
   35.6680   29.5980   30.4080 N   0  0  0  0  0  0  0  0  0  0  0  0
   38.4820   25.7700   35.2310 C   0  0  2  0  0  0  0  0  0  0  0  0
   39.2540   27.1050   35.5240 C   0  0  0  0  0  0  0  0  0  0  0  0
   37.7740   27.0080   35.3670 C   0  0  1  0  0  0  0  0  0  0  0  0
   37.9680   23.8720   38.4410 C   0  0  0  0  0  0  0  0  0  0  0  0
   37.7860   24.8450   37.4600 C   0  0  0  0  0  0  0  0  0  0  0  0
   38.6030   24.7720   36.3090 C   0  0  0  0  0  0  0  0  0  0  0  0
   39.5130   23.7700   36.2180 N   0  0  0  0  0  0  0  0  0  0  0  0
   39.6610   22.8480   37.1850 C   0  0  0  0  0  0  0  0  0  0  0  0
   38.8820   22.9000   38.3050 N   0  0  0  0  0  0  0  0  0  0  0  0
   39.0830   26.1380   30.0670 C   0  0  0  0  0  0  0  0  0  0  0  0
   39.3100   26.6490   28.8200 F   0  0  0  0  0  0  0  0  0  0  0  0
   38.4590   24.9000   29.9170 F   0  0  0  0  0  0  0  0  0  0  0  0
   40.2400   25.8830   30.7770 F   0  0  0  0  0  0  0  0  0  0  0  0
   35.8363   28.9577   35.5076 H   0  0  0  0  0  0  0  0  0  0  0  0
   35.6564   29.7014   29.3833 H   0  0  0  0  0  0  0  0  0  0  0  0
   35.0525   30.1824   30.9916 H   0  0  0  0  0  0  0  0  0  0  0  0
   38.4216   24.9841   34.4637 H   0  0  0  0  0  0  0  0  0  0  0  0
   39.7030   27.2888   36.5112 H   0  0  0  0  0  0  0  0  0  0  0  0
   40.0738   27.6752   35.0626 H   0  0  0  0  0  0  0  0  0  0  0  0
   36.8981   27.2585   35.9835 H   0  0  0  0  0  0  0  0  0  0  0  0
   37.3472   23.9020   39.3486 H   0  0  0  0  0  0  0  0  0  0  0  0
   37.0347   25.6399   37.5771 H   0  0  0  0  0  0  0  0  0  0  0  0
   40.4106   22.0507   37.0738 H   0  0  0  0  0  0  0  0  0  0  0  0
  1  2  1  0
  1 13  1  0
  3  2  2  0
  4  9  2  0
  4  3  1  0
  5  4  1  0
  6  7  1  0
  6  5  2  0
  7  8  2  0
  8  9  1  0
  9  1  1  0
 10  5  1  0
 11 13  1  0
 11 12  1  0
 11 16  1  0
 13 12  1  0
 15 14  2  0
 16 15  1  0
 17 16  2  0
 17 18  1  0
 18 19  2  0
 19 14  1  0
 20 23  1  0
 20  7  1  0
 21 20  1  0
 22 20  1  0
  2 24  1  0
 10 25  1  0
 10 26  1  0
 11 27  1  6
 12 28  1  0
 12 29  1  0
 13 30  1  1
 14 31  1  0
 15 32  1  0
 18 33  1  0
M  ISO  8  24  14  27  13  28  13  29  13  30  13  31  14  32  14  33  14
M  END
>  <minimizedAffinity>  (1) 
-5.43231201

>  <minimizedRMSD>  (1) 
0.34602204

$$$$
