
     RDKit          3D

 33 36  0  0  1  0  0  0  0  0999 V2000
   38.4690   25.7450   35.1780 C   0  0  2  0  0  0  0  0  0  0  0  0
   39.3200   27.0460   35.3970 C   0  0  0  0  0  0  0  0  0  0  0  0
   37.8360   27.0210   35.3300 C   0  0  1  0  0  0  0  0  0  0  0  0
   37.2000   27.7280   34.2690 N   0  0  0  0  0  0  0  0  0  0  0  0
   36.1970   28.6230   34.5290 C   0  0  0  0  0  0  0  0  0  0  0  0
   35.7840   29.1420   33.3780 N   0  0  0  0  0  0  0  0  0  0  0  0
   36.5000   28.5970   32.3820 C   0  0  0  0  0  0  0  0  0  0  0  0
   36.5250   28.7330   31.0330 C   0  0  0  0  0  0  0  0  0  0  0  0
   37.3970   28.0080   30.3280 N   0  0  0  0  0  0  0  0  0  0  0  0
   38.2580   27.1470   30.8750 C   0  0  0  0  0  0  0  0  0  0  0  0
   38.2460   27.0010   32.2220 N   0  0  0  0  0  0  0  0  0  0  0  0
   37.3820   27.7140   32.9610 C   0  0  0  0  0  0  0  0  0  0  0  0
   35.6140   29.6590   30.4430 N   0  0  0  0  0  0  0  0  0  0  0  0
   39.1940   26.3830   30.0060 C   0  0  0  0  0  0  0  0  0  0  0  0
   37.9950   23.9020   38.4400 C   0  0  0  0  0  0  0  0  0  0  0  0
   37.8040   24.8570   37.4380 C   0  0  0  0  0  0  0  0  0  0  0  0
   38.6090   24.7660   36.2700 C   0  0  0  0  0  0  0  0  0  0  0  0
   39.5190   23.7620   36.1820 N   0  0  0  0  0  0  0  0  0  0  0  0
   39.6750   22.8570   37.1710 C   0  0  0  0  0  0  0  0  0  0  0  0
   38.9220   22.9270   38.2860 N   0  0  0  0  0  0  0  0  0  0  0  0
   38.3217   24.9489   34.4333 H   0  0  0  0  0  0  0  0  0  0  0  0
   39.8357   27.2251   36.3520 H   0  0  0  0  0  0  0  0  0  0  0  0
   40.1372   27.5664   34.8760 H   0  0  0  0  0  0  0  0  0  0  0  0
   37.0163   27.3324   35.9942 H   0  0  0  0  0  0  0  0  0  0  0  0
   35.7997   28.8708   35.5244 H   0  0  0  0  0  0  0  0  0  0  0  0
   35.6026   29.7904   29.4215 H   0  0  0  0  0  0  0  0  0  0  0  0
   34.9677   30.1961   31.0386 H   0  0  0  0  0  0  0  0  0  0  0  0
   39.8937   25.8119   30.6338 H   0  0  0  0  0  0  0  0  0  0  0  0
   38.6221   25.6904   29.3709 H   0  0  0  0  0  0  0  0  0  0  0  0
   39.7580   27.0820   29.3709 H   0  0  0  0  0  0  0  0  0  0  0  0
   37.3898   23.9424   39.3577 H   0  0  0  0  0  0  0  0  0  0  0  0
   37.0543   25.6541   37.5496 H   0  0  0  0  0  0  0  0  0  0  0  0
   40.4222   22.0566   37.0660 H   0  0  0  0  0  0  0  0  0  0  0  0
  1  3  1  0
  1  2  1  0
  1 17  1  0
  3  2  1  0
  4  5  1  0
  4  3  1  0
  6  5  2  0
  7 12  2  0
  7  6  1  0
  8  7  1  0
  9 10  1  0
  9  8  2  0
 10 11  2  0
 11 12  1  0
 12  4  1  0
 13  8  1  0
 14 10  1  0
 16 15  2  0
 17 16  1  0
 18 17  2  0
 18 19  1  0
 19 20  2  0
 20 15  1  0
  1 21  1  6
  2 22  1  0
  2 23  1  0
  3 24  1  1
  5 25  1  0
 13 26  1  0
 13 27  1  0
 14 28  1  0
 14 29  1  0
 14 30  1  0
 15 31  1  0
 16 32  1  0
 19 33  1  0
M  ISO  8  21  13  22  13  23  13  24  13  25  14  28   8  29   8  30   8
M  ISO  3  31  14  32  14  33  14
M  END
>  <minimizedAffinity>  (1) 
-5.30958319

>  <minimizedRMSD>  (1) 
0.02020666

$$$$
