
     RDKit          3D

 53 58  0  0  1  0  0  0  0  0999 V2000
   37.0560   27.8140   34.3890 N   0  0  0  0  0  0  0  0  0  0  0  0
   36.1550   28.7740   34.6940 C   0  0  0  0  0  0  0  0  0  0  0  0
   35.6920   29.3130   33.5810 N   0  0  0  0  0  0  0  0  0  0  0  0
   36.3060   28.6910   32.5340 C   0  0  0  0  0  0  0  0  0  0  0  0
   36.2330   28.8180   31.1930 C   0  0  0  0  0  0  0  0  0  0  0  0
   36.9990   28.0200   30.4410 N   0  0  0  0  0  0  0  0  0  0  0  0
   37.8320   27.1030   30.9480 C   0  0  0  0  0  0  0  0  0  0  0  0
   37.8980   26.9840   32.2880 N   0  0  0  0  0  0  0  0  0  0  0  0
   37.1460   27.7650   33.0800 C   0  0  0  0  0  0  0  0  0  0  0  0
   35.3400   29.8000   30.6560 N   0  0  0  0  0  0  0  0  0  0  0  0
   38.6570   26.2470   30.0840 C   0  0  0  0  0  0  0  0  0  0  0  0
   38.6180   24.8850   30.2760 C   0  0  0  0  0  0  0  0  0  0  0  0
   39.3900   24.0490   29.4710 C   0  0  0  0  0  0  0  0  0  0  0  0
   40.1610   24.6640   28.5100 C   0  0  0  0  0  0  0  0  0  0  0  0
   40.1780   26.0220   28.3460 C   0  0  0  0  0  0  0  0  0  0  0  0
   39.4200   26.7850   29.1420 N   0  0  0  0  0  0  0  0  0  0  0  0
   40.9400   26.7430   27.3840 N   0  0  0  0  0  0  0  0  0  0  0  0
   41.4460   28.1000   27.5680 C   0  0  0  0  0  0  0  0  0  0  0  0
   40.9490   28.9680   26.4360 C   0  0  0  0  0  0  0  0  0  0  0  0
   40.0920   28.2580   25.5200 N   0  0  0  0  0  0  0  0  0  0  0  0
   40.7360   27.0970   24.9520 C   0  0  0  0  0  0  0  0  0  0  0  0
   41.3540   26.2870   26.0740 C   0  0  0  0  0  0  0  0  0  0  0  0
   38.3690   25.8210   35.2180 C   0  0  2  0  0  0  0  0  0  0  0  0
   39.2110   27.1380   35.4650 C   0  0  0  0  0  0  0  0  0  0  0  0
   37.7120   27.0690   35.4150 C   0  0  1  0  0  0  0  0  0  0  0  0
   38.0210   23.8970   38.4350 C   0  0  0  0  0  0  0  0  0  0  0  0
   37.8180   24.8560   37.4480 C   0  0  0  0  0  0  0  0  0  0  0  0
   38.5690   24.8050   36.2660 C   0  0  0  0  0  0  0  0  0  0  0  0
   39.4680   23.8140   36.1350 N   0  0  0  0  0  0  0  0  0  0  0  0
   39.6470   22.8950   37.1070 C   0  0  0  0  0  0  0  0  0  0  0  0
   38.9340   22.9310   38.2480 N   0  0  0  0  0  0  0  0  0  0  0  0
   35.8539   29.0619   35.7121 H   0  0  0  0  0  0  0  0  0  0  0  0
   35.2612   29.9216   29.6362 H   0  0  0  0  0  0  0  0  0  0  0  0
   34.7764   30.3848   31.2895 H   0  0  0  0  0  0  0  0  0  0  0  0
   37.9793   24.4571   31.0627 H   0  0  0  0  0  0  0  0  0  0  0  0
   39.3837   22.9562   29.5967 H   0  0  0  0  0  0  0  0  0  0  0  0
   40.7848   24.0418   27.8514 H   0  0  0  0  0  0  0  0  0  0  0  0
   41.0850   28.5014   28.5264 H   0  0  0  0  0  0  0  0  0  0  0  0
   42.5459   28.0890   27.5725 H   0  0  0  0  0  0  0  0  0  0  0  0
   40.3857   29.8115   26.8616 H   0  0  0  0  0  0  0  0  0  0  0  0
   41.8286   29.3077   25.8695 H   0  0  0  0  0  0  0  0  0  0  0  0
   39.2475   27.9539   26.0252 H   0  0  0  0  0  0  0  0  0  0  0  0
   39.9932   26.4851   24.4193 H   0  0  0  0  0  0  0  0  0  0  0  0
   41.5158   27.4104   24.2423 H   0  0  0  0  0  0  0  0  0  0  0  0
   41.0536   25.2354   25.9560 H   0  0  0  0  0  0  0  0  0  0  0  0
   42.4455   26.4073   26.0093 H   0  0  0  0  0  0  0  0  0  0  0  0
   38.2120   25.0461   34.4532 H   0  0  0  0  0  0  0  0  0  0  0  0
   39.7362   27.3007   36.4178 H   0  0  0  0  0  0  0  0  0  0  0  0
   40.0103   27.6923   34.9513 H   0  0  0  0  0  0  0  0  0  0  0  0
   36.8860   27.3238   36.0953 H   0  0  0  0  0  0  0  0  0  0  0  0
   37.4353   23.9302   39.3655 H   0  0  0  0  0  0  0  0  0  0  0  0
   37.0716   25.6506   37.5946 H   0  0  0  0  0  0  0  0  0  0  0  0
   40.3923   22.0988   36.9635 H   0  0  0  0  0  0  0  0  0  0  0  0
  1  2  1  0
  1 25  1  0
  3  2  2  0
  4  9  2  0
  4  3  1  0
  5  4  1  0
  6  7  1  0
  6  5  2  0
  7  8  2  0
  8  9  1  0
  9  1  1  0
 10  5  1  0
 11 12  2  0
 11  7  1  0
 13 12  1  0
 14 13  2  0
 15 14  1  0
 15 16  2  0
 16 11  1  0
 17 18  1  0
 17 15  1  0
 19 18  1  0
 20 19  1  0
 21 20  1  0
 21 22  1  0
 22 17  1  0
 23 25  1  0
 23 24  1  0
 23 28  1  0
 25 24  1  0
 27 26  2  0
 28 27  1  0
 29 28  2  0
 29 30  1  0
 30 31  2  0
 31 26  1  0
  2 32  1  0
 10 33  1  0
 10 34  1  0
 12 35  1  0
 13 36  1  0
 14 37  1  0
 18 38  1  0
 18 39  1  0
 19 40  1  0
 19 41  1  0
 20 42  1  0
 21 43  1  0
 21 44  1  0
 22 45  1  0
 22 46  1  0
 23 47  1  6
 24 48  1  0
 24 49  1  0
 25 50  1  1
 26 51  1  0
 27 52  1  0
 30 53  1  0
M  ISO  8  32  14  35  14  36  14  37  14  38  13  39  13  40  13  41  13
M  ISO  8  42   5  43  13  44  13  45  13  46  13  47  13  48  13  49  13
M  ISO  4  50  13  51  14  52  14  53  14
M  END
>  <minimizedAffinity>  (1) 
-6.42294741

>  <minimizedRMSD>  (1) 
0.420086175

$$$$
