
     RDKit          3D

 50 56  0  0  1  0  0  0  0  0999 V2000
   37.0970   27.7390   34.3800 N   0  0  0  0  0  0  0  0  0  0  0  0
   36.2470   28.7600   34.6490 C   0  0  0  0  0  0  0  0  0  0  0  0
   35.8040   29.2730   33.5150 N   0  0  0  0  0  0  0  0  0  0  0  0
   36.3730   28.5750   32.4940 C   0  0  0  0  0  0  0  0  0  0  0  0
   36.2970   28.6460   31.1470 C   0  0  0  0  0  0  0  0  0  0  0  0
   37.0180   27.7720   30.4280 N   0  0  0  0  0  0  0  0  0  0  0  0
   37.8060   26.8400   30.9710 C   0  0  0  0  0  0  0  0  0  0  0  0
   37.8760   26.7740   32.3170 N   0  0  0  0  0  0  0  0  0  0  0  0
   37.1660   27.6340   33.0720 C   0  0  0  0  0  0  0  0  0  0  0  0
   35.4510   29.6490   30.5750 N   0  0  0  0  0  0  0  0  0  0  0  0
   38.5780   25.9060   30.1490 C   0  0  0  0  0  0  0  0  0  0  0  0
   38.4180   24.5580   30.3300 C   0  0  0  0  0  0  0  0  0  0  0  0
   39.1370   23.6410   29.5680 C   0  0  0  0  0  0  0  0  0  0  0  0
   39.9980   24.1830   28.6440 C   0  0  0  0  0  0  0  0  0  0  0  0
   40.1590   25.5490   28.4610 C   0  0  0  0  0  0  0  0  0  0  0  0
   39.4280   26.3720   29.2370 N   0  0  0  0  0  0  0  0  0  0  0  0
   41.0760   26.0170   27.4770 N   0  0  0  0  0  0  0  0  0  0  0  0
   42.1750   25.4830   26.8790 C   0  0  0  0  0  0  0  0  0  0  0  0
   42.6830   26.3670   26.0030 N   0  0  0  0  0  0  0  0  0  0  0  0
   41.9360   27.4790   26.0120 C   0  0  0  0  0  0  0  0  0  0  0  0
   42.0700   28.6310   25.2920 C   0  0  0  0  0  0  0  0  0  0  0  0
   41.1510   29.6120   25.5100 N   0  0  0  0  0  0  0  0  0  0  0  0
   40.1600   29.4150   26.4090 C   0  0  0  0  0  0  0  0  0  0  0  0
   40.0500   28.2570   27.1130 N   0  0  0  0  0  0  0  0  0  0  0  0
   40.9440   27.2410   26.9350 C   0  0  0  0  0  0  0  0  0  0  0  0
   38.4170   25.7820   35.2730 C   0  0  2  0  0  0  0  0  0  0  0  0
   39.1990   27.1260   35.5720 C   0  0  0  0  0  0  0  0  0  0  0  0
   37.7160   27.0090   35.4360 C   0  0  1  0  0  0  0  0  0  0  0  0
   37.9800   23.8590   38.4740 C   0  0  0  0  0  0  0  0  0  0  0  0
   37.8020   24.8120   37.4880 C   0  0  0  0  0  0  0  0  0  0  0  0
   38.5860   24.7670   36.3270 C   0  0  0  0  0  0  0  0  0  0  0  0
   39.4950   23.7840   36.2130 N   0  0  0  0  0  0  0  0  0  0  0  0
   39.6500   22.8640   37.1920 C   0  0  0  0  0  0  0  0  0  0  0  0
   38.9100   22.8900   38.3110 N   0  0  0  0  0  0  0  0  0  0  0  0
   35.9692   29.1074   35.6551 H   0  0  0  0  0  0  0  0  0  0  0  0
   35.3694   29.7315   29.5516 H   0  0  0  0  0  0  0  0  0  0  0  0
   34.9238   30.2883   31.1868 H   0  0  0  0  0  0  0  0  0  0  0  0
   37.7103   24.1940   31.0894 H   0  0  0  0  0  0  0  0  0  0  0  0
   39.0234   22.5545   29.6970 H   0  0  0  0  0  0  0  0  0  0  0  0
   40.5896   23.4991   28.0177 H   0  0  0  0  0  0  0  0  0  0  0  0
   42.5847   24.4823   27.0811 H   0  0  0  0  0  0  0  0  0  0  0  0
   42.8861   28.7614   24.5661 H   0  0  0  0  0  0  0  0  0  0  0  0
   39.4224   30.2139   26.5753 H   0  0  0  0  0  0  0  0  0  0  0  0
   38.3290   25.0054   34.4989 H   0  0  0  0  0  0  0  0  0  0  0  0
   39.6626   27.3016   36.5540 H   0  0  0  0  0  0  0  0  0  0  0  0
   40.0077   27.7087   35.1067 H   0  0  0  0  0  0  0  0  0  0  0  0
   36.8452   27.2343   36.0692 H   0  0  0  0  0  0  0  0  0  0  0  0
   37.3678   23.8886   39.3874 H   0  0  0  0  0  0  0  0  0  0  0  0
   37.0478   25.6027   37.6143 H   0  0  0  0  0  0  0  0  0  0  0  0
   40.4036   22.0724   37.0675 H   0  0  0  0  0  0  0  0  0  0  0  0
  1  2  1  0
  1 28  1  0
  3  2  2  0
  4  9  2  0
  4  3  1  0
  5  4  1  0
  6  7  1  0
  6  5  2  0
  7  8  2  0
  8  9  1  0
  9  1  1  0
 10  5  1  0
 11 12  2  0
 11  7  1  0
 13 12  1  0
 14 13  2  0
 15 14  1  0
 15 16  2  0
 16 11  1  0
 17 15  1  0
 18 17  1  0
 19 20  1  0
 19 18  2  0
 20 25  2  0
 21 22  2  0
 21 20  1  0
 22 23  1  0
 23 24  2  0
 25 24  1  0
 25 17  1  0
 26 28  1  0
 26 27  1  0
 26 31  1  0
 28 27  1  0
 30 29  2  0
 31 30  1  0
 32 31  2  0
 32 33  1  0
 33 34  2  0
 34 29  1  0
  2 35  1  0
 10 36  1  0
 10 37  1  0
 12 38  1  0
 13 39  1  0
 14 40  1  0
 18 41  1  0
 21 42  1  0
 23 43  1  0
 26 44  1  6
 27 45  1  0
 27 46  1  0
 28 47  1  1
 29 48  1  0
 30 49  1  0
 33 50  1  0
M  ISO  8  35  14  38  14  39  14  40  14  41  14  42  14  43  14  44  13
M  ISO  6  45  13  46  13  47  13  48  14  49  14  50  14
M  END
>  <minimizedAffinity>  (1) 
-6.34971189

>  <minimizedRMSD>  (1) 
0.141335934

$$$$
