
     RDKit          3D

 34 37  0  0  0  0  0  0  0  0999 V2000
   43.3690   22.6510   33.8860 C   0  0  0  0  0  0  0  0  0  0  0  0
   43.3010   23.9480   34.4130 C   0  0  0  0  0  0  0  0  0  0  0  0
   44.9760   24.6500   33.9680 S   0  0  0  0  0  0  0  0  0  0  0  0
   45.4450   23.0130   33.1390 C   0  0  0  0  0  0  0  0  0  0  0  0
   44.5140   22.4320   33.3120 N   0  0  0  0  0  0  0  0  0  0  0  0
   46.6950   22.6850   32.4780 N   0  0  0  0  0  0  0  0  0  0  0  0
   47.5930   22.0650   33.2590 C   0  0  0  0  0  0  0  0  0  0  0  0
   48.7130   21.8240   32.4950 C   0  0  0  0  0  0  0  0  0  0  0  0
   48.4350   22.3190   31.2670 N   0  0  0  0  0  0  0  0  0  0  0  0
   47.2010   22.8480   31.2520 C   0  0  0  0  0  0  0  0  0  0  0  0
   46.4070   23.4880   30.2630 N   0  0  0  0  0  0  0  0  0  0  0  0
   45.5510   23.0620   29.3220 N   0  0  0  0  0  0  0  0  0  0  0  0
   45.0650   24.1070   28.6440 C   0  0  0  0  0  0  0  0  0  0  0  0
   45.6150   25.2670   29.1510 C   0  0  0  0  0  0  0  0  0  0  0  0
   46.4590   24.8340   30.1750 C   0  0  0  0  0  0  0  0  0  0  0  0
   41.9360   21.5860   34.0880 S   0  0  0  0  0  0  0  0  0  0  0  0
   40.4750   22.3780   37.7070 C   0  0  0  0  0  0  0  0  0  0  0  0
   39.3160   23.1270   37.4480 C   0  0  0  0  0  0  0  0  0  0  0  0
   39.0060   23.3760   36.1120 C   0  0  0  0  0  0  0  0  0  0  0  0
   39.8110   22.9010   35.1100 N   0  0  0  0  0  0  0  0  0  0  0  0
   40.9340   22.1730   35.4300 C   0  0  0  0  0  0  0  0  0  0  0  0
   41.2360   21.9320   36.7180 N   0  0  0  0  0  0  0  0  0  0  0  0
   38.4220   23.6570   38.5060 C   0  0  0  0  0  0  0  0  0  0  0  0
   39.2100   23.8610   39.6270 F   0  0  0  0  0  0  0  0  0  0  0  0
   37.4000   22.8330   38.8150 F   0  0  0  0  0  0  0  0  0  0  0  0
   37.9900   24.9680   38.1770 F   0  0  0  0  0  0  0  0  0  0  0  0
   42.4723   24.4306   34.9518 H   0  0  0  0  0  0  0  0  0  0  0  0
   47.4588   21.7978   34.3176 H   0  0  0  0  0  0  0  0  0  0  0  0
   49.6421   21.3308   32.8168 H   0  0  0  0  0  0  0  0  0  0  0  0
   44.3433   24.0512   27.8158 H   0  0  0  0  0  0  0  0  0  0  0  0
   45.4299   26.3002   28.8221 H   0  0  0  0  0  0  0  0  0  0  0  0
   47.0719   25.4886   30.8120 H   0  0  0  0  0  0  0  0  0  0  0  0
   40.7558   22.1579   38.7475 H   0  0  0  0  0  0  0  0  0  0  0  0
   38.1077   23.9587   35.8600 H   0  0  0  0  0  0  0  0  0  0  0  0
  1 16  1  0
  1  2  2  0
  3  2  1  0
  4  5  2  0
  4  3  1  0
  5  1  1  0
  6  4  1  0
  6  7  1  0
  8  7  2  0
  9  8  1  0
 10  9  2  0
 10  6  1  0
 11 10  1  0
 12 11  1  0
 13 14  1  0
 13 12  2  0
 14 15  2  0
 15 11  1  0
 16 21  1  0
 18 17  2  0
 18 23  1  0
 19 18  1  0
 20 21  1  0
 20 19  2  0
 21 22  2  0
 22 17  1  0
 23 25  1  0
 23 24  1  0
 26 23  1  0
  2 27  1  0
  7 28  1  0
  8 29  1  0
 13 30  1  0
 14 31  1  0
 15 32  1  0
 17 33  1  0
 19 34  1  0
M  ISO  8  27  14  28  14  29  14  30  14  31  14  32  14  33  14  34  14
M  END
>  <minimizedAffinity>  (1) 
-3.81458688

>  <minimizedRMSD>  (1) 
0.0217621401

$$$$
