
     RDKit          3D

 55 60  0  0  1  0  0  0  0  0999 V2000
   37.0580   27.8020   34.3500 N   0  0  0  0  0  0  0  0  0  0  0  0
   36.1370   28.7470   34.6600 C   0  0  0  0  0  0  0  0  0  0  0  0
   35.6770   29.2950   33.5490 N   0  0  0  0  0  0  0  0  0  0  0  0
   36.3150   28.6900   32.5030 C   0  0  0  0  0  0  0  0  0  0  0  0
   36.2610   28.8280   31.1610 C   0  0  0  0  0  0  0  0  0  0  0  0
   37.0500   28.0470   30.4120 N   0  0  0  0  0  0  0  0  0  0  0  0
   37.8920   27.1360   30.9140 C   0  0  0  0  0  0  0  0  0  0  0  0
   37.9350   27.0090   32.2600 N   0  0  0  0  0  0  0  0  0  0  0  0
   37.1640   27.7700   33.0470 C   0  0  0  0  0  0  0  0  0  0  0  0
   35.3600   29.8040   30.6220 N   0  0  0  0  0  0  0  0  0  0  0  0
   38.7350   26.3040   30.0660 C   0  0  0  0  0  0  0  0  0  0  0  0
   38.7350   24.9470   30.2380 C   0  0  0  0  0  0  0  0  0  0  0  0
   39.5360   24.1140   29.4440 C   0  0  0  0  0  0  0  0  0  0  0  0
   40.2930   24.7680   28.5090 C   0  0  0  0  0  0  0  0  0  0  0  0
   40.2960   26.1450   28.3300 C   0  0  0  0  0  0  0  0  0  0  0  0
   39.4990   26.8640   29.1360 N   0  0  0  0  0  0  0  0  0  0  0  0
   41.1700   26.7370   27.2720 C   0  0  0  0  0  0  0  0  0  0  0  0
   42.0800   25.7420   26.6530 C   0  0  0  0  0  0  0  0  0  0  0  0
   41.6520   25.0990   25.3830 C   0  0  0  0  0  0  0  0  0  0  0  0
   40.6450   25.8080   24.5600 C   0  0  0  0  0  0  0  0  0  0  0  0
   40.5460   27.2670   24.8750 C   0  0  0  0  0  0  0  0  0  0  0  0
   40.3690   27.5640   26.3310 C   0  0  0  0  0  0  0  0  0  0  0  0
   38.3760   25.8190   35.1870 C   0  0  2  0  0  0  0  0  0  0  0  0
   39.2140   27.1380   35.4400 C   0  0  0  0  0  0  0  0  0  0  0  0
   37.7080   27.0610   35.3850 C   0  0  1  0  0  0  0  0  0  0  0  0
   38.0250   23.9060   38.4080 C   0  0  0  0  0  0  0  0  0  0  0  0
   37.8260   24.8540   37.4230 C   0  0  0  0  0  0  0  0  0  0  0  0
   38.5690   24.8080   36.2380 C   0  0  0  0  0  0  0  0  0  0  0  0
   39.4650   23.8150   36.1080 N   0  0  0  0  0  0  0  0  0  0  0  0
   39.6470   22.8960   37.0810 C   0  0  0  0  0  0  0  0  0  0  0  0
   38.9380   22.9370   38.2170 N   0  0  0  0  0  0  0  0  0  0  0  0
   35.8213   29.0161   35.6788 H   0  0  0  0  0  0  0  0  0  0  0  0
   35.2932   29.9358   29.6027 H   0  0  0  0  0  0  0  0  0  0  0  0
   34.7794   30.3735   31.2541 H   0  0  0  0  0  0  0  0  0  0  0  0
   38.0948   24.5011   31.0135 H   0  0  0  0  0  0  0  0  0  0  0  0
   39.5548   23.0206   29.5629 H   0  0  0  0  0  0  0  0  0  0  0  0
   40.9408   24.1633   27.8574 H   0  0  0  0  0  0  0  0  0  0  0  0
   41.8725   27.4401   27.7432 H   0  0  0  0  0  0  0  0  0  0  0  0
   43.0353   26.2506   26.4562 H   0  0  0  0  0  0  0  0  0  0  0  0
   42.1187   24.9165   27.3790 H   0  0  0  0  0  0  0  0  0  0  0  0
   42.5503   24.9669   24.7621 H   0  0  0  0  0  0  0  0  0  0  0  0
   41.1530   24.1697   25.6951 H   0  0  0  0  0  0  0  0  0  0  0  0
   39.6625   25.3454   24.7349 H   0  0  0  0  0  0  0  0  0  0  0  0
   40.9622   25.7216   23.5103 H   0  0  0  0  0  0  0  0  0  0  0  0
   41.4680   27.7586   24.5312 H   0  0  0  0  0  0  0  0  0  0  0  0
   39.6489   27.6436   24.3617 H   0  0  0  0  0  0  0  0  0  0  0  0
   40.6416   28.6171   26.4942 H   0  0  0  0  0  0  0  0  0  0  0  0
   39.3179   27.3285   26.5537 H   0  0  0  0  0  0  0  0  0  0  0  0
   38.2306   25.0462   34.4178 H   0  0  0  0  0  0  0  0  0  0  0  0
   39.7358   27.3001   36.3947 H   0  0  0  0  0  0  0  0  0  0  0  0
   40.0128   27.6970   34.9305 H   0  0  0  0  0  0  0  0  0  0  0  0
   36.8780   27.3092   36.0629 H   0  0  0  0  0  0  0  0  0  0  0  0
   37.4420   23.9433   39.3401 H   0  0  0  0  0  0  0  0  0  0  0  0
   37.0800   25.6487   37.5709 H   0  0  0  0  0  0  0  0  0  0  0  0
   40.3914   22.0989   36.9380 H   0  0  0  0  0  0  0  0  0  0  0  0
  1  2  1  0
  1 25  1  0
  3  2  2  0
  4  9  2  0
  4  3  1  0
  5  4  1  0
  6  7  1  0
  6  5  2  0
  7  8  2  0
  8  9  1  0
  9  1  1  0
 10  5  1  0
 11 12  2  0
 11  7  1  0
 13 12  1  0
 14 13  2  0
 15 14  1  0
 15 16  2  0
 16 11  1  0
 17 15  1  0
 18 17  1  0
 19 18  1  0
 20 21  1  0
 20 19  1  0
 21 22  1  0
 22 17  1  0
 23 25  1  0
 23 24  1  0
 23 28  1  0
 25 24  1  0
 27 26  2  0
 28 27  1  0
 29 28  2  0
 29 30  1  0
 30 31  2  0
 31 26  1  0
  2 32  1  0
 10 33  1  0
 10 34  1  0
 12 35  1  0
 13 36  1  0
 14 37  1  0
 17 38  1  0
 18 39  1  0
 18 40  1  0
 19 41  1  0
 19 42  1  0
 20 43  1  0
 20 44  1  0
 21 45  1  0
 21 46  1  0
 22 47  1  0
 22 48  1  0
 23 49  1  6
 24 50  1  0
 24 51  1  0
 25 52  1  1
 26 53  1  0
 27 54  1  0
 30 55  1  0
M  ISO  8  32  14  35  14  36  14  37  14  38  13  39  13  40  13  41  13
M  ISO  8  42  13  43  13  44  13  45  13  46  13  47  13  48  13  49  13
M  ISO  6  50  13  51  13  52  13  53  14  54  14  55  14
M  END
>  <minimizedAffinity>  (1) 
-6.08989429

>  <minimizedRMSD>  (1) 
0.409889311

$$$$
