
     RDKit          3D

 45 50  0  0  1  0  0  0  0  0999 V2000
   37.0330   27.8280   34.3780 N   0  0  0  0  0  0  0  0  0  0  0  0
   36.1040   28.7550   34.7070 C   0  0  0  0  0  0  0  0  0  0  0  0
   35.6310   29.3130   33.6020 N   0  0  0  0  0  0  0  0  0  0  0  0
   36.2660   28.7320   32.5460 C   0  0  0  0  0  0  0  0  0  0  0  0
   36.1980   28.8890   31.2060 C   0  0  0  0  0  0  0  0  0  0  0  0
   36.9920   28.1280   30.4360 N   0  0  0  0  0  0  0  0  0  0  0  0
   37.8490   27.2200   30.9210 C   0  0  0  0  0  0  0  0  0  0  0  0
   37.9140   27.0660   32.2640 N   0  0  0  0  0  0  0  0  0  0  0  0
   37.1300   27.8150   33.0690 C   0  0  0  0  0  0  0  0  0  0  0  0
   35.2850   29.8600   30.6880 N   0  0  0  0  0  0  0  0  0  0  0  0
   38.6900   26.4150   30.0520 C   0  0  0  0  0  0  0  0  0  0  0  0
   38.8120   25.0600   30.2980 C   0  0  0  0  0  0  0  0  0  0  0  0
   39.6160   24.2650   29.4820 C   0  0  0  0  0  0  0  0  0  0  0  0
   40.2540   24.9330   28.4440 C   0  0  0  0  0  0  0  0  0  0  0  0
   40.1230   26.2740   28.2150 C   0  0  0  0  0  0  0  0  0  0  0  0
   39.3360   26.9680   29.0390 N   0  0  0  0  0  0  0  0  0  0  0  0
   40.8000   26.9680   27.1170 C   0  0  0  0  0  0  0  0  0  0  0  0
   42.2240   27.3230   27.2720 C   0  0  0  0  0  0  0  0  0  0  0  0
   42.6050   28.1470   25.6860 S   0  0  0  0  0  0  0  0  0  0  0  0
   40.8300   27.8900   25.0780 C   0  0  0  0  0  0  0  0  0  0  0  0
   40.3080   27.3420   25.9540 N   0  0  0  0  0  0  0  0  0  0  0  0
   38.3520   25.8290   35.1790 C   0  0  2  0  0  0  0  0  0  0  0  0
   39.2110   27.1410   35.4080 C   0  0  0  0  0  0  0  0  0  0  0  0
   37.7040   27.0780   35.3910 C   0  0  1  0  0  0  0  0  0  0  0  0
   38.0510   23.9100   38.4040 C   0  0  0  0  0  0  0  0  0  0  0  0
   37.8340   24.8610   37.4190 C   0  0  0  0  0  0  0  0  0  0  0  0
   38.5680   24.8130   36.2280 C   0  0  0  0  0  0  0  0  0  0  0  0
   39.4710   23.8280   36.0820 N   0  0  0  0  0  0  0  0  0  0  0  0
   39.6650   22.9120   37.0570 C   0  0  0  0  0  0  0  0  0  0  0  0
   38.9650   22.9480   38.2070 N   0  0  0  0  0  0  0  0  0  0  0  0
   35.7905   29.0061   35.7311 H   0  0  0  0  0  0  0  0  0  0  0  0
   35.2089   30.0043   29.6710 H   0  0  0  0  0  0  0  0  0  0  0  0
   34.7035   30.4151   31.3319 H   0  0  0  0  0  0  0  0  0  0  0  0
   38.2718   24.6066   31.1421 H   0  0  0  0  0  0  0  0  0  0  0  0
   39.7368   23.1844   29.6484 H   0  0  0  0  0  0  0  0  0  0  0  0
   40.8996   24.3509   27.7699 H   0  0  0  0  0  0  0  0  0  0  0  0
   42.8896   27.1379   28.1280 H   0  0  0  0  0  0  0  0  0  0  0  0
   40.3949   28.1921   24.1139 H   0  0  0  0  0  0  0  0  0  0  0  0
   38.1751   25.0563   34.4164 H   0  0  0  0  0  0  0  0  0  0  0  0
   39.7583   27.2998   36.3489 H   0  0  0  0  0  0  0  0  0  0  0  0
   40.0023   27.6910   34.8775 H   0  0  0  0  0  0  0  0  0  0  0  0
   36.8931   27.3339   36.0888 H   0  0  0  0  0  0  0  0  0  0  0  0
   37.4770   23.9440   39.3418 H   0  0  0  0  0  0  0  0  0  0  0  0
   37.0858   25.6525   37.5731 H   0  0  0  0  0  0  0  0  0  0  0  0
   40.4121   22.1186   36.9076 H   0  0  0  0  0  0  0  0  0  0  0  0
  1  2  1  0
  1 24  1  0
  3  2  2  0
  4  9  2  0
  4  3  1  0
  5  4  1  0
  6  7  1  0
  6  5  2  0
  7  8  2  0
  8  9  1  0
  9  1  1  0
 10  5  1  0
 11 12  2  0
 11  7  1  0
 13 12  1  0
 14 13  2  0
 15 14  1  0
 15 16  2  0
 16 11  1  0
 17 18  2  0
 17 15  1  0
 19 18  1  0
 20 19  1  0
 20 21  2  0
 21 17  1  0
 22 24  1  0
 22 23  1  0
 22 27  1  0
 24 23  1  0
 26 25  2  0
 27 26  1  0
 28 27  2  0
 28 29  1  0
 29 30  2  0
 30 25  1  0
  2 31  1  0
 10 32  1  0
 10 33  1  0
 12 34  1  0
 13 35  1  0
 14 36  1  0
 18 37  1  0
 20 38  1  0
 22 39  1  6
 23 40  1  0
 23 41  1  0
 24 42  1  1
 25 43  1  0
 26 44  1  0
 29 45  1  0
M  ISO  8  31  14  34  14  35  14  36  14  37  14  38  14  39  13  40  13
M  ISO  5  41  13  42  13  43  14  44  14  45  14
M  END
>  <minimizedAffinity>  (1) 
-5.84781647

>  <minimizedRMSD>  (1) 
0.654791117

$$$$
