
     RDKit          3D

 46 51  0  0  1  0  0  0  0  0999 V2000
   37.0510   27.8240   34.3710 N   0  0  0  0  0  0  0  0  0  0  0  0
   36.1250   28.7630   34.6910 C   0  0  0  0  0  0  0  0  0  0  0  0
   35.6520   29.3080   33.5850 N   0  0  0  0  0  0  0  0  0  0  0  0
   36.2840   28.7140   32.5340 C   0  0  0  0  0  0  0  0  0  0  0  0
   36.2110   28.8600   31.1900 C   0  0  0  0  0  0  0  0  0  0  0  0
   37.0030   28.0850   30.4320 N   0  0  0  0  0  0  0  0  0  0  0  0
   37.8550   27.1790   30.9260 C   0  0  0  0  0  0  0  0  0  0  0  0
   37.9120   27.0480   32.2660 N   0  0  0  0  0  0  0  0  0  0  0  0
   37.1430   27.7990   33.0680 C   0  0  0  0  0  0  0  0  0  0  0  0
   35.3000   29.8290   30.6680 N   0  0  0  0  0  0  0  0  0  0  0  0
   38.6920   26.3620   30.0610 C   0  0  0  0  0  0  0  0  0  0  0  0
   38.7490   24.9980   30.2770 C   0  0  0  0  0  0  0  0  0  0  0  0
   39.5410   24.1890   29.4640 C   0  0  0  0  0  0  0  0  0  0  0  0
   40.2340   24.8370   28.4700 C   0  0  0  0  0  0  0  0  0  0  0  0
   40.1730   26.2040   28.2570 C   0  0  0  0  0  0  0  0  0  0  0  0
   39.3910   26.9280   29.0750 N   0  0  0  0  0  0  0  0  0  0  0  0
   40.9440   26.8090   27.1750 C   0  0  0  0  0  0  0  0  0  0  0  0
   40.4050   27.3510   26.0260 C   0  0  0  0  0  0  0  0  0  0  0  0
   41.5280   27.7920   25.3170 C   0  0  0  0  0  0  0  0  0  0  0  0
   42.6650   27.5190   26.0220 N   0  0  0  0  0  0  0  0  0  0  0  0
   42.2720   26.9170   27.1550 N   0  0  0  0  0  0  0  0  0  0  0  0
   38.3610   25.8280   35.1930 C   0  0  2  0  0  0  0  0  0  0  0  0
   39.2170   27.1390   35.4230 C   0  0  0  0  0  0  0  0  0  0  0  0
   37.7190   27.0820   35.3930 C   0  0  1  0  0  0  0  0  0  0  0  0
   38.0350   23.9030   38.4090 C   0  0  0  0  0  0  0  0  0  0  0  0
   37.8250   24.8640   37.4260 C   0  0  0  0  0  0  0  0  0  0  0  0
   38.5670   24.8120   36.2400 C   0  0  0  0  0  0  0  0  0  0  0  0
   39.4620   23.8210   36.0980 N   0  0  0  0  0  0  0  0  0  0  0  0
   39.6480   22.8970   37.0690 C   0  0  0  0  0  0  0  0  0  0  0  0
   38.9430   22.9370   38.2110 N   0  0  0  0  0  0  0  0  0  0  0  0
   35.8164   29.0288   35.7128 H   0  0  0  0  0  0  0  0  0  0  0  0
   35.2201   29.9650   29.6501 H   0  0  0  0  0  0  0  0  0  0  0  0
   34.7231   30.3916   31.3095 H   0  0  0  0  0  0  0  0  0  0  0  0
   38.1664   24.5486   31.0947 H   0  0  0  0  0  0  0  0  0  0  0  0
   39.6071   23.1006   29.6089 H   0  0  0  0  0  0  0  0  0  0  0  0
   40.8731   24.2362   27.8062 H   0  0  0  0  0  0  0  0  0  0  0  0
   39.3460   27.4199   25.7367 H   0  0  0  0  0  0  0  0  0  0  0  0
   41.4990   28.2865   24.3349 H   0  0  0  0  0  0  0  0  0  0  0  0
   43.6323   27.7327   25.7401 H   0  0  0  0  0  0  0  0  0  0  0  0
   38.1862   25.0511   34.4341 H   0  0  0  0  0  0  0  0  0  0  0  0
   39.7560   27.3016   36.3680 H   0  0  0  0  0  0  0  0  0  0  0  0
   40.0140   27.6845   34.8964 H   0  0  0  0  0  0  0  0  0  0  0  0
   36.9063   27.3499   36.0842 H   0  0  0  0  0  0  0  0  0  0  0  0
   37.4584   23.9354   39.3452 H   0  0  0  0  0  0  0  0  0  0  0  0
   37.0810   25.6596   37.5793 H   0  0  0  0  0  0  0  0  0  0  0  0
   40.3901   22.0988   36.9200 H   0  0  0  0  0  0  0  0  0  0  0  0
  1  2  1  0
  1 24  1  0
  3  2  2  0
  4  9  2  0
  4  3  1  0
  5  4  1  0
  6  7  1  0
  6  5  2  0
  7  8  2  0
  8  9  1  0
  9  1  1  0
 10  5  1  0
 11 12  2  0
 11  7  1  0
 13 12  1  0
 14 13  2  0
 15 14  1  0
 15 16  2  0
 16 11  1  0
 17 15  1  0
 18 17  1  0
 19 20  1  0
 19 18  2  0
 20 21  1  0
 21 17  2  0
 22 24  1  0
 22 23  1  0
 22 27  1  0
 24 23  1  0
 26 25  2  0
 27 26  1  0
 28 27  2  0
 28 29  1  0
 29 30  2  0
 30 25  1  0
  2 31  1  0
 10 32  1  0
 10 33  1  0
 12 34  1  0
 13 35  1  0
 14 36  1  0
 18 37  1  0
 19 38  1  0
 20 39  1  0
 22 40  1  6
 23 41  1  0
 23 42  1  0
 24 43  1  1
 25 44  1  0
 26 45  1  0
 29 46  1  0
M  ISO  8  31  14  34  14  35  14  36  14  37  14  38  14  39   9  40  13
M  ISO  6  41  13  42  13  43  13  44  14  45  14  46  14
M  END
>  <minimizedAffinity>  (1) 
-5.79996443

>  <minimizedRMSD>  (1) 
0.566562057

$$$$
