
     RDKit          3D

 46 51  0  0  1  0  0  0  0  0999 V2000
   37.0390   27.8210   34.3710 N   0  0  0  0  0  0  0  0  0  0  0  0
   36.1040   28.7460   34.6850 C   0  0  0  0  0  0  0  0  0  0  0  0
   35.6370   29.2970   33.5790 N   0  0  0  0  0  0  0  0  0  0  0  0
   36.2810   28.7180   32.5270 C   0  0  0  0  0  0  0  0  0  0  0  0
   36.2200   28.8740   31.1840 C   0  0  0  0  0  0  0  0  0  0  0  0
   37.0200   28.1170   30.4260 N   0  0  0  0  0  0  0  0  0  0  0  0
   37.8780   27.2130   30.9200 C   0  0  0  0  0  0  0  0  0  0  0  0
   37.9320   27.0640   32.2600 N   0  0  0  0  0  0  0  0  0  0  0  0
   37.1460   27.8040   33.0560 C   0  0  0  0  0  0  0  0  0  0  0  0
   35.3040   29.8380   30.6630 N   0  0  0  0  0  0  0  0  0  0  0  0
   38.7350   26.4070   30.0560 C   0  0  0  0  0  0  0  0  0  0  0  0
   38.7900   25.0470   30.2450 C   0  0  0  0  0  0  0  0  0  0  0  0
   39.6000   24.2540   29.4340 C   0  0  0  0  0  0  0  0  0  0  0  0
   40.3100   24.9160   28.4670 C   0  0  0  0  0  0  0  0  0  0  0  0
   40.2520   26.2880   28.2800 C   0  0  0  0  0  0  0  0  0  0  0  0
   39.4530   26.9950   29.0930 N   0  0  0  0  0  0  0  0  0  0  0  0
   41.0180   27.0170   27.2340 C   0  0  0  0  0  0  0  0  0  0  0  0
   40.4650   26.9420   25.7790 C   0  0  0  0  0  0  0  0  0  0  0  0
   40.4040   28.2010   26.5610 C   0  0  0  0  0  0  0  0  0  0  0  0
   38.3580   25.8260   35.1840 C   0  0  2  0  0  0  0  0  0  0  0  0
   39.2020   27.1440   35.4160 C   0  0  0  0  0  0  0  0  0  0  0  0
   37.7040   27.0740   35.3840 C   0  0  1  0  0  0  0  0  0  0  0  0
   38.0430   23.9070   38.4040 C   0  0  0  0  0  0  0  0  0  0  0  0
   37.8300   24.8610   37.4210 C   0  0  0  0  0  0  0  0  0  0  0  0
   38.5670   24.8100   36.2320 C   0  0  0  0  0  0  0  0  0  0  0  0
   39.4670   23.8250   36.0870 N   0  0  0  0  0  0  0  0  0  0  0  0
   39.6580   22.9070   37.0590 C   0  0  0  0  0  0  0  0  0  0  0  0
   38.9560   22.9410   38.2100 N   0  0  0  0  0  0  0  0  0  0  0  0
   35.7816   29.0007   35.7054 H   0  0  0  0  0  0  0  0  0  0  0  0
   35.2317   29.9826   29.6458 H   0  0  0  0  0  0  0  0  0  0  0  0
   34.7157   30.3887   31.3045 H   0  0  0  0  0  0  0  0  0  0  0  0
   38.1910   24.5812   31.0414 H   0  0  0  0  0  0  0  0  0  0  0  0
   39.6653   23.1635   29.5624 H   0  0  0  0  0  0  0  0  0  0  0  0
   40.9607   24.3271   27.8038 H   0  0  0  0  0  0  0  0  0  0  0  0
   41.9747   26.8271   27.7426 H   0  0  0  0  0  0  0  0  0  0  0  0
   39.5449   26.3783   25.5651 H   0  0  0  0  0  0  0  0  0  0  0  0
   40.8691   26.6448   24.8000 H   0  0  0  0  0  0  0  0  0  0  0  0
   41.0412   29.0495   26.2711 H   0  0  0  0  0  0  0  0  0  0  0  0
   39.5887   28.8887   26.8299 H   0  0  0  0  0  0  0  0  0  0  0  0
   38.1937   25.0482   34.4237 H   0  0  0  0  0  0  0  0  0  0  0  0
   39.7383   27.3106   36.3619 H   0  0  0  0  0  0  0  0  0  0  0  0
   39.9949   27.6968   34.8908 H   0  0  0  0  0  0  0  0  0  0  0  0
   36.8836   27.3269   36.0717 H   0  0  0  0  0  0  0  0  0  0  0  0
   37.4661   23.9410   39.3400 H   0  0  0  0  0  0  0  0  0  0  0  0
   37.0846   25.6552   37.5748 H   0  0  0  0  0  0  0  0  0  0  0  0
   40.4039   22.1127   36.9083 H   0  0  0  0  0  0  0  0  0  0  0  0
  1  2  1  0
  1 22  1  0
  3  2  2  0
  4  9  2  0
  4  3  1  0
  5  4  1  0
  6  7  1  0
  6  5  2  0
  7  8  2  0
  8  9  1  0
  9  1  1  0
 10  5  1  0
 11 12  2  0
 11  7  1  0
 13 12  1  0
 14 13  2  0
 15 14  1  0
 15 16  2  0
 16 11  1  0
 17 15  1  0
 18 19  1  0
 18 17  1  0
 19 17  1  0
 20 22  1  0
 20 21  1  0
 20 25  1  0
 22 21  1  0
 24 23  2  0
 25 24  1  0
 26 25  2  0
 26 27  1  0
 27 28  2  0
 28 23  1  0
  2 29  1  0
 10 30  1  0
 10 31  1  0
 12 32  1  0
 13 33  1  0
 14 34  1  0
 17 35  1  0
 18 36  1  0
 18 37  1  0
 19 38  1  0
 19 39  1  0
 20 40  1  6
 21 41  1  0
 21 42  1  0
 22 43  1  1
 23 44  1  0
 24 45  1  0
 27 46  1  0
M  ISO  8  29  14  32  14  33  14  34  14  35  13  36  13  37  13  38  13
M  ISO  8  39  13  40  13  41  13  42  13  43  13  44  14  45  14  46  14
M  END
>  <minimizedAffinity>  (1) 
-5.77304602

>  <minimizedRMSD>  (1) 
0.691655517

$$$$
