
     RDKit          3D

 48 52  0  0  1  0  0  0  0  0999 V2000
   37.0780   27.7980   34.3760 N   0  0  0  0  0  0  0  0  0  0  0  0
   36.1980   28.7790   34.6730 C   0  0  0  0  0  0  0  0  0  0  0  0
   35.7460   29.3190   33.5520 N   0  0  0  0  0  0  0  0  0  0  0  0
   36.3380   28.6790   32.5140 C   0  0  0  0  0  0  0  0  0  0  0  0
   36.2730   28.7890   31.1710 C   0  0  0  0  0  0  0  0  0  0  0  0
   37.0210   27.9670   30.4260 N   0  0  0  0  0  0  0  0  0  0  0  0
   37.8320   27.0410   30.9360 C   0  0  0  0  0  0  0  0  0  0  0  0
   37.9020   26.9280   32.2810 N   0  0  0  0  0  0  0  0  0  0  0  0
   37.1640   27.7360   33.0680 C   0  0  0  0  0  0  0  0  0  0  0  0
   35.4000   29.7840   30.6210 N   0  0  0  0  0  0  0  0  0  0  0  0
   38.6390   26.1590   30.0900 C   0  0  0  0  0  0  0  0  0  0  0  0
   38.7310   24.8260   30.3870 C   0  0  0  0  0  0  0  0  0  0  0  0
   39.4890   23.9650   29.6020 C   0  0  0  0  0  0  0  0  0  0  0  0
   40.1260   24.5490   28.5270 C   0  0  0  0  0  0  0  0  0  0  0  0
   40.0320   25.8960   28.2290 C   0  0  0  0  0  0  0  0  0  0  0  0
   39.2790   26.6610   29.0370 N   0  0  0  0  0  0  0  0  0  0  0  0
   40.7400   26.4910   27.0520 C   0  0  0  0  0  0  0  0  0  0  0  0
   40.6570   25.5470   25.8530 C   0  0  0  0  0  0  0  0  0  0  0  0
   40.1580   27.8050   26.6460 C   0  0  0  0  0  0  0  0  0  0  0  0
   38.3870   25.8080   35.2200 C   0  0  2  0  0  0  0  0  0  0  0  0
   39.2180   27.1340   35.4740 C   0  0  0  0  0  0  0  0  0  0  0  0
   37.7190   27.0500   35.4070 C   0  0  1  0  0  0  0  0  0  0  0  0
   38.0070   23.8970   38.4400 C   0  0  0  0  0  0  0  0  0  0  0  0
   37.8130   24.8510   37.4470 C   0  0  0  0  0  0  0  0  0  0  0  0
   38.5750   24.7950   36.2720 C   0  0  0  0  0  0  0  0  0  0  0  0
   39.4780   23.8080   36.1410 N   0  0  0  0  0  0  0  0  0  0  0  0
   39.6560   22.8870   37.1150 C   0  0  0  0  0  0  0  0  0  0  0  0
   38.9320   22.9240   38.2550 N   0  0  0  0  0  0  0  0  0  0  0  0
   35.9029   29.0820   35.6884 H   0  0  0  0  0  0  0  0  0  0  0  0
   35.3254   29.8960   29.5998 H   0  0  0  0  0  0  0  0  0  0  0  0
   34.8473   30.3870   31.2470 H   0  0  0  0  0  0  0  0  0  0  0  0
   38.1957   24.4292   31.2622 H   0  0  0  0  0  0  0  0  0  0  0  0
   39.5750   22.8909   29.8231 H   0  0  0  0  0  0  0  0  0  0  0  0
   40.7396   23.9111   27.8739 H   0  0  0  0  0  0  0  0  0  0  0  0
   41.7848   26.6451   27.3597 H   0  0  0  0  0  0  0  0  0  0  0  0
   40.5658   24.5100   26.2084 H   0  0  0  0  0  0  0  0  0  0  0  0
   39.7780   25.8044   25.2438 H   0  0  0  0  0  0  0  0  0  0  0  0
   41.5674   25.6471   25.2438 H   0  0  0  0  0  0  0  0  0  0  0  0
   39.9009   28.3854   27.5443 H   0  0  0  0  0  0  0  0  0  0  0  0
   40.8934   28.3625   26.0473 H   0  0  0  0  0  0  0  0  0  0  0  0
   39.2510   27.6350   26.0473 H   0  0  0  0  0  0  0  0  0  0  0  0
   38.2483   25.0306   34.4543 H   0  0  0  0  0  0  0  0  0  0  0  0
   39.7310   27.3031   36.4322 H   0  0  0  0  0  0  0  0  0  0  0  0
   40.0184   27.6942   34.9686 H   0  0  0  0  0  0  0  0  0  0  0  0
   36.8793   27.2915   36.0753 H   0  0  0  0  0  0  0  0  0  0  0  0
   37.4154   23.9318   39.3667 H   0  0  0  0  0  0  0  0  0  0  0  0
   37.0649   25.6459   37.5831 H   0  0  0  0  0  0  0  0  0  0  0  0
   40.4043   22.0928   36.9765 H   0  0  0  0  0  0  0  0  0  0  0  0
  1  2  1  0
  1 22  1  0
  3  2  2  0
  4  9  2  0
  4  3  1  0
  5  4  1  0
  6  7  1  0
  6  5  2  0
  7  8  2  0
  8  9  1  0
  9  1  1  0
 10  5  1  0
 11 12  2  0
 11  7  1  0
 13 12  1  0
 14 13  2  0
 15 14  1  0
 15 16  2  0
 16 11  1  0
 17 15  1  0
 18 17  1  0
 19 17  1  0
 20 22  1  0
 20 21  1  0
 20 25  1  0
 22 21  1  0
 24 23  2  0
 25 24  1  0
 26 25  2  0
 26 27  1  0
 27 28  2  0
 28 23  1  0
  2 29  1  0
 10 30  1  0
 10 31  1  0
 12 32  1  0
 13 33  1  0
 14 34  1  0
 17 35  1  0
 18 36  1  0
 18 37  1  0
 18 38  1  0
 19 39  1  0
 19 40  1  0
 19 41  1  0
 20 42  1  6
 21 43  1  0
 21 44  1  0
 22 45  1  1
 23 46  1  0
 24 47  1  0
 27 48  1  0
M  ISO  8  29  14  32  14  33  14  34  14  35   8  36   8  37   8  38   8
M  ISO  8  39   8  40   8  41   8  42  13  43  13  44  13  45  13  46  14
M  ISO  2  47  14  48  14
M  END
>  <minimizedAffinity>  (1) 
-5.74604321

>  <minimizedRMSD>  (1) 
0.364222139

$$$$
