
     RDKit          3D

 29 31  0  0  0  0  0  0  0  0999 V2000
   43.3570   22.6530   33.8800 C   0  0  0  0  0  0  0  0  0  0  0  0
   43.3030   23.9550   34.4240 C   0  0  0  0  0  0  0  0  0  0  0  0
   44.9810   24.6470   33.9700 S   0  0  0  0  0  0  0  0  0  0  0  0
   45.4280   23.0170   33.1240 C   0  0  0  0  0  0  0  0  0  0  0  0
   44.5020   22.4490   33.3000 N   0  0  0  0  0  0  0  0  0  0  0  0
   46.6760   22.6860   32.4480 N   0  0  0  0  0  0  0  0  0  0  0  0
   47.5710   22.0550   33.2270 C   0  0  0  0  0  0  0  0  0  0  0  0
   48.6840   21.8090   32.4610 C   0  0  0  0  0  0  0  0  0  0  0  0
   48.4040   22.3110   31.2390 N   0  0  0  0  0  0  0  0  0  0  0  0
   47.1710   22.8530   31.2180 C   0  0  0  0  0  0  0  0  0  0  0  0
   46.3650   23.5000   30.2620 N   0  0  0  0  0  0  0  0  0  0  0  0
   41.9210   21.5990   34.0850 S   0  0  0  0  0  0  0  0  0  0  0  0
   40.4740   22.3820   37.7130 C   0  0  0  0  0  0  0  0  0  0  0  0
   39.3180   23.1320   37.4460 C   0  0  0  0  0  0  0  0  0  0  0  0
   39.0130   23.3780   36.1250 C   0  0  0  0  0  0  0  0  0  0  0  0
   39.8110   22.9080   35.1180 N   0  0  0  0  0  0  0  0  0  0  0  0
   40.9320   22.1780   35.4360 C   0  0  0  0  0  0  0  0  0  0  0  0
   41.2450   21.9280   36.7270 N   0  0  0  0  0  0  0  0  0  0  0  0
   38.4140   23.6670   38.5090 C   0  0  0  0  0  0  0  0  0  0  0  0
   39.2050   23.8660   39.6280 F   0  0  0  0  0  0  0  0  0  0  0  0
   37.3910   22.8300   38.8090 F   0  0  0  0  0  0  0  0  0  0  0  0
   37.9830   24.9580   38.1660 F   0  0  0  0  0  0  0  0  0  0  0  0
   42.4830   24.4392   34.9746 H   0  0  0  0  0  0  0  0  0  0  0  0
   47.4367   21.7849   34.2848 H   0  0  0  0  0  0  0  0  0  0  0  0
   49.6106   21.3075   32.7770 H   0  0  0  0  0  0  0  0  0  0  0  0
   45.4235   23.8288   30.5198 H   0  0  0  0  0  0  0  0  0  0  0  0
   46.7168   23.6446   29.3048 H   0  0  0  0  0  0  0  0  0  0  0  0
   40.7480   22.1653   38.7561 H   0  0  0  0  0  0  0  0  0  0  0  0
   38.1141   23.9612   35.8763 H   0  0  0  0  0  0  0  0  0  0  0  0
  1 12  1  0
  1  2  2  0
  3  2  1  0
  4  5  2  0
  4  3  1  0
  5  1  1  0
  6  4  1  0
  6  7  1  0
  8  7  2  0
  9  8  1  0
 10  9  2  0
 10  6  1  0
 11 10  1  0
 12 17  1  0
 14 13  2  0
 14 19  1  0
 15 14  1  0
 16 17  1  0
 16 15  2  0
 17 18  2  0
 18 13  1  0
 19 21  1  0
 19 20  1  0
 22 19  1  0
  2 23  1  0
  7 24  1  0
  8 25  1  0
 11 26  1  0
 11 27  1  0
 13 28  1  0
 15 29  1  0
M  ISO  5  23  14  24  14  25  14  28  14  29  14
M  END
>  <minimizedAffinity>  (1) 
-3.80836487

>  <minimizedRMSD>  (1) 
0.00485716993

$$$$
