
     RDKit          3D

 24 25  0  0  0  0  0  0  0  0999 V2000
   42.1370   21.0320   37.2980 C   0  0  0  0  0  0  0  0  0  0  0  0
   41.0140   21.8330   37.5210 C   0  0  0  0  0  0  0  0  0  0  0  0
   40.4050   22.4330   36.4160 C   0  0  0  0  0  0  0  0  0  0  0  0
   40.9650   22.1840   35.1920 N   0  0  0  0  0  0  0  0  0  0  0  0
   42.0490   21.4050   35.0070 C   0  0  0  0  0  0  0  0  0  0  0  0
   42.6370   20.8240   36.0860 N   0  0  0  0  0  0  0  0  0  0  0  0
   39.2340   23.2840   36.5390 C   0  0  0  0  0  0  0  0  0  0  0  0
   38.0980   23.2440   37.2660 N   0  0  0  0  0  0  0  0  0  0  0  0
   37.3700   24.2760   36.9900 O   0  0  0  0  0  0  0  0  0  0  0  0
   37.9780   25.0220   36.0920 C   0  0  0  0  0  0  0  0  0  0  0  0
   39.1390   24.4230   35.7990 N   0  0  0  0  0  0  0  0  0  0  0  0
   37.5450   26.3060   35.4590 C   0  0  0  0  0  0  0  0  0  0  0  0
   38.6670   27.3110   35.7540 C   0  0  0  0  0  0  0  0  0  0  0  0
   37.3910   26.1440   33.9570 C   0  0  0  0  0  0  0  0  0  0  0  0
   42.6258   20.5552   38.1604 H   0  0  0  0  0  0  0  0  0  0  0  0
   40.6209   21.9867   38.5368 H   0  0  0  0  0  0  0  0  0  0  0  0
   42.4524   21.2416   33.9968 H   0  0  0  0  0  0  0  0  0  0  0  0
   36.5725   26.6345   35.8544 H   0  0  0  0  0  0  0  0  0  0  0  0
   38.7866   27.4181   36.8422 H   0  0  0  0  0  0  0  0  0  0  0  0
   39.6085   26.9486   35.3156 H   0  0  0  0  0  0  0  0  0  0  0  0
   38.4100   28.2866   35.3156 H   0  0  0  0  0  0  0  0  0  0  0  0
   36.6471   25.3614   33.7470 H   0  0  0  0  0  0  0  0  0  0  0  0
   37.0562   27.0954   33.5180 H   0  0  0  0  0  0  0  0  0  0  0  0
   38.3581   25.8578   33.5180 H   0  0  0  0  0  0  0  0  0  0  0  0
  1  2  2  0
  3  7  1  0
  3  2  1  0
  4  3  2  0
  5  4  1  0
  5  6  2  0
  6  1  1  0
  7  8  2  0
  9  8  1  0
 10  9  1  0
 11 10  2  0
 11  7  1  0
 12 13  1  0
 12 10  1  0
 14 12  1  0
  1 15  1  0
  2 16  1  0
  5 17  1  0
 12 18  1  0
 13 19  1  0
 13 20  1  0
 13 21  1  0
 14 22  1  0
 14 23  1  0
 14 24  1  0
M  ISO  8  15  14  16  14  17  14  18   8  19   8  20   8  21   8  22   8
M  ISO  2  23   8  24   8
M  END
>  <minimizedAffinity>  (1) 
-4.13763142

>  <minimizedRMSD>  (1) 
2.73513031

$$$$
