
     RDKit          3D

 27 28  0  0  0  0  0  0  0  0999 V2000
   42.2480   20.8210   37.4170 C   0  0  0  0  0  0  0  0  0  0  0  0
   41.1980   21.7390   37.5030 C   0  0  0  0  0  0  0  0  0  0  0  0
   40.7730   22.3120   36.2960 C   0  0  0  0  0  0  0  0  0  0  0  0
   41.4150   21.9250   35.1410 N   0  0  0  0  0  0  0  0  0  0  0  0
   42.4200   21.0350   35.1160 C   0  0  0  0  0  0  0  0  0  0  0  0
   42.8360   20.4800   36.2720 N   0  0  0  0  0  0  0  0  0  0  0  0
   39.6890   23.2870   36.2310 C   0  0  0  0  0  0  0  0  0  0  0  0
   38.4460   23.3910   36.7340 N   0  0  0  0  0  0  0  0  0  0  0  0
   37.9090   24.5100   36.3400 O   0  0  0  0  0  0  0  0  0  0  0  0
   38.7570   25.1640   35.5850 C   0  0  0  0  0  0  0  0  0  0  0  0
   39.8630   24.4270   35.5050 N   0  0  0  0  0  0  0  0  0  0  0  0
   38.5280   26.4830   34.9390 C   0  0  0  0  0  0  0  0  0  0  0  0
   37.2970   26.5160   34.0740 C   0  0  0  0  0  0  0  0  0  0  0  0
   38.3290   27.5390   36.0300 C   0  0  0  0  0  0  0  0  0  0  0  0
   39.7410   26.9640   34.1590 C   0  0  0  0  0  0  0  0  0  0  0  0
   42.6084   20.3547   38.3458 H   0  0  0  0  0  0  0  0  0  0  0  0
   40.7307   21.9978   38.4646 H   0  0  0  0  0  0  0  0  0  0  0  0
   42.8982   20.7620   34.1637 H   0  0  0  0  0  0  0  0  0  0  0  0
   36.4012   26.5400   34.7119 H   0  0  0  0  0  0  0  0  0  0  0  0
   37.3191   27.4139   33.4389 H   0  0  0  0  0  0  0  0  0  0  0  0
   37.2709   25.6182   33.4389 H   0  0  0  0  0  0  0  0  0  0  0  0
   38.4182   27.0658   37.0190 H   0  0  0  0  0  0  0  0  0  0  0  0
   39.0955   28.3212   35.9274 H   0  0  0  0  0  0  0  0  0  0  0  0
   37.3303   27.9886   35.9274 H   0  0  0  0  0  0  0  0  0  0  0  0
   40.5282   27.2762   34.8611 H   0  0  0  0  0  0  0  0  0  0  0  0
   40.1173   26.1470   33.5258 H   0  0  0  0  0  0  0  0  0  0  0  0
   39.4552   27.8168   33.5258 H   0  0  0  0  0  0  0  0  0  0  0  0
  1  2  2  0
  3  2  1  0
  4  3  2  0
  5  4  1  0
  5  6  2  0
  6  1  1  0
  7  3  1  0
  7  8  2  0
  9  8  1  0
 10  9  1  0
 11 10  2  0
 11  7  1  0
 12 10  1  0
 12 14  1  0
 13 12  1  0
 15 12  1  0
  1 16  1  0
  2 17  1  0
  5 18  1  0
 13 19  1  0
 13 20  1  0
 13 21  1  0
 14 22  1  0
 14 23  1  0
 14 24  1  0
 15 25  1  0
 15 26  1  0
 15 27  1  0
M  ISO  8  16  14  17  14  18  14  19   8  20   8  21   8  22   8  23   8
M  ISO  4  24   8  25   8  26   8  27   8
M  END
>  <minimizedAffinity>  (1) 
-4.07970524

>  <minimizedRMSD>  (1) 
3.41957784

$$$$
