
     RDKit          3D

 34 36  0  0  0  0  0  0  0  0999 V2000
   36.3240   28.3420   34.0440 C   0  0  0  0  0  0  0  0  0  0  0  0
   37.9210   25.2120   35.0310 C   0  0  0  0  0  0  0  0  0  0  0  0
   37.7550   25.0560   33.7150 N   0  0  0  0  0  0  0  0  0  0  0  0
   37.1820   26.1280   33.2350 O   0  0  0  0  0  0  0  0  0  0  0  0
   36.9610   27.0000   34.2050 C   0  0  0  0  0  0  0  0  0  0  0  0
   37.4120   26.4520   35.3240 N   0  0  0  0  0  0  0  0  0  0  0  0
   38.4830   23.5750   38.3510 C   0  0  0  0  0  0  0  0  0  0  0  0
   37.8790   24.3640   37.3860 C   0  0  0  0  0  0  0  0  0  0  0  0
   38.4840   24.4050   36.1210 C   0  0  0  0  0  0  0  0  0  0  0  0
   39.6350   23.6640   35.9070 N   0  0  0  0  0  0  0  0  0  0  0  0
   40.1790   22.9160   36.8730 C   0  0  0  0  0  0  0  0  0  0  0  0
   39.6060   22.8700   38.0920 N   0  0  0  0  0  0  0  0  0  0  0  0
   36.3060   28.6390   32.5460 C   0  0  0  0  0  0  0  0  0  0  0  0
   35.1340   29.4200   32.2020 N   0  0  0  0  0  0  0  0  0  0  0  0
   33.9740   29.2290   32.8610 C   0  0  0  0  0  0  0  0  0  0  0  0
   32.8360   29.9640   32.5520 C   0  0  0  0  0  0  0  0  0  0  0  0
   31.5290   29.7920   33.2490 C   0  0  0  0  0  0  0  0  0  0  0  0
   32.9390   30.8980   31.5440 C   0  0  0  0  0  0  0  0  0  0  0  0
   31.9510   31.5980   31.2110 O   0  0  0  0  0  0  0  0  0  0  0  0
   34.0990   31.1120   30.8620 N   0  0  0  0  0  0  0  0  0  0  0  0
   35.1480   30.3520   31.2310 C   0  0  0  0  0  0  0  0  0  0  0  0
   36.2210   30.5430   30.6090 O   0  0  0  0  0  0  0  0  0  0  0  0
   35.2979   28.3251   34.4400 H   0  0  0  0  0  0  0  0  0  0  0  0
   36.8807   29.1143   34.5951 H   0  0  0  0  0  0  0  0  0  0  0  0
   38.0365   23.5210   39.3548 H   0  0  0  0  0  0  0  0  0  0  0  0
   36.9636   24.9343   37.6024 H   0  0  0  0  0  0  0  0  0  0  0  0
   41.0936   22.3386   36.6727 H   0  0  0  0  0  0  0  0  0  0  0  0
   37.2105   29.2043   32.2772 H   0  0  0  0  0  0  0  0  0  0  0  0
   36.2776   27.6885   31.9931 H   0  0  0  0  0  0  0  0  0  0  0  0
   33.9271   28.4751   33.6606 H   0  0  0  0  0  0  0  0  0  0  0  0
   31.6882   29.8130   34.3372 H   0  0  0  0  0  0  0  0  0  0  0  0
   30.8501   30.6086   32.9620 H   0  0  0  0  0  0  0  0  0  0  0  0
   31.0845   28.8276   32.9620 H   0  0  0  0  0  0  0  0  0  0  0  0
   34.1694   31.8123   30.1100 H   0  0  0  0  0  0  0  0  0  0  0  0
  1  5  1  0
  2  6  1  0
  2  9  1  0
  3  2  2  0
  4  3  1  0
  4  5  1  0
  5  6  2  0
  8  7  2  0
  9  8  1  0
 10  9  2  0
 10 11  1  0
 11 12  2  0
 12  7  1  0
 13  1  1  0
 14 13  1  0
 14 15  1  0
 16 15  2  0
 16 17  1  0
 18 16  1  0
 19 18  2  0
 20 21  1  0
 20 18  1  0
 21 14  1  0
 22 21  2  0
  1 23  1  0
  1 24  1  0
  7 25  1  0
  8 26  1  0
 11 27  1  0
 13 28  1  0
 13 29  1  0
 15 30  1  0
 17 31  1  0
 17 32  1  0
 17 33  1  0
 20 34  1  0
M  ISO  8  23   8  24   8  25  14  26  14  27  14  28   8  29   8  30  14
M  ISO  4  31   8  32   8  33   8  34   9
M  END
>  <minimizedAffinity>  (1) 
-5.23873425

>  <minimizedRMSD>  (1) 
1.42663026

$$$$
