
     RDKit          3D

 37 39  0  0  0  0  0  0  0  0999 V2000
   38.0100   25.1200   35.2230 C   0  0  0  0  0  0  0  0  0  0  0  0
   37.7740   24.9400   33.8990 N   0  0  0  0  0  0  0  0  0  0  0  0
   37.2050   26.0040   33.4220 O   0  0  0  0  0  0  0  0  0  0  0  0
   37.0470   26.8990   34.3840 C   0  0  0  0  0  0  0  0  0  0  0  0
   37.5380   26.3720   35.5060 N   0  0  0  0  0  0  0  0  0  0  0  0
   38.6850   23.4590   38.4920 C   0  0  0  0  0  0  0  0  0  0  0  0
   38.0370   24.2650   37.5570 C   0  0  0  0  0  0  0  0  0  0  0  0
   38.6070   24.3080   36.2790 C   0  0  0  0  0  0  0  0  0  0  0  0
   39.7520   23.5690   36.0200 N   0  0  0  0  0  0  0  0  0  0  0  0
   40.3310   22.8100   36.9630 C   0  0  0  0  0  0  0  0  0  0  0  0
   39.7970   22.7590   38.1900 N   0  0  0  0  0  0  0  0  0  0  0  0
   36.4310   28.2700   34.2640 C   0  0  0  0  0  0  0  0  0  0  0  0
   36.3760   28.5600   32.7750 C   0  0  0  0  0  0  0  0  0  0  0  0
   35.4350   29.6980   32.4280 C   0  0  0  0  0  0  0  0  0  0  0  0
   35.4760   30.7700   33.4460 C   0  0  0  0  0  0  0  0  0  0  0  0
   35.8810   32.1280   33.0240 C   0  0  0  0  0  0  0  0  0  0  0  0
   36.6420   32.1910   31.7180 C   0  0  0  0  0  0  0  0  0  0  0  0
   35.6590   31.5620   30.7220 C   0  0  0  0  0  0  0  0  0  0  0  0
   35.6860   30.0890   31.0200 C   0  0  0  0  0  0  0  0  0  0  0  0
   38.2751   23.3919   39.5106 H   0  0  0  0  0  0  0  0  0  0  0  0
   37.1301   24.8343   37.8089 H   0  0  0  0  0  0  0  0  0  0  0  0
   41.2383   22.2335   36.7297 H   0  0  0  0  0  0  0  0  0  0  0  0
   35.4188   28.2759   34.6946 H   0  0  0  0  0  0  0  0  0  0  0  0
   37.0141   29.0287   34.8066 H   0  0  0  0  0  0  0  0  0  0  0  0
   37.3871   28.8239   32.4315 H   0  0  0  0  0  0  0  0  0  0  0  0
   35.9967   27.6555   32.2770 H   0  0  0  0  0  0  0  0  0  0  0  0
   34.3798   29.3903   32.4700 H   0  0  0  0  0  0  0  0  0  0  0  0
   34.4658   30.8505   33.8737 H   0  0  0  0  0  0  0  0  0  0  0  0
   36.2710   30.4545   34.1377 H   0  0  0  0  0  0  0  0  0  0  0  0
   34.9718   32.7381   32.9190 H   0  0  0  0  0  0  0  0  0  0  0  0
   36.5684   32.4986   33.7987 H   0  0  0  0  0  0  0  0  0  0  0  0
   36.8731   33.2309   31.4437 H   0  0  0  0  0  0  0  0  0  0  0  0
   37.6139   31.6770   31.7547 H   0  0  0  0  0  0  0  0  0  0  0  0
   35.9824   31.7525   29.6880 H   0  0  0  0  0  0  0  0  0  0  0  0
   34.6476   31.9833   30.8202 H   0  0  0  0  0  0  0  0  0  0  0  0
   34.9185   29.6070   30.3966 H   0  0  0  0  0  0  0  0  0  0  0  0
   36.7152   29.7656   30.8053 H   0  0  0  0  0  0  0  0  0  0  0  0
  1  5  1  0
  1  8  1  0
  2  1  2  0
  3  2  1  0
  3  4  1  0
  4  5  2  0
  7  6  2  0
  8  7  1  0
  9  8  2  0
  9 10  1  0
 10 11  2  0
 11  6  1  0
 12  4  1  0
 13 12  1  0
 14 13  1  0
 14 15  1  0
 16 15  1  0
 17 16  1  0
 18 19  1  0
 18 17  1  0
 19 14  1  0
  6 20  1  0
  7 21  1  0
 10 22  1  0
 12 23  1  0
 12 24  1  0
 13 25  1  0
 13 26  1  0
 14 27  1  0
 15 28  1  0
 15 29  1  0
 16 30  1  0
 16 31  1  0
 17 32  1  0
 17 33  1  0
 18 34  1  0
 18 35  1  0
 19 36  1  0
 19 37  1  0
M  ISO  8  20  14  21  14  22  14  23   8  24   8  25   8  26   8  27  13
M  ISO  8  28  13  29  13  30  13  31  13  32  13  33  13  34  13  35  13
M  ISO  2  36  13  37  13
M  END
>  <minimizedAffinity>  (1) 
-4.81382751

>  <minimizedRMSD>  (1) 
0.398767024

$$$$
