
     RDKit          3D

 27 29  0  0  0  0  0  0  0  0999 V2000
   37.9270   25.2150   35.0500 C   0  0  0  0  0  0  0  0  0  0  0  0
   37.7550   25.0580   33.7350 N   0  0  0  0  0  0  0  0  0  0  0  0
   37.1900   26.1030   33.2370 O   0  0  0  0  0  0  0  0  0  0  0  0
   36.9650   26.9880   34.1920 C   0  0  0  0  0  0  0  0  0  0  0  0
   37.4160   26.4420   35.3020 N   0  0  0  0  0  0  0  0  0  0  0  0
   38.4940   23.5690   38.3570 C   0  0  0  0  0  0  0  0  0  0  0  0
   37.8880   24.3630   37.3980 C   0  0  0  0  0  0  0  0  0  0  0  0
   38.4920   24.4040   36.1330 C   0  0  0  0  0  0  0  0  0  0  0  0
   39.6260   23.6660   35.9310 N   0  0  0  0  0  0  0  0  0  0  0  0
   40.1870   22.9110   36.8720 C   0  0  0  0  0  0  0  0  0  0  0  0
   39.6120   22.8670   38.0870 N   0  0  0  0  0  0  0  0  0  0  0  0
   36.3240   28.3450   34.0580 C   0  0  0  0  0  0  0  0  0  0  0  0
   36.2720   28.6210   32.5550 C   0  0  0  0  0  0  0  0  0  0  0  0
   35.0360   29.4120   32.3220 C   0  0  0  0  0  0  0  0  0  0  0  0
   34.9390   30.5230   31.4460 C   0  0  0  0  0  0  0  0  0  0  0  0
   33.1570   31.0240   31.6310 S   0  0  0  0  0  0  0  0  0  0  0  0
   32.8830   29.6210   32.8690 C   0  0  0  0  0  0  0  0  0  0  0  0
   33.9040   29.1390   32.9220 N   0  0  0  0  0  0  0  0  0  0  0  0
   38.0524   23.5099   39.3627 H   0  0  0  0  0  0  0  0  0  0  0  0
   36.9748   24.9353   37.6183 H   0  0  0  0  0  0  0  0  0  0  0  0
   41.1005   22.3357   36.6610 H   0  0  0  0  0  0  0  0  0  0  0  0
   35.3095   28.3354   34.4831 H   0  0  0  0  0  0  0  0  0  0  0  0
   36.8883   29.1198   34.5976 H   0  0  0  0  0  0  0  0  0  0  0  0
   37.1567   29.1947   32.2417 H   0  0  0  0  0  0  0  0  0  0  0  0
   36.2651   27.6861   31.9755 H   0  0  0  0  0  0  0  0  0  0  0  0
   35.7199   30.9744   30.8164 H   0  0  0  0  0  0  0  0  0  0  0  0
   31.9621   29.3438   33.4030 H   0  0  0  0  0  0  0  0  0  0  0  0
  1  5  1  0
  1  8  1  0
  2  1  2  0
  3  2  1  0
  3  4  1  0
  4  5  2  0
  7  6  2  0
  8  7  1  0
  9  8  2  0
  9 10  1  0
 10 11  2  0
 11  6  1  0
 12  4  1  0
 13 12  1  0
 14 13  1  0
 14 18  1  0
 15 16  1  0
 15 14  2  0
 16 17  1  0
 17 18  2  0
  6 19  1  0
  7 20  1  0
 10 21  1  0
 12 22  1  0
 12 23  1  0
 13 24  1  0
 13 25  1  0
 15 26  1  0
 17 27  1  0
M  ISO  8  19  14  20  14  21  14  22   8  23   8  24   8  25   8  26  14
M  ISO  1  27  14
M  END
>  <minimizedAffinity>  (1) 
-4.47984791

>  <minimizedRMSD>  (1) 
0.911008537

$$$$
