
     RDKit          3D

 28 30  0  0  0  0  0  0  0  0999 V2000
   37.9380   25.2280   34.9120 C   0  0  0  0  0  0  0  0  0  0  0  0
   37.8160   25.0020   33.5790 N   0  0  0  0  0  0  0  0  0  0  0  0
   37.2680   26.0530   33.0460 O   0  0  0  0  0  0  0  0  0  0  0  0
   37.0190   26.9660   33.9590 C   0  0  0  0  0  0  0  0  0  0  0  0
   37.4280   26.4690   35.1100 N   0  0  0  0  0  0  0  0  0  0  0  0
   38.3440   23.6860   38.2920 C   0  0  0  0  0  0  0  0  0  0  0  0
   37.7920   24.4640   37.2710 C   0  0  0  0  0  0  0  0  0  0  0  0
   38.4640   24.4410   36.0200 C   0  0  0  0  0  0  0  0  0  0  0  0
   39.5870   23.6720   35.8980 N   0  0  0  0  0  0  0  0  0  0  0  0
   40.0670   22.9450   36.9210 C   0  0  0  0  0  0  0  0  0  0  0  0
   39.4490   22.9530   38.1090 N   0  0  0  0  0  0  0  0  0  0  0  0
   36.3950   28.2910   33.7110 C   0  0  0  0  0  0  0  0  0  0  0  0
   35.5920   28.2100   32.4520 C   0  0  0  0  0  0  0  0  0  0  0  0
   36.2060   29.0110   31.3300 C   0  0  0  0  0  0  0  0  0  0  0  0
   36.1590   30.3370   31.2300 C   0  0  0  0  0  0  0  0  0  0  0  0
   36.7220   30.9820   30.2090 C   0  0  0  0  0  0  0  0  0  0  0  0
   37.3240   30.2090   29.3170 C   0  0  0  0  0  0  0  0  0  0  0  0
   37.1220   28.4390   29.8920 S   0  0  0  0  0  0  0  0  0  0  0  0
   37.8550   23.6756   39.2773 H   0  0  0  0  0  0  0  0  0  0  0  0
   36.8833   25.0637   37.4281 H   0  0  0  0  0  0  0  0  0  0  0  0
   40.9743   22.3388   36.7816 H   0  0  0  0  0  0  0  0  0  0  0  0
   35.7386   28.5554   34.5532 H   0  0  0  0  0  0  0  0  0  0  0  0
   37.1739   29.0614   33.6120 H   0  0  0  0  0  0  0  0  0  0  0  0
   35.5270   27.1570   32.1408 H   0  0  0  0  0  0  0  0  0  0  0  0
   34.5964   28.6291   32.6597 H   0  0  0  0  0  0  0  0  0  0  0  0
   35.6422   30.9154   32.0100 H   0  0  0  0  0  0  0  0  0  0  0  0
   36.6894   32.0774   30.1135 H   0  0  0  0  0  0  0  0  0  0  0  0
   37.8451   30.5446   28.4083 H   0  0  0  0  0  0  0  0  0  0  0  0
  1  5  1  0
  1  8  1  0
  2  1  2  0
  3  2  1  0
  3  4  1  0
  4  5  2  0
  7  6  2  0
  8  7  1  0
  9  8  2  0
  9 10  1  0
 10 11  2  0
 11  6  1  0
 12  4  1  0
 13 12  1  0
 14 13  1  0
 15 14  2  0
 16 15  1  0
 17 18  1  0
 17 16  2  0
 18 14  1  0
  6 19  1  0
  7 20  1  0
 10 21  1  0
 12 22  1  0
 12 23  1  0
 13 24  1  0
 13 25  1  0
 15 26  1  0
 16 27  1  0
 17 28  1  0
M  ISO  8  19  14  20  14  21  14  22   8  23   8  24   8  25   8  26  14
M  ISO  2  27  14  28  14
M  END
>  <minimizedAffinity>  (1) 
-4.46012211

>  <minimizedRMSD>  (1) 
1.48167539

$$$$
