
     RDKit          3D

 35 37  0  0  0  0  0  0  0  0999 V2000
   37.9520   25.2540   35.1600 C   0  0  0  0  0  0  0  0  0  0  0  0
   37.7200   25.1350   33.8400 N   0  0  0  0  0  0  0  0  0  0  0  0
   37.1310   26.2150   33.4070 O   0  0  0  0  0  0  0  0  0  0  0  0
   36.9600   27.0570   34.4030 C   0  0  0  0  0  0  0  0  0  0  0  0
   37.4590   26.4870   35.5030 N   0  0  0  0  0  0  0  0  0  0  0  0
   38.6560   23.4660   38.3690 C   0  0  0  0  0  0  0  0  0  0  0  0
   37.9880   24.3050   37.4640 C   0  0  0  0  0  0  0  0  0  0  0  0
   38.5650   24.4060   36.1860 C   0  0  0  0  0  0  0  0  0  0  0  0
   39.7140   23.6980   35.9060 N   0  0  0  0  0  0  0  0  0  0  0  0
   40.3000   22.9180   36.8150 C   0  0  0  0  0  0  0  0  0  0  0  0
   39.7650   22.8070   38.0460 N   0  0  0  0  0  0  0  0  0  0  0  0
   36.3290   28.3960   34.3220 C   0  0  0  0  0  0  0  0  0  0  0  0
   35.7630   28.5500   32.9230 C   0  0  0  0  0  0  0  0  0  0  0  0
   34.6140   29.3590   32.8340 N   0  0  0  0  0  0  0  0  0  0  0  0
   34.5670   30.3900   31.8730 C   0  0  0  0  0  0  0  0  0  0  0  0
   33.1080   30.8650   31.8200 C   0  0  0  0  0  0  0  0  0  0  0  0
   32.8820   31.5870   33.0550 N   0  0  0  0  0  0  0  0  0  0  0  0
   33.4400   30.9500   34.2160 C   0  0  0  0  0  0  0  0  0  0  0  0
   33.8040   29.5120   33.9880 C   0  0  0  0  0  0  0  0  0  0  0  0
   38.2471   23.3491   39.3834 H   0  0  0  0  0  0  0  0  0  0  0  0
   37.0716   24.8488   37.7370 H   0  0  0  0  0  0  0  0  0  0  0  0
   41.2174   22.3670   36.5603 H   0  0  0  0  0  0  0  0  0  0  0  0
   35.5215   28.4761   35.0647 H   0  0  0  0  0  0  0  0  0  0  0  0
   37.0667   29.1849   34.5303 H   0  0  0  0  0  0  0  0  0  0  0  0
   36.5427   28.9926   32.2858 H   0  0  0  0  0  0  0  0  0  0  0  0
   35.4572   27.5435   32.6014 H   0  0  0  0  0  0  0  0  0  0  0  0
   35.2265   31.2185   32.1709 H   0  0  0  0  0  0  0  0  0  0  0  0
   34.9073   30.0347   30.8892 H   0  0  0  0  0  0  0  0  0  0  0  0
   32.9520   31.5270   30.9554 H   0  0  0  0  0  0  0  0  0  0  0  0
   32.4114   30.0206   31.7119 H   0  0  0  0  0  0  0  0  0  0  0  0
   33.3036   32.5224   32.9649 H   0  0  0  0  0  0  0  0  0  0  0  0
   34.3473   31.4969   34.5119 H   0  0  0  0  0  0  0  0  0  0  0  0
   32.6690   30.9701   35.0003 H   0  0  0  0  0  0  0  0  0  0  0  0
   32.8822   28.9259   33.8583 H   0  0  0  0  0  0  0  0  0  0  0  0
   34.3734   29.1571   34.8597 H   0  0  0  0  0  0  0  0  0  0  0  0
  1  5  1  0
  1  8  1  0
  2  1  2  0
  3  2  1  0
  3  4  1  0
  4  5  2  0
  7  6  2  0
  8  7  1  0
  9  8  2  0
  9 10  1  0
 10 11  2  0
 11  6  1  0
 12  4  1  0
 13 12  1  0
 14 13  1  0
 14 19  1  0
 15 14  1  0
 16 15  1  0
 16 17  1  0
 17 18  1  0
 19 18  1  0
  6 20  1  0
  7 21  1  0
 10 22  1  0
 12 23  1  0
 12 24  1  0
 13 25  1  0
 13 26  1  0
 15 27  1  0
 15 28  1  0
 16 29  1  0
 16 30  1  0
 17 31  1  0
 18 32  1  0
 18 33  1  0
 19 34  1  0
 19 35  1  0
M  ISO  8  20  14  21  14  22  14  23   8  24   8  25   8  26   8  27  13
M  ISO  8  28  13  29  13  30  13  31   5  32  13  33  13  34  13  35  13
M  END
>  <minimizedAffinity>  (1) 
-4.44933224

>  <minimizedRMSD>  (1) 
1.16952789

$$$$
