
     RDKit          3D

 28 30  0  0  0  0  0  0  0  0999 V2000
   37.9330   25.1100   34.8050 C   0  0  0  0  0  0  0  0  0  0  0  0
   37.8090   24.8100   33.4890 N   0  0  0  0  0  0  0  0  0  0  0  0
   37.3010   25.8530   32.8820 O   0  0  0  0  0  0  0  0  0  0  0  0
   37.0870   26.8220   33.7480 C   0  0  0  0  0  0  0  0  0  0  0  0
   37.4700   26.3960   34.9580 N   0  0  0  0  0  0  0  0  0  0  0  0
   38.3130   23.7210   38.2530 C   0  0  0  0  0  0  0  0  0  0  0  0
   37.7490   24.4560   37.2040 C   0  0  0  0  0  0  0  0  0  0  0  0
   38.4260   24.3840   35.9780 C   0  0  0  0  0  0  0  0  0  0  0  0
   39.5740   23.6170   35.8780 N   0  0  0  0  0  0  0  0  0  0  0  0
   40.0640   22.9330   36.9260 C   0  0  0  0  0  0  0  0  0  0  0  0
   39.4210   22.9960   38.1090 N   0  0  0  0  0  0  0  0  0  0  0  0
   36.5210   28.1580   33.4330 C   0  0  0  0  0  0  0  0  0  0  0  0
   35.5830   27.9900   32.2460 C   0  0  0  0  0  0  0  0  0  0  0  0
   36.2490   28.5500   31.0890 N   0  0  0  0  0  0  0  0  0  0  0  0
   36.8920   28.0130   30.0830 N   0  0  0  0  0  0  0  0  0  0  0  0
   37.3580   28.9250   29.2200 C   0  0  0  0  0  0  0  0  0  0  0  0
   36.9920   30.1720   29.6960 C   0  0  0  0  0  0  0  0  0  0  0  0
   36.3080   29.8880   30.8530 C   0  0  0  0  0  0  0  0  0  0  0  0
   37.8211   23.7430   39.2366 H   0  0  0  0  0  0  0  0  0  0  0  0
   36.8334   25.0519   37.3329 H   0  0  0  0  0  0  0  0  0  0  0  0
   40.9777   22.3297   36.8198 H   0  0  0  0  0  0  0  0  0  0  0  0
   35.9643   28.5438   34.2998 H   0  0  0  0  0  0  0  0  0  0  0  0
   37.3232   28.8719   33.1945 H   0  0  0  0  0  0  0  0  0  0  0  0
   35.3732   26.9230   32.0799 H   0  0  0  0  0  0  0  0  0  0  0  0
   34.6263   28.5008   32.4300 H   0  0  0  0  0  0  0  0  0  0  0  0
   37.9273   28.7205   28.3013 H   0  0  0  0  0  0  0  0  0  0  0  0
   37.1996   31.1571   29.2528 H   0  0  0  0  0  0  0  0  0  0  0  0
   35.8622   30.6503   31.5089 H   0  0  0  0  0  0  0  0  0  0  0  0
  1  5  1  0
  1  8  1  0
  2  1  2  0
  3  2  1  0
  3  4  1  0
  4  5  2  0
  7  6  2  0
  8  7  1  0
  9  8  2  0
  9 10  1  0
 10 11  2  0
 11  6  1  0
 12  4  1  0
 13 12  1  0
 14 13  1  0
 15 14  1  0
 16 17  1  0
 16 15  2  0
 17 18  2  0
 18 14  1  0
  6 19  1  0
  7 20  1  0
 10 21  1  0
 12 22  1  0
 12 23  1  0
 13 24  1  0
 13 25  1  0
 16 26  1  0
 17 27  1  0
 18 28  1  0
M  ISO  8  19  14  20  14  21  14  22   8  23   8  24   8  25   8  26  14
M  ISO  2  27  14  28  14
M  END
>  <minimizedAffinity>  (1) 
-4.42192411

>  <minimizedRMSD>  (1) 
1.6848402

$$$$
