
     RDKit          3D

 33 35  0  0  0  0  0  0  0  0999 V2000
   38.0100   25.1110   35.2140 C   0  0  0  0  0  0  0  0  0  0  0  0
   37.7800   24.9520   33.9040 N   0  0  0  0  0  0  0  0  0  0  0  0
   37.1960   26.0150   33.4270 O   0  0  0  0  0  0  0  0  0  0  0  0
   37.0280   26.8900   34.4000 C   0  0  0  0  0  0  0  0  0  0  0  0
   37.5220   26.3440   35.4880 N   0  0  0  0  0  0  0  0  0  0  0  0
   38.6870   23.4510   38.4950 C   0  0  0  0  0  0  0  0  0  0  0  0
   38.0510   24.2460   37.5530 C   0  0  0  0  0  0  0  0  0  0  0  0
   38.6140   24.2990   36.2650 C   0  0  0  0  0  0  0  0  0  0  0  0
   39.7460   23.5670   36.0270 N   0  0  0  0  0  0  0  0  0  0  0  0
   40.3340   22.8090   36.9620 C   0  0  0  0  0  0  0  0  0  0  0  0
   39.7880   22.7610   38.2000 N   0  0  0  0  0  0  0  0  0  0  0  0
   36.3900   28.2490   34.2680 C   0  0  0  0  0  0  0  0  0  0  0  0
   36.4300   28.6170   32.8180 C   0  0  0  0  0  0  0  0  0  0  0  0
   35.3250   29.2750   32.2610 N   0  0  0  0  0  0  0  0  0  0  0  0
   35.7220   29.8060   30.9500 C   0  0  0  0  0  0  0  0  0  0  0  0
   36.0390   31.2500   31.1500 C   0  0  0  0  0  0  0  0  0  0  0  0
   35.8410   31.4650   32.6380 C   0  0  0  0  0  0  0  0  0  0  0  0
   34.7860   30.4060   32.9020 C   0  0  0  0  0  0  0  0  0  0  0  0
   38.2718   23.3886   39.5117 H   0  0  0  0  0  0  0  0  0  0  0  0
   37.1421   24.8128   37.8033 H   0  0  0  0  0  0  0  0  0  0  0  0
   41.2436   22.2362   36.7283 H   0  0  0  0  0  0  0  0  0  0  0  0
   35.3481   28.2120   34.6190 H   0  0  0  0  0  0  0  0  0  0  0  0
   36.9265   28.9932   34.8749 H   0  0  0  0  0  0  0  0  0  0  0  0
   37.3029   29.2706   32.6736 H   0  0  0  0  0  0  0  0  0  0  0  0
   36.4556   27.6487   32.2968 H   0  0  0  0  0  0  0  0  0  0  0  0
   34.8973   29.6951   30.2306 H   0  0  0  0  0  0  0  0  0  0  0  0
   36.5903   29.2623   30.5495 H   0  0  0  0  0  0  0  0  0  0  0  0
   37.0772   31.4667   30.8581 H   0  0  0  0  0  0  0  0  0  0  0  0
   35.4076   31.9113   30.5384 H   0  0  0  0  0  0  0  0  0  0  0  0
   36.7635   31.2768   33.2068 H   0  0  0  0  0  0  0  0  0  0  0  0
   35.5634   32.4880   32.9319 H   0  0  0  0  0  0  0  0  0  0  0  0
   33.8187   30.6896   32.4616 H   0  0  0  0  0  0  0  0  0  0  0  0
   34.5798   30.2484   33.9709 H   0  0  0  0  0  0  0  0  0  0  0  0
  1  5  1  0
  1  8  1  0
  2  1  2  0
  3  2  1  0
  3  4  1  0
  4  5  2  0
  7  6  2  0
  8  7  1  0
  9  8  2  0
  9 10  1  0
 10 11  2  0
 11  6  1  0
 12  4  1  0
 13 12  1  0
 14 13  1  0
 14 18  1  0
 15 16  1  0
 15 14  1  0
 16 17  1  0
 17 18  1  0
  6 19  1  0
  7 20  1  0
 10 21  1  0
 12 22  1  0
 12 23  1  0
 13 24  1  0
 13 25  1  0
 15 26  1  0
 15 27  1  0
 16 28  1  0
 16 29  1  0
 17 30  1  0
 17 31  1  0
 18 32  1  0
 18 33  1  0
M  ISO  8  19  14  20  14  21  14  22   8  23   8  24   8  25   8  26  13
M  ISO  7  27  13  28  13  29  13  30  13  31  13  32  13  33  13
M  END
>  <minimizedAffinity>  (1) 
-4.37291622

>  <minimizedRMSD>  (1) 
0.688468397

$$$$
