
     RDKit          3D

 28 30  0  0  0  0  0  0  0  0999 V2000
   37.9510   25.1270   34.7960 C   0  0  0  0  0  0  0  0  0  0  0  0
   37.8390   24.8460   33.4750 N   0  0  0  0  0  0  0  0  0  0  0  0
   37.3020   25.8920   32.8920 O   0  0  0  0  0  0  0  0  0  0  0  0
   37.0590   26.8400   33.7670 C   0  0  0  0  0  0  0  0  0  0  0  0
   37.4520   26.3910   34.9450 N   0  0  0  0  0  0  0  0  0  0  0  0
   38.3020   23.7300   38.2480 C   0  0  0  0  0  0  0  0  0  0  0  0
   37.7630   24.4620   37.1920 C   0  0  0  0  0  0  0  0  0  0  0  0
   38.4520   24.3910   35.9500 C   0  0  0  0  0  0  0  0  0  0  0  0
   39.5930   23.6160   35.8690 N   0  0  0  0  0  0  0  0  0  0  0  0
   40.0470   22.9440   36.9270 C   0  0  0  0  0  0  0  0  0  0  0  0
   39.4130   22.9970   38.1030 N   0  0  0  0  0  0  0  0  0  0  0  0
   36.4560   28.1440   33.4290 C   0  0  0  0  0  0  0  0  0  0  0  0
   35.7200   28.0390   32.1280 C   0  0  0  0  0  0  0  0  0  0  0  0
   36.3440   28.6900   30.9840 C   0  0  0  0  0  0  0  0  0  0  0  0
   36.7100   29.9580   30.5960 C   0  0  0  0  0  0  0  0  0  0  0  0
   37.2930   29.9790   29.3840 N   0  0  0  0  0  0  0  0  0  0  0  0
   37.3280   28.7150   28.9370 C   0  0  0  0  0  0  0  0  0  0  0  0
   36.7600   27.9660   29.8980 N   0  0  0  0  0  0  0  0  0  0  0  0
   37.8013   23.7550   39.2271 H   0  0  0  0  0  0  0  0  0  0  0  0
   36.8506   25.0644   37.3129 H   0  0  0  0  0  0  0  0  0  0  0  0
   40.9585   22.3357   36.8309 H   0  0  0  0  0  0  0  0  0  0  0  0
   35.7543   28.4390   34.2231 H   0  0  0  0  0  0  0  0  0  0  0  0
   37.2503   28.8995   33.3378 H   0  0  0  0  0  0  0  0  0  0  0  0
   35.6113   26.9709   31.8887 H   0  0  0  0  0  0  0  0  0  0  0  0
   34.7673   28.5661   32.2843 H   0  0  0  0  0  0  0  0  0  0  0  0
   36.5442   30.8559   31.2094 H   0  0  0  0  0  0  0  0  0  0  0  0
   37.7380   28.3628   27.9790 H   0  0  0  0  0  0  0  0  0  0  0  0
   36.6482   26.9447   29.8247 H   0  0  0  0  0  0  0  0  0  0  0  0
  1  5  1  0
  1  8  1  0
  2  1  2  0
  3  2  1  0
  3  4  1  0
  4  5  2  0
  7  6  2  0
  8  7  1  0
  9  8  2  0
  9 10  1  0
 10 11  2  0
 11  6  1  0
 12  4  1  0
 13 12  1  0
 14 13  1  0
 15 14  2  0
 16 15  1  0
 17 16  2  0
 17 18  1  0
 18 14  1  0
  6 19  1  0
  7 20  1  0
 10 21  1  0
 12 22  1  0
 12 23  1  0
 13 24  1  0
 13 25  1  0
 15 26  1  0
 17 27  1  0
 18 28  1  0
M  ISO  8  19  14  20  14  21  14  22   8  23   8  24   8  25   8  26  14
M  ISO  2  27  14  28   9
M  END
>  <minimizedAffinity>  (1) 
-4.63198137

>  <minimizedRMSD>  (1) 
1.53322196

$$$$
