
     RDKit          3D

 29 31  0  0  0  0  0  0  0  0999 V2000
   43.3480   22.6240   33.8740 C   0  0  0  0  0  0  0  0  0  0  0  0
   43.2860   23.9270   34.4050 C   0  0  0  0  0  0  0  0  0  0  0  0
   44.9640   24.6450   33.9490 S   0  0  0  0  0  0  0  0  0  0  0  0
   45.4160   22.9970   33.1130 C   0  0  0  0  0  0  0  0  0  0  0  0
   44.4860   22.4110   33.2930 N   0  0  0  0  0  0  0  0  0  0  0  0
   46.6640   22.6760   32.4440 N   0  0  0  0  0  0  0  0  0  0  0  0
   47.5630   22.0530   33.2260 C   0  0  0  0  0  0  0  0  0  0  0  0
   48.6810   21.8270   32.4290 C   0  0  0  0  0  0  0  0  0  0  0  0
   48.3860   22.3300   31.2070 N   0  0  0  0  0  0  0  0  0  0  0  0
   47.1560   22.8490   31.2150 C   0  0  0  0  0  0  0  0  0  0  0  0
   46.3800   23.4910   30.2020 C   0  0  0  0  0  0  0  0  0  0  0  0
   46.2530   24.7350   30.1650 O   0  0  0  0  0  0  0  0  0  0  0  0
   41.9150   21.5790   34.0950 S   0  0  0  0  0  0  0  0  0  0  0  0
   40.4630   22.3790   37.7100 C   0  0  0  0  0  0  0  0  0  0  0  0
   39.3080   23.1340   37.4500 C   0  0  0  0  0  0  0  0  0  0  0  0
   38.9930   23.3880   36.1140 C   0  0  0  0  0  0  0  0  0  0  0  0
   39.8070   22.9000   35.1270 N   0  0  0  0  0  0  0  0  0  0  0  0
   40.9200   22.1700   35.4390 C   0  0  0  0  0  0  0  0  0  0  0  0
   41.2270   21.9240   36.7170 N   0  0  0  0  0  0  0  0  0  0  0  0
   38.4130   23.6730   38.5070 C   0  0  0  0  0  0  0  0  0  0  0  0
   39.2010   23.8580   39.6210 F   0  0  0  0  0  0  0  0  0  0  0  0
   37.3980   22.8230   38.8230 F   0  0  0  0  0  0  0  0  0  0  0  0
   37.9890   24.9680   38.1800 F   0  0  0  0  0  0  0  0  0  0  0  0
   42.4604   24.4064   34.9514 H   0  0  0  0  0  0  0  0  0  0  0  0
   47.4394   21.7773   34.2837 H   0  0  0  0  0  0  0  0  0  0  0  0
   49.6182   21.3371   32.7316 H   0  0  0  0  0  0  0  0  0  0  0  0
   45.8825   22.8772   29.4366 H   0  0  0  0  0  0  0  0  0  0  0  0
   40.7421   22.1592   38.7511 H   0  0  0  0  0  0  0  0  0  0  0  0
   38.0990   23.9749   35.8565 H   0  0  0  0  0  0  0  0  0  0  0  0
  1 13  1  0
  1  2  2  0
  3  2  1  0
  4  5  2  0
  4  3  1  0
  5  1  1  0
  6  4  1  0
  6  7  1  0
  8  7  2  0
  9 10  2  0
  9  8  1  0
 10  6  1  0
 11 10  1  0
 12 11  2  0
 13 18  1  0
 15 14  2  0
 15 20  1  0
 16 15  1  0
 17 18  1  0
 17 16  2  0
 18 19  2  0
 19 14  1  0
 20 22  1  0
 20 21  1  0
 23 20  1  0
  2 24  1  0
  7 25  1  0
  8 26  1  0
 11 27  1  0
 14 28  1  0
 16 29  1  0
M  ISO  6  24  14  25  14  26  14  27   6  28  14  29  14
M  END
>  <minimizedAffinity>  (1) 
-3.6342721

>  <minimizedRMSD>  (1) 
0.228658319

$$$$
