
     RDKit          3D

 42 46  0  0  0  0  0  0  0  0999 V2000
   35.7670   28.0170   32.2600 C   0  0  0  0  0  0  0  0  0  0  0  0
   36.4310   28.8190   31.2360 C   0  0  0  0  0  0  0  0  0  0  0  0
   36.2960   30.1260   30.8380 C   0  0  0  0  0  0  0  0  0  0  0  0
   37.1460   30.4170   29.8310 N   0  0  0  0  0  0  0  0  0  0  0  0
   37.8370   29.3120   29.5630 C   0  0  0  0  0  0  0  0  0  0  0  0
   37.4090   28.3520   30.4060 N   0  0  0  0  0  0  0  0  0  0  0  0
   37.9370   27.0280   30.4010 C   0  0  0  0  0  0  0  0  0  0  0  0
   39.2340   26.8420   30.0750 N   0  0  0  0  0  0  0  0  0  0  0  0
   39.7990   25.6270   30.0500 C   0  0  0  0  0  0  0  0  0  0  0  0
   39.1080   24.4940   30.3470 N   0  0  0  0  0  0  0  0  0  0  0  0
   37.7940   24.6440   30.6810 C   0  0  0  0  0  0  0  0  0  0  0  0
   37.0470   23.5080   30.9940 C   0  0  0  0  0  0  0  0  0  0  0  0
   35.7210   23.7280   31.3240 C   0  0  0  0  0  0  0  0  0  0  0  0
   35.0950   24.9600   31.3640 C   0  0  0  0  0  0  0  0  0  0  0  0
   35.8920   26.0400   31.0430 C   0  0  0  0  0  0  0  0  0  0  0  0
   37.2210   25.8880   30.7060 C   0  0  0  0  0  0  0  0  0  0  0  0
   36.1150   28.2970   33.6810 C   0  0  0  0  0  0  0  0  0  0  0  0
   38.3920   25.9090   35.1910 C   0  0  0  0  0  0  0  0  0  0  0  0
   39.1430   26.5030   34.2420 N   0  0  0  0  0  0  0  0  0  0  0  0
   38.3970   27.3950   33.6330 O   0  0  0  0  0  0  0  0  0  0  0  0
   37.1920   27.4060   34.1450 C   0  0  0  0  0  0  0  0  0  0  0  0
   37.1590   26.4980   35.1110 N   0  0  0  0  0  0  0  0  0  0  0  0
   38.1740   23.8200   38.2940 C   0  0  0  0  0  0  0  0  0  0  0  0
   37.8940   24.8420   37.3930 C   0  0  0  0  0  0  0  0  0  0  0  0
   38.6370   24.8660   36.1760 C   0  0  0  0  0  0  0  0  0  0  0  0
   39.5770   23.8820   35.9770 N   0  0  0  0  0  0  0  0  0  0  0  0
   39.7970   22.9290   36.8840 C   0  0  0  0  0  0  0  0  0  0  0  0
   39.1100   22.8970   38.0200 N   0  0  0  0  0  0  0  0  0  0  0  0
   36.0096   26.9625   32.0623 H   0  0  0  0  0  0  0  0  0  0  0  0
   34.7015   28.2767   32.1744 H   0  0  0  0  0  0  0  0  0  0  0  0
   35.5882   30.8418   31.2815 H   0  0  0  0  0  0  0  0  0  0  0  0
   38.6155   29.2022   28.7937 H   0  0  0  0  0  0  0  0  0  0  0  0
   40.8618   25.5430   29.7790 H   0  0  0  0  0  0  0  0  0  0  0  0
   37.4851   22.4991   30.9794 H   0  0  0  0  0  0  0  0  0  0  0  0
   35.1129   22.8467   31.5762 H   0  0  0  0  0  0  0  0  0  0  0  0
   34.0343   25.0718   31.6332 H   0  0  0  0  0  0  0  0  0  0  0  0
   35.4556   27.0496   31.0562 H   0  0  0  0  0  0  0  0  0  0  0  0
   36.4482   29.3415   33.7709 H   0  0  0  0  0  0  0  0  0  0  0  0
   35.2236   28.1227   34.3015 H   0  0  0  0  0  0  0  0  0  0  0  0
   37.6213   23.7672   39.2436 H   0  0  0  0  0  0  0  0  0  0  0  0
   37.1293   25.6021   37.6107 H   0  0  0  0  0  0  0  0  0  0  0  0
   40.5579   22.1591   36.6883 H   0  0  0  0  0  0  0  0  0  0  0  0
  1 17  1  0
  2  1  1  0
  3  2  2  0
  4  3  1  0
  5  4  2  0
  5  6  1  0
  6  2  1  0
  7  6  1  0
  7 16  1  0
  8  7  2  0
  9  8  1  0
  9 10  2  0
 10 11  1  0
 11 16  2  0
 11 12  1  0
 12 13  2  0
 13 14  1  0
 15 14  2  0
 16 15  1  0
 17 21  1  0
 18 25  1  0
 19 18  2  0
 20 21  1  0
 20 19  1  0
 21 22  2  0
 22 18  1  0
 24 23  2  0
 25 24  1  0
 26 25  2  0
 26 27  1  0
 27 28  2  0
 28 23  1  0
  1 29  1  0
  1 30  1  0
  3 31  1  0
  5 32  1  0
  9 33  1  0
 12 34  1  0
 13 35  1  0
 14 36  1  0
 15 37  1  0
 17 38  1  0
 17 39  1  0
 23 40  1  0
 24 41  1  0
 27 42  1  0
M  ISO  8  29   8  30   8  31  14  32  14  33  14  34  14  35  14  36  14
M  ISO  6  37  14  38   8  39   8  40  14  41  14  42  14
M  END
>  <minimizedAffinity>  (1) 
-5.98573875

>  <minimizedRMSD>  (1) 
1.42180431

$$$$
