
     RDKit          3D

 40 43  0  0  1  0  0  0  0  0999 V2000
   36.3690   28.3710   34.2810 C   0  0  0  0  0  0  0  0  0  0  0  0
   37.9720   25.2280   35.1420 C   0  0  0  0  0  0  0  0  0  0  0  0
   37.7210   25.0990   33.8270 N   0  0  0  0  0  0  0  0  0  0  0  0
   37.1320   26.2080   33.4300 O   0  0  0  0  0  0  0  0  0  0  0  0
   36.9890   27.0490   34.4130 C   0  0  0  0  0  0  0  0  0  0  0  0
   37.4980   26.4730   35.4880 N   0  0  0  0  0  0  0  0  0  0  0  0
   38.6640   23.4520   38.3660 C   0  0  0  0  0  0  0  0  0  0  0  0
   38.0070   24.2800   37.4480 C   0  0  0  0  0  0  0  0  0  0  0  0
   38.5860   24.3880   36.1630 C   0  0  0  0  0  0  0  0  0  0  0  0
   39.7520   23.6800   35.8970 N   0  0  0  0  0  0  0  0  0  0  0  0
   40.3190   22.9150   36.8160 C   0  0  0  0  0  0  0  0  0  0  0  0
   39.7870   22.7960   38.0440 N   0  0  0  0  0  0  0  0  0  0  0  0
   35.6630   28.5010   32.9770 C   0  0  0  0  0  0  0  0  0  0  0  0
   36.0590   29.6060   32.1060 C   0  0  0  0  0  0  0  0  0  0  0  0
   35.9400   30.9800   32.1780 C   0  0  0  0  0  0  0  0  0  0  0  0
   36.4810   31.5610   31.1040 N   0  0  0  0  0  0  0  0  0  0  0  0
   36.9610   30.6080   30.3100 C   0  0  0  0  0  0  0  0  0  0  0  0
   36.7090   29.4410   30.9100 N   0  0  0  0  0  0  0  0  0  0  0  0
   37.1320   28.3620   28.8020 N   0  0  0  0  0  0  0  0  0  0  0  0
   38.4890   28.3970   28.3420 C   0  0  0  0  0  0  0  0  0  0  0  0
   39.3380   27.7040   29.3700 C   0  0  0  0  0  0  0  0  0  0  0  0
   38.5370   27.8140   30.6370 C   0  0  0  0  0  0  0  0  0  0  0  0
   37.1350   28.2140   30.2460 C   0  0  1  0  0  0  0  0  0  0  0  0
   35.6455   28.5122   35.0975 H   0  0  0  0  0  0  0  0  0  0  0  0
   37.1588   29.1351   34.3297 H   0  0  0  0  0  0  0  0  0  0  0  0
   38.2476   23.3370   39.3776 H   0  0  0  0  0  0  0  0  0  0  0  0
   37.0860   24.8197   37.7135 H   0  0  0  0  0  0  0  0  0  0  0  0
   41.2410   22.3676   36.5705 H   0  0  0  0  0  0  0  0  0  0  0  0
   35.8249   27.5667   32.4194 H   0  0  0  0  0  0  0  0  0  0  0  0
   34.6168   28.7128   33.2429 H   0  0  0  0  0  0  0  0  0  0  0  0
   35.4639   31.5227   33.0079 H   0  0  0  0  0  0  0  0  0  0  0  0
   37.4681   30.7528   29.3447 H   0  0  0  0  0  0  0  0  0  0  0  0
   36.6407   27.5650   28.3727 H   0  0  0  0  0  0  0  0  0  0  0  0
   38.5707   27.8768   27.3762 H   0  0  0  0  0  0  0  0  0  0  0  0
   38.8223   29.4362   28.2042 H   0  0  0  0  0  0  0  0  0  0  0  0
   39.4981   26.6500   29.0988 H   0  0  0  0  0  0  0  0  0  0  0  0
   40.3395   28.1496   29.4622 H   0  0  0  0  0  0  0  0  0  0  0  0
   38.5210   26.8453   31.1580 H   0  0  0  0  0  0  0  0  0  0  0  0
   38.9801   28.5578   31.3156 H   0  0  0  0  0  0  0  0  0  0  0  0
   36.4154   27.4452   30.5641 H   0  0  0  0  0  0  0  0  0  0  0  0
  1  5  1  0
  2  6  1  0
  2  9  1  0
  3  2  2  0
  4  3  1  0
  4  5  1  0
  5  6  2  0
  8  7  2  0
  9  8  1  0
 10  9  2  0
 10 11  1  0
 11 12  2  0
 12  7  1  0
 13  1  1  0
 14 15  2  0
 14 13  1  0
 16 15  1  0
 17 18  1  0
 17 16  2  0
 18 14  1  0
 19 23  1  0
 20 19  1  0
 20 21  1  0
 21 22  1  0
 23 22  1  0
 23 18  1  0
  1 24  1  0
  1 25  1  0
  7 26  1  0
  8 27  1  0
 11 28  1  0
 13 29  1  0
 13 30  1  0
 15 31  1  0
 17 32  1  0
 19 33  1  0
 20 34  1  0
 20 35  1  0
 21 36  1  0
 21 37  1  0
 22 38  1  0
 22 39  1  0
 23 40  1  6
M  ISO  8  24   8  25   8  26  14  27  14  28  14  29   8  30   8  31  14
M  ISO  8  32  14  33   5  34  13  35  13  36  13  37  13  38  13  39  13
M  ISO  1  40  13
M  END
>  <minimizedAffinity>  (1) 
-5.36613512

>  <minimizedRMSD>  (1) 
1.67046487

$$$$
