
     RDKit          3D

 35 38  0  0  0  0  0  0  0  0999 V2000
   36.4440   28.5300   34.4880 C   0  0  0  0  0  0  0  0  0  0  0  0
   37.9340   25.3070   35.2540 C   0  0  0  0  0  0  0  0  0  0  0  0
   37.6050   25.2020   33.9560 N   0  0  0  0  0  0  0  0  0  0  0  0
   37.0520   26.3450   33.5950 O   0  0  0  0  0  0  0  0  0  0  0  0
   37.0060   27.1820   34.5930 C   0  0  0  0  0  0  0  0  0  0  0  0
   37.5420   26.5660   35.6260 N   0  0  0  0  0  0  0  0  0  0  0  0
   38.7000   23.4490   38.4150 C   0  0  0  0  0  0  0  0  0  0  0  0
   38.0170   24.3090   37.5450 C   0  0  0  0  0  0  0  0  0  0  0  0
   38.5610   24.4360   36.2460 C   0  0  0  0  0  0  0  0  0  0  0  0
   39.7090   23.7170   35.9240 N   0  0  0  0  0  0  0  0  0  0  0  0
   40.2880   22.9260   36.8120 C   0  0  0  0  0  0  0  0  0  0  0  0
   39.7990   22.7880   38.0400 N   0  0  0  0  0  0  0  0  0  0  0  0
   35.6110   28.6760   33.2630 C   0  0  0  0  0  0  0  0  0  0  0  0
   36.0450   29.6700   32.2840 C   0  0  0  0  0  0  0  0  0  0  0  0
   35.8360   31.0140   32.1180 C   0  0  0  0  0  0  0  0  0  0  0  0
   36.4770   31.4750   31.0270 N   0  0  0  0  0  0  0  0  0  0  0  0
   37.1160   30.4570   30.4580 C   0  0  0  0  0  0  0  0  0  0  0  0
   36.8560   29.3830   31.2100 N   0  0  0  0  0  0  0  0  0  0  0  0
   37.3750   28.0650   30.9190 C   0  0  0  0  0  0  0  0  0  0  0  0
   38.7160   27.7160   30.7240 C   0  0  0  0  0  0  0  0  0  0  0  0
   38.6860   26.3560   30.4800 C   0  0  0  0  0  0  0  0  0  0  0  0
   37.4290   25.9100   30.5210 N   0  0  0  0  0  0  0  0  0  0  0  0
   36.6400   26.9390   30.7850 N   0  0  0  0  0  0  0  0  0  0  0  0
   35.8192   28.7273   35.3716 H   0  0  0  0  0  0  0  0  0  0  0  0
   37.2749   29.2485   34.4299 H   0  0  0  0  0  0  0  0  0  0  0  0
   38.3198   23.3138   39.4383 H   0  0  0  0  0  0  0  0  0  0  0  0
   37.1120   24.8527   37.8539 H   0  0  0  0  0  0  0  0  0  0  0  0
   41.1939   22.3704   36.5279 H   0  0  0  0  0  0  0  0  0  0  0  0
   35.5889   27.6992   32.7576 H   0  0  0  0  0  0  0  0  0  0  0  0
   34.6341   29.0331   33.6210 H   0  0  0  0  0  0  0  0  0  0  0  0
   35.2243   31.6355   32.7885 H   0  0  0  0  0  0  0  0  0  0  0  0
   37.7352   30.4918   29.5495 H   0  0  0  0  0  0  0  0  0  0  0  0
   39.5958   28.3755   30.7574 H   0  0  0  0  0  0  0  0  0  0  0  0
   39.5697   25.7320   30.2810 H   0  0  0  0  0  0  0  0  0  0  0  0
   37.1263   24.9366   30.3732 H   0  0  0  0  0  0  0  0  0  0  0  0
  1  5  1  0
  2  6  1  0
  2  9  1  0
  3  2  2  0
  4  3  1  0
  4  5  1  0
  5  6  2  0
  8  7  2  0
  9  8  1  0
 10  9  2  0
 10 11  1  0
 11 12  2  0
 12  7  1  0
 13  1  1  0
 14 13  1  0
 15 14  2  0
 16 15  1  0
 17 16  2  0
 17 18  1  0
 18 14  1  0
 19 18  1  0
 20 19  1  0
 21 22  1  0
 21 20  2  0
 22 23  1  0
 23 19  2  0
  1 24  1  0
  1 25  1  0
  7 26  1  0
  8 27  1  0
 11 28  1  0
 13 29  1  0
 13 30  1  0
 15 31  1  0
 17 32  1  0
 20 33  1  0
 21 34  1  0
 22 35  1  0
M  ISO  8  24   8  25   8  26  14  27  14  28  14  29   8  30   8  31  14
M  ISO  4  32  14  33  14  34  14  35   9
M  END
>  <minimizedAffinity>  (1) 
-5.31260538

>  <minimizedRMSD>  (1) 
1.54764688

$$$$
