
     RDKit          3D

 37 40  0  0  0  0  0  0  0  0999 V2000
   36.7260   28.3570   34.4200 C   0  0  0  0  0  0  0  0  0  0  0  0
   37.9990   25.1420   35.5050 C   0  0  0  0  0  0  0  0  0  0  0  0
   37.5480   24.8920   34.2450 N   0  0  0  0  0  0  0  0  0  0  0  0
   37.0650   26.0230   33.7790 O   0  0  0  0  0  0  0  0  0  0  0  0
   37.1760   26.9830   34.6520 C   0  0  0  0  0  0  0  0  0  0  0  0
   37.7470   26.4570   35.7200 N   0  0  0  0  0  0  0  0  0  0  0  0
   38.7230   23.4610   38.7590 C   0  0  0  0  0  0  0  0  0  0  0  0
   38.0610   24.2820   37.8380 C   0  0  0  0  0  0  0  0  0  0  0  0
   38.6280   24.3140   36.5230 C   0  0  0  0  0  0  0  0  0  0  0  0
   39.7470   23.5610   36.2650 N   0  0  0  0  0  0  0  0  0  0  0  0
   40.3130   22.8070   37.2030 C   0  0  0  0  0  0  0  0  0  0  0  0
   39.8160   22.7540   38.4330 N   0  0  0  0  0  0  0  0  0  0  0  0
   35.7230   28.4120   33.3210 C   0  0  0  0  0  0  0  0  0  0  0  0
   36.1580   29.0170   32.0650 C   0  0  0  0  0  0  0  0  0  0  0  0
   36.3220   30.3100   31.6210 C   0  0  0  0  0  0  0  0  0  0  0  0
   36.7580   30.3420   30.3580 N   0  0  0  0  0  0  0  0  0  0  0  0
   36.8940   29.0870   29.9350 C   0  0  0  0  0  0  0  0  0  0  0  0
   36.5360   28.3000   30.9520 N   0  0  0  0  0  0  0  0  0  0  0  0
   36.5420   26.8560   30.8980 C   0  0  0  0  0  0  0  0  0  0  0  0
   35.2810   26.2980   31.0240 C   0  0  0  0  0  0  0  0  0  0  0  0
   35.0900   24.9330   30.9960 C   0  0  0  0  0  0  0  0  0  0  0  0
   36.2010   24.1230   30.8350 C   0  0  0  0  0  0  0  0  0  0  0  0
   37.4500   24.7320   30.7130 C   0  0  0  0  0  0  0  0  0  0  0  0
   37.6250   26.0640   30.7420 N   0  0  0  0  0  0  0  0  0  0  0  0
   36.2707   28.7469   35.3423 H   0  0  0  0  0  0  0  0  0  0  0  0
   37.5953   28.9663   34.1317 H   0  0  0  0  0  0  0  0  0  0  0  0
   38.3336   23.3932   39.7855 H   0  0  0  0  0  0  0  0  0  0  0  0
   37.1662   24.8630   38.1061 H   0  0  0  0  0  0  0  0  0  0  0  0
   41.2080   22.2173   36.9556 H   0  0  0  0  0  0  0  0  0  0  0  0
   35.4105   27.3801   33.1031 H   0  0  0  0  0  0  0  0  0  0  0  0
   34.9212   29.0661   33.6942 H   0  0  0  0  0  0  0  0  0  0  0  0
   36.1197   31.2040   32.2292 H   0  0  0  0  0  0  0  0  0  0  0  0
   37.2350   28.7619   28.9410 H   0  0  0  0  0  0  0  0  0  0  0  0
   34.4111   26.9595   31.1494 H   0  0  0  0  0  0  0  0  0  0  0  0
   34.0840   24.5001   31.0986 H   0  0  0  0  0  0  0  0  0  0  0  0
   36.1015   23.0279   30.8041 H   0  0  0  0  0  0  0  0  0  0  0  0
   38.3347   24.0907   30.5869 H   0  0  0  0  0  0  0  0  0  0  0  0
  1  5  1  0
  2  6  1  0
  2  9  1  0
  3  2  2  0
  4  3  1  0
  4  5  1  0
  5  6  2  0
  8  7  2  0
  9  8  1  0
 10  9  2  0
 10 11  1  0
 11 12  2  0
 12  7  1  0
 13  1  1  0
 14 13  1  0
 15 14  2  0
 16 15  1  0
 17 16  2  0
 17 18  1  0
 18 14  1  0
 19 18  1  0
 19 20  2  0
 21 20  1  0
 22 21  2  0
 23 24  2  0
 23 22  1  0
 24 19  1  0
  1 25  1  0
  1 26  1  0
  7 27  1  0
  8 28  1  0
 11 29  1  0
 13 30  1  0
 13 31  1  0
 15 32  1  0
 17 33  1  0
 20 34  1  0
 21 35  1  0
 22 36  1  0
 23 37  1  0
M  ISO  8  25   8  26   8  27  14  28  14  29  14  30   8  31   8  32  14
M  ISO  5  33  14  34  14  35  14  36  14  37  14
M  END
>  <minimizedAffinity>  (1) 
-5.27577591

>  <minimizedRMSD>  (1) 
1.01106024

$$$$
