
     RDKit          3D

 36 39  0  0  0  0  0  0  0  0999 V2000
   36.6960   28.3730   34.4540 C   0  0  0  0  0  0  0  0  0  0  0  0
   37.9910   25.1550   35.4930 C   0  0  0  0  0  0  0  0  0  0  0  0
   37.5520   24.9100   34.2260 N   0  0  0  0  0  0  0  0  0  0  0  0
   37.0590   26.0410   33.7700 O   0  0  0  0  0  0  0  0  0  0  0  0
   37.1590   26.9930   34.6680 C   0  0  0  0  0  0  0  0  0  0  0  0
   37.7310   26.4730   35.7470 N   0  0  0  0  0  0  0  0  0  0  0  0
   38.7360   23.4330   38.7190 C   0  0  0  0  0  0  0  0  0  0  0  0
   38.0630   24.2630   37.8160 C   0  0  0  0  0  0  0  0  0  0  0  0
   38.6260   24.3170   36.5080 C   0  0  0  0  0  0  0  0  0  0  0  0
   39.7500   23.5770   36.2340 N   0  0  0  0  0  0  0  0  0  0  0  0
   40.3330   22.8110   37.1470 C   0  0  0  0  0  0  0  0  0  0  0  0
   39.8380   22.7350   38.3750 N   0  0  0  0  0  0  0  0  0  0  0  0
   35.7040   28.4360   33.3460 C   0  0  0  0  0  0  0  0  0  0  0  0
   36.1540   28.9950   32.0750 C   0  0  0  0  0  0  0  0  0  0  0  0
   36.3840   30.2780   31.6200 C   0  0  0  0  0  0  0  0  0  0  0  0
   36.7990   30.2690   30.3470 N   0  0  0  0  0  0  0  0  0  0  0  0
   36.8510   29.0060   29.9340 C   0  0  0  0  0  0  0  0  0  0  0  0
   36.4650   28.2550   30.9700 N   0  0  0  0  0  0  0  0  0  0  0  0
   36.3890   26.8150   30.9110 C   0  0  0  0  0  0  0  0  0  0  0  0
   35.2910   26.0220   31.0180 C   0  0  0  0  0  0  0  0  0  0  0  0
   35.4300   24.6520   30.9340 C   0  0  0  0  0  0  0  0  0  0  0  0
   36.6600   24.1260   30.7460 N   0  0  0  0  0  0  0  0  0  0  0  0
   37.7560   24.8970   30.6380 C   0  0  0  0  0  0  0  0  0  0  0  0
   37.6050   26.2360   30.7220 N   0  0  0  0  0  0  0  0  0  0  0  0
   36.2275   28.7428   35.3780 H   0  0  0  0  0  0  0  0  0  0  0  0
   37.5619   28.9960   34.1856 H   0  0  0  0  0  0  0  0  0  0  0  0
   38.3528   23.3464   39.7465 H   0  0  0  0  0  0  0  0  0  0  0  0
   37.1644   24.8326   38.0954 H   0  0  0  0  0  0  0  0  0  0  0  0
   41.2326   22.2353   36.8838 H   0  0  0  0  0  0  0  0  0  0  0  0
   35.3598   27.4094   33.1520 H   0  0  0  0  0  0  0  0  0  0  0  0
   34.9283   29.1305   33.7009 H   0  0  0  0  0  0  0  0  0  0  0  0
   36.2448   31.1872   32.2233 H   0  0  0  0  0  0  0  0  0  0  0  0
   37.1519   28.6501   28.9376 H   0  0  0  0  0  0  0  0  0  0  0  0
   34.2977   26.4694   31.1706 H   0  0  0  0  0  0  0  0  0  0  0  0
   34.5507   23.9965   31.0190 H   0  0  0  0  0  0  0  0  0  0  0  0
   38.7490   24.4490   30.4853 H   0  0  0  0  0  0  0  0  0  0  0  0
  1  5  1  0
  2  6  1  0
  2  9  1  0
  3  2  2  0
  4  3  1  0
  4  5  1  0
  5  6  2  0
  8  7  2  0
  9  8  1  0
 10  9  2  0
 10 11  1  0
 11 12  2  0
 12  7  1  0
 13  1  1  0
 14 13  1  0
 15 14  2  0
 16 15  1  0
 17 16  2  0
 17 18  1  0
 18 14  1  0
 19 18  1  0
 19 20  2  0
 21 20  1  0
 22 21  2  0
 23 24  2  0
 23 22  1  0
 24 19  1  0
  1 25  1  0
  1 26  1  0
  7 27  1  0
  8 28  1  0
 11 29  1  0
 13 30  1  0
 13 31  1  0
 15 32  1  0
 17 33  1  0
 20 34  1  0
 21 35  1  0
 23 36  1  0
M  ISO  8  25   8  26   8  27  14  28  14  29  14  30   8  31   8  32  14
M  ISO  4  33  14  34  14  35  14  36  14
M  END
>  <minimizedAffinity>  (1) 
-5.23988771

>  <minimizedRMSD>  (1) 
1.00381672

$$$$
