
     RDKit          3D

 30 32  0  0  0  0  0  0  0  0999 V2000
   43.3790   22.6450   33.9020 C   0  0  0  0  0  0  0  0  0  0  0  0
   43.3050   23.9600   34.3950 C   0  0  0  0  0  0  0  0  0  0  0  0
   45.0020   24.6390   33.9930 S   0  0  0  0  0  0  0  0  0  0  0  0
   45.4850   22.9860   33.2250 C   0  0  0  0  0  0  0  0  0  0  0  0
   44.5410   22.4220   33.3830 N   0  0  0  0  0  0  0  0  0  0  0  0
   46.7540   22.6290   32.6220 N   0  0  0  0  0  0  0  0  0  0  0  0
   47.6090   22.0030   33.4560 C   0  0  0  0  0  0  0  0  0  0  0  0
   48.7530   21.7330   32.7350 C   0  0  0  0  0  0  0  0  0  0  0  0
   48.5340   22.2130   31.4870 N   0  0  0  0  0  0  0  0  0  0  0  0
   47.3150   22.7600   31.4170 C   0  0  0  0  0  0  0  0  0  0  0  0
   46.5940   23.4010   30.3450 C   0  0  0  0  0  0  0  0  0  0  0  0
   45.9870   22.7190   29.4820 O   0  0  0  0  0  0  0  0  0  0  0  0
   46.6040   24.7890   30.3170 O   0  0  0  0  0  0  0  0  0  0  0  0
   41.9330   21.6080   34.0860 S   0  0  0  0  0  0  0  0  0  0  0  0
   40.4710   22.3910   37.7210 C   0  0  0  0  0  0  0  0  0  0  0  0
   39.3110   23.1300   37.4510 C   0  0  0  0  0  0  0  0  0  0  0  0
   38.9990   23.3760   36.1150 C   0  0  0  0  0  0  0  0  0  0  0  0
   39.8160   22.9010   35.1230 N   0  0  0  0  0  0  0  0  0  0  0  0
   40.9360   22.1830   35.4490 C   0  0  0  0  0  0  0  0  0  0  0  0
   41.2430   21.9420   36.7370 N   0  0  0  0  0  0  0  0  0  0  0  0
   38.4120   23.6560   38.5070 C   0  0  0  0  0  0  0  0  0  0  0  0
   39.2070   23.8710   39.6350 F   0  0  0  0  0  0  0  0  0  0  0  0
   37.3890   22.8400   38.8100 F   0  0  0  0  0  0  0  0  0  0  0  0
   37.9790   24.9640   38.1660 F   0  0  0  0  0  0  0  0  0  0  0  0
   42.4621   24.4628   34.8917 H   0  0  0  0  0  0  0  0  0  0  0  0
   47.4280   21.7546   34.5122 H   0  0  0  0  0  0  0  0  0  0  0  0
   49.6605   21.2294   33.0996 H   0  0  0  0  0  0  0  0  0  0  0  0
   46.1229   25.2731   29.5999 H   0  0  0  0  0  0  0  0  0  0  0  0
   40.7468   22.1792   38.7646 H   0  0  0  0  0  0  0  0  0  0  0  0
   38.0974   23.9511   35.8572 H   0  0  0  0  0  0  0  0  0  0  0  0
  1 14  1  0
  1  2  2  0
  3  2  1  0
  4  5  2  0
  4  3  1  0
  5  1  1  0
  6  4  1  0
  6  7  1  0
  8  7  2  0
  9  8  1  0
 10  9  2  0
 10  6  1  0
 11 10  1  0
 12 11  2  0
 13 11  1  0
 14 19  1  0
 16 15  2  0
 16 21  1  0
 17 16  1  0
 18 19  1  0
 18 17  2  0
 19 20  2  0
 20 15  1  0
 21 23  1  0
 21 22  1  0
 24 21  1  0
  2 25  1  0
  7 26  1  0
  8 27  1  0
 13 28  1  0
 15 29  1  0
 17 30  1  0
M  ISO  6  25  14  26  14  27  14  28   3  29  14  30  14
M  END
>  <minimizedAffinity>  (1) 
-3.6368649

>  <minimizedRMSD>  (1) 
0.468412131

$$$$
