
     RDKit          3D

 41 44  0  0  0  0  0  0  0  0999 V2000
   36.3760   28.2740   33.7870 C   0  0  0  0  0  0  0  0  0  0  0  0
   37.9360   25.2250   34.9600 C   0  0  0  0  0  0  0  0  0  0  0  0
   37.8050   25.0220   33.6350 N   0  0  0  0  0  0  0  0  0  0  0  0
   37.2360   26.1150   33.1490 O   0  0  0  0  0  0  0  0  0  0  0  0
   36.9980   26.9890   34.0680 C   0  0  0  0  0  0  0  0  0  0  0  0
   37.4230   26.4600   35.1920 N   0  0  0  0  0  0  0  0  0  0  0  0
   38.4170   23.6260   38.3040 C   0  0  0  0  0  0  0  0  0  0  0  0
   37.8220   24.4220   37.3200 C   0  0  0  0  0  0  0  0  0  0  0  0
   38.4810   24.4250   36.0500 C   0  0  0  0  0  0  0  0  0  0  0  0
   39.6340   23.6610   35.8790 N   0  0  0  0  0  0  0  0  0  0  0  0
   40.1230   22.9340   36.8810 C   0  0  0  0  0  0  0  0  0  0  0  0
   39.5360   22.9090   38.0750 N   0  0  0  0  0  0  0  0  0  0  0  0
   35.6050   28.2670   32.5100 C   0  0  0  0  0  0  0  0  0  0  0  0
   35.7910   29.4050   31.6210 C   0  0  0  0  0  0  0  0  0  0  0  0
   35.2260   30.6930   31.6000 C   0  0  0  0  0  0  0  0  0  0  0  0
   35.7350   31.4140   30.6140 N   0  0  0  0  0  0  0  0  0  0  0  0
   36.6190   30.6240   29.9900 C   0  0  0  0  0  0  0  0  0  0  0  0
   36.6640   29.4300   30.5680 N   0  0  0  0  0  0  0  0  0  0  0  0
   37.5480   28.4800   29.9520 C   0  0  0  0  0  0  0  0  0  0  0  0
   38.7770   28.0380   30.5750 C   0  0  0  0  0  0  0  0  0  0  0  0
   39.1660   26.9410   29.5330 C   0  0  0  0  0  0  0  0  0  0  0  0
   39.2220   27.9270   28.3500 C   0  0  0  0  0  0  0  0  0  0  0  0
   37.9590   28.7850   28.5360 C   0  0  0  0  0  0  0  0  0  0  0  0
   35.6914   28.5226   34.6113 H   0  0  0  0  0  0  0  0  0  0  0  0
   37.1784   29.0201   33.6895 H   0  0  0  0  0  0  0  0  0  0  0  0
   37.9553   23.5832   39.3015 H   0  0  0  0  0  0  0  0  0  0  0  0
   36.9094   25.0061   37.5095 H   0  0  0  0  0  0  0  0  0  0  0  0
   41.0342   22.3396   36.7182 H   0  0  0  0  0  0  0  0  0  0  0  0
   35.8906   27.3615   31.9546 H   0  0  0  0  0  0  0  0  0  0  0  0
   34.5485   28.3101   32.8132 H   0  0  0  0  0  0  0  0  0  0  0  0
   34.4641   31.0523   32.3075 H   0  0  0  0  0  0  0  0  0  0  0  0
   37.2229   30.9230   29.1205 H   0  0  0  0  0  0  0  0  0  0  0  0
   36.8129   27.6701   30.0696 H   0  0  0  0  0  0  0  0  0  0  0  0
   39.5265   28.8410   30.6342 H   0  0  0  0  0  0  0  0  0  0  0  0
   38.6959   27.7043   31.6200 H   0  0  0  0  0  0  0  0  0  0  0  0
   40.1348   26.4658   29.7464 H   0  0  0  0  0  0  0  0  0  0  0  0
   38.5172   26.0573   29.4424 H   0  0  0  0  0  0  0  0  0  0  0  0
   39.1949   27.3908   27.3899 H   0  0  0  0  0  0  0  0  0  0  0  0
   40.1460   28.5236   28.3335 H   0  0  0  0  0  0  0  0  0  0  0  0
   38.1855   29.8542   28.4117 H   0  0  0  0  0  0  0  0  0  0  0  0
   37.1726   28.5643   27.7992 H   0  0  0  0  0  0  0  0  0  0  0  0
  1  5  1  0
  2  6  1  0
  2  9  1  0
  3  2  2  0
  4  3  1  0
  4  5  1  0
  5  6  2  0
  8  7  2  0
  9  8  1  0
 10  9  2  0
 10 11  1  0
 11 12  2  0
 12  7  1  0
 13  1  1  0
 14 13  1  0
 15 14  2  0
 16 15  1  0
 17 18  1  0
 17 16  2  0
 18 14  1  0
 19 18  1  0
 19 20  1  0
 21 20  1  0
 22 23  1  0
 22 21  1  0
 23 19  1  0
  1 24  1  0
  1 25  1  0
  7 26  1  0
  8 27  1  0
 11 28  1  0
 13 29  1  0
 13 30  1  0
 15 31  1  0
 17 32  1  0
 19 33  1  0
 20 34  1  0
 20 35  1  0
 21 36  1  0
 21 37  1  0
 22 38  1  0
 22 39  1  0
 23 40  1  0
 23 41  1  0
M  ISO  8  24   8  25   8  26  14  27  14  28  14  29   8  30   8  31  14
M  ISO  8  32  14  33  13  34  13  35  13  36  13  37  13  38  13  39  13
M  ISO  2  40  13  41  13
M  END
>  <minimizedAffinity>  (1) 
-4.95853329

>  <minimizedRMSD>  (1) 
1.78504825

$$$$
