
     RDKit          3D

 31 33  0  0  0  0  0  0  0  0999 V2000
   36.3890   28.5610   34.3890 C   0  0  0  0  0  0  0  0  0  0  0  0
   37.9170   25.3600   35.1600 C   0  0  0  0  0  0  0  0  0  0  0  0
   37.6230   25.2630   33.8490 N   0  0  0  0  0  0  0  0  0  0  0  0
   37.0610   26.3860   33.4750 O   0  0  0  0  0  0  0  0  0  0  0  0
   36.9730   27.2180   34.4870 C   0  0  0  0  0  0  0  0  0  0  0  0
   37.4950   26.6050   35.5370 N   0  0  0  0  0  0  0  0  0  0  0  0
   38.6270   23.4570   38.3030 C   0  0  0  0  0  0  0  0  0  0  0  0
   37.9670   24.3240   37.4270 C   0  0  0  0  0  0  0  0  0  0  0  0
   38.5370   24.4730   36.1380 C   0  0  0  0  0  0  0  0  0  0  0  0
   39.6900   23.7630   35.8310 N   0  0  0  0  0  0  0  0  0  0  0  0
   40.2590   22.9560   36.7190 C   0  0  0  0  0  0  0  0  0  0  0  0
   39.7350   22.8030   37.9410 N   0  0  0  0  0  0  0  0  0  0  0  0
   35.5420   28.6890   33.1660 C   0  0  0  0  0  0  0  0  0  0  0  0
   35.9340   29.7180   32.2000 C   0  0  0  0  0  0  0  0  0  0  0  0
   35.8790   31.1050   32.2350 C   0  0  0  0  0  0  0  0  0  0  0  0
   36.3840   31.6260   31.1150 N   0  0  0  0  0  0  0  0  0  0  0  0
   36.7660   30.6080   30.3530 C   0  0  0  0  0  0  0  0  0  0  0  0
   36.4970   29.4810   30.9990 N   0  0  0  0  0  0  0  0  0  0  0  0
   36.8430   28.2390   30.3220 C   0  0  0  0  0  0  0  0  0  0  0  0
   37.1180   28.4120   28.9790 F   0  0  0  0  0  0  0  0  0  0  0  0
   38.0470   27.7590   30.8640 F   0  0  0  0  0  0  0  0  0  0  0  0
   35.9680   27.2310   30.4240 F   0  0  0  0  0  0  0  0  0  0  0  0
   35.7684   28.7489   35.2775 H   0  0  0  0  0  0  0  0  0  0  0  0
   37.2063   29.2946   34.3272 H   0  0  0  0  0  0  0  0  0  0  0  0
   38.2242   23.3093   39.3159 H   0  0  0  0  0  0  0  0  0  0  0  0
   37.0540   24.8618   37.7225 H   0  0  0  0  0  0  0  0  0  0  0  0
   41.1722   22.4065   36.4468 H   0  0  0  0  0  0  0  0  0  0  0  0
   35.5585   27.7198   32.6460 H   0  0  0  0  0  0  0  0  0  0  0  0
   34.5512   28.9972   33.5311 H   0  0  0  0  0  0  0  0  0  0  0  0
   35.4745   31.6938   33.0715 H   0  0  0  0  0  0  0  0  0  0  0  0
   37.2265   30.6858   29.3570 H   0  0  0  0  0  0  0  0  0  0  0  0
  1  5  1  0
  2  6  1  0
  2  9  1  0
  3  2  2  0
  4  3  1  0
  4  5  1  0
  5  6  2  0
  8  7  2  0
  9  8  1  0
 10  9  2  0
 10 11  1  0
 11 12  2  0
 12  7  1  0
 13  1  1  0
 14 15  2  0
 14 13  1  0
 16 15  1  0
 17 18  1  0
 17 16  2  0
 18 14  1  0
 19 22  1  0
 19 21  1  0
 19 18  1  0
 20 19  1  0
  1 23  1  0
  1 24  1  0
  7 25  1  0
  8 26  1  0
 11 27  1  0
 13 28  1  0
 13 29  1  0
 15 30  1  0
 17 31  1  0
M  ISO  8  23   8  24   8  25  14  26  14  27  14  28   8  29   8  30  14
M  ISO  1  31  14
M  END
>  <minimizedAffinity>  (1) 
-4.94926405

>  <minimizedRMSD>  (1) 
1.4824754

$$$$
