
     RDKit          3D

 35 38  0  0  0  0  0  0  0  0999 V2000
   36.3720   28.2880   33.9670 C   0  0  0  0  0  0  0  0  0  0  0  0
   37.9570   25.2150   35.0470 C   0  0  0  0  0  0  0  0  0  0  0  0
   37.7820   25.0240   33.7080 N   0  0  0  0  0  0  0  0  0  0  0  0
   37.2060   26.1080   33.2370 O   0  0  0  0  0  0  0  0  0  0  0  0
   37.0020   26.9770   34.1900 C   0  0  0  0  0  0  0  0  0  0  0  0
   37.4570   26.4480   35.3090 N   0  0  0  0  0  0  0  0  0  0  0  0
   38.5070   23.5520   38.3410 C   0  0  0  0  0  0  0  0  0  0  0  0
   37.8890   24.3660   37.3840 C   0  0  0  0  0  0  0  0  0  0  0  0
   38.5290   24.3980   36.1030 C   0  0  0  0  0  0  0  0  0  0  0  0
   39.6810   23.6450   35.9050 N   0  0  0  0  0  0  0  0  0  0  0  0
   40.1870   22.9030   36.8840 C   0  0  0  0  0  0  0  0  0  0  0  0
   39.6140   22.8530   38.0880 N   0  0  0  0  0  0  0  0  0  0  0  0
   35.8220   28.3870   32.5830 C   0  0  0  0  0  0  0  0  0  0  0  0
   36.0790   29.6380   31.8760 C   0  0  0  0  0  0  0  0  0  0  0  0
   35.9080   30.9610   32.1860 C   0  0  0  0  0  0  0  0  0  0  0  0
   36.3110   31.7530   31.1710 N   0  0  0  0  0  0  0  0  0  0  0  0
   36.7500   30.9760   30.1850 C   0  0  0  0  0  0  0  0  0  0  0  0
   36.6100   29.7190   30.6110 N   0  0  0  0  0  0  0  0  0  0  0  0
   36.9970   28.5690   29.7770 C   0  0  0  0  0  0  0  0  0  0  0  0
   38.4570   28.2300   29.9020 C   0  0  0  0  0  0  0  0  0  0  0  0
   37.8780   28.7630   28.6140 C   0  0  0  0  0  0  0  0  0  0  0  0
   35.5538   28.4219   34.6900 H   0  0  0  0  0  0  0  0  0  0  0  0
   37.1337   29.0706   34.0989 H   0  0  0  0  0  0  0  0  0  0  0  0
   38.0604   23.4863   39.3441 H   0  0  0  0  0  0  0  0  0  0  0  0
   36.9763   24.9405   37.6007 H   0  0  0  0  0  0  0  0  0  0  0  0
   41.0989   22.3166   36.6978 H   0  0  0  0  0  0  0  0  0  0  0  0
   36.2580   27.5701   31.9892 H   0  0  0  0  0  0  0  0  0  0  0  0
   34.7292   28.3312   32.6955 H   0  0  0  0  0  0  0  0  0  0  0  0
   35.4963   31.3293   33.1373 H   0  0  0  0  0  0  0  0  0  0  0  0
   37.1485   31.3036   29.2135 H   0  0  0  0  0  0  0  0  0  0  0  0
   36.0279   28.0591   29.8813 H   0  0  0  0  0  0  0  0  0  0  0  0
   39.1216   28.8587   30.5128 H   0  0  0  0  0  0  0  0  0  0  0  0
   39.0361   27.3422   30.1962 H   0  0  0  0  0  0  0  0  0  0  0  0
   37.7853   28.1021   27.7395 H   0  0  0  0  0  0  0  0  0  0  0  0
   38.1114   29.6100   27.9521 H   0  0  0  0  0  0  0  0  0  0  0  0
  1  5  1  0
  2  6  1  0
  2  9  1  0
  3  2  2  0
  4  3  1  0
  4  5  1  0
  5  6  2  0
  8  7  2  0
  9  8  1  0
 10  9  2  0
 10 11  1  0
 11 12  2  0
 12  7  1  0
 13  1  1  0
 14 15  2  0
 14 13  1  0
 16 15  1  0
 17 18  1  0
 17 16  2  0
 18 14  1  0
 19 20  1  0
 19 18  1  0
 21 19  1  0
 21 20  1  0
  1 22  1  0
  1 23  1  0
  7 24  1  0
  8 25  1  0
 11 26  1  0
 13 27  1  0
 13 28  1  0
 15 29  1  0
 17 30  1  0
 19 31  1  0
 20 32  1  0
 20 33  1  0
 21 34  1  0
 21 35  1  0
M  ISO  8  22   8  23   8  24  14  25  14  26  14  27   8  28   8  29  14
M  ISO  6  30  14  31  13  32  13  33  13  34  13  35  13
M  END
>  <minimizedAffinity>  (1) 
-4.77457666

>  <minimizedRMSD>  (1) 
1.59677219

$$$$
