
     RDKit          3D

 40 42  0  0  0  0  0  0  0  0999 V2000
   36.5080   28.0130   33.4050 C   0  0  0  0  0  0  0  0  0  0  0  0
   38.0410   25.0650   34.8610 C   0  0  0  0  0  0  0  0  0  0  0  0
   38.0450   24.7950   33.5260 N   0  0  0  0  0  0  0  0  0  0  0  0
   37.4930   25.8430   32.9390 O   0  0  0  0  0  0  0  0  0  0  0  0
   37.1420   26.7530   33.7920 C   0  0  0  0  0  0  0  0  0  0  0  0
   37.4700   26.2930   34.9800 N   0  0  0  0  0  0  0  0  0  0  0  0
   38.3020   23.7260   38.3330 C   0  0  0  0  0  0  0  0  0  0  0  0
   37.8010   24.4420   37.2590 C   0  0  0  0  0  0  0  0  0  0  0  0
   38.5030   24.3410   36.0380 C   0  0  0  0  0  0  0  0  0  0  0  0
   39.6340   23.5450   35.9820 N   0  0  0  0  0  0  0  0  0  0  0  0
   40.0630   22.8780   37.0590 C   0  0  0  0  0  0  0  0  0  0  0  0
   39.4100   22.9640   38.2200 N   0  0  0  0  0  0  0  0  0  0  0  0
   36.1320   27.9860   31.9370 C   0  0  0  0  0  0  0  0  0  0  0  0
   36.0540   29.3030   31.2960 C   0  0  0  0  0  0  0  0  0  0  0  0
   35.1660   30.3880   31.4010 C   0  0  0  0  0  0  0  0  0  0  0  0
   35.5910   31.3810   30.6380 N   0  0  0  0  0  0  0  0  0  0  0  0
   36.7090   30.9910   30.0420 C   0  0  0  0  0  0  0  0  0  0  0  0
   37.0010   29.7560   30.4160 N   0  0  0  0  0  0  0  0  0  0  0  0
   38.1920   29.1890   29.8070 C   0  0  0  0  0  0  0  0  0  0  0  0
   39.0030   28.2320   30.5090 C   0  0  0  0  0  0  0  0  0  0  0  0
   39.0540   30.3570   29.3690 C   0  0  0  0  0  0  0  0  0  0  0  0
   37.8370   28.4800   28.4680 C   0  0  0  0  0  0  0  0  0  0  0  0
   35.6008   28.1628   34.0088 H   0  0  0  0  0  0  0  0  0  0  0  0
   37.2166   28.8366   33.5768 H   0  0  0  0  0  0  0  0  0  0  0  0
   37.7842   23.7796   39.3020 H   0  0  0  0  0  0  0  0  0  0  0  0
   36.8969   25.0615   37.3527 H   0  0  0  0  0  0  0  0  0  0  0  0
   40.9642   22.2514   36.9872 H   0  0  0  0  0  0  0  0  0  0  0  0
   36.8856   27.3895   31.4020 H   0  0  0  0  0  0  0  0  0  0  0  0
   35.1205   27.5568   31.8851 H   0  0  0  0  0  0  0  0  0  0  0  0
   34.2581   30.4078   32.0218 H   0  0  0  0  0  0  0  0  0  0  0  0
   37.3023   31.6001   29.3442 H   0  0  0  0  0  0  0  0  0  0  0  0
   38.8824   28.3743   31.5931 H   0  0  0  0  0  0  0  0  0  0  0  0
   38.6884   27.2140   30.2356 H   0  0  0  0  0  0  0  0  0  0  0  0
   40.0588   28.3754   30.2356 H   0  0  0  0  0  0  0  0  0  0  0  0
   39.4403   30.8805   30.2560 H   0  0  0  0  0  0  0  0  0  0  0  0
   39.8962   29.9856   28.7666 H   0  0  0  0  0  0  0  0  0  0  0  0
   38.4509   31.0523   28.7666 H   0  0  0  0  0  0  0  0  0  0  0  0
   37.3538   27.5150   28.6809 H   0  0  0  0  0  0  0  0  0  0  0  0
   37.1500   29.1140   27.8883 H   0  0  0  0  0  0  0  0  0  0  0  0
   38.7562   28.3098   27.8883 H   0  0  0  0  0  0  0  0  0  0  0  0
  1  5  1  0
  2  6  1  0
  2  9  1  0
  3  2  2  0
  4  3  1  0
  4  5  1  0
  5  6  2  0
  8  7  2  0
  9  8  1  0
 10  9  2  0
 10 11  1  0
 11 12  2  0
 12  7  1  0
 13  1  1  0
 14 15  2  0
 14 13  1  0
 16 15  1  0
 17 18  1  0
 17 16  2  0
 18 14  1  0
 19 18  1  0
 19 20  1  0
 21 19  1  0
 22 19  1  0
  1 23  1  0
  1 24  1  0
  7 25  1  0
  8 26  1  0
 11 27  1  0
 13 28  1  0
 13 29  1  0
 15 30  1  0
 17 31  1  0
 20 32  1  0
 20 33  1  0
 20 34  1  0
 21 35  1  0
 21 36  1  0
 21 37  1  0
 22 38  1  0
 22 39  1  0
 22 40  1  0
M  ISO  8  23   8  24   8  25  14  26  14  27  14  28   8  29   8  30  14
M  ISO  8  31  14  32   8  33   8  34   8  35   8  36   8  37   8  38   8
M  ISO  2  39   8  40   8
M  END
>  <minimizedAffinity>  (1) 
-4.51725101

>  <minimizedRMSD>  (1) 
1.81916058

$$$$
