
     RDKit          3D

 31 33  0  0  0  0  0  0  0  0999 V2000
   36.4340   28.1940   33.6440 C   0  0  0  0  0  0  0  0  0  0  0  0
   37.9470   25.1460   34.9020 C   0  0  0  0  0  0  0  0  0  0  0  0
   37.8210   24.9110   33.5830 N   0  0  0  0  0  0  0  0  0  0  0  0
   37.2750   25.9770   33.0450 O   0  0  0  0  0  0  0  0  0  0  0  0
   37.0380   26.8930   33.9400 C   0  0  0  0  0  0  0  0  0  0  0  0
   37.4460   26.4010   35.0950 N   0  0  0  0  0  0  0  0  0  0  0  0
   38.3530   23.6780   38.3230 C   0  0  0  0  0  0  0  0  0  0  0  0
   37.7880   24.4350   37.2900 C   0  0  0  0  0  0  0  0  0  0  0  0
   38.4630   24.3910   36.0360 C   0  0  0  0  0  0  0  0  0  0  0  0
   39.6100   23.6190   35.9240 N   0  0  0  0  0  0  0  0  0  0  0  0
   40.0830   22.9280   36.9560 C   0  0  0  0  0  0  0  0  0  0  0  0
   39.4580   22.9590   38.1490 N   0  0  0  0  0  0  0  0  0  0  0  0
   35.7310   28.1730   32.3330 C   0  0  0  0  0  0  0  0  0  0  0  0
   36.1190   29.1760   31.3420 C   0  0  0  0  0  0  0  0  0  0  0  0
   35.6830   30.4570   31.0750 C   0  0  0  0  0  0  0  0  0  0  0  0
   36.3590   30.9940   30.0450 N   0  0  0  0  0  0  0  0  0  0  0  0
   37.2360   30.0800   29.6330 C   0  0  0  0  0  0  0  0  0  0  0  0
   37.0850   29.0040   30.4090 N   0  0  0  0  0  0  0  0  0  0  0  0
   37.9380   27.8410   30.1640 C   0  0  0  0  0  0  0  0  0  0  0  0
   35.7113   28.4428   34.4351 H   0  0  0  0  0  0  0  0  0  0  0  0
   37.2336   28.9481   33.5993 H   0  0  0  0  0  0  0  0  0  0  0  0
   37.8675   23.6779   39.3101 H   0  0  0  0  0  0  0  0  0  0  0  0
   36.8748   25.0301   37.4380 H   0  0  0  0  0  0  0  0  0  0  0  0
   40.9945   22.3243   36.8348 H   0  0  0  0  0  0  0  0  0  0  0  0
   35.9010   27.1833   31.8839 H   0  0  0  0  0  0  0  0  0  0  0  0
   34.6835   28.4075   32.5733 H   0  0  0  0  0  0  0  0  0  0  0  0
   34.8863   30.9717   31.6321 H   0  0  0  0  0  0  0  0  0  0  0  0
   37.9526   30.1912   28.8059 H   0  0  0  0  0  0  0  0  0  0  0  0
   38.2545   27.4095   31.1250 H   0  0  0  0  0  0  0  0  0  0  0  0
   37.3762   27.0883   29.5914 H   0  0  0  0  0  0  0  0  0  0  0  0
   38.8247   28.1507   29.5914 H   0  0  0  0  0  0  0  0  0  0  0  0
  1  5  1  0
  2  6  1  0
  2  9  1  0
  3  2  2  0
  4  3  1  0
  4  5  1  0
  5  6  2  0
  8  7  2  0
  9  8  1  0
 10  9  2  0
 10 11  1  0
 11 12  2  0
 12  7  1  0
 13  1  1  0
 14 13  1  0
 15 14  2  0
 16 15  1  0
 17 16  2  0
 17 18  1  0
 18 14  1  0
 19 18  1  0
  1 20  1  0
  1 21  1  0
  7 22  1  0
  8 23  1  0
 11 24  1  0
 13 25  1  0
 13 26  1  0
 15 27  1  0
 17 28  1  0
 19 29  1  0
 19 30  1  0
 19 31  1  0
M  ISO  8  20   8  21   8  22  14  23  14  24  14  25   8  26   8  27  14
M  ISO  4  28  14  29   8  30   8  31   8
M  END
>  <minimizedAffinity>  (1) 
-4.4319458

>  <minimizedRMSD>  (1) 
0.789987445

$$$$
