
     RDKit          3D

 36 39  0  0  0  0  0  0  0  0999 V2000
   36.5550   28.4420   34.6550 C   0  0  0  0  0  0  0  0  0  0  0  0
   38.1010   25.2270   35.2800 C   0  0  0  0  0  0  0  0  0  0  0  0
   37.6900   25.1310   33.9810 N   0  0  0  0  0  0  0  0  0  0  0  0
   37.1120   26.2690   33.6720 O   0  0  0  0  0  0  0  0  0  0  0  0
   37.1250   27.0900   34.6870 C   0  0  0  0  0  0  0  0  0  0  0  0
   37.7280   26.4720   35.6900 N   0  0  0  0  0  0  0  0  0  0  0  0
   38.9770   23.1990   38.2840 C   0  0  0  0  0  0  0  0  0  0  0  0
   38.2600   24.0940   37.4820 C   0  0  0  0  0  0  0  0  0  0  0  0
   38.7860   24.3150   36.1700 C   0  0  0  0  0  0  0  0  0  0  0  0
   39.9340   23.6500   35.7990 N   0  0  0  0  0  0  0  0  0  0  0  0
   40.5560   22.8120   36.6300 C   0  0  0  0  0  0  0  0  0  0  0  0
   40.0940   22.5850   37.8530 N   0  0  0  0  0  0  0  0  0  0  0  0
   35.7480   28.6510   33.4190 C   0  0  0  0  0  0  0  0  0  0  0  0
   35.8700   29.9460   32.7580 C   0  0  0  0  0  0  0  0  0  0  0  0
   36.3970   30.3520   31.5550 C   0  0  0  0  0  0  0  0  0  0  0  0
   36.2720   31.6750   31.3850 N   0  0  0  0  0  0  0  0  0  0  0  0
   35.6650   32.1590   32.4640 C   0  0  0  0  0  0  0  0  0  0  0  0
   35.4250   31.1300   33.2820 N   0  0  0  0  0  0  0  0  0  0  0  0
   34.7790   31.2840   34.5460 C   0  0  0  0  0  0  0  0  0  0  0  0
   35.5050   31.8580   35.5840 C   0  0  0  0  0  0  0  0  0  0  0  0
   34.9870   32.0600   36.8570 C   0  0  0  0  0  0  0  0  0  0  0  0
   33.7050   31.6780   37.1110 N   0  0  0  0  0  0  0  0  0  0  0  0
   33.0210   31.1210   36.0830 C   0  0  0  0  0  0  0  0  0  0  0  0
   33.5150   30.9220   34.8450 N   0  0  0  0  0  0  0  0  0  0  0  0
   35.9091   28.5813   35.5345 H   0  0  0  0  0  0  0  0  0  0  0  0
   37.3790   29.1707   34.6636 H   0  0  0  0  0  0  0  0  0  0  0  0
   38.6150   22.9903   39.3016 H   0  0  0  0  0  0  0  0  0  0  0  0
   37.3486   24.5964   37.8382 H   0  0  0  0  0  0  0  0  0  0  0  0
   41.4696   22.2992   36.2948 H   0  0  0  0  0  0  0  0  0  0  0  0
   36.0460   27.8793   32.6940 H   0  0  0  0  0  0  0  0  0  0  0  0
   34.7004   28.5974   33.7501 H   0  0  0  0  0  0  0  0  0  0  0  0
   36.8630   29.6753   30.8236 H   0  0  0  0  0  0  0  0  0  0  0  0
   35.4077   33.2123   32.6493 H   0  0  0  0  0  0  0  0  0  0  0  0
   36.5419   32.1677   35.3870 H   0  0  0  0  0  0  0  0  0  0  0  0
   35.6011   32.5200   37.6452 H   0  0  0  0  0  0  0  0  0  0  0  0
   31.9839   30.8074   36.2730 H   0  0  0  0  0  0  0  0  0  0  0  0
  1  5  1  0
  2  6  1  0
  2  9  1  0
  3  2  2  0
  4  3  1  0
  4  5  1  0
  5  6  2  0
  8  7  2  0
  9  8  1  0
 10  9  2  0
 10 11  1  0
 11 12  2  0
 12  7  1  0
 13  1  1  0
 14 18  1  0
 14 13  1  0
 15 14  2  0
 16 15  1  0
 16 17  2  0
 17 18  1  0
 18 19  1  0
 19 24  1  0
 19 20  2  0
 20 21  1  0
 21 22  2  0
 23 22  1  0
 24 23  2  0
  1 25  1  0
  1 26  1  0
  7 27  1  0
  8 28  1  0
 11 29  1  0
 13 30  1  0
 13 31  1  0
 15 32  1  0
 17 33  1  0
 20 34  1  0
 21 35  1  0
 23 36  1  0
M  ISO  8  25   8  26   8  27  14  28  14  29  14  30   8  31   8  32  14
M  ISO  4  33  14  34  14  35  14  36  14
M  END
>  <minimizedAffinity>  (1) 
-5.31051397

>  <minimizedRMSD>  (1) 
5.00092745

$$$$
