
     RDKit          3D

 51 55  0  0  0  0  0  0  0  0999 V2000
   36.1680   29.6040   32.1330 C   0  0  0  0  0  0  0  0  0  0  0  0
   36.7090   30.0050   30.9310 C   0  0  0  0  0  0  0  0  0  0  0  0
   36.6170   31.3320   30.7770 N   0  0  0  0  0  0  0  0  0  0  0  0
   36.0250   31.8240   31.8550 C   0  0  0  0  0  0  0  0  0  0  0  0
   35.7540   30.7930   32.6710 N   0  0  0  0  0  0  0  0  0  0  0  0
   35.1110   30.9510   33.9370 C   0  0  0  0  0  0  0  0  0  0  0  0
   35.7610   31.6920   34.9050 C   0  0  0  0  0  0  0  0  0  0  0  0
   35.2160   31.9030   36.1680 C   0  0  0  0  0  0  0  0  0  0  0  0
   34.0070   31.3710   36.4730 N   0  0  0  0  0  0  0  0  0  0  0  0
   33.4000   30.6530   35.5040 C   0  0  0  0  0  0  0  0  0  0  0  0
   33.9080   30.4390   34.2840 N   0  0  0  0  0  0  0  0  0  0  0  0
   32.1280   30.0740   35.7780 N   0  0  0  0  0  0  0  0  0  0  0  0
   31.2460   29.5590   34.7270 C   0  0  0  0  0  0  0  0  0  0  0  0
   30.5460   28.3090   35.1520 C   0  0  0  0  0  0  0  0  0  0  0  0
   31.3040   27.6160   36.2660 C   0  0  0  0  0  0  0  0  0  0  0  0
   31.3630   28.5030   37.4950 C   0  0  0  0  0  0  0  0  0  0  0  0
   31.5980   29.9460   37.1380 C   0  0  0  0  0  0  0  0  0  0  0  0
   36.0160   28.3050   32.7790 C   0  0  0  0  0  0  0  0  0  0  0  0
   36.5570   28.1660   34.1530 C   0  0  0  0  0  0  0  0  0  0  0  0
   38.0570   25.0530   35.2310 C   0  0  0  0  0  0  0  0  0  0  0  0
   37.7590   24.8230   33.9150 N   0  0  0  0  0  0  0  0  0  0  0  0
   37.2050   25.9160   33.4460 O   0  0  0  0  0  0  0  0  0  0  0  0
   37.1270   26.8320   34.3690 C   0  0  0  0  0  0  0  0  0  0  0  0
   37.6480   26.3220   35.4810 N   0  0  0  0  0  0  0  0  0  0  0  0
   38.7160   23.4000   38.5040 C   0  0  0  0  0  0  0  0  0  0  0  0
   38.0750   24.2080   37.5540 C   0  0  0  0  0  0  0  0  0  0  0  0
   38.6650   24.2420   36.2560 C   0  0  0  0  0  0  0  0  0  0  0  0
   39.8020   23.4960   36.0260 N   0  0  0  0  0  0  0  0  0  0  0  0
   40.3470   22.7530   36.9900 C   0  0  0  0  0  0  0  0  0  0  0  0
   39.8270   22.6950   38.2090 N   0  0  0  0  0  0  0  0  0  0  0  0
   37.1582   29.3235   30.1936 H   0  0  0  0  0  0  0  0  0  0  0  0
   35.7972   32.8830   32.0465 H   0  0  0  0  0  0  0  0  0  0  0  0
   36.7422   32.1299   34.6695 H   0  0  0  0  0  0  0  0  0  0  0  0
   35.7629   32.4979   36.9143 H   0  0  0  0  0  0  0  0  0  0  0  0
   31.8475   29.3432   33.8317 H   0  0  0  0  0  0  0  0  0  0  0  0
   30.4831   30.3230   34.5166 H   0  0  0  0  0  0  0  0  0  0  0  0
   29.5370   28.5646   35.5079 H   0  0  0  0  0  0  0  0  0  0  0  0
   30.4887   27.6282   34.2899 H   0  0  0  0  0  0  0  0  0  0  0  0
   30.7937   26.6756   36.5216 H   0  0  0  0  0  0  0  0  0  0  0  0
   32.3292   27.4085   35.9255 H   0  0  0  0  0  0  0  0  0  0  0  0
   30.4095   28.4221   38.0375 H   0  0  0  0  0  0  0  0  0  0  0  0
   32.2048   28.1655   38.1175 H   0  0  0  0  0  0  0  0  0  0  0  0
   32.3195   30.3784   37.8468 H   0  0  0  0  0  0  0  0  0  0  0  0
   30.6374   30.4794   37.1900 H   0  0  0  0  0  0  0  0  0  0  0  0
   34.9400   28.0804   32.8223 H   0  0  0  0  0  0  0  0  0  0  0  0
   36.6118   27.6116   32.1672 H   0  0  0  0  0  0  0  0  0  0  0  0
   37.3426   28.9205   34.3068 H   0  0  0  0  0  0  0  0  0  0  0  0
   35.7328   28.3111   34.8669 H   0  0  0  0  0  0  0  0  0  0  0  0
   38.3000   23.3394   39.5205 H   0  0  0  0  0  0  0  0  0  0  0  0
   37.1689   24.7828   37.7960 H   0  0  0  0  0  0  0  0  0  0  0  0
   41.2539   22.1714   36.7679 H   0  0  0  0  0  0  0  0  0  0  0  0
  1  5  1  0
  1 18  1  0
  2  1  2  0
  3  2  1  0
  3  4  2  0
  4  5  1  0
  5  6  1  0
  6 11  1  0
  6  7  2  0
  7  8  1  0
  8  9  2  0
 10 12  1  0
 10  9  1  0
 11 10  2  0
 12 17  1  0
 13 14  1  0
 13 12  1  0
 14 15  1  0
 15 16  1  0
 17 16  1  0
 18 19  1  0
 19 23  1  0
 20 24  1  0
 20 27  1  0
 21 20  2  0
 22 21  1  0
 22 23  1  0
 23 24  2  0
 26 25  2  0
 27 26  1  0
 28 27  2  0
 28 29  1  0
 29 30  2  0
 30 25  1  0
  2 31  1  0
  4 32  1  0
  7 33  1  0
  8 34  1  0
 13 35  1  0
 13 36  1  0
 14 37  1  0
 14 38  1  0
 15 39  1  0
 15 40  1  0
 16 41  1  0
 16 42  1  0
 17 43  1  0
 17 44  1  0
 18 45  1  0
 18 46  1  0
 19 47  1  0
 19 48  1  0
 25 49  1  0
 26 50  1  0
 29 51  1  0
M  ISO  8  31  14  32  14  33  14  34  14  35  13  36  13  37  13  38  13
M  ISO  8  39  13  40  13  41  13  42  13  43  13  44  13  45   8  46   8
M  ISO  5  47   8  48   8  49  14  50  14  51  14
M  END
>  <minimizedAffinity>  (1) 
-6.54717398

>  <minimizedRMSD>  (1) 
0.716132224

$$$$
