
     RDKit          3D

 50 54  0  0  0  0  0  0  0  0999 V2000
   36.2390   29.5910   32.0580 C   0  0  0  0  0  0  0  0  0  0  0  0
   36.7770   29.9990   30.8710 C   0  0  0  0  0  0  0  0  0  0  0  0
   36.6780   31.3300   30.7210 N   0  0  0  0  0  0  0  0  0  0  0  0
   36.0800   31.8030   31.7980 C   0  0  0  0  0  0  0  0  0  0  0  0
   35.8100   30.7750   32.6110 N   0  0  0  0  0  0  0  0  0  0  0  0
   35.1660   30.9210   33.8670 C   0  0  0  0  0  0  0  0  0  0  0  0
   35.7920   31.6790   34.8440 C   0  0  0  0  0  0  0  0  0  0  0  0
   35.2720   31.8980   36.1060 C   0  0  0  0  0  0  0  0  0  0  0  0
   34.0670   31.3360   36.4210 N   0  0  0  0  0  0  0  0  0  0  0  0
   33.4780   30.6040   35.4580 C   0  0  0  0  0  0  0  0  0  0  0  0
   33.9770   30.3850   34.2230 N   0  0  0  0  0  0  0  0  0  0  0  0
   32.2200   30.0230   35.7980 N   0  0  0  0  0  0  0  0  0  0  0  0
   31.7860   29.9450   37.1750 C   0  0  0  0  0  0  0  0  0  0  0  0
   31.3380   28.5390   37.4990 C   0  0  0  0  0  0  0  0  0  0  0  0
   30.2770   28.1840   36.5680 N   0  0  0  0  0  0  0  0  0  0  0  0
   30.8860   28.0940   35.2450 C   0  0  0  0  0  0  0  0  0  0  0  0
   31.3210   29.4840   34.7790 C   0  0  0  0  0  0  0  0  0  0  0  0
   36.0910   28.2890   32.6980 C   0  0  0  0  0  0  0  0  0  0  0  0
   36.5780   28.1460   34.0950 C   0  0  0  0  0  0  0  0  0  0  0  0
   38.0520   25.0380   35.2010 C   0  0  0  0  0  0  0  0  0  0  0  0
   37.7430   24.7840   33.8930 N   0  0  0  0  0  0  0  0  0  0  0  0
   37.1950   25.8810   33.4110 O   0  0  0  0  0  0  0  0  0  0  0  0
   37.1350   26.8140   34.3250 C   0  0  0  0  0  0  0  0  0  0  0  0
   37.6570   26.3190   35.4380 N   0  0  0  0  0  0  0  0  0  0  0  0
   38.7070   23.4100   38.4890 C   0  0  0  0  0  0  0  0  0  0  0  0
   38.0710   24.2030   37.5340 C   0  0  0  0  0  0  0  0  0  0  0  0
   38.6650   24.2320   36.2400 C   0  0  0  0  0  0  0  0  0  0  0  0
   39.7970   23.4910   36.0310 N   0  0  0  0  0  0  0  0  0  0  0  0
   40.3500   22.7540   36.9910 C   0  0  0  0  0  0  0  0  0  0  0  0
   39.8280   22.7040   38.2050 N   0  0  0  0  0  0  0  0  0  0  0  0
   37.2332   29.3238   30.1321 H   0  0  0  0  0  0  0  0  0  0  0  0
   35.8443   32.8595   31.9936 H   0  0  0  0  0  0  0  0  0  0  0  0
   36.7630   32.1347   34.6000 H   0  0  0  0  0  0  0  0  0  0  0  0
   35.8159   32.5108   36.8399 H   0  0  0  0  0  0  0  0  0  0  0  0
   32.6205   30.2224   37.8358 H   0  0  0  0  0  0  0  0  0  0  0  0
   30.9432   30.6355   37.3267 H   0  0  0  0  0  0  0  0  0  0  0  0
   32.1820   27.8424   37.3876 H   0  0  0  0  0  0  0  0  0  0  0  0
   30.9746   28.4810   38.5356 H   0  0  0  0  0  0  0  0  0  0  0  0
   29.8643   27.2775   36.8303 H   0  0  0  0  0  0  0  0  0  0  0  0
   31.7641   27.4331   35.2914 H   0  0  0  0  0  0  0  0  0  0  0  0
   30.1520   27.6861   34.5345 H   0  0  0  0  0  0  0  0  0  0  0  0
   31.8457   29.4107   33.8150 H   0  0  0  0  0  0  0  0  0  0  0  0
   30.4484   30.1399   34.6435 H   0  0  0  0  0  0  0  0  0  0  0  0
   35.0190   28.0425   32.6970 H   0  0  0  0  0  0  0  0  0  0  0  0
   36.7322   27.6159   32.1100 H   0  0  0  0  0  0  0  0  0  0  0  0
   37.3580   28.8987   34.2823 H   0  0  0  0  0  0  0  0  0  0  0  0
   35.7279   28.2916   34.7777 H   0  0  0  0  0  0  0  0  0  0  0  0
   38.2856   23.3561   39.5037 H   0  0  0  0  0  0  0  0  0  0  0  0
   37.1606   24.7746   37.7675 H   0  0  0  0  0  0  0  0  0  0  0  0
   41.2590   22.1751   36.7705 H   0  0  0  0  0  0  0  0  0  0  0  0
  1  5  1  0
  1 18  1  0
  2  1  2  0
  3  2  1  0
  3  4  2  0
  4  5  1  0
  5  6  1  0
  6 11  1  0
  6  7  2  0
  7  8  1  0
  8  9  2  0
 10 12  1  0
 10  9  1  0
 11 10  2  0
 12 13  1  0
 13 14  1  0
 15 14  1  0
 16 15  1  0
 17 16  1  0
 17 12  1  0
 18 19  1  0
 19 23  1  0
 20 24  1  0
 20 27  1  0
 21 20  2  0
 22 21  1  0
 22 23  1  0
 23 24  2  0
 26 25  2  0
 27 26  1  0
 28 27  2  0
 28 29  1  0
 29 30  2  0
 30 25  1  0
  2 31  1  0
  4 32  1  0
  7 33  1  0
  8 34  1  0
 13 35  1  0
 13 36  1  0
 14 37  1  0
 14 38  1  0
 15 39  1  0
 16 40  1  0
 16 41  1  0
 17 42  1  0
 17 43  1  0
 18 44  1  0
 18 45  1  0
 19 46  1  0
 19 47  1  0
 25 48  1  0
 26 49  1  0
 29 50  1  0
M  ISO  8  31  14  32  14  33  14  34  14  35  13  36  13  37  13  38  13
M  ISO  8  39   5  40  13  41  13  42  13  43  13  44   8  45   8  46   8
M  ISO  4  47   8  48  14  49  14  50  14
M  END
>  <minimizedAffinity>  (1) 
-6.37952709

>  <minimizedRMSD>  (1) 
0.803833604

$$$$
