
     RDKit          3D

 49 53  0  0  0  0  0  0  0  0999 V2000
   35.5460   30.1500   33.0590 C   0  0  0  0  0  0  0  0  0  0  0  0
   36.0150   30.7070   31.8920 C   0  0  0  0  0  0  0  0  0  0  0  0
   35.6540   31.9870   31.7720 N   0  0  0  0  0  0  0  0  0  0  0  0
   34.9450   32.3010   32.8490 C   0  0  0  0  0  0  0  0  0  0  0  0
   34.8790   31.2030   33.6190 N   0  0  0  0  0  0  0  0  0  0  0  0
   34.1880   31.1780   34.8650 C   0  0  0  0  0  0  0  0  0  0  0  0
   34.6290   32.0370   35.8760 C   0  0  0  0  0  0  0  0  0  0  0  0
   34.0380   32.1040   37.1330 C   0  0  0  0  0  0  0  0  0  0  0  0
   32.9690   31.2910   37.4010 N   0  0  0  0  0  0  0  0  0  0  0  0
   32.5780   30.4810   36.4000 C   0  0  0  0  0  0  0  0  0  0  0  0
   33.1260   30.3950   35.1830 N   0  0  0  0  0  0  0  0  0  0  0  0
   31.4660   29.6430   36.6940 N   0  0  0  0  0  0  0  0  0  0  0  0
   30.1340   29.8960   36.1750 C   0  0  0  0  0  0  0  0  0  0  0  0
   29.5940   28.6720   35.4450 C   0  0  0  0  0  0  0  0  0  0  0  0
   30.4860   27.6010   35.5750 O   0  0  0  0  0  0  0  0  0  0  0  0
   30.6420   27.3620   36.9410 C   0  0  0  0  0  0  0  0  0  0  0  0
   31.5340   28.4610   37.5330 C   0  0  0  0  0  0  0  0  0  0  0  0
   35.6530   28.8280   33.6550 C   0  0  0  0  0  0  0  0  0  0  0  0
   36.6740   28.6590   34.7340 C   0  0  0  0  0  0  0  0  0  0  0  0
   38.0550   25.3680   35.3660 C   0  0  0  0  0  0  0  0  0  0  0  0
   37.6260   25.2870   34.0690 N   0  0  0  0  0  0  0  0  0  0  0  0
   37.1070   26.4550   33.7590 O   0  0  0  0  0  0  0  0  0  0  0  0
   37.1750   27.2790   34.7760 C   0  0  0  0  0  0  0  0  0  0  0  0
   37.7540   26.6400   35.7830 N   0  0  0  0  0  0  0  0  0  0  0  0
   38.8450   23.3060   38.3590 C   0  0  0  0  0  0  0  0  0  0  0  0
   38.1660   24.2250   37.5610 C   0  0  0  0  0  0  0  0  0  0  0  0
   38.7000   24.4320   36.2580 C   0  0  0  0  0  0  0  0  0  0  0  0
   39.8270   23.7260   35.8800 N   0  0  0  0  0  0  0  0  0  0  0  0
   40.4140   22.8610   36.7180 C   0  0  0  0  0  0  0  0  0  0  0  0
   39.9370   22.6500   37.9360 N   0  0  0  0  0  0  0  0  0  0  0  0
   36.6151   30.1635   31.1474 H   0  0  0  0  0  0  0  0  0  0  0  0
   34.4946   33.2799   33.0700 H   0  0  0  0  0  0  0  0  0  0  0  0
   35.4868   32.6930   35.6666 H   0  0  0  0  0  0  0  0  0  0  0  0
   34.4216   32.7963   37.8969 H   0  0  0  0  0  0  0  0  0  0  0  0
   29.4625   30.1424   37.0107 H   0  0  0  0  0  0  0  0  0  0  0  0
   30.1866   30.7344   35.4648 H   0  0  0  0  0  0  0  0  0  0  0  0
   29.4661   28.9114   34.3790 H   0  0  0  0  0  0  0  0  0  0  0  0
   28.6260   28.3892   35.8843 H   0  0  0  0  0  0  0  0  0  0  0  0
   29.6589   27.3773   37.4342 H   0  0  0  0  0  0  0  0  0  0  0  0
   31.1054   26.3770   37.0990 H   0  0  0  0  0  0  0  0  0  0  0  0
   32.5734   28.1040   37.5801 H   0  0  0  0  0  0  0  0  0  0  0  0
   31.1857   28.7099   38.5463 H   0  0  0  0  0  0  0  0  0  0  0  0
   34.6715   28.5744   34.0820 H   0  0  0  0  0  0  0  0  0  0  0  0
   35.9829   28.1685   32.8387 H   0  0  0  0  0  0  0  0  0  0  0  0
   37.5155   29.3411   34.5425 H   0  0  0  0  0  0  0  0  0  0  0  0
   36.2023   28.8892   35.7007 H   0  0  0  0  0  0  0  0  0  0  0  0
   38.4715   23.1107   39.3750 H   0  0  0  0  0  0  0  0  0  0  0  0
   37.2718   24.7579   37.9165 H   0  0  0  0  0  0  0  0  0  0  0  0
   41.3101   22.3149   36.3882 H   0  0  0  0  0  0  0  0  0  0  0  0
  1  5  1  0
  1 18  1  0
  2  1  2  0
  3  2  1  0
  3  4  2  0
  4  5  1  0
  5  6  1  0
  6 11  1  0
  6  7  2  0
  7  8  1  0
  8  9  2  0
 10 12  1  0
 10  9  1  0
 11 10  2  0
 12 17  1  0
 13 12  1  0
 14 15  1  0
 14 13  1  0
 15 16  1  0
 16 17  1  0
 18 19  1  0
 19 23  1  0
 20 24  1  0
 20 27  1  0
 21 20  2  0
 22 21  1  0
 22 23  1  0
 23 24  2  0
 26 25  2  0
 27 26  1  0
 28 27  2  0
 28 29  1  0
 29 30  2  0
 30 25  1  0
  2 31  1  0
  4 32  1  0
  7 33  1  0
  8 34  1  0
 13 35  1  0
 13 36  1  0
 14 37  1  0
 14 38  1  0
 16 39  1  0
 16 40  1  0
 17 41  1  0
 17 42  1  0
 18 43  1  0
 18 44  1  0
 19 45  1  0
 19 46  1  0
 25 47  1  0
 26 48  1  0
 29 49  1  0
M  ISO  8  31  14  32  14  33  14  34  14  35  13  36  13  37  13  38  13
M  ISO  8  39  13  40  13  41  13  42  13  43   8  44   8  45   8  46   8
M  ISO  3  47  14  48  14  49  14
M  END
>  <minimizedAffinity>  (1) 
-6.29036427

>  <minimizedRMSD>  (1) 
0.872126997

$$$$
