
     RDKit          3D

 48 52  0  0  0  0  0  0  0  0999 V2000
   35.9860   29.8800   32.4830 C   0  0  0  0  0  0  0  0  0  0  0  0
   36.5510   30.4310   31.3570 C   0  0  0  0  0  0  0  0  0  0  0  0
   36.2780   31.7390   31.2620 N   0  0  0  0  0  0  0  0  0  0  0  0
   35.5380   32.0680   32.3120 C   0  0  0  0  0  0  0  0  0  0  0  0
   35.3620   30.9710   33.0370 N   0  0  0  0  0  0  0  0  0  0  0  0
   34.6060   30.9520   34.2510 C   0  0  0  0  0  0  0  0  0  0  0  0
   34.9070   31.8720   35.2350 C   0  0  0  0  0  0  0  0  0  0  0  0
   34.2360   31.9320   36.4380 C   0  0  0  0  0  0  0  0  0  0  0  0
   33.2380   31.0670   36.6950 N   0  0  0  0  0  0  0  0  0  0  0  0
   32.9450   30.1600   35.7190 C   0  0  0  0  0  0  0  0  0  0  0  0
   33.6080   30.1160   34.5550 N   0  0  0  0  0  0  0  0  0  0  0  0
   31.9030   29.2090   35.9080 N   0  0  0  0  0  0  0  0  0  0  0  0
   31.4330   28.6090   37.1650 C   0  0  0  0  0  0  0  0  0  0  0  0
   31.1070   27.1940   36.6900 C   0  0  0  0  0  0  0  0  0  0  0  0
   30.3400   27.5100   35.4300 C   0  0  0  0  0  0  0  0  0  0  0  0
   31.0830   28.6430   34.8260 C   0  0  0  0  0  0  0  0  0  0  0  0
   35.9790   28.5390   33.0370 C   0  0  0  0  0  0  0  0  0  0  0  0
   36.6100   28.3550   34.3810 C   0  0  0  0  0  0  0  0  0  0  0  0
   38.0830   25.1630   35.2700 C   0  0  0  0  0  0  0  0  0  0  0  0
   37.7060   24.9860   33.9680 N   0  0  0  0  0  0  0  0  0  0  0  0
   37.1580   26.1090   33.5650 O   0  0  0  0  0  0  0  0  0  0  0  0
   37.1550   27.0000   34.5240 C   0  0  0  0  0  0  0  0  0  0  0  0
   37.7180   26.4440   35.5820 N   0  0  0  0  0  0  0  0  0  0  0  0
   38.8310   23.3240   38.4170 C   0  0  0  0  0  0  0  0  0  0  0  0
   38.1500   24.1740   37.5430 C   0  0  0  0  0  0  0  0  0  0  0  0
   38.7250   24.3030   36.2330 C   0  0  0  0  0  0  0  0  0  0  0  0
   39.8690   23.5970   35.9530 N   0  0  0  0  0  0  0  0  0  0  0  0
   40.4520   22.8060   36.8530 C   0  0  0  0  0  0  0  0  0  0  0  0
   39.9460   22.6680   38.0650 N   0  0  0  0  0  0  0  0  0  0  0  0
   37.1513   29.8688   30.6266 H   0  0  0  0  0  0  0  0  0  0  0  0
   35.1421   33.0685   32.5404 H   0  0  0  0  0  0  0  0  0  0  0  0
   35.7195   32.5903   35.0510 H   0  0  0  0  0  0  0  0  0  0  0  0
   34.5165   32.6868   37.1874 H   0  0  0  0  0  0  0  0  0  0  0  0
   32.2193   28.6086   37.9343 H   0  0  0  0  0  0  0  0  0  0  0  0
   30.5946   29.1383   37.6415 H   0  0  0  0  0  0  0  0  0  0  0  0
   32.0178   26.6144   36.4788 H   0  0  0  0  0  0  0  0  0  0  0  0
   30.5645   26.5743   37.4192 H   0  0  0  0  0  0  0  0  0  0  0  0
   30.3302   26.6441   34.7517 H   0  0  0  0  0  0  0  0  0  0  0  0
   29.2863   27.7553   35.6286 H   0  0  0  0  0  0  0  0  0  0  0  0
   31.7241   28.2867   34.0062 H   0  0  0  0  0  0  0  0  0  0  0  0
   30.4001   29.3936   34.4015 H   0  0  0  0  0  0  0  0  0  0  0  0
   34.9297   28.2185   33.1166 H   0  0  0  0  0  0  0  0  0  0  0  0
   36.5956   27.9427   32.3484 H   0  0  0  0  0  0  0  0  0  0  0  0
   37.4245   29.0848   34.4992 H   0  0  0  0  0  0  0  0  0  0  0  0
   35.8416   28.5074   35.1532 H   0  0  0  0  0  0  0  0  0  0  0  0
   38.4369   23.1872   39.4348 H   0  0  0  0  0  0  0  0  0  0  0  0
   37.2350   24.7087   37.8378 H   0  0  0  0  0  0  0  0  0  0  0  0
   41.3679   22.2601   36.5825 H   0  0  0  0  0  0  0  0  0  0  0  0
  1  5  1  0
  1 17  1  0
  2  1  2  0
  3  2  1  0
  3  4  2  0
  4  5  1  0
  5  6  1  0
  6 11  1  0
  6  7  2  0
  7  8  1  0
  8  9  2  0
 10 12  1  0
 10  9  1  0
 11 10  2  0
 12 13  1  0
 14 13  1  0
 15 14  1  0
 16 15  1  0
 16 12  1  0
 17 18  1  0
 18 22  1  0
 19 23  1  0
 19 26  1  0
 20 19  2  0
 21 20  1  0
 21 22  1  0
 22 23  2  0
 25 24  2  0
 26 25  1  0
 27 26  2  0
 27 28  1  0
 28 29  2  0
 29 24  1  0
  2 30  1  0
  4 31  1  0
  7 32  1  0
  8 33  1  0
 13 34  1  0
 13 35  1  0
 14 36  1  0
 14 37  1  0
 15 38  1  0
 15 39  1  0
 16 40  1  0
 16 41  1  0
 17 42  1  0
 17 43  1  0
 18 44  1  0
 18 45  1  0
 24 46  1  0
 25 47  1  0
 28 48  1  0
M  ISO  8  30  14  31  14  32  14  33  14  34  13  35  13  36  13  37  13
M  ISO  8  38  13  39  13  40  13  41  13  42   8  43   8  44   8  45   8
M  ISO  3  46  14  47  14  48  14
M  END
>  <minimizedAffinity>  (1) 
-6.23653698

>  <minimizedRMSD>  (1) 
0.940769076

$$$$
