
     RDKit          3D

 46 50  0  0  0  0  0  0  0  0999 V2000
   35.8540   30.0430   32.8080 C   0  0  0  0  0  0  0  0  0  0  0  0
   36.3750   30.4980   31.6200 C   0  0  0  0  0  0  0  0  0  0  0  0
   36.2240   31.8200   31.5040 N   0  0  0  0  0  0  0  0  0  0  0  0
   35.6060   32.2540   32.6000 C   0  0  0  0  0  0  0  0  0  0  0  0
   35.3840   31.1990   33.3820 N   0  0  0  0  0  0  0  0  0  0  0  0
   34.7390   31.2890   34.6420 C   0  0  0  0  0  0  0  0  0  0  0  0
   35.3900   31.9620   35.6580 C   0  0  0  0  0  0  0  0  0  0  0  0
   34.8760   32.1290   36.9450 C   0  0  0  0  0  0  0  0  0  0  0  0
   33.6610   31.5980   37.2170 N   0  0  0  0  0  0  0  0  0  0  0  0
   33.0300   30.9370   36.2030 C   0  0  0  0  0  0  0  0  0  0  0  0
   33.5440   30.7900   34.9770 N   0  0  0  0  0  0  0  0  0  0  0  0
   31.7180   30.3590   36.4840 C   0  0  0  0  0  0  0  0  0  0  0  0
   30.5540   31.0830   36.3250 C   0  0  0  0  0  0  0  0  0  0  0  0
   29.3070   30.5550   36.5860 C   0  0  0  0  0  0  0  0  0  0  0  0
   29.1880   29.2350   37.0300 C   0  0  0  0  0  0  0  0  0  0  0  0
   30.3530   28.5120   37.1880 C   0  0  0  0  0  0  0  0  0  0  0  0
   31.5820   29.0590   36.9230 C   0  0  0  0  0  0  0  0  0  0  0  0
   35.7580   28.7210   33.4210 C   0  0  0  0  0  0  0  0  0  0  0  0
   36.5370   28.4860   34.6660 C   0  0  0  0  0  0  0  0  0  0  0  0
   38.0730   25.2670   35.2800 C   0  0  0  0  0  0  0  0  0  0  0  0
   37.6620   25.1810   33.9780 N   0  0  0  0  0  0  0  0  0  0  0  0
   37.0900   26.3230   33.6810 O   0  0  0  0  0  0  0  0  0  0  0  0
   37.1030   27.1430   34.7030 C   0  0  0  0  0  0  0  0  0  0  0  0
   37.7060   26.5100   35.7030 N   0  0  0  0  0  0  0  0  0  0  0  0
   38.9420   23.2310   38.2730 C   0  0  0  0  0  0  0  0  0  0  0  0
   38.2330   24.1350   37.4750 C   0  0  0  0  0  0  0  0  0  0  0  0
   38.7520   24.3500   36.1590 C   0  0  0  0  0  0  0  0  0  0  0  0
   39.8820   23.6640   35.7970 N   0  0  0  0  0  0  0  0  0  0  0  0
   40.5110   22.8180   36.6050 C   0  0  0  0  0  0  0  0  0  0  0  0
   40.0490   22.6000   37.8350 N   0  0  0  0  0  0  0  0  0  0  0  0
   36.8533   29.8576   30.8643 H   0  0  0  0  0  0  0  0  0  0  0  0
   35.3288   33.2955   32.8201 H   0  0  0  0  0  0  0  0  0  0  0  0
   36.3774   32.3942   35.4384 H   0  0  0  0  0  0  0  0  0  0  0  0
   35.4410   32.6754   37.7146 H   0  0  0  0  0  0  0  0  0  0  0  0
   30.6236   32.1238   35.9758 H   0  0  0  0  0  0  0  0  0  0  0  0
   28.4072   31.1718   36.4449 H   0  0  0  0  0  0  0  0  0  0  0  0
   28.2052   28.7902   37.2449 H   0  0  0  0  0  0  0  0  0  0  0  0
   30.2940   27.4700   37.5355 H   0  0  0  0  0  0  0  0  0  0  0  0
   32.4833   28.4445   37.0644 H   0  0  0  0  0  0  0  0  0  0  0  0
   34.6984   28.5424   33.6561 H   0  0  0  0  0  0  0  0  0  0  0  0
   36.1963   28.0352   32.6811 H   0  0  0  0  0  0  0  0  0  0  0  0
   37.3553   29.2192   34.7181 H   0  0  0  0  0  0  0  0  0  0  0  0
   35.8552   28.5943   35.5224 H   0  0  0  0  0  0  0  0  0  0  0  0
   38.5835   23.0283   39.2930 H   0  0  0  0  0  0  0  0  0  0  0  0
   37.3308   24.6496   37.8373 H   0  0  0  0  0  0  0  0  0  0  0  0
   41.4151   22.2965   36.2577 H   0  0  0  0  0  0  0  0  0  0  0  0
  1  5  1  0
  1 18  1  0
  2  1  2  0
  3  2  1  0
  3  4  2  0
  4  5  1  0
  5  6  1  0
  6 11  1  0
  6  7  2  0
  7  8  1  0
  8  9  2  0
 10 12  1  0
 10  9  1  0
 11 10  2  0
 12 17  1  0
 13 12  2  0
 13 14  1  0
 14 15  2  0
 15 16  1  0
 17 16  2  0
 18 19  1  0
 19 23  1  0
 20 24  1  0
 20 27  1  0
 21 20  2  0
 22 21  1  0
 22 23  1  0
 23 24  2  0
 26 25  2  0
 27 26  1  0
 28 27  2  0
 28 29  1  0
 29 30  2  0
 30 25  1  0
  2 31  1  0
  4 32  1  0
  7 33  1  0
  8 34  1  0
 13 35  1  0
 14 36  1  0
 15 37  1  0
 16 38  1  0
 17 39  1  0
 18 40  1  0
 18 41  1  0
 19 42  1  0
 19 43  1  0
 25 44  1  0
 26 45  1  0
 29 46  1  0
M  ISO  8  31  14  32  14  33  14  34  14  35  14  36  14  37  14  38  14
M  ISO  8  39  14  40   8  41   8  42   8  43   8  44  14  45  14  46  14
M  END
>  <minimizedAffinity>  (1) 
-6.22157145

>  <minimizedRMSD>  (1) 
0.358988732

$$$$
