
     RDKit          3D

 44 48  0  0  0  0  0  0  0  0999 V2000
   35.8380   30.0310   32.8260 C   0  0  0  0  0  0  0  0  0  0  0  0
   36.3450   30.4880   31.6290 C   0  0  0  0  0  0  0  0  0  0  0  0
   36.1890   31.8070   31.5020 N   0  0  0  0  0  0  0  0  0  0  0  0
   35.5840   32.2490   32.5910 C   0  0  0  0  0  0  0  0  0  0  0  0
   35.3710   31.1870   33.3880 N   0  0  0  0  0  0  0  0  0  0  0  0
   34.7320   31.2940   34.6620 C   0  0  0  0  0  0  0  0  0  0  0  0
   35.4150   31.9680   35.6700 C   0  0  0  0  0  0  0  0  0  0  0  0
   34.8890   32.1310   36.9440 C   0  0  0  0  0  0  0  0  0  0  0  0
   33.6710   31.6240   37.2370 N   0  0  0  0  0  0  0  0  0  0  0  0
   33.0290   30.9720   36.2330 C   0  0  0  0  0  0  0  0  0  0  0  0
   33.5300   30.8110   35.0020 N   0  0  0  0  0  0  0  0  0  0  0  0
   31.7100   30.4060   36.5020 C   0  0  0  0  0  0  0  0  0  0  0  0
   31.5770   29.0840   36.9380 C   0  0  0  0  0  0  0  0  0  0  0  0
   30.3270   28.5560   37.1920 C   0  0  0  0  0  0  0  0  0  0  0  0
   29.2100   29.3040   37.0230 N   0  0  0  0  0  0  0  0  0  0  0  0
   29.3430   30.5850   36.6000 C   0  0  0  0  0  0  0  0  0  0  0  0
   30.5660   31.1190   36.3460 N   0  0  0  0  0  0  0  0  0  0  0  0
   35.7490   28.7240   33.4500 C   0  0  0  0  0  0  0  0  0  0  0  0
   36.5630   28.4930   34.6850 C   0  0  0  0  0  0  0  0  0  0  0  0
   38.0730   25.2580   35.2850 C   0  0  0  0  0  0  0  0  0  0  0  0
   37.6560   25.1820   33.9870 N   0  0  0  0  0  0  0  0  0  0  0  0
   37.0910   26.3300   33.6910 O   0  0  0  0  0  0  0  0  0  0  0  0
   37.1140   27.1410   34.7060 C   0  0  0  0  0  0  0  0  0  0  0  0
   37.7090   26.5130   35.6960 N   0  0  0  0  0  0  0  0  0  0  0  0
   38.9550   23.2190   38.2790 C   0  0  0  0  0  0  0  0  0  0  0  0
   38.2410   24.1170   37.4830 C   0  0  0  0  0  0  0  0  0  0  0  0
   38.7490   24.3430   36.1760 C   0  0  0  0  0  0  0  0  0  0  0  0
   39.8830   23.6710   35.7970 N   0  0  0  0  0  0  0  0  0  0  0  0
   40.5110   22.8270   36.6120 C   0  0  0  0  0  0  0  0  0  0  0  0
   40.0640   22.5960   37.8360 N   0  0  0  0  0  0  0  0  0  0  0  0
   36.8192   29.8455   30.8725 H   0  0  0  0  0  0  0  0  0  0  0  0
   35.3064   33.2916   32.8054 H   0  0  0  0  0  0  0  0  0  0  0  0
   36.4079   32.3868   35.4490 H   0  0  0  0  0  0  0  0  0  0  0  0
   35.4615   32.6710   37.7126 H   0  0  0  0  0  0  0  0  0  0  0  0
   32.4729   28.4616   37.0793 H   0  0  0  0  0  0  0  0  0  0  0  0
   30.2367   27.5150   37.5359 H   0  0  0  0  0  0  0  0  0  0  0  0
   28.4441   31.2034   36.4599 H   0  0  0  0  0  0  0  0  0  0  0  0
   34.6945   28.5554   33.7137 H   0  0  0  0  0  0  0  0  0  0  0  0
   36.1637   28.0283   32.7057 H   0  0  0  0  0  0  0  0  0  0  0  0
   37.3896   29.2183   34.7114 H   0  0  0  0  0  0  0  0  0  0  0  0
   35.9108   28.6182   35.5619 H   0  0  0  0  0  0  0  0  0  0  0  0
   38.6006   23.0139   39.3000 H   0  0  0  0  0  0  0  0  0  0  0  0
   37.3345   24.6219   37.8482 H   0  0  0  0  0  0  0  0  0  0  0  0
   41.4179   22.3121   36.2620 H   0  0  0  0  0  0  0  0  0  0  0  0
  1  5  1  0
  1 18  1  0
  2  1  2  0
  3  2  1  0
  3  4  2  0
  4  5  1  0
  5  6  1  0
  6 11  1  0
  6  7  2  0
  7  8  1  0
  8  9  2  0
 10 12  1  0
 10  9  1  0
 11 10  2  0
 12 13  2  0
 13 14  1  0
 15 14  2  0
 16 15  1  0
 17 12  1  0
 17 16  2  0
 18 19  1  0
 19 23  1  0
 20 24  1  0
 20 27  1  0
 21 20  2  0
 22 21  1  0
 22 23  1  0
 23 24  2  0
 26 25  2  0
 27 26  1  0
 28 27  2  0
 28 29  1  0
 29 30  2  0
 30 25  1  0
  2 31  1  0
  4 32  1  0
  7 33  1  0
  8 34  1  0
 13 35  1  0
 14 36  1  0
 16 37  1  0
 18 38  1  0
 18 39  1  0
 19 40  1  0
 19 41  1  0
 25 42  1  0
 26 43  1  0
 29 44  1  0
M  ISO  8  31  14  32  14  33  14  34  14  35  14  36  14  37  14  38   8
M  ISO  6  39   8  40   8  41   8  42  14  43  14  44  14
M  END
>  <minimizedAffinity>  (1) 
-6.10414886

>  <minimizedRMSD>  (1) 
0.416040301

$$$$
