
     RDKit          3D

 39 42  0  0  0  0  0  0  0  0999 V2000
   35.7740   28.5370   33.2220 C   0  0  0  0  0  0  0  0  0  0  0  0
   35.9180   29.7810   32.4690 C   0  0  0  0  0  0  0  0  0  0  0  0
   36.3340   30.0630   31.1930 C   0  0  0  0  0  0  0  0  0  0  0  0
   36.2920   31.3860   30.9490 N   0  0  0  0  0  0  0  0  0  0  0  0
   35.8550   31.9710   32.0480 C   0  0  0  0  0  0  0  0  0  0  0  0
   35.6310   31.0240   32.9520 N   0  0  0  0  0  0  0  0  0  0  0  0
   35.1460   31.2990   34.2720 C   0  0  0  0  0  0  0  0  0  0  0  0
   35.8910   32.1350   35.0800 C   0  0  0  0  0  0  0  0  0  0  0  0
   35.5420   32.4860   36.3750 C   0  0  0  0  0  0  0  0  0  0  0  0
   34.3810   31.9680   36.8890 N   0  0  0  0  0  0  0  0  0  0  0  0
   33.6750   31.1550   36.0800 C   0  0  0  0  0  0  0  0  0  0  0  0
   34.0120   30.8150   34.8240 N   0  0  0  0  0  0  0  0  0  0  0  0
   32.3940   30.5690   36.6140 C   0  0  0  0  0  0  0  0  0  0  0  0
   32.2850   29.3050   36.1200 F   0  0  0  0  0  0  0  0  0  0  0  0
   31.3210   31.3830   36.3620 F   0  0  0  0  0  0  0  0  0  0  0  0
   32.4940   30.4860   38.0090 F   0  0  0  0  0  0  0  0  0  0  0  0
   36.6070   28.4030   34.4580 C   0  0  0  0  0  0  0  0  0  0  0  0
   38.0900   25.2060   35.2900 C   0  0  0  0  0  0  0  0  0  0  0  0
   37.7160   25.0400   33.9770 N   0  0  0  0  0  0  0  0  0  0  0  0
   37.1610   26.1690   33.5880 O   0  0  0  0  0  0  0  0  0  0  0  0
   37.1570   27.0430   34.5690 C   0  0  0  0  0  0  0  0  0  0  0  0
   37.7230   26.4740   35.6270 N   0  0  0  0  0  0  0  0  0  0  0  0
   38.8380   23.3080   38.4100 C   0  0  0  0  0  0  0  0  0  0  0  0
   38.1640   24.1770   37.5450 C   0  0  0  0  0  0  0  0  0  0  0  0
   38.7350   24.3250   36.2320 C   0  0  0  0  0  0  0  0  0  0  0  0
   39.8700   23.6200   35.9360 N   0  0  0  0  0  0  0  0  0  0  0  0
   40.4470   22.8130   36.8270 C   0  0  0  0  0  0  0  0  0  0  0  0
   39.9470   22.6520   38.0470 N   0  0  0  0  0  0  0  0  0  0  0  0
   36.0380   27.7073   32.5498 H   0  0  0  0  0  0  0  0  0  0  0  0
   34.7312   28.5283   33.5720 H   0  0  0  0  0  0  0  0  0  0  0  0
   36.6596   29.3065   30.4639 H   0  0  0  0  0  0  0  0  0  0  0  0
   35.7032   33.0511   32.1903 H   0  0  0  0  0  0  0  0  0  0  0  0
   36.8231   32.5499   34.6689 H   0  0  0  0  0  0  0  0  0  0  0  0
   36.1762   33.1586   36.9712 H   0  0  0  0  0  0  0  0  0  0  0  0
   37.4355   29.1253   34.4152 H   0  0  0  0  0  0  0  0  0  0  0  0
   35.9732   28.6010   35.3350 H   0  0  0  0  0  0  0  0  0  0  0  0
   38.4422   23.1584   39.4254 H   0  0  0  0  0  0  0  0  0  0  0  0
   37.2537   24.7141   37.8496 H   0  0  0  0  0  0  0  0  0  0  0  0
   41.3594   22.2672   36.5448 H   0  0  0  0  0  0  0  0  0  0  0  0
  1 17  1  0
  2  6  1  0
  2  1  1  0
  3  2  2  0
  4  3  1  0
  4  5  2  0
  5  6  1  0
  6  7  1  0
  7 12  1  0
  7  8  2  0
  8  9  1  0
  9 10  2  0
 11 13  1  0
 11 10  1  0
 12 11  2  0
 13 16  1  0
 14 13  1  0
 15 13  1  0
 17 21  1  0
 18 22  1  0
 18 25  1  0
 19 18  2  0
 20 19  1  0
 20 21  1  0
 21 22  2  0
 24 23  2  0
 25 24  1  0
 26 25  2  0
 26 27  1  0
 27 28  2  0
 28 23  1  0
  1 29  1  0
  1 30  1  0
  3 31  1  0
  5 32  1  0
  8 33  1  0
  9 34  1  0
 17 35  1  0
 17 36  1  0
 23 37  1  0
 24 38  1  0
 27 39  1  0
M  ISO  8  29   8  30   8  31  14  32  14  33  14  34  14  35   8  36   8
M  ISO  3  37  14  38  14  39  14
M  END
>  <minimizedAffinity>  (1) 
-5.8819046

>  <minimizedRMSD>  (1) 
0.518884838

$$$$
