
     RDKit          3D

 43 47  0  0  0  0  0  0  0  0999 V2000
   35.9000   28.4100   33.0670 C   0  0  0  0  0  0  0  0  0  0  0  0
   36.1110   29.7050   32.4280 C   0  0  0  0  0  0  0  0  0  0  0  0
   36.6770   30.0810   31.2260 C   0  0  0  0  0  0  0  0  0  0  0  0
   36.6420   31.4110   31.0750 N   0  0  0  0  0  0  0  0  0  0  0  0
   36.0620   31.9260   32.1600 C   0  0  0  0  0  0  0  0  0  0  0  0
   35.7460   30.9010   32.9660 N   0  0  0  0  0  0  0  0  0  0  0  0
   35.1040   31.0800   34.2300 C   0  0  0  0  0  0  0  0  0  0  0  0
   35.7890   31.7550   35.2220 C   0  0  0  0  0  0  0  0  0  0  0  0
   35.2680   31.9900   36.4900 C   0  0  0  0  0  0  0  0  0  0  0  0
   34.0180   31.5360   36.7800 N   0  0  0  0  0  0  0  0  0  0  0  0
   33.3580   30.8720   35.7860 C   0  0  0  0  0  0  0  0  0  0  0  0
   33.8800   30.6560   34.5680 N   0  0  0  0  0  0  0  0  0  0  0  0
   31.9960   30.3780   36.1040 C   0  0  0  0  0  0  0  0  0  0  0  0
   31.8130   29.6600   37.4050 C   0  0  0  0  0  0  0  0  0  0  0  0
   31.8490   28.8810   36.1320 C   0  0  0  0  0  0  0  0  0  0  0  0
   36.5240   28.2030   34.4120 C   0  0  0  0  0  0  0  0  0  0  0  0
   38.1410   25.0640   35.2050 C   0  0  0  0  0  0  0  0  0  0  0  0
   37.7470   24.8940   33.9040 N   0  0  0  0  0  0  0  0  0  0  0  0
   37.1410   26.0090   33.5380 O   0  0  0  0  0  0  0  0  0  0  0  0
   37.1260   26.8670   34.5110 C   0  0  0  0  0  0  0  0  0  0  0  0
   37.7340   26.3140   35.5490 N   0  0  0  0  0  0  0  0  0  0  0  0
   39.0340   23.1880   38.2990 C   0  0  0  0  0  0  0  0  0  0  0  0
   38.3060   24.0200   37.4480 C   0  0  0  0  0  0  0  0  0  0  0  0
   38.8380   24.2160   36.1460 C   0  0  0  0  0  0  0  0  0  0  0  0
   40.0180   23.5800   35.8210 N   0  0  0  0  0  0  0  0  0  0  0  0
   40.6530   22.8010   36.6950 C   0  0  0  0  0  0  0  0  0  0  0  0
   40.1770   22.6010   37.9170 N   0  0  0  0  0  0  0  0  0  0  0  0
   36.3016   27.6388   32.3933 H   0  0  0  0  0  0  0  0  0  0  0  0
   34.8159   28.3539   33.2448 H   0  0  0  0  0  0  0  0  0  0  0  0
   37.1003   29.3812   30.4904 H   0  0  0  0  0  0  0  0  0  0  0  0
   35.8772   32.9923   32.3573 H   0  0  0  0  0  0  0  0  0  0  0  0
   36.7998   32.1261   34.9971 H   0  0  0  0  0  0  0  0  0  0  0  0
   35.8556   32.5330   37.2449 H   0  0  0  0  0  0  0  0  0  0  0  0
   31.4832   31.2163   35.6097 H   0  0  0  0  0  0  0  0  0  0  0  0
   32.6499   29.5895   38.1154 H   0  0  0  0  0  0  0  0  0  0  0  0
   31.1059   29.7429   38.2436 H   0  0  0  0  0  0  0  0  0  0  0  0
   30.9314   28.4110   35.7484 H   0  0  0  0  0  0  0  0  0  0  0  0
   32.4404   28.0338   35.7546 H   0  0  0  0  0  0  0  0  0  0  0  0
   37.3048   28.9621   34.5674 H   0  0  0  0  0  0  0  0  0  0  0  0
   35.7416   28.2935   35.1799 H   0  0  0  0  0  0  0  0  0  0  0  0
   38.6577   23.0078   39.3168 H   0  0  0  0  0  0  0  0  0  0  0  0
   37.3691   24.4990   37.7687 H   0  0  0  0  0  0  0  0  0  0  0  0
   41.5926   22.3128   36.3971 H   0  0  0  0  0  0  0  0  0  0  0  0
  1 16  1  0
  2  6  1  0
  2  1  1  0
  3  2  2  0
  4  3  1  0
  4  5  2  0
  5  6  1  0
  6  7  1  0
  7 12  1  0
  7  8  2  0
  8  9  1  0
  9 10  2  0
 11 13  1  0
 11 10  1  0
 12 11  2  0
 13 15  1  0
 13 14  1  0
 15 14  1  0
 16 20  1  0
 17 21  1  0
 17 24  1  0
 18 17  2  0
 19 18  1  0
 19 20  1  0
 20 21  2  0
 23 22  2  0
 24 23  1  0
 25 24  2  0
 25 26  1  0
 26 27  2  0
 27 22  1  0
  1 28  1  0
  1 29  1  0
  3 30  1  0
  5 31  1  0
  8 32  1  0
  9 33  1  0
 13 34  1  0
 14 35  1  0
 14 36  1  0
 15 37  1  0
 15 38  1  0
 16 39  1  0
 16 40  1  0
 22 41  1  0
 23 42  1  0
 26 43  1  0
M  ISO  8  28   8  29   8  30  14  31  14  32  14  33  14  34  13  35  13
M  ISO  8  36  13  37  13  38  13  39   8  40   8  41  14  42  14  43  14
M  END
>  <minimizedAffinity>  (1) 
-5.74507713

>  <minimizedRMSD>  (1) 
0.637011409

$$$$
