
     RDKit          3D

 39 42  0  0  0  0  0  0  0  0999 V2000
   35.7290   28.6770   33.5110 C   0  0  0  0  0  0  0  0  0  0  0  0
   35.8160   29.9630   32.8310 C   0  0  0  0  0  0  0  0  0  0  0  0
   36.3070   30.3550   31.6120 C   0  0  0  0  0  0  0  0  0  0  0  0
   36.1580   31.6760   31.4310 N   0  0  0  0  0  0  0  0  0  0  0  0
   35.5740   32.1650   32.5160 C   0  0  0  0  0  0  0  0  0  0  0  0
   35.3670   31.1500   33.3550 N   0  0  0  0  0  0  0  0  0  0  0  0
   34.7520   31.3070   34.6310 C   0  0  0  0  0  0  0  0  0  0  0  0
   35.4780   31.9430   35.6270 C   0  0  0  0  0  0  0  0  0  0  0  0
   34.9880   32.1580   36.9200 C   0  0  0  0  0  0  0  0  0  0  0  0
   33.7380   31.7220   37.2180 N   0  0  0  0  0  0  0  0  0  0  0  0
   33.0470   31.1050   36.2350 C   0  0  0  0  0  0  0  0  0  0  0  0
   33.5090   30.8910   34.9820 N   0  0  0  0  0  0  0  0  0  0  0  0
   31.6860   30.6330   36.5640 C   0  0  0  0  0  0  0  0  0  0  0  0
   36.5880   28.4760   34.7020 C   0  0  0  0  0  0  0  0  0  0  0  0
   38.1120   25.2440   35.3050 C   0  0  0  0  0  0  0  0  0  0  0  0
   37.6810   25.1580   34.0100 N   0  0  0  0  0  0  0  0  0  0  0  0
   37.1120   26.2960   33.7080 O   0  0  0  0  0  0  0  0  0  0  0  0
   37.1500   27.1100   34.7280 C   0  0  0  0  0  0  0  0  0  0  0  0
   37.7570   26.4850   35.7120 N   0  0  0  0  0  0  0  0  0  0  0  0
   38.9910   23.1840   38.2820 C   0  0  0  0  0  0  0  0  0  0  0  0
   38.2700   24.0900   37.4970 C   0  0  0  0  0  0  0  0  0  0  0  0
   38.8020   24.3170   36.1810 C   0  0  0  0  0  0  0  0  0  0  0  0
   39.9410   23.6520   35.7990 N   0  0  0  0  0  0  0  0  0  0  0  0
   40.5590   22.8060   36.6150 C   0  0  0  0  0  0  0  0  0  0  0  0
   40.1040   22.5650   37.8400 N   0  0  0  0  0  0  0  0  0  0  0  0
   35.9916   27.8985   32.7796 H   0  0  0  0  0  0  0  0  0  0  0  0
   34.6995   28.6311   33.8956 H   0  0  0  0  0  0  0  0  0  0  0  0
   36.7637   29.6748   30.8780 H   0  0  0  0  0  0  0  0  0  0  0  0
   35.3083   33.2178   32.6921 H   0  0  0  0  0  0  0  0  0  0  0  0
   36.4918   32.2968   35.3881 H   0  0  0  0  0  0  0  0  0  0  0  0
   35.6016   32.6684   37.6770 H   0  0  0  0  0  0  0  0  0  0  0  0
   31.5664   30.5915   37.6567 H   0  0  0  0  0  0  0  0  0  0  0  0
   30.9449   31.3266   36.1401 H   0  0  0  0  0  0  0  0  0  0  0  0
   31.5335   29.6295   36.1401 H   0  0  0  0  0  0  0  0  0  0  0  0
   37.4128   29.2034   34.6770 H   0  0  0  0  0  0  0  0  0  0  0  0
   35.9741   28.6184   35.6036 H   0  0  0  0  0  0  0  0  0  0  0  0
   38.6356   22.9681   39.3004 H   0  0  0  0  0  0  0  0  0  0  0  0
   37.3615   24.5925   37.8605 H   0  0  0  0  0  0  0  0  0  0  0  0
   41.4684   22.2930   36.2689 H   0  0  0  0  0  0  0  0  0  0  0  0
  1 14  1  0
  2  6  1  0
  2  1  1  0
  3  2  2  0
  4  3  1  0
  4  5  2  0
  5  6  1  0
  6  7  1  0
  7 12  1  0
  7  8  2  0
  8  9  1  0
  9 10  2  0
 11 13  1  0
 11 10  1  0
 12 11  2  0
 14 18  1  0
 15 19  1  0
 15 22  1  0
 16 15  2  0
 17 16  1  0
 17 18  1  0
 18 19  2  0
 21 20  2  0
 22 21  1  0
 23 22  2  0
 23 24  1  0
 24 25  2  0
 25 20  1  0
  1 26  1  0
  1 27  1  0
  3 28  1  0
  5 29  1  0
  8 30  1  0
  9 31  1  0
 13 32  1  0
 13 33  1  0
 13 34  1  0
 14 35  1  0
 14 36  1  0
 20 37  1  0
 21 38  1  0
 24 39  1  0
M  ISO  8  26   8  27   8  28  14  29  14  30  14  31  14  32   8  33   8
M  ISO  6  34   8  35   8  36   8  37  14  38  14  39  14
M  END
>  <minimizedAffinity>  (1) 
-5.52771044

>  <minimizedRMSD>  (1) 
0.0920948908

$$$$
