
     RDKit          3D

 11 11  0  0  0  0  0  0  0  0999 V2000
   39.8030   22.6010   37.4060 C   0  0  0  0  0  0  0  0  0  0  0  0
   39.2010   23.2950   38.4820 C   0  0  0  0  0  0  0  0  0  0  0  0
   37.9350   23.8420   38.2680 C   0  0  0  0  0  0  0  0  0  0  0  0
   37.3390   23.6920   37.0590 N   0  0  0  0  0  0  0  0  0  0  0  0
   37.9500   23.0180   36.0510 C   0  0  0  0  0  0  0  0  0  0  0  0
   39.1640   22.4800   36.2190 N   0  0  0  0  0  0  0  0  0  0  0  0
   41.0470   22.0610   37.6140 O   0  0  0  0  0  0  0  0  0  0  0  0
   39.7116   23.3995   39.4507 H   0  0  0  0  0  0  0  0  0  0  0  0
   37.4246   24.3904   39.0735 H   0  0  0  0  0  0  0  0  0  0  0  0
   37.4398   22.9126   35.0822 H   0  0  0  0  0  0  0  0  0  0  0  0
   41.5008   21.5681   36.8852 H   0  0  0  0  0  0  0  0  0  0  0  0
  1  7  1  0
  1  2  2  0
  3  2  1  0
  4  3  2  0
  5  6  2  0
  5  4  1  0
  6  1  1  0
  2  8  1  0
  3  9  1  0
  5 10  1  0
  7 11  1  0
M  ISO  4   8  14   9  14  10  14  11   3
M  END
>  <minimizedAffinity>  (1) 
-2.73463655

>  <minimizedRMSD>  (1) 
0.769718885

$$$$
