
     RDKit          3D

 27 29  0  0  0  0  0  0  0  0999 V2000
   41.2280   22.7040   37.5170 O   0  0  0  0  0  0  0  0  0  0  0  0
   42.2300   21.9200   37.0370 C   0  0  0  0  0  0  0  0  0  0  0  0
   42.3780   20.5590   37.0060 C   0  0  0  0  0  0  0  0  0  0  0  0
   43.4730   19.9260   36.4740 C   0  0  0  0  0  0  0  0  0  0  0  0
   44.4990   20.6640   35.9310 C   0  0  0  0  0  0  0  0  0  0  0  0
   44.3880   22.0450   35.9430 C   0  0  0  0  0  0  0  0  0  0  0  0
   45.4570   22.7080   35.3810 C   0  0  0  0  0  0  0  0  0  0  0  0
   45.4240   24.0830   35.3540 C   0  0  0  0  0  0  0  0  0  0  0  0
   44.3510   24.7370   35.8740 C   0  0  0  0  0  0  0  0  0  0  0  0
   43.2960   24.0540   36.4290 C   0  0  0  0  0  0  0  0  0  0  0  0
   43.2730   22.6740   36.4850 C   0  0  0  0  0  0  0  0  0  0  0  0
   39.9040   22.7120   37.2190 C   0  0  0  0  0  0  0  0  0  0  0  0
   39.0670   23.2680   38.2030 C   0  0  0  0  0  0  0  0  0  0  0  0
   37.6860   23.2980   37.9390 C   0  0  0  0  0  0  0  0  0  0  0  0
   37.2350   22.8010   36.7720 N   0  0  0  0  0  0  0  0  0  0  0  0
   38.0730   22.2760   35.8550 C   0  0  0  0  0  0  0  0  0  0  0  0
   39.3810   22.2350   36.0780 N   0  0  0  0  0  0  0  0  0  0  0  0
   41.5748   19.9391   37.4310 H   0  0  0  0  0  0  0  0  0  0  0  0
   43.5304   18.8275   36.4817 H   0  0  0  0  0  0  0  0  0  0  0  0
   45.3828   20.1715   35.4993 H   0  0  0  0  0  0  0  0  0  0  0  0
   46.3119   22.1540   34.9660 H   0  0  0  0  0  0  0  0  0  0  0  0
   46.2589   24.6490   34.9153 H   0  0  0  0  0  0  0  0  0  0  0  0
   44.3273   25.8365   35.8497 H   0  0  0  0  0  0  0  0  0  0  0  0
   42.4474   24.6209   36.8395 H   0  0  0  0  0  0  0  0  0  0  0  0
   39.4770   23.6644   39.1436 H   0  0  0  0  0  0  0  0  0  0  0  0
   36.9856   23.7208   38.6743 H   0  0  0  0  0  0  0  0  0  0  0  0
   37.6686   21.8777   34.9127 H   0  0  0  0  0  0  0  0  0  0  0  0
  2  1  1  0
  3  2  2  0
  4  3  1  0
  5  6  1  0
  5  4  2  0
  6 11  2  0
  7  6  1  0
  8  7  2  0
  8  9  1  0
  9 10  2  0
 10 11  1  0
 11  2  1  0
 12  1  1  0
 12 13  2  0
 14 13  1  0
 15 14  2  0
 16 17  2  0
 16 15  1  0
 17 12  1  0
  3 18  1  0
  4 19  1  0
  5 20  1  0
  7 21  1  0
  8 22  1  0
  9 23  1  0
 10 24  1  0
 13 25  1  0
 14 26  1  0
 16 27  1  0
M  ISO  8  18  14  19  14  20  14  21  14  22  14  23  14  24  14  25  14
M  ISO  2  26  14  27  14
M  END
>  <minimizedAffinity>  (1) 
-4.54786396

>  <minimizedRMSD>  (1) 
0.757557929

$$$$
