
     RDKit          3D

 21 22  0  0  0  0  0  0  0  0999 V2000
   40.7160   21.8110   37.6720 O   0  0  0  0  0  0  0  0  0  0  0  0
   39.6450   22.6120   37.4090 C   0  0  0  0  0  0  0  0  0  0  0  0
   39.1240   23.3400   38.4990 C   0  0  0  0  0  0  0  0  0  0  0  0
   38.0190   24.1740   38.2550 C   0  0  0  0  0  0  0  0  0  0  0  0
   37.5040   24.2460   36.9960 N   0  0  0  0  0  0  0  0  0  0  0  0
   38.0460   23.5220   35.9800 C   0  0  0  0  0  0  0  0  0  0  0  0
   39.0990   22.7190   36.1820 N   0  0  0  0  0  0  0  0  0  0  0  0
   41.9400   22.0140   37.0390 C   0  0  0  0  0  0  0  0  0  0  0  0
   42.4940   23.2490   36.6830 C   0  0  0  0  0  0  0  0  0  0  0  0
   43.7260   23.2720   36.0570 C   0  0  0  0  0  0  0  0  0  0  0  0
   44.4400   22.1290   35.7640 C   0  0  0  0  0  0  0  0  0  0  0  0
   43.9310   20.8830   36.0980 C   0  0  0  0  0  0  0  0  0  0  0  0
   42.7020   20.9000   36.7200 C   0  0  0  0  0  0  0  0  0  0  0  0
   39.5660   23.2582   39.5029 H   0  0  0  0  0  0  0  0  0  0  0  0
   37.5751   24.7620   39.0718 H   0  0  0  0  0  0  0  0  0  0  0  0
   37.6110   23.5974   34.9725 H   0  0  0  0  0  0  0  0  0  0  0  0
   41.9581   24.1853   36.8978 H   0  0  0  0  0  0  0  0  0  0  0  0
   44.1564   24.2457   35.7800 H   0  0  0  0  0  0  0  0  0  0  0  0
   45.4166   22.2060   35.2636 H   0  0  0  0  0  0  0  0  0  0  0  0
   44.4697   19.9486   35.8819 H   0  0  0  0  0  0  0  0  0  0  0  0
   42.2784   19.9225   36.9938 H   0  0  0  0  0  0  0  0  0  0  0  0
  2  1  1  0
  2  3  2  0
  4  3  1  0
  5  4  2  0
  6  7  2  0
  6  5  1  0
  7  2  1  0
  8  1  1  0
  9  8  2  0
 10  9  1  0
 11 10  2  0
 11 12  1  0
 12 13  2  0
 13  8  1  0
  3 14  1  0
  4 15  1  0
  6 16  1  0
  9 17  1  0
 10 18  1  0
 11 19  1  0
 12 20  1  0
 13 21  1  0
M  ISO  8  14  14  15  14  16  14  17  14  18  14  19  14  20  14  21  14
M  END
>  <minimizedAffinity>  (1) 
-3.91333103

>  <minimizedRMSD>  (1) 
1.62848365

$$$$
