
     RDKit          3D

 14 14  0  0  0  0  0  0  0  0999 V2000
   38.4760   24.6890   36.4210 C   0  0  0  0  0  0  0  0  0  0  0  0
   39.5810   24.0110   35.8620 C   0  0  0  0  0  0  0  0  0  0  0  0
   40.1790   23.0210   36.6280 C   0  0  0  0  0  0  0  0  0  0  0  0
   39.7120   22.7270   37.8570 N   0  0  0  0  0  0  0  0  0  0  0  0
   38.6380   23.4030   38.3690 C   0  0  0  0  0  0  0  0  0  0  0  0
   38.0210   24.3740   37.6670 N   0  0  0  0  0  0  0  0  0  0  0  0
   37.8660   25.6690   35.6930 O   0  0  0  0  0  0  0  0  0  0  0  0
   38.2710   27.0350   35.8440 C   0  0  0  0  0  0  0  0  0  0  0  0
   39.5200   27.2140   35.2880 F   0  0  0  0  0  0  0  0  0  0  0  0
   37.3000   27.8200   35.2180 F   0  0  0  0  0  0  0  0  0  0  0  0
   38.3000   27.2710   37.2200 F   0  0  0  0  0  0  0  0  0  0  0  0
   39.9537   24.2584   34.8571 H   0  0  0  0  0  0  0  0  0  0  0  0
   41.0432   22.4705   36.2279 H   0  0  0  0  0  0  0  0  0  0  0  0
   38.2707   23.1486   39.3742 H   0  0  0  0  0  0  0  0  0  0  0  0
  1  6  2  0
  2  1  1  0
  2  3  2  0
  3  4  1  0
  4  5  2  0
  6  5  1  0
  7  8  1  0
  7  1  1  0
  8 11  1  0
  9  8  1  0
 10  8  1  0
  2 12  1  0
  3 13  1  0
  5 14  1  0
M  ISO  3  12  14  13  14  14  14
M  END
>  <minimizedAffinity>  (1) 
-3.70480251

>  <minimizedRMSD>  (1) 
5.43300295

$$$$
