
     RDKit          3D

 18 19  0  0  0  0  0  0  0  0999 V2000
   39.9980   22.6600   37.2880 C   0  0  0  0  0  0  0  0  0  0  0  0
   39.1620   23.2450   38.2600 C   0  0  0  0  0  0  0  0  0  0  0  0
   37.7910   23.3230   37.9920 C   0  0  0  0  0  0  0  0  0  0  0  0
   37.3350   22.8370   36.8200 N   0  0  0  0  0  0  0  0  0  0  0  0
   38.1570   22.2800   35.9000 C   0  0  0  0  0  0  0  0  0  0  0  0
   39.4670   22.1980   36.1420 N   0  0  0  0  0  0  0  0  0  0  0  0
   41.3380   22.5770   37.5370 O   0  0  0  0  0  0  0  0  0  0  0  0
   42.0330   21.4640   37.0440 C   0  0  0  0  0  0  0  0  0  0  0  0
   42.6090   21.2310   35.8130 C   0  0  0  0  0  0  0  0  0  0  0  0
   43.1450   19.9890   35.8850 N   0  0  0  0  0  0  0  0  0  0  0  0
   42.8990   19.5010   37.1150 C   0  0  0  0  0  0  0  0  0  0  0  0
   42.2070   20.3910   37.8680 N   0  0  0  0  0  0  0  0  0  0  0  0
   39.5760   23.6298   39.2037 H   0  0  0  0  0  0  0  0  0  0  0  0
   37.1003   23.7710   38.7215 H   0  0  0  0  0  0  0  0  0  0  0  0
   37.7461   21.8957   34.9548 H   0  0  0  0  0  0  0  0  0  0  0  0
   42.6291   21.9131   34.9503 H   0  0  0  0  0  0  0  0  0  0  0  0
   43.2183   18.5080   37.4643 H   0  0  0  0  0  0  0  0  0  0  0  0
   41.8859   20.2818   38.8406 H   0  0  0  0  0  0  0  0  0  0  0  0
  1  7  1  0
  1  2  2  0
  3  2  1  0
  4  3  2  0
  5  6  2  0
  5  4  1  0
  6  1  1  0
  8  7  1  0
  8 12  1  0
  9 10  1  0
  9  8  2  0
 10 11  2  0
 11 12  1  0
  2 13  1  0
  3 14  1  0
  5 15  1  0
  9 16  1  0
 11 17  1  0
 12 18  1  0
M  ISO  6  13  14  14  14  15  14  16  14  17  14  18   9
M  END
>  <minimizedAffinity>  (1) 
-3.69985533

>  <minimizedRMSD>  (1) 
0.938990355

$$$$
