
     RDKit          3D

 19 20  0  0  0  0  0  0  0  0999 V2000
   39.8850   22.5050   36.7260 C   0  0  0  0  0  0  0  0  0  0  0  0
   39.7480   23.0140   38.0300 C   0  0  0  0  0  0  0  0  0  0  0  0
   38.4750   23.3620   38.4570 C   0  0  0  0  0  0  0  0  0  0  0  0
   37.4350   23.2000   37.6170 N   0  0  0  0  0  0  0  0  0  0  0  0
   37.5860   22.7100   36.3680 C   0  0  0  0  0  0  0  0  0  0  0  0
   38.8010   22.3580   35.9110 N   0  0  0  0  0  0  0  0  0  0  0  0
   41.1320   22.1600   36.2950 O   0  0  0  0  0  0  0  0  0  0  0  0
   42.0240   23.2170   36.0750 C   0  0  0  0  0  0  0  0  0  0  0  0
   43.2820   23.2460   36.6450 C   0  0  0  0  0  0  0  0  0  0  0  0
   44.1350   24.3020   36.4090 C   0  0  0  0  0  0  0  0  0  0  0  0
   43.7430   25.3170   35.6150 N   0  0  0  0  0  0  0  0  0  0  0  0
   42.5060   25.2950   35.0500 C   0  0  0  0  0  0  0  0  0  0  0  0
   41.6740   24.2590   35.2850 N   0  0  0  0  0  0  0  0  0  0  0  0
   40.6209   23.1321   38.6889 H   0  0  0  0  0  0  0  0  0  0  0  0
   38.3171   23.7649   39.4683 H   0  0  0  0  0  0  0  0  0  0  0  0
   36.7062   22.5975   35.7174 H   0  0  0  0  0  0  0  0  0  0  0  0
   43.6057   22.4184   37.2933 H   0  0  0  0  0  0  0  0  0  0  0  0
   45.1344   24.3161   36.8682 H   0  0  0  0  0  0  0  0  0  0  0  0
   42.1835   26.1225   34.4009 H   0  0  0  0  0  0  0  0  0  0  0  0
  1  2  2  0
  2  3  1  0
  4  3  2  0
  5  4  1  0
  6  5  2  0
  6  1  1  0
  7  1  1  0
  8  7  1  0
  8  9  2  0
 10  9  1  0
 11 10  2  0
 12 13  2  0
 12 11  1  0
 13  8  1  0
  2 14  1  0
  3 15  1  0
  5 16  1  0
  9 17  1  0
 10 18  1  0
 12 19  1  0
M  ISO  6  14  14  15  14  16  14  17  14  18  14  19  14
M  END
>  <minimizedAffinity>  (1) 
-3.60826278

>  <minimizedRMSD>  (1) 
2.74167633

$$$$
