
     RDKit          3D

 45 48  0  0  0  0  0  0  0  0999 V2000
   43.8340   23.3100   35.7320 S   0  0  0  0  0  0  0  0  0  0  0  0
   40.4620   22.4850   37.7180 C   0  0  0  0  0  0  0  0  0  0  0  0
   39.5010   23.2390   37.0480 C   0  0  0  0  0  0  0  0  0  0  0  0
   39.9280   24.0000   35.9730 C   0  0  0  0  0  0  0  0  0  0  0  0
   41.2440   24.0100   35.5880 N   0  0  0  0  0  0  0  0  0  0  0  0
   42.1420   23.2410   36.2960 C   0  0  0  0  0  0  0  0  0  0  0  0
   41.7350   22.5010   37.3370 N   0  0  0  0  0  0  0  0  0  0  0  0
   39.0750   24.8400   35.1590 N   0  0  0  0  0  0  0  0  0  0  0  0
   39.1750   25.2490   33.7600 C   0  0  0  0  0  0  0  0  0  0  0  0
   39.1530   26.7150   33.5370 C   0  0  0  0  0  0  0  0  0  0  0  0
   39.0590   27.3970   34.9090 C   0  0  0  0  0  0  0  0  0  0  0  0
   37.7290   26.8870   35.4580 C   0  0  0  0  0  0  0  0  0  0  0  0
   37.8830   25.4280   35.7400 C   0  0  0  0  0  0  0  0  0  0  0  0
   38.0720   23.2790   37.4070 C   0  0  0  0  0  0  0  0  0  0  0  0
   37.9460   22.5190   38.5870 F   0  0  0  0  0  0  0  0  0  0  0  0
   37.2400   22.7530   36.4830 F   0  0  0  0  0  0  0  0  0  0  0  0
   37.6880   24.5610   37.8390 F   0  0  0  0  0  0  0  0  0  0  0  0
   44.8180   24.2620   36.8720 C   0  0  0  0  0  0  0  0  0  0  0  0
   44.1490   25.1510   37.7340 C   0  0  0  0  0  0  0  0  0  0  0  0
   45.5480   25.8960   38.7080 S   0  0  0  0  0  0  0  0  0  0  0  0
   46.7990   24.8430   37.7470 C   0  0  0  0  0  0  0  0  0  0  0  0
   46.0970   24.3090   37.0870 N   0  0  0  0  0  0  0  0  0  0  0  0
   48.2360   24.8210   37.9090 N   0  0  0  0  0  0  0  0  0  0  0  0
   48.6930   23.8540   38.7110 C   0  0  0  0  0  0  0  0  0  0  0  0
   50.0640   23.9740   38.7550 C   0  0  0  0  0  0  0  0  0  0  0  0
   50.3740   25.0250   37.9670 N   0  0  0  0  0  0  0  0  0  0  0  0
   49.2600   25.5410   37.4510 C   0  0  0  0  0  0  0  0  0  0  0  0
   49.0270   26.6580   36.5550 C   0  0  0  0  0  0  0  0  0  0  0  0
   48.7820   26.4680   35.3320 O   0  0  0  0  0  0  0  0  0  0  0  0
   49.0880   27.9270   37.1110 O   0  0  0  0  0  0  0  0  0  0  0  0
   40.1621   21.8662   38.5766 H   0  0  0  0  0  0  0  0  0  0  0  0
   40.1191   24.8555   33.3552 H   0  0  0  0  0  0  0  0  0  0  0  0
   38.2846   24.8459   33.2554 H   0  0  0  0  0  0  0  0  0  0  0  0
   40.0745   27.0295   33.0251 H   0  0  0  0  0  0  0  0  0  0  0  0
   38.2945   26.9953   32.9090 H   0  0  0  0  0  0  0  0  0  0  0  0
   39.8952   27.0967   35.5575 H   0  0  0  0  0  0  0  0  0  0  0  0
   39.1110   28.4942   34.8512 H   0  0  0  0  0  0  0  0  0  0  0  0
   37.4761   27.4230   36.3847 H   0  0  0  0  0  0  0  0  0  0  0  0
   36.9219   27.0554   34.7298 H   0  0  0  0  0  0  0  0  0  0  0  0
   37.0052   24.9025   35.3358 H   0  0  0  0  0  0  0  0  0  0  0  0
   37.9735   25.3213   36.8311 H   0  0  0  0  0  0  0  0  0  0  0  0
   43.0707   25.3541   37.8121 H   0  0  0  0  0  0  0  0  0  0  0  0
   48.0867   23.1024   39.2377 H   0  0  0  0  0  0  0  0  0  0  0  0
   50.7651   23.3410   39.3187 H   0  0  0  0  0  0  0  0  0  0  0  0
   48.9366   28.7239   36.5434 H   0  0  0  0  0  0  0  0  0  0  0  0
  1  6  1  0
  1 18  1  0
  3 14  1  0
  3  2  2  0
  4  3  1  0
  5  4  2  0
  5  6  1  0
  6  7  2  0
  7  2  1  0
  8 13  1  0
  8  4  1  0
  9  8  1  0
 10  9  1  0
 10 11  1  0
 11 12  1  0
 12 13  1  0
 14 17  1  0
 14 15  1  0
 16 14  1  0
 18 22  1  0
 18 19  2  0
 19 20  1  0
 21 23  1  0
 21 20  1  0
 22 21  2  0
 23 24  1  0
 24 25  2  0
 26 25  1  0
 27 23  1  0
 27 26  2  0
 28 30  1  0
 28 27  1  0
 29 28  2  0
  2 31  1  0
  9 32  1  0
  9 33  1  0
 10 34  1  0
 10 35  1  0
 11 36  1  0
 11 37  1  0
 12 38  1  0
 12 39  1  0
 13 40  1  0
 13 41  1  0
 19 42  1  0
 24 43  1  0
 25 44  1  0
 30 45  1  0
M  ISO  8  31  14  32  13  33  13  34  13  35  13  36  13  37  13  38  13
M  ISO  7  39  13  40  13  41  13  42  14  43  14  44  14  45   3
M  END
>  <minimizedAffinity>  (1) 
-6.24216366

>  <minimizedRMSD>  (1) 
4.21089649

$$$$
