
     RDKit          3D

 23 23  0  0  0  0  0  0  0  0999 V2000
   39.5300   22.7660   36.9230 C   0  0  0  0  0  0  0  0  0  0  0  0
   39.0550   23.1320   38.1980 C   0  0  0  0  0  0  0  0  0  0  0  0
   38.1240   24.1570   38.2690 C   0  0  0  0  0  0  0  0  0  0  0  0
   37.7110   24.7620   37.1170 N   0  0  0  0  0  0  0  0  0  0  0  0
   38.1940   24.3780   35.9090 C   0  0  0  0  0  0  0  0  0  0  0  0
   39.0880   23.3990   35.8060 N   0  0  0  0  0  0  0  0  0  0  0  0
   40.4470   21.7570   36.8500 O   0  0  0  0  0  0  0  0  0  0  0  0
   41.7670   21.8190   36.4130 C   0  0  0  0  0  0  0  0  0  0  0  0
   42.5280   20.7360   37.1900 C   0  0  0  0  0  0  0  0  0  0  0  0
   41.9380   21.4380   34.9510 C   0  0  0  0  0  0  0  0  0  0  0  0
   42.4540   23.1270   36.7050 C   0  0  0  0  0  0  0  0  0  0  0  0
   39.4105   22.6222   39.1056 H   0  0  0  0  0  0  0  0  0  0  0  0
   37.7231   24.4787   39.2415 H   0  0  0  0  0  0  0  0  0  0  0  0
   37.8402   24.8850   34.9992 H   0  0  0  0  0  0  0  0  0  0  0  0
   42.4079   20.9068   38.2700 H   0  0  0  0  0  0  0  0  0  0  0  0
   42.1259   19.7461   36.9284 H   0  0  0  0  0  0  0  0  0  0  0  0
   43.5956   20.7789   36.9284 H   0  0  0  0  0  0  0  0  0  0  0  0
   42.3876   20.4363   34.8833 H   0  0  0  0  0  0  0  0  0  0  0  0
   40.9557   21.4332   34.4560 H   0  0  0  0  0  0  0  0  0  0  0  0
   42.5945   22.1688   34.4560 H   0  0  0  0  0  0  0  0  0  0  0  0
   42.5278   23.2674   37.7935 H   0  0  0  0  0  0  0  0  0  0  0  0
   43.4632   23.1168   36.2674 H   0  0  0  0  0  0  0  0  0  0  0  0
   41.8729   23.9521   36.2674 H   0  0  0  0  0  0  0  0  0  0  0  0
  1  2  2  0
  2  3  1  0
  4  3  2  0
  5  4  1  0
  6  5  2  0
  6  1  1  0
  7  1  1  0
  8 11  1  0
  8  7  1  0
  8  9  1  0
 10  8  1  0
  2 12  1  0
  3 13  1  0
  5 14  1  0
  9 15  1  0
  9 16  1  0
  9 17  1  0
 10 18  1  0
 10 19  1  0
 10 20  1  0
 11 21  1  0
 11 22  1  0
 11 23  1  0
M  ISO  8  12  14  13  14  14  14  15   8  16   8  17   8  18   8  19   8
M  ISO  4  20   8  21   8  22   8  23   8
M  END
>  <minimizedAffinity>  (1) 
-3.28312707

>  <minimizedRMSD>  (1) 
0.980724812

$$$$
