
     RDKit          3D

 13 13  0  0  0  0  0  0  0  0999 V2000
   39.7490   22.8590   37.5660 C   0  0  0  0  0  0  0  0  0  0  0  0
   38.8880   23.3110   38.6030 C   0  0  0  0  0  0  0  0  0  0  0  0
   37.9110   24.2330   38.2590 C   0  0  0  0  0  0  0  0  0  0  0  0
   37.8030   24.6690   36.9840 N   0  0  0  0  0  0  0  0  0  0  0  0
   38.6470   24.2120   36.0230 C   0  0  0  0  0  0  0  0  0  0  0  0
   39.6010   23.3260   36.3040 N   0  0  0  0  0  0  0  0  0  0  0  0
   40.7160   21.9470   37.9090 O   0  0  0  0  0  0  0  0  0  0  0  0
   41.5610   21.4500   36.9230 C   0  0  0  0  0  0  0  0  0  0  0  0
   42.4790   20.5870   37.1310 O   0  0  0  0  0  0  0  0  0  0  0  0
   38.9924   22.9447   39.6350 H   0  0  0  0  0  0  0  0  0  0  0  0
   37.2206   24.6114   39.0272 H   0  0  0  0  0  0  0  0  0  0  0  0
   38.5406   24.5809   34.9922 H   0  0  0  0  0  0  0  0  0  0  0  0
   41.4303   21.8245   35.8970 H   0  0  0  0  0  0  0  0  0  0  0  0
  1  7  1  0
  1  2  2  0
  3  2  1  0
  4  3  2  0
  5  6  2  0
  5  4  1  0
  6  1  1  0
  8  9  2  0
  8  7  1  0
  2 10  1  0
  3 11  1  0
  5 12  1  0
  8 13  1  0
M  ISO  4  10  14  11  14  12  14  13   6
M  END
>  <minimizedAffinity>  (1) 
-3.01689291

>  <minimizedRMSD>  (1) 
1.25511897

$$$$
