
     RDKit          3D

 46 49  0  0  0  0  0  0  0  0999 V2000
   42.2680   23.1860   33.9070 S   0  0  0  0  0  0  0  0  0  0  0  0
   43.6600   24.2270   34.3630 C   0  0  0  0  0  0  0  0  0  0  0  0
   44.1680   25.1060   33.4040 C   0  0  0  0  0  0  0  0  0  0  0  0
   45.5490   25.9310   34.3330 S   0  0  0  0  0  0  0  0  0  0  0  0
   45.1640   24.9110   35.8680 C   0  0  0  0  0  0  0  0  0  0  0  0
   44.3130   24.3220   35.4760 N   0  0  0  0  0  0  0  0  0  0  0  0
   45.8330   24.9450   37.1490 N   0  0  0  0  0  0  0  0  0  0  0  0
   45.2440   25.7330   38.0600 C   0  0  0  0  0  0  0  0  0  0  0  0
   45.9980   25.6550   39.2130 C   0  0  0  0  0  0  0  0  0  0  0  0
   47.0170   24.8160   38.9420 N   0  0  0  0  0  0  0  0  0  0  0  0
   46.9170   24.3820   37.6820 C   0  0  0  0  0  0  0  0  0  0  0  0
   47.7320   23.4830   36.8980 C   0  0  0  0  0  0  0  0  0  0  0  0
   47.3650   22.3060   36.6870 O   0  0  0  0  0  0  0  0  0  0  0  0
   48.9300   23.9990   36.3990 O   0  0  0  0  0  0  0  0  0  0  0  0
   40.1330   22.5380   37.2070 C   0  0  0  0  0  0  0  0  0  0  0  0
   39.0490   23.4350   37.0820 C   0  0  0  0  0  0  0  0  0  0  0  0
   38.9970   24.2500   35.9450 C   0  0  0  0  0  0  0  0  0  0  0  0
   40.0100   24.1220   35.0220 N   0  0  0  0  0  0  0  0  0  0  0  0
   41.0290   23.2430   35.1930 C   0  0  0  0  0  0  0  0  0  0  0  0
   41.0760   22.4660   36.2770 N   0  0  0  0  0  0  0  0  0  0  0  0
   37.9640   25.2430   35.5680 C   0  0  0  0  0  0  0  0  0  0  0  0
   37.7200   25.0900   34.0840 C   0  0  0  0  0  0  0  0  0  0  0  0
   37.0920   26.2840   33.4490 C   0  0  0  0  0  0  0  0  0  0  0  0
   37.8440   27.5540   33.7960 C   0  0  0  0  0  0  0  0  0  0  0  0
   37.6570   27.7120   35.3110 C   0  0  0  0  0  0  0  0  0  0  0  0
   38.5050   26.6170   35.9110 C   0  0  0  0  0  0  0  0  0  0  0  0
   37.9690   23.5620   38.0840 C   0  0  0  0  0  0  0  0  0  0  0  0
   38.3390   22.7200   39.1570 F   0  0  0  0  0  0  0  0  0  0  0  0
   36.7620   23.1850   37.6460 F   0  0  0  0  0  0  0  0  0  0  0  0
   38.0040   24.8270   38.6910 F   0  0  0  0  0  0  0  0  0  0  0  0
   43.8365   25.2678   32.3677 H   0  0  0  0  0  0  0  0  0  0  0  0
   44.3312   26.3296   37.9154 H   0  0  0  0  0  0  0  0  0  0  0  0
   45.8056   26.1741   40.1636 H   0  0  0  0  0  0  0  0  0  0  0  0
   49.5272   23.4265   35.8552 H   0  0  0  0  0  0  0  0  0  0  0  0
   40.1963   21.8874   38.0917 H   0  0  0  0  0  0  0  0  0  0  0  0
   37.0130   25.0992   36.1017 H   0  0  0  0  0  0  0  0  0  0  0  0
   38.6858   24.9035   33.5916 H   0  0  0  0  0  0  0  0  0  0  0  0
   37.0150   24.2547   33.9607 H   0  0  0  0  0  0  0  0  0  0  0  0
   36.0546   26.3740   33.8035 H   0  0  0  0  0  0  0  0  0  0  0  0
   37.1210   26.1514   32.3574 H   0  0  0  0  0  0  0  0  0  0  0  0
   38.9103   27.4551   33.5444 H   0  0  0  0  0  0  0  0  0  0  0  0
   37.4726   28.4252   33.2364 H   0  0  0  0  0  0  0  0  0  0  0  0
   38.0048   28.7007   35.6450 H   0  0  0  0  0  0  0  0  0  0  0  0
   36.6018   27.6377   35.6129 H   0  0  0  0  0  0  0  0  0  0  0  0
   38.5172   26.7333   37.0048 H   0  0  0  0  0  0  0  0  0  0  0  0
   39.5204   26.7010   35.4964 H   0  0  0  0  0  0  0  0  0  0  0  0
  1  2  1  0
  1 19  1  0
  2  6  1  0
  3  4  1  0
  3  2  2  0
  4  5  1  0
  5  7  1  0
  6  5  2  0
  7 11  1  0
  7  8  1  0
  8  9  2  0
 10  9  1  0
 11 10  2  0
 12 11  1  0
 13 12  2  0
 14 12  1  0
 16 15  2  0
 16 27  1  0
 17 16  1  0
 18 19  1  0
 18 17  2  0
 19 20  2  0
 20 15  1  0
 21 26  1  0
 21 17  1  0
 22 21  1  0
 23 24  1  0
 23 22  1  0
 24 25  1  0
 25 26  1  0
 27 30  1  0
 27 28  1  0
 29 27  1  0
  3 31  1  0
  8 32  1  0
  9 33  1  0
 14 34  1  0
 15 35  1  0
 21 36  1  0
 22 37  1  0
 22 38  1  0
 23 39  1  0
 23 40  1  0
 24 41  1  0
 24 42  1  0
 25 43  1  0
 25 44  1  0
 26 45  1  0
 26 46  1  0
M  ISO  8  31  14  32  14  33  14  34   3  35  14  36  13  37  13  38  13
M  ISO  8  39  13  40  13  41  13  42  13  43  13  44  13  45  13  46  13
M  END
>  <minimizedAffinity>  (1) 
-6.21382236

>  <minimizedRMSD>  (1) 
3.87458611

$$$$
