
     RDKit          3D

 33 36  0  0  0  0  0  0  0  0999 V2000
   42.0200   22.3440   36.9000 C   0  0  0  0  0  0  0  0  0  0  0  0
   42.6610   21.2900   36.2670 C   0  0  0  0  0  0  0  0  0  0  0  0
   43.9970   22.1600   35.4100 S   0  0  0  0  0  0  0  0  0  0  0  0
   43.4590   23.8470   36.0620 C   0  0  0  0  0  0  0  0  0  0  0  0
   42.5650   23.5160   36.6740 N   0  0  0  0  0  0  0  0  0  0  0  0
   44.2960   24.9410   35.6100 C   0  0  0  0  0  0  0  0  0  0  0  0
   44.0250   25.7680   34.5360 C   0  0  0  0  0  0  0  0  0  0  0  0
   44.8370   26.8030   34.1250 C   0  0  0  0  0  0  0  0  0  0  0  0
   45.9890   27.0310   34.8200 C   0  0  0  0  0  0  0  0  0  0  0  0
   46.3350   26.2540   35.9030 C   0  0  0  0  0  0  0  0  0  0  0  0
   47.5050   26.5130   36.5820 C   0  0  0  0  0  0  0  0  0  0  0  0
   47.8550   25.7220   37.6820 C   0  0  0  0  0  0  0  0  0  0  0  0
   46.9720   24.6970   38.0270 C   0  0  0  0  0  0  0  0  0  0  0  0
   45.8070   24.4600   37.3290 C   0  0  0  0  0  0  0  0  0  0  0  0
   45.4710   25.2420   36.2500 C   0  0  0  0  0  0  0  0  0  0  0  0
   40.9010   21.9850   37.6750 O   0  0  0  0  0  0  0  0  0  0  0  0
   39.7220   22.6200   37.5060 C   0  0  0  0  0  0  0  0  0  0  0  0
   39.1730   23.3340   38.5840 C   0  0  0  0  0  0  0  0  0  0  0  0
   37.9630   23.9820   38.4040 C   0  0  0  0  0  0  0  0  0  0  0  0
   37.3520   23.9030   37.1930 N   0  0  0  0  0  0  0  0  0  0  0  0
   37.8960   23.2060   36.1580 C   0  0  0  0  0  0  0  0  0  0  0  0
   39.0790   22.5680   36.3200 N   0  0  0  0  0  0  0  0  0  0  0  0
   42.4223   20.2163   36.2817 H   0  0  0  0  0  0  0  0  0  0  0  0
   43.0985   25.5878   33.9711 H   0  0  0  0  0  0  0  0  0  0  0  0
   44.5643   27.4274   33.2614 H   0  0  0  0  0  0  0  0  0  0  0  0
   46.6536   27.8507   34.5094 H   0  0  0  0  0  0  0  0  0  0  0  0
   48.1602   27.3365   36.2616 H   0  0  0  0  0  0  0  0  0  0  0  0
   48.7815   25.8993   38.2478 H   0  0  0  0  0  0  0  0  0  0  0  0
   47.2147   24.0553   38.8869 H   0  0  0  0  0  0  0  0  0  0  0  0
   45.1422   23.6398   37.6377 H   0  0  0  0  0  0  0  0  0  0  0  0
   39.6941   23.3773   39.5518 H   0  0  0  0  0  0  0  0  0  0  0  0
   37.5045   24.5506   39.2265 H   0  0  0  0  0  0  0  0  0  0  0  0
   37.3746   23.1612   35.1904 H   0  0  0  0  0  0  0  0  0  0  0  0
  1 16  1  0
  2  1  2  0
  3  4  1  0
  3  2  1  0
  4  5  2  0
  5  1  1  0
  6  4  1  0
  6 15  1  0
  7  6  2  0
  8  7  1  0
  8  9  2  0
  9 10  1  0
 10 15  2  0
 10 11  1  0
 11 12  2  0
 12 13  1  0
 14 13  2  0
 15 14  1  0
 17 16  1  0
 17 18  2  0
 19 18  1  0
 20 19  2  0
 21 22  2  0
 21 20  1  0
 22 17  1  0
  2 23  1  0
  7 24  1  0
  8 25  1  0
  9 26  1  0
 11 27  1  0
 12 28  1  0
 13 29  1  0
 14 30  1  0
 18 31  1  0
 19 32  1  0
 21 33  1  0
M  ISO  8  23  14  24  14  25  14  26  14  27  14  28  14  29  14  30  14
M  ISO  3  31  14  32  14  33  14
M  END
>  <minimizedAffinity>  (1) 
-5.28668356

>  <minimizedRMSD>  (1) 
1.39101934

$$$$
