
     RDKit          3D

 31 34  0  0  0  0  0  0  0  0999 V2000
   42.0360   22.3660   36.8840 C   0  0  0  0  0  0  0  0  0  0  0  0
   42.6730   21.3200   36.2310 C   0  0  0  0  0  0  0  0  0  0  0  0
   44.0050   22.1970   35.3750 S   0  0  0  0  0  0  0  0  0  0  0  0
   43.4700   23.8770   36.0560 C   0  0  0  0  0  0  0  0  0  0  0  0
   42.5750   23.5460   36.6730 N   0  0  0  0  0  0  0  0  0  0  0  0
   44.3450   24.9820   35.5820 C   0  0  0  0  0  0  0  0  0  0  0  0
   44.1070   25.7740   34.5280 N   0  0  0  0  0  0  0  0  0  0  0  0
   44.9510   26.7500   34.1660 C   0  0  0  0  0  0  0  0  0  0  0  0
   46.0840   26.9860   34.8450 N   0  0  0  0  0  0  0  0  0  0  0  0
   46.4070   26.2390   35.9200 C   0  0  0  0  0  0  0  0  0  0  0  0
   47.5700   26.4770   36.6220 C   0  0  0  0  0  0  0  0  0  0  0  0
   47.8790   25.6910   37.7270 C   0  0  0  0  0  0  0  0  0  0  0  0
   46.9680   24.6900   38.0610 C   0  0  0  0  0  0  0  0  0  0  0  0
   45.8150   24.4800   37.3380 C   0  0  0  0  0  0  0  0  0  0  0  0
   45.5120   25.2500   36.2540 C   0  0  0  0  0  0  0  0  0  0  0  0
   40.9280   22.0110   37.6600 O   0  0  0  0  0  0  0  0  0  0  0  0
   39.7370   22.6340   37.4880 C   0  0  0  0  0  0  0  0  0  0  0  0
   39.1910   23.3310   38.5660 C   0  0  0  0  0  0  0  0  0  0  0  0
   37.9670   23.9750   38.4030 C   0  0  0  0  0  0  0  0  0  0  0  0
   37.3600   23.8950   37.1940 N   0  0  0  0  0  0  0  0  0  0  0  0
   37.9130   23.2090   36.1560 C   0  0  0  0  0  0  0  0  0  0  0  0
   39.0890   22.5880   36.3120 N   0  0  0  0  0  0  0  0  0  0  0  0
   42.4329   20.2465   36.2331 H   0  0  0  0  0  0  0  0  0  0  0  0
   44.7093   27.3722   33.2917 H   0  0  0  0  0  0  0  0  0  0  0  0
   48.2493   27.2839   36.3097 H   0  0  0  0  0  0  0  0  0  0  0  0
   48.7982   25.8515   38.3095 H   0  0  0  0  0  0  0  0  0  0  0  0
   47.1768   24.0478   38.9293 H   0  0  0  0  0  0  0  0  0  0  0  0
   45.1264   23.6772   37.6401 H   0  0  0  0  0  0  0  0  0  0  0  0
   39.7192   23.3713   39.5301 H   0  0  0  0  0  0  0  0  0  0  0  0
   37.5062   24.5325   39.2317 H   0  0  0  0  0  0  0  0  0  0  0  0
   37.3929   23.1649   35.1877 H   0  0  0  0  0  0  0  0  0  0  0  0
  1 16  1  0
  2  1  2  0
  3  4  1  0
  3  2  1  0
  4  5  2  0
  5  1  1  0
  6  4  1  0
  6 15  1  0
  7  6  2  0
  8  7  1  0
  8  9  2  0
  9 10  1  0
 10 15  2  0
 10 11  1  0
 11 12  2  0
 12 13  1  0
 14 13  2  0
 15 14  1  0
 17 16  1  0
 17 18  2  0
 19 18  1  0
 20 19  2  0
 21 22  2  0
 21 20  1  0
 22 17  1  0
  2 23  1  0
  8 24  1  0
 11 25  1  0
 12 26  1  0
 13 27  1  0
 14 28  1  0
 18 29  1  0
 19 30  1  0
 21 31  1  0
M  ISO  8  23  14  24  14  25  14  26  14  27  14  28  14  29  14  30  14
M  ISO  1  31  14
M  END
>  <minimizedAffinity>  (1) 
-5.21020937

>  <minimizedRMSD>  (1) 
1.17528141

$$$$
