
     RDKit          3D

 40 43  0  0  0  0  0  0  0  0999 V2000
   40.3770   22.5090   37.6300 C   0  0  0  0  0  0  0  0  0  0  0  0
   39.3740   23.3100   37.0400 C   0  0  0  0  0  0  0  0  0  0  0  0
   39.7570   24.1620   36.0140 C   0  0  0  0  0  0  0  0  0  0  0  0
   41.0770   24.1920   35.6170 N   0  0  0  0  0  0  0  0  0  0  0  0
   42.0060   23.4010   36.2170 C   0  0  0  0  0  0  0  0  0  0  0  0
   41.6340   22.5830   37.2030 N   0  0  0  0  0  0  0  0  0  0  0  0
   38.9280   25.0960   35.2660 C   0  0  0  0  0  0  0  0  0  0  0  0
   38.9970   26.4260   35.7120 C   0  0  0  0  0  0  0  0  0  0  0  0
   38.3070   27.4960   35.1540 C   0  0  0  0  0  0  0  0  0  0  0  0
   37.4900   27.2330   34.0740 C   0  0  0  0  0  0  0  0  0  0  0  0
   37.3980   25.9470   33.6120 C   0  0  0  0  0  0  0  0  0  0  0  0
   38.0920   24.9300   34.1880 C   0  0  0  0  0  0  0  0  0  0  0  0
   37.9590   23.2990   37.4520 C   0  0  0  0  0  0  0  0  0  0  0  0
   37.9150   22.6160   38.6880 F   0  0  0  0  0  0  0  0  0  0  0  0
   37.1400   22.6700   36.5920 F   0  0  0  0  0  0  0  0  0  0  0  0
   37.5300   24.5900   37.8130 F   0  0  0  0  0  0  0  0  0  0  0  0
   43.6820   23.5040   35.6440 S   0  0  0  0  0  0  0  0  0  0  0  0
   44.6880   24.3930   36.8280 C   0  0  0  0  0  0  0  0  0  0  0  0
   44.0290   25.2040   37.7600 C   0  0  0  0  0  0  0  0  0  0  0  0
   45.4440   25.9090   38.7580 S   0  0  0  0  0  0  0  0  0  0  0  0
   46.6790   24.9460   37.6960 C   0  0  0  0  0  0  0  0  0  0  0  0
   45.9640   24.4350   37.0030 N   0  0  0  0  0  0  0  0  0  0  0  0
   48.1150   24.9250   37.8070 N   0  0  0  0  0  0  0  0  0  0  0  0
   48.5960   23.8920   38.5280 C   0  0  0  0  0  0  0  0  0  0  0  0
   49.9760   24.0160   38.5390 C   0  0  0  0  0  0  0  0  0  0  0  0
   50.2570   25.1230   37.8200 N   0  0  0  0  0  0  0  0  0  0  0  0
   49.1280   25.6730   37.3770 C   0  0  0  0  0  0  0  0  0  0  0  0
   48.8660   26.8500   36.5740 C   0  0  0  0  0  0  0  0  0  0  0  0
   48.3950   26.7450   35.4220 O   0  0  0  0  0  0  0  0  0  0  0  0
   49.1570   28.0800   37.1310 O   0  0  0  0  0  0  0  0  0  0  0  0
   40.1166   21.8203   38.4472 H   0  0  0  0  0  0  0  0  0  0  0  0
   39.6494   26.6380   36.5719 H   0  0  0  0  0  0  0  0  0  0  0  0
   38.4086   28.5139   35.5583 H   0  0  0  0  0  0  0  0  0  0  0  0
   36.9221   28.0424   33.5921 H   0  0  0  0  0  0  0  0  0  0  0  0
   36.7458   25.7316   32.7528 H   0  0  0  0  0  0  0  0  0  0  0  0
   37.9783   23.9195   33.7686 H   0  0  0  0  0  0  0  0  0  0  0  0
   42.9497   25.3817   37.8759 H   0  0  0  0  0  0  0  0  0  0  0  0
   48.0055   23.1017   39.0146 H   0  0  0  0  0  0  0  0  0  0  0  0
   50.6964   23.3477   39.0335 H   0  0  0  0  0  0  0  0  0  0  0  0
   48.9924   28.9086   36.6148 H   0  0  0  0  0  0  0  0  0  0  0  0
  2 13  1  0
  2  1  2  0
  3  2  1  0
  4  3  2  0
  4  5  1  0
  5  6  2  0
  6  1  1  0
  7  8  2  0
  7  3  1  0
  9  8  1  0
 10  9  2  0
 11 10  1  0
 11 12  2  0
 12  7  1  0
 13 16  1  0
 13 14  1  0
 15 13  1  0
 17  5  1  0
 17 18  1  0
 18 22  1  0
 18 19  2  0
 19 20  1  0
 21 23  1  0
 21 20  1  0
 22 21  2  0
 23 24  1  0
 24 25  2  0
 26 25  1  0
 27 23  1  0
 27 26  2  0
 28 30  1  0
 28 27  1  0
 29 28  2  0
  1 31  1  0
  8 32  1  0
  9 33  1  0
 10 34  1  0
 11 35  1  0
 12 36  1  0
 19 37  1  0
 24 38  1  0
 25 39  1  0
 30 40  1  0
M  ISO  8  31  14  32  14  33  14  34  14  35  14  36  14  37  14  38  14
M  ISO  2  39  14  40   3
M  END
>  <minimizedAffinity>  (1) 
-6.16673183

>  <minimizedRMSD>  (1) 
4.18410301

$$$$
