
     RDKit          3D

 32 34  0  0  0  0  0  0  0  0999 V2000
   41.8910   22.1820   36.6220 C   0  0  0  0  0  0  0  0  0  0  0  0
   42.2450   21.3750   35.5290 C   0  0  0  0  0  0  0  0  0  0  0  0
   43.8710   22.0240   35.1150 S   0  0  0  0  0  0  0  0  0  0  0  0
   43.8290   23.3060   36.4980 C   0  0  0  0  0  0  0  0  0  0  0  0
   42.7980   23.0840   36.9600 N   0  0  0  0  0  0  0  0  0  0  0  0
   44.8520   24.2360   36.7880 N   0  0  0  0  0  0  0  0  0  0  0  0
   44.5980   25.3590   37.6350 C   0  0  0  0  0  0  0  0  0  0  0  0
   45.6420   25.4320   38.7330 C   0  0  0  0  0  0  0  0  0  0  0  0
   47.0370   25.2640   38.2360 C   0  0  0  0  0  0  0  0  0  0  0  0
   47.2080   24.0590   37.3420 C   0  0  0  0  0  0  0  0  0  0  0  0
   46.1860   24.0790   36.2350 C   0  0  0  0  0  0  0  0  0  0  0  0
   40.6300   21.9010   37.1800 O   0  0  0  0  0  0  0  0  0  0  0  0
   39.6630   22.8540   37.1540 C   0  0  0  0  0  0  0  0  0  0  0  0
   39.0300   23.1830   38.3520 C   0  0  0  0  0  0  0  0  0  0  0  0
   38.0400   24.1590   38.3230 C   0  0  0  0  0  0  0  0  0  0  0  0
   37.7220   24.7570   37.1430 N   0  0  0  0  0  0  0  0  0  0  0  0
   38.3640   24.4070   35.9940 C   0  0  0  0  0  0  0  0  0  0  0  0
   39.3160   23.4750   35.9920 N   0  0  0  0  0  0  0  0  0  0  0  0
   41.6784   20.5616   35.0522 H   0  0  0  0  0  0  0  0  0  0  0  0
   44.6345   26.2813   37.0367 H   0  0  0  0  0  0  0  0  0  0  0  0
   43.6034   25.2474   38.0914 H   0  0  0  0  0  0  0  0  0  0  0  0
   45.5628   26.4128   39.2246 H   0  0  0  0  0  0  0  0  0  0  0  0
   45.4423   24.6018   39.4264 H   0  0  0  0  0  0  0  0  0  0  0  0
   47.3166   26.1635   37.6679 H   0  0  0  0  0  0  0  0  0  0  0  0
   47.6816   25.1138   39.1146 H   0  0  0  0  0  0  0  0  0  0  0  0
   48.2171   24.0723   36.9044 H   0  0  0  0  0  0  0  0  0  0  0  0
   47.0686   23.1469   37.9408 H   0  0  0  0  0  0  0  0  0  0  0  0
   46.2384   23.1338   35.6747 H   0  0  0  0  0  0  0  0  0  0  0  0
   46.3989   24.9247   35.5645 H   0  0  0  0  0  0  0  0  0  0  0  0
   39.3059   22.6847   39.2931 H   0  0  0  0  0  0  0  0  0  0  0  0
   37.5176   24.4456   39.2476 H   0  0  0  0  0  0  0  0  0  0  0  0
   38.0916   24.9028   35.0506 H   0  0  0  0  0  0  0  0  0  0  0  0
  1  5  1  0
  1 12  1  0
  2  1  2  0
  3  2  1  0
  3  4  1  0
  4  6  1  0
  4  5  2  0
  6  7  1  0
  7  8  1  0
  9  8  1  0
 10  9  1  0
 11  6  1  0
 11 10  1  0
 13 12  1  0
 13 14  2  0
 15 14  1  0
 16 15  2  0
 17 16  1  0
 18 17  2  0
 18 13  1  0
  2 19  1  0
  7 20  1  0
  7 21  1  0
  8 22  1  0
  8 23  1  0
  9 24  1  0
  9 25  1  0
 10 26  1  0
 10 27  1  0
 11 28  1  0
 11 29  1  0
 14 30  1  0
 15 31  1  0
 17 32  1  0
M  ISO  8  19  14  20  13  21  13  22  13  23  13  24  13  25  13  26  13
M  ISO  6  27  13  28  13  29  13  30  14  31  14  32  14
M  END
>  <minimizedAffinity>  (1) 
-5.01951122

>  <minimizedRMSD>  (1) 
1.20087922

$$$$
