
     RDKit          3D

 26 28  0  0  0  0  0  0  0  0999 V2000
   41.8310   22.1330   36.4700 C   0  0  0  0  0  0  0  0  0  0  0  0
   42.1810   21.3570   35.3660 C   0  0  0  0  0  0  0  0  0  0  0  0
   43.8400   21.9900   34.9860 S   0  0  0  0  0  0  0  0  0  0  0  0
   43.7750   23.2180   36.4110 C   0  0  0  0  0  0  0  0  0  0  0  0
   42.7410   23.0100   36.8590 N   0  0  0  0  0  0  0  0  0  0  0  0
   44.9240   24.1620   36.7200 C   0  0  0  0  0  0  0  0  0  0  0  0
   44.6760   25.0390   37.7370 C   0  0  0  0  0  0  0  0  0  0  0  0
   45.7210   25.8970   38.0160 C   0  0  0  0  0  0  0  0  0  0  0  0
   46.9170   25.8430   37.2950 C   0  0  0  0  0  0  0  0  0  0  0  0
   47.0710   24.9130   36.2790 C   0  0  0  0  0  0  0  0  0  0  0  0
   46.0470   24.0740   36.0070 N   0  0  0  0  0  0  0  0  0  0  0  0
   40.5550   21.8690   37.0120 O   0  0  0  0  0  0  0  0  0  0  0  0
   39.6100   22.8370   37.0320 C   0  0  0  0  0  0  0  0  0  0  0  0
   39.0250   23.1690   38.2590 C   0  0  0  0  0  0  0  0  0  0  0  0
   38.0520   24.1680   38.2670 C   0  0  0  0  0  0  0  0  0  0  0  0
   37.7130   24.7730   37.1130 N   0  0  0  0  0  0  0  0  0  0  0  0
   38.3000   24.4300   35.9350 C   0  0  0  0  0  0  0  0  0  0  0  0
   39.2340   23.4730   35.9100 N   0  0  0  0  0  0  0  0  0  0  0  0
   41.6044   20.5693   34.8590 H   0  0  0  0  0  0  0  0  0  0  0  0
   43.7239   25.0600   38.2875 H   0  0  0  0  0  0  0  0  0  0  0  0
   45.6101   26.6377   38.8216 H   0  0  0  0  0  0  0  0  0  0  0  0
   47.7355   26.5381   37.5337 H   0  0  0  0  0  0  0  0  0  0  0  0
   48.0081   24.8588   35.7054 H   0  0  0  0  0  0  0  0  0  0  0  0
   39.3228   22.6587   39.1869 H   0  0  0  0  0  0  0  0  0  0  0  0
   37.5650   24.4596   39.2093 H   0  0  0  0  0  0  0  0  0  0  0  0
   38.0072   24.9387   35.0047 H   0  0  0  0  0  0  0  0  0  0  0  0
  1  5  1  0
  1 12  1  0
  2  1  2  0
  3  2  1  0
  3  4  1  0
  4  6  1  0
  4  5  2  0
  6  7  2  0
  7  8  1  0
  9  8  2  0
 10  9  1  0
 11 10  2  0
 11  6  1  0
 12 13  1  0
 13 14  2  0
 14 15  1  0
 16 15  2  0
 17 16  1  0
 18 17  2  0
 18 13  1  0
  2 19  1  0
  7 20  1  0
  8 21  1  0
  9 22  1  0
 10 23  1  0
 14 24  1  0
 15 25  1  0
 17 26  1  0
M  ISO  8  19  14  20  14  21  14  22  14  23  14  24  14  25  14  26  14
M  END
>  <minimizedAffinity>  (1) 
-4.45410824

>  <minimizedRMSD>  (1) 
1.21202242

$$$$
