
     RDKit          3D

 24 25  0  0  0  0  0  0  0  0999 V2000
   41.9630   22.1850   37.0490 C   0  0  0  0  0  0  0  0  0  0  0  0
   42.5760   21.0080   36.6230 C   0  0  0  0  0  0  0  0  0  0  0  0
   44.0160   21.6810   35.7450 S   0  0  0  0  0  0  0  0  0  0  0  0
   43.5300   23.4650   36.1140 C   0  0  0  0  0  0  0  0  0  0  0  0
   42.5790   23.3000   36.7040 N   0  0  0  0  0  0  0  0  0  0  0  0
   44.3940   24.4780   35.6080 N   0  0  0  0  0  0  0  0  0  0  0  0
   44.8430   25.6040   36.3220 C   0  0  0  0  0  0  0  0  0  0  0  0
   44.4450   25.7490   37.5410 N   0  0  0  0  0  0  0  0  0  0  0  0
   45.7070   26.5030   35.6430 N   0  0  0  0  0  0  0  0  0  0  0  0
   44.7370   26.5640   38.1360 H   0  0  0  0  0  0  0  0  0  0  0  0
   40.7690   22.0070   37.7920 O   0  0  0  0  0  0  0  0  0  0  0  0
   39.6830   22.7670   37.5210 C   0  0  0  0  0  0  0  0  0  0  0  0
   39.0460   23.3950   38.6000 C   0  0  0  0  0  0  0  0  0  0  0  0
   37.9220   24.1810   38.3150 C   0  0  0  0  0  0  0  0  0  0  0  0
   37.5060   24.2990   37.0350 N   0  0  0  0  0  0  0  0  0  0  0  0
   38.1470   23.6790   36.0190 C   0  0  0  0  0  0  0  0  0  0  0  0
   39.2260   22.9170   36.2520 N   0  0  0  0  0  0  0  0  0  0  0  0
   42.2720   19.9620   36.7761 H   0  0  0  0  0  0  0  0  0  0  0  0
   44.7180   24.3775   34.6355 H   0  0  0  0  0  0  0  0  0  0  0  0
   46.0608   27.3411   36.1260 H   0  0  0  0  0  0  0  0  0  0  0  0
   45.9800   26.3171   34.6674 H   0  0  0  0  0  0  0  0  0  0  0  0
   39.4140   23.2754   39.6297 H   0  0  0  0  0  0  0  0  0  0  0  0
   37.3841   24.6964   39.1243 H   0  0  0  0  0  0  0  0  0  0  0  0
   37.7795   23.8008   34.9894 H   0  0  0  0  0  0  0  0  0  0  0  0
  1 11  1  0
  2  1  2  0
  3  4  1  0
  3  2  1  0
  4  5  2  0
  5  1  1  0
  6  4  1  0
  6  7  1  0
  7  8  2  0
  8 10  1  0
  9  7  1  0
 12 11  1  0
 12 13  2  0
 14 13  1  0
 15 14  2  0
 16 17  2  0
 16 15  1  0
 17 12  1  0
  2 18  1  0
  6 19  1  0
  9 20  1  0
  9 21  1  0
 13 22  1  0
 14 23  1  0
 16 24  1  0
M  ISO  4  18  14  22  14  23  14  24  14
M  END
>  <minimizedAffinity>  (1) 
-4.43752909

>  <minimizedRMSD>  (1) 
0.146945447

$$$$
