
     RDKit          3D

 30 32  0  0  0  0  0  0  0  0999 V2000
   41.9070   22.1140   37.0190 C   0  0  0  0  0  0  0  0  0  0  0  0
   42.4960   20.9380   36.5480 C   0  0  0  0  0  0  0  0  0  0  0  0
   44.0200   21.6070   35.8290 S   0  0  0  0  0  0  0  0  0  0  0  0
   43.5770   23.3880   36.3020 C   0  0  0  0  0  0  0  0  0  0  0  0
   42.5730   23.2360   36.8150 N   0  0  0  0  0  0  0  0  0  0  0  0
   44.6720   24.1890   35.8240 N   0  0  0  0  0  0  0  0  0  0  0  0
   44.7710   24.8740   34.5230 C   0  0  0  0  0  0  0  0  0  0  0  0
   44.7520   26.3480   34.8770 C   0  0  0  0  0  0  0  0  0  0  0  0
   45.7800   26.7000   35.7220 O   0  0  0  0  0  0  0  0  0  0  0  0
   46.5790   25.6700   36.1480 C   0  0  0  0  0  0  0  0  0  0  0  0
   45.8640   24.4440   36.6250 C   0  0  0  0  0  0  0  0  0  0  0  0
   40.6540   21.8930   37.6550 O   0  0  0  0  0  0  0  0  0  0  0  0
   39.6260   22.7310   37.4150 C   0  0  0  0  0  0  0  0  0  0  0  0
   38.9860   23.3310   38.5170 C   0  0  0  0  0  0  0  0  0  0  0  0
   37.9300   24.1950   38.2640 C   0  0  0  0  0  0  0  0  0  0  0  0
   37.5520   24.4300   36.9920 N   0  0  0  0  0  0  0  0  0  0  0  0
   38.1900   23.8350   35.9440 C   0  0  0  0  0  0  0  0  0  0  0  0
   39.2140   22.9950   36.1410 N   0  0  0  0  0  0  0  0  0  0  0  0
   42.1367   19.8996   36.5990 H   0  0  0  0  0  0  0  0  0  0  0  0
   43.9165   24.6160   33.8802 H   0  0  0  0  0  0  0  0  0  0  0  0
   45.6730   24.5866   33.9628 H   0  0  0  0  0  0  0  0  0  0  0  0
   44.8402   26.9345   33.9506 H   0  0  0  0  0  0  0  0  0  0  0  0
   43.8054   26.5547   35.3977 H   0  0  0  0  0  0  0  0  0  0  0  0
   47.2278   25.3773   35.3093 H   0  0  0  0  0  0  0  0  0  0  0  0
   47.1238   26.0567   37.0219 H   0  0  0  0  0  0  0  0  0  0  0  0
   45.5683   24.5857   37.6750 H   0  0  0  0  0  0  0  0  0  0  0  0
   46.5419   23.5831   36.5283 H   0  0  0  0  0  0  0  0  0  0  0  0
   39.3131   23.1212   39.5461 H   0  0  0  0  0  0  0  0  0  0  0  0
   37.4045   24.6852   39.0968 H   0  0  0  0  0  0  0  0  0  0  0  0
   37.8573   24.0491   34.9176 H   0  0  0  0  0  0  0  0  0  0  0  0
  1 12  1  0
  2  1  2  0
  3  4  1  0
  3  2  1  0
  4  5  2  0
  5  1  1  0
  6  4  1  0
  6 11  1  0
  7  8  1  0
  7  6  1  0
  8  9  1  0
  9 10  1  0
 10 11  1  0
 13 12  1  0
 13 14  2  0
 15 14  1  0
 16 15  2  0
 17 18  2  0
 17 16  1  0
 18 13  1  0
  2 19  1  0
  7 20  1  0
  7 21  1  0
  8 22  1  0
  8 23  1  0
 10 24  1  0
 10 25  1  0
 11 26  1  0
 11 27  1  0
 14 28  1  0
 15 29  1  0
 17 30  1  0
M  ISO  8  19  14  20  13  21  13  22  13  23  13  24  13  25  13  26  13
M  ISO  4  27  13  28  14  29  14  30  14
M  END
>  <minimizedAffinity>  (1) 
-4.43110466

>  <minimizedRMSD>  (1) 
0.183771446

$$$$
