
     RDKit          3D

 24 26  0  0  0  0  0  0  0  0999 V2000
   41.8570   22.0150   36.9910 C   0  0  0  0  0  0  0  0  0  0  0  0
   42.3540   20.8940   36.3440 C   0  0  0  0  0  0  0  0  0  0  0  0
   43.9520   21.4800   35.7130 S   0  0  0  0  0  0  0  0  0  0  0  0
   43.6800   23.2120   36.4530 C   0  0  0  0  0  0  0  0  0  0  0  0
   42.6490   23.0690   36.9420 N   0  0  0  0  0  0  0  0  0  0  0  0
   44.5130   24.4130   36.4350 N   0  0  0  0  0  0  0  0  0  0  0  0
   45.4500   24.6030   37.3140 N   0  0  0  0  0  0  0  0  0  0  0  0
   46.0900   25.7780   37.1050 C   0  0  0  0  0  0  0  0  0  0  0  0
   45.4320   26.2950   35.9830 C   0  0  0  0  0  0  0  0  0  0  0  0
   44.4460   25.4210   35.5800 C   0  0  0  0  0  0  0  0  0  0  0  0
   40.6020   21.8440   37.5880 O   0  0  0  0  0  0  0  0  0  0  0  0
   39.6150   22.7380   37.3390 C   0  0  0  0  0  0  0  0  0  0  0  0
   38.9440   23.3260   38.4120 C   0  0  0  0  0  0  0  0  0  0  0  0
   37.9360   24.2390   38.1600 C   0  0  0  0  0  0  0  0  0  0  0  0
   37.6310   24.5340   36.8810 N   0  0  0  0  0  0  0  0  0  0  0  0
   38.2940   23.9520   35.8460 C   0  0  0  0  0  0  0  0  0  0  0  0
   39.2750   23.0650   36.0780 N   0  0  0  0  0  0  0  0  0  0  0  0
   41.8954   19.8997   36.2394 H   0  0  0  0  0  0  0  0  0  0  0  0
   46.9213   26.2174   37.6758 H   0  0  0  0  0  0  0  0  0  0  0  0
   45.6664   27.2535   35.4968 H   0  0  0  0  0  0  0  0  0  0  0  0
   43.7541   25.5360   34.7326 H   0  0  0  0  0  0  0  0  0  0  0  0
   39.2136   23.0664   39.4464 H   0  0  0  0  0  0  0  0  0  0  0  0
   37.3928   24.7159   38.9891 H   0  0  0  0  0  0  0  0  0  0  0  0
   38.0246   24.2098   34.8111 H   0  0  0  0  0  0  0  0  0  0  0  0
  1 11  1  0
  2  1  2  0
  3  2  1  0
  3  4  1  0
  4  5  2  0
  5  1  1  0
  6  4  1  0
  6  7  1  0
  8  7  2  0
  9  8  1  0
 10  9  2  0
 10  6  1  0
 12 11  1  0
 12 13  2  0
 14 13  1  0
 15 14  2  0
 16 17  2  0
 16 15  1  0
 17 12  1  0
  2 18  1  0
  8 19  1  0
  9 20  1  0
 10 21  1  0
 13 22  1  0
 14 23  1  0
 16 24  1  0
M  ISO  7  18  14  19  14  20  14  21  14  22  14  23  14  24  14
M  END
>  <minimizedAffinity>  (1) 
-4.40557528

>  <minimizedRMSD>  (1) 
0.524745882

$$$$
