
     RDKit          3D

 29 30  0  0  0  0  0  0  0  0999 V2000
   40.5850   21.8680   37.4320 O   0  0  0  0  0  0  0  0  0  0  0  0
   39.6420   22.8250   37.2920 C   0  0  0  0  0  0  0  0  0  0  0  0
   38.9640   23.2650   38.4310 C   0  0  0  0  0  0  0  0  0  0  0  0
   37.9930   24.2530   38.2780 C   0  0  0  0  0  0  0  0  0  0  0  0
   37.7460   24.7430   37.0450 N   0  0  0  0  0  0  0  0  0  0  0  0
   38.4220   24.2960   35.9500 C   0  0  0  0  0  0  0  0  0  0  0  0
   39.3660   23.3400   36.0820 N   0  0  0  0  0  0  0  0  0  0  0  0
   41.8780   22.0720   36.9130 C   0  0  0  0  0  0  0  0  0  0  0  0
   42.4440   20.9610   36.3020 C   0  0  0  0  0  0  0  0  0  0  0  0
   44.0610   21.6000   35.7790 S   0  0  0  0  0  0  0  0  0  0  0  0
   43.6850   23.3090   36.4980 C   0  0  0  0  0  0  0  0  0  0  0  0
   42.6450   23.1480   36.9150 N   0  0  0  0  0  0  0  0  0  0  0  0
   44.6700   24.4480   36.4200 C   0  0  0  0  0  0  0  0  0  0  0  0
   46.0520   23.9340   36.1340 C   0  0  0  0  0  0  0  0  0  0  0  0
   44.1340   25.3460   35.3590 C   0  0  0  0  0  0  0  0  0  0  0  0
   44.6440   25.2460   37.7200 C   0  0  0  0  0  0  0  0  0  0  0  0
   39.1901   22.8434   39.4215 H   0  0  0  0  0  0  0  0  0  0  0  0
   37.4361   24.6279   39.1494 H   0  0  0  0  0  0  0  0  0  0  0  0
   38.1985   24.7143   34.9575 H   0  0  0  0  0  0  0  0  0  0  0  0
   42.0218   19.9540   36.1692 H   0  0  0  0  0  0  0  0  0  0  0  0
   46.5745   23.7397   37.0823 H   0  0  0  0  0  0  0  0  0  0  0  0
   45.9837   23.0011   35.5551 H   0  0  0  0  0  0  0  0  0  0  0  0
   46.6099   24.6847   35.5551 H   0  0  0  0  0  0  0  0  0  0  0  0
   43.6235   26.2012   35.8259 H   0  0  0  0  0  0  0  0  0  0  0  0
   44.9626   25.7102   34.7338 H   0  0  0  0  0  0  0  0  0  0  0  0
   43.4201   24.7896   34.7338 H   0  0  0  0  0  0  0  0  0  0  0  0
   44.6665   24.5545   38.5752 H   0  0  0  0  0  0  0  0  0  0  0  0
   45.5210   25.9087   37.7611 H   0  0  0  0  0  0  0  0  0  0  0  0
   43.7257   25.8502   37.7611 H   0  0  0  0  0  0  0  0  0  0  0  0
  2  1  1  0
  2  3  2  0
  4  3  1  0
  5  4  2  0
  6  7  2  0
  6  5  1  0
  7  2  1  0
  8 12  1  0
  8  1  1  0
  9  8  2  0
 10  9  1  0
 10 11  1  0
 11 12  2  0
 13 11  1  0
 13 16  1  0
 14 13  1  0
 15 13  1  0
  3 17  1  0
  4 18  1  0
  6 19  1  0
  9 20  1  0
 14 21  1  0
 14 22  1  0
 14 23  1  0
 15 24  1  0
 15 25  1  0
 15 26  1  0
 16 27  1  0
 16 28  1  0
 16 29  1  0
M  ISO  8  17  14  18  14  19  14  20  14  21   8  22   8  23   8  24   8
M  ISO  5  25   8  26   8  27   8  28   8  29   8
M  END
>  <minimizedAffinity>  (1) 
-4.30907631

>  <minimizedRMSD>  (1) 
0.656668484

$$$$
