
     RDKit          3D

 24 26  0  0  0  0  0  0  0  0999 V2000
   41.7930   22.0580   36.8250 C   0  0  0  0  0  0  0  0  0  0  0  0
   42.4290   20.9650   36.2270 C   0  0  0  0  0  0  0  0  0  0  0  0
   44.0460   21.7000   35.8520 S   0  0  0  0  0  0  0  0  0  0  0  0
   43.5650   23.3750   36.5820 C   0  0  0  0  0  0  0  0  0  0  0  0
   42.5060   23.1660   36.9150 N   0  0  0  0  0  0  0  0  0  0  0  0
   44.6140   24.3770   36.5100 C   0  0  0  0  0  0  0  0  0  0  0  0
   45.6460   24.7530   37.3150 C   0  0  0  0  0  0  0  0  0  0  0  0
   46.4170   25.7850   36.8410 C   0  0  0  0  0  0  0  0  0  0  0  0
   46.1480   26.3800   35.6360 C   0  0  0  0  0  0  0  0  0  0  0  0
   44.6320   25.4030   35.0620 S   0  0  0  0  0  0  0  0  0  0  0  0
   40.4650   21.7990   37.2450 O   0  0  0  0  0  0  0  0  0  0  0  0
   39.5230   22.7640   37.1470 C   0  0  0  0  0  0  0  0  0  0  0  0
   38.9640   23.2530   38.3430 C   0  0  0  0  0  0  0  0  0  0  0  0
   37.9920   24.2500   38.2360 C   0  0  0  0  0  0  0  0  0  0  0  0
   37.6350   24.6970   36.9930 N   0  0  0  0  0  0  0  0  0  0  0  0
   38.1930   24.2060   35.8760 C   0  0  0  0  0  0  0  0  0  0  0  0
   39.1300   23.2470   35.9530 N   0  0  0  0  0  0  0  0  0  0  0  0
   42.0551   19.9480   36.0376 H   0  0  0  0  0  0  0  0  0  0  0  0
   45.8479   24.2633   38.2790 H   0  0  0  0  0  0  0  0  0  0  0  0
   47.2677   26.1416   37.4402 H   0  0  0  0  0  0  0  0  0  0  0  0
   46.6738   27.2063   35.1352 H   0  0  0  0  0  0  0  0  0  0  0  0
   39.2802   22.8653   39.3226 H   0  0  0  0  0  0  0  0  0  0  0  0
   37.5207   24.6695   39.1370 H   0  0  0  0  0  0  0  0  0  0  0  0
   37.8818   24.5904   34.8934 H   0  0  0  0  0  0  0  0  0  0  0  0
  1  5  1  0
  1 11  1  0
  2  1  2  0
  3  2  1  0
  3  4  1  0
  4  5  2  0
  6  4  1  0
  6  7  2  0
  8  7  1  0
  9  8  2  0
 10  9  1  0
 10  6  1  0
 12 11  1  0
 12 13  2  0
 14 13  1  0
 15 14  2  0
 16 17  2  0
 16 15  1  0
 17 12  1  0
  2 18  1  0
  7 19  1  0
  8 20  1  0
  9 21  1  0
 13 22  1  0
 14 23  1  0
 16 24  1  0
M  ISO  7  18  14  19  14  20  14  21  14  22  14  23  14  24  14
M  END
>  <minimizedAffinity>  (1) 
-4.20220661

>  <minimizedRMSD>  (1) 
0.758750975

$$$$
