
     RDKit          3D

 42 45  0  0  0  0  0  0  0  0999 V2000
   44.0670   23.2660   35.7120 S   0  0  0  0  0  0  0  0  0  0  0  0
   45.0210   24.2390   36.8850 C   0  0  0  0  0  0  0  0  0  0  0  0
   44.3230   25.1030   37.7380 C   0  0  0  0  0  0  0  0  0  0  0  0
   45.7010   25.8580   38.7260 S   0  0  0  0  0  0  0  0  0  0  0  0
   46.9740   24.8360   37.7740 C   0  0  0  0  0  0  0  0  0  0  0  0
   46.2990   24.2800   37.0870 N   0  0  0  0  0  0  0  0  0  0  0  0
   48.4110   24.8370   37.9510 N   0  0  0  0  0  0  0  0  0  0  0  0
   48.8640   23.8640   38.7650 C   0  0  0  0  0  0  0  0  0  0  0  0
   50.2360   23.9960   38.8330 C   0  0  0  0  0  0  0  0  0  0  0  0
   50.5500   25.0520   38.0480 N   0  0  0  0  0  0  0  0  0  0  0  0
   49.4360   25.5590   37.5150 C   0  0  0  0  0  0  0  0  0  0  0  0
   49.2040   26.6710   36.6190 C   0  0  0  0  0  0  0  0  0  0  0  0
   49.0550   26.4810   35.3830 O   0  0  0  0  0  0  0  0  0  0  0  0
   49.1570   27.9400   37.1770 O   0  0  0  0  0  0  0  0  0  0  0  0
   40.5290   22.4950   37.3800 C   0  0  0  0  0  0  0  0  0  0  0  0
   39.6700   23.4150   36.7870 C   0  0  0  0  0  0  0  0  0  0  0  0
   40.2190   24.2820   35.8560 C   0  0  0  0  0  0  0  0  0  0  0  0
   41.5510   24.2290   35.5370 N   0  0  0  0  0  0  0  0  0  0  0  0
   42.3450   23.2900   36.1640 C   0  0  0  0  0  0  0  0  0  0  0  0
   41.8200   22.4500   37.0650 N   0  0  0  0  0  0  0  0  0  0  0  0
   39.4910   25.2840   35.1530 N   0  0  0  0  0  0  0  0  0  0  0  0
   39.7240   26.7010   34.8270 C   0  0  0  0  0  0  0  0  0  0  0  0
   38.4500   27.4050   35.3070 C   0  0  0  0  0  0  0  0  0  0  0  0
   37.4240   26.2660   35.3050 C   0  0  0  0  0  0  0  0  0  0  0  0
   38.1830   25.2280   34.4810 C   0  0  0  0  0  0  0  0  0  0  0  0
   38.2300   23.5310   37.0790 C   0  0  0  0  0  0  0  0  0  0  0  0
   37.9980   22.7100   38.1980 F   0  0  0  0  0  0  0  0  0  0  0  0
   37.4210   23.1260   36.0770 F   0  0  0  0  0  0  0  0  0  0  0  0
   37.9100   24.8120   37.5680 F   0  0  0  0  0  0  0  0  0  0  0  0
   43.2405   25.2864   37.8050 H   0  0  0  0  0  0  0  0  0  0  0  0
   48.2545   23.1062   39.2792 H   0  0  0  0  0  0  0  0  0  0  0  0
   50.9330   23.3695   39.4088 H   0  0  0  0  0  0  0  0  0  0  0  0
   49.0005   28.7290   36.5999 H   0  0  0  0  0  0  0  0  0  0  0  0
   40.1317   21.7900   38.1251 H   0  0  0  0  0  0  0  0  0  0  0  0
   40.6071   27.0847   35.3589 H   0  0  0  0  0  0  0  0  0  0  0  0
   39.9202   26.8630   33.7568 H   0  0  0  0  0  0  0  0  0  0  0  0
   38.5814   27.8205   36.3170 H   0  0  0  0  0  0  0  0  0  0  0  0
   38.1580   28.2607   34.6805 H   0  0  0  0  0  0  0  0  0  0  0  0
   37.2128   25.9048   36.3223 H   0  0  0  0  0  0  0  0  0  0  0  0
   36.4327   26.5356   34.9116 H   0  0  0  0  0  0  0  0  0  0  0  0
   38.2540   25.5182   33.4223 H   0  0  0  0  0  0  0  0  0  0  0  0
   37.7194   24.2311   34.4467 H   0  0  0  0  0  0  0  0  0  0  0  0
  1 19  1  0
  1  2  1  0
  2  6  1  0
  2  3  2  0
  3  4  1  0
  5  7  1  0
  5  4  1  0
  6  5  2  0
  7  8  1  0
  8  9  2  0
 10  9  1  0
 11  7  1  0
 11 10  2  0
 12 14  1  0
 12 11  1  0
 13 12  2  0
 16 26  1  0
 16 15  2  0
 17 16  1  0
 18 17  2  0
 18 19  1  0
 19 20  2  0
 20 15  1  0
 21 17  1  0
 22 21  1  0
 22 23  1  0
 24 23  1  0
 25 21  1  0
 25 24  1  0
 26 29  1  0
 26 27  1  0
 28 26  1  0
  3 30  1  0
  8 31  1  0
  9 32  1  0
 14 33  1  0
 15 34  1  0
 22 35  1  0
 22 36  1  0
 23 37  1  0
 23 38  1  0
 24 39  1  0
 24 40  1  0
 25 41  1  0
 25 42  1  0
M  ISO  8  30  14  31  14  32  14  33   3  34  14  35  13  36  13  37  13
M  ISO  5  38  13  39  13  40  13  41  13  42  13
M  END
>  <minimizedAffinity>  (1) 
-6.14664125

>  <minimizedRMSD>  (1) 
4.38682795

$$$$
