
     RDKit          3D

 20 21  0  0  0  0  0  0  0  0999 V2000
   40.5810   21.7730   37.3150 O   0  0  0  0  0  0  0  0  0  0  0  0
   39.5780   22.6730   37.2080 C   0  0  0  0  0  0  0  0  0  0  0  0
   39.0520   23.2160   38.3790 C   0  0  0  0  0  0  0  0  0  0  0  0
   38.0120   24.1480   38.2560 C   0  0  0  0  0  0  0  0  0  0  0  0
   37.5640   24.4820   37.0300 N   0  0  0  0  0  0  0  0  0  0  0  0
   38.0990   23.9350   35.9080 C   0  0  0  0  0  0  0  0  0  0  0  0
   39.0950   23.0400   36.0090 N   0  0  0  0  0  0  0  0  0  0  0  0
   41.8700   22.0850   36.8490 C   0  0  0  0  0  0  0  0  0  0  0  0
   42.5460   21.0390   36.2330 C   0  0  0  0  0  0  0  0  0  0  0  0
   44.1220   21.8200   35.7870 S   0  0  0  0  0  0  0  0  0  0  0  0
   43.5790   23.4900   36.5370 C   0  0  0  0  0  0  0  0  0  0  0  0
   42.5250   23.2300   36.9160 N   0  0  0  0  0  0  0  0  0  0  0  0
   44.4000   24.7580   36.5710 C   0  0  0  0  0  0  0  0  0  0  0  0
   44.3520   25.1520   37.9050 F   0  0  0  0  0  0  0  0  0  0  0  0
   43.8930   25.6930   35.7200 F   0  0  0  0  0  0  0  0  0  0  0  0
   45.7280   24.4820   36.3210 F   0  0  0  0  0  0  0  0  0  0  0  0
   39.4397   22.9232   39.3659 H   0  0  0  0  0  0  0  0  0  0  0  0
   37.5656   24.6027   39.1527 H   0  0  0  0  0  0  0  0  0  0  0  0
   37.7170   24.2247   34.9179 H   0  0  0  0  0  0  0  0  0  0  0  0
   42.2122   20.0052   36.0604 H   0  0  0  0  0  0  0  0  0  0  0  0
  2  1  1  0
  2  3  2  0
  4  3  1  0
  5  4  2  0
  6  7  2  0
  6  5  1  0
  7  2  1  0
  8 12  1  0
  8  1  1  0
  9  8  2  0
 10  9  1  0
 10 11  1  0
 11 13  1  0
 11 12  2  0
 13 14  1  0
 15 13  1  0
 16 13  1  0
  3 17  1  0
  4 18  1  0
  6 19  1  0
  9 20  1  0
M  ISO  4  17  14  18  14  19  14  20  14
M  END
>  <minimizedAffinity>  (1) 
-4.14640141

>  <minimizedRMSD>  (1) 
0.626170695

$$$$
