
     RDKit          3D

 20 21  0  0  0  0  0  0  0  0999 V2000
   40.7660   21.8990   37.6560 O   0  0  0  0  0  0  0  0  0  0  0  0
   39.6650   22.6640   37.4590 C   0  0  0  0  0  0  0  0  0  0  0  0
   39.1130   23.3430   38.5500 C   0  0  0  0  0  0  0  0  0  0  0  0
   37.9740   24.1340   38.3440 C   0  0  0  0  0  0  0  0  0  0  0  0
   37.4650   24.1950   37.0800 N   0  0  0  0  0  0  0  0  0  0  0  0
   38.0090   23.5360   36.0450 C   0  0  0  0  0  0  0  0  0  0  0  0
   39.1020   22.7770   36.2350 N   0  0  0  0  0  0  0  0  0  0  0  0
   41.9660   22.2260   36.9900 C   0  0  0  0  0  0  0  0  0  0  0  0
   42.6920   21.1390   36.5200 C   0  0  0  0  0  0  0  0  0  0  0  0
   44.1170   21.9220   35.7520 S   0  0  0  0  0  0  0  0  0  0  0  0
   43.4900   23.6640   36.1990 C   0  0  0  0  0  0  0  0  0  0  0  0
   42.5160   23.4020   36.7400 N   0  0  0  0  0  0  0  0  0  0  0  0
   44.1050   24.9590   35.9190 C   0  0  0  0  0  0  0  0  0  0  0  0
   44.4530   25.3150   34.7550 O   0  0  0  0  0  0  0  0  0  0  0  0
   44.3320   25.8590   36.9290 O   0  0  0  0  0  0  0  0  0  0  0  0
   39.5636   23.2581   39.5499 H   0  0  0  0  0  0  0  0  0  0  0  0
   37.5071   24.6862   39.1729 H   0  0  0  0  0  0  0  0  0  0  0  0
   37.5614   23.6169   35.0435 H   0  0  0  0  0  0  0  0  0  0  0  0
   42.4547   20.0677   36.5981 H   0  0  0  0  0  0  0  0  0  0  0  0
   44.7495   26.7339   36.7279 H   0  0  0  0  0  0  0  0  0  0  0  0
  2  1  1  0
  2  3  2  0
  4  3  1  0
  5  4  2  0
  6  7  2  0
  6  5  1  0
  7  2  1  0
  8  1  1  0
  9  8  2  0
 10 11  1  0
 10  9  1  0
 11 12  2  0
 12  8  1  0
 13 11  1  0
 13 15  1  0
 14 13  2  0
  3 16  1  0
  4 17  1  0
  6 18  1  0
  9 19  1  0
 15 20  1  0
M  ISO  5  16  14  17  14  18  14  19  14  20   3
M  END
>  <minimizedAffinity>  (1) 
-3.97907782

>  <minimizedRMSD>  (1) 
0.364444554

$$$$
