
     RDKit          3D

 18 19  0  0  0  0  0  0  0  0999 V2000
   39.6280   22.7400   37.4320 C   0  0  0  0  0  0  0  0  0  0  0  0
   39.0170   23.3410   38.5360 C   0  0  0  0  0  0  0  0  0  0  0  0
   37.9280   24.1780   38.3010 C   0  0  0  0  0  0  0  0  0  0  0  0
   37.5060   24.3740   37.0330 N   0  0  0  0  0  0  0  0  0  0  0  0
   38.1290   23.7690   35.9860 C   0  0  0  0  0  0  0  0  0  0  0  0
   39.1810   22.9570   36.1750 N   0  0  0  0  0  0  0  0  0  0  0  0
   40.6990   21.9170   37.6610 O   0  0  0  0  0  0  0  0  0  0  0  0
   41.9170   22.1860   37.0090 C   0  0  0  0  0  0  0  0  0  0  0  0
   42.5690   21.0700   36.5100 C   0  0  0  0  0  0  0  0  0  0  0  0
   44.0440   21.7690   35.7660 S   0  0  0  0  0  0  0  0  0  0  0  0
   43.5480   23.5300   36.2570 C   0  0  0  0  0  0  0  0  0  0  0  0
   42.5560   23.3220   36.7880 N   0  0  0  0  0  0  0  0  0  0  0  0
   43.9790   24.9930   36.1910 O   0  0  0  0  0  0  0  0  0  0  0  0
   39.3838   23.1592   39.5570 H   0  0  0  0  0  0  0  0  0  0  0  0
   37.4173   24.6740   39.1395 H   0  0  0  0  0  0  0  0  0  0  0  0
   37.7634   23.9487   34.9642 H   0  0  0  0  0  0  0  0  0  0  0  0
   42.2588   20.0157   36.5582 H   0  0  0  0  0  0  0  0  0  0  0  0
   43.4103   25.6953   36.5953 H   0  0  0  0  0  0  0  0  0  0  0  0
  1  7  1  0
  1  2  2  0
  3  2  1  0
  4  3  2  0
  5  6  2  0
  5  4  1  0
  6  1  1  0
  8  7  1  0
  9  8  2  0
 10 11  1  0
 10  9  1  0
 11 12  2  0
 12  8  1  0
 13 11  1  0
  2 14  1  0
  3 15  1  0
  5 16  1  0
  9 17  1  0
 13 18  1  0
M  ISO  5  14  14  15  14  16  14  17  14  18   3
M  END
>  <minimizedAffinity>  (1) 
-3.63595939

>  <minimizedRMSD>  (1) 
0.10066469

$$$$
