
     RDKit          3D

 44 47  0  0  0  0  0  0  0  0999 V2000
   44.0160   23.1640   35.7730 S   0  0  0  0  0  0  0  0  0  0  0  0
   40.5170   22.4930   37.5600 C   0  0  0  0  0  0  0  0  0  0  0  0
   39.6210   23.2980   36.8620 C   0  0  0  0  0  0  0  0  0  0  0  0
   40.1280   24.0550   35.8220 C   0  0  0  0  0  0  0  0  0  0  0  0
   41.4660   24.0020   35.5030 N   0  0  0  0  0  0  0  0  0  0  0  0
   42.2970   23.1970   36.2190 C   0  0  0  0  0  0  0  0  0  0  0  0
   41.8080   22.4680   37.2230 N   0  0  0  0  0  0  0  0  0  0  0  0
   39.3840   24.9280   34.9890 N   0  0  0  0  0  0  0  0  0  0  0  0
   38.1320   24.8560   34.2620 C   0  0  0  0  0  0  0  0  0  0  0  0
   37.3080   26.0970   34.3440 C   0  0  0  0  0  0  0  0  0  0  0  0
   38.0460   27.3240   34.4080 N   0  0  0  0  0  0  0  0  0  0  0  0
   39.3610   27.1180   33.8840 C   0  0  0  0  0  0  0  0  0  0  0  0
   40.0880   26.2130   34.8520 C   0  0  0  0  0  0  0  0  0  0  0  0
   38.1820   23.3930   37.1650 C   0  0  0  0  0  0  0  0  0  0  0  0
   38.0120   22.8230   38.4430 F   0  0  0  0  0  0  0  0  0  0  0  0
   37.3840   22.7310   36.3030 F   0  0  0  0  0  0  0  0  0  0  0  0
   37.7950   24.7310   37.3780 F   0  0  0  0  0  0  0  0  0  0  0  0
   44.9710   24.1800   36.9080 C   0  0  0  0  0  0  0  0  0  0  0  0
   44.2680   25.0830   37.7330 C   0  0  0  0  0  0  0  0  0  0  0  0
   45.6340   25.8880   38.7030 S   0  0  0  0  0  0  0  0  0  0  0  0
   46.9200   24.8320   37.7930 C   0  0  0  0  0  0  0  0  0  0  0  0
   46.2370   24.2500   37.1260 N   0  0  0  0  0  0  0  0  0  0  0  0
   48.3520   24.8400   37.9700 N   0  0  0  0  0  0  0  0  0  0  0  0
   48.8010   23.8780   38.8150 C   0  0  0  0  0  0  0  0  0  0  0  0
   50.1760   24.0180   38.8760 C   0  0  0  0  0  0  0  0  0  0  0  0
   50.4850   25.0530   38.0690 N   0  0  0  0  0  0  0  0  0  0  0  0
   49.3740   25.5560   37.5150 C   0  0  0  0  0  0  0  0  0  0  0  0
   49.1430   26.6470   36.5930 C   0  0  0  0  0  0  0  0  0  0  0  0
   48.9780   26.4330   35.3730 O   0  0  0  0  0  0  0  0  0  0  0  0
   49.1150   27.9230   37.1260 O   0  0  0  0  0  0  0  0  0  0  0  0
   40.1584   21.8733   38.3951 H   0  0  0  0  0  0  0  0  0  0  0  0
   37.5425   24.0222   34.6710 H   0  0  0  0  0  0  0  0  0  0  0  0
   38.3885   24.7149   33.2017 H   0  0  0  0  0  0  0  0  0  0  0  0
   36.6632   26.1353   33.4536 H   0  0  0  0  0  0  0  0  0  0  0  0
   36.7523   26.0288   35.2909 H   0  0  0  0  0  0  0  0  0  0  0  0
   37.5637   28.0441   33.8515 H   0  0  0  0  0  0  0  0  0  0  0  0
   39.3025   26.6423   32.8939 H   0  0  0  0  0  0  0  0  0  0  0  0
   39.8911   28.0749   33.7689 H   0  0  0  0  0  0  0  0  0  0  0  0
   41.1065   26.0291   34.4795 H   0  0  0  0  0  0  0  0  0  0  0  0
   40.1251   26.7034   35.8359 H   0  0  0  0  0  0  0  0  0  0  0  0
   43.1845   25.2649   37.7883 H   0  0  0  0  0  0  0  0  0  0  0  0
   48.1913   23.1329   39.3471 H   0  0  0  0  0  0  0  0  0  0  0  0
   50.8765   23.4075   39.4647 H   0  0  0  0  0  0  0  0  0  0  0  0
   48.9603   28.7027   36.5359 H   0  0  0  0  0  0  0  0  0  0  0  0
  1  6  1  0
  1 18  1  0
  3 14  1  0
  3  2  2  0
  4  3  1  0
  5  4  2  0
  5  6  1  0
  6  7  2  0
  7  2  1  0
  8  4  1  0
  9 10  1  0
  9  8  1  0
 10 11  1  0
 12 11  1  0
 12 13  1  0
 13  8  1  0
 14 17  1  0
 14 15  1  0
 16 14  1  0
 18 22  1  0
 18 19  2  0
 19 20  1  0
 21 23  1  0
 21 20  1  0
 22 21  2  0
 23 24  1  0
 24 25  2  0
 26 25  1  0
 27 23  1  0
 27 26  2  0
 28 30  1  0
 28 27  1  0
 29 28  2  0
  2 31  1  0
  9 32  1  0
  9 33  1  0
 10 34  1  0
 10 35  1  0
 11 36  1  0
 12 37  1  0
 12 38  1  0
 13 39  1  0
 13 40  1  0
 19 41  1  0
 24 42  1  0
 25 43  1  0
 30 44  1  0
M  ISO  8  31  14  32  13  33  13  34  13  35  13  36   5  37  13  38  13
M  ISO  6  39  13  40  13  41  14  42  14  43  14  44   3
M  END
>  <minimizedAffinity>  (1) 
-6.08196783

>  <minimizedRMSD>  (1) 
4.30710888

$$$$
