
     RDKit          3D

 24 26  0  0  0  0  0  0  0  0999 V2000
   40.6030   21.7820   37.2580 O   0  0  0  0  0  0  0  0  0  0  0  0
   39.5790   22.6740   37.1700 C   0  0  0  0  0  0  0  0  0  0  0  0
   39.0710   23.2050   38.3600 C   0  0  0  0  0  0  0  0  0  0  0  0
   38.0200   24.1210   38.2730 C   0  0  0  0  0  0  0  0  0  0  0  0
   37.5350   24.4590   37.0480 N   0  0  0  0  0  0  0  0  0  0  0  0
   38.0610   23.9160   35.9140 C   0  0  0  0  0  0  0  0  0  0  0  0
   39.0650   23.0390   35.9720 N   0  0  0  0  0  0  0  0  0  0  0  0
   41.8940   22.1670   36.8400 C   0  0  0  0  0  0  0  0  0  0  0  0
   42.6480   21.1490   36.2710 C   0  0  0  0  0  0  0  0  0  0  0  0
   44.1920   22.0240   35.8790 S   0  0  0  0  0  0  0  0  0  0  0  0
   43.5450   23.6590   36.5650 C   0  0  0  0  0  0  0  0  0  0  0  0
   42.4990   23.3390   36.9020 N   0  0  0  0  0  0  0  0  0  0  0  0
   44.3700   24.8860   36.5540 C   0  0  0  0  0  0  0  0  0  0  0  0
   45.7740   24.8720   37.0160 C   0  0  0  0  0  0  0  0  0  0  0  0
   44.7800   25.4670   37.9110 C   0  0  0  0  0  0  0  0  0  0  0  0
   39.4865   22.9102   39.3349 H   0  0  0  0  0  0  0  0  0  0  0  0
   37.5900   24.5634   39.1837 H   0  0  0  0  0  0  0  0  0  0  0  0
   37.6512   24.2054   34.9351 H   0  0  0  0  0  0  0  0  0  0  0  0
   42.3819   20.0950   36.1026 H   0  0  0  0  0  0  0  0  0  0  0  0
   43.8694   25.2352   35.6388 H   0  0  0  0  0  0  0  0  0  0  0  0
   46.2457   23.9163   37.2883 H   0  0  0  0  0  0  0  0  0  0  0  0
   46.7208   25.2293   36.5849 H   0  0  0  0  0  0  0  0  0  0  0  0
   44.7640   26.5548   38.0739 H   0  0  0  0  0  0  0  0  0  0  0  0
   44.4727   25.3097   38.9554 H   0  0  0  0  0  0  0  0  0  0  0  0
  2  1  1  0
  2  3  2  0
  4  3  1  0
  5  4  2  0
  6  7  2  0
  6  5  1  0
  7  2  1  0
  8 12  1  0
  8  1  1  0
  9  8  2  0
 10  9  1  0
 10 11  1  0
 11 12  2  0
 13 11  1  0
 13 14  1  0
 13 15  1  0
 14 15  1  0
  3 16  1  0
  4 17  1  0
  6 18  1  0
  9 19  1  0
 13 20  1  0
 14 21  1  0
 14 22  1  0
 15 23  1  0
 15 24  1  0
M  ISO  8  16  14  17  14  18  14  19  14  20  13  21  13  22  13  23  13
M  ISO  1  24  13
M  END
>  <minimizedAffinity>  (1) 
-4.18392563

>  <minimizedRMSD>  (1) 
0.919142485

$$$$
