
     RDKit          3D

 36 39  0  0  1  0  0  0  0  0999 V2000
   41.7480   21.9470   36.9590 C   0  0  0  0  0  0  0  0  0  0  0  0
   42.3840   20.7460   36.7460 C   0  0  0  0  0  0  0  0  0  0  0  0
   43.7720   21.2590   35.6930 S   0  0  0  0  0  0  0  0  0  0  0  0
   43.2320   23.0800   35.7230 C   0  0  0  0  0  0  0  0  0  0  0  0
   42.3120   22.9750   36.3770 N   0  0  0  0  0  0  0  0  0  0  0  0
   43.9940   24.1370   35.0170 C   0  0  2  0  0  0  0  0  0  0  0  0
   45.4420   24.0620   34.8230 C   0  0  0  0  0  0  0  0  0  0  0  0
   44.9440   24.9960   35.8510 C   0  0  2  0  0  0  0  0  0  0  0  0
   45.2370   24.7300   37.2050 N   0  0  0  0  0  0  0  0  0  0  0  0
   44.7830   25.6550   38.1830 C   0  0  0  0  0  0  0  0  0  0  0  0
   45.9880   25.9950   39.0640 C   0  0  0  0  0  0  0  0  0  0  0  0
   47.1210   25.8540   38.0540 C   0  0  0  0  0  0  0  0  0  0  0  0
   46.6720   24.5820   37.3300 C   0  0  0  0  0  0  0  0  0  0  0  0
   40.6000   21.8700   37.7670 O   0  0  0  0  0  0  0  0  0  0  0  0
   39.5320   22.6830   37.5300 C   0  0  0  0  0  0  0  0  0  0  0  0
   39.0020   23.4090   38.5970 C   0  0  0  0  0  0  0  0  0  0  0  0
   37.9010   24.2390   38.3250 C   0  0  0  0  0  0  0  0  0  0  0  0
   37.4140   24.2960   37.0650 N   0  0  0  0  0  0  0  0  0  0  0  0
   37.9720   23.5610   36.0470 C   0  0  0  0  0  0  0  0  0  0  0  0
   39.0180   22.7630   36.2720 N   0  0  0  0  0  0  0  0  0  0  0  0
   42.1220   19.7433   37.1147 H   0  0  0  0  0  0  0  0  0  0  0  0
   43.1481   24.2931   34.3313 H   0  0  0  0  0  0  0  0  0  0  0  0
   45.9843   23.1557   35.1306 H   0  0  0  0  0  0  0  0  0  0  0  0
   46.1000   24.1721   33.9484 H   0  0  0  0  0  0  0  0  0  0  0  0
   45.0034   26.0722   36.0708 H   0  0  0  0  0  0  0  0  0  0  0  0
   44.4016   26.5645   37.6957 H   0  0  0  0  0  0  0  0  0  0  0  0
   43.9652   25.2270   38.7813 H   0  0  0  0  0  0  0  0  0  0  0  0
   45.9240   27.0185   39.4618 H   0  0  0  0  0  0  0  0  0  0  0  0
   46.0923   25.3654   39.9599 H   0  0  0  0  0  0  0  0  0  0  0  0
   47.1706   26.7161   37.3726 H   0  0  0  0  0  0  0  0  0  0  0  0
   48.1294   25.8079   38.4911 H   0  0  0  0  0  0  0  0  0  0  0  0
   46.9217   23.6884   37.9209 H   0  0  0  0  0  0  0  0  0  0  0  0
   47.1681   24.4548   36.3565 H   0  0  0  0  0  0  0  0  0  0  0  0
   39.4279   23.3349   39.6085 H   0  0  0  0  0  0  0  0  0  0  0  0
   37.4412   24.8348   39.1272 H   0  0  0  0  0  0  0  0  0  0  0  0
   37.5511   23.6312   35.0331 H   0  0  0  0  0  0  0  0  0  0  0  0
  1 14  1  0
  2  1  2  0
  3  4  1  0
  3  2  1  0
  4  5  2  0
  5  1  1  0
  6  4  1  0
  6  8  1  0
  7  6  1  0
  7  8  1  0
  8  9  1  0
  9 13  1  0
  9 10  1  0
 10 11  1  0
 12 11  1  0
 13 12  1  0
 15 14  1  0
 15 16  2  0
 17 16  1  0
 18 17  2  0
 19 20  2  0
 19 18  1  0
 20 15  1  0
  2 21  1  0
  6 22  1  6
  7 23  1  0
  7 24  1  0
  8 25  1  6
 10 26  1  0
 10 27  1  0
 11 28  1  0
 11 29  1  0
 12 30  1  0
 12 31  1  0
 13 32  1  0
 13 33  1  0
 16 34  1  0
 17 35  1  0
 19 36  1  0
M  ISO  8  21  14  22  13  23  13  24  13  25  13  26  13  27  13  28  13
M  ISO  8  29  13  30  13  31  13  32  13  33  13  34  14  35  14  36  14
M  END
>  <minimizedAffinity>  (1) 
-4.81912374

>  <minimizedRMSD>  (1) 
1.53558254

$$$$
