
     RDKit          3D

 37 40  0  0  1  0  0  0  0  0999 V2000
   41.9180   22.2130   37.0010 C   0  0  0  0  0  0  0  0  0  0  0  0
   42.6390   21.0900   36.6290 C   0  0  0  0  0  0  0  0  0  0  0  0
   44.0360   21.8340   35.7500 S   0  0  0  0  0  0  0  0  0  0  0  0
   43.3930   23.5990   36.0400 C   0  0  0  0  0  0  0  0  0  0  0  0
   42.4520   23.3460   36.6180 N   0  0  0  0  0  0  0  0  0  0  0  0
   44.1270   24.7950   35.5470 C   0  0  2  0  0  0  0  0  0  0  0  0
   45.0480   24.7040   34.4120 C   0  0  0  0  0  0  0  0  0  0  0  0
   45.6540   24.7870   35.7510 C   0  0  1  0  0  0  0  0  0  0  0  0
   46.2610   26.0160   36.2280 N   0  0  0  0  0  0  0  0  0  0  0  0
   47.2990   25.7280   37.1680 C   0  0  0  0  0  0  0  0  0  0  0  0
   48.3620   26.7590   37.3010 C   0  0  0  0  0  0  0  0  0  0  0  0
   48.6260   27.4840   36.1540 O   0  0  0  0  0  0  0  0  0  0  0  0
   48.1660   26.7460   35.0390 C   0  0  0  0  0  0  0  0  0  0  0  0
   46.6410   26.8860   35.1660 C   0  0  0  0  0  0  0  0  0  0  0  0
   40.7440   21.9500   37.7220 O   0  0  0  0  0  0  0  0  0  0  0  0
   39.6240   22.6940   37.5040 C   0  0  0  0  0  0  0  0  0  0  0  0
   39.0830   23.3780   38.5970 C   0  0  0  0  0  0  0  0  0  0  0  0
   37.9310   24.1430   38.3670 C   0  0  0  0  0  0  0  0  0  0  0  0
   37.3970   24.1850   37.1140 N   0  0  0  0  0  0  0  0  0  0  0  0
   37.9750   23.4900   36.0790 C   0  0  0  0  0  0  0  0  0  0  0  0
   39.0730   22.7540   36.2640 N   0  0  0  0  0  0  0  0  0  0  0  0
   42.4207   20.0285   36.8176 H   0  0  0  0  0  0  0  0  0  0  0  0
   43.2770   25.4525   35.7818 H   0  0  0  0  0  0  0  0  0  0  0  0
   45.1161   23.7638   33.8450 H   0  0  0  0  0  0  0  0  0  0  0  0
   45.1709   25.2864   33.4870 H   0  0  0  0  0  0  0  0  0  0  0  0
   46.3994   24.1847   36.2910 H   0  0  0  0  0  0  0  0  0  0  0  0
   46.8321   25.5966   38.1553 H   0  0  0  0  0  0  0  0  0  0  0  0
   47.8041   24.8287   36.7859 H   0  0  0  0  0  0  0  0  0  0  0  0
   48.0548   27.4650   38.0866 H   0  0  0  0  0  0  0  0  0  0  0  0
   49.2878   26.2140   37.5373 H   0  0  0  0  0  0  0  0  0  0  0  0
   48.4767   25.6927   35.1019 H   0  0  0  0  0  0  0  0  0  0  0  0
   48.5643   27.1028   34.0777 H   0  0  0  0  0  0  0  0  0  0  0  0
   46.3699   27.9248   35.4056 H   0  0  0  0  0  0  0  0  0  0  0  0
   46.1300   26.6274   34.2268 H   0  0  0  0  0  0  0  0  0  0  0  0
   39.5419   23.3184   39.5949 H   0  0  0  0  0  0  0  0  0  0  0  0
   37.4629   24.7036   39.1896 H   0  0  0  0  0  0  0  0  0  0  0  0
   37.5234   23.5413   35.0773 H   0  0  0  0  0  0  0  0  0  0  0  0
  1 15  1  0
  2  1  2  0
  3  4  1  0
  3  2  1  0
  4  5  2  0
  5  1  1  0
  6  8  1  0
  6  4  1  0
  7  6  1  0
  7  8  1  0
  8  9  1  0
  9 10  1  0
 10 11  1  0
 12 11  1  0
 13 14  1  0
 13 12  1  0
 14  9  1  0
 16 15  1  0
 16 17  2  0
 18 17  1  0
 19 18  2  0
 20 21  2  0
 20 19  1  0
 21 16  1  0
  2 22  1  0
  6 23  1  6
  7 24  1  0
  7 25  1  0
  8 26  1  1
 10 27  1  0
 10 28  1  0
 11 29  1  0
 11 30  1  0
 13 31  1  0
 13 32  1  0
 14 33  1  0
 14 34  1  0
 17 35  1  0
 18 36  1  0
 20 37  1  0
M  ISO  8  22  14  23  13  24  13  25  13  26  13  27  13  28  13  29  13
M  ISO  8  30  13  31  13  32  13  33  13  34  13  35  14  36  14  37  14
M  END
>  <minimizedAffinity>  (1) 
-4.49294186

>  <minimizedRMSD>  (1) 
2.66932273

$$$$
