
     RDKit          3D

 31 34  0  0  1  0  0  0  0  0999 V2000
   41.9190   22.1250   37.0180 C   0  0  0  0  0  0  0  0  0  0  0  0
   42.3430   20.9450   36.4560 C   0  0  0  0  0  0  0  0  0  0  0  0
   43.7860   21.5070   35.4990 S   0  0  0  0  0  0  0  0  0  0  0  0
   43.5550   23.3090   36.0490 C   0  0  0  0  0  0  0  0  0  0  0  0
   42.6360   23.1790   36.7060 N   0  0  0  0  0  0  0  0  0  0  0  0
   44.4720   24.3680   35.5960 C   0  0  2  0  0  0  0  0  0  0  0  0
   45.2380   24.2800   34.3520 C   0  0  0  0  0  0  0  0  0  0  0  0
   45.9720   24.0500   35.6100 C   0  0  1  0  0  0  0  0  0  0  0  0
   46.8400   25.1330   36.0720 N   0  0  0  0  0  0  0  0  0  0  0  0
   47.3710   26.0570   35.2980 N   0  0  0  0  0  0  0  0  0  0  0  0
   48.1170   26.9090   36.0210 C   0  0  0  0  0  0  0  0  0  0  0  0
   48.0610   26.5050   37.3490 C   0  0  0  0  0  0  0  0  0  0  0  0
   47.2480   25.3870   37.3230 C   0  0  0  0  0  0  0  0  0  0  0  0
   40.7830   22.0010   37.8410 O   0  0  0  0  0  0  0  0  0  0  0  0
   39.6670   22.7350   37.5730 C   0  0  0  0  0  0  0  0  0  0  0  0
   39.0520   23.4140   38.6400 C   0  0  0  0  0  0  0  0  0  0  0  0
   37.9030   24.1660   38.3370 C   0  0  0  0  0  0  0  0  0  0  0  0
   37.4440   24.2080   37.0680 N   0  0  0  0  0  0  0  0  0  0  0  0
   38.0850   23.5260   36.0700 C   0  0  0  0  0  0  0  0  0  0  0  0
   39.1780   22.7990   36.3020 N   0  0  0  0  0  0  0  0  0  0  0  0
   41.9235   19.9332   36.5571 H   0  0  0  0  0  0  0  0  0  0  0  0
   43.7936   25.1298   36.0076 H   0  0  0  0  0  0  0  0  0  0  0  0
   45.0620   23.4384   33.6658 H   0  0  0  0  0  0  0  0  0  0  0  0
   45.3845   24.9598   33.4997 H   0  0  0  0  0  0  0  0  0  0  0  0
   46.6128   23.2487   36.0067 H   0  0  0  0  0  0  0  0  0  0  0  0
   48.6737   27.7736   35.6304 H   0  0  0  0  0  0  0  0  0  0  0  0
   48.5500   26.9673   38.2192 H   0  0  0  0  0  0  0  0  0  0  0  0
   46.9744   24.7898   38.2053 H   0  0  0  0  0  0  0  0  0  0  0  0
   39.4510   23.3594   39.6636 H   0  0  0  0  0  0  0  0  0  0  0  0
   37.3798   24.7183   39.1315 H   0  0  0  0  0  0  0  0  0  0  0  0
   37.6867   23.5792   35.0460 H   0  0  0  0  0  0  0  0  0  0  0  0
  1 14  1  0
  2  1  2  0
  3  4  1  0
  3  2  1  0
  4  5  2  0
  5  1  1  0
  6  8  1  0
  6  4  1  0
  7  6  1  0
  7  8  1  0
  8  9  1  0
  9 13  1  0
 10 11  2  0
 10  9  1  0
 11 12  1  0
 13 12  2  0
 15 14  1  0
 15 16  2  0
 17 16  1  0
 18 17  2  0
 19 20  2  0
 19 18  1  0
 20 15  1  0
  2 21  1  0
  6 22  1  1
  7 23  1  0
  7 24  1  0
  8 25  1  6
 11 26  1  0
 12 27  1  0
 13 28  1  0
 16 29  1  0
 17 30  1  0
 19 31  1  0
M  ISO  8  21  14  22  13  23  13  24  13  25  13  26  14  27  14  28  14
M  ISO  3  29  14  30  14  31  14
M  END
>  <minimizedAffinity>  (1) 
-4.29500437

>  <minimizedRMSD>  (1) 
2.33489871

$$$$
