
     RDKit          3D

 25 27  0  0  1  0  0  0  0  0999 V2000
   41.9950   22.2840   36.9330 C   0  0  0  0  0  0  0  0  0  0  0  0
   42.8400   21.2280   36.6850 C   0  0  0  0  0  0  0  0  0  0  0  0
   44.1510   22.0440   35.7220 S   0  0  0  0  0  0  0  0  0  0  0  0
   43.2910   23.7360   35.8300 C   0  0  0  0  0  0  0  0  0  0  0  0
   42.3800   23.4390   36.4350 N   0  0  0  0  0  0  0  0  0  0  0  0
   43.8760   24.9490   35.2120 C   0  0  2  0  0  0  0  0  0  0  0  0
   45.3020   25.0380   34.8930 C   0  0  0  0  0  0  0  0  0  0  0  0
   44.8450   25.7680   36.0920 C   0  0  2  0  0  0  0  0  0  0  0  0
   45.1350   25.1690   37.7620 S   0  0  0  0  0  0  0  0  0  0  0  0
   40.8530   21.9530   37.6840 O   0  0  0  0  0  0  0  0  0  0  0  0
   39.6850   22.6330   37.4980 C   0  0  0  0  0  0  0  0  0  0  0  0
   39.1910   23.4010   38.5570 C   0  0  0  0  0  0  0  0  0  0  0  0
   37.9930   24.0890   38.3440 C   0  0  0  0  0  0  0  0  0  0  0  0
   37.3720   23.9850   37.1480 N   0  0  0  0  0  0  0  0  0  0  0  0
   37.8980   23.2170   36.1370 C   0  0  0  0  0  0  0  0  0  0  0  0
   39.0400   22.5450   36.3020 N   0  0  0  0  0  0  0  0  0  0  0  0
   42.7483   20.1743   36.9872 H   0  0  0  0  0  0  0  0  0  0  0  0
   42.9599   25.1216   34.6282 H   0  0  0  0  0  0  0  0  0  0  0  0
   45.9389   24.1490   35.0116 H   0  0  0  0  0  0  0  0  0  0  0  0
   45.8597   25.3344   33.9924 H   0  0  0  0  0  0  0  0  0  0  0  0
   44.9647   26.8053   36.4381 H   0  0  0  0  0  0  0  0  0  0  0  0
   44.6858   26.0968   38.6644 H   0  0  0  0  0  0  0  0  0  0  0  0
   39.7231   23.4612   39.5179 H   0  0  0  0  0  0  0  0  0  0  0  0
   37.5596   24.7093   39.1424 H   0  0  0  0  0  0  0  0  0  0  0  0
   37.3688   23.1548   35.1747 H   0  0  0  0  0  0  0  0  0  0  0  0
  1 10  1  0
  2  1  2  0
  3  4  1  0
  3  2  1  0
  4  5  2  0
  5  1  1  0
  6  4  1  0
  6  8  1  0
  7  6  1  0
  7  8  1  0
  8  9  1  0
 11 10  1  0
 11 12  2  0
 13 12  1  0
 14 13  2  0
 15 16  2  0
 15 14  1  0
 16 11  1  0
  2 17  1  0
  6 18  1  6
  7 19  1  0
  7 20  1  0
  8 21  1  1
  9 22  1  0
 12 23  1  0
 13 24  1  0
 15 25  1  0
M  ISO  8  17  14  18  13  19  13  20  13  21  13  22  11  23  14  24  14
M  ISO  1  25  14
M  END
>  <minimizedAffinity>  (1) 
-3.97354054

>  <minimizedRMSD>  (1) 
1.02487397

$$$$
