
     RDKit          3D

 41 45  0  0  1  0  0  0  0  0999 V2000
   39.5610   22.8910   36.9220 C   0  0  0  0  0  0  0  0  0  0  0  0
   38.9700   23.2100   38.1640 C   0  0  0  0  0  0  0  0  0  0  0  0
   38.0070   24.2090   38.1810 C   0  0  0  0  0  0  0  0  0  0  0  0
   37.6690   24.8330   37.0350 N   0  0  0  0  0  0  0  0  0  0  0  0
   38.2740   24.4870   35.8460 C   0  0  0  0  0  0  0  0  0  0  0  0
   39.2010   23.5360   35.7880 N   0  0  0  0  0  0  0  0  0  0  0  0
   37.7880   25.2540   34.7530 N   0  0  0  0  0  0  0  0  0  0  0  0
   37.3740   26.5280   34.9710 C   0  0  0  0  0  0  0  0  0  0  0  0
   36.9550   27.0690   33.8030 N   0  0  0  0  0  0  0  0  0  0  0  0
   37.0920   26.1580   32.8320 C   0  0  0  0  0  0  0  0  0  0  0  0
   36.8730   26.0370   31.4750 C   0  0  0  0  0  0  0  0  0  0  0  0
   36.3940   27.0600   30.8870 O   0  0  0  0  0  0  0  0  0  0  0  0
   37.1500   24.9010   30.8100 N   0  0  0  0  0  0  0  0  0  0  0  0
   37.6630   23.8100   31.4430 C   0  0  0  0  0  0  0  0  0  0  0  0
   37.8970   22.6970   30.5930 N   0  0  0  0  0  0  0  0  0  0  0  0
   37.8940   23.8890   32.7840 N   0  0  0  0  0  0  0  0  0  0  0  0
   37.6120   25.0330   33.4390 C   0  0  0  0  0  0  0  0  0  0  0  0
   40.4950   21.9230   36.9010 O   0  0  0  0  0  0  0  0  0  0  0  0
   41.8130   22.2170   36.5120 C   0  0  0  0  0  0  0  0  0  0  0  0
   42.4550   21.2150   35.8250 C   0  0  0  0  0  0  0  0  0  0  0  0
   44.0640   21.9670   35.5230 S   0  0  0  0  0  0  0  0  0  0  0  0
   43.5860   23.5880   36.4160 C   0  0  0  0  0  0  0  0  0  0  0  0
   42.5330   23.2970   36.7010 N   0  0  0  0  0  0  0  0  0  0  0  0
   44.5670   24.7100   36.5430 C   0  0  2  0  0  0  0  0  0  0  0  0
   45.9740   24.4800   36.2330 C   0  0  0  0  0  0  0  0  0  0  0  0
   45.6790   24.4580   37.6500 C   0  0  1  0  0  0  0  0  0  0  0  0
   46.1580   25.7230   38.3380 C   0  0  0  0  0  0  0  0  0  0  0  0
   47.1990   26.3580   37.8800 O   0  0  0  0  0  0  0  0  0  0  0  0
   45.4990   26.2360   39.4600 O   0  0  0  0  0  0  0  0  0  0  0  0
   39.2626   22.6852   39.0854 H   0  0  0  0  0  0  0  0  0  0  0  0
   37.5210   24.4908   39.1267 H   0  0  0  0  0  0  0  0  0  0  0  0
   37.3783   27.0406   35.9443 H   0  0  0  0  0  0  0  0  0  0  0  0
   36.9696   24.8553   29.7970 H   0  0  0  0  0  0  0  0  0  0  0  0
   38.2842   21.8250   30.9811 H   0  0  0  0  0  0  0  0  0  0  0  0
   37.6795   22.7616   29.5883 H   0  0  0  0  0  0  0  0  0  0  0  0
   42.0854   20.2199   35.5366 H   0  0  0  0  0  0  0  0  0  0  0  0
   43.8377   25.4812   36.2543 H   0  0  0  0  0  0  0  0  0  0  0  0
   46.2625   23.5424   35.7353 H   0  0  0  0  0  0  0  0  0  0  0  0
   46.7026   25.0510   35.6387 H   0  0  0  0  0  0  0  0  0  0  0  0
   45.8034   23.7628   38.4934 H   0  0  0  0  0  0  0  0  0  0  0  0
   45.8291   27.0629   39.8929 H   0  0  0  0  0  0  0  0  0  0  0  0
  1  2  2  0
  2  3  1  0
  4  3  2  0
  5  4  1  0
  6  5  2  0
  6  1  1  0
  7  8  1  0
  7  5  1  0
  9  8  2  0
 10 17  2  0
 10  9  1  0
 11 10  1  0
 12 11  2  0
 13 14  1  0
 13 11  1  0
 14 16  2  0
 15 14  1  0
 16 17  1  0
 17  7  1  0
 18  1  1  0
 19 23  1  0
 19 18  1  0
 20 19  2  0
 21 20  1  0
 21 22  1  0
 22 24  1  0
 22 23  2  0
 24 26  1  0
 25 24  1  0
 25 26  1  0
 26 27  1  0
 27 29  1  0
 28 27  2  0
  2 30  1  0
  3 31  1  0
  8 32  1  0
 13 33  1  0
 15 34  1  0
 15 35  1  0
 20 36  1  0
 24 37  1  1
 25 38  1  0
 25 39  1  0
 26 40  1  1
 29 41  1  0
M  ISO  8  30  14  31  14  32  14  33   9  36  14  37  13  38  13  39  13
M  ISO  2  40  13  41   3
M  END
>  <minimizedAffinity>  (1) 
-6.70917797

>  <minimizedRMSD>  (1) 
0.584047198

$$$$
