
     RDKit          3D

 37 40  0  0  0  0  0  0  0  0999 V2000
   44.9010   24.2540   36.8490 C   0  0  0  0  0  0  0  0  0  0  0  0
   44.2160   25.1370   37.6920 C   0  0  0  0  0  0  0  0  0  0  0  0
   45.5940   25.8950   38.6930 S   0  0  0  0  0  0  0  0  0  0  0  0
   46.8680   24.8510   37.7580 C   0  0  0  0  0  0  0  0  0  0  0  0
   46.1800   24.2950   37.0710 N   0  0  0  0  0  0  0  0  0  0  0  0
   48.2950   24.8340   37.9400 N   0  0  0  0  0  0  0  0  0  0  0  0
   48.7450   23.8530   38.7550 C   0  0  0  0  0  0  0  0  0  0  0  0
   50.1130   23.9750   38.8230 C   0  0  0  0  0  0  0  0  0  0  0  0
   50.4410   25.0330   38.0390 N   0  0  0  0  0  0  0  0  0  0  0  0
   49.3290   25.5580   37.5000 C   0  0  0  0  0  0  0  0  0  0  0  0
   49.1060   26.6750   36.6060 C   0  0  0  0  0  0  0  0  0  0  0  0
   48.9180   26.4820   35.3770 O   0  0  0  0  0  0  0  0  0  0  0  0
   49.1110   27.9420   37.1600 O   0  0  0  0  0  0  0  0  0  0  0  0
   43.9500   23.2910   35.6900 S   0  0  0  0  0  0  0  0  0  0  0  0
   40.4760   22.5150   37.5220 C   0  0  0  0  0  0  0  0  0  0  0  0
   39.5670   23.3240   36.8460 C   0  0  0  0  0  0  0  0  0  0  0  0
   40.0620   24.1080   35.8180 C   0  0  0  0  0  0  0  0  0  0  0  0
   41.3930   24.0700   35.4980 N   0  0  0  0  0  0  0  0  0  0  0  0
   42.2370   23.2610   36.1920 C   0  0  0  0  0  0  0  0  0  0  0  0
   41.7600   22.5040   37.1840 N   0  0  0  0  0  0  0  0  0  0  0  0
   39.2340   24.9760   35.0520 N   0  0  0  0  0  0  0  0  0  0  0  0
   38.1040   24.9660   34.3230 C   0  0  0  0  0  0  0  0  0  0  0  0
   37.9040   26.2500   33.8550 C   0  0  0  0  0  0  0  0  0  0  0  0
   38.9040   27.0440   34.2940 N   0  0  0  0  0  0  0  0  0  0  0  0
   39.7270   26.2490   35.0370 C   0  0  0  0  0  0  0  0  0  0  0  0
   38.1180   23.3920   37.1620 C   0  0  0  0  0  0  0  0  0  0  0  0
   37.9760   22.8300   38.4430 F   0  0  0  0  0  0  0  0  0  0  0  0
   37.3400   22.7470   36.2920 F   0  0  0  0  0  0  0  0  0  0  0  0
   37.7250   24.7440   37.3780 F   0  0  0  0  0  0  0  0  0  0  0  0
   43.1353   25.3342   37.7494 H   0  0  0  0  0  0  0  0  0  0  0  0
   48.1310   23.0981   39.2680 H   0  0  0  0  0  0  0  0  0  0  0  0
   50.8039   23.3412   39.3983 H   0  0  0  0  0  0  0  0  0  0  0  0
   48.9626   28.7342   36.5851 H   0  0  0  0  0  0  0  0  0  0  0  0
   40.1261   21.8767   38.3467 H   0  0  0  0  0  0  0  0  0  0  0  0
   37.4581   24.0958   34.1342 H   0  0  0  0  0  0  0  0  0  0  0  0
   37.0631   26.5744   33.2244 H   0  0  0  0  0  0  0  0  0  0  0  0
   40.6444   26.5817   35.5446 H   0  0  0  0  0  0  0  0  0  0  0  0
  1  5  1  0
  1  2  2  0
  2  3  1  0
  4  6  1  0
  4  3  1  0
  5  4  2  0
  6  7  1  0
  7  8  2  0
  9  8  1  0
 10  6  1  0
 10  9  2  0
 11 13  1  0
 11 10  1  0
 12 11  2  0
 14 19  1  0
 14  1  1  0
 16 26  1  0
 16 15  2  0
 17 16  1  0
 18 17  2  0
 18 19  1  0
 19 20  2  0
 20 15  1  0
 21 17  1  0
 22 21  1  0
 23 24  1  0
 23 22  2  0
 24 25  2  0
 25 21  1  0
 26 29  1  0
 26 27  1  0
 28 26  1  0
  2 30  1  0
  7 31  1  0
  8 32  1  0
 13 33  1  0
 15 34  1  0
 22 35  1  0
 23 36  1  0
 25 37  1  0
M  ISO  8  30  14  31  14  32  14  33   3  34  14  35  14  36  14  37  14
M  END
>  <minimizedAffinity>  (1) 
-5.91171694

>  <minimizedRMSD>  (1) 
4.34021616

$$$$
