
     RDKit          3D

 40 44  0  0  1  0  0  0  0  0999 V2000
   39.5880   22.7930   37.0750 C   0  0  0  0  0  0  0  0  0  0  0  0
   38.9550   23.2850   38.2280 C   0  0  0  0  0  0  0  0  0  0  0  0
   37.9520   24.2440   38.0690 C   0  0  0  0  0  0  0  0  0  0  0  0
   37.6260   24.6640   36.8110 N   0  0  0  0  0  0  0  0  0  0  0  0
   38.2820   24.1430   35.7260 C   0  0  0  0  0  0  0  0  0  0  0  0
   39.2340   23.2380   35.8230 N   0  0  0  0  0  0  0  0  0  0  0  0
   37.9650   24.5620   34.3940 N   0  0  0  0  0  0  0  0  0  0  0  0
   38.0930   23.9370   33.2100 C   0  0  0  0  0  0  0  0  0  0  0  0
   37.6400   24.7840   32.2530 N   0  0  0  0  0  0  0  0  0  0  0  0
   37.2410   25.9140   32.8560 C   0  0  0  0  0  0  0  0  0  0  0  0
   36.7130   27.0630   32.3390 C   0  0  0  0  0  0  0  0  0  0  0  0
   36.3970   28.0570   33.1880 N   0  0  0  0  0  0  0  0  0  0  0  0
   36.5760   27.9710   34.5170 C   0  0  0  0  0  0  0  0  0  0  0  0
   37.0940   26.8390   34.9880 N   0  0  0  0  0  0  0  0  0  0  0  0
   37.4370   25.7960   34.2070 C   0  0  0  0  0  0  0  0  0  0  0  0
   36.4690   27.2890   30.9550 N   0  0  0  0  0  0  0  0  0  0  0  0
   40.5570   21.8680   37.2370 O   0  0  0  0  0  0  0  0  0  0  0  0
   41.8640   22.1340   36.7960 C   0  0  0  0  0  0  0  0  0  0  0  0
   42.4780   21.0940   36.1460 C   0  0  0  0  0  0  0  0  0  0  0  0
   44.0860   21.8130   35.7560 S   0  0  0  0  0  0  0  0  0  0  0  0
   43.6430   23.4860   36.5760 C   0  0  0  0  0  0  0  0  0  0  0  0
   42.5960   23.2160   36.9060 N   0  0  0  0  0  0  0  0  0  0  0  0
   44.6350   24.6010   36.6090 C   0  0  2  0  0  0  0  0  0  0  0  0
   46.0460   24.3270   36.3600 C   0  0  0  0  0  0  0  0  0  0  0  0
   45.7190   24.4540   37.7630 C   0  0  1  0  0  0  0  0  0  0  0  0
   46.1970   25.7780   38.3310 C   0  0  0  0  0  0  0  0  0  0  0  0
   47.2310   26.3780   37.8070 O   0  0  0  0  0  0  0  0  0  0  0  0
   45.5430   26.3820   39.4120 O   0  0  0  0  0  0  0  0  0  0  0  0
   39.2408   22.9255   39.2275 H   0  0  0  0  0  0  0  0  0  0  0  0
   37.4312   24.6558   38.9460 H   0  0  0  0  0  0  0  0  0  0  0  0
   38.4919   22.9248   33.0478 H   0  0  0  0  0  0  0  0  0  0  0  0
   36.3060   28.8006   35.1870 H   0  0  0  0  0  0  0  0  0  0  0  0
   36.0674   28.1845   30.6424 H   0  0  0  0  0  0  0  0  0  0  0  0
   36.6941   26.5571   30.2661 H   0  0  0  0  0  0  0  0  0  0  0  0
   42.0924   20.0885   35.9220 H   0  0  0  0  0  0  0  0  0  0  0  0
   43.9223   25.3447   36.2231 H   0  0  0  0  0  0  0  0  0  0  0  0
   46.3349   23.3403   35.9688 H   0  0  0  0  0  0  0  0  0  0  0  0
   46.7949   24.8269   35.7282 H   0  0  0  0  0  0  0  0  0  0  0  0
   45.8162   23.8482   38.6760 H   0  0  0  0  0  0  0  0  0  0  0  0
   45.8699   27.2458   39.7684 H   0  0  0  0  0  0  0  0  0  0  0  0
  1 17  1  0
  1  2  2  0
  3  2  1  0
  4  3  2  0
  5  6  2  0
  5  4  1  0
  6  1  1  0
  7  5  1  0
  8  7  1  0
  9 10  1  0
  9  8  2  0
 10 15  2  0
 11 10  1  0
 11 12  2  0
 12 13  1  0
 13 14  2  0
 15  7  1  0
 15 14  1  0
 16 11  1  0
 18 22  1  0
 18 17  1  0
 19 18  2  0
 20 19  1  0
 20 21  1  0
 21 23  1  0
 21 22  2  0
 23 25  1  0
 24 23  1  0
 24 25  1  0
 25 26  1  0
 26 28  1  0
 27 26  2  0
  2 29  1  0
  3 30  1  0
  8 31  1  0
 13 32  1  0
 16 33  1  0
 16 34  1  0
 19 35  1  0
 23 36  1  6
 24 37  1  0
 24 38  1  0
 25 39  1  1
 28 40  1  0
M  ISO  8  29  14  30  14  31  14  32  14  35  14  36  13  37  13  38  13
M  ISO  2  39  13  40   3
M  END
>  <minimizedAffinity>  (1) 
-6.62810707

>  <minimizedRMSD>  (1) 
0.307446986

$$$$
