
     RDKit          3D

 40 43  0  0  1  0  0  0  0  0999 V2000
   40.4570   21.9260   37.1770 O   0  0  0  0  0  0  0  0  0  0  0  0
   39.5530   22.9180   37.2570 C   0  0  0  0  0  0  0  0  0  0  0  0
   39.0060   23.2070   38.5190 C   0  0  0  0  0  0  0  0  0  0  0  0
   38.0690   24.2330   38.6000 C   0  0  0  0  0  0  0  0  0  0  0  0
   37.7200   24.9060   37.4870 N   0  0  0  0  0  0  0  0  0  0  0  0
   38.2840   24.5870   36.2700 C   0  0  0  0  0  0  0  0  0  0  0  0
   39.1800   23.6160   36.1520 N   0  0  0  0  0  0  0  0  0  0  0  0
   37.8840   25.3300   35.1110 N   0  0  0  0  0  0  0  0  0  0  0  0
   37.2770   26.5110   35.0290 C   0  0  0  0  0  0  0  0  0  0  0  0
   36.9910   27.0290   33.7780 C   0  0  0  0  0  0  0  0  0  0  0  0
   36.3170   28.3420   33.7430 C   0  0  0  0  0  0  0  0  0  0  0  0
   37.3210   26.3500   32.6230 C   0  0  0  0  0  0  0  0  0  0  0  0
   37.0590   26.8210   31.5010 O   0  0  0  0  0  0  0  0  0  0  0  0
   37.9410   25.1440   32.7590 N   0  0  0  0  0  0  0  0  0  0  0  0
   38.2130   24.6530   33.9860 C   0  0  0  0  0  0  0  0  0  0  0  0
   38.7920   23.5220   33.9210 O   0  0  0  0  0  0  0  0  0  0  0  0
   41.7690   22.1930   36.7530 C   0  0  0  0  0  0  0  0  0  0  0  0
   42.3970   21.1530   36.1110 C   0  0  0  0  0  0  0  0  0  0  0  0
   44.0050   21.8790   35.7430 S   0  0  0  0  0  0  0  0  0  0  0  0
   43.5450   23.5500   36.5560 C   0  0  0  0  0  0  0  0  0  0  0  0
   42.4960   23.2750   36.8710 N   0  0  0  0  0  0  0  0  0  0  0  0
   44.5340   24.6710   36.6080 C   0  0  2  0  0  0  0  0  0  0  0  0
   45.9320   24.4260   36.2820 C   0  0  0  0  0  0  0  0  0  0  0  0
   45.6660   24.4720   37.7040 C   0  0  1  0  0  0  0  0  0  0  0  0
   46.1630   25.7630   38.3250 C   0  0  0  0  0  0  0  0  0  0  0  0
   47.2040   26.3720   37.8280 O   0  0  0  0  0  0  0  0  0  0  0  0
   45.5170   26.3270   39.4320 O   0  0  0  0  0  0  0  0  0  0  0  0
   39.3083   22.6413   39.4127 H   0  0  0  0  0  0  0  0  0  0  0  0
   37.6159   24.4928   39.5681 H   0  0  0  0  0  0  0  0  0  0  0  0
   37.0072   27.0660   35.9396 H   0  0  0  0  0  0  0  0  0  0  0  0
   36.1384   28.6900   34.7711 H   0  0  0  0  0  0  0  0  0  0  0  0
   36.9542   29.0673   33.2159 H   0  0  0  0  0  0  0  0  0  0  0  0
   35.3562   28.2470   33.2159 H   0  0  0  0  0  0  0  0  0  0  0  0
   38.2031   24.6049   31.9214 H   0  0  0  0  0  0  0  0  0  0  0  0
   42.0190   20.1456   35.8825 H   0  0  0  0  0  0  0  0  0  0  0  0
   43.7998   25.4279   36.2949 H   0  0  0  0  0  0  0  0  0  0  0  0
   46.2107   23.4655   35.8240 H   0  0  0  0  0  0  0  0  0  0  0  0
   46.6482   24.9675   35.6465 H   0  0  0  0  0  0  0  0  0  0  0  0
   45.8052   23.8184   38.5777 H   0  0  0  0  0  0  0  0  0  0  0  0
   45.8545   27.1705   39.8254 H   0  0  0  0  0  0  0  0  0  0  0  0
  1  2  1  0
  2  3  2  0
  3  4  1  0
  5  4  2  0
  6  5  1  0
  7  6  2  0
  7  2  1  0
  8  6  1  0
  9  8  1  0
 10  9  2  0
 11 10  1  0
 12 14  1  0
 12 10  1  0
 13 12  2  0
 14 15  1  0
 15  8  1  0
 16 15  2  0
 17 21  1  0
 17  1  1  0
 18 17  2  0
 19 18  1  0
 19 20  1  0
 20 22  1  0
 20 21  2  0
 22 24  1  0
 23 22  1  0
 23 24  1  0
 24 25  1  0
 25 27  1  0
 26 25  2  0
  3 28  1  0
  4 29  1  0
  9 30  1  0
 11 31  1  0
 11 32  1  0
 11 33  1  0
 14 34  1  0
 18 35  1  0
 22 36  1  1
 23 37  1  0
 23 38  1  0
 24 39  1  1
 27 40  1  0
M  ISO  8  28  14  29  14  30  14  31   8  32   8  33   8  34   9  35  14
M  ISO  5  36  13  37  13  38  13  39  13  40   3
M  END
>  <minimizedAffinity>  (1) 
-6.44990253

>  <minimizedRMSD>  (1) 
0.684742093

$$$$
