
     RDKit          3D

 38 42  0  0  1  0  0  0  0  0999 V2000
   40.5810   21.8890   37.2650 O   0  0  0  0  0  0  0  0  0  0  0  0
   39.6190   22.8190   37.1220 C   0  0  0  0  0  0  0  0  0  0  0  0
   38.9390   23.2770   38.2640 C   0  0  0  0  0  0  0  0  0  0  0  0
   37.9510   24.2360   38.1030 C   0  0  0  0  0  0  0  0  0  0  0  0
   37.6810   24.6910   36.8650 N   0  0  0  0  0  0  0  0  0  0  0  0
   38.3590   24.2270   35.7630 C   0  0  0  0  0  0  0  0  0  0  0  0
   39.3170   23.3010   35.8960 N   0  0  0  0  0  0  0  0  0  0  0  0
   37.9990   24.7700   34.4960 N   0  0  0  0  0  0  0  0  0  0  0  0
   38.1620   24.1780   33.2960 C   0  0  0  0  0  0  0  0  0  0  0  0
   37.7180   24.9600   32.2960 N   0  0  0  0  0  0  0  0  0  0  0  0
   37.2580   26.0850   32.8710 C   0  0  0  0  0  0  0  0  0  0  0  0
   36.6930   27.2070   32.2570 C   0  0  0  0  0  0  0  0  0  0  0  0
   36.3250   28.1820   33.1080 N   0  0  0  0  0  0  0  0  0  0  0  0
   36.4880   28.0810   34.4400 C   0  0  0  0  0  0  0  0  0  0  0  0
   37.0390   26.9860   35.0390 N   0  0  0  0  0  0  0  0  0  0  0  0
   37.4340   25.9650   34.2420 C   0  0  0  0  0  0  0  0  0  0  0  0
   41.8850   22.1380   36.8140 C   0  0  0  0  0  0  0  0  0  0  0  0
   42.4850   21.0920   36.1640 C   0  0  0  0  0  0  0  0  0  0  0  0
   44.0970   21.7940   35.7610 S   0  0  0  0  0  0  0  0  0  0  0  0
   43.6750   23.4730   36.5760 C   0  0  0  0  0  0  0  0  0  0  0  0
   42.6290   23.2080   36.9110 N   0  0  0  0  0  0  0  0  0  0  0  0
   44.6760   24.5840   36.6010 C   0  0  2  0  0  0  0  0  0  0  0  0
   46.0910   24.2810   36.3970 C   0  0  0  0  0  0  0  0  0  0  0  0
   45.7350   24.4520   37.7840 C   0  0  1  0  0  0  0  0  0  0  0  0
   46.2120   25.7800   38.3340 C   0  0  0  0  0  0  0  0  0  0  0  0
   47.2490   26.3760   37.8010 O   0  0  0  0  0  0  0  0  0  0  0  0
   45.5620   26.3990   39.4080 O   0  0  0  0  0  0  0  0  0  0  0  0
   39.1850   22.8838   39.2614 H   0  0  0  0  0  0  0  0  0  0  0  0
   37.3967   24.6189   38.9725 H   0  0  0  0  0  0  0  0  0  0  0  0
   38.6029   23.1805   33.1527 H   0  0  0  0  0  0  0  0  0  0  0  0
   36.5603   27.2860   31.1679 H   0  0  0  0  0  0  0  0  0  0  0  0
   36.1624   28.9187   35.0742 H   0  0  0  0  0  0  0  0  0  0  0  0
   42.0887   20.0894   35.9456 H   0  0  0  0  0  0  0  0  0  0  0  0
   43.9829   25.3269   36.1794 H   0  0  0  0  0  0  0  0  0  0  0  0
   46.3735   23.2793   36.0410 H   0  0  0  0  0  0  0  0  0  0  0  0
   46.8629   24.7520   35.7706 H   0  0  0  0  0  0  0  0  0  0  0  0
   45.8063   23.8688   38.7139 H   0  0  0  0  0  0  0  0  0  0  0  0
   45.8908   27.2672   39.7517 H   0  0  0  0  0  0  0  0  0  0  0  0
  2  1  1  0
  2  3  2  0
  4  3  1  0
  5  4  2  0
  6  7  2  0
  6  5  1  0
  7  2  1  0
  8  6  1  0
  9  8  1  0
 10 11  1  0
 10  9  2  0
 11 16  2  0
 12 11  1  0
 12 13  2  0
 13 14  1  0
 14 15  2  0
 16  8  1  0
 16 15  1  0
 17 21  1  0
 17  1  1  0
 18 17  2  0
 19 18  1  0
 19 20  1  0
 20 22  1  0
 20 21  2  0
 22 24  1  0
 23 22  1  0
 23 24  1  0
 24 25  1  0
 25 27  1  0
 26 25  2  0
  3 28  1  0
  4 29  1  0
  9 30  1  0
 12 31  1  0
 14 32  1  0
 18 33  1  0
 22 34  1  6
 23 35  1  0
 23 36  1  0
 24 37  1  1
 27 38  1  0
M  ISO  8  28  14  29  14  30  14  31  14  32  14  33  14  34  13  35  13
M  ISO  3  36  13  37  13  38   3
M  END
>  <minimizedAffinity>  (1) 
-6.4223876

>  <minimizedRMSD>  (1) 
0.331076324

$$$$
