
     RDKit          3D

 41 45  0  0  1  0  0  0  0  0999 V2000
   40.6140   21.8790   37.3010 O   0  0  0  0  0  0  0  0  0  0  0  0
   39.6140   22.7640   37.1270 C   0  0  0  0  0  0  0  0  0  0  0  0
   38.9210   23.2000   38.2720 C   0  0  0  0  0  0  0  0  0  0  0  0
   37.8900   24.1110   38.0990 C   0  0  0  0  0  0  0  0  0  0  0  0
   37.5850   24.5450   36.8610 N   0  0  0  0  0  0  0  0  0  0  0  0
   38.2940   24.0910   35.7690 C   0  0  0  0  0  0  0  0  0  0  0  0
   39.2840   23.2220   35.8900 N   0  0  0  0  0  0  0  0  0  0  0  0
   37.9100   24.6040   34.4620 C   0  0  0  0  0  0  0  0  0  0  0  0
   37.9240   23.9680   33.2200 C   0  0  0  0  0  0  0  0  0  0  0  0
   37.4840   24.8180   32.2630 N   0  0  0  0  0  0  0  0  0  0  0  0
   37.1830   25.9890   32.8450 C   0  0  0  0  0  0  0  0  0  0  0  0
   36.7030   27.1960   32.3860 C   0  0  0  0  0  0  0  0  0  0  0  0
   36.4640   28.2990   33.2060 C   0  0  0  0  0  0  0  0  0  0  0  0
   36.7350   28.1440   34.5680 C   0  0  0  0  0  0  0  0  0  0  0  0
   37.2180   26.9270   35.0220 C   0  0  0  0  0  0  0  0  0  0  0  0
   37.4410   25.8680   34.1950 C   0  0  0  0  0  0  0  0  0  0  0  0
   41.9020   22.1630   36.8170 C   0  0  0  0  0  0  0  0  0  0  0  0
   42.4990   21.1450   36.1130 C   0  0  0  0  0  0  0  0  0  0  0  0
   44.0820   21.8870   35.6860 S   0  0  0  0  0  0  0  0  0  0  0  0
   43.6650   23.5310   36.5680 C   0  0  0  0  0  0  0  0  0  0  0  0
   42.6290   23.2490   36.9330 N   0  0  0  0  0  0  0  0  0  0  0  0
   44.6460   24.6570   36.6020 C   0  0  2  0  0  0  0  0  0  0  0  0
   46.0510   24.4040   36.3020 C   0  0  0  0  0  0  0  0  0  0  0  0
   45.7680   24.4870   37.7160 C   0  0  1  0  0  0  0  0  0  0  0  0
   46.2510   25.7950   38.3110 C   0  0  0  0  0  0  0  0  0  0  0  0
   47.2900   26.3940   37.7960 O   0  0  0  0  0  0  0  0  0  0  0  0
   45.6040   26.3860   39.4030 O   0  0  0  0  0  0  0  0  0  0  0  0
   39.1889   22.8297   39.2726 H   0  0  0  0  0  0  0  0  0  0  0  0
   37.3242   24.4773   38.9683 H   0  0  0  0  0  0  0  0  0  0  0  0
   38.2448   22.9305   33.0448 H   0  0  0  0  0  0  0  0  0  0  0  0
   37.3954   24.6028   31.2596 H   0  0  0  0  0  0  0  0  0  0  0  0
   36.4961   27.2958   31.3102 H   0  0  0  0  0  0  0  0  0  0  0  0
   36.0802   29.2463   32.7994 H   0  0  0  0  0  0  0  0  0  0  0  0
   36.5676   28.9751   35.2689 H   0  0  0  0  0  0  0  0  0  0  0  0
   37.4302   26.8114   36.0951 H   0  0  0  0  0  0  0  0  0  0  0  0
   42.1123   20.1433   35.8741 H   0  0  0  0  0  0  0  0  0  0  0  0
   43.9146   25.4044   36.2608 H   0  0  0  0  0  0  0  0  0  0  0  0
   46.3361   23.4319   35.8733 H   0  0  0  0  0  0  0  0  0  0  0  0
   46.7753   24.9294   35.6622 H   0  0  0  0  0  0  0  0  0  0  0  0
   45.9002   23.8555   38.6069 H   0  0  0  0  0  0  0  0  0  0  0  0
   45.9389   27.2408   39.7735 H   0  0  0  0  0  0  0  0  0  0  0  0
  2  1  1  0
  2  3  2  0
  4  3  1  0
  5  4  2  0
  6  7  2  0
  6  5  1  0
  7  2  1  0
  8  6  1  0
  9  8  2  0
 10 11  1  0
 10  9  1  0
 11 16  2  0
 12 11  1  0
 12 13  2  0
 13 14  1  0
 14 15  2  0
 16  8  1  0
 16 15  1  0
 17 21  1  0
 17  1  1  0
 18 17  2  0
 19 18  1  0
 19 20  1  0
 20 22  1  0
 20 21  2  0
 22 24  1  0
 23 22  1  0
 23 24  1  0
 24 25  1  0
 25 27  1  0
 26 25  2  0
  3 28  1  0
  4 29  1  0
  9 30  1  0
 10 31  1  0
 12 32  1  0
 13 33  1  0
 14 34  1  0
 15 35  1  0
 18 36  1  0
 22 37  1  6
 23 38  1  0
 23 39  1  0
 24 40  1  1
 27 41  1  0
M  ISO  8  28  14  29  14  30  14  31   9  32  14  33  14  34  14  35  14
M  ISO  6  36  14  37  13  38  13  39  13  40  13  41   3
M  END
>  <minimizedAffinity>  (1) 
-6.38756657

>  <minimizedRMSD>  (1) 
0.494423419

$$$$
