
     RDKit          3D

 41 45  0  0  1  0  0  0  0  0999 V2000
   39.6470   22.7030   37.0960 C   0  0  0  0  0  0  0  0  0  0  0  0
   38.9270   23.2190   38.1690 C   0  0  0  0  0  0  0  0  0  0  0  0
   37.8630   24.0780   37.8490 C   0  0  0  0  0  0  0  0  0  0  0  0
   37.5800   24.3660   36.5530 N   0  0  0  0  0  0  0  0  0  0  0  0
   38.3320   23.8260   35.5190 C   0  0  0  0  0  0  0  0  0  0  0  0
   39.3150   23.0310   35.8460 N   0  0  0  0  0  0  0  0  0  0  0  0
   37.8170   24.3010   34.2380 C   0  0  0  0  0  0  0  0  0  0  0  0
   37.6710   23.5390   33.1440 N   0  0  0  0  0  0  0  0  0  0  0  0
   37.2000   23.9780   31.9760 C   0  0  0  0  0  0  0  0  0  0  0  0
   36.8220   25.2350   31.7740 N   0  0  0  0  0  0  0  0  0  0  0  0
   36.9340   26.0780   32.8180 C   0  0  0  0  0  0  0  0  0  0  0  0
   36.5420   27.3800   32.6070 C   0  0  0  0  0  0  0  0  0  0  0  0
   36.6290   28.2960   33.6330 C   0  0  0  0  0  0  0  0  0  0  0  0
   37.1210   27.8490   34.8610 C   0  0  0  0  0  0  0  0  0  0  0  0
   37.4890   26.5440   34.9960 C   0  0  0  0  0  0  0  0  0  0  0  0
   37.4210   25.5950   34.0030 C   0  0  0  0  0  0  0  0  0  0  0  0
   40.6730   21.8740   37.3440 O   0  0  0  0  0  0  0  0  0  0  0  0
   41.9620   22.1480   36.8470 C   0  0  0  0  0  0  0  0  0  0  0  0
   42.5470   21.1310   36.1400 C   0  0  0  0  0  0  0  0  0  0  0  0
   44.1280   21.8630   35.7010 S   0  0  0  0  0  0  0  0  0  0  0  0
   43.7310   23.5080   36.5850 C   0  0  0  0  0  0  0  0  0  0  0  0
   42.7000   23.2240   36.9540 N   0  0  0  0  0  0  0  0  0  0  0  0
   44.7120   24.6330   36.6100 C   0  0  2  0  0  0  0  0  0  0  0  0
   46.1220   24.3620   36.3260 C   0  0  0  0  0  0  0  0  0  0  0  0
   45.8280   24.4790   37.7350 C   0  0  1  0  0  0  0  0  0  0  0  0
   46.3060   25.8020   38.3020 C   0  0  0  0  0  0  0  0  0  0  0  0
   47.3320   26.4010   37.7610 O   0  0  0  0  0  0  0  0  0  0  0  0
   45.6720   26.4060   39.3910 O   0  0  0  0  0  0  0  0  0  0  0  0
   39.1773   22.9680   39.2103 H   0  0  0  0  0  0  0  0  0  0  0  0
   37.2558   24.5198   38.6528 H   0  0  0  0  0  0  0  0  0  0  0  0
   37.1210   23.2659   31.1413 H   0  0  0  0  0  0  0  0  0  0  0  0
   36.1604   27.6887   31.6226 H   0  0  0  0  0  0  0  0  0  0  0  0
   36.3217   29.3424   33.4896 H   0  0  0  0  0  0  0  0  0  0  0  0
   37.2105   28.5427   35.7100 H   0  0  0  0  0  0  0  0  0  0  0  0
   37.8707   26.2243   35.9769 H   0  0  0  0  0  0  0  0  0  0  0  0
   42.1533   20.1314   35.9037 H   0  0  0  0  0  0  0  0  0  0  0  0
   43.9866   25.3788   36.2529 H   0  0  0  0  0  0  0  0  0  0  0  0
   46.4032   23.3784   35.9217 H   0  0  0  0  0  0  0  0  0  0  0  0
   46.8554   24.8674   35.6805 H   0  0  0  0  0  0  0  0  0  0  0  0
   45.9539   23.8654   38.6392 H   0  0  0  0  0  0  0  0  0  0  0  0
   46.0052   27.2701   39.7409 H   0  0  0  0  0  0  0  0  0  0  0  0
  1 17  1  0
  1  2  2  0
  3  2  1  0
  4  3  2  0
  5  6  2  0
  5  4  1  0
  6  1  1  0
  7  5  1  0
  8  7  2  0
  9  8  1  0
 10  9  2  0
 10 11  1  0
 11 16  2  0
 12 11  1  0
 12 13  2  0
 13 14  1  0
 14 15  2  0
 16  7  1  0
 16 15  1  0
 18 22  1  0
 18 17  1  0
 19 18  2  0
 20 19  1  0
 20 21  1  0
 21 23  1  0
 21 22  2  0
 23 25  1  0
 24 23  1  0
 24 25  1  0
 25 26  1  0
 26 28  1  0
 27 26  2  0
  2 29  1  0
  3 30  1  0
  9 31  1  0
 12 32  1  0
 13 33  1  0
 14 34  1  0
 15 35  1  0
 19 36  1  0
 23 37  1  6
 24 38  1  0
 24 39  1  0
 25 40  1  1
 28 41  1  0
M  ISO  8  29  14  30  14  31  14  32  14  33  14  34  14  35  14  36  14
M  ISO  5  37  13  38  13  39  13  40  13  41   3
M  END
>  <minimizedAffinity>  (1) 
-6.32898951

>  <minimizedRMSD>  (1) 
0.729188502

$$$$
