
     RDKit          3D

 37 40  0  0  1  0  0  0  0  0999 V2000
   40.4550   21.9200   37.1310 O   0  0  0  0  0  0  0  0  0  0  0  0
   39.5610   22.9290   37.2200 C   0  0  0  0  0  0  0  0  0  0  0  0
   39.0040   23.2020   38.4720 C   0  0  0  0  0  0  0  0  0  0  0  0
   38.0840   24.2360   38.5800 C   0  0  0  0  0  0  0  0  0  0  0  0
   37.7500   24.9570   37.4640 N   0  0  0  0  0  0  0  0  0  0  0  0
   38.3330   24.6390   36.2590 C   0  0  0  0  0  0  0  0  0  0  0  0
   39.2050   23.6690   36.1150 N   0  0  0  0  0  0  0  0  0  0  0  0
   37.9080   25.4730   35.1190 C   0  0  0  0  0  0  0  0  0  0  0  0
   37.5420   26.7800   35.3610 C   0  0  0  0  0  0  0  0  0  0  0  0
   37.1360   27.6080   34.3320 C   0  0  0  0  0  0  0  0  0  0  0  0
   37.1220   27.0460   33.0670 C   0  0  0  0  0  0  0  0  0  0  0  0
   37.4820   25.7470   32.7970 C   0  0  0  0  0  0  0  0  0  0  0  0
   37.8820   24.9470   33.8430 C   0  0  0  0  0  0  0  0  0  0  0  0
   41.7770   22.1930   36.7240 C   0  0  0  0  0  0  0  0  0  0  0  0
   42.4200   21.1600   36.0930 C   0  0  0  0  0  0  0  0  0  0  0  0
   44.0250   21.8920   35.7480 S   0  0  0  0  0  0  0  0  0  0  0  0
   43.5500   23.5610   36.5490 C   0  0  0  0  0  0  0  0  0  0  0  0
   42.5000   23.2770   36.8480 N   0  0  0  0  0  0  0  0  0  0  0  0
   44.5250   24.6930   36.6130 C   0  0  2  0  0  0  0  0  0  0  0  0
   45.9260   24.4580   36.2710 C   0  0  0  0  0  0  0  0  0  0  0  0
   45.6740   24.4770   37.6940 C   0  0  1  0  0  0  0  0  0  0  0  0
   46.1610   25.7640   38.3320 C   0  0  0  0  0  0  0  0  0  0  0  0
   47.2050   26.3740   37.8400 O   0  0  0  0  0  0  0  0  0  0  0  0
   45.5160   26.3240   39.4370 O   0  0  0  0  0  0  0  0  0  0  0  0
   39.2887   22.6097   39.3541 H   0  0  0  0  0  0  0  0  0  0  0  0
   37.6277   24.4741   39.5521 H   0  0  0  0  0  0  0  0  0  0  0  0
   37.5737   27.1697   36.3892 H   0  0  0  0  0  0  0  0  0  0  0  0
   36.8410   28.6530   34.5078 H   0  0  0  0  0  0  0  0  0  0  0  0
   36.8029   27.6783   32.2253 H   0  0  0  0  0  0  0  0  0  0  0  0
   37.4511   25.3562   31.7692 H   0  0  0  0  0  0  0  0  0  0  0  0
   38.1770   23.9024   33.6646 H   0  0  0  0  0  0  0  0  0  0  0  0
   42.0514   20.1502   35.8595 H   0  0  0  0  0  0  0  0  0  0  0  0
   43.7837   25.4523   36.3232 H   0  0  0  0  0  0  0  0  0  0  0  0
   46.2040   23.5069   35.7933 H   0  0  0  0  0  0  0  0  0  0  0  0
   46.6347   25.0139   35.6396 H   0  0  0  0  0  0  0  0  0  0  0  0
   45.8301   23.8066   38.5520 H   0  0  0  0  0  0  0  0  0  0  0  0
   45.8548   27.1652   39.8341 H   0  0  0  0  0  0  0  0  0  0  0  0
  1  2  1  0
  2  3  2  0
  3  4  1  0
  5  4  2  0
  6  5  1  0
  7  6  2  0
  7  2  1  0
  8  9  2  0
  8  6  1  0
 10  9  1  0
 11 10  2  0
 12 11  1  0
 12 13  2  0
 13  8  1  0
 14 18  1  0
 14  1  1  0
 15 14  2  0
 16 15  1  0
 16 17  1  0
 17 19  1  0
 17 18  2  0
 19 21  1  0
 20 19  1  0
 20 21  1  0
 21 22  1  0
 22 24  1  0
 23 22  2  0
  3 25  1  0
  4 26  1  0
  9 27  1  0
 10 28  1  0
 11 29  1  0
 12 30  1  0
 13 31  1  0
 15 32  1  0
 19 33  1  1
 20 34  1  0
 20 35  1  0
 21 36  1  1
 24 37  1  0
M  ISO  8  25  14  26  14  27  14  28  14  29  14  30  14  31  14  32  14
M  ISO  5  33  13  34  13  35  13  36  13  37   3
M  END
>  <minimizedAffinity>  (1) 
-5.80093622

>  <minimizedRMSD>  (1) 
0.645704806

$$$$
