
     RDKit          3D

 39 42  0  0  1  0  0  0  0  0999 V2000
   41.7880   22.1890   36.7450 C   0  0  0  0  0  0  0  0  0  0  0  0
   42.4170   21.1490   36.1100 C   0  0  0  0  0  0  0  0  0  0  0  0
   44.0310   21.8730   35.7480 S   0  0  0  0  0  0  0  0  0  0  0  0
   43.5650   23.5480   36.5540 C   0  0  0  0  0  0  0  0  0  0  0  0
   42.5140   23.2660   36.8610 N   0  0  0  0  0  0  0  0  0  0  0  0
   44.5540   24.6650   36.6030 C   0  0  2  0  0  0  0  0  0  0  0  0
   45.9580   24.4040   36.3060 C   0  0  0  0  0  0  0  0  0  0  0  0
   45.6700   24.4740   37.7210 C   0  0  1  0  0  0  0  0  0  0  0  0
   46.1660   25.7680   38.3330 C   0  0  0  0  0  0  0  0  0  0  0  0
   47.2100   26.3700   37.8320 O   0  0  0  0  0  0  0  0  0  0  0  0
   45.5190   26.3430   39.4330 O   0  0  0  0  0  0  0  0  0  0  0  0
   40.4780   21.9210   37.1600 O   0  0  0  0  0  0  0  0  0  0  0  0
   39.5670   22.9050   37.2380 C   0  0  0  0  0  0  0  0  0  0  0  0
   38.9830   23.2190   38.4750 C   0  0  0  0  0  0  0  0  0  0  0  0
   38.0450   24.2360   38.5380 C   0  0  0  0  0  0  0  0  0  0  0  0
   37.7340   24.8850   37.4020 N   0  0  0  0  0  0  0  0  0  0  0  0
   38.3110   24.5720   36.1900 C   0  0  0  0  0  0  0  0  0  0  0  0
   39.2190   23.5880   36.1240 N   0  0  0  0  0  0  0  0  0  0  0  0
   37.9390   25.2940   35.0220 N   0  0  0  0  0  0  0  0  0  0  0  0
   37.2100   26.5720   35.0170 C   0  0  0  0  0  0  0  0  0  0  0  0
   37.2120   26.9980   33.5740 C   0  0  0  0  0  0  0  0  0  0  0  0
   37.1320   25.6270   32.8890 C   0  0  0  0  0  0  0  0  0  0  0  0
   38.2130   24.8960   33.6540 C   0  0  0  0  0  0  0  0  0  0  0  0
   42.0388   20.1416   35.8818 H   0  0  0  0  0  0  0  0  0  0  0  0
   43.8303   25.4218   36.2661 H   0  0  0  0  0  0  0  0  0  0  0  0
   46.2370   23.4343   35.8679 H   0  0  0  0  0  0  0  0  0  0  0  0
   46.6890   24.9306   35.6748 H   0  0  0  0  0  0  0  0  0  0  0  0
   45.7911   23.8324   38.6063 H   0  0  0  0  0  0  0  0  0  0  0  0
   45.8575   27.1892   39.8197 H   0  0  0  0  0  0  0  0  0  0  0  0
   39.2664   22.6649   39.3820 H   0  0  0  0  0  0  0  0  0  0  0  0
   37.5673   24.5056   39.4915 H   0  0  0  0  0  0  0  0  0  0  0  0
   36.1811   26.4347   35.3809 H   0  0  0  0  0  0  0  0  0  0  0  0
   37.6727   27.3213   35.6761 H   0  0  0  0  0  0  0  0  0  0  0  0
   36.3416   27.6258   33.3329 H   0  0  0  0  0  0  0  0  0  0  0  0
   38.0723   27.6149   33.2751 H   0  0  0  0  0  0  0  0  0  0  0  0
   36.1461   25.1584   33.0247 H   0  0  0  0  0  0  0  0  0  0  0  0
   37.2635   25.6432   31.7970 H   0  0  0  0  0  0  0  0  0  0  0  0
   38.1233   23.8068   33.5294 H   0  0  0  0  0  0  0  0  0  0  0  0
   39.2326   25.1368   33.3187 H   0  0  0  0  0  0  0  0  0  0  0  0
  1  5  1  0
  1 12  1  0
  2  1  2  0
  3  2  1  0
  3  4  1  0
  4  6  1  0
  4  5  2  0
  6  8  1  0
  7  6  1  0
  7  8  1  0
  8  9  1  0
  9 11  1  0
 10  9  2  0
 12 13  1  0
 13 14  2  0
 14 15  1  0
 16 15  2  0
 17 16  1  0
 18 17  2  0
 18 13  1  0
 19 17  1  0
 20 19  1  0
 21 20  1  0
 22 21  1  0
 22 23  1  0
 23 19  1  0
  2 24  1  0
  6 25  1  6
  7 26  1  0
  7 27  1  0
  8 28  1  1
 11 29  1  0
 14 30  1  0
 15 31  1  0
 20 32  1  0
 20 33  1  0
 21 34  1  0
 21 35  1  0
 22 36  1  0
 22 37  1  0
 23 38  1  0
 23 39  1  0
M  ISO  8  24  14  25  13  26  13  27  13  28  13  29   3  30  14  31  14
M  ISO  8  32  13  33  13  34  13  35  13  36  13  37  13  38  13  39  13
M  END
>  <minimizedAffinity>  (1) 
-5.72226381

>  <minimizedRMSD>  (1) 
0.506676316

$$$$
