
     RDKit          3D

 35 38  0  0  1  0  0  0  0  0999 V2000
   41.7560   22.1990   36.7280 C   0  0  0  0  0  0  0  0  0  0  0  0
   42.3990   21.1640   36.0970 C   0  0  0  0  0  0  0  0  0  0  0  0
   44.0040   21.8960   35.7460 S   0  0  0  0  0  0  0  0  0  0  0  0
   43.5280   23.5690   36.5470 C   0  0  0  0  0  0  0  0  0  0  0  0
   42.4730   23.2850   36.8510 N   0  0  0  0  0  0  0  0  0  0  0  0
   44.4990   24.7030   36.6080 C   0  0  2  0  0  0  0  0  0  0  0  0
   45.9000   24.4690   36.2560 C   0  0  0  0  0  0  0  0  0  0  0  0
   45.6590   24.4870   37.6740 C   0  0  1  0  0  0  0  0  0  0  0  0
   46.1510   25.7560   38.3300 C   0  0  0  0  0  0  0  0  0  0  0  0
   47.1990   26.3700   37.8500 O   0  0  0  0  0  0  0  0  0  0  0  0
   45.5060   26.3010   39.4450 O   0  0  0  0  0  0  0  0  0  0  0  0
   40.4410   21.9270   37.1400 O   0  0  0  0  0  0  0  0  0  0  0  0
   39.5400   22.9180   37.2450 C   0  0  0  0  0  0  0  0  0  0  0  0
   39.0130   23.2140   38.5260 C   0  0  0  0  0  0  0  0  0  0  0  0
   38.0870   24.2410   38.6040 C   0  0  0  0  0  0  0  0  0  0  0  0
   37.7200   24.9130   37.4950 N   0  0  0  0  0  0  0  0  0  0  0  0
   38.2560   24.5940   36.2670 C   0  0  0  0  0  0  0  0  0  0  0  0
   39.1550   23.6070   36.1460 N   0  0  0  0  0  0  0  0  0  0  0  0
   37.8470   25.3310   35.0740 C   0  0  0  0  0  0  0  0  0  0  0  0
   37.3910   26.6310   35.1580 C   0  0  0  0  0  0  0  0  0  0  0  0
   36.9810   27.4140   34.0880 C   0  0  0  0  0  0  0  0  0  0  0  0
   37.0470   26.8220   32.8790 N   0  0  0  0  0  0  0  0  0  0  0  0
   37.4890   25.5500   32.7610 C   0  0  0  0  0  0  0  0  0  0  0  0
   37.8840   24.8090   33.8340 N   0  0  0  0  0  0  0  0  0  0  0  0
   42.0303   20.1536   35.8667 H   0  0  0  0  0  0  0  0  0  0  0  0
   43.7532   25.4616   36.3282 H   0  0  0  0  0  0  0  0  0  0  0  0
   46.1755   23.5184   35.7760 H   0  0  0  0  0  0  0  0  0  0  0  0
   46.6039   25.0259   35.6201 H   0  0  0  0  0  0  0  0  0  0  0  0
   45.8242   23.8138   38.5281 H   0  0  0  0  0  0  0  0  0  0  0  0
   45.8481   27.1338   39.8568 H   0  0  0  0  0  0  0  0  0  0  0  0
   39.3253   22.6531   39.4192 H   0  0  0  0  0  0  0  0  0  0  0  0
   37.6487   24.5096   39.5765 H   0  0  0  0  0  0  0  0  0  0  0  0
   37.3489   27.0854   36.1589 H   0  0  0  0  0  0  0  0  0  0  0  0
   36.6264   28.4472   34.2178 H   0  0  0  0  0  0  0  0  0  0  0  0
   37.5314   25.0956   31.7601 H   0  0  0  0  0  0  0  0  0  0  0  0
  1  5  1  0
  1 12  1  0
  2  1  2  0
  3  2  1  0
  3  4  1  0
  4  6  1  0
  4  5  2  0
  6  8  1  0
  7  6  1  0
  7  8  1  0
  8  9  1  0
  9 11  1  0
 10  9  2  0
 12 13  1  0
 13 14  2  0
 14 15  1  0
 16 15  2  0
 17 16  1  0
 18 17  2  0
 18 13  1  0
 19 20  2  0
 19 17  1  0
 21 20  1  0
 22 21  2  0
 23 22  1  0
 23 24  2  0
 24 19  1  0
  2 25  1  0
  6 26  1  1
  7 27  1  0
  7 28  1  0
  8 29  1  1
 11 30  1  0
 14 31  1  0
 15 32  1  0
 20 33  1  0
 21 34  1  0
 23 35  1  0
M  ISO  8  25  14  26  13  27  13  28  13  29  13  30   3  31  14  32  14
M  ISO  3  33  14  34  14  35  14
M  END
>  <minimizedAffinity>  (1) 
-5.62621927

>  <minimizedRMSD>  (1) 
0.709659994

$$$$
