
     RDKit          3D

 33 36  0  0  1  0  0  0  0  0999 V2000
   41.7830   22.1740   36.7560 C   0  0  0  0  0  0  0  0  0  0  0  0
   42.4160   21.1410   36.1140 C   0  0  0  0  0  0  0  0  0  0  0  0
   44.0220   21.8760   35.7450 S   0  0  0  0  0  0  0  0  0  0  0  0
   43.5530   23.5460   36.5580 C   0  0  0  0  0  0  0  0  0  0  0  0
   42.5060   23.2560   36.8700 N   0  0  0  0  0  0  0  0  0  0  0  0
   44.5330   24.6710   36.6050 C   0  0  2  0  0  0  0  0  0  0  0  0
   45.9360   24.4210   36.2810 C   0  0  0  0  0  0  0  0  0  0  0  0
   45.6720   24.4770   37.6950 C   0  0  1  0  0  0  0  0  0  0  0  0
   46.1620   25.7610   38.3250 C   0  0  0  0  0  0  0  0  0  0  0  0
   47.2080   26.3750   37.8300 O   0  0  0  0  0  0  0  0  0  0  0  0
   45.5160   26.3220   39.4340 O   0  0  0  0  0  0  0  0  0  0  0  0
   40.4730   21.8990   37.1820 O   0  0  0  0  0  0  0  0  0  0  0  0
   39.5600   22.8930   37.2360 C   0  0  0  0  0  0  0  0  0  0  0  0
   39.0200   23.2110   38.4930 C   0  0  0  0  0  0  0  0  0  0  0  0
   38.0720   24.2470   38.5510 C   0  0  0  0  0  0  0  0  0  0  0  0
   37.7160   24.9000   37.4000 N   0  0  0  0  0  0  0  0  0  0  0  0
   38.2920   24.5290   36.2100 C   0  0  0  0  0  0  0  0  0  0  0  0
   39.1760   23.5710   36.1010 N   0  0  0  0  0  0  0  0  0  0  0  0
   37.9100   25.2210   35.0240 N   0  0  0  0  0  0  0  0  0  0  0  0
   37.2500   26.3930   34.9900 C   0  0  0  0  0  0  0  0  0  0  0  0
   37.0320   26.7950   33.7060 N   0  0  0  0  0  0  0  0  0  0  0  0
   37.5720   25.8440   32.9470 C   0  0  0  0  0  0  0  0  0  0  0  0
   38.1040   24.8890   33.7580 N   0  0  0  0  0  0  0  0  0  0  0  0
   42.0435   20.1317   35.8847 H   0  0  0  0  0  0  0  0  0  0  0  0
   43.7968   25.4262   36.2926 H   0  0  0  0  0  0  0  0  0  0  0  0
   46.2136   23.4569   35.8300 H   0  0  0  0  0  0  0  0  0  0  0  0
   46.6530   24.9574   35.6421 H   0  0  0  0  0  0  0  0  0  0  0  0
   45.8184   23.8257   38.5693 H   0  0  0  0  0  0  0  0  0  0  0  0
   45.8543   27.1637   39.8305 H   0  0  0  0  0  0  0  0  0  0  0  0
   39.3279   22.6688   39.3992 H   0  0  0  0  0  0  0  0  0  0  0  0
   37.6195   24.5313   39.5125 H   0  0  0  0  0  0  0  0  0  0  0  0
   36.9288   26.9528   35.8808 H   0  0  0  0  0  0  0  0  0  0  0  0
   37.5860   25.8319   31.8472 H   0  0  0  0  0  0  0  0  0  0  0  0
  1  5  1  0
  1 12  1  0
  2  1  2  0
  3  2  1  0
  3  4  1  0
  4  6  1  0
  4  5  2  0
  6  8  1  0
  7  6  1  0
  7  8  1  0
  8  9  1  0
  9 11  1  0
 10  9  2  0
 12 13  1  0
 13 14  2  0
 14 15  1  0
 16 15  2  0
 17 16  1  0
 18 17  2  0
 18 13  1  0
 19 17  1  0
 20 19  1  0
 21 20  2  0
 22 21  1  0
 22 23  2  0
 23 19  1  0
  2 24  1  0
  6 25  1  6
  7 26  1  0
  7 27  1  0
  8 28  1  1
 11 29  1  0
 14 30  1  0
 15 31  1  0
 20 32  1  0
 22 33  1  0
M  ISO  8  24  14  25  13  26  13  27  13  28  13  29   3  30  14  31  14
M  ISO  2  32  14  33  14
M  END
>  <minimizedAffinity>  (1) 
-5.59741497

>  <minimizedRMSD>  (1) 
0.43966952

$$$$
