
     RDKit          3D

 40 43  0  0  1  0  0  0  0  0999 V2000
   41.7990   22.1810   36.7700 C   0  0  0  0  0  0  0  0  0  0  0  0
   42.4070   21.1280   36.1540 C   0  0  0  0  0  0  0  0  0  0  0  0
   44.0320   21.8190   35.7830 S   0  0  0  0  0  0  0  0  0  0  0  0
   43.5990   23.5100   36.5620 C   0  0  0  0  0  0  0  0  0  0  0  0
   42.5460   23.2420   36.8690 N   0  0  0  0  0  0  0  0  0  0  0  0
   44.5950   24.6240   36.5970 C   0  0  2  0  0  0  0  0  0  0  0  0
   46.0050   24.3370   36.3510 C   0  0  0  0  0  0  0  0  0  0  0  0
   45.6800   24.4650   37.7470 C   0  0  1  0  0  0  0  0  0  0  0  0
   46.1630   25.7680   38.3390 C   0  0  0  0  0  0  0  0  0  0  0  0
   47.2120   26.3650   37.8300 O   0  0  0  0  0  0  0  0  0  0  0  0
   45.5140   26.3680   39.4240 O   0  0  0  0  0  0  0  0  0  0  0  0
   40.4720   21.9480   37.1960 O   0  0  0  0  0  0  0  0  0  0  0  0
   39.6010   22.9750   37.2760 C   0  0  0  0  0  0  0  0  0  0  0  0
   38.8970   23.1370   38.4780 C   0  0  0  0  0  0  0  0  0  0  0  0
   37.9940   24.2070   38.5560 C   0  0  0  0  0  0  0  0  0  0  0  0
   37.8280   25.0450   37.4860 N   0  0  0  0  0  0  0  0  0  0  0  0
   38.5600   24.8170   36.3410 C   0  0  0  0  0  0  0  0  0  0  0  0
   39.4150   23.8330   36.2130 N   0  0  0  0  0  0  0  0  0  0  0  0
   38.3610   25.7460   35.1940 C   0  0  0  0  0  0  0  0  0  0  0  0
   39.2270   26.9610   35.2680 C   0  0  0  0  0  0  0  0  0  0  0  0
   39.8710   27.0810   33.9290 C   0  0  0  0  0  0  0  0  0  0  0  0
   39.1120   26.2060   32.9820 C   0  0  0  0  0  0  0  0  0  0  0  0
   38.6170   25.0920   33.8570 C   0  0  0  0  0  0  0  0  0  0  0  0
   42.0120   20.1239   35.9400 H   0  0  0  0  0  0  0  0  0  0  0  0
   43.8876   25.3743   36.2141 H   0  0  0  0  0  0  0  0  0  0  0  0
   46.2853   23.3480   35.9594 H   0  0  0  0  0  0  0  0  0  0  0  0
   46.7593   24.8310   35.7209 H   0  0  0  0  0  0  0  0  0  0  0  0
   45.7759   23.8543   38.6569 H   0  0  0  0  0  0  0  0  0  0  0  0
   45.8522   27.2225   39.7922 H   0  0  0  0  0  0  0  0  0  0  0  0
   39.0471   22.4522   39.3256 H   0  0  0  0  0  0  0  0  0  0  0  0
   37.4181   24.3734   39.4783 H   0  0  0  0  0  0  0  0  0  0  0  0
   37.3033   26.0377   35.2726 H   0  0  0  0  0  0  0  0  0  0  0  0
   38.6192   27.8524   35.4823 H   0  0  0  0  0  0  0  0  0  0  0  0
   39.9740   26.8782   36.0712 H   0  0  0  0  0  0  0  0  0  0  0  0
   39.8330   28.1257   33.5868 H   0  0  0  0  0  0  0  0  0  0  0  0
   40.9258   26.7729   33.9786 H   0  0  0  0  0  0  0  0  0  0  0  0
   39.7699   25.8208   32.1890 H   0  0  0  0  0  0  0  0  0  0  0  0
   38.3003   26.7375   32.4637 H   0  0  0  0  0  0  0  0  0  0  0  0
   37.6898   24.6615   33.4510 H   0  0  0  0  0  0  0  0  0  0  0  0
   39.3378   24.2641   33.9277 H   0  0  0  0  0  0  0  0  0  0  0  0
  1  5  1  0
  1 12  1  0
  2  1  2  0
  3  2  1  0
  3  4  1  0
  4  6  1  0
  4  5  2  0
  6  8  1  0
  7  6  1  0
  7  8  1  0
  8  9  1  0
  9 11  1  0
 10  9  2  0
 12 13  1  0
 13 14  2  0
 14 15  1  0
 16 15  2  0
 17 16  1  0
 18 17  2  0
 18 13  1  0
 19 20  1  0
 19 17  1  0
 21 20  1  0
 22 23  1  0
 22 21  1  0
 23 19  1  0
  2 24  1  0
  6 25  1  6
  7 26  1  0
  7 27  1  0
  8 28  1  1
 11 29  1  0
 14 30  1  0
 15 31  1  0
 19 32  1  0
 20 33  1  0
 20 34  1  0
 21 35  1  0
 21 36  1  0
 22 37  1  0
 22 38  1  0
 23 39  1  0
 23 40  1  0
M  ISO  8  24  14  25  13  26  13  27  13  28  13  29   3  30  14  31  14
M  ISO  8  32  13  33  13  34  13  35  13  36  13  37  13  38  13  39  13
M  ISO  1  40  13
M  END
>  <minimizedAffinity>  (1) 
-5.54440355

>  <minimizedRMSD>  (1) 
1.35456169

$$$$
