
     RDKit          3D

 34 37  0  0  1  0  0  0  0  0999 V2000
   41.7330   22.2160   36.6990 C   0  0  0  0  0  0  0  0  0  0  0  0
   42.3970   21.1820   36.0890 C   0  0  0  0  0  0  0  0  0  0  0  0
   44.0030   21.9180   35.7660 S   0  0  0  0  0  0  0  0  0  0  0  0
   43.5020   23.5960   36.5440 C   0  0  0  0  0  0  0  0  0  0  0  0
   42.4490   23.2960   36.8210 N   0  0  0  0  0  0  0  0  0  0  0  0
   44.4640   24.7380   36.6140 C   0  0  2  0  0  0  0  0  0  0  0  0
   45.8530   24.5340   36.2150 C   0  0  0  0  0  0  0  0  0  0  0  0
   45.6550   24.4990   37.6390 C   0  0  1  0  0  0  0  0  0  0  0  0
   46.1470   25.7530   38.3260 C   0  0  0  0  0  0  0  0  0  0  0  0
   47.1970   26.3770   37.8590 O   0  0  0  0  0  0  0  0  0  0  0  0
   45.5020   26.2740   39.4540 O   0  0  0  0  0  0  0  0  0  0  0  0
   40.4100   21.9390   37.0840 O   0  0  0  0  0  0  0  0  0  0  0  0
   39.5200   22.9410   37.2110 C   0  0  0  0  0  0  0  0  0  0  0  0
   38.9890   23.2110   38.4760 C   0  0  0  0  0  0  0  0  0  0  0  0
   38.0700   24.2410   38.6140 C   0  0  0  0  0  0  0  0  0  0  0  0
   37.7220   24.9440   37.5180 N   0  0  0  0  0  0  0  0  0  0  0  0
   38.2610   24.6530   36.2870 C   0  0  0  0  0  0  0  0  0  0  0  0
   39.1440   23.6710   36.1290 N   0  0  0  0  0  0  0  0  0  0  0  0
   37.8640   25.4320   35.1190 C   0  0  0  0  0  0  0  0  0  0  0  0
   37.6350   26.7860   35.3180 C   0  0  0  0  0  0  0  0  0  0  0  0
   37.2700   27.3320   34.0840 C   0  0  0  0  0  0  0  0  0  0  0  0
   37.3060   26.2520   33.2080 C   0  0  0  0  0  0  0  0  0  0  0  0
   37.6550   25.1650   33.8510 O   0  0  0  0  0  0  0  0  0  0  0  0
   42.0393   20.1677   35.8582 H   0  0  0  0  0  0  0  0  0  0  0  0
   43.7027   25.4968   36.3803 H   0  0  0  0  0  0  0  0  0  0  0  0
   46.1247   23.6043   35.6936 H   0  0  0  0  0  0  0  0  0  0  0  0
   46.5314   25.1217   35.5791 H   0  0  0  0  0  0  0  0  0  0  0  0
   45.8548   23.7983   38.4631 H   0  0  0  0  0  0  0  0  0  0  0  0
   45.8452   27.0968   39.8845 H   0  0  0  0  0  0  0  0  0  0  0  0
   39.2954   22.6156   39.3487 H   0  0  0  0  0  0  0  0  0  0  0  0
   37.6350   24.4787   39.5960 H   0  0  0  0  0  0  0  0  0  0  0  0
   37.7242   27.3291   36.2704 H   0  0  0  0  0  0  0  0  0  0  0  0
   37.0129   28.3773   33.8574 H   0  0  0  0  0  0  0  0  0  0  0  0
   37.0754   26.3030   32.1336 H   0  0  0  0  0  0  0  0  0  0  0  0
  1  5  1  0
  1 12  1  0
  2  1  2  0
  3  2  1  0
  3  4  1  0
  4  6  1  0
  4  5  2  0
  6  8  1  0
  7  6  1  0
  7  8  1  0
  8  9  1  0
  9 11  1  0
 10  9  2  0
 12 13  1  0
 13 14  2  0
 14 15  1  0
 16 15  2  0
 17 16  1  0
 18 17  2  0
 18 13  1  0
 19 20  2  0
 19 17  1  0
 21 20  1  0
 22 23  1  0
 22 21  2  0
 23 19  1  0
  2 24  1  0
  6 25  1  1
  7 26  1  0
  7 27  1  0
  8 28  1  1
 11 29  1  0
 14 30  1  0
 15 31  1  0
 20 32  1  0
 21 33  1  0
 22 34  1  0
M  ISO  8  24  14  25  13  26  13  27  13  28  13  29   3  30  14  31  14
M  ISO  3  32  14  33  14  34  14
M  END
>  <minimizedAffinity>  (1) 
-5.53405094

>  <minimizedRMSD>  (1) 
0.786743999

$$$$
