
     RDKit          3D

 32 35  0  0  1  0  0  0  0  0999 V2000
   41.7870   22.1810   36.7510 C   0  0  0  0  0  0  0  0  0  0  0  0
   42.4190   21.1530   36.1020 C   0  0  0  0  0  0  0  0  0  0  0  0
   44.0190   21.8960   35.7310 S   0  0  0  0  0  0  0  0  0  0  0  0
   43.5470   23.5590   36.5550 C   0  0  0  0  0  0  0  0  0  0  0  0
   42.5030   23.2670   36.8700 N   0  0  0  0  0  0  0  0  0  0  0  0
   44.5250   24.6890   36.6070 C   0  0  2  0  0  0  0  0  0  0  0  0
   45.9230   24.4550   36.2620 C   0  0  0  0  0  0  0  0  0  0  0  0
   45.6710   24.4820   37.6860 C   0  0  1  0  0  0  0  0  0  0  0  0
   46.1690   25.7650   38.3230 C   0  0  0  0  0  0  0  0  0  0  0  0
   47.2130   26.3770   37.8340 O   0  0  0  0  0  0  0  0  0  0  0  0
   45.5220   26.3200   39.4350 O   0  0  0  0  0  0  0  0  0  0  0  0
   40.4760   21.9010   37.1820 O   0  0  0  0  0  0  0  0  0  0  0  0
   39.5610   22.8910   37.2440 C   0  0  0  0  0  0  0  0  0  0  0  0
   39.0320   23.1990   38.5140 C   0  0  0  0  0  0  0  0  0  0  0  0
   38.0850   24.2280   38.5770 C   0  0  0  0  0  0  0  0  0  0  0  0
   37.7110   24.8870   37.4390 N   0  0  0  0  0  0  0  0  0  0  0  0
   38.2750   24.5250   36.2370 C   0  0  0  0  0  0  0  0  0  0  0  0
   39.1670   23.5680   36.1160 N   0  0  0  0  0  0  0  0  0  0  0  0
   37.8320   25.2690   35.0600 C   0  0  0  0  0  0  0  0  0  0  0  0
   37.2020   26.4550   34.9850 N   0  0  0  0  0  0  0  0  0  0  0  0
   36.9680   26.8000   33.7540 O   0  0  0  0  0  0  0  0  0  0  0  0
   37.4360   25.8540   32.9960 C   0  0  0  0  0  0  0  0  0  0  0  0
   37.9740   24.8980   33.7740 N   0  0  0  0  0  0  0  0  0  0  0  0
   42.0488   20.1436   35.8694 H   0  0  0  0  0  0  0  0  0  0  0  0
   43.7831   25.4456   36.3117 H   0  0  0  0  0  0  0  0  0  0  0  0
   46.2018   23.5017   35.7892 H   0  0  0  0  0  0  0  0  0  0  0  0
   46.6299   25.0078   35.6258 H   0  0  0  0  0  0  0  0  0  0  0  0
   45.8231   23.8175   38.5493 H   0  0  0  0  0  0  0  0  0  0  0  0
   45.8613   27.1583   39.8377 H   0  0  0  0  0  0  0  0  0  0  0  0
   39.3494   22.6547   39.4157 H   0  0  0  0  0  0  0  0  0  0  0  0
   37.6409   24.5069   39.5440 H   0  0  0  0  0  0  0  0  0  0  0  0
   37.3983   25.8378   31.8968 H   0  0  0  0  0  0  0  0  0  0  0  0
  1  5  1  0
  1 12  1  0
  2  1  2  0
  3  2  1  0
  3  4  1  0
  4  6  1  0
  4  5  2  0
  6  8  1  0
  7  6  1  0
  7  8  1  0
  8  9  1  0
  9 11  1  0
 10  9  2  0
 12 13  1  0
 13 14  2  0
 14 15  1  0
 16 15  2  0
 17 16  1  0
 18 17  2  0
 18 13  1  0
 19 17  1  0
 20 19  2  0
 21 20  1  0
 22 21  1  0
 22 23  2  0
 23 19  1  0
  2 24  1  0
  6 25  1  1
  7 26  1  0
  7 27  1  0
  8 28  1  1
 11 29  1  0
 14 30  1  0
 15 31  1  0
 22 32  1  0
M  ISO  8  24  14  25  13  26  13  27  13  28  13  29   3  30  14  31  14
M  ISO  1  32  14
M  END
>  <minimizedAffinity>  (1) 
-5.34216881

>  <minimizedRMSD>  (1) 
0.647325397

$$$$
