
     RDKit          3D

 33 36  0  0  1  0  0  0  0  0999 V2000
   41.8370   22.1620   36.7840 C   0  0  0  0  0  0  0  0  0  0  0  0
   42.4510   21.1320   36.1200 C   0  0  0  0  0  0  0  0  0  0  0  0
   44.0500   21.8610   35.7270 S   0  0  0  0  0  0  0  0  0  0  0  0
   43.6090   23.5240   36.5650 C   0  0  0  0  0  0  0  0  0  0  0  0
   42.5640   23.2470   36.9000 N   0  0  0  0  0  0  0  0  0  0  0  0
   44.5880   24.6530   36.6060 C   0  0  2  0  0  0  0  0  0  0  0  0
   45.9950   24.3970   36.3050 C   0  0  0  0  0  0  0  0  0  0  0  0
   45.7140   24.4810   37.7130 C   0  0  1  0  0  0  0  0  0  0  0  0
   46.1950   25.7770   38.3230 C   0  0  0  0  0  0  0  0  0  0  0  0
   47.2380   26.3810   37.8150 O   0  0  0  0  0  0  0  0  0  0  0  0
   45.5460   26.3550   39.4190 O   0  0  0  0  0  0  0  0  0  0  0  0
   40.5340   21.8890   37.2330 O   0  0  0  0  0  0  0  0  0  0  0  0
   39.6010   22.8630   37.2360 C   0  0  0  0  0  0  0  0  0  0  0  0
   38.9920   23.2010   38.4460 C   0  0  0  0  0  0  0  0  0  0  0  0
   38.0310   24.2000   38.4740 C   0  0  0  0  0  0  0  0  0  0  0  0
   37.7130   24.8260   37.3030 N   0  0  0  0  0  0  0  0  0  0  0  0
   38.3380   24.4610   36.1390 C   0  0  0  0  0  0  0  0  0  0  0  0
   39.2540   23.5140   36.0810 N   0  0  0  0  0  0  0  0  0  0  0  0
   37.9880   25.1450   34.8710 C   0  0  0  0  0  0  0  0  0  0  0  0
   37.4520   26.3910   35.1100 C   0  0  0  0  0  0  0  0  0  0  0  0
   37.0810   27.0920   33.4800 S   0  0  0  0  0  0  0  0  0  0  0  0
   37.7530   25.4830   32.6690 C   0  0  0  0  0  0  0  0  0  0  0  0
   38.0440   24.9000   33.5830 N   0  0  0  0  0  0  0  0  0  0  0  0
   42.0685   20.1269   35.8886 H   0  0  0  0  0  0  0  0  0  0  0  0
   43.8549   25.4019   36.2718 H   0  0  0  0  0  0  0  0  0  0  0  0
   46.2783   23.4242   35.8768 H   0  0  0  0  0  0  0  0  0  0  0  0
   46.7199   24.9208   35.6646 H   0  0  0  0  0  0  0  0  0  0  0  0
   45.8503   23.8471   38.6016 H   0  0  0  0  0  0  0  0  0  0  0  0
   45.8807   27.2049   39.8007 H   0  0  0  0  0  0  0  0  0  0  0  0
   39.2730   22.6777   39.3718 H   0  0  0  0  0  0  0  0  0  0  0  0
   37.5372   24.4812   39.4159 H   0  0  0  0  0  0  0  0  0  0  0  0
   37.2836   26.8637   36.0889 H   0  0  0  0  0  0  0  0  0  0  0  0
   37.8306   25.2102   31.6062 H   0  0  0  0  0  0  0  0  0  0  0  0
  1  5  1  0
  1 12  1  0
  2  1  2  0
  3  2  1  0
  3  4  1  0
  4  6  1  0
  4  5  2  0
  6  8  1  0
  7  6  1  0
  7  8  1  0
  8  9  1  0
  9 11  1  0
 10  9  2  0
 12 13  1  0
 13 14  2  0
 14 15  1  0
 16 15  2  0
 17 16  1  0
 18 17  2  0
 18 13  1  0
 19 20  2  0
 19 17  1  0
 21 20  1  0
 22 21  1  0
 22 23  2  0
 23 19  1  0
  2 24  1  0
  6 25  1  6
  7 26  1  0
  7 27  1  0
  8 28  1  1
 11 29  1  0
 14 30  1  0
 15 31  1  0
 20 32  1  0
 22 33  1  0
M  ISO  8  24  14  25  13  26  13  27  13  28  13  29   3  30  14  31  14
M  ISO  2  32  14  33  14
M  END
>  <minimizedAffinity>  (1) 
-5.34148598

>  <minimizedRMSD>  (1) 
0.497170627

$$$$
