
     RDKit          3D

 30 32  0  0  1  0  0  0  0  0999 V2000
   41.7000   22.2460   36.5950 C   0  0  0  0  0  0  0  0  0  0  0  0
   42.3660   21.1640   36.0730 C   0  0  0  0  0  0  0  0  0  0  0  0
   44.0150   21.8450   35.8220 S   0  0  0  0  0  0  0  0  0  0  0  0
   43.5130   23.5650   36.4950 C   0  0  0  0  0  0  0  0  0  0  0  0
   42.4340   23.3210   36.7220 N   0  0  0  0  0  0  0  0  0  0  0  0
   44.5120   24.6740   36.5800 C   0  0  2  0  0  0  0  0  0  0  0  0
   45.9170   24.4100   36.2980 C   0  0  0  0  0  0  0  0  0  0  0  0
   45.6060   24.4600   37.7110 C   0  0  1  0  0  0  0  0  0  0  0  0
   46.1010   25.7410   38.3500 C   0  0  0  0  0  0  0  0  0  0  0  0
   47.1500   26.3440   37.8670 O   0  0  0  0  0  0  0  0  0  0  0  0
   45.4490   26.3010   39.4540 O   0  0  0  0  0  0  0  0  0  0  0  0
   40.3480   22.0220   36.9060 O   0  0  0  0  0  0  0  0  0  0  0  0
   39.5170   23.0630   37.1030 C   0  0  0  0  0  0  0  0  0  0  0  0
   38.8750   23.1570   38.3520 C   0  0  0  0  0  0  0  0  0  0  0  0
   38.0160   24.2260   38.5630 C   0  0  0  0  0  0  0  0  0  0  0  0
   37.8250   25.1300   37.5830 N   0  0  0  0  0  0  0  0  0  0  0  0
   38.4770   24.9980   36.3740 C   0  0  0  0  0  0  0  0  0  0  0  0
   39.3040   23.9880   36.1390 N   0  0  0  0  0  0  0  0  0  0  0  0
   38.2250   26.0360   35.3200 C   0  0  0  0  0  0  0  0  0  0  0  0
   38.6740   25.6410   34.0960 F   0  0  0  0  0  0  0  0  0  0  0  0
   38.9210   27.1630   35.7570 F   0  0  0  0  0  0  0  0  0  0  0  0
   36.8640   26.2850   35.2890 F   0  0  0  0  0  0  0  0  0  0  0  0
   41.9919   20.1509   35.8638 H   0  0  0  0  0  0  0  0  0  0  0  0
   43.7980   25.4408   36.2452 H   0  0  0  0  0  0  0  0  0  0  0  0
   46.1972   23.4457   35.8490 H   0  0  0  0  0  0  0  0  0  0  0  0
   46.6604   24.9415   35.6857 H   0  0  0  0  0  0  0  0  0  0  0  0
   45.7081   23.8046   38.5885 H   0  0  0  0  0  0  0  0  0  0  0  0
   45.7888   27.1390   39.8569 H   0  0  0  0  0  0  0  0  0  0  0  0
   39.0489   22.4060   39.1367 H   0  0  0  0  0  0  0  0  0  0  0  0
   37.4940   24.3346   39.5251 H   0  0  0  0  0  0  0  0  0  0  0  0
  1  5  1  0
  1 12  1  0
  2  1  2  0
  3  2  1  0
  3  4  1  0
  4  6  1  0
  4  5  2  0
  6  8  1  0
  7  6  1  0
  7  8  1  0
  8  9  1  0
  9 11  1  0
 10  9  2  0
 12 13  1  0
 13 14  2  0
 14 15  1  0
 16 15  2  0
 17 16  1  0
 18 17  2  0
 18 13  1  0
 19 21  1  0
 19 17  1  0
 20 19  1  0
 22 19  1  0
  2 23  1  0
  6 24  1  1
  7 25  1  0
  7 26  1  0
  8 27  1  1
 11 28  1  0
 14 29  1  0
 15 30  1  0
M  ISO  8  23  14  24  13  25  13  26  13  27  13  28   3  29  14  30  14
M  END
>  <minimizedAffinity>  (1) 
-5.20254993

>  <minimizedRMSD>  (1) 
0.83774972

$$$$
