
     RDKit          3D

 33 35  0  0  1  0  0  0  0  0999 V2000
   41.7450   22.2200   36.7190 C   0  0  0  0  0  0  0  0  0  0  0  0
   42.3820   21.1560   36.1310 C   0  0  0  0  0  0  0  0  0  0  0  0
   44.0120   21.8500   35.8030 S   0  0  0  0  0  0  0  0  0  0  0  0
   43.5450   23.5520   36.5500 C   0  0  0  0  0  0  0  0  0  0  0  0
   42.4790   23.2960   36.8330 N   0  0  0  0  0  0  0  0  0  0  0  0
   44.5420   24.6630   36.6040 C   0  0  2  0  0  0  0  0  0  0  0  0
   45.9440   24.3980   36.3070 C   0  0  0  0  0  0  0  0  0  0  0  0
   45.6570   24.4610   37.7210 C   0  0  1  0  0  0  0  0  0  0  0  0
   46.1550   25.7530   38.3380 C   0  0  0  0  0  0  0  0  0  0  0  0
   47.2000   26.3560   37.8420 O   0  0  0  0  0  0  0  0  0  0  0  0
   45.5080   26.3270   39.4400 O   0  0  0  0  0  0  0  0  0  0  0  0
   40.4150   21.9840   37.1030 O   0  0  0  0  0  0  0  0  0  0  0  0
   39.5530   23.0100   37.2290 C   0  0  0  0  0  0  0  0  0  0  0  0
   38.9120   23.1780   38.4750 C   0  0  0  0  0  0  0  0  0  0  0  0
   38.0230   24.2350   38.6060 C   0  0  0  0  0  0  0  0  0  0  0  0
   37.8040   25.0540   37.5590 N   0  0  0  0  0  0  0  0  0  0  0  0
   38.4530   24.8510   36.3630 C   0  0  0  0  0  0  0  0  0  0  0  0
   39.3110   23.8500   36.1960 N   0  0  0  0  0  0  0  0  0  0  0  0
   38.1270   25.8240   35.2820 C   0  0  0  0  0  0  0  0  0  0  0  0
   38.5960   27.1810   35.8060 C   0  0  0  0  0  0  0  0  0  0  0  0
   41.9990   20.1473   35.9168 H   0  0  0  0  0  0  0  0  0  0  0  0
   43.8220   25.4245   36.2697 H   0  0  0  0  0  0  0  0  0  0  0  0
   46.2191   23.4297   35.8635 H   0  0  0  0  0  0  0  0  0  0  0  0
   46.6773   24.9253   35.6791 H   0  0  0  0  0  0  0  0  0  0  0  0
   45.7770   23.8138   38.6023 H   0  0  0  0  0  0  0  0  0  0  0  0
   45.8482   27.1713   39.8292 H   0  0  0  0  0  0  0  0  0  0  0  0
   39.1104   22.4943   39.3136 H   0  0  0  0  0  0  0  0  0  0  0  0
   37.5001   24.4033   39.5590 H   0  0  0  0  0  0  0  0  0  0  0  0
   37.0439   25.8384   35.0903 H   0  0  0  0  0  0  0  0  0  0  0  0
   38.6149   25.5603   34.3320 H   0  0  0  0  0  0  0  0  0  0  0  0
   38.5924   27.1705   36.9059 H   0  0  0  0  0  0  0  0  0  0  0  0
   39.6155   27.3812   35.4446 H   0  0  0  0  0  0  0  0  0  0  0  0
   37.9177   27.9680   35.4446 H   0  0  0  0  0  0  0  0  0  0  0  0
  1  5  1  0
  1 12  1  0
  2  1  2  0
  3  2  1  0
  3  4  1  0
  4  6  1  0
  4  5  2  0
  6  8  1  0
  7  6  1  0
  7  8  1  0
  8  9  1  0
  9 11  1  0
 10  9  2  0
 12 13  1  0
 13 14  2  0
 14 15  1  0
 16 15  2  0
 17 16  1  0
 18 17  2  0
 18 13  1  0
 19 20  1  0
 19 17  1  0
  2 21  1  0
  6 22  1  6
  7 23  1  0
  7 24  1  0
  8 25  1  1
 11 26  1  0
 14 27  1  0
 15 28  1  0
 19 29  1  0
 19 30  1  0
 20 31  1  0
 20 32  1  0
 20 33  1  0
M  ISO  8  21  14  22  13  23  13  24  13  25  13  26   3  27  14  28  14
M  ISO  5  29   8  30   8  31   8  32   8  33   8
M  END
>  <minimizedAffinity>  (1) 
-5.05977964

>  <minimizedRMSD>  (1) 
0.612430036

$$$$
