
     RDKit          3D

 28 30  0  0  1  0  0  0  0  0999 V2000
   41.8750   22.1460   36.8050 C   0  0  0  0  0  0  0  0  0  0  0  0
   42.4840   21.1220   36.1320 C   0  0  0  0  0  0  0  0  0  0  0  0
   44.0800   21.8460   35.7290 S   0  0  0  0  0  0  0  0  0  0  0  0
   43.6530   23.5090   36.5770 C   0  0  0  0  0  0  0  0  0  0  0  0
   42.6150   23.2090   36.9070 N   0  0  0  0  0  0  0  0  0  0  0  0
   44.6320   24.6330   36.6090 C   0  0  2  0  0  0  0  0  0  0  0  0
   46.0420   24.3690   36.3360 C   0  0  0  0  0  0  0  0  0  0  0  0
   45.7360   24.4700   37.7450 C   0  0  1  0  0  0  0  0  0  0  0  0
   46.2120   25.7880   38.3270 C   0  0  0  0  0  0  0  0  0  0  0  0
   47.2480   26.3940   37.8140 O   0  0  0  0  0  0  0  0  0  0  0  0
   45.5560   26.3830   39.4110 O   0  0  0  0  0  0  0  0  0  0  0  0
   40.5760   21.8730   37.2620 O   0  0  0  0  0  0  0  0  0  0  0  0
   39.6230   22.8290   37.2030 C   0  0  0  0  0  0  0  0  0  0  0  0
   38.9930   23.2120   38.3910 C   0  0  0  0  0  0  0  0  0  0  0  0
   38.0140   24.1930   38.3340 C   0  0  0  0  0  0  0  0  0  0  0  0
   37.6970   24.7530   37.1260 N   0  0  0  0  0  0  0  0  0  0  0  0
   38.3490   24.3370   35.9950 C   0  0  0  0  0  0  0  0  0  0  0  0
   39.2860   23.4080   36.0040 N   0  0  0  0  0  0  0  0  0  0  0  0
   37.9000   25.0110   34.8660 O   0  0  0  0  0  0  0  0  0  0  0  0
   42.0983   20.1186   35.8986 H   0  0  0  0  0  0  0  0  0  0  0  0
   43.9105   25.3795   36.2455 H   0  0  0  0  0  0  0  0  0  0  0  0
   46.3291   23.3905   35.9236 H   0  0  0  0  0  0  0  0  0  0  0  0
   46.7797   24.8833   35.7025 H   0  0  0  0  0  0  0  0  0  0  0  0
   45.8518   23.8483   38.6451 H   0  0  0  0  0  0  0  0  0  0  0  0
   45.8828   27.2434   39.7757 H   0  0  0  0  0  0  0  0  0  0  0  0
   39.2674   22.7460   39.3489 H   0  0  0  0  0  0  0  0  0  0  0  0
   37.4980   24.5174   39.2497 H   0  0  0  0  0  0  0  0  0  0  0  0
   37.1904   25.6964   34.9482 H   0  0  0  0  0  0  0  0  0  0  0  0
  1  5  1  0
  1 12  1  0
  2  1  2  0
  3  2  1  0
  3  4  1  0
  4  6  1  0
  4  5  2  0
  6  8  1  0
  7  6  1  0
  7  8  1  0
  8  9  1  0
  9 11  1  0
 10  9  2  0
 13 12  1  0
 13 14  2  0
 15 14  1  0
 16 15  2  0
 17 18  2  0
 17 16  1  0
 18 13  1  0
 19 17  1  0
  2 20  1  0
  6 21  1  6
  7 22  1  0
  7 23  1  0
  8 24  1  1
 11 25  1  0
 14 26  1  0
 15 27  1  0
 19 28  1  0
M  ISO  8  20  14  21  13  22  13  23  13  24  13  25   3  26  14  27  14
M  ISO  1  28   3
M  END
>  <minimizedAffinity>  (1) 
-4.75742626

>  <minimizedRMSD>  (1) 
0.143360406

$$$$
