
     RDKit          3D

 44 48  0  0  1  0  0  0  0  0999 V2000
   39.5180   22.9590   37.1990 C   0  0  0  0  0  0  0  0  0  0  0  0
   39.0090   23.3020   38.4600 C   0  0  0  0  0  0  0  0  0  0  0  0
   38.0950   24.3440   38.5310 C   0  0  0  0  0  0  0  0  0  0  0  0
   37.7280   24.9890   37.4170 N   0  0  0  0  0  0  0  0  0  0  0  0
   38.2560   24.6190   36.1870 C   0  0  0  0  0  0  0  0  0  0  0  0
   39.1300   23.6260   36.0950 N   0  0  0  0  0  0  0  0  0  0  0  0
   37.8300   25.3410   35.0560 N   0  0  0  0  0  0  0  0  0  0  0  0
   37.3910   26.5930   35.3450 C   0  0  0  0  0  0  0  0  0  0  0  0
   36.9890   27.1830   34.1380 C   0  0  0  0  0  0  0  0  0  0  0  0
   37.1970   26.2760   33.1720 N   0  0  0  0  0  0  0  0  0  0  0  0
   37.7070   25.1600   33.7270 C   0  0  0  0  0  0  0  0  0  0  0  0
   38.1220   23.8930   33.2260 N   0  0  0  0  0  0  0  0  0  0  0  0
   38.5790   23.0460   34.1840 C   0  0  0  0  0  0  0  0  0  0  0  0
   39.0210   21.7820   33.8810 C   0  0  0  0  0  0  0  0  0  0  0  0
   38.9900   21.3760   32.5450 C   0  0  0  0  0  0  0  0  0  0  0  0
   39.3790   20.2220   32.1660 O   0  0  0  0  0  0  0  0  0  0  0  0
   38.5290   22.2460   31.6270 N   0  0  0  0  0  0  0  0  0  0  0  0
   38.1010   23.4820   31.9450 C   0  0  0  0  0  0  0  0  0  0  0  0
   37.6650   24.3170   31.1110 O   0  0  0  0  0  0  0  0  0  0  0  0
   40.4030   21.9470   37.1330 O   0  0  0  0  0  0  0  0  0  0  0  0
   41.7270   22.1920   36.7430 C   0  0  0  0  0  0  0  0  0  0  0  0
   42.3630   21.1270   36.1570 C   0  0  0  0  0  0  0  0  0  0  0  0
   43.9840   21.8280   35.8160 S   0  0  0  0  0  0  0  0  0  0  0  0
   43.5220   23.5310   36.5540 C   0  0  0  0  0  0  0  0  0  0  0  0
   42.4610   23.2700   36.8450 N   0  0  0  0  0  0  0  0  0  0  0  0
   44.5280   24.6470   36.5800 C   0  0  2  0  0  0  0  0  0  0  0  0
   45.9200   24.3470   36.3420 C   0  0  0  0  0  0  0  0  0  0  0  0
   45.6480   24.4250   37.7210 C   0  0  1  0  0  0  0  0  0  0  0  0
   46.1440   25.7420   38.3290 C   0  0  0  0  0  0  0  0  0  0  0  0
   47.1960   26.3590   37.7970 O   0  0  0  0  0  0  0  0  0  0  0  0
   45.4810   26.2930   39.4430 O   0  0  0  0  0  0  0  0  0  0  0  0
   39.3244   22.7618   39.3648 H   0  0  0  0  0  0  0  0  0  0  0  0
   37.6723   24.6397   39.5025 H   0  0  0  0  0  0  0  0  0  0  0  0
   37.3570   27.0582   36.3412 H   0  0  0  0  0  0  0  0  0  0  0  0
   36.5810   28.1962   34.0082 H   0  0  0  0  0  0  0  0  0  0  0  0
   38.5955   23.3818   35.2314 H   0  0  0  0  0  0  0  0  0  0  0  0
   39.3892   21.1079   34.6684 H   0  0  0  0  0  0  0  0  0  0  0  0
   38.5027   21.9536   30.6397 H   0  0  0  0  0  0  0  0  0  0  0  0
   41.9833   20.1154   35.9509 H   0  0  0  0  0  0  0  0  0  0  0  0
   43.8313   25.4137   36.2102 H   0  0  0  0  0  0  0  0  0  0  0  0
   46.1787   23.3673   35.9140 H   0  0  0  0  0  0  0  0  0  0  0  0
   46.6731   24.8594   35.7252 H   0  0  0  0  0  0  0  0  0  0  0  0
   45.7693   23.7806   38.6042 H   0  0  0  0  0  0  0  0  0  0  0  0
   45.7992   27.1434   39.8377 H   0  0  0  0  0  0  0  0  0  0  0  0
  1  2  2  0
  2  3  1  0
  4  3  2  0
  5  4  1  0
  6  5  2  0
  6  1  1  0
  7  8  1  0
  7  5  1  0
  9  8  2  0
 10 11  2  0
 10  9  1  0
 11  7  1  0
 12 11  1  0
 12 13  1  0
 14 13  2  0
 15 14  1  0
 16 15  2  0
 17 18  1  0
 17 15  1  0
 18 12  1  0
 19 18  2  0
 20  1  1  0
 21 25  1  0
 21 20  1  0
 22 21  2  0
 23 22  1  0
 23 24  1  0
 24 26  1  0
 24 25  2  0
 26 28  1  0
 27 26  1  0
 27 28  1  0
 28 29  1  0
 29 31  1  0
 30 29  2  0
  2 32  1  0
  3 33  1  0
  8 34  1  0
  9 35  1  0
 13 36  1  0
 14 37  1  0
 17 38  1  0
 22 39  1  0
 26 40  1  6
 27 41  1  0
 27 42  1  0
 28 43  1  1
 31 44  1  0
M  ISO  8  32  14  33  14  34  14  35  14  36  14  37  14  38   9  39  14
M  ISO  5  40  13  41  13  42  13  43  13  44   3
M  END
>  <minimizedAffinity>  (1) 
-6.65797997

>  <minimizedRMSD>  (1) 
0.319084078

$$$$
