
     RDKit          3D

 48 52  0  0  1  0  0  0  0  0999 V2000
   39.5280   22.9250   37.1900 C   0  0  0  0  0  0  0  0  0  0  0  0
   38.9950   23.2520   38.4480 C   0  0  0  0  0  0  0  0  0  0  0  0
   38.0720   24.2810   38.5030 C   0  0  0  0  0  0  0  0  0  0  0  0
   37.7160   24.9270   37.3880 N   0  0  0  0  0  0  0  0  0  0  0  0
   38.2610   24.5790   36.1650 C   0  0  0  0  0  0  0  0  0  0  0  0
   39.1510   23.5940   36.0770 N   0  0  0  0  0  0  0  0  0  0  0  0
   37.8480   25.3120   35.0390 N   0  0  0  0  0  0  0  0  0  0  0  0
   37.3930   26.5440   35.3250 C   0  0  0  0  0  0  0  0  0  0  0  0
   37.0020   27.1480   34.1110 C   0  0  0  0  0  0  0  0  0  0  0  0
   37.2370   26.2570   33.1490 N   0  0  0  0  0  0  0  0  0  0  0  0
   37.7510   25.1420   33.6990 C   0  0  0  0  0  0  0  0  0  0  0  0
   38.2100   23.8990   33.1800 N   0  0  0  0  0  0  0  0  0  0  0  0
   37.2340   23.4930   32.1800 C   0  0  0  0  0  0  0  0  0  0  0  0
   37.8070   22.3450   31.3910 C   0  0  0  0  0  0  0  0  0  0  0  0
   38.1690   21.2110   32.2240 N   0  0  0  0  0  0  0  0  0  0  0  0
   38.9200   21.5630   33.3910 C   0  0  0  0  0  0  0  0  0  0  0  0
   39.3280   23.0320   33.3940 C   0  0  0  0  0  0  0  0  0  0  0  0
   40.4280   21.9220   37.1270 O   0  0  0  0  0  0  0  0  0  0  0  0
   41.7510   22.1820   36.7260 C   0  0  0  0  0  0  0  0  0  0  0  0
   42.4000   21.1320   36.1140 C   0  0  0  0  0  0  0  0  0  0  0  0
   44.0000   21.8610   35.7740 S   0  0  0  0  0  0  0  0  0  0  0  0
   43.5340   23.5340   36.5380 C   0  0  0  0  0  0  0  0  0  0  0  0
   42.4740   23.2670   36.8390 N   0  0  0  0  0  0  0  0  0  0  0  0
   44.5190   24.6790   36.5810 C   0  0  2  0  0  0  0  0  0  0  0  0
   45.9150   24.3920   36.3140 C   0  0  0  0  0  0  0  0  0  0  0  0
   45.6630   24.4310   37.7020 C   0  0  1  0  0  0  0  0  0  0  0  0
   46.1520   25.7430   38.3330 C   0  0  0  0  0  0  0  0  0  0  0  0
   47.2040   26.3720   37.8140 O   0  0  0  0  0  0  0  0  0  0  0  0
   45.4860   26.2760   39.4490 O   0  0  0  0  0  0  0  0  0  0  0  0
   39.3002   22.7101   39.3553 H   0  0  0  0  0  0  0  0  0  0  0  0
   37.6293   24.5688   39.4680 H   0  0  0  0  0  0  0  0  0  0  0  0
   37.3358   26.9992   36.3248 H   0  0  0  0  0  0  0  0  0  0  0  0
   36.5845   28.1577   33.9839 H   0  0  0  0  0  0  0  0  0  0  0  0
   36.3050   23.1752   32.6759 H   0  0  0  0  0  0  0  0  0  0  0  0
   37.0086   24.3355   31.5097 H   0  0  0  0  0  0  0  0  0  0  0  0
   37.0577   22.0156   30.6561 H   0  0  0  0  0  0  0  0  0  0  0  0
   38.7262   22.7046   30.9055 H   0  0  0  0  0  0  0  0  0  0  0  0
   37.3035   20.7408   32.5252 H   0  0  0  0  0  0  0  0  0  0  0  0
   38.3047   21.3648   34.2810 H   0  0  0  0  0  0  0  0  0  0  0  0
   39.8387   20.9581   33.3956 H   0  0  0  0  0  0  0  0  0  0  0  0
   40.0643   23.1978   32.5938 H   0  0  0  0  0  0  0  0  0  0  0  0
   39.7542   23.2643   34.3811 H   0  0  0  0  0  0  0  0  0  0  0  0
   42.0338   20.1184   35.8935 H   0  0  0  0  0  0  0  0  0  0  0  0
   43.8106   25.4515   36.2472 H   0  0  0  0  0  0  0  0  0  0  0  0
   46.1723   23.4257   35.8557 H   0  0  0  0  0  0  0  0  0  0  0  0
   46.6561   24.9253   35.7006 H   0  0  0  0  0  0  0  0  0  0  0  0
   45.8054   23.7629   38.5642 H   0  0  0  0  0  0  0  0  0  0  0  0
   45.8009   27.1217   39.8561 H   0  0  0  0  0  0  0  0  0  0  0  0
  1  2  2  0
  2  3  1  0
  4  3  2  0
  5  4  1  0
  6  5  2  0
  6  1  1  0
  7  8  1  0
  7  5  1  0
  9  8  2  0
 10 11  2  0
 10  9  1  0
 11  7  1  0
 12 17  1  0
 12 11  1  0
 13 12  1  0
 14 13  1  0
 14 15  1  0
 15 16  1  0
 16 17  1  0
 18  1  1  0
 19 23  1  0
 19 18  1  0
 20 19  2  0
 21 20  1  0
 21 22  1  0
 22 24  1  0
 22 23  2  0
 24 26  1  0
 25 24  1  0
 25 26  1  0
 26 27  1  0
 27 29  1  0
 28 27  2  0
  2 30  1  0
  3 31  1  0
  8 32  1  0
  9 33  1  0
 13 34  1  0
 13 35  1  0
 14 36  1  0
 14 37  1  0
 15 38  1  0
 16 39  1  0
 16 40  1  0
 17 41  1  0
 17 42  1  0
 20 43  1  0
 24 44  1  1
 25 45  1  0
 25 46  1  0
 26 47  1  1
 29 48  1  0
M  ISO  8  30  14  31  14  32  14  33  14  34  13  35  13  36  13  37  13
M  ISO  8  38   5  39  13  40  13  41  13  42  13  43  14  44  13  45  13
M  ISO  3  46  13  47  13  48   3
M  END
>  <minimizedAffinity>  (1) 
-6.46048212

>  <minimizedRMSD>  (1) 
0.261166006

$$$$
