
     RDKit          3D

 46 50  0  0  1  0  0  0  0  0999 V2000
   39.5390   22.9160   37.2230 C   0  0  0  0  0  0  0  0  0  0  0  0
   38.9670   23.2470   38.4560 C   0  0  0  0  0  0  0  0  0  0  0  0
   38.0220   24.2620   38.4860 C   0  0  0  0  0  0  0  0  0  0  0  0
   37.6850   24.8930   37.3530 N   0  0  0  0  0  0  0  0  0  0  0  0
   38.2770   24.5380   36.1440 C   0  0  0  0  0  0  0  0  0  0  0  0
   39.1810   23.5680   36.0990 N   0  0  0  0  0  0  0  0  0  0  0  0
   37.8830   25.2470   34.9970 N   0  0  0  0  0  0  0  0  0  0  0  0
   37.4020   26.4830   35.2620 C   0  0  0  0  0  0  0  0  0  0  0  0
   37.0400   27.0770   34.0450 C   0  0  0  0  0  0  0  0  0  0  0  0
   37.3160   26.1780   33.0900 N   0  0  0  0  0  0  0  0  0  0  0  0
   37.8240   25.0800   33.6730 C   0  0  0  0  0  0  0  0  0  0  0  0
   38.2800   23.8570   33.1150 N   0  0  0  0  0  0  0  0  0  0  0  0
   37.3060   22.7940   32.8190 C   0  0  0  0  0  0  0  0  0  0  0  0
   37.8040   21.6130   33.6330 C   0  0  0  0  0  0  0  0  0  0  0  0
   39.2860   21.6950   33.2660 C   0  0  0  0  0  0  0  0  0  0  0  0
   39.4460   23.0920   32.6690 C   0  0  0  0  0  0  0  0  0  0  0  0
   40.4540   21.9290   37.1970 O   0  0  0  0  0  0  0  0  0  0  0  0
   41.7710   22.1880   36.7600 C   0  0  0  0  0  0  0  0  0  0  0  0
   42.3900   21.1530   36.1160 C   0  0  0  0  0  0  0  0  0  0  0  0
   43.9940   21.8770   35.7400 S   0  0  0  0  0  0  0  0  0  0  0  0
   43.5520   23.5410   36.5500 C   0  0  0  0  0  0  0  0  0  0  0  0
   42.4980   23.2710   36.8750 N   0  0  0  0  0  0  0  0  0  0  0  0
   44.5480   24.6680   36.5830 C   0  0  2  0  0  0  0  0  0  0  0  0
   45.9420   24.3730   36.3340 C   0  0  0  0  0  0  0  0  0  0  0  0
   45.6790   24.4340   37.7220 C   0  0  1  0  0  0  0  0  0  0  0  0
   46.1760   25.7590   38.3250 C   0  0  0  0  0  0  0  0  0  0  0  0
   47.2230   26.3820   37.8010 O   0  0  0  0  0  0  0  0  0  0  0  0
   45.5090   26.3110   39.4350 O   0  0  0  0  0  0  0  0  0  0  0  0
   39.2582   22.7176   39.3752 H   0  0  0  0  0  0  0  0  0  0  0  0
   37.5504   24.5482   39.4377 H   0  0  0  0  0  0  0  0  0  0  0  0
   37.3109   26.9416   36.2577 H   0  0  0  0  0  0  0  0  0  0  0  0
   36.6142   28.0811   33.9022 H   0  0  0  0  0  0  0  0  0  0  0  0
   36.2946   23.0896   33.1349 H   0  0  0  0  0  0  0  0  0  0  0  0
   37.2322   22.5704   31.7445 H   0  0  0  0  0  0  0  0  0  0  0  0
   37.6355   21.7520   34.7111 H   0  0  0  0  0  0  0  0  0  0  0  0
   37.3133   20.6501   33.4280 H   0  0  0  0  0  0  0  0  0  0  0  0
   39.9165   21.5778   34.1597 H   0  0  0  0  0  0  0  0  0  0  0  0
   39.5927   20.9008   32.5694 H   0  0  0  0  0  0  0  0  0  0  0  0
   39.4703   23.0378   31.5706 H   0  0  0  0  0  0  0  0  0  0  0  0
   40.3855   23.5636   32.9930 H   0  0  0  0  0  0  0  0  0  0  0  0
   42.0092   20.1464   35.8884 H   0  0  0  0  0  0  0  0  0  0  0  0
   43.8474   25.4376   36.2267 H   0  0  0  0  0  0  0  0  0  0  0  0
   46.1999   23.3989   35.8927 H   0  0  0  0  0  0  0  0  0  0  0  0
   46.6900   24.8947   35.7190 H   0  0  0  0  0  0  0  0  0  0  0  0
   45.8066   23.7812   38.5981 H   0  0  0  0  0  0  0  0  0  0  0  0
   45.8237   27.1635   39.8279 H   0  0  0  0  0  0  0  0  0  0  0  0
  1  2  2  0
  2  3  1  0
  4  3  2  0
  5  4  1  0
  6  5  2  0
  6  1  1  0
  7  8  1  0
  7  5  1  0
  9  8  2  0
 10 11  2  0
 10  9  1  0
 11  7  1  0
 12 11  1  0
 13 12  1  0
 13 14  1  0
 15 14  1  0
 16 12  1  0
 16 15  1  0
 17  1  1  0
 18 22  1  0
 18 17  1  0
 19 18  2  0
 20 19  1  0
 20 21  1  0
 21 23  1  0
 21 22  2  0
 23 25  1  0
 24 23  1  0
 24 25  1  0
 25 26  1  0
 26 28  1  0
 27 26  2  0
  2 29  1  0
  3 30  1  0
  8 31  1  0
  9 32  1  0
 13 33  1  0
 13 34  1  0
 14 35  1  0
 14 36  1  0
 15 37  1  0
 15 38  1  0
 16 39  1  0
 16 40  1  0
 19 41  1  0
 23 42  1  6
 24 43  1  0
 24 44  1  0
 25 45  1  1
 28 46  1  0
M  ISO  8  29  14  30  14  31  14  32  14  33  13  34  13  35  13  36  13
M  ISO  8  37  13  38  13  39  13  40  13  41  14  42  13  43  13  44  13
M  ISO  2  45  13  46   3
M  END
>  <minimizedAffinity>  (1) 
-6.37619638

>  <minimizedRMSD>  (1) 
0.166094467

$$$$
