
     RDKit          3D

 35 38  0  0  0  0  0  0  0  0999 V2000
   43.8920   23.3260   35.7020 S   0  0  0  0  0  0  0  0  0  0  0  0
   44.8590   24.2870   36.8760 C   0  0  0  0  0  0  0  0  0  0  0  0
   44.1750   25.1420   37.7360 C   0  0  0  0  0  0  0  0  0  0  0  0
   45.5630   25.8890   38.7260 S   0  0  0  0  0  0  0  0  0  0  0  0
   46.8290   24.8670   37.7520 C   0  0  0  0  0  0  0  0  0  0  0  0
   46.1370   24.3230   37.0700 N   0  0  0  0  0  0  0  0  0  0  0  0
   48.2680   24.8520   37.9090 N   0  0  0  0  0  0  0  0  0  0  0  0
   48.7240   23.8600   38.7000 C   0  0  0  0  0  0  0  0  0  0  0  0
   50.0980   23.9890   38.7430 C   0  0  0  0  0  0  0  0  0  0  0  0
   50.4010   25.0550   37.9750 N   0  0  0  0  0  0  0  0  0  0  0  0
   49.2840   25.5810   37.4670 C   0  0  0  0  0  0  0  0  0  0  0  0
   49.0500   26.7050   36.6000 C   0  0  0  0  0  0  0  0  0  0  0  0
   48.7930   26.5460   35.3870 O   0  0  0  0  0  0  0  0  0  0  0  0
   49.1210   27.9730   37.1610 O   0  0  0  0  0  0  0  0  0  0  0  0
   40.4690   22.4650   37.5600 C   0  0  0  0  0  0  0  0  0  0  0  0
   39.5330   23.2960   36.9390 C   0  0  0  0  0  0  0  0  0  0  0  0
   39.9910   24.1340   35.9250 C   0  0  0  0  0  0  0  0  0  0  0  0
   41.3190   24.1150   35.5790 N   0  0  0  0  0  0  0  0  0  0  0  0
   42.1850   23.2780   36.2250 C   0  0  0  0  0  0  0  0  0  0  0  0
   41.7400   22.4720   37.2010 N   0  0  0  0  0  0  0  0  0  0  0  0
   39.1270   25.0560   35.1890 C   0  0  0  0  0  0  0  0  0  0  0  0
   38.1740   24.9440   34.2410 N   0  0  0  0  0  0  0  0  0  0  0  0
   37.7380   26.1340   33.9560 O   0  0  0  0  0  0  0  0  0  0  0  0
   38.3590   27.0550   34.6730 C   0  0  0  0  0  0  0  0  0  0  0  0
   39.2130   26.3810   35.4310 N   0  0  0  0  0  0  0  0  0  0  0  0
   38.0970   23.3380   37.2930 C   0  0  0  0  0  0  0  0  0  0  0  0
   37.9860   22.7410   38.5520 F   0  0  0  0  0  0  0  0  0  0  0  0
   37.2920   22.7140   36.4110 F   0  0  0  0  0  0  0  0  0  0  0  0
   37.6870   24.6660   37.5380 F   0  0  0  0  0  0  0  0  0  0  0  0
   43.0934   25.3280   37.8110 H   0  0  0  0  0  0  0  0  0  0  0  0
   48.1193   23.0966   39.2114 H   0  0  0  0  0  0  0  0  0  0  0  0
   50.8041   23.3500   39.2936 H   0  0  0  0  0  0  0  0  0  0  0  0
   48.9663   28.7726   36.5982 H   0  0  0  0  0  0  0  0  0  0  0  0
   40.1404   21.7909   38.3647 H   0  0  0  0  0  0  0  0  0  0  0  0
   38.2015   28.1433   34.6465 H   0  0  0  0  0  0  0  0  0  0  0  0
  1 19  1  0
  1  2  1  0
  2  6  1  0
  2  3  2  0
  3  4  1  0
  5  7  1  0
  5  4  1  0
  6  5  2  0
  7  8  1  0
  8  9  2  0
 10  9  1  0
 11  7  1  0
 11 10  2  0
 12 14  1  0
 12 11  1  0
 13 12  2  0
 16 26  1  0
 16 15  2  0
 17 16  1  0
 18 17  2  0
 18 19  1  0
 19 20  2  0
 20 15  1  0
 21 25  1  0
 21 17  1  0
 22 21  2  0
 23 22  1  0
 23 24  1  0
 24 25  2  0
 26 29  1  0
 26 27  1  0
 28 26  1  0
  3 30  1  0
  8 31  1  0
  9 32  1  0
 14 33  1  0
 15 34  1  0
 24 35  1  0
M  ISO  6  30  14  31  14  32  14  33   3  34  14  35  14
M  END
>  <minimizedAffinity>  (1) 
-5.61019087

>  <minimizedRMSD>  (1) 
4.32893085

$$$$
