
     RDKit          3D

 46 49  0  0  1  0  0  0  0  0999 V2000
   39.5940   22.8700   37.2530 C   0  0  0  0  0  0  0  0  0  0  0  0
   39.0150   23.2240   38.4770 C   0  0  0  0  0  0  0  0  0  0  0  0
   38.0560   24.2240   38.4770 C   0  0  0  0  0  0  0  0  0  0  0  0
   37.7160   24.8150   37.3270 N   0  0  0  0  0  0  0  0  0  0  0  0
   38.3120   24.4410   36.1270 C   0  0  0  0  0  0  0  0  0  0  0  0
   39.2240   23.4920   36.1190 N   0  0  0  0  0  0  0  0  0  0  0  0
   37.9010   25.1180   34.9660 N   0  0  0  0  0  0  0  0  0  0  0  0
   37.4090   26.3620   35.2030 C   0  0  0  0  0  0  0  0  0  0  0  0
   37.0260   26.9070   33.9630 C   0  0  0  0  0  0  0  0  0  0  0  0
   37.3030   25.9730   33.0400 N   0  0  0  0  0  0  0  0  0  0  0  0
   37.8290   24.8980   33.6450 C   0  0  0  0  0  0  0  0  0  0  0  0
   38.3180   23.5810   33.1020 C   0  0  0  0  0  0  0  0  0  0  0  0
   39.8370   23.6400   33.3360 C   0  0  0  0  0  0  0  0  0  0  0  0
   38.1050   23.4380   31.6300 C   0  0  0  0  0  0  0  0  0  0  0  0
   37.8400   22.4130   33.9240 C   0  0  0  0  0  0  0  0  0  0  0  0
   40.5240   21.8990   37.2520 O   0  0  0  0  0  0  0  0  0  0  0  0
   41.8260   22.1650   36.7970 C   0  0  0  0  0  0  0  0  0  0  0  0
   42.4360   21.1310   36.1390 C   0  0  0  0  0  0  0  0  0  0  0  0
   44.0290   21.8590   35.7380 S   0  0  0  0  0  0  0  0  0  0  0  0
   43.6060   23.5200   36.5560 C   0  0  0  0  0  0  0  0  0  0  0  0
   42.5570   23.2450   36.9000 N   0  0  0  0  0  0  0  0  0  0  0  0
   44.5960   24.6570   36.5760 C   0  0  2  0  0  0  0  0  0  0  0  0
   45.9930   24.3580   36.3470 C   0  0  0  0  0  0  0  0  0  0  0  0
   45.7150   24.4420   37.7290 C   0  0  1  0  0  0  0  0  0  0  0  0
   46.2030   25.7730   38.3210 C   0  0  0  0  0  0  0  0  0  0  0  0
   47.2500   26.3940   37.7880 O   0  0  0  0  0  0  0  0  0  0  0  0
   45.5280   26.3320   39.4260 O   0  0  0  0  0  0  0  0  0  0  0  0
   39.3122   22.7236   39.4104 H   0  0  0  0  0  0  0  0  0  0  0  0
   37.5767   24.5302   39.4186 H   0  0  0  0  0  0  0  0  0  0  0  0
   37.3253   26.8531   36.1837 H   0  0  0  0  0  0  0  0  0  0  0  0
   36.5873   27.9001   33.7859 H   0  0  0  0  0  0  0  0  0  0  0  0
   40.0415   23.6479   34.4168 H   0  0  0  0  0  0  0  0  0  0  0  0
   40.3128   22.7597   32.8793 H   0  0  0  0  0  0  0  0  0  0  0  0
   40.2431   24.5546   32.8793 H   0  0  0  0  0  0  0  0  0  0  0  0
   37.2045   22.8334   31.4468 H   0  0  0  0  0  0  0  0  0  0  0  0
   37.9762   24.4333   31.1797 H   0  0  0  0  0  0  0  0  0  0  0  0
   38.9775   22.9420   31.1797 H   0  0  0  0  0  0  0  0  0  0  0  0
   37.9380   22.6525   34.9931 H   0  0  0  0  0  0  0  0  0  0  0  0
   36.7852   22.2069   33.6896 H   0  0  0  0  0  0  0  0  0  0  0  0
   38.4477   21.5265   33.6896 H   0  0  0  0  0  0  0  0  0  0  0  0
   42.0534   20.1242   35.9156 H   0  0  0  0  0  0  0  0  0  0  0  0
   43.8988   25.4199   36.1994 H   0  0  0  0  0  0  0  0  0  0  0  0
   46.2556   23.3768   35.9249 H   0  0  0  0  0  0  0  0  0  0  0  0
   46.7477   24.8695   35.7316 H   0  0  0  0  0  0  0  0  0  0  0  0
   45.8346   23.8030   38.6163 H   0  0  0  0  0  0  0  0  0  0  0  0
   45.8369   27.1894   39.8127 H   0  0  0  0  0  0  0  0  0  0  0  0
  1  2  2  0
  2  3  1  0
  4  3  2  0
  5  4  1  0
  6  5  2  0
  6  1  1  0
  7  8  1  0
  7  5  1  0
  9  8  2  0
 10 11  2  0
 10  9  1  0
 11  7  1  0
 12 13  1  0
 12 11  1  0
 12 15  1  0
 14 12  1  0
 16  1  1  0
 17 21  1  0
 17 16  1  0
 18 17  2  0
 19 18  1  0
 19 20  1  0
 20 22  1  0
 20 21  2  0
 22 24  1  0
 23 22  1  0
 23 24  1  0
 24 25  1  0
 25 27  1  0
 26 25  2  0
  2 28  1  0
  3 29  1  0
  8 30  1  0
  9 31  1  0
 13 32  1  0
 13 33  1  0
 13 34  1  0
 14 35  1  0
 14 36  1  0
 14 37  1  0
 15 38  1  0
 15 39  1  0
 15 40  1  0
 18 41  1  0
 22 42  1  6
 23 43  1  0
 23 44  1  0
 24 45  1  1
 27 46  1  0
M  ISO  8  28  14  29  14  30  14  31  14  32   8  33   8  34   8  35   8
M  ISO  8  36   8  37   8  38   8  39   8  40   8  41  14  42  13  43  13
M  ISO  3  44  13  45  13  46   3
M  END
>  <minimizedAffinity>  (1) 
-5.92394161

>  <minimizedRMSD>  (1) 
0.208113834

$$$$
