
     RDKit          3D

 43 46  0  0  1  0  0  0  0  0999 V2000
   40.4910   21.9060   37.2000 O   0  0  0  0  0  0  0  0  0  0  0  0
   39.5710   22.8890   37.2250 C   0  0  0  0  0  0  0  0  0  0  0  0
   39.0050   23.2220   38.4580 C   0  0  0  0  0  0  0  0  0  0  0  0
   38.0550   24.2340   38.4860 C   0  0  0  0  0  0  0  0  0  0  0  0
   37.7110   24.8590   37.3490 N   0  0  0  0  0  0  0  0  0  0  0  0
   38.3010   24.4990   36.1390 C   0  0  0  0  0  0  0  0  0  0  0  0
   39.2030   23.5370   36.1030 N   0  0  0  0  0  0  0  0  0  0  0  0
   37.9000   25.2060   34.9940 N   0  0  0  0  0  0  0  0  0  0  0  0
   37.4100   26.4430   35.2630 C   0  0  0  0  0  0  0  0  0  0  0  0
   37.0320   27.0200   34.0340 C   0  0  0  0  0  0  0  0  0  0  0  0
   37.3100   26.1070   33.0770 N   0  0  0  0  0  0  0  0  0  0  0  0
   37.8320   25.0220   33.6730 C   0  0  0  0  0  0  0  0  0  0  0  0
   38.3050   23.7430   33.0920 C   0  0  0  0  0  0  0  0  0  0  0  0
   37.1500   23.2140   32.2430 C   0  0  0  0  0  0  0  0  0  0  0  0
   39.4590   23.9430   32.1340 C   0  0  0  0  0  0  0  0  0  0  0  0
   41.8000   22.1750   36.7700 C   0  0  0  0  0  0  0  0  0  0  0  0
   42.4290   21.1370   36.1330 C   0  0  0  0  0  0  0  0  0  0  0  0
   44.0270   21.8670   35.7580 S   0  0  0  0  0  0  0  0  0  0  0  0
   43.5800   23.5350   36.5540 C   0  0  0  0  0  0  0  0  0  0  0  0
   42.5240   23.2610   36.8800 N   0  0  0  0  0  0  0  0  0  0  0  0
   44.5650   24.6730   36.5830 C   0  0  2  0  0  0  0  0  0  0  0  0
   45.9620   24.3820   36.3310 C   0  0  0  0  0  0  0  0  0  0  0  0
   45.7020   24.4440   37.7150 C   0  0  1  0  0  0  0  0  0  0  0  0
   46.1900   25.7660   38.3240 C   0  0  0  0  0  0  0  0  0  0  0  0
   47.2400   26.3890   37.7990 O   0  0  0  0  0  0  0  0  0  0  0  0
   45.5170   26.3170   39.4330 O   0  0  0  0  0  0  0  0  0  0  0  0
   39.3029   22.6985   39.3784 H   0  0  0  0  0  0  0  0  0  0  0  0
   37.5853   24.5230   39.4378 H   0  0  0  0  0  0  0  0  0  0  0  0
   37.3239   26.9086   36.2559 H   0  0  0  0  0  0  0  0  0  0  0  0
   36.5959   28.0185   33.8831 H   0  0  0  0  0  0  0  0  0  0  0  0
   38.6249   23.0785   33.9081 H   0  0  0  0  0  0  0  0  0  0  0  0
   36.3489   22.8471   32.9015 H   0  0  0  0  0  0  0  0  0  0  0  0
   36.7608   24.0236   31.6081 H   0  0  0  0  0  0  0  0  0  0  0  0
   37.5088   22.3905   31.6081 H   0  0  0  0  0  0  0  0  0  0  0  0
   40.3856   24.1036   32.7046 H   0  0  0  0  0  0  0  0  0  0  0  0
   39.5685   23.0504   31.5005 H   0  0  0  0  0  0  0  0  0  0  0  0
   39.2618   24.8204   31.5005 H   0  0  0  0  0  0  0  0  0  0  0  0
   42.0551   20.1267   35.9107 H   0  0  0  0  0  0  0  0  0  0  0  0
   43.8592   25.4394   36.2303 H   0  0  0  0  0  0  0  0  0  0  0  0
   46.2224   23.4082   35.8907 H   0  0  0  0  0  0  0  0  0  0  0  0
   46.7070   24.9053   35.7137 H   0  0  0  0  0  0  0  0  0  0  0  0
   45.8377   23.7909   38.5897 H   0  0  0  0  0  0  0  0  0  0  0  0
   45.8292   27.1694   39.8280 H   0  0  0  0  0  0  0  0  0  0  0  0
  1  2  1  0
  2  3  2  0
  3  4  1  0
  5  4  2  0
  6  5  1  0
  7  6  2  0
  7  2  1  0
  8  9  1  0
  8  6  1  0
 10  9  2  0
 11 12  2  0
 11 10  1  0
 12  8  1  0
 13 12  1  0
 14 13  1  0
 15 13  1  0
 16 20  1  0
 16  1  1  0
 17 16  2  0
 18 17  1  0
 18 19  1  0
 19 21  1  0
 19 20  2  0
 21 23  1  0
 22 21  1  0
 22 23  1  0
 23 24  1  0
 24 26  1  0
 25 24  2  0
  3 27  1  0
  4 28  1  0
  9 29  1  0
 10 30  1  0
 13 31  1  0
 14 32  1  0
 14 33  1  0
 14 34  1  0
 15 35  1  0
 15 36  1  0
 15 37  1  0
 17 38  1  0
 21 39  1  6
 22 40  1  0
 22 41  1  0
 23 42  1  1
 26 43  1  0
M  ISO  8  27  14  28  14  29  14  30  14  31   8  32   8  33   8  34   8
M  ISO  8  35   8  36   8  37   8  38  14  39  13  40  13  41  13  42  13
M  ISO  1  43   3
M  END
>  <minimizedAffinity>  (1) 
-5.78032398

>  <minimizedRMSD>  (1) 
0.13603434

$$$$
