
     RDKit          3D

 40 43  0  0  1  0  0  0  0  0999 V2000
   40.5420   21.8910   37.2240 O   0  0  0  0  0  0  0  0  0  0  0  0
   39.6040   22.8570   37.2100 C   0  0  0  0  0  0  0  0  0  0  0  0
   39.0010   23.1970   38.4290 C   0  0  0  0  0  0  0  0  0  0  0  0
   38.0330   24.1920   38.4190 C   0  0  0  0  0  0  0  0  0  0  0  0
   37.7090   24.7890   37.2640 N   0  0  0  0  0  0  0  0  0  0  0  0
   38.3280   24.4270   36.0800 C   0  0  0  0  0  0  0  0  0  0  0  0
   39.2590   23.4780   36.0510 N   0  0  0  0  0  0  0  0  0  0  0  0
   37.9390   25.1060   34.9120 N   0  0  0  0  0  0  0  0  0  0  0  0
   37.4270   26.3420   35.1450 C   0  0  0  0  0  0  0  0  0  0  0  0
   37.0650   26.8890   33.9000 C   0  0  0  0  0  0  0  0  0  0  0  0
   37.3690   25.9700   32.9670 N   0  0  0  0  0  0  0  0  0  0  0  0
   37.8960   24.8980   33.5800 C   0  0  0  0  0  0  0  0  0  0  0  0
   38.3960   23.6250   33.0620 C   0  0  0  0  0  0  0  0  0  0  0  0
   37.2170   22.7040   32.7880 C   0  0  0  0  0  0  0  0  0  0  0  0
   41.8440   22.1650   36.7770 C   0  0  0  0  0  0  0  0  0  0  0  0
   42.4630   21.1370   36.1220 C   0  0  0  0  0  0  0  0  0  0  0  0
   44.0550   21.8700   35.7300 S   0  0  0  0  0  0  0  0  0  0  0  0
   43.6180   23.5290   36.5500 C   0  0  0  0  0  0  0  0  0  0  0  0
   42.5710   23.2460   36.8840 N   0  0  0  0  0  0  0  0  0  0  0  0
   44.6070   24.6650   36.5750 C   0  0  2  0  0  0  0  0  0  0  0  0
   46.0040   24.3730   36.3440 C   0  0  0  0  0  0  0  0  0  0  0  0
   45.7270   24.4500   37.7270 C   0  0  1  0  0  0  0  0  0  0  0  0
   46.2120   25.7790   38.3230 C   0  0  0  0  0  0  0  0  0  0  0  0
   47.2640   26.4010   37.7970 O   0  0  0  0  0  0  0  0  0  0  0  0
   45.5320   26.3380   39.4250 O   0  0  0  0  0  0  0  0  0  0  0  0
   39.2858   22.6915   39.3636 H   0  0  0  0  0  0  0  0  0  0  0  0
   37.5349   24.4886   39.3538 H   0  0  0  0  0  0  0  0  0  0  0  0
   37.3157   26.8264   36.1263 H   0  0  0  0  0  0  0  0  0  0  0  0
   36.6188   27.8789   33.7239 H   0  0  0  0  0  0  0  0  0  0  0  0
   38.9522   23.7995   32.1291 H   0  0  0  0  0  0  0  0  0  0  0  0
   39.0661   23.1609   33.8007 H   0  0  0  0  0  0  0  0  0  0  0  0
   36.7855   22.3670   33.7421 H   0  0  0  0  0  0  0  0  0  0  0  0
   36.4535   23.2473   32.2119 H   0  0  0  0  0  0  0  0  0  0  0  0
   37.5593   21.8317   32.2119 H   0  0  0  0  0  0  0  0  0  0  0  0
   42.0861   20.1288   35.8953 H   0  0  0  0  0  0  0  0  0  0  0  0
   43.9069   25.4267   36.2012 H   0  0  0  0  0  0  0  0  0  0  0  0
   46.2704   23.3946   35.9175 H   0  0  0  0  0  0  0  0  0  0  0  0
   46.7561   24.8903   35.7301 H   0  0  0  0  0  0  0  0  0  0  0  0
   45.8486   23.8082   38.6120 H   0  0  0  0  0  0  0  0  0  0  0  0
   45.8399   27.1948   39.8139 H   0  0  0  0  0  0  0  0  0  0  0  0
  2  1  1  0
  2  3  2  0
  4  3  1  0
  5  4  2  0
  6  5  1  0
  7  6  2  0
  7  2  1  0
  8  9  1  0
  8  6  1  0
 10  9  2  0
 11 12  2  0
 11 10  1  0
 12  8  1  0
 13 12  1  0
 14 13  1  0
 15 19  1  0
 15  1  1  0
 16 15  2  0
 17 16  1  0
 17 18  1  0
 18 20  1  0
 18 19  2  0
 20 22  1  0
 21 20  1  0
 21 22  1  0
 22 23  1  0
 23 25  1  0
 24 23  2  0
  3 26  1  0
  4 27  1  0
  9 28  1  0
 10 29  1  0
 13 30  1  0
 13 31  1  0
 14 32  1  0
 14 33  1  0
 14 34  1  0
 16 35  1  0
 20 36  1  6
 21 37  1  0
 21 38  1  0
 22 39  1  1
 25 40  1  0
M  ISO  8  26  14  27  14  28  14  29  14  30   8  31   8  32   8  33   8
M  ISO  7  34   8  35  14  36  13  37  13  38  13  39  13  40   3
M  END
>  <minimizedAffinity>  (1) 
-5.6821456

>  <minimizedRMSD>  (1) 
0.0320063569

$$$$
