
     RDKit          3D

 27 29  0  0  0  0  0  0  0  0999 V2000
   40.7280   22.3650   36.0030 C   0  0  0  0  0  0  0  0  0  0  0  0
   40.1950   22.7750   37.2520 C   0  0  0  0  0  0  0  0  0  0  0  0
   38.8480   23.1640   37.2460 C   0  0  0  0  0  0  0  0  0  0  0  0
   38.1440   23.1300   36.0860 N   0  0  0  0  0  0  0  0  0  0  0  0
   38.7030   22.7280   34.9110 C   0  0  0  0  0  0  0  0  0  0  0  0
   39.9840   22.3510   34.8800 N   0  0  0  0  0  0  0  0  0  0  0  0
   42.1270   21.9550   35.9800 C   0  0  0  0  0  0  0  0  0  0  0  0
   42.6630   20.6960   35.7970 C   0  0  0  0  0  0  0  0  0  0  0  0
   44.0060   20.7150   35.8390 N   0  0  0  0  0  0  0  0  0  0  0  0
   44.3470   22.0110   36.0540 C   0  0  0  0  0  0  0  0  0  0  0  0
   45.6060   22.6070   36.1850 C   0  0  0  0  0  0  0  0  0  0  0  0
   45.7350   23.9780   36.4050 C   0  0  0  0  0  0  0  0  0  0  0  0
   44.5690   24.7110   36.4860 C   0  0  0  0  0  0  0  0  0  0  0  0
   43.3150   24.1480   36.3600 C   0  0  0  0  0  0  0  0  0  0  0  0
   43.2020   22.8010   36.1440 C   0  0  0  0  0  0  0  0  0  0  0  0
   38.3160   23.5830   38.5460 C   0  0  0  0  0  0  0  0  0  0  0  0
   37.8470   24.8850   38.4520 F   0  0  0  0  0  0  0  0  0  0  0  0
   39.3830   23.6530   39.4120 F   0  0  0  0  0  0  0  0  0  0  0  0
   37.3100   22.7910   39.0130 F   0  0  0  0  0  0  0  0  0  0  0  0
   40.8016   22.7870   38.1695 H   0  0  0  0  0  0  0  0  0  0  0  0
   38.1013   22.7138   33.9902 H   0  0  0  0  0  0  0  0  0  0  0  0
   42.0636   19.7877   35.6363 H   0  0  0  0  0  0  0  0  0  0  0  0
   44.6436   19.9133   35.7306 H   0  0  0  0  0  0  0  0  0  0  0  0
   46.5094   21.9836   36.1132 H   0  0  0  0  0  0  0  0  0  0  0  0
   46.7215   24.4534   36.5092 H   0  0  0  0  0  0  0  0  0  0  0  0
   44.6421   25.7948   36.6591 H   0  0  0  0  0  0  0  0  0  0  0  0
   42.4148   24.7760   36.4325 H   0  0  0  0  0  0  0  0  0  0  0  0
  1  2  2  0
  3  2  1  0
  3 16  1  0
  4  3  2  0
  5  4  1  0
  6  5  2  0
  6  1  1  0
  7  1  1  0
  7 15  1  0
  8  9  1  0
  8  7  2  0
  9 10  1  0
 10 15  2  0
 10 11  1  0
 11 12  2  0
 12 13  1  0
 14 13  2  0
 15 14  1  0
 16 19  1  0
 16 18  1  0
 17 16  1  0
  2 20  1  0
  5 21  1  0
  8 22  1  0
  9 23  1  0
 11 24  1  0
 12 25  1  0
 13 26  1  0
 14 27  1  0
M  ISO  8  20  14  21  14  22  14  23   9  24  14  25  14  26  14  27  14
M  END
>  <minimizedAffinity>  (1) 
-5.23581314

>  <minimizedRMSD>  (1) 
1.15843427

$$$$
