
     RDKit          3D

 24 26  0  0  0  0  0  0  0  0999 V2000
   38.5930   22.9950   35.5250 C   0  0  0  0  0  0  0  0  0  0  0  0
   39.8550   22.3760   35.6770 C   0  0  0  0  0  0  0  0  0  0  0  0
   40.3860   22.3210   36.9850 C   0  0  0  0  0  0  0  0  0  0  0  0
   39.6780   22.8510   38.0000 N   0  0  0  0  0  0  0  0  0  0  0  0
   38.4710   23.4350   37.8110 C   0  0  0  0  0  0  0  0  0  0  0  0
   37.9370   23.5060   36.5910 N   0  0  0  0  0  0  0  0  0  0  0  0
   38.0030   23.0820   34.2290 N   0  0  0  0  0  0  0  0  0  0  0  0
   38.1670   23.9070   33.1930 C   0  0  0  0  0  0  0  0  0  0  0  0
   37.3320   23.5240   32.1990 N   0  0  0  0  0  0  0  0  0  0  0  0
   36.6470   22.4470   32.6310 C   0  0  0  0  0  0  0  0  0  0  0  0
   35.6780   21.7090   31.9570 C   0  0  0  0  0  0  0  0  0  0  0  0
   35.1220   20.6620   32.5970 N   0  0  0  0  0  0  0  0  0  0  0  0
   35.5360   20.3960   33.8380 C   0  0  0  0  0  0  0  0  0  0  0  0
   36.4700   21.0860   34.5250 N   0  0  0  0  0  0  0  0  0  0  0  0
   37.0590   22.1470   33.9300 C   0  0  0  0  0  0  0  0  0  0  0  0
   41.6990   21.6670   37.0740 C   0  0  0  0  0  0  0  0  0  0  0  0
   42.6850   22.6360   37.0480 F   0  0  0  0  0  0  0  0  0  0  0  0
   41.8750   20.9450   35.9110 F   0  0  0  0  0  0  0  0  0  0  0  0
   41.8450   20.9050   38.1920 F   0  0  0  0  0  0  0  0  0  0  0  0
   40.3980   21.9568   34.8171 H   0  0  0  0  0  0  0  0  0  0  0  0
   37.9268   23.8540   38.6702 H   0  0  0  0  0  0  0  0  0  0  0  0
   38.8645   24.7567   33.1535 H   0  0  0  0  0  0  0  0  0  0  0  0
   35.3754   21.9727   30.9328 H   0  0  0  0  0  0  0  0  0  0  0  0
   35.0740   19.5368   34.3463 H   0  0  0  0  0  0  0  0  0  0  0  0
  1  2  2  0
  1  6  1  0
  2  3  1  0
  3 16  1  0
  3  4  2  0
  5  4  1  0
  6  5  2  0
  7  1  1  0
  8  7  1  0
  9 10  1  0
  9  8  2  0
 10 15  2  0
 11 12  2  0
 11 10  1  0
 12 13  1  0
 13 14  2  0
 15  7  1  0
 15 14  1  0
 16 19  1  0
 17 16  1  0
 18 16  1  0
  2 20  1  0
  5 21  1  0
  8 22  1  0
 11 23  1  0
 13 24  1  0
M  ISO  5  20  14  21  14  22  14  23  14  24  14
M  END
>  <minimizedAffinity>  (1) 
-4.85811472

>  <minimizedRMSD>  (1) 
6.83234406

$$$$
