
     RDKit          3D

 29 30  0  0  0  0  0  0  0  0999 V2000
   41.2360   22.4820   36.5350 C   0  0  0  0  0  0  0  0  0  0  0  0
   40.4470   22.9830   37.6060 C   0  0  0  0  0  0  0  0  0  0  0  0
   39.0590   23.0630   37.3880 C   0  0  0  0  0  0  0  0  0  0  0  0
   38.5490   22.6690   36.1960 N   0  0  0  0  0  0  0  0  0  0  0  0
   39.3640   22.1980   35.2110 C   0  0  0  0  0  0  0  0  0  0  0  0
   40.6840   22.1060   35.3770 N   0  0  0  0  0  0  0  0  0  0  0  0
   42.7080   22.3690   36.6910 C   0  0  0  0  0  0  0  0  0  0  0  0
   43.2590   23.7570   36.4240 C   0  0  0  0  0  0  0  0  0  0  0  0
   44.7570   23.7510   36.6200 C   0  0  0  0  0  0  0  0  0  0  0  0
   45.4290   22.7250   35.7380 C   0  0  0  0  0  0  0  0  0  0  0  0
   44.7770   21.3930   35.7600 C   0  0  0  0  0  0  0  0  0  0  0  0
   43.2920   21.3770   35.7330 C   0  0  0  0  0  0  0  0  0  0  0  0
   38.2950   23.5850   38.5280 C   0  0  0  0  0  0  0  0  0  0  0  0
   37.7500   24.7920   38.1970 F   0  0  0  0  0  0  0  0  0  0  0  0
   39.1870   23.8160   39.5460 F   0  0  0  0  0  0  0  0  0  0  0  0
   37.2760   22.7320   38.9090 F   0  0  0  0  0  0  0  0  0  0  0  0
   40.8996   23.2933   38.5594 H   0  0  0  0  0  0  0  0  0  0  0  0
   38.9216   21.8854   34.2536 H   0  0  0  0  0  0  0  0  0  0  0  0
   42.9686   22.0097   37.6975 H   0  0  0  0  0  0  0  0  0  0  0  0
   42.8009   24.4737   37.1215 H   0  0  0  0  0  0  0  0  0  0  0  0
   43.0259   24.0512   35.3900 H   0  0  0  0  0  0  0  0  0  0  0  0
   45.1532   24.7473   36.3743 H   0  0  0  0  0  0  0  0  0  0  0  0
   44.9658   23.4929   37.6687 H   0  0  0  0  0  0  0  0  0  0  0  0
   46.4694   22.6068   36.0752 H   0  0  0  0  0  0  0  0  0  0  0  0
   45.3590   23.0973   34.7053 H   0  0  0  0  0  0  0  0  0  0  0  0
   45.1324   20.8333   34.8823 H   0  0  0  0  0  0  0  0  0  0  0  0
   45.0534   20.9517   36.7289 H   0  0  0  0  0  0  0  0  0  0  0  0
   42.9517   21.6212   34.7159 H   0  0  0  0  0  0  0  0  0  0  0  0
   42.9552   20.3734   36.0321 H   0  0  0  0  0  0  0  0  0  0  0  0
  1  7  1  0
  1  2  2  0
  3  2  1  0
  3 13  1  0
  4  3  2  0
  5  6  2  0
  5  4  1  0
  6  1  1  0
  8  9  1  0
  8  7  1  0
 10 11  1  0
 10  9  1  0
 12 11  1  0
 12  7  1  0
 13 16  1  0
 13 15  1  0
 14 13  1  0
  2 17  1  0
  5 18  1  0
  7 19  1  0
  8 20  1  0
  8 21  1  0
  9 22  1  0
  9 23  1  0
 10 24  1  0
 10 25  1  0
 11 26  1  0
 11 27  1  0
 12 28  1  0
 12 29  1  0
M  ISO  8  17  14  18  14  19  13  20  13  21  13  22  13  23  13  24  13
M  ISO  5  25  13  26  13  27  13  28  13  29  13
M  END
>  <minimizedAffinity>  (1) 
-4.8228097

>  <minimizedRMSD>  (1) 
0.756535947

$$$$
