
     RDKit          3D

 23 24  0  0  0  0  0  0  0  0999 V2000
   41.0690   22.6200   36.2570 C   0  0  0  0  0  0  0  0  0  0  0  0
   40.3800   23.0870   37.3940 C   0  0  0  0  0  0  0  0  0  0  0  0
   38.9790   23.0700   37.3450 C   0  0  0  0  0  0  0  0  0  0  0  0
   38.3690   22.6150   36.2270 N   0  0  0  0  0  0  0  0  0  0  0  0
   39.0640   22.1750   35.1540 C   0  0  0  0  0  0  0  0  0  0  0  0
   40.4090   22.1790   35.1730 N   0  0  0  0  0  0  0  0  0  0  0  0
   42.5250   22.5900   36.1940 C   0  0  0  0  0  0  0  0  0  0  0  0
   43.2230   23.7430   36.4850 C   0  0  0  0  0  0  0  0  0  0  0  0
   44.6180   23.7820   36.4430 C   0  0  0  0  0  0  0  0  0  0  0  0
   45.3530   22.6690   36.1100 C   0  0  0  0  0  0  0  0  0  0  0  0
   44.6630   21.5150   35.8200 C   0  0  0  0  0  0  0  0  0  0  0  0
   43.2910   21.5200   35.8720 C   0  0  0  0  0  0  0  0  0  0  0  0
   38.3180   23.5640   38.5480 C   0  0  0  0  0  0  0  0  0  0  0  0
   37.8100   24.8310   38.3050 F   0  0  0  0  0  0  0  0  0  0  0  0
   39.2850   23.7410   39.5080 F   0  0  0  0  0  0  0  0  0  0  0  0
   37.2780   22.7850   38.9750 F   0  0  0  0  0  0  0  0  0  0  0  0
   40.9184   23.4494   38.2821 H   0  0  0  0  0  0  0  0  0  0  0  0
   38.5286   21.8131   34.2639 H   0  0  0  0  0  0  0  0  0  0  0  0
   42.6680   24.6531   36.7565 H   0  0  0  0  0  0  0  0  0  0  0  0
   45.1389   24.7212   36.6809 H   0  0  0  0  0  0  0  0  0  0  0  0
   46.4521   22.7002   36.0767 H   0  0  0  0  0  0  0  0  0  0  0  0
   45.2051   20.5970   35.5490 H   0  0  0  0  0  0  0  0  0  0  0  0
   42.7722   20.5799   35.6331 H   0  0  0  0  0  0  0  0  0  0  0  0
  1  2  2  0
  3  2  1  0
  3 13  1  0
  4  3  2  0
  5  6  2  0
  5  4  1  0
  6  1  1  0
  7  1  1  0
  7  8  2  0
  9  8  1  0
 10  9  2  0
 11 12  2  0
 11 10  1  0
 12  7  1  0
 13 16  1  0
 13 15  1  0
 14 13  1  0
  2 17  1  0
  5 18  1  0
  8 19  1  0
  9 20  1  0
 10 21  1  0
 11 22  1  0
 12 23  1  0
M  ISO  7  17  14  18  14  19  14  20  14  21  14  22  14  23  14
M  END
>  <minimizedAffinity>  (1) 
-4.76244593

>  <minimizedRMSD>  (1) 
1.11630154

$$$$
