
     RDKit          3D

 20 21  0  0  0  0  0  0  0  0999 V2000
   38.0190   22.7620   35.1660 C   0  0  0  0  0  0  0  0  0  0  0  0
   37.1580   21.6800   34.8370 C   0  0  0  0  0  0  0  0  0  0  0  0
   36.7220   21.5840   33.5030 C   0  0  0  0  0  0  0  0  0  0  0  0
   37.1430   22.5190   32.6150 N   0  0  0  0  0  0  0  0  0  0  0  0
   37.9640   23.5330   32.9750 C   0  0  0  0  0  0  0  0  0  0  0  0
   38.3990   23.6550   34.2380 N   0  0  0  0  0  0  0  0  0  0  0  0
   38.4920   22.8970   36.5340 C   0  0  0  0  0  0  0  0  0  0  0  0
   37.8340   23.5470   37.5670 C   0  0  0  0  0  0  0  0  0  0  0  0
   38.6770   23.3980   38.6410 C   0  0  0  0  0  0  0  0  0  0  0  0
   39.7680   22.7130   38.3080 N   0  0  0  0  0  0  0  0  0  0  0  0
   39.6250   22.4290   37.0390 N   0  0  0  0  0  0  0  0  0  0  0  0
   35.8450   20.4570   33.2330 C   0  0  0  0  0  0  0  0  0  0  0  0
   34.7300   20.8820   32.5570 F   0  0  0  0  0  0  0  0  0  0  0  0
   35.3870   19.9770   34.4510 F   0  0  0  0  0  0  0  0  0  0  0  0
   36.4450   19.4620   32.4990 F   0  0  0  0  0  0  0  0  0  0  0  0
   36.8451   20.9470   35.5952 H   0  0  0  0  0  0  0  0  0  0  0  0
   38.2794   24.2684   32.2202 H   0  0  0  0  0  0  0  0  0  0  0  0
   36.8627   24.0622   37.5340 H   0  0  0  0  0  0  0  0  0  0  0  0
   38.4760   23.7941   39.6473 H   0  0  0  0  0  0  0  0  0  0  0  0
   40.5574   22.4601   38.9194 H   0  0  0  0  0  0  0  0  0  0  0  0
  1  7  1  0
  2  1  2  0
  3  2  1  0
  4  5  1  0
  4  3  2  0
  5  6  2  0
  6  1  1  0
  7 11  2  0
  7  8  1  0
  8  9  2  0
 10  9  1  0
 11 10  1  0
 12  3  1  0
 12 14  1  0
 13 12  1  0
 15 12  1  0
  2 16  1  0
  5 17  1  0
  8 18  1  0
  9 19  1  0
 10 20  1  0
M  ISO  5  16  14  17  14  18  14  19  14  20   9
M  END
>  <minimizedAffinity>  (1) 
-4.76241064

>  <minimizedRMSD>  (1) 
5.37755919

$$$$
