
     RDKit          3D

 23 24  0  0  0  0  0  0  0  0999 V2000
   41.0740   22.6280   36.2640 C   0  0  0  0  0  0  0  0  0  0  0  0
   40.3790   23.0930   37.3990 C   0  0  0  0  0  0  0  0  0  0  0  0
   38.9800   23.0700   37.3430 C   0  0  0  0  0  0  0  0  0  0  0  0
   38.3740   22.6110   36.2270 N   0  0  0  0  0  0  0  0  0  0  0  0
   39.0810   22.1730   35.1560 C   0  0  0  0  0  0  0  0  0  0  0  0
   40.4220   22.1830   35.1810 N   0  0  0  0  0  0  0  0  0  0  0  0
   42.5290   22.6020   36.1990 C   0  0  0  0  0  0  0  0  0  0  0  0
   43.2370   23.7470   36.4860 C   0  0  0  0  0  0  0  0  0  0  0  0
   44.6290   23.7790   36.4390 C   0  0  0  0  0  0  0  0  0  0  0  0
   45.3570   22.6740   36.1060 C   0  0  0  0  0  0  0  0  0  0  0  0
   44.6640   21.5180   35.8150 C   0  0  0  0  0  0  0  0  0  0  0  0
   43.3040   21.5160   35.8690 C   0  0  0  0  0  0  0  0  0  0  0  0
   38.3150   23.5630   38.5450 C   0  0  0  0  0  0  0  0  0  0  0  0
   37.8000   24.8250   38.2970 F   0  0  0  0  0  0  0  0  0  0  0  0
   39.2750   23.7420   39.5090 F   0  0  0  0  0  0  0  0  0  0  0  0
   37.2790   22.7810   38.9760 F   0  0  0  0  0  0  0  0  0  0  0  0
   40.9122   23.4578   38.2893 H   0  0  0  0  0  0  0  0  0  0  0  0
   38.5525   21.8080   34.2630 H   0  0  0  0  0  0  0  0  0  0  0  0
   42.6893   24.6608   36.7597 H   0  0  0  0  0  0  0  0  0  0  0  0
   45.1533   24.7166   36.6758 H   0  0  0  0  0  0  0  0  0  0  0  0
   46.4560   22.7043   36.0710 H   0  0  0  0  0  0  0  0  0  0  0  0
   45.2076   20.6019   35.5406 H   0  0  0  0  0  0  0  0  0  0  0  0
   42.7865   20.5750   35.6308 H   0  0  0  0  0  0  0  0  0  0  0  0
  1  2  2  0
  3  2  1  0
  3 13  1  0
  4  3  2  0
  5  6  2  0
  5  4  1  0
  6  1  1  0
  7  1  1  0
  7  8  2  0
  9  8  1  0
 10  9  2  0
 11 12  2  0
 11 10  1  0
 12  7  1  0
 13 16  1  0
 13 15  1  0
 14 13  1  0
  2 17  1  0
  5 18  1  0
  8 19  1  0
  9 20  1  0
 10 21  1  0
 11 22  1  0
 12 23  1  0
M  ISO  7  17  14  18  14  19  14  20  14  21  14  22  14  23  14
M  END
>  <minimizedAffinity>  (1) 
-4.75547314

>  <minimizedRMSD>  (1) 
1.11243427

$$$$
