
     RDKit          3D

 20 21  0  0  0  0  0  0  0  0999 V2000
   38.3730   24.5730   36.3120 C   0  0  0  0  0  0  0  0  0  0  0  0
   39.5250   23.7720   36.1610 C   0  0  0  0  0  0  0  0  0  0  0  0
   39.9180   23.0030   37.2510 C   0  0  0  0  0  0  0  0  0  0  0  0
   39.1830   23.0670   38.3790 N   0  0  0  0  0  0  0  0  0  0  0  0
   38.0790   23.8510   38.4890 C   0  0  0  0  0  0  0  0  0  0  0  0
   37.6860   24.5990   37.4470 N   0  0  0  0  0  0  0  0  0  0  0  0
   37.9110   25.4220   35.1560 C   0  0  0  0  0  0  0  0  0  0  0  0
   37.4130   26.6430   35.1870 C   0  0  0  0  0  0  0  0  0  0  0  0
   37.0560   27.2310   34.0000 C   0  0  0  0  0  0  0  0  0  0  0  0
   37.2320   26.5270   32.8500 C   0  0  0  0  0  0  0  0  0  0  0  0
   37.9590   24.9160   33.5230 S   0  0  0  0  0  0  0  0  0  0  0  0
   41.1120   22.1990   37.0420 C   0  0  0  0  0  0  0  0  0  0  0  0
   42.2190   23.0330   36.9760 F   0  0  0  0  0  0  0  0  0  0  0  0
   41.0220   21.6240   35.7990 F   0  0  0  0  0  0  0  0  0  0  0  0
   41.3530   21.2810   38.0250 F   0  0  0  0  0  0  0  0  0  0  0  0
   40.0903   23.7565   35.2175 H   0  0  0  0  0  0  0  0  0  0  0  0
   37.5091   23.8724   39.4296 H   0  0  0  0  0  0  0  0  0  0  0  0
   37.2871   27.1765   36.1407 H   0  0  0  0  0  0  0  0  0  0  0  0
   36.6373   28.2480   33.9790 H   0  0  0  0  0  0  0  0  0  0  0  0
   37.0117   26.8157   31.8117 H   0  0  0  0  0  0  0  0  0  0  0  0
  1  6  1  0
  2  1  2  0
  2  3  1  0
  3  4  2  0
  4  5  1  0
  6  5  2  0
  7  8  2  0
  7  1  1  0
  9  8  1  0
 10 11  1  0
 10  9  2  0
 11  7  1  0
 12  3  1  0
 12 15  1  0
 13 12  1  0
 14 12  1  0
  2 16  1  0
  5 17  1  0
  8 18  1  0
  9 19  1  0
 10 20  1  0
M  ISO  5  16  14  17  14  18  14  19  14  20  14
M  END
>  <minimizedAffinity>  (1) 
-4.50493908

>  <minimizedRMSD>  (1) 
5.94867039

$$$$
