
     RDKit          3D

 20 21  0  0  0  0  0  0  0  0999 V2000
   38.8760   24.4770   34.8190 C   0  0  0  0  0  0  0  0  0  0  0  0
   38.8340   24.5800   36.2440 C   0  0  0  0  0  0  0  0  0  0  0  0
   38.2560   23.5140   36.9290 C   0  0  0  0  0  0  0  0  0  0  0  0
   37.7750   22.4590   36.2240 N   0  0  0  0  0  0  0  0  0  0  0  0
   37.8340   22.3990   34.8710 C   0  0  0  0  0  0  0  0  0  0  0  0
   38.3850   23.4090   34.1810 N   0  0  0  0  0  0  0  0  0  0  0  0
   39.4820   25.5900   34.0620 C   0  0  0  0  0  0  0  0  0  0  0  0
   40.4670   26.4250   34.5010 C   0  0  0  0  0  0  0  0  0  0  0  0
   40.7000   27.2980   33.4460 C   0  0  0  0  0  0  0  0  0  0  0  0
   39.8520   26.9540   32.4250 C   0  0  0  0  0  0  0  0  0  0  0  0
   39.1630   25.9370   32.8600 O   0  0  0  0  0  0  0  0  0  0  0  0
   38.2300   23.6520   38.3800 C   0  0  0  0  0  0  0  0  0  0  0  0
   37.3120   22.7900   38.9210 F   0  0  0  0  0  0  0  0  0  0  0  0
   37.7720   24.9210   38.6520 F   0  0  0  0  0  0  0  0  0  0  0  0
   39.4490   23.3960   38.9750 F   0  0  0  0  0  0  0  0  0  0  0  0
   39.2375   25.4563   36.7725 H   0  0  0  0  0  0  0  0  0  0  0  0
   37.4309   21.5240   34.3400 H   0  0  0  0  0  0  0  0  0  0  0  0
   40.9688   26.4103   35.4797 H   0  0  0  0  0  0  0  0  0  0  0  0
   41.4331   28.1180   33.4322 H   0  0  0  0  0  0  0  0  0  0  0  0
   39.7700   27.4375   31.4403 H   0  0  0  0  0  0  0  0  0  0  0  0
  1  2  2  0
  2  3  1  0
  3 12  1  0
  4  3  2  0
  5  4  1  0
  6  1  1  0
  6  5  2  0
  7  8  2  0
  7  1  1  0
  9  8  1  0
 10 11  1  0
 10  9  2  0
 11  7  1  0
 12 14  1  0
 12 13  1  0
 12 15  1  0
  2 16  1  0
  5 17  1  0
  8 18  1  0
  9 19  1  0
 10 20  1  0
M  ISO  5  16  14  17  14  18  14  19  14  20  14
M  END
>  <minimizedAffinity>  (1) 
-4.45954084

>  <minimizedRMSD>  (1) 
4.68573666

$$$$
