
     RDKit          3D

 26 27  0  0  0  0  0  0  0  0999 V2000
   40.9430   22.1090   36.3950 C   0  0  0  0  0  0  0  0  0  0  0  0
   40.2750   22.6150   37.5290 C   0  0  0  0  0  0  0  0  0  0  0  0
   38.9840   23.1240   37.3370 C   0  0  0  0  0  0  0  0  0  0  0  0
   38.4530   23.1050   36.0950 N   0  0  0  0  0  0  0  0  0  0  0  0
   39.1270   22.6090   35.0200 C   0  0  0  0  0  0  0  0  0  0  0  0
   40.3710   22.1140   35.1860 N   0  0  0  0  0  0  0  0  0  0  0  0
   42.2560   21.5860   36.5670 N   0  0  0  0  0  0  0  0  0  0  0  0
   43.3700   22.0910   35.7940 C   0  0  0  0  0  0  0  0  0  0  0  0
   44.4750   21.0380   35.9510 C   0  0  0  0  0  0  0  0  0  0  0  0
   43.9190   19.7770   35.7540 O   0  0  0  0  0  0  0  0  0  0  0  0
   43.0700   19.3650   36.7500 C   0  0  0  0  0  0  0  0  0  0  0  0
   42.4860   20.5300   37.5330 C   0  0  0  0  0  0  0  0  0  0  0  0
   38.3380   23.6310   38.5400 C   0  0  0  0  0  0  0  0  0  0  0  0
   37.8440   24.8830   38.3110 F   0  0  0  0  0  0  0  0  0  0  0  0
   39.3060   23.7670   39.5050 F   0  0  0  0  0  0  0  0  0  0  0  0
   37.2920   22.8390   38.9700 F   0  0  0  0  0  0  0  0  0  0  0  0
   40.7475   22.6103   38.5223 H   0  0  0  0  0  0  0  0  0  0  0  0
   38.6603   22.6121   34.0239 H   0  0  0  0  0  0  0  0  0  0  0  0
   43.7038   23.0627   36.1869 H   0  0  0  0  0  0  0  0  0  0  0  0
   43.1009   22.2522   34.7397 H   0  0  0  0  0  0  0  0  0  0  0  0
   45.2643   21.2154   35.2057 H   0  0  0  0  0  0  0  0  0  0  0  0
   44.9141   21.1017   36.9575 H   0  0  0  0  0  0  0  0  0  0  0  0
   42.2453   18.7947   36.2976 H   0  0  0  0  0  0  0  0  0  0  0  0
   43.6505   18.7473   37.4511 H   0  0  0  0  0  0  0  0  0  0  0  0
   43.1948   20.8655   38.3044 H   0  0  0  0  0  0  0  0  0  0  0  0
   41.5560   20.2443   38.0464 H   0  0  0  0  0  0  0  0  0  0  0  0
  1  7  1  0
  1  2  2  0
  3  2  1  0
  3 13  1  0
  4  3  2  0
  5  6  2  0
  5  4  1  0
  6  1  1  0
  7 12  1  0
  8  9  1  0
  8  7  1  0
 10  9  1  0
 10 11  1  0
 11 12  1  0
 13 16  1  0
 13 15  1  0
 14 13  1  0
  2 17  1  0
  5 18  1  0
  8 19  1  0
  8 20  1  0
  9 21  1  0
  9 22  1  0
 11 23  1  0
 11 24  1  0
 12 25  1  0
 12 26  1  0
M  ISO  8  17  14  18  14  19  13  20  13  21  13  22  13  23  13  24  13
M  ISO  2  25  13  26  13
M  END
>  <minimizedAffinity>  (1) 
-4.44280529

>  <minimizedRMSD>  (1) 
0.762125075

$$$$
