
     RDKit          3D

 25 26  0  0  0  0  0  0  0  0999 V2000
   40.9690   22.0880   36.4920 C   0  0  0  0  0  0  0  0  0  0  0  0
   40.2810   22.5940   37.6160 C   0  0  0  0  0  0  0  0  0  0  0  0
   39.0070   23.1110   37.3740 C   0  0  0  0  0  0  0  0  0  0  0  0
   38.5170   23.0980   36.1080 N   0  0  0  0  0  0  0  0  0  0  0  0
   39.2270   22.5960   35.0570 C   0  0  0  0  0  0  0  0  0  0  0  0
   40.4430   22.0990   35.2720 N   0  0  0  0  0  0  0  0  0  0  0  0
   42.2510   21.5580   36.6850 N   0  0  0  0  0  0  0  0  0  0  0  0
   42.7320   20.3550   37.3370 C   0  0  0  0  0  0  0  0  0  0  0  0
   43.4930   19.7170   36.1670 C   0  0  0  0  0  0  0  0  0  0  0  0
   44.3320   20.9290   35.7600 C   0  0  0  0  0  0  0  0  0  0  0  0
   43.5170   22.1190   36.2530 C   0  0  0  0  0  0  0  0  0  0  0  0
   38.3080   23.6310   38.5550 C   0  0  0  0  0  0  0  0  0  0  0  0
   37.8310   24.9050   38.2860 F   0  0  0  0  0  0  0  0  0  0  0  0
   39.2610   23.8050   39.5330 F   0  0  0  0  0  0  0  0  0  0  0  0
   37.2510   22.8690   38.9570 F   0  0  0  0  0  0  0  0  0  0  0  0
   40.7228   22.5816   38.6233 H   0  0  0  0  0  0  0  0  0  0  0  0
   38.7996   22.6018   34.0434 H   0  0  0  0  0  0  0  0  0  0  0  0
   43.3974   20.5849   38.1822 H   0  0  0  0  0  0  0  0  0  0  0  0
   41.9518   19.7234   37.7869 H   0  0  0  0  0  0  0  0  0  0  0  0
   44.1164   18.8701   36.4898 H   0  0  0  0  0  0  0  0  0  0  0  0
   42.8708   19.2767   35.3739 H   0  0  0  0  0  0  0  0  0  0  0  0
   45.3191   20.9026   36.2446 H   0  0  0  0  0  0  0  0  0  0  0  0
   44.5273   20.9667   34.6781 H   0  0  0  0  0  0  0  0  0  0  0  0
   44.0263   22.6144   37.0927 H   0  0  0  0  0  0  0  0  0  0  0  0
   43.3844   22.8801   35.4700 H   0  0  0  0  0  0  0  0  0  0  0  0
  1  7  1  0
  1  2  2  0
  3  2  1  0
  3 12  1  0
  4  3  2  0
  5  6  2  0
  5  4  1  0
  6  1  1  0
  7  8  1  0
  9  8  1  0
 10  9  1  0
 10 11  1  0
 11  7  1  0
 12 15  1  0
 12 14  1  0
 13 12  1  0
  2 16  1  0
  5 17  1  0
  8 18  1  0
  8 19  1  0
  9 20  1  0
  9 21  1  0
 10 22  1  0
 10 23  1  0
 11 24  1  0
 11 25  1  0
M  ISO  8  16  14  17  14  18  13  19  13  20  13  21  13  22  13  23  13
M  ISO  2  24  13  25  13
M  END
>  <minimizedAffinity>  (1) 
-4.43332911

>  <minimizedRMSD>  (1) 
1.03082037

$$$$
