
     RDKit          3D

 42 44  0  0  0  0  0  0  0  0999 V2000
   45.0840   24.2140   36.8130 C   0  0  0  0  0  0  0  0  0  0  0  0
   44.3640   25.0910   37.6360 C   0  0  0  0  0  0  0  0  0  0  0  0
   45.7140   25.8710   38.6640 S   0  0  0  0  0  0  0  0  0  0  0  0
   47.0160   24.8330   37.7550 C   0  0  0  0  0  0  0  0  0  0  0  0
   46.3500   24.2670   37.0560 N   0  0  0  0  0  0  0  0  0  0  0  0
   48.4430   24.8290   37.9620 N   0  0  0  0  0  0  0  0  0  0  0  0
   48.8760   23.8540   38.7970 C   0  0  0  0  0  0  0  0  0  0  0  0
   50.2440   23.9810   38.8920 C   0  0  0  0  0  0  0  0  0  0  0  0
   50.5830   25.0300   38.1070 N   0  0  0  0  0  0  0  0  0  0  0  0
   49.4810   25.5450   37.5400 C   0  0  0  0  0  0  0  0  0  0  0  0
   49.2750   26.6530   36.6320 C   0  0  0  0  0  0  0  0  0  0  0  0
   49.2100   26.4660   35.3980 O   0  0  0  0  0  0  0  0  0  0  0  0
   49.1550   27.9150   37.2050 O   0  0  0  0  0  0  0  0  0  0  0  0
   44.1540   23.2460   35.6450 S   0  0  0  0  0  0  0  0  0  0  0  0
   40.5510   22.6870   37.2470 C   0  0  0  0  0  0  0  0  0  0  0  0
   39.7260   23.5220   36.4830 C   0  0  0  0  0  0  0  0  0  0  0  0
   40.2910   24.2840   35.4460 C   0  0  0  0  0  0  0  0  0  0  0  0
   41.6630   24.1170   35.2900 N   0  0  0  0  0  0  0  0  0  0  0  0
   42.4190   23.3040   36.0480 C   0  0  0  0  0  0  0  0  0  0  0  0
   41.8500   22.6030   37.0140 N   0  0  0  0  0  0  0  0  0  0  0  0
   38.2800   23.6630   36.6830 C   0  0  0  0  0  0  0  0  0  0  0  0
   37.9940   22.8970   37.8490 F   0  0  0  0  0  0  0  0  0  0  0  0
   37.4890   23.1800   35.7430 F   0  0  0  0  0  0  0  0  0  0  0  0
   37.9530   24.9200   37.1740 F   0  0  0  0  0  0  0  0  0  0  0  0
   39.6400   25.2660   34.5080 C   0  0  0  0  0  0  0  0  0  0  0  0
   39.5570   26.6210   35.2840 C   0  0  0  0  0  0  0  0  0  0  0  0
   38.1990   25.0610   34.2030 C   0  0  0  0  0  0  0  0  0  0  0  0
   40.4550   25.5840   33.3000 C   0  0  0  0  0  0  0  0  0  0  0  0
   43.2797   25.2734   37.6682 H   0  0  0  0  0  0  0  0  0  0  0  0
   48.2525   23.1026   39.3036 H   0  0  0  0  0  0  0  0  0  0  0  0
   50.9251   23.3549   39.4871 H   0  0  0  0  0  0  0  0  0  0  0  0
   49.0129   28.7082   36.6300 H   0  0  0  0  0  0  0  0  0  0  0  0
   40.1093   22.0887   38.0576 H   0  0  0  0  0  0  0  0  0  0  0  0
   39.5690   26.4250   36.3663 H   0  0  0  0  0  0  0  0  0  0  0  0
   40.4183   27.2505   35.0158 H   0  0  0  0  0  0  0  0  0  0  0  0
   38.6253   27.1407   35.0158 H   0  0  0  0  0  0  0  0  0  0  0  0
   37.6331   24.9805   35.1428 H   0  0  0  0  0  0  0  0  0  0  0  0
   37.8225   25.9146   33.6203 H   0  0  0  0  0  0  0  0  0  0  0  0
   38.0755   24.1362   33.6203 H   0  0  0  0  0  0  0  0  0  0  0  0
   41.4379   25.9675   33.6113 H   0  0  0  0  0  0  0  0  0  0  0  0
   40.5906   24.6728   32.6989 H   0  0  0  0  0  0  0  0  0  0  0  0
   39.9376   26.3462   32.6989 H   0  0  0  0  0  0  0  0  0  0  0  0
  1  5  1  0
  1  2  2  0
  2  3  1  0
  4  6  1  0
  4  3  1  0
  5  4  2  0
  6  7  1  0
  7  8  2  0
  9  8  1  0
 10  6  1  0
 10  9  2  0
 11 13  1  0
 11 10  1  0
 12 11  2  0
 14 19  1  0
 14  1  1  0
 16 21  1  0
 16 15  2  0
 17 16  1  0
 18 17  2  0
 18 19  1  0
 19 20  2  0
 20 15  1  0
 21 24  1  0
 21 22  1  0
 23 21  1  0
 25 26  1  0
 25 17  1  0
 27 25  1  0
 28 25  1  0
  2 29  1  0
  7 30  1  0
  8 31  1  0
 13 32  1  0
 15 33  1  0
 26 34  1  0
 26 35  1  0
 26 36  1  0
 27 37  1  0
 27 38  1  0
 27 39  1  0
 28 40  1  0
 28 41  1  0
 28 42  1  0
M  ISO  8  29  14  30  14  31  14  32   3  33  14  34   8  35   8  36   8
M  ISO  6  37   8  38   8  39   8  40   8  41   8  42   8
M  END
>  <minimizedAffinity>  (1) 
-5.45689249

>  <minimizedRMSD>  (1) 
4.52518845

$$$$
