
     RDKit          3D

 18 19  0  0  0  0  0  0  0  0999 V2000
   40.8660   22.2210   36.3370 C   0  0  0  0  0  0  0  0  0  0  0  0
   40.1210   22.5240   37.5120 C   0  0  0  0  0  0  0  0  0  0  0  0
   39.0880   23.4590   37.3770 C   0  0  0  0  0  0  0  0  0  0  0  0
   38.8570   24.0130   36.1710 N   0  0  0  0  0  0  0  0  0  0  0  0
   39.5920   23.6980   35.0690 C   0  0  0  0  0  0  0  0  0  0  0  0
   40.5830   22.8100   35.1640 N   0  0  0  0  0  0  0  0  0  0  0  0
   41.9580   21.2400   36.4500 C   0  0  0  0  0  0  0  0  0  0  0  0
   42.4170   20.6160   37.5710 N   0  0  0  0  0  0  0  0  0  0  0  0
   43.3990   19.8250   37.2120 O   0  0  0  0  0  0  0  0  0  0  0  0
   43.6000   19.9020   35.9090 C   0  0  0  0  0  0  0  0  0  0  0  0
   42.6940   20.7950   35.4160 N   0  0  0  0  0  0  0  0  0  0  0  0
   38.3480   23.7410   38.6130 C   0  0  0  0  0  0  0  0  0  0  0  0
   37.7980   25.0000   38.5510 F   0  0  0  0  0  0  0  0  0  0  0  0
   39.2820   23.8050   39.6410 F   0  0  0  0  0  0  0  0  0  0  0  0
   37.3660   22.8300   38.8820 F   0  0  0  0  0  0  0  0  0  0  0  0
   40.3459   22.0472   38.4775 H   0  0  0  0  0  0  0  0  0  0  0  0
   39.3692   24.1745   34.1029 H   0  0  0  0  0  0  0  0  0  0  0  0
   44.3554   19.3502   35.3303 H   0  0  0  0  0  0  0  0  0  0  0  0
  1  7  1  0
  1  2  2  0
  3  2  1  0
  3 12  1  0
  4  3  2  0
  5  6  2  0
  5  4  1  0
  6  1  1  0
  7  8  2  0
  9  8  1  0
 10  9  1  0
 11 10  2  0
 11  7  1  0
 12 15  1  0
 12 14  1  0
 13 12  1  0
  2 16  1  0
  5 17  1  0
 10 18  1  0
M  ISO  3  16  14  17  14  18  14
M  END
>  <minimizedAffinity>  (1) 
-4.26509762

>  <minimizedRMSD>  (1) 
1.2457087

$$$$
