
     RDKit          3D

 19 20  0  0  0  0  0  0  0  0999 V2000
   40.7810   22.1000   36.2660 C   0  0  0  0  0  0  0  0  0  0  0  0
   40.1410   22.5470   37.4400 C   0  0  0  0  0  0  0  0  0  0  0  0
   38.9240   23.2130   37.3040 C   0  0  0  0  0  0  0  0  0  0  0  0
   38.4140   23.3980   36.0640 N   0  0  0  0  0  0  0  0  0  0  0  0
   39.0650   22.9500   34.9560 C   0  0  0  0  0  0  0  0  0  0  0  0
   40.2290   22.3120   35.0620 N   0  0  0  0  0  0  0  0  0  0  0  0
   42.0580   21.3960   36.3200 C   0  0  0  0  0  0  0  0  0  0  0  0
   43.2190   21.8860   35.5010 C   0  0  0  0  0  0  0  0  0  0  0  0
   44.5180   20.7670   35.8640 S   0  0  0  0  0  0  0  0  0  0  0  0
   43.4110   19.7710   37.0510 C   0  0  0  0  0  0  0  0  0  0  0  0
   42.4390   20.3310   36.9910 N   0  0  0  0  0  0  0  0  0  0  0  0
   38.3350   23.6410   38.5680 C   0  0  0  0  0  0  0  0  0  0  0  0
   37.8270   24.9230   38.4170 F   0  0  0  0  0  0  0  0  0  0  0  0
   39.3400   23.7590   39.4970 F   0  0  0  0  0  0  0  0  0  0  0  0
   37.2920   22.8470   38.9890 F   0  0  0  0  0  0  0  0  0  0  0  0
   40.5873   22.3758   38.4307 H   0  0  0  0  0  0  0  0  0  0  0  0
   38.6247   23.1168   33.9618 H   0  0  0  0  0  0  0  0  0  0  0  0
   43.2471   22.7532   34.8248 H   0  0  0  0  0  0  0  0  0  0  0  0
   43.6593   18.8776   37.6428 H   0  0  0  0  0  0  0  0  0  0  0  0
  1  7  1  0
  1  2  2  0
  3  2  1  0
  3 12  1  0
  4  3  2  0
  5  6  2  0
  5  4  1  0
  6  1  1  0
  7 11  1  0
  8  9  1  0
  8  7  2  0
  9 10  1  0
 11 10  2  0
 12 15  1  0
 12 14  1  0
 13 12  1  0
  2 16  1  0
  5 17  1  0
  8 18  1  0
 10 19  1  0
M  ISO  4  16  14  17  14  18  14  19  14
M  END
>  <minimizedAffinity>  (1) 
-4.23113012

>  <minimizedRMSD>  (1) 
0.686383486

$$$$
