
     RDKit          3D

 16 16  0  0  0  0  0  0  0  0999 V2000
   41.1530   21.8410   36.7550 C   0  0  0  0  0  0  0  0  0  0  0  0
   40.3450   22.3960   37.7700 C   0  0  0  0  0  0  0  0  0  0  0  0
   39.2200   23.1360   37.3760 C   0  0  0  0  0  0  0  0  0  0  0  0
   38.9740   23.2770   36.0590 N   0  0  0  0  0  0  0  0  0  0  0  0
   39.7840   22.7220   35.1140 C   0  0  0  0  0  0  0  0  0  0  0  0
   40.8600   22.0130   35.4670 N   0  0  0  0  0  0  0  0  0  0  0  0
   38.4310   23.6800   38.4850 C   0  0  0  0  0  0  0  0  0  0  0  0
   38.0040   24.9450   38.1440 F   0  0  0  0  0  0  0  0  0  0  0  0
   39.2770   23.8350   39.5580 F   0  0  0  0  0  0  0  0  0  0  0  0
   37.3240   22.9130   38.7810 F   0  0  0  0  0  0  0  0  0  0  0  0
   42.3610   21.0450   37.1400 C   0  0  0  0  0  0  0  0  0  0  0  0
   40.5887   22.2534   38.8332 H   0  0  0  0  0  0  0  0  0  0  0  0
   39.5492   22.8593   34.0482 H   0  0  0  0  0  0  0  0  0  0  0  0
   42.4342   20.9968   38.2365 H   0  0  0  0  0  0  0  0  0  0  0  0
   42.2740   20.0267   36.7332 H   0  0  0  0  0  0  0  0  0  0  0  0
   43.2624   21.5266   36.7332 H   0  0  0  0  0  0  0  0  0  0  0  0
  1 11  1  0
  1  2  2  0
  3  2  1  0
  3  7  1  0
  4  3  2  0
  5  6  2  0
  5  4  1  0
  6  1  1  0
  7 10  1  0
  7  9  1  0
  8  7  1  0
  2 12  1  0
  5 13  1  0
 11 14  1  0
 11 15  1  0
 11 16  1  0
M  ISO  5  12  14  13  14  14   8  15   8  16   8
M  END
>  <minimizedAffinity>  (1) 
-4.11123657

>  <minimizedRMSD>  (1) 
0.314179808

$$$$
