
     RDKit          3D

 14 14  0  0  0  0  0  0  0  0999 V2000
   41.0590   21.8790   36.6350 C   0  0  0  0  0  0  0  0  0  0  0  0
   40.3020   22.4190   37.7090 C   0  0  0  0  0  0  0  0  0  0  0  0
   39.1510   23.1450   37.3650 C   0  0  0  0  0  0  0  0  0  0  0  0
   38.8260   23.2910   36.0480 N   0  0  0  0  0  0  0  0  0  0  0  0
   39.5870   22.7520   35.0570 C   0  0  0  0  0  0  0  0  0  0  0  0
   40.6930   22.0520   35.3690 N   0  0  0  0  0  0  0  0  0  0  0  0
   38.4060   23.6770   38.5060 C   0  0  0  0  0  0  0  0  0  0  0  0
   37.9650   24.9380   38.2160 F   0  0  0  0  0  0  0  0  0  0  0  0
   39.2970   23.8150   39.5430 F   0  0  0  0  0  0  0  0  0  0  0  0
   37.3070   22.9090   38.8290 F   0  0  0  0  0  0  0  0  0  0  0  0
   42.5440   20.9380   36.9790 S   0  0  0  0  0  0  0  0  0  0  0  0
   40.6027   22.2754   38.7573 H   0  0  0  0  0  0  0  0  0  0  0  0
   39.2989   22.8881   34.0042 H   0  0  0  0  0  0  0  0  0  0  0  0
   42.7130   20.8309   38.3343 H   0  0  0  0  0  0  0  0  0  0  0  0
  1 11  1  0
  1  2  2  0
  3  2  1  0
  3  7  1  0
  4  3  2  0
  5  6  2  0
  5  4  1  0
  6  1  1  0
  7 10  1  0
  7  9  1  0
  8  7  1  0
  2 12  1  0
  5 13  1  0
 11 14  1  0
M  ISO  3  12  14  13  14  14  11
M  END
>  <minimizedAffinity>  (1) 
-3.98694634

>  <minimizedRMSD>  (1) 
0.284989357

$$$$
