
     RDKit          3D

 39 41  0  0  0  0  0  0  0  0999 V2000
   44.9200   24.2660   36.8890 C   0  0  0  0  0  0  0  0  0  0  0  0
   44.2300   25.1540   37.7170 C   0  0  0  0  0  0  0  0  0  0  0  0
   45.6180   25.9120   38.6990 S   0  0  0  0  0  0  0  0  0  0  0  0
   46.8760   24.8630   37.7810 C   0  0  0  0  0  0  0  0  0  0  0  0
   46.1930   24.2990   37.1010 N   0  0  0  0  0  0  0  0  0  0  0  0
   48.3130   24.8400   37.9580 N   0  0  0  0  0  0  0  0  0  0  0  0
   48.7550   23.8730   38.7810 C   0  0  0  0  0  0  0  0  0  0  0  0
   50.1300   23.9910   38.8380 C   0  0  0  0  0  0  0  0  0  0  0  0
   50.4550   25.0340   38.0390 N   0  0  0  0  0  0  0  0  0  0  0  0
   49.3490   25.5520   37.5020 C   0  0  0  0  0  0  0  0  0  0  0  0
   49.1360   26.6520   36.6000 C   0  0  0  0  0  0  0  0  0  0  0  0
   48.9670   26.4630   35.3790 O   0  0  0  0  0  0  0  0  0  0  0  0
   49.1260   27.9320   37.1590 O   0  0  0  0  0  0  0  0  0  0  0  0
   43.9630   23.2750   35.7310 S   0  0  0  0  0  0  0  0  0  0  0  0
   40.5030   22.5560   37.5690 C   0  0  0  0  0  0  0  0  0  0  0  0
   39.5810   23.3510   36.8550 C   0  0  0  0  0  0  0  0  0  0  0  0
   40.0540   24.1080   35.8000 C   0  0  0  0  0  0  0  0  0  0  0  0
   41.3980   24.0500   35.5000 N   0  0  0  0  0  0  0  0  0  0  0  0
   42.2460   23.2680   36.2180 C   0  0  0  0  0  0  0  0  0  0  0  0
   41.7880   22.5360   37.2370 N   0  0  0  0  0  0  0  0  0  0  0  0
   38.1340   23.4170   37.1810 C   0  0  0  0  0  0  0  0  0  0  0  0
   37.9890   22.7800   38.4320 F   0  0  0  0  0  0  0  0  0  0  0  0
   37.3430   22.8040   36.2940 F   0  0  0  0  0  0  0  0  0  0  0  0
   37.7580   24.7380   37.4860 F   0  0  0  0  0  0  0  0  0  0  0  0
   39.3110   25.0030   34.8830 C   0  0  0  0  0  0  0  0  0  0  0  0
   38.6860   26.1750   35.6620 C   0  0  0  0  0  0  0  0  0  0  0  0
   38.1540   24.2660   34.2250 C   0  0  0  0  0  0  0  0  0  0  0  0
   43.1497   25.3533   37.7740 H   0  0  0  0  0  0  0  0  0  0  0  0
   48.1391   23.1297   39.3083 H   0  0  0  0  0  0  0  0  0  0  0  0
   50.8227   23.3627   39.4172 H   0  0  0  0  0  0  0  0  0  0  0  0
   48.9833   28.7233   36.5814 H   0  0  0  0  0  0  0  0  0  0  0  0
   40.1516   21.9441   38.4129 H   0  0  0  0  0  0  0  0  0  0  0  0
   40.0319   25.3582   34.1319 H   0  0  0  0  0  0  0  0  0  0  0  0
   38.7841   25.9911   36.7421 H   0  0  0  0  0  0  0  0  0  0  0  0
   39.2062   27.1082   35.4002 H   0  0  0  0  0  0  0  0  0  0  0  0
   37.6212   26.2629   35.4002 H   0  0  0  0  0  0  0  0  0  0  0  0
   37.4969   23.8474   35.0015 H   0  0  0  0  0  0  0  0  0  0  0  0
   37.5818   24.9664   33.5989 H   0  0  0  0  0  0  0  0  0  0  0  0
   38.5468   23.4514   33.5989 H   0  0  0  0  0  0  0  0  0  0  0  0
  1  5  1  0
  1  2  2  0
  2  3  1  0
  4  6  1  0
  4  3  1  0
  5  4  2  0
  6  7  1  0
  7  8  2  0
  9  8  1  0
 10  6  1  0
 10  9  2  0
 11 13  1  0
 11 10  1  0
 12 11  2  0
 14 19  1  0
 14  1  1  0
 16 21  1  0
 16 15  2  0
 17 16  1  0
 18 17  2  0
 18 19  1  0
 19 20  2  0
 20 15  1  0
 21 24  1  0
 21 22  1  0
 23 21  1  0
 25 26  1  0
 25 17  1  0
 27 25  1  0
  2 28  1  0
  7 29  1  0
  8 30  1  0
 13 31  1  0
 15 32  1  0
 25 33  1  0
 26 34  1  0
 26 35  1  0
 26 36  1  0
 27 37  1  0
 27 38  1  0
 27 39  1  0
M  ISO  8  28  14  29  14  30  14  31   3  32  14  33   8  34   8  35   8
M  ISO  4  36   8  37   8  38   8  39   8
M  END
>  <minimizedAffinity>  (1) 
-5.40287924

>  <minimizedRMSD>  (1) 
4.45508242

$$$$
