
     RDKit          3D

 14 14  0  0  0  0  0  0  0  0999 V2000
   41.2050   21.9350   36.7830 C   0  0  0  0  0  0  0  0  0  0  0  0
   40.3990   22.5090   37.7970 C   0  0  0  0  0  0  0  0  0  0  0  0
   39.1940   23.0940   37.3970 C   0  0  0  0  0  0  0  0  0  0  0  0
   38.8600   23.0890   36.0900 N   0  0  0  0  0  0  0  0  0  0  0  0
   39.6770   22.5200   35.1490 C   0  0  0  0  0  0  0  0  0  0  0  0
   40.8320   21.9530   35.4990 N   0  0  0  0  0  0  0  0  0  0  0  0
   38.4030   23.6690   38.4760 C   0  0  0  0  0  0  0  0  0  0  0  0
   37.9710   24.9270   38.1290 F   0  0  0  0  0  0  0  0  0  0  0  0
   39.2520   23.8340   39.5570 F   0  0  0  0  0  0  0  0  0  0  0  0
   37.3010   22.9060   38.8110 F   0  0  0  0  0  0  0  0  0  0  0  0
   42.4100   21.3370   37.1020 O   0  0  0  0  0  0  0  0  0  0  0  0
   40.7078   22.4950   38.8527 H   0  0  0  0  0  0  0  0  0  0  0  0
   39.3763   22.5310   34.0910 H   0  0  0  0  0  0  0  0  0  0  0  0
   42.9686   20.9377   36.3888 H   0  0  0  0  0  0  0  0  0  0  0  0
  1 11  1  0
  1  2  2  0
  3  2  1  0
  3  7  1  0
  4  3  2  0
  5  6  2  0
  5  4  1  0
  6  1  1  0
  7 10  1  0
  7  9  1  0
  8  7  1  0
  2 12  1  0
  5 13  1  0
 11 14  1  0
M  ISO  3  12  14  13  14  14   3
M  END
>  <minimizedAffinity>  (1) 
-3.98800325

>  <minimizedRMSD>  (1) 
0.195064098

$$$$
