
     RDKit          3D

 30 32  0  0  0  0  0  0  0  0999 V2000
   41.2480   22.1220   36.6640 C   0  0  0  0  0  0  0  0  0  0  0  0
   40.4570   22.6530   37.7020 C   0  0  0  0  0  0  0  0  0  0  0  0
   39.1700   23.1070   37.3660 C   0  0  0  0  0  0  0  0  0  0  0  0
   38.7550   23.0150   36.0880 N   0  0  0  0  0  0  0  0  0  0  0  0
   39.5670   22.4890   35.1220 C   0  0  0  0  0  0  0  0  0  0  0  0
   40.7810   22.0530   35.4020 N   0  0  0  0  0  0  0  0  0  0  0  0
   38.3980   23.6460   38.4700 C   0  0  0  0  0  0  0  0  0  0  0  0
   37.9580   24.9230   38.1660 F   0  0  0  0  0  0  0  0  0  0  0  0
   39.2580   23.8040   39.5400 F   0  0  0  0  0  0  0  0  0  0  0  0
   37.3110   22.8830   38.8060 F   0  0  0  0  0  0  0  0  0  0  0  0
   42.5170   21.6670   36.9610 O   0  0  0  0  0  0  0  0  0  0  0  0
   43.6210   22.0050   36.2070 C   0  0  0  0  0  0  0  0  0  0  0  0
   43.9920   20.9420   35.3800 C   0  0  0  0  0  0  0  0  0  0  0  0
   45.0820   21.0360   34.5210 C   0  0  0  0  0  0  0  0  0  0  0  0
   45.8030   22.2370   34.5090 C   0  0  0  0  0  0  0  0  0  0  0  0
   45.4420   23.2920   35.3230 C   0  0  0  0  0  0  0  0  0  0  0  0
   46.0990   24.5050   35.3540 C   0  0  0  0  0  0  0  0  0  0  0  0
   45.6590   25.5220   36.2000 C   0  0  0  0  0  0  0  0  0  0  0  0
   44.5520   25.3620   37.0380 C   0  0  0  0  0  0  0  0  0  0  0  0
   43.9070   24.1400   36.9930 C   0  0  0  0  0  0  0  0  0  0  0  0
   44.3640   23.1600   36.1520 C   0  0  0  0  0  0  0  0  0  0  0  0
   40.8319   22.7100   38.7346 H   0  0  0  0  0  0  0  0  0  0  0  0
   39.1999   22.4277   34.0869 H   0  0  0  0  0  0  0  0  0  0  0  0
   43.4090   20.0096   35.4088 H   0  0  0  0  0  0  0  0  0  0  0  0
   45.3684   20.1949   33.8725 H   0  0  0  0  0  0  0  0  0  0  0  0
   46.6704   22.3411   33.8405 H   0  0  0  0  0  0  0  0  0  0  0  0
   46.9740   24.6703   34.7082 H   0  0  0  0  0  0  0  0  0  0  0  0
   46.1998   26.4799   36.2082 H   0  0  0  0  0  0  0  0  0  0  0  0
   44.2102   26.1699   37.7017 H   0  0  0  0  0  0  0  0  0  0  0  0
   43.0297   23.9553   37.6304 H   0  0  0  0  0  0  0  0  0  0  0  0
  1 11  1  0
  1  2  2  0
  3  2  1  0
  3  7  1  0
  4  3  2  0
  5  6  2  0
  5  4  1  0
  6  1  1  0
  7 10  1  0
  7  9  1  0
  8  7  1  0
 12 11  1  0
 13 12  2  0
 14 13  1  0
 15 14  2  0
 15 16  1  0
 16 17  1  0
 16 21  2  0
 17 18  2  0
 18 19  1  0
 20 19  2  0
 21 12  1  0
 21 20  1  0
  2 22  1  0
  5 23  1  0
 13 24  1  0
 14 25  1  0
 15 26  1  0
 17 27  1  0
 18 28  1  0
 19 29  1  0
 20 30  1  0
M  ISO  8  22  14  23  14  24  14  25  14  26  14  27  14  28  14  29  14
M  ISO  1  30  14
M  END
>  <minimizedAffinity>  (1) 
-5.32286453

>  <minimizedRMSD>  (1) 
2.18278933

$$$$
