
     RDKit          3D

 28 30  0  0  0  0  0  0  0  0999 V2000
   41.2920   22.2390   36.6480 C   0  0  0  0  0  0  0  0  0  0  0  0
   40.5090   22.7720   37.6910 C   0  0  0  0  0  0  0  0  0  0  0  0
   39.1720   23.0690   37.4000 C   0  0  0  0  0  0  0  0  0  0  0  0
   38.7110   22.8320   36.1540 N   0  0  0  0  0  0  0  0  0  0  0  0
   39.5080   22.3150   35.1800 C   0  0  0  0  0  0  0  0  0  0  0  0
   40.7760   22.0230   35.4230 N   0  0  0  0  0  0  0  0  0  0  0  0
   38.3980   23.6190   38.4930 C   0  0  0  0  0  0  0  0  0  0  0  0
   37.9410   24.8860   38.1740 F   0  0  0  0  0  0  0  0  0  0  0  0
   39.2660   23.8030   39.5540 F   0  0  0  0  0  0  0  0  0  0  0  0
   37.3220   22.8510   38.8540 F   0  0  0  0  0  0  0  0  0  0  0  0
   42.6160   21.9290   36.8820 O   0  0  0  0  0  0  0  0  0  0  0  0
   43.6540   22.2930   36.0610 C   0  0  0  0  0  0  0  0  0  0  0  0
   44.3320   21.8040   34.9650 C   0  0  0  0  0  0  0  0  0  0  0  0
   45.3050   22.6500   34.5820 N   0  0  0  0  0  0  0  0  0  0  0  0
   45.2790   23.6900   35.4080 C   0  0  0  0  0  0  0  0  0  0  0  0
   46.1170   24.7820   35.3580 C   0  0  0  0  0  0  0  0  0  0  0  0
   45.9690   25.7880   36.2840 C   0  0  0  0  0  0  0  0  0  0  0  0
   44.9760   25.6450   37.2300 C   0  0  0  0  0  0  0  0  0  0  0  0
   44.1480   24.5450   37.2650 C   0  0  0  0  0  0  0  0  0  0  0  0
   44.2700   23.5170   36.3460 C   0  0  0  0  0  0  0  0  0  0  0  0
   40.9303   22.9474   38.6918 H   0  0  0  0  0  0  0  0  0  0  0  0
   39.0930   22.1372   34.1769 H   0  0  0  0  0  0  0  0  0  0  0  0
   44.1071   20.8482   34.4691 H   0  0  0  0  0  0  0  0  0  0  0  0
   45.9523   22.5159   33.7921 H   0  0  0  0  0  0  0  0  0  0  0  0
   46.8969   24.8488   34.5851 H   0  0  0  0  0  0  0  0  0  0  0  0
   46.6195   26.6750   36.2705 H   0  0  0  0  0  0  0  0  0  0  0  0
   44.8406   26.4362   37.9821 H   0  0  0  0  0  0  0  0  0  0  0  0
   43.3714   24.4818   38.0415 H   0  0  0  0  0  0  0  0  0  0  0  0
  1 11  1  0
  1  2  2  0
  3  2  1  0
  3  7  1  0
  4  3  2  0
  5  6  2  0
  5  4  1  0
  6  1  1  0
  7 10  1  0
  7  9  1  0
  8  7  1  0
 12 20  1  0
 12 11  1  0
 13 12  2  0
 14 13  1  0
 14 15  1  0
 15 20  2  0
 16 15  1  0
 16 17  2  0
 17 18  1  0
 18 19  2  0
 20 19  1  0
  2 21  1  0
  5 22  1  0
 13 23  1  0
 14 24  1  0
 16 25  1  0
 17 26  1  0
 18 27  1  0
 19 28  1  0
M  ISO  8  21  14  22  14  23  14  24   9  25  14  26  14  27  14  28  14
M  END
>  <minimizedAffinity>  (1) 
-5.22235537

>  <minimizedRMSD>  (1) 
2.51096344

$$$$
