
     RDKit          3D

 24 25  0  0  0  0  0  0  0  0999 V2000
   40.9530   22.0820   36.4480 C   0  0  0  0  0  0  0  0  0  0  0  0
   40.2670   22.5920   37.5650 C   0  0  0  0  0  0  0  0  0  0  0  0
   38.9920   23.1280   37.3490 C   0  0  0  0  0  0  0  0  0  0  0  0
   38.4780   23.1320   36.0900 N   0  0  0  0  0  0  0  0  0  0  0  0
   39.1940   22.6210   35.0440 C   0  0  0  0  0  0  0  0  0  0  0  0
   40.4150   22.1060   35.2340 N   0  0  0  0  0  0  0  0  0  0  0  0
   38.3180   23.6440   38.5350 C   0  0  0  0  0  0  0  0  0  0  0  0
   37.8110   24.8870   38.2940 F   0  0  0  0  0  0  0  0  0  0  0  0
   39.2720   23.7730   39.5170 F   0  0  0  0  0  0  0  0  0  0  0  0
   37.2710   22.8260   38.9480 F   0  0  0  0  0  0  0  0  0  0  0  0
   42.2150   21.5410   36.5990 O   0  0  0  0  0  0  0  0  0  0  0  0
   43.3160   22.3390   36.4260 C   0  0  0  0  0  0  0  0  0  0  0  0
   43.4020   23.6880   36.6690 C   0  0  0  0  0  0  0  0  0  0  0  0
   44.5920   24.3460   36.4430 C   0  0  0  0  0  0  0  0  0  0  0  0
   45.7020   23.6550   35.9730 C   0  0  0  0  0  0  0  0  0  0  0  0
   45.6330   22.3010   35.7240 C   0  0  0  0  0  0  0  0  0  0  0  0
   44.4120   21.6740   35.9660 C   0  0  0  0  0  0  0  0  0  0  0  0
   40.7150   22.5705   38.5694 H   0  0  0  0  0  0  0  0  0  0  0  0
   38.7613   22.6330   34.0327 H   0  0  0  0  0  0  0  0  0  0  0  0
   42.5266   24.2400   37.0417 H   0  0  0  0  0  0  0  0  0  0  0  0
   44.6634   25.4265   36.6363 H   0  0  0  0  0  0  0  0  0  0  0  0
   46.6450   24.1937   35.7979 H   0  0  0  0  0  0  0  0  0  0  0  0
   46.5028   21.7404   35.3509 H   0  0  0  0  0  0  0  0  0  0  0  0
   44.3298   20.5935   35.7770 H   0  0  0  0  0  0  0  0  0  0  0  0
  1 11  1  0
  1  2  2  0
  3  2  1  0
  3  7  1  0
  4  3  2  0
  5  6  2  0
  5  4  1  0
  6  1  1  0
  7 10  1  0
  7  9  1  0
  8  7  1  0
 12 11  1  0
 12 13  2  0
 14 13  1  0
 15 14  2  0
 16 17  2  0
 16 15  1  0
 17 12  1  0
  2 18  1  0
  5 19  1  0
 13 20  1  0
 14 21  1  0
 15 22  1  0
 16 23  1  0
 17 24  1  0
M  ISO  7  18  14  19  14  20  14  21  14  22  14  23  14  24  14
M  END
>  <minimizedAffinity>  (1) 
-4.8328433

>  <minimizedRMSD>  (1) 
2.18040919

$$$$
