
     RDKit          3D

 25 27  0  0  0  0  0  0  0  0999 V2000
   41.2100   22.1080   36.6920 C   0  0  0  0  0  0  0  0  0  0  0  0
   40.4330   22.6640   37.7220 C   0  0  0  0  0  0  0  0  0  0  0  0
   39.1270   23.0620   37.3990 C   0  0  0  0  0  0  0  0  0  0  0  0
   38.6900   22.8960   36.1410 N   0  0  0  0  0  0  0  0  0  0  0  0
   39.4950   22.3450   35.1710 C   0  0  0  0  0  0  0  0  0  0  0  0
   40.7320   21.9610   35.4530 N   0  0  0  0  0  0  0  0  0  0  0  0
   38.3720   23.6280   38.5010 C   0  0  0  0  0  0  0  0  0  0  0  0
   37.8920   24.8660   38.1750 F   0  0  0  0  0  0  0  0  0  0  0  0
   39.2490   23.8220   39.5550 F   0  0  0  0  0  0  0  0  0  0  0  0
   37.2910   22.8390   38.8740 F   0  0  0  0  0  0  0  0  0  0  0  0
   42.5130   21.6970   36.9630 O   0  0  0  0  0  0  0  0  0  0  0  0
   45.5910   24.8070   35.7050 N   0  0  0  0  0  0  0  0  0  0  0  0
   44.7670   25.2420   36.6770 C   0  0  0  0  0  0  0  0  0  0  0  0
   43.8810   24.2840   37.0080 N   0  0  0  0  0  0  0  0  0  0  0  0
   44.1180   23.2160   36.2560 C   0  0  0  0  0  0  0  0  0  0  0  0
   43.5740   21.9500   36.1190 C   0  0  0  0  0  0  0  0  0  0  0  0
   44.0850   21.0680   35.2090 N   0  0  0  0  0  0  0  0  0  0  0  0
   45.1410   21.4370   34.4300 C   0  0  0  0  0  0  0  0  0  0  0  0
   45.7090   22.6740   34.5290 N   0  0  0  0  0  0  0  0  0  0  0  0
   45.1970   23.5480   35.4340 C   0  0  0  0  0  0  0  0  0  0  0  0
   40.8323   22.7824   38.7401 H   0  0  0  0  0  0  0  0  0  0  0  0
   39.1075   22.2216   34.1490 H   0  0  0  0  0  0  0  0  0  0  0  0
   46.3611   25.3279   35.2617 H   0  0  0  0  0  0  0  0  0  0  0  0
   44.8116   26.2405   37.1364 H   0  0  0  0  0  0  0  0  0  0  0  0
   45.5462   20.7186   33.7022 H   0  0  0  0  0  0  0  0  0  0  0  0
  1 11  1  0
  1  2  2  0
  3  2  1  0
  3  7  1  0
  4  3  2  0
  5  6  2  0
  5  4  1  0
  6  1  1  0
  7 10  1  0
  7  9  1  0
  8  7  1  0
 12 13  1  0
 13 14  2  0
 15 14  1  0
 16 15  2  0
 16 11  1  0
 17 16  1  0
 18 19  1  0
 18 17  2  0
 19 20  2  0
 20 12  1  0
 20 15  1  0
  2 21  1  0
  5 22  1  0
 12 23  1  0
 13 24  1  0
 18 25  1  0
M  ISO  5  21  14  22  14  23   9  24  14  25  14
M  END
>  <minimizedAffinity>  (1) 
-4.80890322

>  <minimizedRMSD>  (1) 
1.80955827

$$$$
