
     RDKit          3D

 30 31  0  0  0  0  0  0  0  0999 V2000
   41.0620   22.3210   36.4320 C   0  0  0  0  0  0  0  0  0  0  0  0
   40.3570   22.8270   37.5500 C   0  0  0  0  0  0  0  0  0  0  0  0
   38.9900   23.0860   37.3750 C   0  0  0  0  0  0  0  0  0  0  0  0
   38.4230   22.8430   36.1700 N   0  0  0  0  0  0  0  0  0  0  0  0
   39.1600   22.3550   35.1320 C   0  0  0  0  0  0  0  0  0  0  0  0
   40.4570   22.0990   35.2640 N   0  0  0  0  0  0  0  0  0  0  0  0
   38.3060   23.6030   38.5460 C   0  0  0  0  0  0  0  0  0  0  0  0
   37.8120   24.8620   38.2900 F   0  0  0  0  0  0  0  0  0  0  0  0
   39.2610   23.7650   39.5330 F   0  0  0  0  0  0  0  0  0  0  0  0
   37.2760   22.8000   38.9750 F   0  0  0  0  0  0  0  0  0  0  0  0
   42.4190   22.0510   36.5630 O   0  0  0  0  0  0  0  0  0  0  0  0
   43.3910   22.7160   35.8370 C   0  0  0  0  0  0  0  0  0  0  0  0
   44.7210   22.0250   36.0800 C   0  0  0  0  0  0  0  0  0  0  0  0
   45.8900   22.8310   35.5600 C   0  0  0  0  0  0  0  0  0  0  0  0
   45.8850   24.2530   36.0510 C   0  0  0  0  0  0  0  0  0  0  0  0
   44.7970   24.3830   37.0720 C   0  0  0  0  0  0  0  0  0  0  0  0
   43.4760   24.1340   36.3920 C   0  0  0  0  0  0  0  0  0  0  0  0
   40.8584   23.0088   38.5121 H   0  0  0  0  0  0  0  0  0  0  0  0
   38.6704   22.1693   34.1646 H   0  0  0  0  0  0  0  0  0  0  0  0
   43.1562   22.7221   34.7624 H   0  0  0  0  0  0  0  0  0  0  0  0
   44.8488   21.8742   37.1621 H   0  0  0  0  0  0  0  0  0  0  0  0
   44.7061   21.0669   35.5398 H   0  0  0  0  0  0  0  0  0  0  0  0
   45.8495   22.8390   34.4608 H   0  0  0  0  0  0  0  0  0  0  0  0
   46.8099   22.3564   35.9322 H   0  0  0  0  0  0  0  0  0  0  0  0
   46.8564   24.4945   36.5071 H   0  0  0  0  0  0  0  0  0  0  0  0
   45.7113   24.9466   35.2151 H   0  0  0  0  0  0  0  0  0  0  0  0
   44.9482   23.6438   37.8724 H   0  0  0  0  0  0  0  0  0  0  0  0
   44.8112   25.3902   37.5139 H   0  0  0  0  0  0  0  0  0  0  0  0
   43.3597   24.8492   35.5644 H   0  0  0  0  0  0  0  0  0  0  0  0
   42.6757   24.2618   37.1358 H   0  0  0  0  0  0  0  0  0  0  0  0
  1 11  1  0
  1  2  2  0
  3  2  1  0
  3  7  1  0
  4  3  2  0
  5  6  2  0
  5  4  1  0
  6  1  1  0
  7 10  1  0
  7  9  1  0
  8  7  1  0
 12 13  1  0
 12 17  1  0
 12 11  1  0
 14 15  1  0
 14 13  1  0
 15 16  1  0
 17 16  1  0
  2 18  1  0
  5 19  1  0
 12 20  1  0
 13 21  1  0
 13 22  1  0
 14 23  1  0
 14 24  1  0
 15 25  1  0
 15 26  1  0
 16 27  1  0
 16 28  1  0
 17 29  1  0
 17 30  1  0
M  ISO  8  18  14  19  14  20  13  21  13  22  13  23  13  24  13  25  13
M  ISO  5  26  13  27  13  28  13  29  13  30  13
M  END
>  <minimizedAffinity>  (1) 
-4.7171917

>  <minimizedRMSD>  (1) 
1.99326384

$$$$
