
     RDKit          3D

 21 22  0  0  0  0  0  0  0  0999 V2000
   41.2290   22.0910   36.6980 C   0  0  0  0  0  0  0  0  0  0  0  0
   40.4400   22.6500   37.7410 C   0  0  0  0  0  0  0  0  0  0  0  0
   39.1430   23.0420   37.4080 C   0  0  0  0  0  0  0  0  0  0  0  0
   38.6970   22.8770   36.1350 N   0  0  0  0  0  0  0  0  0  0  0  0
   39.4930   22.3340   35.1720 C   0  0  0  0  0  0  0  0  0  0  0  0
   40.7470   21.9480   35.4640 N   0  0  0  0  0  0  0  0  0  0  0  0
   38.3680   23.6100   38.5000 C   0  0  0  0  0  0  0  0  0  0  0  0
   37.8860   24.8370   38.1570 F   0  0  0  0  0  0  0  0  0  0  0  0
   39.2490   23.8170   39.5490 F   0  0  0  0  0  0  0  0  0  0  0  0
   37.3110   22.8130   38.8850 F   0  0  0  0  0  0  0  0  0  0  0  0
   42.5210   21.6820   36.9510 O   0  0  0  0  0  0  0  0  0  0  0  0
   42.8770   20.3930   36.5990 C   0  0  0  0  0  0  0  0  0  0  0  0
   43.4000   19.7160   35.5150 C   0  0  0  0  0  0  0  0  0  0  0  0
   43.5090   18.4230   35.8170 N   0  0  0  0  0  0  0  0  0  0  0  0
   43.0630   18.2630   37.0810 C   0  0  0  0  0  0  0  0  0  0  0  0
   42.6660   19.4680   37.5830 N   0  0  0  0  0  0  0  0  0  0  0  0
   40.8335   22.7677   38.7614 H   0  0  0  0  0  0  0  0  0  0  0  0
   39.1072   22.2107   34.1493 H   0  0  0  0  0  0  0  0  0  0  0  0
   43.6819   20.1720   34.5545 H   0  0  0  0  0  0  0  0  0  0  0  0
   43.0254   17.3069   37.6236 H   0  0  0  0  0  0  0  0  0  0  0  0
   42.2817   19.6462   38.5218 H   0  0  0  0  0  0  0  0  0  0  0  0
  1 11  1  0
  1  2  2  0
  3  2  1  0
  3  7  1  0
  4  3  2  0
  5  6  2  0
  5  4  1  0
  6  1  1  0
  7 10  1  0
  7  9  1  0
  8  7  1  0
 12 11  1  0
 12 16  1  0
 13 14  1  0
 13 12  2  0
 14 15  2  0
 15 16  1  0
  2 17  1  0
  5 18  1  0
 13 19  1  0
 15 20  1  0
 16 21  1  0
M  ISO  5  17  14  18  14  19  14  20  14  21   9
M  END
>  <minimizedAffinity>  (1) 
-4.65555382

>  <minimizedRMSD>  (1) 
1.14991367

$$$$
