
     RDKit          3D

 29 30  0  0  0  0  0  0  0  0999 V2000
   40.9570   22.1530   36.3810 C   0  0  0  0  0  0  0  0  0  0  0  0
   40.2890   22.6460   37.5330 C   0  0  0  0  0  0  0  0  0  0  0  0
   38.9940   23.1070   37.3440 C   0  0  0  0  0  0  0  0  0  0  0  0
   38.4480   23.0650   36.1110 N   0  0  0  0  0  0  0  0  0  0  0  0
   39.1380   22.5780   35.0310 C   0  0  0  0  0  0  0  0  0  0  0  0
   40.3790   22.1300   35.1800 N   0  0  0  0  0  0  0  0  0  0  0  0
   38.3290   23.6110   38.5260 C   0  0  0  0  0  0  0  0  0  0  0  0
   37.8500   24.8900   38.3040 F   0  0  0  0  0  0  0  0  0  0  0  0
   39.3110   23.7460   39.5050 F   0  0  0  0  0  0  0  0  0  0  0  0
   37.2990   22.8240   38.9720 F   0  0  0  0  0  0  0  0  0  0  0  0
   42.2590   21.6760   36.5030 O   0  0  0  0  0  0  0  0  0  0  0  0
   45.4820   24.3110   36.0990 N   0  0  0  0  0  0  0  0  0  0  0  0
   45.7220   22.9090   36.0450 C   0  0  0  0  0  0  0  0  0  0  0  0
   44.5360   22.0740   35.6980 C   0  0  0  0  0  0  0  0  0  0  0  0
   43.3840   22.4780   36.5760 C   0  0  0  0  0  0  0  0  0  0  0  0
   43.1020   23.9370   36.2310 C   0  0  0  0  0  0  0  0  0  0  0  0
   44.2900   24.6980   36.8050 C   0  0  0  0  0  0  0  0  0  0  0  0
   40.7718   22.6616   38.5213 H   0  0  0  0  0  0  0  0  0  0  0  0
   38.6626   22.5584   34.0392 H   0  0  0  0  0  0  0  0  0  0  0  0
   45.4082   24.6598   35.1327 H   0  0  0  0  0  0  0  0  0  0  0  0
   46.4998   22.7259   35.2891 H   0  0  0  0  0  0  0  0  0  0  0  0
   46.0179   22.6109   37.0616 H   0  0  0  0  0  0  0  0  0  0  0  0
   44.2692   22.2316   34.6426 H   0  0  0  0  0  0  0  0  0  0  0  0
   44.7695   21.0105   35.8544 H   0  0  0  0  0  0  0  0  0  0  0  0
   43.6675   22.3459   37.6306 H   0  0  0  0  0  0  0  0  0  0  0  0
   43.0412   24.0746   35.1413 H   0  0  0  0  0  0  0  0  0  0  0  0
   42.1426   24.2868   36.6399 H   0  0  0  0  0  0  0  0  0  0  0  0
   44.4000   24.4581   37.8729 H   0  0  0  0  0  0  0  0  0  0  0  0
   44.1269   25.7799   36.6919 H   0  0  0  0  0  0  0  0  0  0  0  0
  1 11  1  0
  1  2  2  0
  3  2  1  0
  3  7  1  0
  4  3  2  0
  5  6  2  0
  5  4  1  0
  6  1  1  0
  7 10  1  0
  7  9  1  0
  8  7  1  0
 11 15  1  0
 12 17  1  0
 13 12  1  0
 14 13  1  0
 14 15  1  0
 16 15  1  0
 16 17  1  0
  2 18  1  0
  5 19  1  0
 12 20  1  0
 13 21  1  0
 13 22  1  0
 14 23  1  0
 14 24  1  0
 15 25  1  0
 16 26  1  0
 16 27  1  0
 17 28  1  0
 17 29  1  0
M  ISO  8  18  14  19  14  20   5  21  13  22  13  23  13  24  13  25  13
M  ISO  4  26  13  27  13  28  13  29  13
M  END
>  <minimizedAffinity>  (1) 
-4.64501238

>  <minimizedRMSD>  (1) 
2.15503383

$$$$
