
     RDKit          3D

 21 22  0  0  0  0  0  0  0  0999 V2000
   41.2140   22.2090   36.6290 C   0  0  0  0  0  0  0  0  0  0  0  0
   40.4290   22.7270   37.6760 C   0  0  0  0  0  0  0  0  0  0  0  0
   39.1150   23.0710   37.3990 C   0  0  0  0  0  0  0  0  0  0  0  0
   38.6460   22.8960   36.1450 N   0  0  0  0  0  0  0  0  0  0  0  0
   39.4500   22.3880   35.1610 C   0  0  0  0  0  0  0  0  0  0  0  0
   40.7120   22.0540   35.4100 N   0  0  0  0  0  0  0  0  0  0  0  0
   38.3530   23.6010   38.5140 C   0  0  0  0  0  0  0  0  0  0  0  0
   37.8650   24.8570   38.2030 F   0  0  0  0  0  0  0  0  0  0  0  0
   39.2400   23.8010   39.5540 F   0  0  0  0  0  0  0  0  0  0  0  0
   37.3070   22.8020   38.8940 F   0  0  0  0  0  0  0  0  0  0  0  0
   42.5360   21.8540   36.8700 O   0  0  0  0  0  0  0  0  0  0  0  0
   44.6610   24.5080   36.3500 N   0  0  0  0  0  0  0  0  0  0  0  0
   43.5730   23.9040   36.8110 N   0  0  0  0  0  0  0  0  0  0  0  0
   43.6140   22.5880   36.4480 C   0  0  0  0  0  0  0  0  0  0  0  0
   44.7960   22.4180   35.7340 C   0  0  0  0  0  0  0  0  0  0  0  0
   45.4440   23.6400   35.6830 C   0  0  0  0  0  0  0  0  0  0  0  0
   40.8464   22.8553   38.6856 H   0  0  0  0  0  0  0  0  0  0  0  0
   39.0450   22.2539   34.1471 H   0  0  0  0  0  0  0  0  0  0  0  0
   44.8770   25.5061   36.4845 H   0  0  0  0  0  0  0  0  0  0  0  0
   45.1528   21.4777   35.2884 H   0  0  0  0  0  0  0  0  0  0  0  0
   46.4056   23.8579   35.1954 H   0  0  0  0  0  0  0  0  0  0  0  0
  1 11  1  0
  1  2  2  0
  3  2  1  0
  3  7  1  0
  4  3  2  0
  5  6  2  0
  5  4  1  0
  6  1  1  0
  7 10  1  0
  7  9  1  0
  8  7  1  0
 12 13  1  0
 14 13  2  0
 14 11  1  0
 15 14  1  0
 16 15  2  0
 16 12  1  0
  2 17  1  0
  5 18  1  0
 12 19  1  0
 15 20  1  0
 16 21  1  0
M  ISO  5  17  14  18  14  19   9  20  14  21  14
M  END
>  <minimizedAffinity>  (1) 
-4.4176712

>  <minimizedRMSD>  (1) 
1.90815461

$$$$
