
     RDKit          3D

 20 21  0  0  0  0  0  0  0  0999 V2000
   41.1970   22.1710   36.6570 C   0  0  0  0  0  0  0  0  0  0  0  0
   40.4030   22.6960   37.6970 C   0  0  0  0  0  0  0  0  0  0  0  0
   39.0920   23.0550   37.3980 C   0  0  0  0  0  0  0  0  0  0  0  0
   38.6290   22.8920   36.1430 N   0  0  0  0  0  0  0  0  0  0  0  0
   39.4350   22.3760   35.1610 C   0  0  0  0  0  0  0  0  0  0  0  0
   40.6860   22.0260   35.4190 N   0  0  0  0  0  0  0  0  0  0  0  0
   38.3400   23.5930   38.5230 C   0  0  0  0  0  0  0  0  0  0  0  0
   37.8470   24.8480   38.2010 F   0  0  0  0  0  0  0  0  0  0  0  0
   39.2330   23.8130   39.5530 F   0  0  0  0  0  0  0  0  0  0  0  0
   37.2850   22.8110   38.9050 F   0  0  0  0  0  0  0  0  0  0  0  0
   42.4960   21.7990   36.8770 O   0  0  0  0  0  0  0  0  0  0  0  0
   43.5850   22.4100   36.2800 C   0  0  0  0  0  0  0  0  0  0  0  0
   44.4260   21.6110   35.3780 C   0  0  0  0  0  0  0  0  0  0  0  0
   45.6130   22.9200   34.9510 S   0  0  0  0  0  0  0  0  0  0  0  0
   44.8630   24.2210   35.9590 C   0  0  0  0  0  0  0  0  0  0  0  0
   43.6230   23.6730   36.6890 N   0  0  0  0  0  0  0  0  0  0  0  0
   40.8070   22.8180   38.7128 H   0  0  0  0  0  0  0  0  0  0  0  0
   39.0365   22.2508   34.1434 H   0  0  0  0  0  0  0  0  0  0  0  0
   44.3589   20.5593   35.0627 H   0  0  0  0  0  0  0  0  0  0  0  0
   45.2376   25.2522   36.0388 H   0  0  0  0  0  0  0  0  0  0  0  0
  1 11  1  0
  1  2  2  0
  3  2  1  0
  3  7  1  0
  4  3  2  0
  5  6  2  0
  5  4  1  0
  6  1  1  0
  7 10  1  0
  7  9  1  0
  8  7  1  0
 12 16  1  0
 12 11  1  0
 13 12  2  0
 14 13  1  0
 14 15  1  0
 15 16  2  0
  2 17  1  0
  5 18  1  0
 13 19  1  0
 15 20  1  0
M  ISO  4  17  14  18  14  19  14  20  14
M  END
>  <minimizedAffinity>  (1) 
-4.26169682

>  <minimizedRMSD>  (1) 
1.73606622

$$$$
