
     RDKit          3D

 23 23  0  0  0  0  0  0  0  0999 V2000
   41.1830   22.2520   36.5520 C   0  0  0  0  0  0  0  0  0  0  0  0
   40.4340   22.7810   37.6430 C   0  0  0  0  0  0  0  0  0  0  0  0
   39.0870   23.0650   37.3890 C   0  0  0  0  0  0  0  0  0  0  0  0
   38.5790   22.8350   36.1630 N   0  0  0  0  0  0  0  0  0  0  0  0
   39.3500   22.3270   35.1580 C   0  0  0  0  0  0  0  0  0  0  0  0
   40.6360   22.0420   35.3580 N   0  0  0  0  0  0  0  0  0  0  0  0
   38.3700   23.5990   38.5260 C   0  0  0  0  0  0  0  0  0  0  0  0
   37.8660   24.8520   38.2300 F   0  0  0  0  0  0  0  0  0  0  0  0
   39.2810   23.7830   39.5560 F   0  0  0  0  0  0  0  0  0  0  0  0
   37.3130   22.8160   38.9310 F   0  0  0  0  0  0  0  0  0  0  0  0
   42.5290   21.9480   36.7390 O   0  0  0  0  0  0  0  0  0  0  0  0
   43.5660   22.5100   35.9980 C   0  0  0  0  0  0  0  0  0  0  0  0
   44.1520   23.7600   36.6330 C   0  0  0  0  0  0  0  0  0  0  0  0
   44.6990   21.5080   35.9030 C   0  0  0  0  0  0  0  0  0  0  0  0
   40.8888   22.9563   38.6291 H   0  0  0  0  0  0  0  0  0  0  0  0
   38.9032   22.1503   34.1685 H   0  0  0  0  0  0  0  0  0  0  0  0
   43.1377   22.7767   35.0206 H   0  0  0  0  0  0  0  0  0  0  0  0
   44.1094   23.6692   37.7284 H   0  0  0  0  0  0  0  0  0  0  0  0
   45.1986   23.8766   36.3151 H   0  0  0  0  0  0  0  0  0  0  0  0
   43.5722   24.6391   36.3151 H   0  0  0  0  0  0  0  0  0  0  0  0
   45.0218   21.2225   36.9151 H   0  0  0  0  0  0  0  0  0  0  0  0
   44.3538   20.6143   35.3625 H   0  0  0  0  0  0  0  0  0  0  0  0
   45.5438   21.9599   35.3625 H   0  0  0  0  0  0  0  0  0  0  0  0
  1 11  1  0
  1  2  2  0
  3  2  1  0
  3  7  1  0
  4  3  2  0
  5  6  2  0
  5  4  1  0
  6  1  1  0
  7 10  1  0
  7  9  1  0
  8  7  1  0
 12 13  1  0
 12 11  1  0
 14 12  1  0
  2 15  1  0
  5 16  1  0
 12 17  1  0
 13 18  1  0
 13 19  1  0
 13 20  1  0
 14 21  1  0
 14 22  1  0
 14 23  1  0
M  ISO  8  15  14  16  14  17   8  18   8  19   8  20   8  21   8  22   8
M  ISO  1  23   8
M  END
>  <minimizedAffinity>  (1) 
-4.15623617

>  <minimizedRMSD>  (1) 
1.44666886

$$$$
