
     RDKit          3D

 21 22  0  0  0  0  0  0  0  0999 V2000
   41.1420   21.9130   36.7110 C   0  0  0  0  0  0  0  0  0  0  0  0
   40.3610   22.4750   37.7450 C   0  0  0  0  0  0  0  0  0  0  0  0
   39.1660   23.1100   37.4000 C   0  0  0  0  0  0  0  0  0  0  0  0
   38.8240   23.1510   36.1010 N   0  0  0  0  0  0  0  0  0  0  0  0
   39.6100   22.5940   35.1280 C   0  0  0  0  0  0  0  0  0  0  0  0
   40.7460   21.9880   35.4310 N   0  0  0  0  0  0  0  0  0  0  0  0
   38.4170   23.6630   38.5150 C   0  0  0  0  0  0  0  0  0  0  0  0
   37.9800   24.9300   38.1860 F   0  0  0  0  0  0  0  0  0  0  0  0
   39.2950   23.8190   39.5610 F   0  0  0  0  0  0  0  0  0  0  0  0
   37.3190   22.8910   38.8530 F   0  0  0  0  0  0  0  0  0  0  0  0
   42.3200   21.2770   36.9760 O   0  0  0  0  0  0  0  0  0  0  0  0
   42.8990   20.1850   36.3570 C   0  0  0  0  0  0  0  0  0  0  0  0
   44.4250   20.3460   36.1610 C   0  0  0  0  0  0  0  0  0  0  0  0
   43.8410   19.2750   37.0450 C   0  0  0  0  0  0  0  0  0  0  0  0
   40.6855   22.4141   38.7943 H   0  0  0  0  0  0  0  0  0  0  0  0
   39.2914   22.6515   34.0767 H   0  0  0  0  0  0  0  0  0  0  0  0
   41.9947   19.9755   35.7667 H   0  0  0  0  0  0  0  0  0  0  0  0
   44.8930   20.0805   35.2016 H   0  0  0  0  0  0  0  0  0  0  0  0
   45.1554   21.1594   36.2832 H   0  0  0  0  0  0  0  0  0  0  0  0
   43.9642   19.3441   38.1359 H   0  0  0  0  0  0  0  0  0  0  0  0
   43.9489   18.1813   37.0923 H   0  0  0  0  0  0  0  0  0  0  0  0
  1 11  1  0
  1  2  2  0
  3  2  1  0
  3  7  1  0
  4  3  2  0
  5  6  2  0
  5  4  1  0
  6  1  1  0
  7 10  1  0
  7  9  1  0
  8  7  1  0
 12 11  1  0
 12 14  1  0
 13 12  1  0
 13 14  1  0
  2 15  1  0
  5 16  1  0
 12 17  1  0
 13 18  1  0
 13 19  1  0
 14 20  1  0
 14 21  1  0
M  ISO  7  15  14  16  14  17  13  18  13  19  13  20  13  21  13
M  END
>  <minimizedAffinity>  (1) 
-4.09789705

>  <minimizedRMSD>  (1) 
1.41539562

$$$$
