
     RDKit          3D

 17 17  0  0  0  0  0  0  0  0999 V2000
   41.2550   22.0290   36.7570 C   0  0  0  0  0  0  0  0  0  0  0  0
   40.4400   22.5860   37.7580 C   0  0  0  0  0  0  0  0  0  0  0  0
   39.1980   23.0770   37.3890 C   0  0  0  0  0  0  0  0  0  0  0  0
   38.8350   22.9950   36.1000 N   0  0  0  0  0  0  0  0  0  0  0  0
   39.6480   22.4490   35.1480 C   0  0  0  0  0  0  0  0  0  0  0  0
   40.8390   21.9740   35.4780 N   0  0  0  0  0  0  0  0  0  0  0  0
   38.4000   23.6400   38.4590 C   0  0  0  0  0  0  0  0  0  0  0  0
   37.9650   24.9070   38.1080 F   0  0  0  0  0  0  0  0  0  0  0  0
   39.2560   23.8280   39.5440 F   0  0  0  0  0  0  0  0  0  0  0  0
   37.3050   22.8920   38.7960 F   0  0  0  0  0  0  0  0  0  0  0  0
   42.5070   21.5240   37.0750 O   0  0  0  0  0  0  0  0  0  0  0  0
   42.7800   20.1370   37.0090 C   0  0  0  0  0  0  0  0  0  0  0  0
   40.7785   22.6307   38.8037 H   0  0  0  0  0  0  0  0  0  0  0  0
   39.3116   22.4037   34.1017 H   0  0  0  0  0  0  0  0  0  0  0  0
   42.8601   19.7302   38.0279 H   0  0  0  0  0  0  0  0  0  0  0  0
   41.9648   19.6279   36.4739 H   0  0  0  0  0  0  0  0  0  0  0  0
   43.7273   19.9748   36.4739 H   0  0  0  0  0  0  0  0  0  0  0  0
  1 11  1  0
  1  2  2  0
  3  2  1  0
  3  7  1  0
  4  3  2  0
  5  6  2  0
  5  4  1  0
  6  1  1  0
  7 10  1  0
  7  9  1  0
  8  7  1  0
 12 11  1  0
  2 13  1  0
  5 14  1  0
 12 15  1  0
 12 16  1  0
 12 17  1  0
M  ISO  5  13  14  14  14  15   8  16   8  17   8
M  END
>  <minimizedAffinity>  (1) 
-4.00732613

>  <minimizedRMSD>  (1) 
0.350137949

$$$$
