
     RDKit          3D

 36 39  0  0  0  0  0  0  0  0999 V2000
   43.0780   21.2930   36.3720 C   0  0  0  0  0  0  0  0  0  0  0  0
   42.8560   20.0210   36.8880 C   0  0  0  0  0  0  0  0  0  0  0  0
   43.8650   19.0970   37.0160 C   0  0  0  0  0  0  0  0  0  0  0  0
   45.1230   19.4500   36.6200 C   0  0  0  0  0  0  0  0  0  0  0  0
   45.3570   20.6990   36.1100 C   0  0  0  0  0  0  0  0  0  0  0  0
   44.3410   21.6220   35.9840 N   0  0  0  0  0  0  0  0  0  0  0  0
   46.7100   20.9530   35.7320 N   0  0  0  0  0  0  0  0  0  0  0  0
   47.6490   20.2310   35.0820 C   0  0  0  0  0  0  0  0  0  0  0  0
   48.7720   20.9600   34.9930 N   0  0  0  0  0  0  0  0  0  0  0  0
   48.5790   22.1650   35.5810 C   0  0  0  0  0  0  0  0  0  0  0  0
   49.4160   23.2520   35.7490 C   0  0  0  0  0  0  0  0  0  0  0  0
   48.8980   24.3230   36.3980 N   0  0  0  0  0  0  0  0  0  0  0  0
   47.6410   24.3440   36.8600 C   0  0  0  0  0  0  0  0  0  0  0  0
   46.8480   23.2700   36.6820 N   0  0  0  0  0  0  0  0  0  0  0  0
   47.2670   22.1540   36.0500 C   0  0  0  0  0  0  0  0  0  0  0  0
   50.7630   23.2560   35.2650 N   0  0  0  0  0  0  0  0  0  0  0  0
   42.2670   22.3500   36.1540 O   0  0  0  0  0  0  0  0  0  0  0  0
   40.9100   22.4810   36.1840 C   0  0  0  0  0  0  0  0  0  0  0  0
   40.2690   22.9570   37.3390 C   0  0  0  0  0  0  0  0  0  0  0  0
   38.8840   23.0660   37.3020 C   0  0  0  0  0  0  0  0  0  0  0  0
   38.2260   22.7200   36.1890 N   0  0  0  0  0  0  0  0  0  0  0  0
   38.8850   22.2600   35.0850 C   0  0  0  0  0  0  0  0  0  0  0  0
   40.2000   22.1480   35.0940 N   0  0  0  0  0  0  0  0  0  0  0  0
   38.2740   23.5680   38.5340 C   0  0  0  0  0  0  0  0  0  0  0  0
   37.7880   24.8500   38.3260 F   0  0  0  0  0  0  0  0  0  0  0  0
   39.2850   23.7200   39.4550 F   0  0  0  0  0  0  0  0  0  0  0  0
   37.2460   22.8140   39.0010 F   0  0  0  0  0  0  0  0  0  0  0  0
   41.8391   19.7453   37.2042 H   0  0  0  0  0  0  0  0  0  0  0  0
   43.6640   18.0969   37.4276 H   0  0  0  0  0  0  0  0  0  0  0  0
   45.9497   18.7300   36.7108 H   0  0  0  0  0  0  0  0  0  0  0  0
   47.5148   19.2121   34.6898 H   0  0  0  0  0  0  0  0  0  0  0  0
   47.2584   25.2335   37.3819 H   0  0  0  0  0  0  0  0  0  0  0  0
   51.3591   24.0838   35.4078 H   0  0  0  0  0  0  0  0  0  0  0  0
   51.1362   22.4311   34.7739 H   0  0  0  0  0  0  0  0  0  0  0  0
   40.8404   23.2327   38.2376 H   0  0  0  0  0  0  0  0  0  0  0  0
   38.3176   21.9817   34.1846 H   0  0  0  0  0  0  0  0  0  0  0  0
  1  2  2  0
  2  3  1  0
  4  3  2  0
  5  4  1  0
  6  5  2  0
  6  1  1  0
  7 15  1  0
  7  5  1  0
  8  7  1  0
  9  8  2  0
  9 10  1  0
 10 11  2  0
 10 15  1  0
 11 12  1  0
 12 13  2  0
 14 13  1  0
 15 14  2  0
 16 11  1  0
 17 18  1  0
 17  1  1  0
 18 19  2  0
 20 19  1  0
 20 24  1  0
 21 20  2  0
 22 23  2  0
 22 21  1  0
 23 18  1  0
 24 27  1  0
 24 26  1  0
 25 24  1  0
  2 28  1  0
  3 29  1  0
  4 30  1  0
  8 31  1  0
 13 32  1  0
 16 33  1  0
 16 34  1  0
 19 35  1  0
 22 36  1  0
M  ISO  7  28  14  29  14  30  14  31  14  32  14  35  14  36  14
M  END
>  <minimizedAffinity>  (1) 
-5.04542637

>  <minimizedRMSD>  (1) 
0.434825003

$$$$
