
     RDKit          3D

 36 38  0  0  0  0  0  0  0  0999 V2000
   43.0850   21.2860   36.4060 C   0  0  0  0  0  0  0  0  0  0  0  0
   42.8610   20.0260   36.9520 C   0  0  0  0  0  0  0  0  0  0  0  0
   43.8390   19.0750   37.0670 C   0  0  0  0  0  0  0  0  0  0  0  0
   45.0980   19.3830   36.6210 C   0  0  0  0  0  0  0  0  0  0  0  0
   45.3350   20.6210   36.0810 C   0  0  0  0  0  0  0  0  0  0  0  0
   44.3420   21.5660   35.9720 N   0  0  0  0  0  0  0  0  0  0  0  0
   46.6770   20.8380   35.6490 N   0  0  0  0  0  0  0  0  0  0  0  0
   47.2640   21.8730   36.3150 C   0  0  0  0  0  0  0  0  0  0  0  0
   48.5810   22.2340   36.0270 C   0  0  0  0  0  0  0  0  0  0  0  0
   49.2330   23.3640   36.7510 C   0  0  0  0  0  0  0  0  0  0  0  0
   49.2140   21.4910   35.0520 C   0  0  0  0  0  0  0  0  0  0  0  0
   50.4160   21.8220   34.7890 O   0  0  0  0  0  0  0  0  0  0  0  0
   48.6150   20.4740   34.4070 N   0  0  0  0  0  0  0  0  0  0  0  0
   47.3440   20.1480   34.7060 C   0  0  0  0  0  0  0  0  0  0  0  0
   46.7030   19.2200   34.1620 O   0  0  0  0  0  0  0  0  0  0  0  0
   42.2840   22.3500   36.2020 O   0  0  0  0  0  0  0  0  0  0  0  0
   40.9290   22.4900   36.2070 C   0  0  0  0  0  0  0  0  0  0  0  0
   40.2770   22.9730   37.3640 C   0  0  0  0  0  0  0  0  0  0  0  0
   38.8950   23.0940   37.3100 C   0  0  0  0  0  0  0  0  0  0  0  0
   38.2480   22.7560   36.1890 N   0  0  0  0  0  0  0  0  0  0  0  0
   38.9130   22.2930   35.0930 C   0  0  0  0  0  0  0  0  0  0  0  0
   40.2280   22.1620   35.1020 N   0  0  0  0  0  0  0  0  0  0  0  0
   38.2790   23.5970   38.5300 C   0  0  0  0  0  0  0  0  0  0  0  0
   37.7800   24.8740   38.3170 F   0  0  0  0  0  0  0  0  0  0  0  0
   39.2750   23.7330   39.4730 F   0  0  0  0  0  0  0  0  0  0  0  0
   37.2480   22.8190   38.9920 F   0  0  0  0  0  0  0  0  0  0  0  0
   41.8493   19.7822   37.3084 H   0  0  0  0  0  0  0  0  0  0  0  0
   43.6204   18.0902   37.5055 H   0  0  0  0  0  0  0  0  0  0  0  0
   45.9099   18.6446   36.6955 H   0  0  0  0  0  0  0  0  0  0  0  0
   46.6985   22.4244   37.0806 H   0  0  0  0  0  0  0  0  0  0  0  0
   49.1417   23.2058   37.8357 H   0  0  0  0  0  0  0  0  0  0  0  0
   50.2969   23.4108   36.4755 H   0  0  0  0  0  0  0  0  0  0  0  0
   48.7410   24.3085   36.4755 H   0  0  0  0  0  0  0  0  0  0  0  0
   49.1276   19.9462   33.6862 H   0  0  0  0  0  0  0  0  0  0  0  0
   40.8408   23.2418   38.2694 H   0  0  0  0  0  0  0  0  0  0  0  0
   38.3473   22.0247   34.1885 H   0  0  0  0  0  0  0  0  0  0  0  0
  1  2  2  0
  2  3  1  0
  4  3  2  0
  5  4  1  0
  6  5  2  0
  6  1  1  0
  7  5  1  0
  7  8  1  0
  9  8  2  0
  9 10  1  0
 11  9  1  0
 12 11  2  0
 13 14  1  0
 13 11  1  0
 14  7  1  0
 15 14  2  0
 16 17  1  0
 16  1  1  0
 17 18  2  0
 19 18  1  0
 19 23  1  0
 20 19  2  0
 21 22  2  0
 21 20  1  0
 22 17  1  0
 23 26  1  0
 23 25  1  0
 24 23  1  0
  2 27  1  0
  3 28  1  0
  4 29  1  0
  8 30  1  0
 10 31  1  0
 10 32  1  0
 10 33  1  0
 13 34  1  0
 18 35  1  0
 21 36  1  0
M  ISO  8  27  14  28  14  29  14  30  14  31   8  32   8  33   8  34   9
M  ISO  2  35  14  36  14
M  END
>  <minimizedAffinity>  (1) 
-4.81462383

>  <minimizedRMSD>  (1) 
0.281377047

$$$$
