
     RDKit          3D

 34 36  0  0  0  0  0  0  0  0999 V2000
   43.1000   21.2690   36.4380 C   0  0  0  0  0  0  0  0  0  0  0  0
   42.8780   20.0140   36.9980 C   0  0  0  0  0  0  0  0  0  0  0  0
   43.8600   19.0700   37.0890 C   0  0  0  0  0  0  0  0  0  0  0  0
   45.1070   19.3650   36.6160 C   0  0  0  0  0  0  0  0  0  0  0  0
   45.3510   20.5930   36.0620 C   0  0  0  0  0  0  0  0  0  0  0  0
   44.3610   21.5430   35.9700 N   0  0  0  0  0  0  0  0  0  0  0  0
   46.6830   20.8010   35.6000 N   0  0  0  0  0  0  0  0  0  0  0  0
   47.3730   19.8400   34.9560 C   0  0  0  0  0  0  0  0  0  0  0  0
   48.6720   20.1550   34.5480 C   0  0  0  0  0  0  0  0  0  0  0  0
   49.1920   21.4060   34.8100 C   0  0  0  0  0  0  0  0  0  0  0  0
   50.5320   21.7290   34.3890 N   0  0  0  0  0  0  0  0  0  0  0  0
   48.4420   22.3290   35.4650 N   0  0  0  0  0  0  0  0  0  0  0  0
   47.1730   22.0260   35.8650 C   0  0  0  0  0  0  0  0  0  0  0  0
   46.5300   22.9240   36.4660 O   0  0  0  0  0  0  0  0  0  0  0  0
   42.3200   22.3500   36.2340 O   0  0  0  0  0  0  0  0  0  0  0  0
   40.9630   22.4950   36.2310 C   0  0  0  0  0  0  0  0  0  0  0  0
   40.3010   22.9730   37.3770 C   0  0  0  0  0  0  0  0  0  0  0  0
   38.9230   23.0970   37.3110 C   0  0  0  0  0  0  0  0  0  0  0  0
   38.2830   22.7660   36.1800 N   0  0  0  0  0  0  0  0  0  0  0  0
   38.9590   22.3070   35.0860 C   0  0  0  0  0  0  0  0  0  0  0  0
   40.2730   22.1780   35.1230 N   0  0  0  0  0  0  0  0  0  0  0  0
   38.2940   23.5970   38.5310 C   0  0  0  0  0  0  0  0  0  0  0  0
   37.7850   24.8660   38.3090 F   0  0  0  0  0  0  0  0  0  0  0  0
   39.2810   23.7360   39.4740 F   0  0  0  0  0  0  0  0  0  0  0  0
   37.2590   22.8220   38.9720 F   0  0  0  0  0  0  0  0  0  0  0  0
   41.8751   19.7743   37.3810 H   0  0  0  0  0  0  0  0  0  0  0  0
   43.6503   18.0872   37.5363 H   0  0  0  0  0  0  0  0  0  0  0  0
   45.9124   18.6185   36.6800 H   0  0  0  0  0  0  0  0  0  0  0  0
   46.9334   18.8509   34.7599 H   0  0  0  0  0  0  0  0  0  0  0  0
   49.2794   19.4063   34.0184 H   0  0  0  0  0  0  0  0  0  0  0  0
   50.9221   22.6622   34.5836 H   0  0  0  0  0  0  0  0  0  0  0  0
   51.0996   21.0266   33.8936 H   0  0  0  0  0  0  0  0  0  0  0  0
   40.8559   23.2377   38.2892 H   0  0  0  0  0  0  0  0  0  0  0  0
   38.4077   22.0439   34.1712 H   0  0  0  0  0  0  0  0  0  0  0  0
  1  2  2  0
  2  3  1  0
  4  3  2  0
  5  4  1  0
  6  5  2  0
  6  1  1  0
  7 13  1  0
  7  5  1  0
  8  7  1  0
  9 10  1  0
  9  8  2  0
 10 12  2  0
 11 10  1  0
 12 13  1  0
 13 14  2  0
 15  1  1  0
 16 15  1  0
 16 17  2  0
 18 17  1  0
 18 22  1  0
 19 18  2  0
 20 21  2  0
 20 19  1  0
 21 16  1  0
 22 25  1  0
 22 24  1  0
 23 22  1  0
  2 26  1  0
  3 27  1  0
  4 28  1  0
  8 29  1  0
  9 30  1  0
 11 31  1  0
 11 32  1  0
 17 33  1  0
 20 34  1  0
M  ISO  7  26  14  27  14  28  14  29  14  30  14  33  14  34  14
M  END
>  <minimizedAffinity>  (1) 
-4.80271387

>  <minimizedRMSD>  (1) 
0.206406504

$$$$
