
     RDKit          3D

 36 38  0  0  0  0  0  0  0  0999 V2000
   43.0830   21.2410   36.4260 C   0  0  0  0  0  0  0  0  0  0  0  0
   42.8430   19.9710   36.9400 C   0  0  0  0  0  0  0  0  0  0  0  0
   43.8070   19.0100   37.0490 C   0  0  0  0  0  0  0  0  0  0  0  0
   45.0720   19.3030   36.6360 C   0  0  0  0  0  0  0  0  0  0  0  0
   45.3320   20.5620   36.1210 C   0  0  0  0  0  0  0  0  0  0  0  0
   44.3600   21.5000   36.0220 N   0  0  0  0  0  0  0  0  0  0  0  0
   46.7420   20.8550   35.6720 C   0  0  0  0  0  0  0  0  0  0  0  0
   46.9650   22.3230   35.9330 C   0  0  0  0  0  0  0  0  0  0  0  0
   48.2030   22.4280   36.8090 C   0  0  0  0  0  0  0  0  0  0  0  0
   48.9220   21.1340   36.4320 C   0  0  0  0  0  0  0  0  0  0  0  0
   47.7640   20.1430   36.5250 C   0  0  0  0  0  0  0  0  0  0  0  0
   42.3050   22.3050   36.2350 O   0  0  0  0  0  0  0  0  0  0  0  0
   40.9520   22.4660   36.2280 C   0  0  0  0  0  0  0  0  0  0  0  0
   40.2990   22.9550   37.3860 C   0  0  0  0  0  0  0  0  0  0  0  0
   38.9140   23.0940   37.3060 C   0  0  0  0  0  0  0  0  0  0  0  0
   38.2720   22.7710   36.1730 N   0  0  0  0  0  0  0  0  0  0  0  0
   38.9450   22.3040   35.0820 C   0  0  0  0  0  0  0  0  0  0  0  0
   40.2490   22.1550   35.1090 N   0  0  0  0  0  0  0  0  0  0  0  0
   38.2900   23.6010   38.5260 C   0  0  0  0  0  0  0  0  0  0  0  0
   37.7890   24.8730   38.3080 F   0  0  0  0  0  0  0  0  0  0  0  0
   39.2790   23.7360   39.4750 F   0  0  0  0  0  0  0  0  0  0  0  0
   37.2560   22.8230   38.9810 F   0  0  0  0  0  0  0  0  0  0  0  0
   41.8241   19.7282   37.2760 H   0  0  0  0  0  0  0  0  0  0  0  0
   43.5671   18.0191   37.4620 H   0  0  0  0  0  0  0  0  0  0  0  0
   45.8728   18.5525   36.7104 H   0  0  0  0  0  0  0  0  0  0  0  0
   46.8532   20.5432   34.6230 H   0  0  0  0  0  0  0  0  0  0  0  0
   47.1254   22.8566   34.9845 H   0  0  0  0  0  0  0  0  0  0  0  0
   46.0916   22.7742   36.4267 H   0  0  0  0  0  0  0  0  0  0  0  0
   48.8040   23.3144   36.5579 H   0  0  0  0  0  0  0  0  0  0  0  0
   47.9958   22.5408   37.8834 H   0  0  0  0  0  0  0  0  0  0  0  0
   49.7239   20.8912   37.1447 H   0  0  0  0  0  0  0  0  0  0  0  0
   49.4318   21.1570   35.4576 H   0  0  0  0  0  0  0  0  0  0  0  0
   47.4156   20.0180   37.5609 H   0  0  0  0  0  0  0  0  0  0  0  0
   48.0034   19.1186   36.2038 H   0  0  0  0  0  0  0  0  0  0  0  0
   40.8551   23.2114   38.2998 H   0  0  0  0  0  0  0  0  0  0  0  0
   38.3880   22.0491   34.1683 H   0  0  0  0  0  0  0  0  0  0  0  0
  1  2  2  0
  2  3  1  0
  4  3  2  0
  5  4  1  0
  6  5  2  0
  6  1  1  0
  7  8  1  0
  7  5  1  0
  7 11  1  0
  8  9  1  0
 10 11  1  0
 10  9  1  0
 12  1  1  0
 13 12  1  0
 13 14  2  0
 15 14  1  0
 15 19  1  0
 16 15  2  0
 17 18  2  0
 17 16  1  0
 18 13  1  0
 19 22  1  0
 19 21  1  0
 20 19  1  0
  2 23  1  0
  3 24  1  0
  4 25  1  0
  7 26  1  0
  8 27  1  0
  8 28  1  0
  9 29  1  0
  9 30  1  0
 10 31  1  0
 10 32  1  0
 11 33  1  0
 11 34  1  0
 14 35  1  0
 17 36  1  0
M  ISO  8  23  14  24  14  25  14  26  13  27  13  28  13  29  13  30  13
M  ISO  6  31  13  32  13  33  13  34  13  35  14  36  14
M  END
>  <minimizedAffinity>  (1) 
-4.70462418

>  <minimizedRMSD>  (1) 
1.40160608

$$$$
