
     RDKit          3D

 39 41  0  0  0  0  0  0  0  0999 V2000
   43.0510   21.1910   36.4100 C   0  0  0  0  0  0  0  0  0  0  0  0
   42.7780   19.9080   36.8750 C   0  0  0  0  0  0  0  0  0  0  0  0
   43.7470   18.9590   37.0100 C   0  0  0  0  0  0  0  0  0  0  0  0
   45.0320   19.2640   36.6800 C   0  0  0  0  0  0  0  0  0  0  0  0
   45.3230   20.5210   36.2190 C   0  0  0  0  0  0  0  0  0  0  0  0
   44.3460   21.4750   36.0840 N   0  0  0  0  0  0  0  0  0  0  0  0
   46.7490   20.8560   35.8530 C   0  0  0  0  0  0  0  0  0  0  0  0
   47.6060   19.8450   36.5560 C   0  0  0  0  0  0  0  0  0  0  0  0
   49.0610   19.9250   36.2230 C   0  0  0  0  0  0  0  0  0  0  0  0
   49.4650   21.3480   36.0220 C   0  0  0  0  0  0  0  0  0  0  0  0
   48.5720   22.3550   36.6960 C   0  0  0  0  0  0  0  0  0  0  0  0
   47.1380   22.2390   36.3110 C   0  0  0  0  0  0  0  0  0  0  0  0
   42.2850   22.2680   36.1970 O   0  0  0  0  0  0  0  0  0  0  0  0
   40.9390   22.4460   36.1980 C   0  0  0  0  0  0  0  0  0  0  0  0
   40.2880   22.9320   37.3540 C   0  0  0  0  0  0  0  0  0  0  0  0
   38.9060   23.0930   37.2920 C   0  0  0  0  0  0  0  0  0  0  0  0
   38.2620   22.7880   36.1650 N   0  0  0  0  0  0  0  0  0  0  0  0
   38.9180   22.3190   35.0600 C   0  0  0  0  0  0  0  0  0  0  0  0
   40.2330   22.1590   35.1010 N   0  0  0  0  0  0  0  0  0  0  0  0
   38.3060   23.5990   38.5240 C   0  0  0  0  0  0  0  0  0  0  0  0
   37.8120   24.8700   38.3250 F   0  0  0  0  0  0  0  0  0  0  0  0
   39.3030   23.7240   39.4610 F   0  0  0  0  0  0  0  0  0  0  0  0
   37.2660   22.8290   38.9820 F   0  0  0  0  0  0  0  0  0  0  0  0
   41.7428   19.6505   37.1433 H   0  0  0  0  0  0  0  0  0  0  0  0
   43.4929   17.9556   37.3823 H   0  0  0  0  0  0  0  0  0  0  0  0
   45.8269   18.5106   36.7822 H   0  0  0  0  0  0  0  0  0  0  0  0
   46.8731   20.8329   34.7603 H   0  0  0  0  0  0  0  0  0  0  0  0
   47.4932   19.9938   37.6400 H   0  0  0  0  0  0  0  0  0  0  0  0
   47.2624   18.8559   36.2188 H   0  0  0  0  0  0  0  0  0  0  0  0
   49.6471   19.4937   37.0479 H   0  0  0  0  0  0  0  0  0  0  0  0
   49.2490   19.3635   35.2960 H   0  0  0  0  0  0  0  0  0  0  0  0
   50.4838   21.4743   36.4172 H   0  0  0  0  0  0  0  0  0  0  0  0
   49.3936   21.5423   34.9417 H   0  0  0  0  0  0  0  0  0  0  0  0
   48.6514   22.2155   37.7842 H   0  0  0  0  0  0  0  0  0  0  0  0
   48.9109   23.3505   36.3735 H   0  0  0  0  0  0  0  0  0  0  0  0
   46.9389   22.9460   35.4921 H   0  0  0  0  0  0  0  0  0  0  0  0
   46.5426   22.4624   37.2085 H   0  0  0  0  0  0  0  0  0  0  0  0
   40.8509   23.1738   38.2676 H   0  0  0  0  0  0  0  0  0  0  0  0
   38.3584   22.0765   34.1445 H   0  0  0  0  0  0  0  0  0  0  0  0
  1  2  2  0
  2  3  1  0
  4  3  2  0
  5  4  1  0
  6  5  2  0
  6  1  1  0
  7  5  1  0
  7 12  1  0
  7  8  1  0
  9  8  1  0
 10  9  1  0
 10 11  1  0
 12 11  1  0
 13 14  1  0
 13  1  1  0
 14 15  2  0
 16 15  1  0
 16 20  1  0
 17 16  2  0
 18 19  2  0
 18 17  1  0
 19 14  1  0
 20 23  1  0
 20 22  1  0
 21 20  1  0
  2 24  1  0
  3 25  1  0
  4 26  1  0
  7 27  1  0
  8 28  1  0
  8 29  1  0
  9 30  1  0
  9 31  1  0
 10 32  1  0
 10 33  1  0
 11 34  1  0
 11 35  1  0
 12 36  1  0
 12 37  1  0
 15 38  1  0
 18 39  1  0
M  ISO  8  24  14  25  14  26  14  27  13  28  13  29  13  30  13  31  13
M  ISO  8  32  13  33  13  34  13  35  13  36  13  37  13  38  14  39  14
M  END
>  <minimizedAffinity>  (1) 
-4.68545055

>  <minimizedRMSD>  (1) 
0.410108477

$$$$
