
     RDKit          3D

 33 35  0  0  0  0  0  0  0  0999 V2000
   43.5130   22.6250   34.1170 C   0  0  0  0  0  0  0  0  0  0  0  0
   43.5160   24.0170   34.3360 C   0  0  0  0  0  0  0  0  0  0  0  0
   45.3250   24.4330   34.2610 S   0  0  0  0  0  0  0  0  0  0  0  0
   45.7440   22.6130   33.9410 C   0  0  0  0  0  0  0  0  0  0  0  0
   44.7160   22.1800   33.9530 N   0  0  0  0  0  0  0  0  0  0  0  0
   47.0520   22.0390   33.7480 N   0  0  0  0  0  0  0  0  0  0  0  0
   47.6010   21.5290   34.8780 C   0  0  0  0  0  0  0  0  0  0  0  0
   48.8360   21.0220   34.5320 C   0  0  0  0  0  0  0  0  0  0  0  0
   48.9800   21.2480   33.2040 N   0  0  0  0  0  0  0  0  0  0  0  0
   47.8960   21.8620   32.7390 C   0  0  0  0  0  0  0  0  0  0  0  0
   47.5350   22.3270   31.4140 C   0  0  0  0  0  0  0  0  0  0  0  0
   47.0480   21.5510   30.5670 O   0  0  0  0  0  0  0  0  0  0  0  0
   47.7580   23.6750   31.1380 O   0  0  0  0  0  0  0  0  0  0  0  0
   41.9350   21.7810   34.1080 S   0  0  0  0  0  0  0  0  0  0  0  0
   40.4220   22.4370   37.7340 C   0  0  0  0  0  0  0  0  0  0  0  0
   39.3010   23.2550   37.4730 C   0  0  0  0  0  0  0  0  0  0  0  0
   39.0440   23.5840   36.1540 C   0  0  0  0  0  0  0  0  0  0  0  0
   39.8690   23.1140   35.1650 N   0  0  0  0  0  0  0  0  0  0  0  0
   40.9380   22.3290   35.4690 C   0  0  0  0  0  0  0  0  0  0  0  0
   41.1950   22.0030   36.7490 N   0  0  0  0  0  0  0  0  0  0  0  0
   38.4090   23.7620   38.5400 C   0  0  0  0  0  0  0  0  0  0  0  0
   39.1790   23.8260   39.7150 F   0  0  0  0  0  0  0  0  0  0  0  0
   37.3240   23.0170   38.7520 F   0  0  0  0  0  0  0  0  0  0  0  0
   38.1220   25.1340   38.3070 F   0  0  0  0  0  0  0  0  0  0  0  0
   37.8800   24.4450   35.7840 C   0  0  0  0  0  0  0  0  0  0  0  0
   42.6619   24.6885   34.5081 H   0  0  0  0  0  0  0  0  0  0  0  0
   47.1476   21.5211   35.8802 H   0  0  0  0  0  0  0  0  0  0  0  0
   49.5593   20.5322   35.2005 H   0  0  0  0  0  0  0  0  0  0  0  0
   47.5286   24.0425   30.2478 H   0  0  0  0  0  0  0  0  0  0  0  0
   40.6573   22.1557   38.7711 H   0  0  0  0  0  0  0  0  0  0  0  0
   37.3880   24.8090   36.6980 H   0  0  0  0  0  0  0  0  0  0  0  0
   38.2317   25.3020   35.1908 H   0  0  0  0  0  0  0  0  0  0  0  0
   37.1635   23.8578   35.1908 H   0  0  0  0  0  0  0  0  0  0  0  0
  1  2  2  0
  3  2  1  0
  4  5  2  0
  4  3  1  0
  5  1  1  0
  6  4  1  0
  6  7  1  0
  8  7  2  0
  9  8  1  0
 10  9  2  0
 10  6  1  0
 11 10  1  0
 12 11  2  0
 13 11  1  0
 14  1  1  0
 14 19  1  0
 16 15  2  0
 16 21  1  0
 17 16  1  0
 18 19  1  0
 18 17  2  0
 19 20  2  0
 20 15  1  0
 21 23  1  0
 21 22  1  0
 24 21  1  0
 25 17  1  0
  2 26  1  0
  7 27  1  0
  8 28  1  0
 13 29  1  0
 15 30  1  0
 25 31  1  0
 25 32  1  0
 25 33  1  0
M  ISO  8  26  14  27  14  28  14  29   3  30  14  31   8  32   8  33   8
M  END
>  <minimizedAffinity>  (1) 
-3.84284019

>  <minimizedRMSD>  (1) 
1.03264725

$$$$
