
     RDKit          3D

 30 32  0  0  0  0  0  0  0  0999 V2000
   43.1060   21.2510   36.4410 C   0  0  0  0  0  0  0  0  0  0  0  0
   42.8760   19.9970   36.9690 C   0  0  0  0  0  0  0  0  0  0  0  0
   43.8210   19.0050   37.0800 C   0  0  0  0  0  0  0  0  0  0  0  0
   45.0860   19.3060   36.6240 C   0  0  0  0  0  0  0  0  0  0  0  0
   45.3460   20.5630   36.0870 C   0  0  0  0  0  0  0  0  0  0  0  0
   44.3620   21.4970   36.0080 N   0  0  0  0  0  0  0  0  0  0  0  0
   46.6890   20.7470   35.6520 N   0  0  0  0  0  0  0  0  0  0  0  0
   47.6240   21.3440   36.3760 N   0  0  0  0  0  0  0  0  0  0  0  0
   48.7920   21.3580   35.6780 C   0  0  0  0  0  0  0  0  0  0  0  0
   48.5560   20.7340   34.4580 C   0  0  0  0  0  0  0  0  0  0  0  0
   47.2180   20.3530   34.4600 C   0  0  0  0  0  0  0  0  0  0  0  0
   42.3240   22.3080   36.2610 O   0  0  0  0  0  0  0  0  0  0  0  0
   40.9630   22.4700   36.2370 C   0  0  0  0  0  0  0  0  0  0  0  0
   40.3070   22.9570   37.3860 C   0  0  0  0  0  0  0  0  0  0  0  0
   38.9210   23.1010   37.3050 C   0  0  0  0  0  0  0  0  0  0  0  0
   38.2920   22.7810   36.1740 N   0  0  0  0  0  0  0  0  0  0  0  0
   38.9670   22.3130   35.0860 C   0  0  0  0  0  0  0  0  0  0  0  0
   40.2780   22.1580   35.1140 N   0  0  0  0  0  0  0  0  0  0  0  0
   38.2920   23.6080   38.5160 C   0  0  0  0  0  0  0  0  0  0  0  0
   37.8000   24.8790   38.3070 F   0  0  0  0  0  0  0  0  0  0  0  0
   39.2800   23.7360   39.4780 F   0  0  0  0  0  0  0  0  0  0  0  0
   37.2610   22.8190   38.9750 F   0  0  0  0  0  0  0  0  0  0  0  0
   41.8603   19.7746   37.3280 H   0  0  0  0  0  0  0  0  0  0  0  0
   43.5799   18.0219   37.5105 H   0  0  0  0  0  0  0  0  0  0  0  0
   45.8876   18.5551   36.6843 H   0  0  0  0  0  0  0  0  0  0  0  0
   49.7476   21.7847   36.0167 H   0  0  0  0  0  0  0  0  0  0  0  0
   49.2845   20.5731   33.6497 H   0  0  0  0  0  0  0  0  0  0  0  0
   46.6866   19.8312   33.6505 H   0  0  0  0  0  0  0  0  0  0  0  0
   40.8606   23.2112   38.3019 H   0  0  0  0  0  0  0  0  0  0  0  0
   38.4111   22.0607   34.1709 H   0  0  0  0  0  0  0  0  0  0  0  0
  1  2  2  0
  2  3  1  0
  4  3  2  0
  5  4  1  0
  6  5  2  0
  6  1  1  0
  7  5  1  0
  7  8  1  0
  9  8  2  0
 10 11  2  0
 10  9  1  0
 11  7  1  0
 12  1  1  0
 13 12  1  0
 13 14  2  0
 15 14  1  0
 15 19  1  0
 16 15  2  0
 17 18  2  0
 17 16  1  0
 18 13  1  0
 19 22  1  0
 19 21  1  0
 20 19  1  0
  2 23  1  0
  3 24  1  0
  4 25  1  0
  9 26  1  0
 10 27  1  0
 11 28  1  0
 14 29  1  0
 17 30  1  0
M  ISO  8  23  14  24  14  25  14  26  14  27  14  28  14  29  14  30  14
M  END
>  <minimizedAffinity>  (1) 
-4.63421869

>  <minimizedRMSD>  (1) 
0.214082345

$$$$
