
     RDKit          3D

 30 32  0  0  0  0  0  0  0  0999 V2000
   42.2910   22.3520   36.2140 O   0  0  0  0  0  0  0  0  0  0  0  0
   43.0800   21.2770   36.4250 C   0  0  0  0  0  0  0  0  0  0  0  0
   42.8490   20.0270   36.9890 C   0  0  0  0  0  0  0  0  0  0  0  0
   43.8330   19.0890   37.0910 C   0  0  0  0  0  0  0  0  0  0  0  0
   45.0850   19.3690   36.6300 C   0  0  0  0  0  0  0  0  0  0  0  0
   45.3260   20.5980   36.0710 C   0  0  0  0  0  0  0  0  0  0  0  0
   44.3380   21.5460   35.9660 N   0  0  0  0  0  0  0  0  0  0  0  0
   46.7200   20.8300   35.5900 C   0  0  0  0  0  0  0  0  0  0  0  0
   47.8810   20.4420   36.3610 C   0  0  0  0  0  0  0  0  0  0  0  0
   47.4950   21.8910   36.3780 C   0  0  0  0  0  0  0  0  0  0  0  0
   40.9290   22.4930   36.2100 C   0  0  0  0  0  0  0  0  0  0  0  0
   40.2940   22.9800   37.3760 C   0  0  0  0  0  0  0  0  0  0  0  0
   38.9070   23.1000   37.3060 C   0  0  0  0  0  0  0  0  0  0  0  0
   38.2510   22.7630   36.1800 N   0  0  0  0  0  0  0  0  0  0  0  0
   38.9190   22.3020   35.0920 C   0  0  0  0  0  0  0  0  0  0  0  0
   40.2290   22.1660   35.0950 N   0  0  0  0  0  0  0  0  0  0  0  0
   38.2820   23.6040   38.5270 C   0  0  0  0  0  0  0  0  0  0  0  0
   37.7770   24.8730   38.3220 F   0  0  0  0  0  0  0  0  0  0  0  0
   39.2700   23.7340   39.4740 F   0  0  0  0  0  0  0  0  0  0  0  0
   37.2470   22.8170   38.9860 F   0  0  0  0  0  0  0  0  0  0  0  0
   41.8428   19.7881   37.3638 H   0  0  0  0  0  0  0  0  0  0  0  0
   43.6175   18.1099   37.5436 H   0  0  0  0  0  0  0  0  0  0  0  0
   45.8886   18.6216   36.7051 H   0  0  0  0  0  0  0  0  0  0  0  0
   46.4349   20.6253   34.5475 H   0  0  0  0  0  0  0  0  0  0  0  0
   47.7511   19.8352   37.2693 H   0  0  0  0  0  0  0  0  0  0  0  0
   48.8098   19.9036   36.1212 H   0  0  0  0  0  0  0  0  0  0  0  0
   48.1086   22.6383   35.8535 H   0  0  0  0  0  0  0  0  0  0  0  0
   47.2579   22.6417   37.1463 H   0  0  0  0  0  0  0  0  0  0  0  0
   40.8590   23.2473   38.2812 H   0  0  0  0  0  0  0  0  0  0  0  0
   38.3532   22.0359   34.1870 H   0  0  0  0  0  0  0  0  0  0  0  0
  1  2  1  0
  2  3  2  0
  3  4  1  0
  5  4  2  0
  6  5  1  0
  7  6  2  0
  7  2  1  0
  8  6  1  0
  8  9  1  0
  8 10  1  0
  9 10  1  0
 11  1  1  0
 11 12  2  0
 13 12  1  0
 13 17  1  0
 14 13  2  0
 15 16  2  0
 15 14  1  0
 16 11  1  0
 17 20  1  0
 17 19  1  0
 18 17  1  0
  3 21  1  0
  4 22  1  0
  5 23  1  0
  8 24  1  0
  9 25  1  0
  9 26  1  0
 10 27  1  0
 10 28  1  0
 12 29  1  0
 15 30  1  0
M  ISO  8  21  14  22  14  23  14  24  13  25  13  26  13  27  13  28  13
M  ISO  2  29  14  30  14
M  END
>  <minimizedAffinity>  (1) 
-4.52527428

>  <minimizedRMSD>  (1) 
0.144788265

$$$$
