
     RDKit          3D

 31 33  0  0  0  0  0  0  0  0999 V2000
   43.4500   22.6040   33.9680 C   0  0  0  0  0  0  0  0  0  0  0  0
   43.3250   23.9320   34.3950 C   0  0  0  0  0  0  0  0  0  0  0  0
   44.9660   24.6510   33.9340 S   0  0  0  0  0  0  0  0  0  0  0  0
   45.5220   22.9780   33.2330 C   0  0  0  0  0  0  0  0  0  0  0  0
   44.6080   22.3760   33.4330 N   0  0  0  0  0  0  0  0  0  0  0  0
   46.7960   22.6640   32.6270 N   0  0  0  0  0  0  0  0  0  0  0  0
   47.6980   22.1290   33.4850 C   0  0  0  0  0  0  0  0  0  0  0  0
   48.8490   21.8890   32.7560 C   0  0  0  0  0  0  0  0  0  0  0  0
   48.5860   22.2920   31.4890 N   0  0  0  0  0  0  0  0  0  0  0  0
   47.3430   22.7590   31.4190 C   0  0  0  0  0  0  0  0  0  0  0  0
   46.5690   23.3060   30.3210 C   0  0  0  0  0  0  0  0  0  0  0  0
   46.0120   22.5580   29.4930 O   0  0  0  0  0  0  0  0  0  0  0  0
   46.4820   24.6890   30.2410 O   0  0  0  0  0  0  0  0  0  0  0  0
   42.0560   21.5010   34.2200 S   0  0  0  0  0  0  0  0  0  0  0  0
   40.5210   22.4890   37.7700 C   0  0  0  0  0  0  0  0  0  0  0  0
   39.3240   23.1260   37.4400 C   0  0  0  0  0  0  0  0  0  0  0  0
   39.0150   23.2360   36.0950 C   0  0  0  0  0  0  0  0  0  0  0  0
   39.8770   22.7260   35.1500 N   0  0  0  0  0  0  0  0  0  0  0  0
   41.0280   22.1170   35.5390 C   0  0  0  0  0  0  0  0  0  0  0  0
   41.3340   22.0070   36.8440 N   0  0  0  0  0  0  0  0  0  0  0  0
   38.3850   23.6800   38.4430 C   0  0  0  0  0  0  0  0  0  0  0  0
   39.1140   23.8260   39.6360 F   0  0  0  0  0  0  0  0  0  0  0  0
   37.2980   22.9300   38.6500 F   0  0  0  0  0  0  0  0  0  0  0  0
   38.0700   25.0340   38.1040 F   0  0  0  0  0  0  0  0  0  0  0  0
   37.8570   23.8460   35.6220 O   0  0  0  0  0  0  0  0  0  0  0  0
   42.4688   24.4227   34.8809 H   0  0  0  0  0  0  0  0  0  0  0  0
   47.5446   21.9249   34.5550 H   0  0  0  0  0  0  0  0  0  0  0  0
   49.7893   21.4575   33.1298 H   0  0  0  0  0  0  0  0  0  0  0  0
   45.9651   25.1110   29.5096 H   0  0  0  0  0  0  0  0  0  0  0  0
   40.7964   22.3847   38.8298 H   0  0  0  0  0  0  0  0  0  0  0  0
   37.6866   23.8966   34.6481 H   0  0  0  0  0  0  0  0  0  0  0  0
  1 14  1  0
  1  2  2  0
  3  2  1  0
  4  5  2  0
  4  3  1  0
  5  1  1  0
  6  4  1  0
  6  7  1  0
  8  7  2  0
  9  8  1  0
 10  9  2  0
 10  6  1  0
 11 10  1  0
 12 11  2  0
 13 11  1  0
 14 19  1  0
 16 15  2  0
 16 21  1  0
 17 16  1  0
 18 19  1  0
 18 17  2  0
 19 20  2  0
 20 15  1  0
 21 23  1  0
 21 22  1  0
 24 21  1  0
 25 17  1  0
  2 26  1  0
  7 27  1  0
  8 28  1  0
 13 29  1  0
 15 30  1  0
 25 31  1  0
M  ISO  6  26  14  27  14  28  14  29   3  30  14  31   3
M  END
>  <minimizedAffinity>  (1) 
-3.80566669

>  <minimizedRMSD>  (1) 
0.137431756

$$$$
