
     RDKit          3D

 26 27  0  0  0  0  0  0  0  0999 V2000
   42.2950   22.2400   36.1990 O   0  0  0  0  0  0  0  0  0  0  0  0
   43.0620   21.1770   36.4140 C   0  0  0  0  0  0  0  0  0  0  0  0
   42.7780   19.8940   36.8700 C   0  0  0  0  0  0  0  0  0  0  0  0
   43.7110   18.8930   37.0390 C   0  0  0  0  0  0  0  0  0  0  0  0
   45.0020   19.1940   36.7310 C   0  0  0  0  0  0  0  0  0  0  0  0
   45.3180   20.4650   36.2740 C   0  0  0  0  0  0  0  0  0  0  0  0
   44.3560   21.4370   36.1200 N   0  0  0  0  0  0  0  0  0  0  0  0
   46.7590   20.6800   35.9690 C   0  0  0  0  0  0  0  0  0  0  0  0
   47.5380   19.8780   36.8110 F   0  0  0  0  0  0  0  0  0  0  0  0
   47.0100   20.4190   34.6520 F   0  0  0  0  0  0  0  0  0  0  0  0
   47.0020   22.0220   36.2780 F   0  0  0  0  0  0  0  0  0  0  0  0
   40.9470   22.4320   36.2040 C   0  0  0  0  0  0  0  0  0  0  0  0
   40.3140   22.9220   37.3640 C   0  0  0  0  0  0  0  0  0  0  0  0
   38.9330   23.0930   37.2930 C   0  0  0  0  0  0  0  0  0  0  0  0
   38.2760   22.7940   36.1560 N   0  0  0  0  0  0  0  0  0  0  0  0
   38.9320   22.3250   35.0620 C   0  0  0  0  0  0  0  0  0  0  0  0
   40.2440   22.1450   35.0820 N   0  0  0  0  0  0  0  0  0  0  0  0
   38.3100   23.6000   38.5090 C   0  0  0  0  0  0  0  0  0  0  0  0
   37.8350   24.8750   38.3130 F   0  0  0  0  0  0  0  0  0  0  0  0
   39.3070   23.7190   39.4560 F   0  0  0  0  0  0  0  0  0  0  0  0
   37.2740   22.8210   38.9760 F   0  0  0  0  0  0  0  0  0  0  0  0
   41.7311   19.6606   37.1140 H   0  0  0  0  0  0  0  0  0  0  0  0
   43.4249   17.8963   37.4061 H   0  0  0  0  0  0  0  0  0  0  0  0
   45.7896   18.4344   36.8437 H   0  0  0  0  0  0  0  0  0  0  0  0
   40.8803   23.1570   38.2772 H   0  0  0  0  0  0  0  0  0  0  0  0
   38.3659   22.0919   34.1481 H   0  0  0  0  0  0  0  0  0  0  0  0
  1 12  1  0
  1  2  1  0
  2  3  2  0
  3  4  1  0
  5  4  2  0
  6  5  1  0
  7  6  2  0
  7  2  1  0
  8  6  1  0
  8 11  1  0
  8  9  1  0
 10  8  1  0
 12 13  2  0
 14 13  1  0
 14 18  1  0
 15 14  2  0
 16 17  2  0
 16 15  1  0
 17 12  1  0
 18 21  1  0
 18 20  1  0
 19 18  1  0
  3 22  1  0
  4 23  1  0
  5 24  1  0
 13 25  1  0
 16 26  1  0
M  ISO  5  22  14  23  14  24  14  25  14  26  14
M  END
>  <minimizedAffinity>  (1) 
-4.47748995

>  <minimizedRMSD>  (1) 
0.328292072

$$$$
