
     RDKit          3D

 36 38  0  0  0  0  0  0  0  0999 V2000
   43.0790   21.2190   36.4220 C   0  0  0  0  0  0  0  0  0  0  0  0
   42.8260   19.9390   36.8990 C   0  0  0  0  0  0  0  0  0  0  0  0
   43.7830   18.9670   37.0160 C   0  0  0  0  0  0  0  0  0  0  0  0
   45.0690   19.3020   36.6330 C   0  0  0  0  0  0  0  0  0  0  0  0
   45.3440   20.5570   36.1600 C   0  0  0  0  0  0  0  0  0  0  0  0
   44.3520   21.4930   36.0610 N   0  0  0  0  0  0  0  0  0  0  0  0
   49.2440   21.5480   34.8580 C   0  0  0  0  0  0  0  0  0  0  0  0
   48.5650   20.4640   34.2890 C   0  0  0  0  0  0  0  0  0  0  0  0
   47.2930   20.1870   34.7530 C   0  0  0  0  0  0  0  0  0  0  0  0
   46.7010   20.9440   35.7440 C   0  0  0  0  0  0  0  0  0  0  0  0
   47.3790   22.0030   36.2940 C   0  0  0  0  0  0  0  0  0  0  0  0
   48.6530   22.3090   35.8530 C   0  0  0  0  0  0  0  0  0  0  0  0
   50.8610   22.0530   34.4040 S   0  0  0  0  0  0  0  0  0  0  0  0
   51.8610   20.9470   34.5850 O   0  0  0  0  0  0  0  0  0  0  0  0
   51.1850   23.2300   35.3140 O   0  0  0  0  0  0  0  0  0  0  0  0
   42.2920   22.2850   36.2360 O   0  0  0  0  0  0  0  0  0  0  0  0
   40.9490   22.4550   36.2260 C   0  0  0  0  0  0  0  0  0  0  0  0
   40.2880   22.9420   37.3800 C   0  0  0  0  0  0  0  0  0  0  0  0
   38.9160   23.0910   37.2970 C   0  0  0  0  0  0  0  0  0  0  0  0
   38.2680   22.7810   36.1710 N   0  0  0  0  0  0  0  0  0  0  0  0
   38.9430   22.3100   35.0690 C   0  0  0  0  0  0  0  0  0  0  0  0
   40.2540   22.1590   35.1220 N   0  0  0  0  0  0  0  0  0  0  0  0
   38.2900   23.6000   38.5240 C   0  0  0  0  0  0  0  0  0  0  0  0
   37.8020   24.8730   38.3180 F   0  0  0  0  0  0  0  0  0  0  0  0
   39.2880   23.7390   39.4710 F   0  0  0  0  0  0  0  0  0  0  0  0
   37.2500   22.8190   38.9790 F   0  0  0  0  0  0  0  0  0  0  0  0
   41.7972   19.6922   37.2001 H   0  0  0  0  0  0  0  0  0  0  0  0
   43.5399   17.9644   37.3976 H   0  0  0  0  0  0  0  0  0  0  0  0
   45.8745   18.5567   36.7088 H   0  0  0  0  0  0  0  0  0  0  0  0
   49.0280   19.8536   33.4997 H   0  0  0  0  0  0  0  0  0  0  0  0
   46.7378   19.3412   34.3213 H   0  0  0  0  0  0  0  0  0  0  0  0
   46.9095   22.6072   37.0843 H   0  0  0  0  0  0  0  0  0  0  0  0
   49.1978   23.1575   36.2926 H   0  0  0  0  0  0  0  0  0  0  0  0
   50.9199   22.3939   33.0784 H   0  0  0  0  0  0  0  0  0  0  0  0
   40.8399   23.1899   38.2986 H   0  0  0  0  0  0  0  0  0  0  0  0
   38.3941   22.0605   34.1489 H   0  0  0  0  0  0  0  0  0  0  0  0
  1  2  2  0
  2  3  1  0
  4  3  2  0
  5  4  1  0
  6  5  2  0
  6  1  1  0
  7 12  2  0
  8  9  2  0
  8  7  1  0
  9 10  1  0
 10  5  1  0
 10 11  2  0
 12 11  1  0
 13 14  2  0
 13  7  1  0
 13 15  2  0
 16  1  1  0
 17 16  1  0
 17 18  2  0
 19 18  1  0
 19 23  1  0
 20 19  2  0
 21 22  2  0
 21 20  1  0
 22 17  1  0
 23 26  1  0
 23 25  1  0
 24 23  1  0
  2 27  1  0
  3 28  1  0
  4 29  1  0
  8 30  1  0
  9 31  1  0
 11 32  1  0
 12 33  1  0
 13 34  1  0
 18 35  1  0
 21 36  1  0
M  ISO  8  27  14  28  14  29  14  30  14  31  14  32  14  33  14  34  11
M  ISO  2  35  14  36  14
M  END
>  <minimizedAffinity>  (1) 
-4.34536266

>  <minimizedRMSD>  (1) 
0.53734076

$$$$
