
     RDKit          3D

 42 45  0  0  0  0  0  0  0  0999 V2000
   40.6350   22.6030   35.9470 C   0  0  0  0  0  0  0  0  0  0  0  0
   40.1340   23.0060   37.2100 C   0  0  0  0  0  0  0  0  0  0  0  0
   38.7510   23.2040   37.2950 C   0  0  0  0  0  0  0  0  0  0  0  0
   37.9850   23.0110   36.2140 N   0  0  0  0  0  0  0  0  0  0  0  0
   38.5090   22.6240   35.0200 C   0  0  0  0  0  0  0  0  0  0  0  0
   39.8170   22.4240   34.8930 N   0  0  0  0  0  0  0  0  0  0  0  0
   37.6360   22.4360   33.9080 N   0  0  0  0  0  0  0  0  0  0  0  0
   36.9260   21.2930   33.8410 C   0  0  0  0  0  0  0  0  0  0  0  0
   36.0700   21.0930   32.7630 C   0  0  0  0  0  0  0  0  0  0  0  0
   35.2220   19.8880   32.5510 C   0  0  0  0  0  0  0  0  0  0  0  0
   36.0400   22.1250   31.8470 C   0  0  0  0  0  0  0  0  0  0  0  0
   35.2650   21.9810   30.8420 O   0  0  0  0  0  0  0  0  0  0  0  0
   36.7360   23.2750   31.8880 N   0  0  0  0  0  0  0  0  0  0  0  0
   37.5540   23.4000   32.9730 C   0  0  0  0  0  0  0  0  0  0  0  0
   38.2330   24.4680   33.0570 O   0  0  0  0  0  0  0  0  0  0  0  0
   38.2710   23.6160   38.6000 C   0  0  0  0  0  0  0  0  0  0  0  0
   37.7600   24.8920   38.5580 F   0  0  0  0  0  0  0  0  0  0  0  0
   39.3590   23.6760   39.4330 F   0  0  0  0  0  0  0  0  0  0  0  0
   37.3010   22.7800   39.1230 F   0  0  0  0  0  0  0  0  0  0  0  0
   41.9590   22.3910   35.7850 O   0  0  0  0  0  0  0  0  0  0  0  0
   42.7760   21.3870   36.1350 C   0  0  0  0  0  0  0  0  0  0  0  0
   42.5480   20.1890   36.7870 C   0  0  0  0  0  0  0  0  0  0  0  0
   43.5300   19.2640   37.0670 C   0  0  0  0  0  0  0  0  0  0  0  0
   44.8110   19.5690   36.6640 C   0  0  0  0  0  0  0  0  0  0  0  0
   45.0540   20.7450   36.0210 C   0  0  0  0  0  0  0  0  0  0  0  0
   44.0570   21.6550   35.7520 N   0  0  0  0  0  0  0  0  0  0  0  0
   46.4140   20.9610   35.6480 N   0  0  0  0  0  0  0  0  0  0  0  0
   47.1320   20.4250   34.6330 C   0  0  0  0  0  0  0  0  0  0  0  0
   48.3800   20.9090   34.6510 N   0  0  0  0  0  0  0  0  0  0  0  0
   48.4270   21.7570   35.6970 C   0  0  0  0  0  0  0  0  0  0  0  0
   47.2280   21.7870   36.3030 N   0  0  0  0  0  0  0  0  0  0  0  0
   40.7957   23.1550   38.0760 H   0  0  0  0  0  0  0  0  0  0  0  0
   37.0218   20.5294   34.6270 H   0  0  0  0  0  0  0  0  0  0  0  0
   34.9281   19.4704   33.5253 H   0  0  0  0  0  0  0  0  0  0  0  0
   34.3211   20.1685   31.9855 H   0  0  0  0  0  0  0  0  0  0  0  0
   35.7901   19.1347   31.9855 H   0  0  0  0  0  0  0  0  0  0  0  0
   36.6581   24.0007   31.1612 H   0  0  0  0  0  0  0  0  0  0  0  0
   41.5190   19.9604   37.1015 H   0  0  0  0  0  0  0  0  0  0  0  0
   43.3009   18.3234   37.5894 H   0  0  0  0  0  0  0  0  0  0  0  0
   45.6341   18.8663   36.8604 H   0  0  0  0  0  0  0  0  0  0  0  0
   46.7468   19.6992   33.9017 H   0  0  0  0  0  0  0  0  0  0  0  0
   49.3100   22.3352   36.0069 H   0  0  0  0  0  0  0  0  0  0  0  0
  1  2  2  0
  2  3  1  0
  3 16  1  0
  4  3  2  0
  5  4  1  0
  6  5  2  0
  6  1  1  0
  7  5  1  0
  8  7  1  0
  9  8  2  0
 10  9  1  0
 11 13  1  0
 11  9  1  0
 12 11  2  0
 13 14  1  0
 14 15  2  0
 14  7  1  0
 16 19  1  0
 16 18  1  0
 17 16  1  0
 20  1  1  0
 20 21  1  0
 21 22  2  0
 22 23  1  0
 24 23  2  0
 25 24  1  0
 26 25  2  0
 26 21  1  0
 27 25  1  0
 27 31  1  0
 28 29  2  0
 28 27  1  0
 29 30  1  0
 30 31  2  0
  2 32  1  0
  8 33  1  0
 10 34  1  0
 10 35  1  0
 10 36  1  0
 13 37  1  0
 22 38  1  0
 23 39  1  0
 24 40  1  0
 28 41  1  0
 30 42  1  0
M  ISO  8  32  14  33  14  34   8  35   8  36   8  37   9  38  14  39  14
M  ISO  3  40  14  41  14  42  14
M  END
>  <minimizedAffinity>  (1) 
-6.48330116

>  <minimizedRMSD>  (1) 
0.635965407

$$$$
