
     RDKit          3D

 43 47  0  0  0  0  0  0  0  0999 V2000
   40.7700   23.0860   35.8790 C   0  0  0  0  0  0  0  0  0  0  0  0
   40.1650   23.2260   37.1350 C   0  0  0  0  0  0  0  0  0  0  0  0
   38.8170   23.5650   37.1590 C   0  0  0  0  0  0  0  0  0  0  0  0
   38.1660   23.7400   36.0040 N   0  0  0  0  0  0  0  0  0  0  0  0
   38.7900   23.5960   34.7820 C   0  0  0  0  0  0  0  0  0  0  0  0
   40.0670   23.2740   34.7570 N   0  0  0  0  0  0  0  0  0  0  0  0
   37.8560   23.8390   33.6790 C   0  0  0  0  0  0  0  0  0  0  0  0
   37.5420   25.0670   33.2380 N   0  0  0  0  0  0  0  0  0  0  0  0
   36.7090   25.3620   32.2500 C   0  0  0  0  0  0  0  0  0  0  0  0
   36.0770   24.3610   31.5730 N   0  0  0  0  0  0  0  0  0  0  0  0
   36.3240   23.0750   31.9380 C   0  0  0  0  0  0  0  0  0  0  0  0
   35.6830   22.0670   31.2530 C   0  0  0  0  0  0  0  0  0  0  0  0
   35.8980   20.7590   31.5820 C   0  0  0  0  0  0  0  0  0  0  0  0
   36.7880   20.5100   32.6350 C   0  0  0  0  0  0  0  0  0  0  0  0
   37.3970   21.5640   33.2800 C   0  0  0  0  0  0  0  0  0  0  0  0
   37.2020   22.8760   32.9730 C   0  0  0  0  0  0  0  0  0  0  0  0
   38.2120   23.7030   38.4740 C   0  0  0  0  0  0  0  0  0  0  0  0
   37.6410   24.9400   38.6320 F   0  0  0  0  0  0  0  0  0  0  0  0
   39.2500   23.6320   39.3970 F   0  0  0  0  0  0  0  0  0  0  0  0
   37.2520   22.7550   38.7580 F   0  0  0  0  0  0  0  0  0  0  0  0
   42.0790   22.7570   35.7880 O   0  0  0  0  0  0  0  0  0  0  0  0
   42.7810   21.6670   36.1310 C   0  0  0  0  0  0  0  0  0  0  0  0
   42.4120   20.5030   36.7840 C   0  0  0  0  0  0  0  0  0  0  0  0
   43.2840   19.4770   37.0540 C   0  0  0  0  0  0  0  0  0  0  0  0
   44.5870   19.6310   36.6480 C   0  0  0  0  0  0  0  0  0  0  0  0
   44.9670   20.7770   36.0020 C   0  0  0  0  0  0  0  0  0  0  0  0
   44.0750   21.7870   35.7440 N   0  0  0  0  0  0  0  0  0  0  0  0
   46.3400   20.8230   35.6320 N   0  0  0  0  0  0  0  0  0  0  0  0
   47.0000   20.2240   34.6300 C   0  0  0  0  0  0  0  0  0  0  0  0
   48.2990   20.5590   34.6670 N   0  0  0  0  0  0  0  0  0  0  0  0
   48.4430   21.3870   35.7200 C   0  0  0  0  0  0  0  0  0  0  0  0
   47.2450   21.5460   36.3080 N   0  0  0  0  0  0  0  0  0  0  0  0
   40.7335   23.0739   38.0643 H   0  0  0  0  0  0  0  0  0  0  0  0
   36.5279   26.4120   31.9768 H   0  0  0  0  0  0  0  0  0  0  0  0
   34.9923   22.3172   30.4343 H   0  0  0  0  0  0  0  0  0  0  0  0
   35.3963   19.9400   31.0458 H   0  0  0  0  0  0  0  0  0  0  0  0
   36.9998   19.4763   32.9457 H   0  0  0  0  0  0  0  0  0  0  0  0
   38.0900   21.3289   34.1013 H   0  0  0  0  0  0  0  0  0  0  0  0
   41.3650   20.3944   37.1034 H   0  0  0  0  0  0  0  0  0  0  0  0
   42.9518   18.5671   37.5752 H   0  0  0  0  0  0  0  0  0  0  0  0
   45.3228   18.8365   36.8411 H   0  0  0  0  0  0  0  0  0  0  0  0
   46.5430   19.5552   33.8858 H   0  0  0  0  0  0  0  0  0  0  0  0
   49.3842   21.8549   36.0444 H   0  0  0  0  0  0  0  0  0  0  0  0
  1  2  2  0
  2  3  1  0
  3 17  1  0
  4  3  2  0
  5  4  1  0
  6  5  2  0
  6  1  1  0
  7  5  1  0
  8  7  2  0
  9  8  1  0
 10 11  1  0
 10  9  2  0
 11 16  2  0
 12 13  2  0
 12 11  1  0
 13 14  1  0
 14 15  2  0
 16 15  1  0
 16  7  1  0
 17 18  1  0
 17 20  1  0
 17 19  1  0
 21  1  1  0
 21 22  1  0
 22 23  2  0
 23 24  1  0
 25 24  2  0
 26 25  1  0
 27 26  2  0
 27 22  1  0
 28 26  1  0
 28 32  1  0
 29 30  2  0
 29 28  1  0
 30 31  1  0
 31 32  2  0
  2 33  1  0
  9 34  1  0
 12 35  1  0
 13 36  1  0
 14 37  1  0
 15 38  1  0
 23 39  1  0
 24 40  1  0
 25 41  1  0
 29 42  1  0
 31 43  1  0
M  ISO  8  33  14  34  14  35  14  36  14  37  14  38  14  39  14  40  14
M  ISO  3  41  14  42  14  43  14
M  END
>  <minimizedAffinity>  (1) 
-6.47091866

>  <minimizedRMSD>  (1) 
1.55123436

$$$$
