
     RDKit          3D

 45 48  0  0  0  0  0  0  0  0999 V2000
   41.8240   22.3270   35.6050 O   0  0  0  0  0  0  0  0  0  0  0  0
   42.7090   21.3950   35.9940 C   0  0  0  0  0  0  0  0  0  0  0  0
   42.5540   20.1780   36.6630 C   0  0  0  0  0  0  0  0  0  0  0  0
   43.6080   19.3550   36.9740 C   0  0  0  0  0  0  0  0  0  0  0  0
   44.8650   19.7520   36.6070 C   0  0  0  0  0  0  0  0  0  0  0  0
   45.0310   20.9530   35.9460 C   0  0  0  0  0  0  0  0  0  0  0  0
   43.9680   21.7600   35.6450 N   0  0  0  0  0  0  0  0  0  0  0  0
   46.3750   21.2570   35.6180 N   0  0  0  0  0  0  0  0  0  0  0  0
   47.1740   20.7920   34.6520 C   0  0  0  0  0  0  0  0  0  0  0  0
   48.3780   21.3800   34.7350 N   0  0  0  0  0  0  0  0  0  0  0  0
   48.3230   22.2230   35.7670 C   0  0  0  0  0  0  0  0  0  0  0  0
   47.0940   22.1580   36.3230 N   0  0  0  0  0  0  0  0  0  0  0  0
   40.4760   22.4490   35.7970 C   0  0  0  0  0  0  0  0  0  0  0  0
   40.0150   22.9240   37.0520 C   0  0  0  0  0  0  0  0  0  0  0  0
   38.6310   23.0300   37.2000 C   0  0  0  0  0  0  0  0  0  0  0  0
   37.8270   22.6910   36.1840 N   0  0  0  0  0  0  0  0  0  0  0  0
   38.3280   22.2380   34.9940 C   0  0  0  0  0  0  0  0  0  0  0  0
   39.6230   22.1200   34.8040 N   0  0  0  0  0  0  0  0  0  0  0  0
   37.3760   21.8780   33.9040 C   0  0  0  0  0  0  0  0  0  0  0  0
   36.2820   20.9330   34.4190 C   0  0  0  0  0  0  0  0  0  0  0  0
   35.3360   20.7800   33.2280 C   0  0  0  0  0  0  0  0  0  0  0  0
   36.0210   19.8730   32.2450 C   0  0  0  0  0  0  0  0  0  0  0  0
   37.5160   20.0180   32.2180 C   0  0  0  0  0  0  0  0  0  0  0  0
   38.0280   21.3510   32.6730 C   0  0  0  0  0  0  0  0  0  0  0  0
   38.1700   23.5150   38.4820 C   0  0  0  0  0  0  0  0  0  0  0  0
   37.6580   24.7890   38.3810 F   0  0  0  0  0  0  0  0  0  0  0  0
   39.2840   23.6080   39.3040 F   0  0  0  0  0  0  0  0  0  0  0  0
   37.2180   22.7120   39.0790 F   0  0  0  0  0  0  0  0  0  0  0  0
   41.5405   19.8648   36.9540 H   0  0  0  0  0  0  0  0  0  0  0  0
   43.4467   18.4041   37.5029 H   0  0  0  0  0  0  0  0  0  0  0  0
   45.7356   19.1200   36.8365 H   0  0  0  0  0  0  0  0  0  0  0  0
   46.8877   20.0403   33.9017 H   0  0  0  0  0  0  0  0  0  0  0  0
   49.1459   22.8673   36.1100 H   0  0  0  0  0  0  0  0  0  0  0  0
   40.7086   23.1934   37.8621 H   0  0  0  0  0  0  0  0  0  0  0  0
   36.9050   22.8221   33.5929 H   0  0  0  0  0  0  0  0  0  0  0  0
   36.7086   19.9609   34.7071 H   0  0  0  0  0  0  0  0  0  0  0  0
   35.7754   21.3199   35.3155 H   0  0  0  0  0  0  0  0  0  0  0  0
   34.3844   20.3352   33.5546 H   0  0  0  0  0  0  0  0  0  0  0  0
   35.1106   21.7564   32.7743 H   0  0  0  0  0  0  0  0  0  0  0  0
   35.7792   18.8326   32.5079 H   0  0  0  0  0  0  0  0  0  0  0  0
   35.6562   20.1535   31.2459 H   0  0  0  0  0  0  0  0  0  0  0  0
   37.9463   19.2451   32.8718 H   0  0  0  0  0  0  0  0  0  0  0  0
   37.8175   19.9142   31.1652 H   0  0  0  0  0  0  0  0  0  0  0  0
   39.1061   21.2556   32.8697 H   0  0  0  0  0  0  0  0  0  0  0  0
   37.7979   22.0647   31.8682 H   0  0  0  0  0  0  0  0  0  0  0  0
  1 13  1  0
  1  2  1  0
  2  3  2  0
  3  4  1  0
  5  4  2  0
  6  5  1  0
  7  6  2  0
  7  2  1  0
  8  6  1  0
  8 12  1  0
  9 10  2  0
  9  8  1  0
 10 11  1  0
 11 12  2  0
 13 14  2  0
 14 15  1  0
 15 25  1  0
 16 15  2  0
 17 16  1  0
 18 17  2  0
 18 13  1  0
 19 20  1  0
 19 17  1  0
 21 20  1  0
 22 21  1  0
 23 22  1  0
 23 24  1  0
 24 19  1  0
 25 28  1  0
 25 27  1  0
 26 25  1  0
  3 29  1  0
  4 30  1  0
  5 31  1  0
  9 32  1  0
 11 33  1  0
 14 34  1  0
 19 35  1  0
 20 36  1  0
 20 37  1  0
 21 38  1  0
 21 39  1  0
 22 40  1  0
 22 41  1  0
 23 42  1  0
 23 43  1  0
 24 44  1  0
 24 45  1  0
M  ISO  8  29  14  30  14  31  14  32  14  33  14  34  14  35  13  36  13
M  ISO  8  37  13  38  13  39  13  40  13  41  13  42  13  43  13  44  13
M  ISO  1  45  13
M  END
>  <minimizedAffinity>  (1) 
-5.6480999

>  <minimizedRMSD>  (1) 
0.703307629

$$$$
