
     RDKit          3D

 36 39  0  0  0  0  0  0  0  0999 V2000
   40.4310   22.4110   35.7120 C   0  0  0  0  0  0  0  0  0  0  0  0
   40.0080   22.9050   36.9700 C   0  0  0  0  0  0  0  0  0  0  0  0
   38.6290   23.0440   37.1610 C   0  0  0  0  0  0  0  0  0  0  0  0
   37.8020   22.7120   36.1700 N   0  0  0  0  0  0  0  0  0  0  0  0
   38.2430   22.2400   34.9730 C   0  0  0  0  0  0  0  0  0  0  0  0
   39.5380   22.0930   34.7490 N   0  0  0  0  0  0  0  0  0  0  0  0
   37.2650   21.9150   33.9830 N   0  0  0  0  0  0  0  0  0  0  0  0
   36.2850   21.0530   34.0870 N   0  0  0  0  0  0  0  0  0  0  0  0
   35.5370   20.9850   32.9630 C   0  0  0  0  0  0  0  0  0  0  0  0
   36.1350   21.8940   32.1150 C   0  0  0  0  0  0  0  0  0  0  0  0
   37.2230   22.4790   32.7590 C   0  0  0  0  0  0  0  0  0  0  0  0
   38.2310   23.5480   38.4520 C   0  0  0  0  0  0  0  0  0  0  0  0
   37.8290   24.8740   38.3540 F   0  0  0  0  0  0  0  0  0  0  0  0
   39.3730   23.5910   39.2420 F   0  0  0  0  0  0  0  0  0  0  0  0
   37.2380   22.8290   39.0610 F   0  0  0  0  0  0  0  0  0  0  0  0
   41.7550   22.2500   35.4550 O   0  0  0  0  0  0  0  0  0  0  0  0
   42.6690   21.3830   35.8880 C   0  0  0  0  0  0  0  0  0  0  0  0
   42.5600   20.1890   36.5890 C   0  0  0  0  0  0  0  0  0  0  0  0
   43.6370   19.4230   36.9510 C   0  0  0  0  0  0  0  0  0  0  0  0
   44.8840   19.8640   36.5980 C   0  0  0  0  0  0  0  0  0  0  0  0
   45.0120   21.0380   35.9070 C   0  0  0  0  0  0  0  0  0  0  0  0
   43.9200   21.7960   35.5510 N   0  0  0  0  0  0  0  0  0  0  0  0
   46.3580   21.4030   35.5920 N   0  0  0  0  0  0  0  0  0  0  0  0
   47.1770   20.9190   34.6260 C   0  0  0  0  0  0  0  0  0  0  0  0
   48.3590   21.5650   34.7030 N   0  0  0  0  0  0  0  0  0  0  0  0
   48.2580   22.4330   35.7050 C   0  0  0  0  0  0  0  0  0  0  0  0
   47.0250   22.3480   36.2700 N   0  0  0  0  0  0  0  0  0  0  0  0
   40.7287   23.1667   37.7587 H   0  0  0  0  0  0  0  0  0  0  0  0
   34.6576   20.3530   32.7699 H   0  0  0  0  0  0  0  0  0  0  0  0
   35.8045   22.1213   31.0907 H   0  0  0  0  0  0  0  0  0  0  0  0
   37.9049   23.2412   32.3539 H   0  0  0  0  0  0  0  0  0  0  0  0
   41.5552   19.8395   36.8686 H   0  0  0  0  0  0  0  0  0  0  0  0
   43.5038   18.4836   37.5076 H   0  0  0  0  0  0  0  0  0  0  0  0
   45.7758   19.2793   36.8677 H   0  0  0  0  0  0  0  0  0  0  0  0
   46.9209   20.1320   33.9014 H   0  0  0  0  0  0  0  0  0  0  0  0
   49.0548   23.1187   36.0289 H   0  0  0  0  0  0  0  0  0  0  0  0
  1  2  2  0
  2  3  1  0
  3 12  1  0
  4  3  2  0
  5  4  1  0
  6  5  2  0
  6  1  1  0
  7  8  1  0
  7  5  1  0
  9  8  2  0
 10 11  2  0
 10  9  1  0
 11  7  1  0
 12 15  1  0
 12 14  1  0
 13 12  1  0
 16  1  1  0
 16 17  1  0
 17 18  2  0
 18 19  1  0
 20 19  2  0
 21 20  1  0
 22 17  1  0
 22 21  2  0
 23 21  1  0
 23 27  1  0
 24 25  2  0
 24 23  1  0
 25 26  1  0
 26 27  2  0
  2 28  1  0
  9 29  1  0
 10 30  1  0
 11 31  1  0
 18 32  1  0
 19 33  1  0
 20 34  1  0
 24 35  1  0
 26 36  1  0
M  ISO  8  28  14  29  14  30  14  31  14  32  14  33  14  34  14  35  14
M  ISO  1  36  14
M  END
>  <minimizedAffinity>  (1) 
-5.64646816

>  <minimizedRMSD>  (1) 
0.806553781

$$$$
