
     RDKit          3D

 41 44  0  0  0  0  0  0  0  0999 V2000
   42.2770   22.3050   36.2170 O   0  0  0  0  0  0  0  0  0  0  0  0
   43.1090   21.2660   36.4040 C   0  0  0  0  0  0  0  0  0  0  0  0
   42.8960   19.9990   36.9540 C   0  0  0  0  0  0  0  0  0  0  0  0
   43.8820   19.0490   37.0670 C   0  0  0  0  0  0  0  0  0  0  0  0
   45.1320   19.3760   36.6110 C   0  0  0  0  0  0  0  0  0  0  0  0
   45.3510   20.6160   36.0690 C   0  0  0  0  0  0  0  0  0  0  0  0
   44.3540   21.5430   35.9690 N   0  0  0  0  0  0  0  0  0  0  0  0
   46.6870   20.8350   35.6340 N   0  0  0  0  0  0  0  0  0  0  0  0
   47.3300   20.4110   34.5330 C   0  0  0  0  0  0  0  0  0  0  0  0
   48.5900   20.8670   34.5370 N   0  0  0  0  0  0  0  0  0  0  0  0
   48.7330   21.5870   35.6600 C   0  0  0  0  0  0  0  0  0  0  0  0
   47.5640   21.5750   36.3440 N   0  0  0  0  0  0  0  0  0  0  0  0
   40.9300   22.4220   36.2130 C   0  0  0  0  0  0  0  0  0  0  0  0
   40.2640   22.9280   37.3420 C   0  0  0  0  0  0  0  0  0  0  0  0
   38.8710   23.0260   37.2790 C   0  0  0  0  0  0  0  0  0  0  0  0
   38.2440   22.6370   36.1590 N   0  0  0  0  0  0  0  0  0  0  0  0
   38.9270   22.1490   35.0770 C   0  0  0  0  0  0  0  0  0  0  0  0
   40.2500   22.0480   35.1160 N   0  0  0  0  0  0  0  0  0  0  0  0
   38.2130   21.7580   33.9300 N   0  0  0  0  0  0  0  0  0  0  0  0
   36.7650   21.5220   33.8480 C   0  0  0  0  0  0  0  0  0  0  0  0
   36.3330   21.9690   32.4900 C   0  0  0  0  0  0  0  0  0  0  0  0
   37.6320   22.1640   31.7050 C   0  0  0  0  0  0  0  0  0  0  0  0
   38.6830   21.4960   32.5920 C   0  0  0  0  0  0  0  0  0  0  0  0
   38.2240   23.5480   38.4570 C   0  0  0  0  0  0  0  0  0  0  0  0
   37.6850   24.7960   38.2030 F   0  0  0  0  0  0  0  0  0  0  0  0
   39.2020   23.7470   39.4100 F   0  0  0  0  0  0  0  0  0  0  0  0
   37.2200   22.7510   38.9480 F   0  0  0  0  0  0  0  0  0  0  0  0
   41.8873   19.7496   37.3149 H   0  0  0  0  0  0  0  0  0  0  0  0
   43.6756   18.0623   37.5073 H   0  0  0  0  0  0  0  0  0  0  0  0
   45.9542   18.6485   36.6794 H   0  0  0  0  0  0  0  0  0  0  0  0
   46.8878   19.7830   33.7455 H   0  0  0  0  0  0  0  0  0  0  0  0
   49.6517   22.1038   35.9746 H   0  0  0  0  0  0  0  0  0  0  0  0
   40.8178   23.2354   38.2414 H   0  0  0  0  0  0  0  0  0  0  0  0
   36.5472   20.4521   33.9820 H   0  0  0  0  0  0  0  0  0  0  0  0
   36.2293   22.0733   34.6348 H   0  0  0  0  0  0  0  0  0  0  0  0
   35.7042   21.2029   32.0127 H   0  0  0  0  0  0  0  0  0  0  0  0
   35.7323   22.8897   32.5299 H   0  0  0  0  0  0  0  0  0  0  0  0
   37.5760   21.6729   30.7223 H   0  0  0  0  0  0  0  0  0  0  0  0
   37.8540   23.2209   31.4961 H   0  0  0  0  0  0  0  0  0  0  0  0
   38.7313   20.4144   32.3974 H   0  0  0  0  0  0  0  0  0  0  0  0
   39.6989   21.8781   32.4131 H   0  0  0  0  0  0  0  0  0  0  0  0
  1  2  1  0
  2  3  2  0
  3  4  1  0
  5  4  2  0
  6  5  1  0
  7  6  2  0
  7  2  1  0
  8  6  1  0
  8 12  1  0
  9 10  2  0
  9  8  1  0
 10 11  1  0
 11 12  2  0
 13  1  1  0
 13 14  2  0
 15 14  1  0
 15 24  1  0
 16 15  2  0
 17 18  2  0
 17 16  1  0
 18 13  1  0
 19 17  1  0
 20 19  1  0
 21 20  1  0
 22 21  1  0
 22 23  1  0
 23 19  1  0
 24 27  1  0
 24 26  1  0
 25 24  1  0
  3 28  1  0
  4 29  1  0
  5 30  1  0
  9 31  1  0
 11 32  1  0
 14 33  1  0
 20 34  1  0
 20 35  1  0
 21 36  1  0
 21 37  1  0
 22 38  1  0
 22 39  1  0
 23 40  1  0
 23 41  1  0
M  ISO  8  28  14  29  14  30  14  31  14  32  14  33  14  34  13  35  13
M  ISO  6  36  13  37  13  38  13  39  13  40  13  41  13
M  END
>  <minimizedAffinity>  (1) 
-5.55008221

>  <minimizedRMSD>  (1) 
0.173994362

$$$$
