
     RDKit          3D

 36 39  0  0  0  0  0  0  0  0999 V2000
   41.9150   22.3200   35.7570 O   0  0  0  0  0  0  0  0  0  0  0  0
   42.7740   21.3580   36.1040 C   0  0  0  0  0  0  0  0  0  0  0  0
   42.5870   20.1420   36.7740 C   0  0  0  0  0  0  0  0  0  0  0  0
   43.6090   19.2690   37.0450 C   0  0  0  0  0  0  0  0  0  0  0  0
   44.8680   19.6180   36.6330 C   0  0  0  0  0  0  0  0  0  0  0  0
   45.0730   20.7980   35.9780 C   0  0  0  0  0  0  0  0  0  0  0  0
   44.0380   21.6690   35.7120 N   0  0  0  0  0  0  0  0  0  0  0  0
   46.4220   21.0470   35.6030 N   0  0  0  0  0  0  0  0  0  0  0  0
   47.1610   20.5360   34.6040 C   0  0  0  0  0  0  0  0  0  0  0  0
   48.3890   21.0690   34.6370 N   0  0  0  0  0  0  0  0  0  0  0  0
   48.4130   21.9220   35.6690 C   0  0  0  0  0  0  0  0  0  0  0  0
   47.2040   21.9110   36.2650 N   0  0  0  0  0  0  0  0  0  0  0  0
   40.5770   22.4770   35.9310 C   0  0  0  0  0  0  0  0  0  0  0  0
   40.1050   22.9610   37.1750 C   0  0  0  0  0  0  0  0  0  0  0  0
   38.7100   23.1000   37.2910 C   0  0  0  0  0  0  0  0  0  0  0  0
   37.9260   22.7820   36.2580 N   0  0  0  0  0  0  0  0  0  0  0  0
   38.4390   22.3200   35.0800 C   0  0  0  0  0  0  0  0  0  0  0  0
   39.7300   22.1690   34.9150 N   0  0  0  0  0  0  0  0  0  0  0  0
   37.4660   22.0090   34.0340 C   0  0  0  0  0  0  0  0  0  0  0  0
   37.3870   22.5030   32.7540 C   0  0  0  0  0  0  0  0  0  0  0  0
   36.3290   21.9380   32.1360 N   0  0  0  0  0  0  0  0  0  0  0  0
   35.7210   21.0820   33.0020 C   0  0  0  0  0  0  0  0  0  0  0  0
   36.4410   21.1570   34.1370 N   0  0  0  0  0  0  0  0  0  0  0  0
   38.2530   23.5970   38.5740 C   0  0  0  0  0  0  0  0  0  0  0  0
   37.7630   24.8790   38.4580 F   0  0  0  0  0  0  0  0  0  0  0  0
   39.3450   23.6680   39.4070 F   0  0  0  0  0  0  0  0  0  0  0  0
   37.2670   22.8040   39.1470 F   0  0  0  0  0  0  0  0  0  0  0  0
   41.5706   19.8745   37.0985 H   0  0  0  0  0  0  0  0  0  0  0  0
   43.4246   18.3225   37.5742 H   0  0  0  0  0  0  0  0  0  0  0  0
   45.7159   18.9457   36.8305 H   0  0  0  0  0  0  0  0  0  0  0  0
   46.8110   19.7938   33.8715 H   0  0  0  0  0  0  0  0  0  0  0  0
   49.2756   22.5303   35.9787 H   0  0  0  0  0  0  0  0  0  0  0  0
   40.7873   23.2129   38.0002 H   0  0  0  0  0  0  0  0  0  0  0  0
   38.0730   23.2377   32.3071 H   0  0  0  0  0  0  0  0  0  0  0  0
   34.8320   20.4619   32.8147 H   0  0  0  0  0  0  0  0  0  0  0  0
   36.2264   20.6188   34.9886 H   0  0  0  0  0  0  0  0  0  0  0  0
  1 13  1  0
  1  2  1  0
  2  3  2  0
  3  4  1  0
  5  4  2  0
  6  5  1  0
  7  6  2  0
  7  2  1  0
  8  6  1  0
  8 12  1  0
  9 10  2  0
  9  8  1  0
 10 11  1  0
 11 12  2  0
 13 14  2  0
 14 15  1  0
 15 24  1  0
 16 15  2  0
 17 16  1  0
 18 17  2  0
 18 13  1  0
 19 23  1  0
 19 17  1  0
 20 19  2  0
 21 20  1  0
 21 22  2  0
 22 23  1  0
 24 27  1  0
 24 26  1  0
 25 24  1  0
  3 28  1  0
  4 29  1  0
  5 30  1  0
  9 31  1  0
 11 32  1  0
 14 33  1  0
 20 34  1  0
 22 35  1  0
 23 36  1  0
M  ISO  8  28  14  29  14  30  14  31  14  32  14  33  14  34  14  35  14
M  ISO  1  36   9
M  END
>  <minimizedAffinity>  (1) 
-5.3376832

>  <minimizedRMSD>  (1) 
0.616192341

$$$$
