
     RDKit          3D

 36 39  0  0  0  0  0  0  0  0999 V2000
   40.4670   22.4050   35.7750 C   0  0  0  0  0  0  0  0  0  0  0  0
   40.0530   22.9180   37.0290 C   0  0  0  0  0  0  0  0  0  0  0  0
   38.6710   23.0650   37.2080 C   0  0  0  0  0  0  0  0  0  0  0  0
   37.8370   22.7250   36.2160 N   0  0  0  0  0  0  0  0  0  0  0  0
   38.2860   22.2370   35.0270 C   0  0  0  0  0  0  0  0  0  0  0  0
   39.5790   22.0820   34.8160 N   0  0  0  0  0  0  0  0  0  0  0  0
   37.3600   21.8720   33.9600 C   0  0  0  0  0  0  0  0  0  0  0  0
   36.2670   21.0340   34.1180 C   0  0  0  0  0  0  0  0  0  0  0  0
   35.6850   20.9750   32.8560 C   0  0  0  0  0  0  0  0  0  0  0  0
   36.3860   21.7350   31.9820 N   0  0  0  0  0  0  0  0  0  0  0  0
   37.4080   22.2820   32.6590 N   0  0  0  0  0  0  0  0  0  0  0  0
   38.2740   23.5880   38.4910 C   0  0  0  0  0  0  0  0  0  0  0  0
   37.8350   24.8810   38.3900 F   0  0  0  0  0  0  0  0  0  0  0  0
   39.4020   23.6180   39.2890 F   0  0  0  0  0  0  0  0  0  0  0  0
   37.2830   22.8460   39.1120 F   0  0  0  0  0  0  0  0  0  0  0  0
   41.7940   22.2340   35.5250 O   0  0  0  0  0  0  0  0  0  0  0  0
   42.6980   21.3550   35.9330 C   0  0  0  0  0  0  0  0  0  0  0  0
   42.5700   20.1630   36.6590 C   0  0  0  0  0  0  0  0  0  0  0  0
   43.6320   19.3670   36.9960 C   0  0  0  0  0  0  0  0  0  0  0  0
   44.8870   19.7700   36.5940 C   0  0  0  0  0  0  0  0  0  0  0  0
   45.0270   20.9250   35.8890 C   0  0  0  0  0  0  0  0  0  0  0  0
   43.9500   21.7120   35.5580 N   0  0  0  0  0  0  0  0  0  0  0  0
   46.3700   21.2470   35.5220 N   0  0  0  0  0  0  0  0  0  0  0  0
   47.1560   20.7330   34.5540 C   0  0  0  0  0  0  0  0  0  0  0  0
   48.3440   21.3430   34.5800 N   0  0  0  0  0  0  0  0  0  0  0  0
   48.3020   22.2430   35.5700 C   0  0  0  0  0  0  0  0  0  0  0  0
   47.0850   22.1870   36.1540 N   0  0  0  0  0  0  0  0  0  0  0  0
   40.7739   23.1852   37.8157 H   0  0  0  0  0  0  0  0  0  0  0  0
   35.9342   20.5285   35.0365 H   0  0  0  0  0  0  0  0  0  0  0  0
   34.7851   20.3946   32.6044 H   0  0  0  0  0  0  0  0  0  0  0  0
   36.1744   21.8687   30.9829 H   0  0  0  0  0  0  0  0  0  0  0  0
   41.5637   19.8505   36.9746 H   0  0  0  0  0  0  0  0  0  0  0  0
   43.4884   18.4383   37.5677 H   0  0  0  0  0  0  0  0  0  0  0  0
   45.7696   19.1619   36.8415 H   0  0  0  0  0  0  0  0  0  0  0  0
   46.8645   19.9367   33.8533 H   0  0  0  0  0  0  0  0  0  0  0  0
   49.1221   22.9163   35.8599 H   0  0  0  0  0  0  0  0  0  0  0  0
  1  2  2  0
  2  3  1  0
  3 12  1  0
  4  3  2  0
  5  4  1  0
  6  5  2  0
  6  1  1  0
  7  8  1  0
  7  5  1  0
  9  8  2  0
 10 11  1  0
 10  9  1  0
 11  7  2  0
 12 15  1  0
 12 14  1  0
 13 12  1  0
 16  1  1  0
 16 17  1  0
 17 18  2  0
 18 19  1  0
 20 19  2  0
 21 20  1  0
 22 21  2  0
 22 17  1  0
 23 21  1  0
 23 27  1  0
 24 25  2  0
 24 23  1  0
 25 26  1  0
 26 27  2  0
  2 28  1  0
  8 29  1  0
  9 30  1  0
 10 31  1  0
 18 32  1  0
 19 33  1  0
 20 34  1  0
 24 35  1  0
 26 36  1  0
M  ISO  8  28  14  29  14  30  14  31   9  32  14  33  14  34  14  35  14
M  ISO  1  36  14
M  END
>  <minimizedAffinity>  (1) 
-5.30576515

>  <minimizedRMSD>  (1) 
0.765467942

$$$$
