
     RDKit          3D

 41 43  0  0  0  0  0  0  0  0999 V2000
   43.0440   21.2530   36.4290 C   0  0  0  0  0  0  0  0  0  0  0  0
   42.7770   20.0100   36.9840 C   0  0  0  0  0  0  0  0  0  0  0  0
   43.7160   19.0130   37.1120 C   0  0  0  0  0  0  0  0  0  0  0  0
   44.9800   19.2860   36.6570 C   0  0  0  0  0  0  0  0  0  0  0  0
   45.2620   20.5090   36.1060 C   0  0  0  0  0  0  0  0  0  0  0  0
   44.3030   21.4830   35.9920 N   0  0  0  0  0  0  0  0  0  0  0  0
   46.6060   20.6710   35.6720 N   0  0  0  0  0  0  0  0  0  0  0  0
   47.2360   20.2010   34.5850 C   0  0  0  0  0  0  0  0  0  0  0  0
   48.5120   20.6050   34.5790 N   0  0  0  0  0  0  0  0  0  0  0  0
   48.6690   21.3430   35.6880 C   0  0  0  0  0  0  0  0  0  0  0  0
   47.5090   21.3920   36.3690 N   0  0  0  0  0  0  0  0  0  0  0  0
   42.2630   22.3180   36.2320 O   0  0  0  0  0  0  0  0  0  0  0  0
   40.9110   22.5060   36.2180 C   0  0  0  0  0  0  0  0  0  0  0  0
   40.2750   22.9480   37.4090 C   0  0  0  0  0  0  0  0  0  0  0  0
   38.8840   23.1220   37.3270 C   0  0  0  0  0  0  0  0  0  0  0  0
   38.2540   22.8690   36.1710 N   0  0  0  0  0  0  0  0  0  0  0  0
   38.9200   22.4460   35.0630 C   0  0  0  0  0  0  0  0  0  0  0  0
   40.2250   22.2680   35.0870 N   0  0  0  0  0  0  0  0  0  0  0  0
   38.2470   23.5720   38.5410 C   0  0  0  0  0  0  0  0  0  0  0  0
   37.6740   24.8070   38.3730 F   0  0  0  0  0  0  0  0  0  0  0  0
   39.2430   23.7350   39.4850 F   0  0  0  0  0  0  0  0  0  0  0  0
   37.2810   22.7000   39.0250 F   0  0  0  0  0  0  0  0  0  0  0  0
   38.2050   22.1710   33.7890 C   0  0  0  0  0  0  0  0  0  0  0  0
   36.8980   21.4540   33.9910 C   0  0  0  0  0  0  0  0  0  0  0  0
   37.9110   23.4670   33.0590 C   0  0  0  0  0  0  0  0  0  0  0  0
   39.1650   21.3150   32.9590 C   0  0  0  0  0  0  0  0  0  0  0  0
   41.7563   19.8103   37.3421 H   0  0  0  0  0  0  0  0  0  0  0  0
   43.4639   18.0402   37.5594 H   0  0  0  0  0  0  0  0  0  0  0  0
   45.7686   18.5230   36.7341 H   0  0  0  0  0  0  0  0  0  0  0  0
   46.7709   19.5739   33.8101 H   0  0  0  0  0  0  0  0  0  0  0  0
   49.6044   21.8340   35.9946 H   0  0  0  0  0  0  0  0  0  0  0  0
   40.8358   23.1414   38.3353 H   0  0  0  0  0  0  0  0  0  0  0  0
   36.7015   21.3462   35.0679 H   0  0  0  0  0  0  0  0  0  0  0  0
   36.0864   22.0332   33.5264 H   0  0  0  0  0  0  0  0  0  0  0  0
   36.9504   20.4583   33.5264 H   0  0  0  0  0  0  0  0  0  0  0  0
   37.7294   24.2673   33.7914 H   0  0  0  0  0  0  0  0  0  0  0  0
   38.7710   23.7356   32.4280 H   0  0  0  0  0  0  0  0  0  0  0  0
   37.0192   23.3382   32.4280 H   0  0  0  0  0  0  0  0  0  0  0  0
   39.8147   20.7357   33.6316 H   0  0  0  0  0  0  0  0  0  0  0  0
   38.5874   20.6267   32.3245 H   0  0  0  0  0  0  0  0  0  0  0  0
   39.7828   21.9674   32.3245 H   0  0  0  0  0  0  0  0  0  0  0  0
  1  2  2  0
  2  3  1  0
  4  3  2  0
  5  4  1  0
  6  5  2  0
  6  1  1  0
  7  5  1  0
  7 11  1  0
  8  7  1  0
  9  8  2  0
  9 10  1  0
 10 11  2  0
 12  1  1  0
 13 12  1  0
 13 14  2  0
 15 14  1  0
 15 19  1  0
 16 15  2  0
 17 18  2  0
 17 16  1  0
 18 13  1  0
 19 22  1  0
 19 21  1  0
 20 19  1  0
 23 24  1  0
 23 17  1  0
 25 23  1  0
 26 23  1  0
  2 27  1  0
  3 28  1  0
  4 29  1  0
  8 30  1  0
 10 31  1  0
 14 32  1  0
 24 33  1  0
 24 34  1  0
 24 35  1  0
 25 36  1  0
 25 37  1  0
 25 38  1  0
 26 39  1  0
 26 40  1  0
 26 41  1  0
M  ISO  8  27  14  28  14  29  14  30  14  31  14  32  14  33   8  34   8
M  ISO  7  35   8  36   8  37   8  38   8  39   8  40   8  41   8
M  END
>  <minimizedAffinity>  (1) 
-5.10548258

>  <minimizedRMSD>  (1) 
0.302045047

$$$$
