
     RDKit          3D

 32 34  0  0  0  0  0  0  0  0999 V2000
   43.0710   21.2950   36.3840 C   0  0  0  0  0  0  0  0  0  0  0  0
   42.8460   20.0340   36.9360 C   0  0  0  0  0  0  0  0  0  0  0  0
   43.8180   19.0750   37.0630 C   0  0  0  0  0  0  0  0  0  0  0  0
   45.0770   19.3840   36.6200 C   0  0  0  0  0  0  0  0  0  0  0  0
   45.3230   20.6150   36.0760 C   0  0  0  0  0  0  0  0  0  0  0  0
   44.3340   21.5610   35.9580 N   0  0  0  0  0  0  0  0  0  0  0  0
   46.6650   20.8190   35.6520 N   0  0  0  0  0  0  0  0  0  0  0  0
   47.3070   20.3560   34.5560 C   0  0  0  0  0  0  0  0  0  0  0  0
   48.5740   20.8050   34.5670 N   0  0  0  0  0  0  0  0  0  0  0  0
   48.7070   21.5420   35.6700 C   0  0  0  0  0  0  0  0  0  0  0  0
   47.5340   21.5640   36.3600 N   0  0  0  0  0  0  0  0  0  0  0  0
   42.2630   22.3320   36.1840 O   0  0  0  0  0  0  0  0  0  0  0  0
   40.9110   22.4790   36.2080 C   0  0  0  0  0  0  0  0  0  0  0  0
   40.2940   22.9820   37.3740 C   0  0  0  0  0  0  0  0  0  0  0  0
   38.8950   23.1070   37.3260 C   0  0  0  0  0  0  0  0  0  0  0  0
   38.2390   22.7530   36.2080 N   0  0  0  0  0  0  0  0  0  0  0  0
   38.8890   22.2730   35.1150 C   0  0  0  0  0  0  0  0  0  0  0  0
   40.1940   22.1360   35.1060 N   0  0  0  0  0  0  0  0  0  0  0  0
   38.2760   23.6230   38.5230 C   0  0  0  0  0  0  0  0  0  0  0  0
   37.7870   24.8900   38.3340 F   0  0  0  0  0  0  0  0  0  0  0  0
   39.2700   23.7300   39.4760 F   0  0  0  0  0  0  0  0  0  0  0  0
   37.2530   22.8180   39.0110 F   0  0  0  0  0  0  0  0  0  0  0  0
   38.0400   21.9320   33.9800 C   0  0  0  0  0  0  0  0  0  0  0  0
   36.8870   21.4630   34.1610 O   0  0  0  0  0  0  0  0  0  0  0  0
   38.4290   22.0920   32.6570 O   0  0  0  0  0  0  0  0  0  0  0  0
   41.8320   19.7954   37.2893 H   0  0  0  0  0  0  0  0  0  0  0  0
   43.5947   18.0927   37.5048 H   0  0  0  0  0  0  0  0  0  0  0  0
   45.8875   18.6448   36.7014 H   0  0  0  0  0  0  0  0  0  0  0  0
   46.8637   19.7148   33.7799 H   0  0  0  0  0  0  0  0  0  0  0  0
   49.6293   22.0567   35.9773 H   0  0  0  0  0  0  0  0  0  0  0  0
   40.8737   23.2595   38.2667 H   0  0  0  0  0  0  0  0  0  0  0  0
   39.3247   22.4565   32.4450 H   0  0  0  0  0  0  0  0  0  0  0  0
  1  2  2  0
  2  3  1  0
  4  3  2  0
  5  4  1  0
  6  5  2  0
  6  1  1  0
  7  5  1  0
  7 11  1  0
  8  9  2  0
  8  7  1  0
  9 10  1  0
 10 11  2  0
 12 13  1  0
 12  1  1  0
 13 14  2  0
 15 14  1  0
 15 19  1  0
 16 15  2  0
 17 16  1  0
 18 17  2  0
 18 13  1  0
 19 22  1  0
 19 21  1  0
 20 19  1  0
 23 24  2  0
 23 17  1  0
 25 23  1  0
  2 26  1  0
  3 27  1  0
  4 28  1  0
  8 29  1  0
 10 30  1  0
 14 31  1  0
 25 32  1  0
M  ISO  7  26  14  27  14  28  14  29  14  30  14  31  14  32   3
M  END
>  <minimizedAffinity>  (1) 
-4.93144751

>  <minimizedRMSD>  (1) 
0.177951977

$$$$
