
     RDKit          3D

 36 39  0  0  0  0  0  0  0  0999 V2000
   42.9420   21.3290   36.2690 C   0  0  0  0  0  0  0  0  0  0  0  0
   42.6470   20.1170   36.8900 C   0  0  0  0  0  0  0  0  0  0  0  0
   43.5830   19.1300   37.1080 C   0  0  0  0  0  0  0  0  0  0  0  0
   44.8680   19.3690   36.6850 C   0  0  0  0  0  0  0  0  0  0  0  0
   45.1660   20.5570   36.0730 C   0  0  0  0  0  0  0  0  0  0  0  0
   44.2210   21.5270   35.8660 N   0  0  0  0  0  0  0  0  0  0  0  0
   46.5320   20.6930   35.6770 N   0  0  0  0  0  0  0  0  0  0  0  0
   47.1950   20.1660   34.6360 C   0  0  0  0  0  0  0  0  0  0  0  0
   48.4810   20.5740   34.6660 N   0  0  0  0  0  0  0  0  0  0  0  0
   48.6010   21.3570   35.7350 C   0  0  0  0  0  0  0  0  0  0  0  0
   47.4070   21.4340   36.3610 N   0  0  0  0  0  0  0  0  0  0  0  0
   42.1760   22.3860   35.9790 O   0  0  0  0  0  0  0  0  0  0  0  0
   40.8360   22.6070   36.0270 C   0  0  0  0  0  0  0  0  0  0  0  0
   40.2540   22.9960   37.2630 C   0  0  0  0  0  0  0  0  0  0  0  0
   38.8610   23.2110   37.2510 C   0  0  0  0  0  0  0  0  0  0  0  0
   38.1850   23.0410   36.1120 N   0  0  0  0  0  0  0  0  0  0  0  0
   38.8000   22.6670   34.9540 C   0  0  0  0  0  0  0  0  0  0  0  0
   40.0920   22.4520   34.9030 N   0  0  0  0  0  0  0  0  0  0  0  0
   38.2940   23.6050   38.5180 C   0  0  0  0  0  0  0  0  0  0  0  0
   37.7780   24.8880   38.4460 F   0  0  0  0  0  0  0  0  0  0  0  0
   39.3200   23.6510   39.4380 F   0  0  0  0  0  0  0  0  0  0  0  0
   37.2830   22.7640   38.9560 F   0  0  0  0  0  0  0  0  0  0  0  0
   37.9420   22.5080   33.7400 C   0  0  0  0  0  0  0  0  0  0  0  0
   36.9080   21.3590   33.8990 C   0  0  0  0  0  0  0  0  0  0  0  0
   38.0160   21.3150   32.8960 C   0  0  0  0  0  0  0  0  0  0  0  0
   41.6139   19.9392   37.2232 H   0  0  0  0  0  0  0  0  0  0  0  0
   43.3116   18.1856   37.6024 H   0  0  0  0  0  0  0  0  0  0  0  0
   45.6514   18.6119   36.8368 H   0  0  0  0  0  0  0  0  0  0  0  0
   46.7573   19.5032   33.8750 H   0  0  0  0  0  0  0  0  0  0  0  0
   49.5244   21.8606   36.0571 H   0  0  0  0  0  0  0  0  0  0  0  0
   40.8549   23.1220   38.1757 H   0  0  0  0  0  0  0  0  0  0  0  0
   37.9723   23.5789   33.4904 H   0  0  0  0  0  0  0  0  0  0  0  0
   36.9315   20.7067   34.7844 H   0  0  0  0  0  0  0  0  0  0  0  0
   35.8119   21.2692   33.8746 H   0  0  0  0  0  0  0  0  0  0  0  0
   37.7789   21.3952   31.8249 H   0  0  0  0  0  0  0  0  0  0  0  0
   38.8132   20.5887   32.6792 H   0  0  0  0  0  0  0  0  0  0  0  0
  1  2  2  0
  2  3  1  0
  4  3  2  0
  5  4  1  0
  6  5  2  0
  6  1  1  0
  7  5  1  0
  7 11  1  0
  8  9  2  0
  8  7  1  0
  9 10  1  0
 10 11  2  0
 12 13  1  0
 12  1  1  0
 13 14  2  0
 15 14  1  0
 15 19  1  0
 16 15  2  0
 17 16  1  0
 18 17  2  0
 18 13  1  0
 19 22  1  0
 19 21  1  0
 20 19  1  0
 23 24  1  0
 23 17  1  0
 25 23  1  0
 25 24  1  0
  2 26  1  0
  3 27  1  0
  4 28  1  0
  8 29  1  0
 10 30  1  0
 14 31  1  0
 23 32  1  0
 24 33  1  0
 24 34  1  0
 25 35  1  0
 25 36  1  0
M  ISO  8  26  14  27  14  28  14  29  14  30  14  31  14  32  13  33  13
M  ISO  3  34  13  35  13  36  13
M  END
>  <minimizedAffinity>  (1) 
-4.87179804

>  <minimizedRMSD>  (1) 
0.339714736

$$$$
