
     RDKit          3D

 31 33  0  0  0  0  0  0  0  0999 V2000
   43.1060   21.2450   36.4290 C   0  0  0  0  0  0  0  0  0  0  0  0
   42.8660   19.9830   36.9830 C   0  0  0  0  0  0  0  0  0  0  0  0
   43.8330   19.0150   37.0850 C   0  0  0  0  0  0  0  0  0  0  0  0
   45.0880   19.3090   36.6210 C   0  0  0  0  0  0  0  0  0  0  0  0
   45.3450   20.5410   36.0750 C   0  0  0  0  0  0  0  0  0  0  0  0
   44.3670   21.5000   35.9780 N   0  0  0  0  0  0  0  0  0  0  0  0
   46.6760   20.7240   35.6320 N   0  0  0  0  0  0  0  0  0  0  0  0
   47.3080   20.2760   34.5360 C   0  0  0  0  0  0  0  0  0  0  0  0
   48.5760   20.7060   34.5350 N   0  0  0  0  0  0  0  0  0  0  0  0
   48.7350   21.4280   35.6420 C   0  0  0  0  0  0  0  0  0  0  0  0
   47.5680   21.4530   36.3360 N   0  0  0  0  0  0  0  0  0  0  0  0
   42.3130   22.3040   36.2420 O   0  0  0  0  0  0  0  0  0  0  0  0
   40.9600   22.4560   36.2260 C   0  0  0  0  0  0  0  0  0  0  0  0
   40.3160   22.9620   37.3830 C   0  0  0  0  0  0  0  0  0  0  0  0
   38.9230   23.0960   37.3080 C   0  0  0  0  0  0  0  0  0  0  0  0
   38.2910   22.7500   36.1840 N   0  0  0  0  0  0  0  0  0  0  0  0
   38.9600   22.2690   35.1020 C   0  0  0  0  0  0  0  0  0  0  0  0
   40.2640   22.1270   35.1270 N   0  0  0  0  0  0  0  0  0  0  0  0
   38.2130   21.9210   33.9380 N   0  0  0  0  0  0  0  0  0  0  0  0
   38.2920   23.6150   38.5020 C   0  0  0  0  0  0  0  0  0  0  0  0
   37.8030   24.8790   38.3040 F   0  0  0  0  0  0  0  0  0  0  0  0
   39.2710   23.7320   39.4690 F   0  0  0  0  0  0  0  0  0  0  0  0
   37.2590   22.8160   38.9760 F   0  0  0  0  0  0  0  0  0  0  0  0
   41.8555   19.7563   37.3539 H   0  0  0  0  0  0  0  0  0  0  0  0
   43.6074   18.0328   37.5259 H   0  0  0  0  0  0  0  0  0  0  0  0
   45.8890   18.5578   36.6862 H   0  0  0  0  0  0  0  0  0  0  0  0
   46.8524   19.6492   33.7553 H   0  0  0  0  0  0  0  0  0  0  0  0
   49.6667   21.9268   35.9471 H   0  0  0  0  0  0  0  0  0  0  0  0
   40.8780   23.2341   38.2886 H   0  0  0  0  0  0  0  0  0  0  0  0
   37.1895   22.0365   33.9293 H   0  0  0  0  0  0  0  0  0  0  0  0
   38.6970   21.5542   33.1061 H   0  0  0  0  0  0  0  0  0  0  0  0
  1  2  2  0
  2  3  1  0
  4  3  2  0
  5  4  1  0
  6  5  2  0
  6  1  1  0
  7  5  1  0
  7 11  1  0
  8  7  1  0
  9  8  2  0
  9 10  1  0
 10 11  2  0
 12  1  1  0
 13 12  1  0
 13 14  2  0
 15 14  1  0
 15 20  1  0
 16 15  2  0
 17 18  2  0
 17 16  1  0
 18 13  1  0
 19 17  1  0
 20 23  1  0
 20 22  1  0
 21 20  1  0
  2 24  1  0
  3 25  1  0
  4 26  1  0
  8 27  1  0
 10 28  1  0
 14 29  1  0
 19 30  1  0
 19 31  1  0
M  ISO  6  24  14  25  14  26  14  27  14  28  14  29  14
M  END
>  <minimizedAffinity>  (1) 
-4.81490564

>  <minimizedRMSD>  (1) 
0.040612679

$$$$
