
     RDKit          3D

 30 32  0  0  0  0  0  0  0  0999 V2000
   43.1160   21.2130   36.4370 C   0  0  0  0  0  0  0  0  0  0  0  0
   42.8830   19.9610   36.9760 C   0  0  0  0  0  0  0  0  0  0  0  0
   43.8440   18.9840   37.0850 C   0  0  0  0  0  0  0  0  0  0  0  0
   45.1020   19.2980   36.6240 C   0  0  0  0  0  0  0  0  0  0  0  0
   45.3490   20.5330   36.0870 C   0  0  0  0  0  0  0  0  0  0  0  0
   44.3750   21.4870   35.9900 N   0  0  0  0  0  0  0  0  0  0  0  0
   46.6860   20.7280   35.6500 N   0  0  0  0  0  0  0  0  0  0  0  0
   47.3090   20.2780   34.5380 C   0  0  0  0  0  0  0  0  0  0  0  0
   48.5880   20.7110   34.5330 N   0  0  0  0  0  0  0  0  0  0  0  0
   48.7390   21.4310   35.6500 C   0  0  0  0  0  0  0  0  0  0  0  0
   47.5790   21.4440   36.3370 N   0  0  0  0  0  0  0  0  0  0  0  0
   42.3200   22.2750   36.2490 O   0  0  0  0  0  0  0  0  0  0  0  0
   40.9670   22.4350   36.2450 C   0  0  0  0  0  0  0  0  0  0  0  0
   40.3280   22.9480   37.3970 C   0  0  0  0  0  0  0  0  0  0  0  0
   38.9360   23.0830   37.3130 C   0  0  0  0  0  0  0  0  0  0  0  0
   38.3000   22.7360   36.1940 N   0  0  0  0  0  0  0  0  0  0  0  0
   38.9670   22.2450   35.1100 C   0  0  0  0  0  0  0  0  0  0  0  0
   40.2800   22.0990   35.1370 N   0  0  0  0  0  0  0  0  0  0  0  0
   38.2980   23.6110   38.5090 C   0  0  0  0  0  0  0  0  0  0  0  0
   37.8150   24.8820   38.2870 F   0  0  0  0  0  0  0  0  0  0  0  0
   39.2760   23.7330   39.4720 F   0  0  0  0  0  0  0  0  0  0  0  0
   37.2630   22.8190   38.9750 F   0  0  0  0  0  0  0  0  0  0  0  0
   38.2770   21.8910   33.9540 O   0  0  0  0  0  0  0  0  0  0  0  0
   41.8697   19.7336   37.3387 H   0  0  0  0  0  0  0  0  0  0  0  0
   43.6183   17.9990   37.5196 H   0  0  0  0  0  0  0  0  0  0  0  0
   45.9109   18.5552   36.6871 H   0  0  0  0  0  0  0  0  0  0  0  0
   46.8459   19.6556   33.7581 H   0  0  0  0  0  0  0  0  0  0  0  0
   49.6664   21.9347   35.9602 H   0  0  0  0  0  0  0  0  0  0  0  0
   40.8885   23.2238   38.3024 H   0  0  0  0  0  0  0  0  0  0  0  0
   37.2931   21.9930   33.9140 H   0  0  0  0  0  0  0  0  0  0  0  0
  1  2  2  0
  2  3  1  0
  4  3  2  0
  5  4  1  0
  6  5  2  0
  6  1  1  0
  7  5  1  0
  7 11  1  0
  8  7  1  0
  9  8  2  0
  9 10  1  0
 10 11  2  0
 12  1  1  0
 13 12  1  0
 13 14  2  0
 15 14  1  0
 15 19  1  0
 16 15  2  0
 17 18  2  0
 17 16  1  0
 18 13  1  0
 19 22  1  0
 19 21  1  0
 20 19  1  0
 23 17  1  0
  2 24  1  0
  3 25  1  0
  4 26  1  0
  8 27  1  0
 10 28  1  0
 14 29  1  0
 23 30  1  0
M  ISO  7  24  14  25  14  26  14  27  14  28  14  29  14  30   3
M  END
>  <minimizedAffinity>  (1) 
-4.80463266

>  <minimizedRMSD>  (1) 
0.0431592688

$$$$
