
     RDKit          3D

 39 42  0  0  1  0  0  0  0  0999 V2000
   37.7250   26.0720   33.7470 N   0  0  0  0  0  0  0  0  0  0  0  0
   37.2640   27.3440   34.2440 C   0  0  0  0  0  0  0  0  0  0  0  0
   37.8610   27.8050   35.5000 C   0  0  0  0  0  0  0  0  0  0  0  0
   38.4340   26.8030   36.4130 C   0  0  0  0  0  0  0  0  0  0  0  0
   38.5800   25.4470   35.8220 C   0  0  0  0  0  0  0  0  0  0  0  0
   38.9240   25.6040   34.3690 C   0  0  2  0  0  0  0  0  0  0  0  0
   40.1530   26.3080   34.0440 C   0  0  0  0  0  0  0  0  0  0  0  0
   41.3000   26.6670   34.7230 C   0  0  0  0  0  0  0  0  0  0  0  0
   42.1970   27.3550   33.9990 N   0  0  0  0  0  0  0  0  0  0  0  0
   41.6490   27.4730   32.7910 C   0  0  0  0  0  0  0  0  0  0  0  0
   42.1730   28.1030   31.6710 C   0  0  0  0  0  0  0  0  0  0  0  0
   41.4340   28.1140   30.4940 C   0  0  0  0  0  0  0  0  0  0  0  0
   40.2110   27.5080   30.4560 C   0  0  0  0  0  0  0  0  0  0  0  0
   39.7020   26.8850   31.5750 C   0  0  0  0  0  0  0  0  0  0  0  0
   40.4170   26.8550   32.7770 C   0  0  0  0  0  0  0  0  0  0  0  0
   36.0690   26.0060   31.9060 C   0  0  0  0  0  0  0  0  0  0  0  0
   37.0030   25.3970   32.7400 C   0  0  0  0  0  0  0  0  0  0  0  0
   37.2130   24.0440   32.5530 C   0  0  0  0  0  0  0  0  0  0  0  0
   36.5080   23.3910   31.5810 N   0  0  0  0  0  0  0  0  0  0  0  0
   35.6180   24.0250   30.8020 C   0  0  0  0  0  0  0  0  0  0  0  0
   35.4050   25.3260   30.9710 N   0  0  0  0  0  0  0  0  0  0  0  0
   37.4756   28.1011   33.4746 H   0  0  0  0  0  0  0  0  0  0  0  0
   36.1948   27.2040   34.4614 H   0  0  0  0  0  0  0  0  0  0  0  0
   38.6678   28.5055   35.2385 H   0  0  0  0  0  0  0  0  0  0  0  0
   37.0153   28.2291   36.0612 H   0  0  0  0  0  0  0  0  0  0  0  0
   39.4296   27.1513   36.7252 H   0  0  0  0  0  0  0  0  0  0  0  0
   37.7311   26.7054   37.2535 H   0  0  0  0  0  0  0  0  0  0  0  0
   39.3830   24.9003   36.3380 H   0  0  0  0  0  0  0  0  0  0  0  0
   37.6431   24.8813   35.9320 H   0  0  0  0  0  0  0  0  0  0  0  0
   39.2282   24.6353   33.9458 H   0  0  0  0  0  0  0  0  0  0  0  0
   41.4667   26.4085   35.7791 H   0  0  0  0  0  0  0  0  0  0  0  0
   43.1109   27.7138   34.3103 H   0  0  0  0  0  0  0  0  0  0  0  0
   43.1598   28.5871   31.7142 H   0  0  0  0  0  0  0  0  0  0  0  0
   41.8329   28.6091   29.5963 H   0  0  0  0  0  0  0  0  0  0  0  0
   39.6268   27.5171   29.5240 H   0  0  0  0  0  0  0  0  0  0  0  0
   38.7150   26.4023   31.5220 H   0  0  0  0  0  0  0  0  0  0  0  0
   35.8728   27.0821   32.0222 H   0  0  0  0  0  0  0  0  0  0  0  0
   37.9372   23.5003   33.1775 H   0  0  0  0  0  0  0  0  0  0  0  0
   35.0676   23.4708   30.0275 H   0  0  0  0  0  0  0  0  0  0  0  0
  1  2  1  0
  1  6  1  0
  2  3  1  0
  3  4  1  0
  5  4  1  0
  6  5  1  0
  7  6  1  0
  7  8  2  0
  9  8  1  0
 10  9  1  0
 11 10  2  0
 12 11  1  0
 13 12  2  0
 13 14  1  0
 14 15  2  0
 15 10  1  0
 15  7  1  0
 16 17  2  0
 17  1  1  0
 18 17  1  0
 19 18  2  0
 20 21  2  0
 20 19  1  0
 21 16  1  0
  2 22  1  0
  2 23  1  0
  3 24  1  0
  3 25  1  0
  4 26  1  0
  4 27  1  0
  5 28  1  0
  5 29  1  0
  6 30  1  6
  8 31  1  0
  9 32  1  0
 11 33  1  0
 12 34  1  0
 13 35  1  0
 14 36  1  0
 16 37  1  0
 18 38  1  0
 20 39  1  0
M  ISO  8  22  13  23  13  24  13  25  13  26  13  27  13  28  13  29  13
M  ISO  8  30  13  31  14  32   9  33  14  34  14  35  14  36  14  37  14
M  ISO  2  38  14  39  14
M  END
>  <minimizedAffinity>  (1) 
-5.18833637

>  <minimizedRMSD>  (1) 
6.39446735

$$$$
