
     RDKit          3D

 38 41  0  0  1  0  0  0  0  0999 V2000
   37.6370   25.7840   33.1810 N   0  0  0  0  0  0  0  0  0  0  0  0
   37.1020   24.6240   32.5190 C   0  0  0  0  0  0  0  0  0  0  0  0
   38.0680   23.5410   32.2680 C   0  0  0  0  0  0  0  0  0  0  0  0
   39.4770   23.9370   32.0260 C   0  0  0  0  0  0  0  0  0  0  0  0
   39.8230   25.2980   32.5350 C   0  0  0  0  0  0  0  0  0  0  0  0
   38.9360   25.5890   33.7310 C   0  0  2  0  0  0  0  0  0  0  0  0
   36.1930   27.5370   32.1610 C   0  0  0  0  0  0  0  0  0  0  0  0
   36.8920   26.9810   33.2460 C   0  0  0  0  0  0  0  0  0  0  0  0
   36.8260   27.6790   34.4370 C   0  0  0  0  0  0  0  0  0  0  0  0
   36.1110   28.8370   34.5040 N   0  0  0  0  0  0  0  0  0  0  0  0
   35.4620   29.3240   33.4380 C   0  0  0  0  0  0  0  0  0  0  0  0
   35.5000   28.6740   32.2570 N   0  0  0  0  0  0  0  0  0  0  0  0
   38.9840   24.5630   34.7440 N   0  0  0  0  0  0  0  0  0  0  0  0
   38.0910   23.7940   35.3820 C   0  0  0  0  0  0  0  0  0  0  0  0
   38.6830   22.9770   36.2590 N   0  0  0  0  0  0  0  0  0  0  0  0
   39.9930   23.2190   36.1920 C   0  0  0  0  0  0  0  0  0  0  0  0
   41.0040   22.6110   36.9190 C   0  0  0  0  0  0  0  0  0  0  0  0
   42.2730   23.0460   36.6570 N   0  0  0  0  0  0  0  0  0  0  0  0
   42.5040   24.0190   35.7330 C   0  0  0  0  0  0  0  0  0  0  0  0
   41.4910   24.5840   35.0490 N   0  0  0  0  0  0  0  0  0  0  0  0
   40.2000   24.2060   35.2510 C   0  0  0  0  0  0  0  0  0  0  0  0
   40.7310   21.5960   37.8780 N   0  0  0  0  0  0  0  0  0  0  0  0
   36.2925   24.2192   33.1441 H   0  0  0  0  0  0  0  0  0  0  0  0
   36.7654   24.9667   31.5294 H   0  0  0  0  0  0  0  0  0  0  0  0
   38.0561   22.8763   33.1443 H   0  0  0  0  0  0  0  0  0  0  0  0
   37.7369   23.0756   31.3279 H   0  0  0  0  0  0  0  0  0  0  0  0
   40.1317   23.2056   32.5224 H   0  0  0  0  0  0  0  0  0  0  0  0
   39.6174   23.9606   30.9353 H   0  0  0  0  0  0  0  0  0  0  0  0
   40.8800   25.3259   32.8382 H   0  0  0  0  0  0  0  0  0  0  0  0
   39.6659   26.0518   31.7495 H   0  0  0  0  0  0  0  0  0  0  0  0
   39.2779   26.4790   34.2797 H   0  0  0  0  0  0  0  0  0  0  0  0
   36.2179   27.0142   31.1935 H   0  0  0  0  0  0  0  0  0  0  0  0
   37.3489   27.3010   35.3279 H   0  0  0  0  0  0  0  0  0  0  0  0
   34.8936   30.2616   33.5267 H   0  0  0  0  0  0  0  0  0  0  0  0
   37.0058   23.8305   35.2059 H   0  0  0  0  0  0  0  0  0  0  0  0
   43.5357   24.3492   35.5420 H   0  0  0  0  0  0  0  0  0  0  0  0
   41.5037   21.1624   38.4032 H   0  0  0  0  0  0  0  0  0  0  0  0
   39.7606   21.2948   38.0471 H   0  0  0  0  0  0  0  0  0  0  0  0
  1  8  1  0
  1  6  1  0
  2  1  1  0
  3  2  1  0
  4  3  1  0
  4  5  1  0
  5  6  1  0
  6 13  1  0
  7 12  2  0
  7  8  1  0
  8  9  2  0
  9 10  1  0
 11 10  2  0
 12 11  1  0
 13 21  1  0
 13 14  1  0
 14 15  2  0
 16 15  1  0
 16 17  2  0
 17 22  1  0
 18 17  1  0
 19 18  2  0
 20 21  2  0
 20 19  1  0
 21 16  1  0
  2 23  1  0
  2 24  1  0
  3 25  1  0
  3 26  1  0
  4 27  1  0
  4 28  1  0
  5 29  1  0
  5 30  1  0
  6 31  1  1
  7 32  1  0
  9 33  1  0
 11 34  1  0
 14 35  1  0
 19 36  1  0
 22 37  1  0
 22 38  1  0
M  ISO  8  23  13  24  13  25  13  26  13  27  13  28  13  29  13  30  13
M  ISO  6  31  13  32  14  33  14  34  14  35  14  36  14
M  END
>  <minimizedAffinity>  (1) 
-5.15245247

>  <minimizedRMSD>  (1) 
8.05821514

$$$$
