
     RDKit          3D

 35 37  0  0  1  0  0  0  0  0999 V2000
   39.5880   24.4610   35.6460 N   0  0  0  0  0  0  0  0  0  0  0  0
   38.4310   24.8850   36.4080 C   0  0  0  0  0  0  0  0  0  0  0  0
   37.8700   26.1900   36.0330 C   0  0  0  0  0  0  0  0  0  0  0  0
   38.8150   27.2060   35.5320 C   0  0  0  0  0  0  0  0  0  0  0  0
   40.1150   26.6510   35.0430 C   0  0  0  0  0  0  0  0  0  0  0  0
   39.8450   25.2690   34.4980 C   0  0  2  0  0  0  0  0  0  0  0  0
   40.2320   22.7430   37.3270 C   0  0  0  0  0  0  0  0  0  0  0  0
   40.3550   23.3500   36.0590 C   0  0  0  0  0  0  0  0  0  0  0  0
   41.2910   22.8250   35.1870 C   0  0  0  0  0  0  0  0  0  0  0  0
   42.0490   21.7640   35.5660 N   0  0  0  0  0  0  0  0  0  0  0  0
   41.9080   21.2060   36.7840 C   0  0  0  0  0  0  0  0  0  0  0  0
   41.0100   21.7020   37.6330 N   0  0  0  0  0  0  0  0  0  0  0  0
   38.8770   25.1790   33.4650 N   0  0  0  0  0  0  0  0  0  0  0  0
   37.9670   24.1580   33.4930 C   0  0  0  0  0  0  0  0  0  0  0  0
   36.9830   23.9510   32.5670 C   0  0  0  0  0  0  0  0  0  0  0  0
   36.8920   24.8480   31.5060 C   0  0  0  0  0  0  0  0  0  0  0  0
   35.9860   24.6490   30.6620 O   0  0  0  0  0  0  0  0  0  0  0  0
   37.7790   25.8590   31.4620 N   0  0  0  0  0  0  0  0  0  0  0  0
   38.7190   25.9950   32.4110 C   0  0  0  0  0  0  0  0  0  0  0  0
   39.5180   26.9600   32.3160 O   0  0  0  0  0  0  0  0  0  0  0  0
   37.6437   24.1278   36.2782 H   0  0  0  0  0  0  0  0  0  0  0  0
   38.7764   24.9921   37.4468 H   0  0  0  0  0  0  0  0  0  0  0  0
   37.1218   26.0158   35.2457 H   0  0  0  0  0  0  0  0  0  0  0  0
   37.4699   26.6085   36.9683 H   0  0  0  0  0  0  0  0  0  0  0  0
   38.3349   27.7422   34.7002 H   0  0  0  0  0  0  0  0  0  0  0  0
   39.0529   27.8610   36.3831 H   0  0  0  0  0  0  0  0  0  0  0  0
   40.5226   27.2942   34.2492 H   0  0  0  0  0  0  0  0  0  0  0  0
   40.8487   26.6071   35.8614 H   0  0  0  0  0  0  0  0  0  0  0  0
   40.7192   24.9037   33.9391 H   0  0  0  0  0  0  0  0  0  0  0  0
   39.5020   23.1239   38.0564 H   0  0  0  0  0  0  0  0  0  0  0  0
   41.4214   23.2662   34.1878 H   0  0  0  0  0  0  0  0  0  0  0  0
   42.5302   20.3468   37.0751 H   0  0  0  0  0  0  0  0  0  0  0  0
   38.0324   23.4456   34.3286 H   0  0  0  0  0  0  0  0  0  0  0  0
   36.2866   23.1043   32.6570 H   0  0  0  0  0  0  0  0  0  0  0  0
   37.7362   26.5384   30.6890 H   0  0  0  0  0  0  0  0  0  0  0  0
  1  8  1  0
  1  2  1  0
  3  2  1  0
  4  3  1  0
  5  4  1  0
  6  5  1  0
  6  1  1  0
  7 12  2  0
  8  7  1  0
  9 10  1  0
  9  8  2  0
 10 11  2  0
 11 12  1  0
 13 14  1  0
 13  6  1  0
 15 14  2  0
 16 15  1  0
 17 16  2  0
 18 16  1  0
 18 19  1  0
 19 13  1  0
 20 19  2  0
  2 21  1  0
  2 22  1  0
  3 23  1  0
  3 24  1  0
  4 25  1  0
  4 26  1  0
  5 27  1  0
  5 28  1  0
  6 29  1  6
  7 30  1  0
  9 31  1  0
 11 32  1  0
 14 33  1  0
 15 34  1  0
 18 35  1  0
M  ISO  8  21  13  22  13  23  13  24  13  25  13  26  13  27  13  28  13
M  ISO  7  29  13  30  14  31  14  32  14  33  14  34  14  35   9
M  END
>  <minimizedAffinity>  (1) 
-4.88692522

>  <minimizedRMSD>  (1) 
5.36720085

$$$$
