
     RDKit          3D

 38 40  0  0  1  0  0  0  0  0999 V2000
   37.5500   25.4940   32.2050 N   0  0  0  0  0  0  0  0  0  0  0  0
   38.8350   25.8080   32.7590 C   0  0  0  0  0  0  0  0  0  0  0  0
   39.3280   27.1680   32.4450 C   0  0  0  0  0  0  0  0  0  0  0  0
   38.9920   27.6790   31.0790 C   0  0  0  0  0  0  0  0  0  0  0  0
   37.7550   27.0810   30.5160 C   0  0  0  0  0  0  0  0  0  0  0  0
   36.8580   26.6080   31.6280 C   0  0  2  0  0  0  0  0  0  0  0  0
   37.6280   23.1440   33.0270 C   0  0  0  0  0  0  0  0  0  0  0  0
   37.0490   24.1640   32.2460 C   0  0  0  0  0  0  0  0  0  0  0  0
   35.9410   23.8370   31.4890 C   0  0  0  0  0  0  0  0  0  0  0  0
   35.4730   22.5520   31.5430 N   0  0  0  0  0  0  0  0  0  0  0  0
   36.0490   21.6030   32.2990 C   0  0  0  0  0  0  0  0  0  0  0  0
   37.1150   21.9210   33.0260 N   0  0  0  0  0  0  0  0  0  0  0  0
   35.6450   29.9270   34.0480 C   0  0  0  0  0  0  0  0  0  0  0  0
   35.5240   29.8800   32.6660 C   0  0  0  0  0  0  0  0  0  0  0  0
   35.9450   28.7510   31.9710 C   0  0  0  0  0  0  0  0  0  0  0  0
   36.4960   27.6380   32.6230 C   0  0  0  0  0  0  0  0  0  0  0  0
   36.6080   27.7010   33.9880 C   0  0  0  0  0  0  0  0  0  0  0  0
   36.1920   28.8190   34.6800 C   0  0  0  0  0  0  0  0  0  0  0  0
   35.1610   31.2720   35.0560 S   0  0  0  0  0  0  0  0  0  0  0  0
   33.8630   30.9240   35.7360 O   0  0  0  0  0  0  0  0  0  0  0  0
   36.2500   31.5990   36.0360 O   0  0  0  0  0  0  0  0  0  0  0  0
   38.7696   25.7112   33.8528 H   0  0  0  0  0  0  0  0  0  0  0  0
   39.5494   25.1058   32.3046 H   0  0  0  0  0  0  0  0  0  0  0  0
   38.8972   27.8624   33.1814 H   0  0  0  0  0  0  0  0  0  0  0  0
   40.4256   27.1056   32.4810 H   0  0  0  0  0  0  0  0  0  0  0  0
   38.8575   28.7692   31.1374 H   0  0  0  0  0  0  0  0  0  0  0  0
   39.8216   27.3988   30.4132 H   0  0  0  0  0  0  0  0  0  0  0  0
   37.2252   27.8366   29.9174 H   0  0  0  0  0  0  0  0  0  0  0  0
   38.0253   26.2239   29.8817 H   0  0  0  0  0  0  0  0  0  0  0  0
   35.8712   26.3310   31.2287 H   0  0  0  0  0  0  0  0  0  0  0  0
   38.5127   23.3639   33.6425 H   0  0  0  0  0  0  0  0  0  0  0  0
   35.4469   24.5907   30.8583 H   0  0  0  0  0  0  0  0  0  0  0  0
   35.6452   20.5799   32.3161 H   0  0  0  0  0  0  0  0  0  0  0  0
   35.0958   30.7343   32.1212 H   0  0  0  0  0  0  0  0  0  0  0  0
   35.8426   28.7304   30.8760 H   0  0  0  0  0  0  0  0  0  0  0  0
   37.0349   26.8493   34.5379 H   0  0  0  0  0  0  0  0  0  0  0  0
   36.2978   28.8331   35.7748 H   0  0  0  0  0  0  0  0  0  0  0  0
   34.9595   32.3951   34.2978 H   0  0  0  0  0  0  0  0  0  0  0  0
  1  8  1  0
  1  2  1  0
  3  2  1  0
  4  3  1  0
  5  4  1  0
  5  6  1  0
  6  1  1  0
  6 16  1  0
  8  7  2  0
  9 10  2  0
  9  8  1  0
 10 11  1  0
 11 12  2  0
 12  7  1  0
 13 18  2  0
 13 19  1  0
 14 13  1  0
 15 16  1  0
 15 14  2  0
 16 17  2  0
 17 18  1  0
 19 20  2  0
 19 21  2  0
  2 22  1  0
  2 23  1  0
  3 24  1  0
  3 25  1  0
  4 26  1  0
  4 27  1  0
  5 28  1  0
  5 29  1  0
  6 30  1  6
  7 31  1  0
  9 32  1  0
 11 33  1  0
 14 34  1  0
 15 35  1  0
 17 36  1  0
 18 37  1  0
 19 38  1  0
M  ISO  8  22  13  23  13  24  13  25  13  26  13  27  13  28  13  29  13
M  ISO  8  30  13  31  14  32  14  33  14  34  14  35  14  36  14  37  14
M  ISO  1  38  11
M  END
>  <minimizedAffinity>  (1) 
-4.78812027

>  <minimizedRMSD>  (1) 
3.84365177

$$$$
