
     RDKit          3D

 32 34  0  0  1  0  0  0  0  0999 V2000
   37.8740   25.4900   34.4740 N   0  0  0  0  0  0  0  0  0  0  0  0
   37.0410   26.6390   34.7810 C   0  0  0  0  0  0  0  0  0  0  0  0
   36.8200   27.5520   33.6470 C   0  0  0  0  0  0  0  0  0  0  0  0
   37.9350   27.7030   32.6820 C   0  0  0  0  0  0  0  0  0  0  0  0
   38.8710   26.5340   32.6440 C   0  0  0  0  0  0  0  0  0  0  0  0
   38.1300   25.3040   33.0900 C   0  0  2  0  0  0  0  0  0  0  0  0
   37.7650   24.5260   36.7660 C   0  0  0  0  0  0  0  0  0  0  0  0
   38.3600   24.6670   35.5150 C   0  0  0  0  0  0  0  0  0  0  0  0
   39.5130   23.9370   35.2990 C   0  0  0  0  0  0  0  0  0  0  0  0
   39.9990   23.1420   36.2840 N   0  0  0  0  0  0  0  0  0  0  0  0
   39.3940   23.0360   37.4760 C   0  0  0  0  0  0  0  0  0  0  0  0
   38.2740   23.7360   37.7030 N   0  0  0  0  0  0  0  0  0  0  0  0
   36.9720   24.9700   32.2560 C   0  0  0  0  0  0  0  0  0  0  0  0
   36.1490   25.6100   31.3270 C   0  0  0  0  0  0  0  0  0  0  0  0
   35.1960   24.7180   30.8800 C   0  0  0  0  0  0  0  0  0  0  0  0
   35.5030   23.5720   31.5770 C   0  0  0  0  0  0  0  0  0  0  0  0
   36.5290   23.7460   32.3610 O   0  0  0  0  0  0  0  0  0  0  0  0
   36.0619   26.2723   35.1230 H   0  0  0  0  0  0  0  0  0  0  0  0
   37.5754   27.2171   35.5493 H   0  0  0  0  0  0  0  0  0  0  0  0
   35.9455   27.1847   33.0899 H   0  0  0  0  0  0  0  0  0  0  0  0
   36.6947   28.5469   34.0993 H   0  0  0  0  0  0  0  0  0  0  0  0
   37.5072   27.8363   31.6774 H   0  0  0  0  0  0  0  0  0  0  0  0
   38.5244   28.5718   33.0104 H   0  0  0  0  0  0  0  0  0  0  0  0
   39.2416   26.3905   31.6183 H   0  0  0  0  0  0  0  0  0  0  0  0
   39.7253   26.7179   33.3120 H   0  0  0  0  0  0  0  0  0  0  0  0
   38.7326   24.3941   32.9522 H   0  0  0  0  0  0  0  0  0  0  0  0
   36.8443   25.0869   36.9844 H   0  0  0  0  0  0  0  0  0  0  0  0
   40.0343   24.0005   34.3324 H   0  0  0  0  0  0  0  0  0  0  0  0
   39.8114   22.3833   38.2569 H   0  0  0  0  0  0  0  0  0  0  0  0
   36.2450   26.6570   31.0036 H   0  0  0  0  0  0  0  0  0  0  0  0
   34.3911   24.8821   30.1485 H   0  0  0  0  0  0  0  0  0  0  0  0
   34.9503   22.6255   31.4838 H   0  0  0  0  0  0  0  0  0  0  0  0
  1  2  1  0
  1  8  1  0
  3  2  1  0
  4  3  1  0
  5  4  1  0
  5  6  1  0
  6  1  1  0
  7 12  2  0
  8  7  1  0
  9  8  2  0
  9 10  1  0
 10 11  2  0
 11 12  1  0
 13 17  1  0
 13  6  1  0
 14 13  2  0
 15 14  1  0
 15 16  2  0
 16 17  1  0
  2 18  1  0
  2 19  1  0
  3 20  1  0
  3 21  1  0
  4 22  1  0
  4 23  1  0
  5 24  1  0
  5 25  1  0
  6 26  1  1
  7 27  1  0
  9 28  1  0
 11 29  1  0
 14 30  1  0
 15 31  1  0
 16 32  1  0
M  ISO  8  18  13  19  13  20  13  21  13  22  13  23  13  24  13  25  13
M  ISO  7  26  13  27  14  28  14  29  14  30  14  31  14  32  14
M  END
>  <minimizedAffinity>  (1) 
-4.60667181

>  <minimizedRMSD>  (1) 
3.59941292

$$$$
