
     RDKit          3D

 34 36  0  0  1  0  0  0  0  0999 V2000
   37.8150   25.2480   33.8610 N   0  0  0  0  0  0  0  0  0  0  0  0
   37.7790   25.0780   35.2830 C   0  0  0  0  0  0  0  0  0  0  0  0
   38.2840   26.1900   36.0970 C   0  0  0  0  0  0  0  0  0  0  0  0
   39.2330   27.1290   35.4790 C   0  0  0  0  0  0  0  0  0  0  0  0
   39.3730   26.9860   34.0060 C   0  0  0  0  0  0  0  0  0  0  0  0
   38.0490   26.5880   33.4510 C   0  0  2  0  0  0  0  0  0  0  0  0
   37.6500   22.8190   33.3910 C   0  0  0  0  0  0  0  0  0  0  0  0
   37.6500   24.1500   32.9850 C   0  0  0  0  0  0  0  0  0  0  0  0
   37.4930   24.4000   31.6280 C   0  0  0  0  0  0  0  0  0  0  0  0
   37.3510   23.3710   30.7710 N   0  0  0  0  0  0  0  0  0  0  0  0
   37.3570   22.0830   31.2050 C   0  0  0  0  0  0  0  0  0  0  0  0
   37.5060   21.8320   32.5020 N   0  0  0  0  0  0  0  0  0  0  0  0
   36.9620   27.5320   33.4680 C   0  0  0  0  0  0  0  0  0  0  0  0
   36.5390   28.3990   34.4530 C   0  0  0  0  0  0  0  0  0  0  0  0
   35.4990   29.3000   34.3940 C   0  0  0  0  0  0  0  0  0  0  0  0
   34.7800   29.3580   33.2210 C   0  0  0  0  0  0  0  0  0  0  0  0
   35.1760   28.5060   32.2200 C   0  0  0  0  0  0  0  0  0  0  0  0
   36.2010   27.6480   32.3370 N   0  0  0  0  0  0  0  0  0  0  0  0
   36.7316   24.9043   35.5706 H   0  0  0  0  0  0  0  0  0  0  0  0
   38.4599   24.2390   35.4891 H   0  0  0  0  0  0  0  0  0  0  0  0
   37.4128   26.7757   36.4254 H   0  0  0  0  0  0  0  0  0  0  0  0
   38.8635   25.7025   36.8949 H   0  0  0  0  0  0  0  0  0  0  0  0
   38.8922   28.1526   35.6937 H   0  0  0  0  0  0  0  0  0  0  0  0
   40.2199   26.9042   35.9097 H   0  0  0  0  0  0  0  0  0  0  0  0
   39.6885   27.9439   33.5669 H   0  0  0  0  0  0  0  0  0  0  0  0
   40.1303   26.2246   33.7676 H   0  0  0  0  0  0  0  0  0  0  0  0
   38.0995   26.6213   32.3527 H   0  0  0  0  0  0  0  0  0  0  0  0
   37.7701   22.5764   34.4572 H   0  0  0  0  0  0  0  0  0  0  0  0
   37.4847   25.4346   31.2546 H   0  0  0  0  0  0  0  0  0  0  0  0
   37.2396   21.2557   30.4895 H   0  0  0  0  0  0  0  0  0  0  0  0
   37.0991   28.3673   35.3992 H   0  0  0  0  0  0  0  0  0  0  0  0
   35.2528   29.9469   35.2490 H   0  0  0  0  0  0  0  0  0  0  0  0
   33.9342   30.0495   33.0930 H   0  0  0  0  0  0  0  0  0  0  0  0
   34.6225   28.5279   31.2696 H   0  0  0  0  0  0  0  0  0  0  0  0
  1  2  1  0
  2  3  1  0
  4  3  1  0
  5  4  1  0
  6 13  1  0
  6  1  1  0
  6  5  1  0
  8  7  2  0
  8  1  1  0
  9  8  1  0
 10 11  1  0
 10  9  2  0
 11 12  2  0
 12  7  1  0
 13 14  2  0
 15 14  1  0
 16 15  2  0
 17 18  2  0
 17 16  1  0
 18 13  1  0
  2 19  1  0
  2 20  1  0
  3 21  1  0
  3 22  1  0
  4 23  1  0
  4 24  1  0
  5 25  1  0
  5 26  1  0
  6 27  1  6
  7 28  1  0
  9 29  1  0
 11 30  1  0
 14 31  1  0
 15 32  1  0
 16 33  1  0
 17 34  1  0
M  ISO  8  19  13  20  13  21  13  22  13  23  13  24  13  25  13  26  13
M  ISO  8  27  13  28  14  29  14  30  14  31  14  32  14  33  14  34  14
M  END
>  <minimizedAffinity>  (1) 
-4.5269208

>  <minimizedRMSD>  (1) 
3.33494997

$$$$
