
     RDKit          3D

 31 33  0  0  1  0  0  0  0  0999 V2000
   39.5390   24.5310   35.5520 N   0  0  0  0  0  0  0  0  0  0  0  0
   38.3820   24.9450   36.3130 C   0  0  0  0  0  0  0  0  0  0  0  0
   37.8330   26.2600   35.9560 C   0  0  0  0  0  0  0  0  0  0  0  0
   38.7770   27.2770   35.4590 C   0  0  0  0  0  0  0  0  0  0  0  0
   40.0850   26.7180   34.9710 C   0  0  0  0  0  0  0  0  0  0  0  0
   39.7950   25.3380   34.4010 C   0  0  2  0  0  0  0  0  0  0  0  0
   41.2720   22.7970   35.1800 C   0  0  0  0  0  0  0  0  0  0  0  0
   40.3060   23.4200   35.9640 C   0  0  0  0  0  0  0  0  0  0  0  0
   40.1090   22.8880   37.2230 C   0  0  0  0  0  0  0  0  0  0  0  0
   40.8440   21.8150   37.6280 N   0  0  0  0  0  0  0  0  0  0  0  0
   41.7640   21.2500   36.8360 C   0  0  0  0  0  0  0  0  0  0  0  0
   41.9760   21.7480   35.6050 N   0  0  0  0  0  0  0  0  0  0  0  0
   38.6840   25.3550   33.4060 C   0  0  0  0  0  0  0  0  0  0  0  0
   37.9380   24.1900   33.2450 C   0  0  0  0  0  0  0  0  0  0  0  0
   36.7380   24.6410   31.9730 S   0  0  0  0  0  0  0  0  0  0  0  0
   37.4510   26.3930   31.8490 C   0  0  0  0  0  0  0  0  0  0  0  0
   38.4350   26.4400   32.7100 N   0  0  0  0  0  0  0  0  0  0  0  0
   37.5913   24.1949   36.1642 H   0  0  0  0  0  0  0  0  0  0  0  0
   38.7189   25.0294   37.3567 H   0  0  0  0  0  0  0  0  0  0  0  0
   37.0774   26.1005   35.1727 H   0  0  0  0  0  0  0  0  0  0  0  0
   37.4492   26.6707   36.9015 H   0  0  0  0  0  0  0  0  0  0  0  0
   38.2990   27.8136   34.6262 H   0  0  0  0  0  0  0  0  0  0  0  0
   39.0116   27.9332   36.3101 H   0  0  0  0  0  0  0  0  0  0  0  0
   40.5057   27.3684   34.1899 H   0  0  0  0  0  0  0  0  0  0  0  0
   40.8160   26.6580   35.7907 H   0  0  0  0  0  0  0  0  0  0  0  0
   40.6331   24.9335   33.8145 H   0  0  0  0  0  0  0  0  0  0  0  0
   41.4624   23.1858   34.1688 H   0  0  0  0  0  0  0  0  0  0  0  0
   39.3604   23.3296   37.8972 H   0  0  0  0  0  0  0  0  0  0  0  0
   42.3426   20.3841   37.1900 H   0  0  0  0  0  0  0  0  0  0  0  0
   38.0521   23.2281   33.7663 H   0  0  0  0  0  0  0  0  0  0  0  0
   37.1080   27.2034   31.1890 H   0  0  0  0  0  0  0  0  0  0  0  0
  1  8  1  0
  1  2  1  0
  3  2  1  0
  4  3  1  0
  5  4  1  0
  6  5  1  0
  6  1  1  0
  7 12  2  0
  7  8  1  0
  8  9  2  0
  9 10  1  0
 11 10  2  0
 12 11  1  0
 13  6  1  0
 14 13  2  0
 15 14  1  0
 16 15  1  0
 16 17  2  0
 17 13  1  0
  2 18  1  0
  2 19  1  0
  3 20  1  0
  3 21  1  0
  4 22  1  0
  4 23  1  0
  5 24  1  0
  5 25  1  0
  6 26  1  6
  7 27  1  0
  9 28  1  0
 11 29  1  0
 14 30  1  0
 16 31  1  0
M  ISO  8  18  13  19  13  20  13  21  13  22  13  23  13  24  13  25  13
M  ISO  6  26  13  27  14  28  14  29  14  30  14  31  14
M  END
>  <minimizedAffinity>  (1) 
-4.38931417

>  <minimizedRMSD>  (1) 
5.16788435

$$$$
