
     RDKit          3D

 45 47  0  0  0  0  0  0  0  0999 V2000
   42.8220   24.6580   33.0370 S   0  0  0  0  0  0  0  0  0  0  0  0
   44.0480   25.5750   33.9590 C   0  0  0  0  0  0  0  0  0  0  0  0
   44.5730   26.7330   33.3920 C   0  0  0  0  0  0  0  0  0  0  0  0
   45.7700   27.3070   34.6930 S   0  0  0  0  0  0  0  0  0  0  0  0
   45.3190   25.8280   35.7890 C   0  0  0  0  0  0  0  0  0  0  0  0
   44.5640   25.3470   35.1170 N   0  0  0  0  0  0  0  0  0  0  0  0
   45.8380   25.4950   37.0880 N   0  0  0  0  0  0  0  0  0  0  0  0
   45.0730   25.9240   38.1190 C   0  0  0  0  0  0  0  0  0  0  0  0
   45.7060   25.5250   39.2820 C   0  0  0  0  0  0  0  0  0  0  0  0
   46.8280   24.8730   38.8980 N   0  0  0  0  0  0  0  0  0  0  0  0
   46.9110   24.8530   37.5590 C   0  0  0  0  0  0  0  0  0  0  0  0
   47.8830   24.2990   36.6480 C   0  0  0  0  0  0  0  0  0  0  0  0
   47.8690   23.0750   36.3720 O   0  0  0  0  0  0  0  0  0  0  0  0
   48.8170   25.1790   36.1060 O   0  0  0  0  0  0  0  0  0  0  0  0
   40.4950   23.4320   36.0370 C   0  0  0  0  0  0  0  0  0  0  0  0
   39.1870   23.6970   35.5620 C   0  0  0  0  0  0  0  0  0  0  0  0
   39.0720   24.2520   34.3140 C   0  0  0  0  0  0  0  0  0  0  0  0
   40.2070   24.5240   33.5890 N   0  0  0  0  0  0  0  0  0  0  0  0
   41.4330   24.2580   34.0780 C   0  0  0  0  0  0  0  0  0  0  0  0
   41.5500   23.7170   35.2920 N   0  0  0  0  0  0  0  0  0  0  0  0
   37.9700   23.4010   36.3470 C   0  0  0  0  0  0  0  0  0  0  0  0
   38.4110   22.9990   37.6310 F   0  0  0  0  0  0  0  0  0  0  0  0
   37.1920   22.4550   35.8290 F   0  0  0  0  0  0  0  0  0  0  0  0
   37.2930   24.6080   36.6620 F   0  0  0  0  0  0  0  0  0  0  0  0
   37.8410   24.6070   33.6240 C   0  0  0  0  0  0  0  0  0  0  0  0
   37.1580   24.0140   32.7610 O   0  0  0  0  0  0  0  0  0  0  0  0
   37.1280   25.7440   33.7920 O   0  0  0  0  0  0  0  0  0  0  0  0
   37.0240   26.8810   33.0270 C   0  0  0  0  0  0  0  0  0  0  0  0
   36.5460   28.0990   33.8060 C   0  0  0  0  0  0  0  0  0  0  0  0
   38.4120   27.2240   32.5220 C   0  0  0  0  0  0  0  0  0  0  0  0
   36.1440   26.7470   31.8150 C   0  0  0  0  0  0  0  0  0  0  0  0
   44.3388   27.1920   32.4202 H   0  0  0  0  0  0  0  0  0  0  0  0
   44.1285   26.4831   38.0458 H   0  0  0  0  0  0  0  0  0  0  0  0
   45.3656   25.7021   40.3129 H   0  0  0  0  0  0  0  0  0  0  0  0
   49.5039   24.8455   35.4759 H   0  0  0  0  0  0  0  0  0  0  0  0
   40.6343   22.9859   37.0328 H   0  0  0  0  0  0  0  0  0  0  0  0
   36.6247   27.8984   34.8847 H   0  0  0  0  0  0  0  0  0  0  0  0
   37.1701   28.9673   33.5480 H   0  0  0  0  0  0  0  0  0  0  0  0
   35.4979   28.3111   33.5480 H   0  0  0  0  0  0  0  0  0  0  0  0
   39.0829   27.3898   33.3778 H   0  0  0  0  0  0  0  0  0  0  0  0
   38.7955   26.3936   31.9109 H   0  0  0  0  0  0  0  0  0  0  0  0
   38.3645   28.1374   31.9109 H   0  0  0  0  0  0  0  0  0  0  0  0
   35.1031   26.5885   32.1334 H   0  0  0  0  0  0  0  0  0  0  0  0
   36.2074   27.6652   31.2125 H   0  0  0  0  0  0  0  0  0  0  0  0
   36.4778   25.8893   31.2125 H   0  0  0  0  0  0  0  0  0  0  0  0
  1  2  1  0
  1 19  1  0
  2  6  1  0
  3  2  2  0
  3  4  1  0
  4  5  1  0
  5  7  1  0
  6  5  2  0
  7 11  1  0
  7  8  1  0
  8  9  2  0
 10  9  1  0
 11 10  2  0
 12 11  1  0
 13 12  2  0
 14 12  1  0
 16 15  2  0
 16 21  1  0
 17 16  1  0
 18 19  1  0
 18 17  2  0
 19 20  2  0
 20 15  1  0
 21 24  1  0
 21 22  1  0
 23 21  1  0
 25 27  1  0
 25 17  1  0
 26 25  2  0
 28 27  1  0
 28 29  1  0
 30 28  1  0
 31 28  1  0
  3 32  1  0
  8 33  1  0
  9 34  1  0
 14 35  1  0
 15 36  1  0
 29 37  1  0
 29 38  1  0
 29 39  1  0
 30 40  1  0
 30 41  1  0
 30 42  1  0
 31 43  1  0
 31 44  1  0
 31 45  1  0
M  ISO  8  32  14  33  14  34  14  35   3  36  14  37   8  38   8  39   8
M  ISO  6  40   8  41   8  42   8  43   8  44   8  45   8
M  END
>  <minimizedAffinity>  (1) 
-5.25505495

>  <minimizedRMSD>  (1) 
2.0790174

$$$$
