
     RDKit          3D

 30 32  0  0  1  0  0  0  0  0999 V2000
   38.0290   25.2710   34.0620 N   0  0  0  0  0  0  0  0  0  0  0  0
   37.1950   26.3260   34.5960 C   0  0  0  0  0  0  0  0  0  0  0  0
   36.9080   27.4270   33.6680 C   0  0  0  0  0  0  0  0  0  0  0  0
   37.8930   27.7130   32.6120 C   0  0  0  0  0  0  0  0  0  0  0  0
   38.9270   26.6520   32.4160 C   0  0  0  0  0  0  0  0  0  0  0  0
   38.2120   25.3300   32.6430 C   0  0  2  0  0  0  0  0  0  0  0  0
   38.5190   24.3290   36.3070 C   0  0  0  0  0  0  0  0  0  0  0  0
   38.5870   24.2960   34.9180 C   0  0  0  0  0  0  0  0  0  0  0  0
   39.2580   23.2200   34.3730 C   0  0  0  0  0  0  0  0  0  0  0  0
   39.8000   22.2780   35.1920 N   0  0  0  0  0  0  0  0  0  0  0  0
   39.7090   22.3530   36.5250 C   0  0  0  0  0  0  0  0  0  0  0  0
   39.0650   23.3860   37.0620 N   0  0  0  0  0  0  0  0  0  0  0  0
   36.9210   25.2230   31.9620 C   0  0  0  0  0  0  0  0  0  0  0  0
   36.1800   24.1190   32.1720 N   0  0  0  0  0  0  0  0  0  0  0  0
   35.0860   24.2220   31.4780 O   0  0  0  0  0  0  0  0  0  0  0  0
   35.0410   25.3400   30.8030 C   0  0  0  0  0  0  0  0  0  0  0  0
   36.1870   25.9810   31.0960 N   0  0  0  0  0  0  0  0  0  0  0  0
   36.2369   25.8804   34.9019 H   0  0  0  0  0  0  0  0  0  0  0  0
   37.7599   26.7690   35.4294 H   0  0  0  0  0  0  0  0  0  0  0  0
   35.9536   27.1968   33.1719 H   0  0  0  0  0  0  0  0  0  0  0  0
   36.9116   28.3277   34.2995 H   0  0  0  0  0  0  0  0  0  0  0  0
   37.3506   27.8416   31.6637 H   0  0  0  0  0  0  0  0  0  0  0  0
   38.4332   28.6173   32.9289 H   0  0  0  0  0  0  0  0  0  0  0  0
   39.3335   26.6972   31.3949 H   0  0  0  0  0  0  0  0  0  0  0  0
   39.7731   26.7786   33.1074 H   0  0  0  0  0  0  0  0  0  0  0  0
   38.8045   24.5004   32.2298 H   0  0  0  0  0  0  0  0  0  0  0  0
   37.9953   25.1645   36.7946 H   0  0  0  0  0  0  0  0  0  0  0  0
   39.3542   23.1243   33.2814 H   0  0  0  0  0  0  0  0  0  0  0  0
   40.1571   21.5771   37.1632 H   0  0  0  0  0  0  0  0  0  0  0  0
   34.2365   25.6841   30.1364 H   0  0  0  0  0  0  0  0  0  0  0  0
  1  2  1  0
  1  8  1  0
  3  2  1  0
  4  3  1  0
  5  4  1  0
  5  6  1  0
  6  1  1  0
  7 12  2  0
  8  7  1  0
  9  8  2  0
  9 10  1  0
 10 11  2  0
 11 12  1  0
 13 14  2  0
 13  6  1  0
 15 14  1  0
 16 17  2  0
 16 15  1  0
 17 13  1  0
  2 18  1  0
  2 19  1  0
  3 20  1  0
  3 21  1  0
  4 22  1  0
  4 23  1  0
  5 24  1  0
  5 25  1  0
  6 26  1  6
  7 27  1  0
  9 28  1  0
 11 29  1  0
 16 30  1  0
M  ISO  8  18  13  19  13  20  13  21  13  22  13  23  13  24  13  25  13
M  ISO  5  26  13  27  14  28  14  29  14  30  14
M  END
>  <minimizedAffinity>  (1) 
-4.21751738

>  <minimizedRMSD>  (1) 
3.29957962

$$$$
