
     RDKit          3D

 34 35  0  0  1  0  0  0  0  0999 V2000
   38.7490   24.2780   34.5100 N   0  0  0  0  0  0  0  0  0  0  0  0
   39.8760   25.1370   34.2190 C   0  0  0  0  0  0  0  0  0  0  0  0
   39.9590   26.3700   35.0080 C   0  0  0  0  0  0  0  0  0  0  0  0
   38.7710   26.8720   35.7050 C   0  0  0  0  0  0  0  0  0  0  0  0
   37.5780   25.9650   35.6280 C   0  0  0  0  0  0  0  0  0  0  0  0
   38.1270   24.5710   35.7560 C   0  0  2  0  0  0  0  0  0  0  0  0
   38.9180   22.0030   33.5550 C   0  0  0  0  0  0  0  0  0  0  0  0
   38.3470   23.2670   33.6090 C   0  0  0  0  0  0  0  0  0  0  0  0
   37.3330   23.5340   32.7130 C   0  0  0  0  0  0  0  0  0  0  0  0
   36.9370   22.5760   31.8280 N   0  0  0  0  0  0  0  0  0  0  0  0
   37.5240   21.3630   31.8160 C   0  0  0  0  0  0  0  0  0  0  0  0
   38.5200   21.0770   32.6840 N   0  0  0  0  0  0  0  0  0  0  0  0
   38.8760   24.2670   36.9860 C   0  0  0  0  0  0  0  0  0  0  0  0
   37.9170   24.3640   38.1560 C   0  0  0  0  0  0  0  0  0  0  0  0
   39.3670   22.8370   36.9140 C   0  0  0  0  0  0  0  0  0  0  0  0
   40.7952   24.5597   34.3973 H   0  0  0  0  0  0  0  0  0  0  0  0
   39.7449   25.4585   33.1752 H   0  0  0  0  0  0  0  0  0  0  0  0
   40.7317   26.2064   35.7736 H   0  0  0  0  0  0  0  0  0  0  0  0
   40.1556   27.1436   34.2511 H   0  0  0  0  0  0  0  0  0  0  0  0
   39.0281   27.0132   36.7652 H   0  0  0  0  0  0  0  0  0  0  0  0
   38.4859   27.8092   35.2046 H   0  0  0  0  0  0  0  0  0  0  0  0
   36.8778   26.1797   36.4487 H   0  0  0  0  0  0  0  0  0  0  0  0
   37.0211   26.1006   34.6892 H   0  0  0  0  0  0  0  0  0  0  0  0
   37.3141   23.8508   35.9309 H   0  0  0  0  0  0  0  0  0  0  0  0
   39.7285   21.7570   34.2568 H   0  0  0  0  0  0  0  0  0  0  0  0
   36.8442   24.5194   32.7126 H   0  0  0  0  0  0  0  0  0  0  0  0
   37.1907   20.6013   31.0958 H   0  0  0  0  0  0  0  0  0  0  0  0
   39.7198   24.9632   37.1011 H   0  0  0  0  0  0  0  0  0  0  0  0
   38.4814   24.3069   39.0984 H   0  0  0  0  0  0  0  0  0  0  0  0
   37.3772   25.3213   38.1093 H   0  0  0  0  0  0  0  0  0  0  0  0
   37.1965   23.5342   38.1093 H   0  0  0  0  0  0  0  0  0  0  0  0
   39.5020   22.4439   37.9325 H   0  0  0  0  0  0  0  0  0  0  0  0
   38.6285   22.2223   36.3786 H   0  0  0  0  0  0  0  0  0  0  0  0
   40.3274   22.8056   36.3786 H   0  0  0  0  0  0  0  0  0  0  0  0
  1  6  1  0
  2  1  1  0
  2  3  1  0
  3  4  1  0
  5  4  1  0
  5  6  1  0
  6 13  1  0
  7  8  2  0
  8  1  1  0
  9  8  1  0
 10  9  2  0
 11 10  1  0
 11 12  2  0
 12  7  1  0
 13 14  1  0
 15 13  1  0
  2 16  1  0
  2 17  1  0
  3 18  1  0
  3 19  1  0
  4 20  1  0
  4 21  1  0
  5 22  1  0
  5 23  1  0
  6 24  1  1
  7 25  1  0
  9 26  1  0
 11 27  1  0
 13 28  1  0
 14 29  1  0
 14 30  1  0
 14 31  1  0
 15 32  1  0
 15 33  1  0
 15 34  1  0
M  ISO  8  16  13  17  13  18  13  19  13  20  13  21  13  22  13  23  13
M  ISO  8  24  13  25  14  26  14  27  14  28   8  29   8  30   8  31   8
M  ISO  3  32   8  33   8  34   8
M  END
>  <minimizedAffinity>  (1) 
-3.88507962

>  <minimizedRMSD>  (1) 
5.08441448

$$$$
