
     RDKit          3D

 38 40  0  0  1  0  0  0  0  0999 V2000
   37.5060   25.6010   31.3450 N   0  0  0  0  0  0  0  0  0  0  0  0
   38.8740   25.9790   31.0460 C   0  0  0  0  0  0  0  0  0  0  0  0
   39.1180   27.4310   30.9270 C   0  0  0  0  0  0  0  0  0  0  0  0
   38.0040   28.2430   30.3700 C   0  0  0  0  0  0  0  0  0  0  0  0
   36.6620   27.5910   30.4750 C   0  0  0  0  0  0  0  0  0  0  0  0
   36.6990   26.7020   31.7100 C   0  0  2  0  0  0  0  0  0  0  0  0
   37.9500   23.1990   30.8220 C   0  0  0  0  0  0  0  0  0  0  0  0
   37.1010   24.2430   31.2510 C   0  0  0  0  0  0  0  0  0  0  0  0
   35.8010   23.9230   31.5940 C   0  0  0  0  0  0  0  0  0  0  0  0
   35.3900   22.6340   31.5080 N   0  0  0  0  0  0  0  0  0  0  0  0
   36.2190   21.6540   31.0950 C   0  0  0  0  0  0  0  0  0  0  0  0
   37.4710   21.9570   30.7640 N   0  0  0  0  0  0  0  0  0  0  0  0
   37.1580   27.5050   32.8110 N   0  0  0  0  0  0  0  0  0  0  0  0
   37.1430   26.7900   34.0710 C   0  0  0  0  0  0  0  0  0  0  0  0
   37.6370   27.7660   35.1300 C   0  0  0  0  0  0  0  0  0  0  0  0
   36.7910   28.8860   35.1950 O   0  0  0  0  0  0  0  0  0  0  0  0
   35.6910   28.7370   34.3710 C   0  0  0  0  0  0  0  0  0  0  0  0
   36.2060   28.6190   32.9440 C   0  0  0  0  0  0  0  0  0  0  0  0
   39.5168   25.5916   31.8502 H   0  0  0  0  0  0  0  0  0  0  0  0
   39.0975   25.5518   30.0573 H   0  0  0  0  0  0  0  0  0  0  0  0
   39.3435   27.8164   31.9323 H   0  0  0  0  0  0  0  0  0  0  0  0
   39.9429   27.5315   30.2063 H   0  0  0  0  0  0  0  0  0  0  0  0
   38.2133   28.4337   29.3071 H   0  0  0  0  0  0  0  0  0  0  0  0
   37.9557   29.1666   30.9656 H   0  0  0  0  0  0  0  0  0  0  0  0
   35.8775   28.3547   30.5818 H   0  0  0  0  0  0  0  0  0  0  0  0
   36.4377   27.0031   29.5727 H   0  0  0  0  0  0  0  0  0  0  0  0
   35.7339   26.2971   32.0488 H   0  0  0  0  0  0  0  0  0  0  0  0
   38.9923   23.4084   30.5396 H   0  0  0  0  0  0  0  0  0  0  0  0
   35.1070   24.7061   31.9333 H   0  0  0  0  0  0  0  0  0  0  0  0
   35.8635   20.6149   31.0325 H   0  0  0  0  0  0  0  0  0  0  0  0
   36.1211   26.4585   34.3073 H   0  0  0  0  0  0  0  0  0  0  0  0
   37.7812   25.8951   34.0273 H   0  0  0  0  0  0  0  0  0  0  0  0
   37.6495   27.2637   36.1085 H   0  0  0  0  0  0  0  0  0  0  0  0
   38.6510   28.0991   34.8638 H   0  0  0  0  0  0  0  0  0  0  0  0
   35.1347   27.8289   34.6465 H   0  0  0  0  0  0  0  0  0  0  0  0
   35.0118   29.5966   34.4696 H   0  0  0  0  0  0  0  0  0  0  0  0
   36.7099   29.5564   32.6660 H   0  0  0  0  0  0  0  0  0  0  0  0
   35.3503   28.4263   32.2803 H   0  0  0  0  0  0  0  0  0  0  0  0
  1  6  1  0
  2  1  1  0
  3  2  1  0
  4  5  1  0
  4  3  1  0
  5  6  1  0
  6 13  1  0
  7  8  2  0
  8  1  1  0
  8  9  1  0
 10  9  2  0
 11 10  1  0
 12  7  1  0
 12 11  2  0
 13 18  1  0
 13 14  1  0
 14 15  1  0
 15 16  1  0
 17 16  1  0
 18 17  1  0
  2 19  1  0
  2 20  1  0
  3 21  1  0
  3 22  1  0
  4 23  1  0
  4 24  1  0
  5 25  1  0
  5 26  1  0
  6 27  1  1
  7 28  1  0
  9 29  1  0
 11 30  1  0
 14 31  1  0
 14 32  1  0
 15 33  1  0
 15 34  1  0
 17 35  1  0
 17 36  1  0
 18 37  1  0
 18 38  1  0
M  ISO  8  19  13  20  13  21  13  22  13  23  13  24  13  25  13  26  13
M  ISO  8  27  13  28  14  29  14  30  14  31  13  32  13  33  13  34  13
M  ISO  4  35  13  36  13  37  13  38  13
M  END
>  <minimizedAffinity>  (1) 
-3.87543249

>  <minimizedRMSD>  (1) 
3.16746473

$$$$
