
     RDKit          3D

 29 30  0  0  1  0  0  0  0  0999 V2000
   37.0250   25.0810   32.3130 N   0  0  0  0  0  0  0  0  0  0  0  0
   37.6060   25.5850   33.5450 C   0  0  0  0  0  0  0  0  0  0  0  0
   38.1120   26.9680   33.4840 C   0  0  0  0  0  0  0  0  0  0  0  0
   38.6600   27.4170   32.1900 C   0  0  0  0  0  0  0  0  0  0  0  0
   38.2100   26.6090   31.0060 C   0  0  0  0  0  0  0  0  0  0  0  0
   36.7980   26.1150   31.3520 C   0  0  2  0  0  0  0  0  0  0  0  0
   37.3560   22.6900   32.9020 C   0  0  0  0  0  0  0  0  0  0  0  0
   36.7420   23.6980   32.1580 C   0  0  0  0  0  0  0  0  0  0  0  0
   35.8020   23.3310   31.2120 C   0  0  0  0  0  0  0  0  0  0  0  0
   35.5280   21.9960   31.0600 N   0  0  0  0  0  0  0  0  0  0  0  0
   36.1390   21.0570   31.7950 C   0  0  0  0  0  0  0  0  0  0  0  0
   37.0480   21.4080   32.7080 N   0  0  0  0  0  0  0  0  0  0  0  0
   35.9420   27.2270   31.8340 C   0  0  0  0  0  0  0  0  0  0  0  0
   35.1290   28.1090   32.0580 O   0  0  0  0  0  0  0  0  0  0  0  0
   36.8345   25.5398   34.3278 H   0  0  0  0  0  0  0  0  0  0  0  0
   38.4806   24.9503   33.7504 H   0  0  0  0  0  0  0  0  0  0  0  0
   37.2801   27.6390   33.7444 H   0  0  0  0  0  0  0  0  0  0  0  0
   38.9612   26.9960   34.1826 H   0  0  0  0  0  0  0  0  0  0  0  0
   38.3515   28.4607   32.0304 H   0  0  0  0  0  0  0  0  0  0  0  0
   39.7513   27.2947   32.2543 H   0  0  0  0  0  0  0  0  0  0  0  0
   38.8858   25.7562   30.8446 H   0  0  0  0  0  0  0  0  0  0  0  0
   38.2161   27.2054   30.0817 H   0  0  0  0  0  0  0  0  0  0  0  0
   36.2373   25.7260   30.4893 H   0  0  0  0  0  0  0  0  0  0  0  0
   38.1062   22.9577   33.6607 H   0  0  0  0  0  0  0  0  0  0  0  0
   35.2894   24.0876   30.5998 H   0  0  0  0  0  0  0  0  0  0  0  0
   35.8915   19.9956   31.6461 H   0  0  0  0  0  0  0  0  0  0  0  0
   35.7595   26.7384   32.8025 H   0  0  0  0  0  0  0  0  0  0  0  0
   36.2496   27.7944   30.9432 H   0  0  0  0  0  0  0  0  0  0  0  0
   35.0253   28.2215   33.0361 H   0  0  0  0  0  0  0  0  0  0  0  0
  1  2  1  0
  3  2  1  0
  4  3  1  0
  5  6  1  0
  5  4  1  0
  6 13  1  0
  6  1  1  0
  8  1  1  0
  8  7  2  0
  9  8  1  0
 10  9  2  0
 10 11  1  0
 11 12  2  0
 12  7  1  0
 13 14  1  0
  2 15  1  0
  2 16  1  0
  3 17  1  0
  3 18  1  0
  4 19  1  0
  4 20  1  0
  5 21  1  0
  5 22  1  0
  6 23  1  6
  7 24  1  0
  9 25  1  0
 11 26  1  0
 13 27  1  0
 13 28  1  0
 14 29  1  0
M  ISO  8  15  13  16  13  17  13  18  13  19  13  20  13  21  13  22  13
M  ISO  7  23  13  24  14  25  14  26  14  27   8  28   8  29   3
M  END
>  <minimizedAffinity>  (1) 
-3.29403567

>  <minimizedRMSD>  (1) 
2.1871779

$$$$
