
     RDKit          3D

 28 29  0  0  1  0  0  0  0  0999 V2000
   37.2650   25.4800   32.8710 N   0  0  0  0  0  0  0  0  0  0  0  0
   37.0940   26.7710   33.5180 C   0  0  0  0  0  0  0  0  0  0  0  0
   36.9020   27.9140   32.6130 C   0  0  0  0  0  0  0  0  0  0  0  0
   37.6020   27.8460   31.3150 C   0  0  0  0  0  0  0  0  0  0  0  0
   37.9690   26.4640   30.8740 C   0  0  0  0  0  0  0  0  0  0  0  0
   36.9410   25.5200   31.4890 C   0  0  2  0  0  0  0  0  0  0  0  0
   38.2290   24.4210   34.9030 C   0  0  0  0  0  0  0  0  0  0  0  0
   37.7080   24.3640   33.6130 C   0  0  0  0  0  0  0  0  0  0  0  0
   37.6290   23.1120   33.0350 C   0  0  0  0  0  0  0  0  0  0  0  0
   38.0450   22.0190   33.7130 N   0  0  0  0  0  0  0  0  0  0  0  0
   38.5460   22.1220   34.9710 C   0  0  0  0  0  0  0  0  0  0  0  0
   38.6290   23.3300   35.5450 N   0  0  0  0  0  0  0  0  0  0  0  0
   35.5410   25.9020   31.1400 C   0  0  0  0  0  0  0  0  0  0  0  0
   36.2134   26.7069   34.1740 H   0  0  0  0  0  0  0  0  0  0  0  0
   38.0344   26.9661   34.0543 H   0  0  0  0  0  0  0  0  0  0  0  0
   35.8248   28.0022   32.4085 H   0  0  0  0  0  0  0  0  0  0  0  0
   37.3375   28.7782   33.1359 H   0  0  0  0  0  0  0  0  0  0  0  0
   36.9473   28.2875   30.5492 H   0  0  0  0  0  0  0  0  0  0  0  0
   38.5479   28.3926   31.4432 H   0  0  0  0  0  0  0  0  0  0  0  0
   37.9378   26.3955   29.7766 H   0  0  0  0  0  0  0  0  0  0  0  0
   38.9880   26.2034   31.1963 H   0  0  0  0  0  0  0  0  0  0  0  0
   36.9842   24.4984   31.0834 H   0  0  0  0  0  0  0  0  0  0  0  0
   38.3114   25.3968   35.4039 H   0  0  0  0  0  0  0  0  0  0  0  0
   37.2254   23.0037   32.0175 H   0  0  0  0  0  0  0  0  0  0  0  0
   38.8797   21.2245   35.5124 H   0  0  0  0  0  0  0  0  0  0  0  0
   34.9631   26.0597   32.0626 H   0  0  0  0  0  0  0  0  0  0  0  0
   35.5505   26.8304   30.5501 H   0  0  0  0  0  0  0  0  0  0  0  0
   35.0776   25.0975   30.5501 H   0  0  0  0  0  0  0  0  0  0  0  0
  1  2  1  0
  1  8  1  0
  3  2  1  0
  4  3  1  0
  5  4  1  0
  5  6  1  0
  6  1  1  0
  7 12  2  0
  8  7  1  0
  9  8  2  0
  9 10  1  0
 10 11  2  0
 11 12  1  0
 13  6  1  0
  2 14  1  0
  2 15  1  0
  3 16  1  0
  3 17  1  0
  4 18  1  0
  4 19  1  0
  5 20  1  0
  5 21  1  0
  6 22  1  6
  7 23  1  0
  9 24  1  0
 11 25  1  0
 13 26  1  0
 13 27  1  0
 13 28  1  0
M  ISO  8  14  13  15  13  16  13  17  13  18  13  19  13  20  13  21  13
M  ISO  7  22  13  23  14  24  14  25  14  26   8  27   8  28   8
M  END
>  <minimizedAffinity>  (1) 
-3.20146322

>  <minimizedRMSD>  (1) 
1.70550704

$$$$
