
     RDKit          3D

 40 43  0  0  0  0  0  0  0  0999 V2000
   42.4120   22.6270   33.9650 S   0  0  0  0  0  0  0  0  0  0  0  0
   43.7650   23.7370   34.3030 C   0  0  0  0  0  0  0  0  0  0  0  0
   44.2900   24.4850   33.2420 C   0  0  0  0  0  0  0  0  0  0  0  0
   45.6340   25.4520   34.0820 S   0  0  0  0  0  0  0  0  0  0  0  0
   45.2280   24.6520   35.7370 C   0  0  0  0  0  0  0  0  0  0  0  0
   44.3850   23.9910   35.4160 N   0  0  0  0  0  0  0  0  0  0  0  0
   45.8590   24.8730   37.0090 N   0  0  0  0  0  0  0  0  0  0  0  0
   45.2300   25.7670   37.7940 C   0  0  0  0  0  0  0  0  0  0  0  0
   45.9570   25.8620   38.9670 C   0  0  0  0  0  0  0  0  0  0  0  0
   47.0000   25.0120   38.8280 N   0  0  0  0  0  0  0  0  0  0  0  0
   46.9420   24.4080   37.6340 C   0  0  0  0  0  0  0  0  0  0  0  0
   47.7920   23.4300   36.9950 C   0  0  0  0  0  0  0  0  0  0  0  0
   47.3550   22.2760   36.7410 O   0  0  0  0  0  0  0  0  0  0  0  0
   49.0770   23.8110   36.6800 O   0  0  0  0  0  0  0  0  0  0  0  0
   39.9820   22.1280   37.0920 C   0  0  0  0  0  0  0  0  0  0  0  0
   39.1230   23.2450   37.0230 C   0  0  0  0  0  0  0  0  0  0  0  0
   39.3280   24.1390   35.9870 C   0  0  0  0  0  0  0  0  0  0  0  0
   40.3380   23.8970   35.0950 N   0  0  0  0  0  0  0  0  0  0  0  0
   41.1330   22.8120   35.2050 C   0  0  0  0  0  0  0  0  0  0  0  0
   40.9380   21.9500   36.2020 N   0  0  0  0  0  0  0  0  0  0  0  0
   38.0330   23.5020   37.9900 C   0  0  0  0  0  0  0  0  0  0  0  0
   38.3130   22.6910   39.1150 F   0  0  0  0  0  0  0  0  0  0  0  0
   36.8100   23.2410   37.5430 F   0  0  0  0  0  0  0  0  0  0  0  0
   38.1800   24.7950   38.5540 F   0  0  0  0  0  0  0  0  0  0  0  0
   38.5750   25.3500   35.7160 C   0  0  0  0  0  0  0  0  0  0  0  0
   37.3510   25.5810   35.5930 O   0  0  0  0  0  0  0  0  0  0  0  0
   39.0890   26.5940   35.5230 O   0  0  0  0  0  0  0  0  0  0  0  0
   39.2340   27.3170   34.3500 C   0  0  0  0  0  0  0  0  0  0  0  0
   39.4880   26.6090   33.0460 C   0  0  0  0  0  0  0  0  0  0  0  0
   40.6580   27.2390   33.7580 C   0  0  0  0  0  0  0  0  0  0  0  0
   43.9852   24.4966   32.1851 H   0  0  0  0  0  0  0  0  0  0  0  0
   44.3104   26.3186   37.5489 H   0  0  0  0  0  0  0  0  0  0  0  0
   45.7327   26.4988   39.8355 H   0  0  0  0  0  0  0  0  0  0  0  0
   49.6901   23.1693   36.2414 H   0  0  0  0  0  0  0  0  0  0  0  0
   39.8520   21.3942   37.9011 H   0  0  0  0  0  0  0  0  0  0  0  0
   38.5062   28.0864   34.6474 H   0  0  0  0  0  0  0  0  0  0  0  0
   39.1207   27.0479   32.1066 H   0  0  0  0  0  0  0  0  0  0  0  0
   39.2735   25.5993   32.6659 H   0  0  0  0  0  0  0  0  0  0  0  0
   41.4206   26.6058   34.2349 H   0  0  0  0  0  0  0  0  0  0  0  0
   41.4362   27.9692   33.4912 H   0  0  0  0  0  0  0  0  0  0  0  0
  1  2  1  0
  1 19  1  0
  2  6  1  0
  3  4  1  0
  3  2  2  0
  4  5  1  0
  5  7  1  0
  6  5  2  0
  7 11  1  0
  7  8  1  0
  8  9  2  0
 10  9  1  0
 11 10  2  0
 12 11  1  0
 13 12  2  0
 14 12  1  0
 16 15  2  0
 16 21  1  0
 17 16  1  0
 18 19  1  0
 18 17  2  0
 19 20  2  0
 20 15  1  0
 21 24  1  0
 21 22  1  0
 23 21  1  0
 25 17  1  0
 26 25  2  0
 27 25  1  0
 28 27  1  0
 29 30  1  0
 29 28  1  0
 30 28  1  0
  3 31  1  0
  8 32  1  0
  9 33  1  0
 14 34  1  0
 15 35  1  0
 28 36  1  0
 29 37  1  0
 29 38  1  0
 30 39  1  0
 30 40  1  0
M  ISO  8  31  14  32  14  33  14  34   3  35  14  36  13  37  13  38  13
M  ISO  2  39  13  40  13
M  END
>  <minimizedAffinity>  (1) 
-5.19670153

>  <minimizedRMSD>  (1) 
1.80978787

$$$$
