
     RDKit          3D

 32 34  0  0  1  0  0  0  0  0999 V2000
   37.7120   25.5540   33.5830 N   0  0  0  0  0  0  0  0  0  0  0  0
   37.1880   26.8770   33.8690 C   0  0  0  0  0  0  0  0  0  0  0  0
   37.8300   27.6040   34.9600 C   0  0  0  0  0  0  0  0  0  0  0  0
   38.4310   26.7970   36.0640 C   0  0  0  0  0  0  0  0  0  0  0  0
   38.5760   25.3390   35.7420 C   0  0  0  0  0  0  0  0  0  0  0  0
   38.9250   25.2920   34.2560 C   0  0  2  0  0  0  0  0  0  0  0  0
   36.0540   25.0810   31.8040 C   0  0  0  0  0  0  0  0  0  0  0  0
   37.0230   24.6800   32.7170 C   0  0  0  0  0  0  0  0  0  0  0  0
   37.3190   23.3330   32.7690 C   0  0  0  0  0  0  0  0  0  0  0  0
   36.6710   22.4660   31.9480 N   0  0  0  0  0  0  0  0  0  0  0  0
   35.7300   22.9060   31.0720 C   0  0  0  0  0  0  0  0  0  0  0  0
   35.4290   24.2210   31.0090 N   0  0  0  0  0  0  0  0  0  0  0  0
   40.0500   26.1230   33.9050 N   0  0  0  0  0  0  0  0  0  0  0  0
   41.1440   26.4570   34.6160 C   0  0  0  0  0  0  0  0  0  0  0  0
   41.8990   27.2700   33.8190 C   0  0  0  0  0  0  0  0  0  0  0  0
   41.2710   27.4220   32.6600 N   0  0  0  0  0  0  0  0  0  0  0  0
   40.1250   26.7180   32.6980 C   0  0  0  0  0  0  0  0  0  0  0  0
   37.2904   27.4827   32.9565 H   0  0  0  0  0  0  0  0  0  0  0  0
   36.1491   26.7176   34.1935 H   0  0  0  0  0  0  0  0  0  0  0  0
   38.6337   28.2140   34.5220 H   0  0  0  0  0  0  0  0  0  0  0  0
   37.0170   28.1713   35.4367 H   0  0  0  0  0  0  0  0  0  0  0  0
   39.4287   27.2034   36.2865 H   0  0  0  0  0  0  0  0  0  0  0  0
   37.7452   26.8679   36.9211 H   0  0  0  0  0  0  0  0  0  0  0  0
   39.3808   24.8893   36.3420 H   0  0  0  0  0  0  0  0  0  0  0  0
   37.6596   24.7741   35.9680 H   0  0  0  0  0  0  0  0  0  0  0  0
   39.3064   24.3091   33.9424 H   0  0  0  0  0  0  0  0  0  0  0  0
   35.7962   26.1483   31.7382 H   0  0  0  0  0  0  0  0  0  0  0  0
   38.0779   22.9622   33.4737 H   0  0  0  0  0  0  0  0  0  0  0  0
   35.2136   22.1913   30.4144 H   0  0  0  0  0  0  0  0  0  0  0  0
   41.3834   26.1369   35.6408 H   0  0  0  0  0  0  0  0  0  0  0  0
   42.8640   27.7220   34.0918 H   0  0  0  0  0  0  0  0  0  0  0  0
   39.3830   26.6418   31.8896 H   0  0  0  0  0  0  0  0  0  0  0  0
  1  2  1  0
  1  6  1  0
  2  3  1  0
  3  4  1  0
  5  4  1  0
  6  5  1  0
  7  8  2  0
  8  9  1  0
  8  1  1  0
 10  9  2  0
 11 10  1  0
 12 11  2  0
 12  7  1  0
 13  6  1  0
 13 14  1  0
 15 14  2  0
 16 17  2  0
 16 15  1  0
 17 13  1  0
  2 18  1  0
  2 19  1  0
  3 20  1  0
  3 21  1  0
  4 22  1  0
  4 23  1  0
  5 24  1  0
  5 25  1  0
  6 26  1  6
  7 27  1  0
  9 28  1  0
 11 29  1  0
 14 30  1  0
 15 31  1  0
 17 32  1  0
M  ISO  8  18  13  19  13  20  13  21  13  22  13  23  13  24  13  25  13
M  ISO  7  26  13  27  14  28  14  29  14  30  14  31  14  32  14
M  END
>  <minimizedAffinity>  (1) 
-4.0954113

>  <minimizedRMSD>  (1) 
5.15309334

$$$$
