
     RDKit          3D

 45 48  0  0  1  0  0  0  0  0999 V2000
   40.5050   23.2550   36.1990 C   0  0  0  0  0  0  0  0  0  0  0  0
   39.2190   23.4900   35.6750 C   0  0  0  0  0  0  0  0  0  0  0  0
   39.1220   23.8770   34.3600 C   0  0  0  0  0  0  0  0  0  0  0  0
   40.2640   24.0140   33.6300 N   0  0  0  0  0  0  0  0  0  0  0  0
   41.4890   23.7800   34.1610 C   0  0  0  0  0  0  0  0  0  0  0  0
   41.5780   23.4040   35.4440 N   0  0  0  0  0  0  0  0  0  0  0  0
   37.9790   23.3380   36.4810 C   0  0  0  0  0  0  0  0  0  0  0  0
   38.4020   23.0990   37.8190 F   0  0  0  0  0  0  0  0  0  0  0  0
   37.1720   22.3610   36.0910 F   0  0  0  0  0  0  0  0  0  0  0  0
   37.3380   24.5900   36.6280 F   0  0  0  0  0  0  0  0  0  0  0  0
   37.9050   24.1690   33.6250 C   0  0  0  0  0  0  0  0  0  0  0  0
   37.1320   23.4460   32.9470 O   0  0  0  0  0  0  0  0  0  0  0  0
   37.2990   25.3860   33.5070 O   0  0  0  0  0  0  0  0  0  0  0  0
   36.3910   27.3790   32.6880 N   0  0  0  0  0  0  0  0  0  0  0  0
   36.6650   28.1560   31.4690 C   0  0  0  0  0  0  0  0  0  0  0  0
   38.1690   27.9340   31.3640 C   0  0  0  0  0  0  0  0  0  0  0  0
   38.2520   26.4240   31.6160 C   0  0  0  0  0  0  0  0  0  0  0  0
   36.9650   26.0690   32.3440 C   0  0  1  0  0  0  0  0  0  0  0  0
   42.8930   24.0010   33.0800 S   0  0  0  0  0  0  0  0  0  0  0  0
   44.1540   24.9530   33.9040 C   0  0  0  0  0  0  0  0  0  0  0  0
   44.7940   25.9720   33.1770 C   0  0  0  0  0  0  0  0  0  0  0  0
   45.9850   26.6460   34.4310 S   0  0  0  0  0  0  0  0  0  0  0  0
   45.3880   25.4120   35.7140 C   0  0  0  0  0  0  0  0  0  0  0  0
   44.6220   24.8860   35.1020 N   0  0  0  0  0  0  0  0  0  0  0  0
   45.8390   25.2510   37.0760 N   0  0  0  0  0  0  0  0  0  0  0  0
   45.0790   25.8940   37.9990 C   0  0  0  0  0  0  0  0  0  0  0  0
   45.6400   25.6420   39.2330 C   0  0  0  0  0  0  0  0  0  0  0  0
   46.7180   24.8560   39.0110 N   0  0  0  0  0  0  0  0  0  0  0  0
   46.8410   24.6170   37.6890 C   0  0  0  0  0  0  0  0  0  0  0  0
   47.7950   23.8550   36.9230 C   0  0  0  0  0  0  0  0  0  0  0  0
   47.6730   22.6070   36.8190 O   0  0  0  0  0  0  0  0  0  0  0  0
   48.8250   24.5360   36.3220 O   0  0  0  0  0  0  0  0  0  0  0  0
   40.6167   22.9441   37.2482 H   0  0  0  0  0  0  0  0  0  0  0  0
   36.8592   27.7901   33.5081 H   0  0  0  0  0  0  0  0  0  0  0  0
   36.1287   27.7541   30.5967 H   0  0  0  0  0  0  0  0  0  0  0  0
   36.3477   29.2087   31.5028 H   0  0  0  0  0  0  0  0  0  0  0  0
   38.5493   28.1999   30.3667 H   0  0  0  0  0  0  0  0  0  0  0  0
   38.7699   28.5455   32.0532 H   0  0  0  0  0  0  0  0  0  0  0  0
   38.3198   25.8773   30.6639 H   0  0  0  0  0  0  0  0  0  0  0  0
   39.1431   26.1537   32.2015 H   0  0  0  0  0  0  0  0  0  0  0  0
   36.2758   25.4432   31.7581 H   0  0  0  0  0  0  0  0  0  0  0  0
   44.6313   26.2877   32.1359 H   0  0  0  0  0  0  0  0  0  0  0  0
   44.1840   26.5017   37.7998 H   0  0  0  0  0  0  0  0  0  0  0  0
   45.2814   26.0081   40.2063 H   0  0  0  0  0  0  0  0  0  0  0  0
   49.4985   24.0445   35.7882 H   0  0  0  0  0  0  0  0  0  0  0  0
  2  1  2  0
  2  7  1  0
  3  2  1  0
  4  5  1  0
  4  3  2  0
  5  6  2  0
  6  1  1  0
  7 10  1  0
  7  8  1  0
  9  7  1  0
 11  3  1  0
 12 11  2  0
 13 11  1  0
 15 14  1  0
 16 15  1  0
 16 17  1  0
 17 18  1  0
 18 14  1  0
 18 13  1  0
 19 20  1  0
 19  5  1  0
 20 24  1  0
 21 20  2  0
 21 22  1  0
 22 23  1  0
 23 25  1  0
 24 23  2  0
 25 29  1  0
 25 26  1  0
 26 27  2  0
 28 27  1  0
 29 28  2  0
 30 29  1  0
 31 30  2  0
 32 30  1  0
  1 33  1  0
 14 34  1  0
 15 35  1  0
 15 36  1  0
 16 37  1  0
 16 38  1  0
 17 39  1  0
 17 40  1  0
 18 41  1  6
 21 42  1  0
 26 43  1  0
 27 44  1  0
 32 45  1  0
M  ISO  8  33  14  34   5  35  13  36  13  37  13  38  13  39  13  40  13
M  ISO  5  41  13  42  14  43  14  44  14  45   3
M  END
>  <minimizedAffinity>  (1) 
-5.18527699

>  <minimizedRMSD>  (1) 
2.40261936

$$$$
