
     RDKit          3D

 39 42  0  0  1  0  0  0  0  0999 V2000
   37.6910   25.8720   33.8030 N   0  0  0  0  0  0  0  0  0  0  0  0
   37.5220   27.2630   34.1870 C   0  0  0  0  0  0  0  0  0  0  0  0
   38.1890   27.7010   35.4110 C   0  0  0  0  0  0  0  0  0  0  0  0
   38.3250   26.6560   36.4850 C   0  0  0  0  0  0  0  0  0  0  0  0
   38.1160   25.2570   36.0180 C   0  0  0  0  0  0  0  0  0  0  0  0
   38.6600   25.2200   34.5750 C   0  0  2  0  0  0  0  0  0  0  0  0
   40.0080   25.6920   34.4810 N   0  0  0  0  0  0  0  0  0  0  0  0
   40.5240   26.8070   33.9050 C   0  0  0  0  0  0  0  0  0  0  0  0
   41.8650   26.7830   34.0880 C   0  0  0  0  0  0  0  0  0  0  0  0
   42.1560   25.6700   34.7660 N   0  0  0  0  0  0  0  0  0  0  0  0
   41.0160   24.9960   35.0110 C   0  0  0  0  0  0  0  0  0  0  0  0
   41.2860   23.8140   35.7480 N   0  0  0  0  0  0  0  0  0  0  0  0
   40.2230   23.0470   35.9210 N   0  0  0  0  0  0  0  0  0  0  0  0
   40.5060   21.9450   36.6290 C   0  0  0  0  0  0  0  0  0  0  0  0
   41.8480   22.0380   36.9140 C   0  0  0  0  0  0  0  0  0  0  0  0
   42.3140   23.2100   36.3560 C   0  0  0  0  0  0  0  0  0  0  0  0
   36.0860   26.0620   31.9280 C   0  0  0  0  0  0  0  0  0  0  0  0
   36.9240   25.3210   32.7600 C   0  0  0  0  0  0  0  0  0  0  0  0
   37.0010   23.9730   32.5340 C   0  0  0  0  0  0  0  0  0  0  0  0
   36.2860   23.3920   31.5370 N   0  0  0  0  0  0  0  0  0  0  0  0
   35.4790   24.1560   30.7470 C   0  0  0  0  0  0  0  0  0  0  0  0
   35.3870   25.4840   30.9510 N   0  0  0  0  0  0  0  0  0  0  0  0
   37.9026   27.8832   33.3620 H   0  0  0  0  0  0  0  0  0  0  0  0
   36.4472   27.3728   34.3935 H   0  0  0  0  0  0  0  0  0  0  0  0
   39.1990   28.0440   35.1422 H   0  0  0  0  0  0  0  0  0  0  0  0
   37.5510   28.4896   35.8365 H   0  0  0  0  0  0  0  0  0  0  0  0
   39.3376   26.7288   36.9085 H   0  0  0  0  0  0  0  0  0  0  0  0
   37.5340   26.8606   37.2215 H   0  0  0  0  0  0  0  0  0  0  0  0
   38.6692   24.5519   36.6558 H   0  0  0  0  0  0  0  0  0  0  0  0
   37.0563   24.9653   36.0628 H   0  0  0  0  0  0  0  0  0  0  0  0
   38.7880   24.2016   34.1794 H   0  0  0  0  0  0  0  0  0  0  0  0
   39.9546   27.5901   33.3829 H   0  0  0  0  0  0  0  0  0  0  0  0
   42.5830   27.5410   33.7418 H   0  0  0  0  0  0  0  0  0  0  0  0
   39.8145   21.1403   36.9193 H   0  0  0  0  0  0  0  0  0  0  0  0
   42.4426   21.3091   37.4842 H   0  0  0  0  0  0  0  0  0  0  0  0
   43.3480   23.5825   36.4025 H   0  0  0  0  0  0  0  0  0  0  0  0
   35.9996   27.1479   32.0811 H   0  0  0  0  0  0  0  0  0  0  0  0
   37.6508   23.3525   33.1686 H   0  0  0  0  0  0  0  0  0  0  0  0
   34.9001   23.6852   29.9388 H   0  0  0  0  0  0  0  0  0  0  0  0
  1  2  1  0
  1  6  1  0
  2  3  1  0
  3  4  1  0
  5  4  1  0
  6  5  1  0
  7  6  1  0
  7 11  1  0
  8  9  2  0
  8  7  1  0
  9 10  1  0
 10 11  2  0
 11 12  1  0
 12 13  1  0
 12 16  1  0
 13 14  2  0
 14 15  1  0
 16 15  2  0
 17 18  2  0
 18  1  1  0
 19 18  1  0
 20 19  2  0
 21 22  2  0
 21 20  1  0
 22 17  1  0
  2 23  1  0
  2 24  1  0
  3 25  1  0
  3 26  1  0
  4 27  1  0
  4 28  1  0
  5 29  1  0
  5 30  1  0
  6 31  1  6
  8 32  1  0
  9 33  1  0
 14 34  1  0
 15 35  1  0
 16 36  1  0
 17 37  1  0
 19 38  1  0
 21 39  1  0
M  ISO  8  23  13  24  13  25  13  26  13  27  13  28  13  29  13  30  13
M  ISO  8  31  13  32  14  33  14  34  14  35  14  36  14  37  14  38  14
M  ISO  1  39  14
M  END
>  <minimizedAffinity>  (1) 
-5.31025171

>  <minimizedRMSD>  (1) 
3.76670957

$$$$
