
     RDKit          3D

 38 41  0  0  1  0  0  0  0  0999 V2000
   37.6600   25.9580   33.7860 N   0  0  0  0  0  0  0  0  0  0  0  0
   37.4910   27.3330   34.2420 C   0  0  0  0  0  0  0  0  0  0  0  0
   38.1750   27.7100   35.4730 C   0  0  0  0  0  0  0  0  0  0  0  0
   38.3360   26.6140   36.4910 C   0  0  0  0  0  0  0  0  0  0  0  0
   38.1230   25.2380   35.9600 C   0  0  0  0  0  0  0  0  0  0  0  0
   38.6430   25.2740   34.5090 C   0  0  2  0  0  0  0  0  0  0  0  0
   39.9870   25.7570   34.4130 N   0  0  0  0  0  0  0  0  0  0  0  0
   40.4810   26.8800   33.8440 C   0  0  0  0  0  0  0  0  0  0  0  0
   41.8230   26.8760   34.0140 C   0  0  0  0  0  0  0  0  0  0  0  0
   42.1330   25.7600   34.6780 N   0  0  0  0  0  0  0  0  0  0  0  0
   41.0100   25.0750   34.9240 C   0  0  0  0  0  0  0  0  0  0  0  0
   41.2840   23.8830   35.6480 N   0  0  0  0  0  0  0  0  0  0  0  0
   42.2320   23.3530   36.4330 C   0  0  0  0  0  0  0  0  0  0  0  0
   41.8700   22.1240   36.8350 N   0  0  0  0  0  0  0  0  0  0  0  0
   40.6670   21.8820   36.2890 C   0  0  0  0  0  0  0  0  0  0  0  0
   40.3280   22.9460   35.5790 N   0  0  0  0  0  0  0  0  0  0  0  0
   36.0740   26.2470   31.9100 C   0  0  0  0  0  0  0  0  0  0  0  0
   36.8750   25.4630   32.7290 C   0  0  0  0  0  0  0  0  0  0  0  0
   36.8970   24.1150   32.4800 C   0  0  0  0  0  0  0  0  0  0  0  0
   36.1650   23.5790   31.4760 N   0  0  0  0  0  0  0  0  0  0  0  0
   35.3910   24.3890   30.6940 C   0  0  0  0  0  0  0  0  0  0  0  0
   35.3550   25.7250   30.9220 N   0  0  0  0  0  0  0  0  0  0  0  0
   37.8563   27.9950   33.4431 H   0  0  0  0  0  0  0  0  0  0  0  0
   36.4191   27.4292   34.4694 H   0  0  0  0  0  0  0  0  0  0  0  0
   39.1784   28.0725   35.2049 H   0  0  0  0  0  0  0  0  0  0  0  0
   37.5388   28.4707   35.9490 H   0  0  0  0  0  0  0  0  0  0  0  0
   39.3565   26.6707   36.8977 H   0  0  0  0  0  0  0  0  0  0  0  0
   37.5586   26.7784   37.2517 H   0  0  0  0  0  0  0  0  0  0  0  0
   38.6887   24.5046   36.5535 H   0  0  0  0  0  0  0  0  0  0  0  0
   37.0652   24.9401   36.0082 H   0  0  0  0  0  0  0  0  0  0  0  0
   38.7686   24.2755   34.0649 H   0  0  0  0  0  0  0  0  0  0  0  0
   39.8953   27.6587   33.3334 H   0  0  0  0  0  0  0  0  0  0  0  0
   42.5271   27.6478   33.6696 H   0  0  0  0  0  0  0  0  0  0  0  0
   43.1722   23.8532   36.7086 H   0  0  0  0  0  0  0  0  0  0  0  0
   40.0713   20.9652   36.4101 H   0  0  0  0  0  0  0  0  0  0  0  0
   36.0333   27.3324   32.0841 H   0  0  0  0  0  0  0  0  0  0  0  0
   37.5194   23.4589   33.1062 H   0  0  0  0  0  0  0  0  0  0  0  0
   34.7953   23.9559   29.8770 H   0  0  0  0  0  0  0  0  0  0  0  0
  1  2  1  0
  1  6  1  0
  2  3  1  0
  3  4  1  0
  5  4  1  0
  6  5  1  0
  7  6  1  0
  7 11  1  0
  8  9  2  0
  8  7  1  0
  9 10  1  0
 10 11  2  0
 11 12  1  0
 12 13  1  0
 13 14  2  0
 15 14  1  0
 16 12  1  0
 16 15  2  0
 17 18  2  0
 18  1  1  0
 19 18  1  0
 20 19  2  0
 21 22  2  0
 21 20  1  0
 22 17  1  0
  2 23  1  0
  2 24  1  0
  3 25  1  0
  3 26  1  0
  4 27  1  0
  4 28  1  0
  5 29  1  0
  5 30  1  0
  6 31  1  6
  8 32  1  0
  9 33  1  0
 13 34  1  0
 15 35  1  0
 17 36  1  0
 19 37  1  0
 21 38  1  0
M  ISO  8  23  13  24  13  25  13  26  13  27  13  28  13  29  13  30  13
M  ISO  8  31  13  32  14  33  14  34  14  35  14  36  14  37  14  38  14
M  END
>  <minimizedAffinity>  (1) 
-5.0582366

>  <minimizedRMSD>  (1) 
3.74427247

$$$$
