
     RDKit          3D

 43 47  0  0  1  0  0  0  0  0999 V2000
   37.4670   26.0050   33.5290 N   0  0  0  0  0  0  0  0  0  0  0  0
   37.1230   27.2320   34.2160 C   0  0  0  0  0  0  0  0  0  0  0  0
   37.9000   27.5690   35.4100 C   0  0  0  0  0  0  0  0  0  0  0  0
   38.4020   26.4020   36.2100 C   0  0  0  0  0  0  0  0  0  0  0  0
   38.3650   25.0940   35.4830 C   0  0  0  0  0  0  0  0  0  0  0  0
   38.6540   25.4390   34.0100 C   0  0  2  0  0  0  0  0  0  0  0  0
   39.8610   26.1890   33.8410 N   0  0  0  0  0  0  0  0  0  0  0  0
   40.8830   26.4350   34.7000 C   0  0  0  0  0  0  0  0  0  0  0  0
   41.7860   27.2070   34.0500 C   0  0  0  0  0  0  0  0  0  0  0  0
   41.3170   27.4220   32.8170 N   0  0  0  0  0  0  0  0  0  0  0  0
   40.1320   26.7950   32.6860 C   0  0  0  0  0  0  0  0  0  0  0  0
   39.6290   26.9960   31.3760 N   0  0  0  0  0  0  0  0  0  0  0  0
   40.1070   26.2560   30.3310 C   0  0  0  0  0  0  0  0  0  0  0  0
   39.5420   26.5640   29.1290 N   0  0  0  0  0  0  0  0  0  0  0  0
   38.6730   27.5410   29.4380 C   0  0  0  0  0  0  0  0  0  0  0  0
   37.7650   28.3290   28.7620 C   0  0  0  0  0  0  0  0  0  0  0  0
   37.0190   29.2510   29.3930 N   0  0  0  0  0  0  0  0  0  0  0  0
   37.1020   29.4720   30.7140 C   0  0  0  0  0  0  0  0  0  0  0  0
   37.9770   28.7270   31.4240 N   0  0  0  0  0  0  0  0  0  0  0  0
   38.7280   27.7980   30.7890 C   0  0  0  0  0  0  0  0  0  0  0  0
   35.6660   26.2600   31.8500 C   0  0  0  0  0  0  0  0  0  0  0  0
   36.6450   25.5000   32.5040 C   0  0  0  0  0  0  0  0  0  0  0  0
   36.8050   24.1990   32.1070 C   0  0  0  0  0  0  0  0  0  0  0  0
   36.0410   23.6830   31.1190 N   0  0  0  0  0  0  0  0  0  0  0  0
   35.0980   24.4470   30.5040 C   0  0  0  0  0  0  0  0  0  0  0  0
   34.9190   25.7280   30.8760 N   0  0  0  0  0  0  0  0  0  0  0  0
   37.2425   28.0577   33.4991 H   0  0  0  0  0  0  0  0  0  0  0  0
   36.0966   27.0760   34.5795 H   0  0  0  0  0  0  0  0  0  0  0  0
   38.7712   28.1599   35.0908 H   0  0  0  0  0  0  0  0  0  0  0  0
   37.2110   28.1131   36.0728 H   0  0  0  0  0  0  0  0  0  0  0  0
   39.4435   26.6056   36.4996 H   0  0  0  0  0  0  0  0  0  0  0  0
   37.7293   26.3006   37.0744 H   0  0  0  0  0  0  0  0  0  0  0  0
   39.1333   24.4124   35.8769 H   0  0  0  0  0  0  0  0  0  0  0  0
   37.3968   24.5857   35.6027 H   0  0  0  0  0  0  0  0  0  0  0  0
   38.8934   24.5605   33.3929 H   0  0  0  0  0  0  0  0  0  0  0  0
   40.9631   26.0731   35.7357 H   0  0  0  0  0  0  0  0  0  0  0  0
   42.7325   27.5876   34.4615 H   0  0  0  0  0  0  0  0  0  0  0  0
   40.8787   25.4811   30.4492 H   0  0  0  0  0  0  0  0  0  0  0  0
   37.6484   28.1989   27.6760 H   0  0  0  0  0  0  0  0  0  0  0  0
   36.4780   30.2348   31.2026 H   0  0  0  0  0  0  0  0  0  0  0  0
   35.5095   27.3090   32.1417 H   0  0  0  0  0  0  0  0  0  0  0  0
   37.5619   23.5687   32.5966 H   0  0  0  0  0  0  0  0  0  0  0  0
   34.4809   24.0170   29.7014 H   0  0  0  0  0  0  0  0  0  0  0  0
  1  6  1  0
  1  2  1  0
  2  3  1  0
  3  4  1  0
  5  4  1  0
  6  5  1  0
  7  6  1  0
  7  8  1  0
  9  8  2  0
 10  9  1  0
 11 10  2  0
 11  7  1  0
 12 11  1  0
 13 12  1  0
 14 15  1  0
 14 13  2  0
 15 20  2  0
 16 17  2  0
 16 15  1  0
 17 18  1  0
 18 19  2  0
 20 12  1  0
 20 19  1  0
 21 22  2  0
 22  1  1  0
 23 22  1  0
 24 23  2  0
 25 26  2  0
 25 24  1  0
 26 21  1  0
  2 27  1  0
  2 28  1  0
  3 29  1  0
  3 30  1  0
  4 31  1  0
  4 32  1  0
  5 33  1  0
  5 34  1  0
  6 35  1  6
  8 36  1  0
  9 37  1  0
 13 38  1  0
 16 39  1  0
 18 40  1  0
 21 41  1  0
 23 42  1  0
 25 43  1  0
M  ISO  8  27  13  28  13  29  13  30  13  31  13  32  13  33  13  34  13
M  ISO  8  35  13  36  14  37  14  38  14  39  14  40  14  41  14  42  14
M  ISO  1  43  14
M  END
>  <minimizedAffinity>  (1) 
-4.97775459

>  <minimizedRMSD>  (1) 
0.793031335

$$$$
