
     RDKit          3D

 48 51  0  0  1  0  0  0  0  0999 V2000
   37.7160   25.4690   33.5890 N   0  0  0  0  0  0  0  0  0  0  0  0
   37.1630   26.7510   33.9860 C   0  0  0  0  0  0  0  0  0  0  0  0
   37.8480   27.4610   35.0660 C   0  0  0  0  0  0  0  0  0  0  0  0
   38.5240   26.6110   36.0910 C   0  0  0  0  0  0  0  0  0  0  0  0
   38.7120   25.1840   35.6730 C   0  0  0  0  0  0  0  0  0  0  0  0
   38.9730   25.2400   34.1530 C   0  0  2  0  0  0  0  0  0  0  0  0
   36.0570   25.0490   31.8100 C   0  0  0  0  0  0  0  0  0  0  0  0
   37.0160   24.6040   32.7320 C   0  0  0  0  0  0  0  0  0  0  0  0
   37.2800   23.2670   32.7700 C   0  0  0  0  0  0  0  0  0  0  0  0
   36.6270   22.4190   31.9360 N   0  0  0  0  0  0  0  0  0  0  0  0
   35.6990   22.8950   31.0500 C   0  0  0  0  0  0  0  0  0  0  0  0
   35.4210   24.2260   30.9980 N   0  0  0  0  0  0  0  0  0  0  0  0
   40.0450   26.1280   33.7920 N   0  0  0  0  0  0  0  0  0  0  0  0
   41.0600   26.5790   34.5660 C   0  0  0  0  0  0  0  0  0  0  0  0
   41.8080   27.3880   33.7840 C   0  0  0  0  0  0  0  0  0  0  0  0
   41.2430   27.4090   32.5790 N   0  0  0  0  0  0  0  0  0  0  0  0
   40.1460   26.6290   32.5700 C   0  0  0  0  0  0  0  0  0  0  0  0
   39.5410   26.6740   31.2190 C   0  0  0  0  0  0  0  0  0  0  0  0
   40.6300   26.8760   30.1650 C   0  0  0  0  0  0  0  0  0  0  0  0
   40.7680   28.3500   29.8590 C   0  0  0  0  0  0  0  0  0  0  0  0
   39.5730   28.8560   29.0480 C   0  0  0  0  0  0  0  0  0  0  0  0
   38.3920   28.0450   29.5340 C   0  0  0  0  0  0  0  0  0  0  0  0
   38.6120   27.8910   31.0380 C   0  0  0  0  0  0  0  0  0  0  0  0
   37.1707   27.4046   33.1013 H   0  0  0  0  0  0  0  0  0  0  0  0
   36.1629   26.5217   34.3825 H   0  0  0  0  0  0  0  0  0  0  0  0
   38.6119   28.1081   34.6102 H   0  0  0  0  0  0  0  0  0  0  0  0
   37.0590   28.0030   35.6079 H   0  0  0  0  0  0  0  0  0  0  0  0
   39.5136   27.0432   36.3004 H   0  0  0  0  0  0  0  0  0  0  0  0
   37.8704   26.5996   36.9757 H   0  0  0  0  0  0  0  0  0  0  0  0
   39.5711   24.7386   36.1960 H   0  0  0  0  0  0  0  0  0  0  0  0
   37.8365   24.5646   35.9178 H   0  0  0  0  0  0  0  0  0  0  0  0
   39.3790   24.3053   33.7390 H   0  0  0  0  0  0  0  0  0  0  0  0
   35.8267   26.1236   31.7622 H   0  0  0  0  0  0  0  0  0  0  0  0
   38.0243   22.8747   33.4786 H   0  0  0  0  0  0  0  0  0  0  0  0
   35.1760   22.1992   30.3775 H   0  0  0  0  0  0  0  0  0  0  0  0
   41.2403   26.3349   35.6233 H   0  0  0  0  0  0  0  0  0  0  0  0
   42.7163   27.9294   34.0872 H   0  0  0  0  0  0  0  0  0  0  0  0
   38.9909   25.7280   31.1070 H   0  0  0  0  0  0  0  0  0  0  0  0
   41.5864   26.4898   30.5473 H   0  0  0  0  0  0  0  0  0  0  0  0
   40.3567   26.3350   29.2471 H   0  0  0  0  0  0  0  0  0  0  0  0
   40.8242   28.9099   30.8042 H   0  0  0  0  0  0  0  0  0  0  0  0
   41.6826   28.5008   29.2667 H   0  0  0  0  0  0  0  0  0  0  0  0
   39.7384   28.6906   27.9732 H   0  0  0  0  0  0  0  0  0  0  0  0
   39.4130   29.9361   29.1817 H   0  0  0  0  0  0  0  0  0  0  0  0
   37.4495   28.5755   29.3332 H   0  0  0  0  0  0  0  0  0  0  0  0
   38.3201   27.0727   29.0247 H   0  0  0  0  0  0  0  0  0  0  0  0
   39.0853   28.7954   31.4479 H   0  0  0  0  0  0  0  0  0  0  0  0
   37.6589   27.7478   31.5681 H   0  0  0  0  0  0  0  0  0  0  0  0
  1  2  1  0
  1  6  1  0
  2  3  1  0
  3  4  1  0
  5  4  1  0
  6  5  1  0
  7  8  2  0
  8  9  1  0
  8  1  1  0
 10  9  2  0
 11 10  1  0
 12 11  2  0
 12  7  1  0
 13  6  1  0
 13 14  1  0
 15 14  2  0
 16 15  1  0
 17 16  2  0
 17 13  1  0
 18 17  1  0
 19 18  1  0
 20 19  1  0
 21 22  1  0
 21 20  1  0
 22 23  1  0
 23 18  1  0
  2 24  1  0
  2 25  1  0
  3 26  1  0
  3 27  1  0
  4 28  1  0
  4 29  1  0
  5 30  1  0
  5 31  1  0
  6 32  1  6
  7 33  1  0
  9 34  1  0
 11 35  1  0
 14 36  1  0
 15 37  1  0
 18 38  1  0
 19 39  1  0
 19 40  1  0
 20 41  1  0
 20 42  1  0
 21 43  1  0
 21 44  1  0
 22 45  1  0
 22 46  1  0
 23 47  1  0
 23 48  1  0
M  ISO  8  24  13  25  13  26  13  27  13  28  13  29  13  30  13  31  13
M  ISO  8  32  13  33  14  34  14  35  14  36  14  37  14  38  13  39  13
M  ISO  8  40  13  41  13  42  13  43  13  44  13  45  13  46  13  47  13
M  ISO  1  48  13
M  END
>  <minimizedAffinity>  (1) 
-4.76234961

>  <minimizedRMSD>  (1) 
1.58984935

$$$$
