
     RDKit          3D

 39 41  0  0  1  0  0  0  0  0999 V2000
   37.7400   25.4270   33.5480 N   0  0  0  0  0  0  0  0  0  0  0  0
   37.2250   26.7560   33.8020 C   0  0  0  0  0  0  0  0  0  0  0  0
   37.8760   27.5340   34.8560 C   0  0  0  0  0  0  0  0  0  0  0  0
   38.4660   26.7460   35.9840 C   0  0  0  0  0  0  0  0  0  0  0  0
   38.6210   25.2830   35.7040 C   0  0  0  0  0  0  0  0  0  0  0  0
   38.9540   25.2090   34.2030 C   0  0  2  0  0  0  0  0  0  0  0  0
   40.0750   26.0240   33.8200 N   0  0  0  0  0  0  0  0  0  0  0  0
   40.9790   26.6660   34.6060 C   0  0  0  0  0  0  0  0  0  0  0  0
   41.8360   27.2960   33.7670 C   0  0  0  0  0  0  0  0  0  0  0  0
   41.4590   27.0390   32.5340 N   0  0  0  0  0  0  0  0  0  0  0  0
   40.3640   26.2480   32.5370 C   0  0  0  0  0  0  0  0  0  0  0  0
   39.8930   25.9200   31.2430 N   0  0  0  0  0  0  0  0  0  0  0  0
   39.1810   26.7800   30.3390 C   0  0  0  0  0  0  0  0  0  0  0  0
   38.6390   27.8520   30.8800 N   0  0  0  0  0  0  0  0  0  0  0  0
   39.0330   26.5600   28.9440 N   0  0  0  0  0  0  0  0  0  0  0  0
   38.1010   28.5530   30.3480 H   0  0  0  0  0  0  0  0  0  0  0  0
   36.0980   24.9120   31.7740 C   0  0  0  0  0  0  0  0  0  0  0  0
   37.0490   24.5190   32.7290 C   0  0  0  0  0  0  0  0  0  0  0  0
   37.3090   23.1830   32.8300 C   0  0  0  0  0  0  0  0  0  0  0  0
   36.6680   22.3020   32.0330 N   0  0  0  0  0  0  0  0  0  0  0  0
   35.7500   22.7280   31.1180 C   0  0  0  0  0  0  0  0  0  0  0  0
   35.4720   24.0540   30.9970 N   0  0  0  0  0  0  0  0  0  0  0  0
   37.3107   27.3287   32.8668 H   0  0  0  0  0  0  0  0  0  0  0  0
   36.1966   26.5986   34.1592 H   0  0  0  0  0  0  0  0  0  0  0  0
   38.6858   28.1167   34.3928 H   0  0  0  0  0  0  0  0  0  0  0  0
   37.0812   28.1469   35.3062 H   0  0  0  0  0  0  0  0  0  0  0  0
   39.4598   27.1600   36.2096 H   0  0  0  0  0  0  0  0  0  0  0  0
   37.7638   26.8310   36.8264 H   0  0  0  0  0  0  0  0  0  0  0  0
   39.4381   24.8569   36.3047 H   0  0  0  0  0  0  0  0  0  0  0  0
   37.7170   24.7109   35.9598 H   0  0  0  0  0  0  0  0  0  0  0  0
   39.3439   24.2268   33.8976 H   0  0  0  0  0  0  0  0  0  0  0  0
   41.0089   26.6727   35.7056 H   0  0  0  0  0  0  0  0  0  0  0  0
   42.6959   27.9138   34.0649 H   0  0  0  0  0  0  0  0  0  0  0  0
   40.0809   24.9621   30.9144 H   0  0  0  0  0  0  0  0  0  0  0  0
   39.4512   25.7264   28.5069 H   0  0  0  0  0  0  0  0  0  0  0  0
   38.5075   27.2341   28.3692 H   0  0  0  0  0  0  0  0  0  0  0  0
   35.8663   25.9824   31.6708 H   0  0  0  0  0  0  0  0  0  0  0  0
   38.0444   22.8224   33.5643 H   0  0  0  0  0  0  0  0  0  0  0  0
   35.2339   21.9980   30.4771 H   0  0  0  0  0  0  0  0  0  0  0  0
  1  2  1  0
  1  6  1  0
  2  3  1  0
  3  4  1  0
  5  4  1  0
  6  5  1  0
  7  6  1  0
  7  8  1  0
  9  8  2  0
 10 11  2  0
 10  9  1  0
 11  7  1  0
 12 11  1  0
 13 14  2  0
 13 12  1  0
 15 13  1  0
 16 14  1  0
 17 18  2  0
 18 19  1  0
 18  1  1  0
 20 19  2  0
 21 20  1  0
 22 21  2  0
 22 17  1  0
  2 23  1  0
  2 24  1  0
  3 25  1  0
  3 26  1  0
  4 27  1  0
  4 28  1  0
  5 29  1  0
  5 30  1  0
  6 31  1  1
  8 32  1  0
  9 33  1  0
 12 34  1  0
 15 35  1  0
 15 36  1  0
 17 37  1  0
 19 38  1  0
 21 39  1  0
M  ISO  8  23  13  24  13  25  13  26  13  27  13  28  13  29  13  30  13
M  ISO  6  31  13  32  14  33  14  37  14  38  14  39  14
M  END
>  <minimizedAffinity>  (1) 
-4.72858572

>  <minimizedRMSD>  (1) 
0.694366753

$$$$
