
     RDKit          3D

 39 42  0  0  1  0  0  0  0  0999 V2000
   37.5350   26.0230   33.5360 N   0  0  0  0  0  0  0  0  0  0  0  0
   37.2130   27.2650   34.2090 C   0  0  0  0  0  0  0  0  0  0  0  0
   38.0160   27.6160   35.3830 C   0  0  0  0  0  0  0  0  0  0  0  0
   38.5110   26.4550   36.1950 C   0  0  0  0  0  0  0  0  0  0  0  0
   38.4450   25.1370   35.4950 C   0  0  0  0  0  0  0  0  0  0  0  0
   38.7200   25.4470   34.0100 C   0  0  2  0  0  0  0  0  0  0  0  0
   35.8470   26.3060   31.7510 C   0  0  0  0  0  0  0  0  0  0  0  0
   36.6920   25.5160   32.5280 C   0  0  0  0  0  0  0  0  0  0  0  0
   36.6980   24.1640   32.2910 C   0  0  0  0  0  0  0  0  0  0  0  0
   35.9000   23.6390   31.3290 N   0  0  0  0  0  0  0  0  0  0  0  0
   35.0820   24.4440   30.5850 C   0  0  0  0  0  0  0  0  0  0  0  0
   35.0660   25.7720   30.8070 N   0  0  0  0  0  0  0  0  0  0  0  0
   39.9350   26.1780   33.8120 N   0  0  0  0  0  0  0  0  0  0  0  0
   40.9940   26.3730   34.6360 C   0  0  0  0  0  0  0  0  0  0  0  0
   41.8870   27.1490   33.9770 C   0  0  0  0  0  0  0  0  0  0  0  0
   41.3740   27.4140   32.7750 N   0  0  0  0  0  0  0  0  0  0  0  0
   40.1770   26.8210   32.6690 C   0  0  0  0  0  0  0  0  0  0  0  0
   39.5730   27.0660   31.3630 C   0  0  0  0  0  0  0  0  0  0  0  0
   38.9690   28.1030   30.6910 C   0  0  0  0  0  0  0  0  0  0  0  0
   38.6250   27.6560   29.4340 C   0  0  0  0  0  0  0  0  0  0  0  0
   39.0110   26.3720   29.3410 N   0  0  0  0  0  0  0  0  0  0  0  0
   39.5670   26.0300   30.4740 N   0  0  0  0  0  0  0  0  0  0  0  0
   37.3249   28.0776   33.4761 H   0  0  0  0  0  0  0  0  0  0  0  0
   36.1925   27.1233   34.5945 H   0  0  0  0  0  0  0  0  0  0  0  0
   38.8910   28.1861   35.0375 H   0  0  0  0  0  0  0  0  0  0  0  0
   37.3497   28.1873   36.0460 H   0  0  0  0  0  0  0  0  0  0  0  0
   39.5594   26.6477   36.4666 H   0  0  0  0  0  0  0  0  0  0  0  0
   37.8475   26.3788   37.0690 H   0  0  0  0  0  0  0  0  0  0  0  0
   39.2079   24.4516   35.8926 H   0  0  0  0  0  0  0  0  0  0  0  0
   37.4703   24.6473   35.6366 H   0  0  0  0  0  0  0  0  0  0  0  0
   38.9382   24.5533   33.4070 H   0  0  0  0  0  0  0  0  0  0  0  0
   35.8222   27.3929   31.9183 H   0  0  0  0  0  0  0  0  0  0  0  0
   37.3512   23.5056   32.8825 H   0  0  0  0  0  0  0  0  0  0  0  0
   34.4385   24.0075   29.8069 H   0  0  0  0  0  0  0  0  0  0  0  0
   41.1072   25.9735   35.6546 H   0  0  0  0  0  0  0  0  0  0  0  0
   42.8569   27.4967   34.3623 H   0  0  0  0  0  0  0  0  0  0  0  0
   38.7915   29.1134   31.0880 H   0  0  0  0  0  0  0  0  0  0  0  0
   38.1254   28.2431   28.6494 H   0  0  0  0  0  0  0  0  0  0  0  0
   38.8898   25.7628   28.5194 H   0  0  0  0  0  0  0  0  0  0  0  0
  1  6  1  0
  1  2  1  0
  2  3  1  0
  3  4  1  0
  5  4  1  0
  6  5  1  0
  7  8  2  0
  8  1  1  0
  9  8  1  0
 10  9  2  0
 11 12  2  0
 11 10  1  0
 12  7  1  0
 13  6  1  0
 13 14  1  0
 15 14  2  0
 16 15  1  0
 17 16  2  0
 17 13  1  0
 18 17  1  0
 19 18  1  0
 20 19  2  0
 21 20  1  0
 21 22  1  0
 22 18  2  0
  2 23  1  0
  2 24  1  0
  3 25  1  0
  3 26  1  0
  4 27  1  0
  4 28  1  0
  5 29  1  0
  5 30  1  0
  6 31  1  6
  7 32  1  0
  9 33  1  0
 11 34  1  0
 14 35  1  0
 15 36  1  0
 19 37  1  0
 20 38  1  0
 21 39  1  0
M  ISO  8  23  13  24  13  25  13  26  13  27  13  28  13  29  13  30  13
M  ISO  8  31  13  32  14  33  14  34  14  35  14  36  14  37  14  38  14
M  ISO  1  39   9
M  END
>  <minimizedAffinity>  (1) 
-4.6176362

>  <minimizedRMSD>  (1) 
0.840666831

$$$$
