
     RDKit          3D

 44 46  0  0  1  0  0  0  0  0999 V2000
   37.7460   25.5010   33.5790 N   0  0  0  0  0  0  0  0  0  0  0  0
   37.2130   26.7730   33.9930 C   0  0  0  0  0  0  0  0  0  0  0  0
   37.9180   27.5150   35.0130 C   0  0  0  0  0  0  0  0  0  0  0  0
   38.5670   26.6460   36.0610 C   0  0  0  0  0  0  0  0  0  0  0  0
   38.7270   25.2170   35.6590 C   0  0  0  0  0  0  0  0  0  0  0  0
   39.0050   25.2370   34.1230 C   0  0  2  0  0  0  0  0  0  0  0  0
   36.0380   25.0960   31.8270 C   0  0  0  0  0  0  0  0  0  0  0  0
   36.9990   24.6660   32.7270 C   0  0  0  0  0  0  0  0  0  0  0  0
   37.2840   23.3050   32.7470 C   0  0  0  0  0  0  0  0  0  0  0  0
   36.6430   22.4660   31.9170 N   0  0  0  0  0  0  0  0  0  0  0  0
   35.7020   22.9450   31.0440 C   0  0  0  0  0  0  0  0  0  0  0  0
   35.4100   24.2730   31.0130 N   0  0  0  0  0  0  0  0  0  0  0  0
   40.0980   26.0870   33.7720 N   0  0  0  0  0  0  0  0  0  0  0  0
   41.0930   26.5700   34.5610 C   0  0  0  0  0  0  0  0  0  0  0  0
   41.8250   27.3970   33.8200 C   0  0  0  0  0  0  0  0  0  0  0  0
   41.2770   27.3910   32.6360 N   0  0  0  0  0  0  0  0  0  0  0  0
   40.2000   26.5960   32.5200 C   0  0  0  0  0  0  0  0  0  0  0  0
   39.6750   26.6020   31.1340 C   0  0  0  0  0  0  0  0  0  0  0  0
   40.7520   27.2270   30.1380 C   0  0  0  0  0  0  0  0  0  0  0  0
   39.5770   25.2500   30.4860 C   0  0  0  0  0  0  0  0  0  0  0  0
   38.5670   27.5360   30.8200 C   0  0  0  0  0  0  0  0  0  0  0  0
   37.1667   27.4125   33.0992 H   0  0  0  0  0  0  0  0  0  0  0  0
   36.2484   26.5230   34.4589 H   0  0  0  0  0  0  0  0  0  0  0  0
   38.7014   28.1145   34.5263 H   0  0  0  0  0  0  0  0  0  0  0  0
   37.1716   28.1360   35.5300 H   0  0  0  0  0  0  0  0  0  0  0  0
   39.5639   27.0562   36.2801 H   0  0  0  0  0  0  0  0  0  0  0  0
   37.9002   26.6551   36.9358 H   0  0  0  0  0  0  0  0  0  0  0  0
   39.5718   24.7603   36.1954 H   0  0  0  0  0  0  0  0  0  0  0  0
   37.8320   24.6252   35.9012 H   0  0  0  0  0  0  0  0  0  0  0  0
   39.3879   24.2974   33.6982 H   0  0  0  0  0  0  0  0  0  0  0  0
   35.7896   26.1670   31.7907 H   0  0  0  0  0  0  0  0  0  0  0  0
   38.0380   22.9138   33.4459 H   0  0  0  0  0  0  0  0  0  0  0  0
   35.1809   22.2532   30.3659 H   0  0  0  0  0  0  0  0  0  0  0  0
   41.2622   26.3223   35.6193 H   0  0  0  0  0  0  0  0  0  0  0  0
   42.7094   27.9679   34.1393 H   0  0  0  0  0  0  0  0  0  0  0  0
   41.5599   27.6959   30.7189 H   0  0  0  0  0  0  0  0  0  0  0  0
   41.1703   26.4313   29.5040 H   0  0  0  0  0  0  0  0  0  0  0  0
   40.2687   27.9850   29.5040 H   0  0  0  0  0  0  0  0  0  0  0  0
   39.5207   24.4739   31.2635 H   0  0  0  0  0  0  0  0  0  0  0  0
   38.6735   25.2080   29.8600 H   0  0  0  0  0  0  0  0  0  0  0  0
   40.4650   25.0782   29.8600 H   0  0  0  0  0  0  0  0  0  0  0  0
   38.1251   27.9085   31.7559 H   0  0  0  0  0  0  0  0  0  0  0  0
   38.9558   28.3829   30.2356 H   0  0  0  0  0  0  0  0  0  0  0  0
   37.7981   27.0095   30.2356 H   0  0  0  0  0  0  0  0  0  0  0  0
  1  2  1  0
  1  6  1  0
  2  3  1  0
  3  4  1  0
  5  4  1  0
  6  5  1  0
  7  8  2  0
  8  9  1  0
  8  1  1  0
 10  9  2  0
 11 10  1  0
 12 11  2  0
 12  7  1  0
 13  6  1  0
 13 14  1  0
 15 14  2  0
 16 15  1  0
 17 16  2  0
 17 13  1  0
 18 17  1  0
 19 18  1  0
 20 18  1  0
 21 18  1  0
  2 22  1  0
  2 23  1  0
  3 24  1  0
  3 25  1  0
  4 26  1  0
  4 27  1  0
  5 28  1  0
  5 29  1  0
  6 30  1  6
  7 31  1  0
  9 32  1  0
 11 33  1  0
 14 34  1  0
 15 35  1  0
 19 36  1  0
 19 37  1  0
 19 38  1  0
 20 39  1  0
 20 40  1  0
 20 41  1  0
 21 42  1  0
 21 43  1  0
 21 44  1  0
M  ISO  8  22  13  23  13  24  13  25  13  26  13  27  13  28  13  29  13
M  ISO  8  30  13  31  14  32  14  33  14  34  14  35  14  36   8  37   8
M  ISO  7  38   8  39   8  40   8  41   8  42   8  43   8  44   8
M  END
>  <minimizedAffinity>  (1) 
-4.36156082

>  <minimizedRMSD>  (1) 
0.31297183

$$$$
