
     RDKit          3D

 35 37  0  0  1  0  0  0  0  0999 V2000
   37.7280   25.5020   33.5790 N   0  0  0  0  0  0  0  0  0  0  0  0
   37.1860   26.7880   33.9460 C   0  0  0  0  0  0  0  0  0  0  0  0
   37.8770   27.5260   35.0010 C   0  0  0  0  0  0  0  0  0  0  0  0
   38.5220   26.6710   36.0600 C   0  0  0  0  0  0  0  0  0  0  0  0
   38.6910   25.2340   35.6760 C   0  0  0  0  0  0  0  0  0  0  0  0
   38.9790   25.2490   34.1540 C   0  0  2  0  0  0  0  0  0  0  0  0
   36.0510   25.0730   31.8100 C   0  0  0  0  0  0  0  0  0  0  0  0
   37.0130   24.6330   32.7300 C   0  0  0  0  0  0  0  0  0  0  0  0
   37.2860   23.2910   32.7690 C   0  0  0  0  0  0  0  0  0  0  0  0
   36.6360   22.4410   31.9370 N   0  0  0  0  0  0  0  0  0  0  0  0
   35.7050   22.9090   31.0510 C   0  0  0  0  0  0  0  0  0  0  0  0
   35.4220   24.2390   30.9990 N   0  0  0  0  0  0  0  0  0  0  0  0
   40.0660   26.1130   33.7860 N   0  0  0  0  0  0  0  0  0  0  0  0
   41.0890   26.5700   34.5580 C   0  0  0  0  0  0  0  0  0  0  0  0
   41.8300   27.3810   33.7880 C   0  0  0  0  0  0  0  0  0  0  0  0
   41.2640   27.3990   32.6040 N   0  0  0  0  0  0  0  0  0  0  0  0
   40.1630   26.6210   32.5530 C   0  0  0  0  0  0  0  0  0  0  0  0
   39.5650   26.6230   31.1970 C   0  0  0  0  0  0  0  0  0  0  0  0
   39.4520   25.3600   30.6320 F   0  0  0  0  0  0  0  0  0  0  0  0
   40.4440   27.1930   30.2140 F   0  0  0  0  0  0  0  0  0  0  0  0
   38.4930   27.4380   31.0290 F   0  0  0  0  0  0  0  0  0  0  0  0
   37.1891   27.4182   33.0444 H   0  0  0  0  0  0  0  0  0  0  0  0
   36.1897   26.5694   34.3579 H   0  0  0  0  0  0  0  0  0  0  0  0
   38.6618   28.1373   34.5316 H   0  0  0  0  0  0  0  0  0  0  0  0
   37.1071   28.1211   35.5140 H   0  0  0  0  0  0  0  0  0  0  0  0
   39.5160   27.0875   36.2802 H   0  0  0  0  0  0  0  0  0  0  0  0
   37.8484   26.6866   36.9295 H   0  0  0  0  0  0  0  0  0  0  0  0
   39.5333   24.7854   36.2231 H   0  0  0  0  0  0  0  0  0  0  0  0
   37.7997   24.6369   35.9189 H   0  0  0  0  0  0  0  0  0  0  0  0
   39.3759   24.2993   33.7660 H   0  0  0  0  0  0  0  0  0  0  0  0
   35.8119   26.1456   31.7612 H   0  0  0  0  0  0  0  0  0  0  0  0
   38.0336   22.9028   33.4764 H   0  0  0  0  0  0  0  0  0  0  0  0
   35.1846   22.2097   30.3800 H   0  0  0  0  0  0  0  0  0  0  0  0
   41.2735   26.3215   35.6136 H   0  0  0  0  0  0  0  0  0  0  0  0
   42.7366   27.9256   34.0905 H   0  0  0  0  0  0  0  0  0  0  0  0
  1  2  1  0
  1  6  1  0
  2  3  1  0
  3  4  1  0
  5  4  1  0
  6  5  1  0
  7  8  2  0
  8  9  1  0
  8  1  1  0
 10  9  2  0
 11 10  1  0
 12 11  2  0
 12  7  1  0
 13  6  1  0
 13 14  1  0
 15 14  2  0
 16 15  1  0
 17 16  2  0
 17 13  1  0
 18 17  1  0
 19 18  1  0
 20 18  1  0
 21 18  1  0
  2 22  1  0
  2 23  1  0
  3 24  1  0
  3 25  1  0
  4 26  1  0
  4 27  1  0
  5 28  1  0
  5 29  1  0
  6 30  1  6
  7 31  1  0
  9 32  1  0
 11 33  1  0
 14 34  1  0
 15 35  1  0
M  ISO  8  22  13  23  13  24  13  25  13  26  13  27  13  28  13  29  13
M  ISO  6  30  13  31  14  32  14  33  14  34  14  35  14
M  END
>  <minimizedAffinity>  (1) 
-4.31935501

>  <minimizedRMSD>  (1) 
0.38108933

$$$$
