
     RDKit          3D

 35 37  0  0  1  0  0  0  0  0999 V2000
   37.7890   25.3310   33.3960 N   0  0  0  0  0  0  0  0  0  0  0  0
   37.1450   26.6050   33.7120 C   0  0  0  0  0  0  0  0  0  0  0  0
   37.8300   27.4540   34.6840 C   0  0  0  0  0  0  0  0  0  0  0  0
   38.6540   26.7580   35.7320 C   0  0  0  0  0  0  0  0  0  0  0  0
   38.9400   25.3300   35.4270 C   0  0  0  0  0  0  0  0  0  0  0  0
   39.0970   25.2540   33.8920 C   0  0  2  0  0  0  0  0  0  0  0  0
   36.1210   24.6170   31.7190 C   0  0  0  0  0  0  0  0  0  0  0  0
   37.0960   24.3580   32.6670 C   0  0  0  0  0  0  0  0  0  0  0  0
   37.3950   23.0400   32.8820 C   0  0  0  0  0  0  0  0  0  0  0  0
   36.7670   22.0520   32.2000 N   0  0  0  0  0  0  0  0  0  0  0  0
   35.8120   22.3730   31.2750 C   0  0  0  0  0  0  0  0  0  0  0  0
   35.4990   23.6640   31.0450 N   0  0  0  0  0  0  0  0  0  0  0  0
   40.0640   26.1780   33.3940 N   0  0  0  0  0  0  0  0  0  0  0  0
   41.0300   26.8780   33.9830 C   0  0  0  0  0  0  0  0  0  0  0  0
   41.6650   27.6310   33.0620 C   0  0  0  0  0  0  0  0  0  0  0  0
   41.0870   27.3900   31.9100 N   0  0  0  0  0  0  0  0  0  0  0  0
   40.0980   26.4940   32.1020 C   0  0  0  0  0  0  0  0  0  0  0  0
   39.4680   26.1770   30.8480 C   0  0  0  0  0  0  0  0  0  0  0  0
   39.5070   25.1250   30.1170 O   0  0  0  0  0  0  0  0  0  0  0  0
   38.7040   26.3570   29.7620 O   0  0  0  0  0  0  0  0  0  0  0  0
   37.0526   27.1750   32.7757 H   0  0  0  0  0  0  0  0  0  0  0  0
   36.1852   26.3400   34.1795 H   0  0  0  0  0  0  0  0  0  0  0  0
   38.4996   28.1250   34.1260 H   0  0  0  0  0  0  0  0  0  0  0  0
   37.0270   27.9606   35.2394 H   0  0  0  0  0  0  0  0  0  0  0  0
   39.6121   27.2898   35.8283 H   0  0  0  0  0  0  0  0  0  0  0  0
   38.0659   26.7734   36.6614 H   0  0  0  0  0  0  0  0  0  0  0  0
   39.8678   25.0100   35.9238 H   0  0  0  0  0  0  0  0  0  0  0  0
   38.1373   24.6693   35.7863 H   0  0  0  0  0  0  0  0  0  0  0  0
   39.5433   24.3163   33.5294 H   0  0  0  0  0  0  0  0  0  0  0  0
   35.8510   25.6640   31.5169 H   0  0  0  0  0  0  0  0  0  0  0  0
   38.1622   22.7769   33.6250 H   0  0  0  0  0  0  0  0  0  0  0  0
   35.2982   21.5760   30.7175 H   0  0  0  0  0  0  0  0  0  0  0  0
   41.2731   26.8473   35.0554 H   0  0  0  0  0  0  0  0  0  0  0  0
   42.5065   28.3160   33.2425 H   0  0  0  0  0  0  0  0  0  0  0  0
   38.6276   25.6380   29.0858 H   0  0  0  0  0  0  0  0  0  0  0  0
  1  2  1  0
  1  6  1  0
  2  3  1  0
  3  4  1  0
  5  4  1  0
  6  5  1  0
  7  8  2  0
  8  9  1  0
  8  1  1  0
 10  9  2  0
 11 10  1  0
 12 11  2  0
 12  7  1  0
 13  6  1  0
 13 14  1  0
 15 14  2  0
 16 17  2  0
 16 15  1  0
 17 13  1  0
 18 17  1  0
 19 18  2  0
 20 18  1  0
  2 21  1  0
  2 22  1  0
  3 23  1  0
  3 24  1  0
  4 25  1  0
  4 26  1  0
  5 27  1  0
  5 28  1  0
  6 29  1  1
  7 30  1  0
  9 31  1  0
 11 32  1  0
 14 33  1  0
 15 34  1  0
 20 35  1  0
M  ISO  8  21  13  22  13  23  13  24  13  25  13  26  13  27  13  28  13
M  ISO  7  29  13  30  14  31  14  32  14  33  14  34  14  35   3
M  END
>  <minimizedAffinity>  (1) 
-4.2339716

>  <minimizedRMSD>  (1) 
0.701298833

$$$$
