
     RDKit          3D

 35 37  0  0  1  0  0  0  0  0999 V2000
   37.7220   25.4960   33.5590 N   0  0  0  0  0  0  0  0  0  0  0  0
   37.1910   26.8150   33.8710 C   0  0  0  0  0  0  0  0  0  0  0  0
   37.8540   27.5650   34.9310 C   0  0  0  0  0  0  0  0  0  0  0  0
   38.4750   26.7430   36.0270 C   0  0  0  0  0  0  0  0  0  0  0  0
   38.6310   25.2930   35.6970 C   0  0  0  0  0  0  0  0  0  0  0  0
   38.9480   25.2550   34.1880 C   0  0  2  0  0  0  0  0  0  0  0  0
   36.0420   25.0490   31.8020 C   0  0  0  0  0  0  0  0  0  0  0  0
   37.0160   24.6210   32.7100 C   0  0  0  0  0  0  0  0  0  0  0  0
   37.3070   23.2860   32.7660 C   0  0  0  0  0  0  0  0  0  0  0  0
   36.6570   22.4160   31.9510 N   0  0  0  0  0  0  0  0  0  0  0  0
   35.7080   22.8640   31.0720 C   0  0  0  0  0  0  0  0  0  0  0  0
   35.4070   24.1890   31.0050 N   0  0  0  0  0  0  0  0  0  0  0  0
   40.0560   26.1000   33.8140 N   0  0  0  0  0  0  0  0  0  0  0  0
   41.0380   26.6210   34.5940 C   0  0  0  0  0  0  0  0  0  0  0  0
   41.8370   27.3500   33.7830 C   0  0  0  0  0  0  0  0  0  0  0  0
   41.3470   27.2640   32.5670 N   0  0  0  0  0  0  0  0  0  0  0  0
   40.2390   26.4920   32.5510 C   0  0  0  0  0  0  0  0  0  0  0  0
   39.6300   26.3220   31.2070 C   0  0  0  0  0  0  0  0  0  0  0  0
   37.2456   27.4195   32.9536 H   0  0  0  0  0  0  0  0  0  0  0  0
   36.1739   26.6303   34.2470 H   0  0  0  0  0  0  0  0  0  0  0  0
   38.6498   28.1685   34.4700 H   0  0  0  0  0  0  0  0  0  0  0  0
   37.0643   28.1586   35.4147 H   0  0  0  0  0  0  0  0  0  0  0  0
   39.4712   27.1557   36.2446 H   0  0  0  0  0  0  0  0  0  0  0  0
   37.7916   26.7981   36.8872 H   0  0  0  0  0  0  0  0  0  0  0  0
   39.4558   24.8520   36.2759 H   0  0  0  0  0  0  0  0  0  0  0  0
   37.7276   24.7154   35.9426 H   0  0  0  0  0  0  0  0  0  0  0  0
   39.3382   24.2825   33.8532 H   0  0  0  0  0  0  0  0  0  0  0  0
   35.7942   26.1192   31.7441 H   0  0  0  0  0  0  0  0  0  0  0  0
   38.0670   22.9173   33.4706 H   0  0  0  0  0  0  0  0  0  0  0  0
   35.1869   22.1499   30.4174 H   0  0  0  0  0  0  0  0  0  0  0  0
   41.1599   26.4774   35.6778 H   0  0  0  0  0  0  0  0  0  0  0  0
   42.7329   27.9120   34.0856 H   0  0  0  0  0  0  0  0  0  0  0  0
   38.5758   26.0277   31.3167 H   0  0  0  0  0  0  0  0  0  0  0  0
   39.6901   27.2713   30.6545 H   0  0  0  0  0  0  0  0  0  0  0  0
   40.1731   25.5411   30.6545 H   0  0  0  0  0  0  0  0  0  0  0  0
  1  2  1  0
  1  6  1  0
  2  3  1  0
  3  4  1  0
  5  4  1  0
  6  5  1  0
  7  8  2  0
  8  9  1  0
  8  1  1  0
 10  9  2  0
 11 10  1  0
 12 11  2  0
 12  7  1  0
 13  6  1  0
 13 14  1  0
 15 14  2  0
 16 15  1  0
 17 16  2  0
 17 13  1  0
 18 17  1  0
  2 19  1  0
  2 20  1  0
  3 21  1  0
  3 22  1  0
  4 23  1  0
  4 24  1  0
  5 25  1  0
  5 26  1  0
  6 27  1  6
  7 28  1  0
  9 29  1  0
 11 30  1  0
 14 31  1  0
 15 32  1  0
 18 33  1  0
 18 34  1  0
 18 35  1  0
M  ISO  8  19  13  20  13  21  13  22  13  23  13  24  13  25  13  26  13
M  ISO  8  27  13  28  14  29  14  30  14  31  14  32  14  33   8  34   8
M  ISO  1  35   8
M  END
>  <minimizedAffinity>  (1) 
-4.12988663

>  <minimizedRMSD>  (1) 
0.170478642

$$$$
