
     RDKit          3D

 34 36  0  0  1  0  0  0  0  0999 V2000
   37.7450   25.4450   33.5440 N   0  0  0  0  0  0  0  0  0  0  0  0
   37.2110   26.7650   33.7910 C   0  0  0  0  0  0  0  0  0  0  0  0
   37.8640   27.5500   34.8460 C   0  0  0  0  0  0  0  0  0  0  0  0
   38.4530   26.7690   35.9790 C   0  0  0  0  0  0  0  0  0  0  0  0
   38.6130   25.3090   35.7080 C   0  0  0  0  0  0  0  0  0  0  0  0
   38.9520   25.2100   34.2120 C   0  0  2  0  0  0  0  0  0  0  0  0
   40.0730   26.0230   33.8450 N   0  0  0  0  0  0  0  0  0  0  0  0
   40.9850   26.6580   34.5870 C   0  0  0  0  0  0  0  0  0  0  0  0
   41.8460   27.2960   33.7540 C   0  0  0  0  0  0  0  0  0  0  0  0
   41.4480   27.0430   32.5030 N   0  0  0  0  0  0  0  0  0  0  0  0
   40.3610   26.2630   32.5530 C   0  0  0  0  0  0  0  0  0  0  0  0
   39.8010   25.8870   31.3040 N   0  0  0  0  0  0  0  0  0  0  0  0
   36.0850   24.9290   31.7720 C   0  0  0  0  0  0  0  0  0  0  0  0
   37.0430   24.5590   32.7030 C   0  0  0  0  0  0  0  0  0  0  0  0
   37.3260   23.2030   32.8100 C   0  0  0  0  0  0  0  0  0  0  0  0
   36.6690   22.3160   32.0150 N   0  0  0  0  0  0  0  0  0  0  0  0
   35.7430   22.7250   31.1210 C   0  0  0  0  0  0  0  0  0  0  0  0
   35.4560   24.0400   31.0070 N   0  0  0  0  0  0  0  0  0  0  0  0
   37.2865   27.3365   32.8542 H   0  0  0  0  0  0  0  0  0  0  0  0
   36.1826   26.6009   34.1451 H   0  0  0  0  0  0  0  0  0  0  0  0
   38.6745   28.1300   34.3805 H   0  0  0  0  0  0  0  0  0  0  0  0
   37.0683   28.1642   35.2927 H   0  0  0  0  0  0  0  0  0  0  0  0
   39.4449   27.1871   36.2054 H   0  0  0  0  0  0  0  0  0  0  0  0
   37.7477   26.8558   36.8186 H   0  0  0  0  0  0  0  0  0  0  0  0
   39.4285   24.8911   36.3165 H   0  0  0  0  0  0  0  0  0  0  0  0
   37.7048   24.7425   35.9615 H   0  0  0  0  0  0  0  0  0  0  0  0
   39.3245   24.2186   33.9149 H   0  0  0  0  0  0  0  0  0  0  0  0
   41.0303   26.6629   35.6861 H   0  0  0  0  0  0  0  0  0  0  0  0
   42.7103   27.9074   34.0526 H   0  0  0  0  0  0  0  0  0  0  0  0
   38.9638   25.2877   31.2745 H   0  0  0  0  0  0  0  0  0  0  0  0
   40.2318   26.2135   30.4272 H   0  0  0  0  0  0  0  0  0  0  0  0
   35.8359   25.9947   31.6616 H   0  0  0  0  0  0  0  0  0  0  0  0
   38.0761   22.8491   33.5326 H   0  0  0  0  0  0  0  0  0  0  0  0
   35.2244   21.9899   30.4880 H   0  0  0  0  0  0  0  0  0  0  0  0
  1  2  1  0
  1  6  1  0
  2  3  1  0
  3  4  1  0
  5  4  1  0
  6  5  1  0
  7  6  1  0
  7  8  1  0
  9  8  2  0
 10 11  2  0
 10  9  1  0
 11  7  1  0
 12 11  1  0
 13 14  2  0
 14 15  1  0
 14  1  1  0
 16 15  2  0
 17 16  1  0
 18 17  2  0
 18 13  1  0
  2 19  1  0
  2 20  1  0
  3 21  1  0
  3 22  1  0
  4 23  1  0
  4 24  1  0
  5 25  1  0
  5 26  1  0
  6 27  1  1
  8 28  1  0
  9 29  1  0
 12 30  1  0
 12 31  1  0
 13 32  1  0
 15 33  1  0
 17 34  1  0
M  ISO  8  19  13  20  13  21  13  22  13  23  13  24  13  25  13  26  13
M  ISO  6  27  13  28  14  29  14  32  14  33  14  34  14
M  END
>  <minimizedAffinity>  (1) 
-4.08256769

>  <minimizedRMSD>  (1) 
0.318894565

$$$$
