
     RDKit          3D

 23 24  0  0  0  0  0  0  0  0999 V2000
   39.6840   22.8690   37.5690 C   0  0  0  0  0  0  0  0  0  0  0  0
   38.8380   23.2280   38.6470 C   0  0  0  0  0  0  0  0  0  0  0  0
   37.9480   24.2870   38.4610 C   0  0  0  0  0  0  0  0  0  0  0  0
   37.9410   24.9120   37.2570 N   0  0  0  0  0  0  0  0  0  0  0  0
   38.7610   24.5490   36.2440 C   0  0  0  0  0  0  0  0  0  0  0  0
   39.6270   23.5270   36.4090 N   0  0  0  0  0  0  0  0  0  0  0  0
   38.7190   25.2710   34.9310 C   0  0  0  0  0  0  0  0  0  0  0  0
   37.5100   26.1280   34.7830 C   0  0  0  0  0  0  0  0  0  0  0  0
   37.9250   27.2010   33.8060 C   0  0  0  0  0  0  0  0  0  0  0  0
   39.4120   27.0710   33.6090 C   0  0  0  0  0  0  0  0  0  0  0  0
   39.8520   26.2580   34.8140 C   0  0  0  0  0  0  0  0  0  0  0  0
   40.3957   22.0389   37.6891 H   0  0  0  0  0  0  0  0  0  0  0  0
   38.8813   22.6873   39.6039 H   0  0  0  0  0  0  0  0  0  0  0  0
   37.2715   24.6057   39.2677 H   0  0  0  0  0  0  0  0  0  0  0  0
   38.7534   24.4673   34.1807 H   0  0  0  0  0  0  0  0  0  0  0  0
   36.6664   25.5449   34.3850 H   0  0  0  0  0  0  0  0  0  0  0  0
   37.1723   26.5446   35.7434 H   0  0  0  0  0  0  0  0  0  0  0  0
   37.4039   27.0603   32.8475 H   0  0  0  0  0  0  0  0  0  0  0  0
   37.6671   28.1994   34.1890 H   0  0  0  0  0  0  0  0  0  0  0  0
   39.6410   26.5427   32.6718 H   0  0  0  0  0  0  0  0  0  0  0  0
   39.9236   28.0418   33.5335 H   0  0  0  0  0  0  0  0  0  0  0  0
   40.8107   25.7511   34.6300 H   0  0  0  0  0  0  0  0  0  0  0  0
   40.0266   26.8545   35.7216 H   0  0  0  0  0  0  0  0  0  0  0  0
  1  2  2  0
  3  2  1  0
  4  3  2  0
  5  6  2  0
  5  4  1  0
  6  1  1  0
  7  5  1  0
  8  7  1  0
  9  8  1  0
 10  9  1  0
 10 11  1  0
 11  7  1  0
  1 12  1  0
  2 13  1  0
  3 14  1  0
  7 15  1  0
  8 16  1  0
  8 17  1  0
  9 18  1  0
  9 19  1  0
 10 20  1  0
 10 21  1  0
 11 22  1  0
 11 23  1  0
M  ISO  8  12  14  13  14  14  14  15  13  16  13  17  13  18  13  19  13
M  ISO  4  20  13  21  13  22  13  23  13
M  END
>  <minimizedAffinity>  (1) 
-3.67945838

>  <minimizedRMSD>  (1) 
3.40862918

$$$$
