
     RDKit          3D

 37 40  0  0  1  0  0  0  0  0999 V2000
   39.1260   26.0400   34.5560 C   0  0  1  0  0  0  0  0  0  0  0  0
   40.3540   26.8230   34.7530 C   0  0  0  0  0  0  0  0  0  0  0  0
   40.7430   27.2840   33.3610 C   0  0  0  0  0  0  0  0  0  0  0  0
   39.8410   26.5770   32.3950 C   0  0  0  0  0  0  0  0  0  0  0  0
   39.3030   25.3940   33.1920 C   0  0  2  0  0  0  0  0  0  0  0  0
   37.9800   24.9980   32.6390 C   0  0  0  0  0  0  0  0  0  0  0  0
   36.8810   25.7140   32.2250 C   0  0  0  0  0  0  0  0  0  0  0  0
   35.9170   24.8770   31.7990 N   0  0  0  0  0  0  0  0  0  0  0  0
   36.3410   23.6170   31.9150 C   0  0  0  0  0  0  0  0  0  0  0  0
   35.6720   22.4500   31.5940 C   0  0  0  0  0  0  0  0  0  0  0  0
   36.3130   21.2410   31.8000 C   0  0  0  0  0  0  0  0  0  0  0  0
   37.5930   21.2530   32.3170 C   0  0  0  0  0  0  0  0  0  0  0  0
   38.2200   22.4450   32.6230 C   0  0  0  0  0  0  0  0  0  0  0  0
   37.6360   23.6570   32.4410 C   0  0  0  0  0  0  0  0  0  0  0  0
   37.6080   24.1690   37.3450 C   0  0  0  0  0  0  0  0  0  0  0  0
   38.5000   23.0640   37.5070 C   0  0  0  0  0  0  0  0  0  0  0  0
   39.6210   22.9740   36.6570 C   0  0  0  0  0  0  0  0  0  0  0  0
   39.7820   23.9560   35.7280 N   0  0  0  0  0  0  0  0  0  0  0  0
   38.9050   24.9940   35.6080 C   0  0  0  0  0  0  0  0  0  0  0  0
   37.8290   25.0880   36.4170 N   0  0  0  0  0  0  0  0  0  0  0  0
   38.2405   26.6890   34.6244 H   0  0  0  0  0  0  0  0  0  0  0  0
   40.1633   27.6856   35.4084 H   0  0  0  0  0  0  0  0  0  0  0  0
   41.1496   26.2359   35.2349 H   0  0  0  0  0  0  0  0  0  0  0  0
   40.6109   28.3725   33.2733 H   0  0  0  0  0  0  0  0  0  0  0  0
   41.7981   27.0532   33.1525 H   0  0  0  0  0  0  0  0  0  0  0  0
   40.4038   26.2322   31.5150 H   0  0  0  0  0  0  0  0  0  0  0  0
   39.0415   27.2264   32.0089 H   0  0  0  0  0  0  0  0  0  0  0  0
   39.9328   24.4922   33.1890 H   0  0  0  0  0  0  0  0  0  0  0  0
   36.8015   26.8110   32.2399 H   0  0  0  0  0  0  0  0  0  0  0  0
   34.9955   25.1642   31.4394 H   0  0  0  0  0  0  0  0  0  0  0  0
   34.6519   22.4821   31.1836 H   0  0  0  0  0  0  0  0  0  0  0  0
   35.8137   20.2914   31.5572 H   0  0  0  0  0  0  0  0  0  0  0  0
   38.1196   20.3023   32.4872 H   0  0  0  0  0  0  0  0  0  0  0  0
   39.2400   22.4107   33.0333 H   0  0  0  0  0  0  0  0  0  0  0  0
   36.7277   24.2573   37.9986 H   0  0  0  0  0  0  0  0  0  0  0  0
   38.3159   22.3010   38.2776 H   0  0  0  0  0  0  0  0  0  0  0  0
   40.3372   22.1433   36.7410 H   0  0  0  0  0  0  0  0  0  0  0  0
  1  2  1  0
  1 19  1  0
  3  2  1  0
  4  5  1  0
  4  3  1  0
  5  1  1  0
  6  5  1  0
  7  6  2  0
  8  9  1  0
  8  7  1  0
  9 14  2  0
 10 11  2  0
 10  9  1  0
 11 12  1  0
 12 13  2  0
 14 13  1  0
 14  6  1  0
 15 16  2  0
 17 16  1  0
 18 17  2  0
 19 18  1  0
 19 20  2  0
 20 15  1  0
  1 21  1  6
  2 22  1  0
  2 23  1  0
  3 24  1  0
  3 25  1  0
  4 26  1  0
  4 27  1  0
  5 28  1  1
  7 29  1  0
  8 30  1  0
 10 31  1  0
 11 32  1  0
 12 33  1  0
 13 34  1  0
 15 35  1  0
 16 36  1  0
 17 37  1  0
M  ISO  8  21  13  22  13  23  13  24  13  25  13  26  13  27  13  28  13
M  ISO  8  29  14  30   9  31  14  32  14  33  14  34  14  35  14  36  14
M  ISO  1  37  14
M  END
>  <minimizedAffinity>  (1) 
-5.09197807

>  <minimizedRMSD>  (1) 
5.38291454

$$$$
