
     RDKit          3D

 34 36  0  0  1  0  0  0  0  0999 V2000
   38.6290   26.0590   34.8150 C   0  0  1  0  0  0  0  0  0  0  0  0
   38.3340   27.0350   35.8760 C   0  0  0  0  0  0  0  0  0  0  0  0
   37.3480   28.0040   35.2410 C   0  0  0  0  0  0  0  0  0  0  0  0
   37.2530   27.6320   33.7740 C   0  0  0  0  0  0  0  0  0  0  0  0
   38.5550   26.8990   33.5440 C   0  0  2  0  0  0  0  0  0  0  0  0
   38.6410   26.1640   32.3400 N   0  0  0  0  0  0  0  0  0  0  0  0
   39.6590   26.4440   31.4740 C   0  0  0  0  0  0  0  0  0  0  0  0
   39.8670   25.8140   30.2700 C   0  0  0  0  0  0  0  0  0  0  0  0
   38.9400   24.8360   29.9830 C   0  0  0  0  0  0  0  0  0  0  0  0
   39.0570   24.1120   28.7580 N   0  0  0  0  0  0  0  0  0  0  0  0
   37.9100   24.5140   30.8040 N   0  0  0  0  0  0  0  0  0  0  0  0
   37.8160   25.2060   31.9550 C   0  0  0  0  0  0  0  0  0  0  0  0
   36.8590   24.8880   32.6900 O   0  0  0  0  0  0  0  0  0  0  0  0
   41.2520   23.5130   35.2980 C   0  0  0  0  0  0  0  0  0  0  0  0
   42.4500   24.2780   35.1490 C   0  0  0  0  0  0  0  0  0  0  0  0
   42.3610   25.6600   34.8920 C   0  0  0  0  0  0  0  0  0  0  0  0
   41.1090   26.1890   34.7970 N   0  0  0  0  0  0  0  0  0  0  0  0
   39.9880   25.4260   34.9450 C   0  0  0  0  0  0  0  0  0  0  0  0
   40.0710   24.1020   35.1920 N   0  0  0  0  0  0  0  0  0  0  0  0
   37.9294   25.2106   34.8427 H   0  0  0  0  0  0  0  0  0  0  0  0
   37.8833   26.5374   36.7473 H   0  0  0  0  0  0  0  0  0  0  0  0
   39.2398   27.5407   36.2419 H   0  0  0  0  0  0  0  0  0  0  0  0
   36.3624   27.9100   35.7203 H   0  0  0  0  0  0  0  0  0  0  0  0
   37.6820   29.0448   35.3639 H   0  0  0  0  0  0  0  0  0  0  0  0
   36.3888   26.9787   33.5836 H   0  0  0  0  0  0  0  0  0  0  0  0
   37.1097   28.4959   33.1083 H   0  0  0  0  0  0  0  0  0  0  0  0
   39.4143   27.5686   33.3915 H   0  0  0  0  0  0  0  0  0  0  0  0
   40.3673   27.2348   31.7621 H   0  0  0  0  0  0  0  0  0  0  0  0
   40.6987   26.0679   29.5964 H   0  0  0  0  0  0  0  0  0  0  0  0
   38.3732   23.3773   28.5266 H   0  0  0  0  0  0  0  0  0  0  0  0
   39.8253   24.3244   28.1056 H   0  0  0  0  0  0  0  0  0  0  0  0
   41.3112   22.4335   35.5010 H   0  0  0  0  0  0  0  0  0  0  0  0
   43.4330   23.7917   35.2343 H   0  0  0  0  0  0  0  0  0  0  0  0
   43.2599   26.2828   34.7736 H   0  0  0  0  0  0  0  0  0  0  0  0
  1 18  1  0
  1  2  1  0
  3  2  1  0
  4  3  1  0
  5  4  1  0
  5  1  1  0
  6  5  1  0
  7  6  1  0
  8  7  2  0
  9  8  1  0
  9 11  2  0
 10  9  1  0
 11 12  1  0
 12  6  1  0
 12 13  2  0
 15 14  2  0
 16 15  1  0
 17 16  2  0
 17 18  1  0
 18 19  2  0
 19 14  1  0
  1 20  1  6
  2 21  1  0
  2 22  1  0
  3 23  1  0
  3 24  1  0
  4 25  1  0
  4 26  1  0
  5 27  1  1
  7 28  1  0
  8 29  1  0
 10 30  1  0
 10 31  1  0
 14 32  1  0
 15 33  1  0
 16 34  1  0
M  ISO  8  20  13  21  13  22  13  23  13  24  13  25  13  26  13  27  13
M  ISO  5  28  14  29  14  32  14  33  14  34  14
M  END
>  <minimizedAffinity>  (1) 
-4.28611279

>  <minimizedRMSD>  (1) 
4.55103922

$$$$
