
     RDKit          3D

 36 38  0  0  1  0  0  0  0  0999 V2000
   38.6440   25.2530   34.7880 C   0  0  1  0  0  0  0  0  0  0  0  0
   37.3690   25.9360   34.5280 C   0  0  0  0  0  0  0  0  0  0  0  0
   37.7220   27.0970   33.6130 C   0  0  0  0  0  0  0  0  0  0  0  0
   39.2320   27.1330   33.5110 C   0  0  0  0  0  0  0  0  0  0  0  0
   39.6790   26.3660   34.7320 C   0  0  2  0  0  0  0  0  0  0  0  0
   39.5270   22.8340   37.4240 C   0  0  0  0  0  0  0  0  0  0  0  0
   38.8090   23.3180   38.5640 C   0  0  0  0  0  0  0  0  0  0  0  0
   38.0230   24.4770   38.4060 C   0  0  0  0  0  0  0  0  0  0  0  0
   37.9970   25.0610   37.1750 N   0  0  0  0  0  0  0  0  0  0  0  0
   38.6980   24.5620   36.1170 C   0  0  0  0  0  0  0  0  0  0  0  0
   39.4550   23.4520   36.2550 N   0  0  0  0  0  0  0  0  0  0  0  0
   41.0680   25.8260   34.6500 C   0  0  0  0  0  0  0  0  0  0  0  0
   41.2960   24.7730   33.6220 C   0  0  0  0  0  0  0  0  0  0  0  0
   42.8290   24.6920   33.5920 C   0  0  0  0  0  0  0  0  0  0  0  0
   43.2370   26.1530   33.6910 C   0  0  0  0  0  0  0  0  0  0  0  0
   42.0420   26.9050   34.2410 C   0  0  0  0  0  0  0  0  0  0  0  0
   38.8088   24.4506   34.0539 H   0  0  0  0  0  0  0  0  0  0  0  0
   36.6603   25.2557   34.0331 H   0  0  0  0  0  0  0  0  0  0  0  0
   36.8857   26.2747   35.4563 H   0  0  0  0  0  0  0  0  0  0  0  0
   37.2792   26.9426   32.6180 H   0  0  0  0  0  0  0  0  0  0  0  0
   37.3315   28.0451   34.0113 H   0  0  0  0  0  0  0  0  0  0  0  0
   39.5768   26.6422   32.5889 H   0  0  0  0  0  0  0  0  0  0  0  0
   39.6373   28.1548   33.4714 H   0  0  0  0  0  0  0  0  0  0  0  0
   39.7289   27.0010   35.6288 H   0  0  0  0  0  0  0  0  0  0  0  0
   40.1498   21.9325   37.5208 H   0  0  0  0  0  0  0  0  0  0  0  0
   38.8689   22.8013   39.5332 H   0  0  0  0  0  0  0  0  0  0  0  0
   37.4505   24.8956   39.2469 H   0  0  0  0  0  0  0  0  0  0  0  0
   41.2156   25.4147   35.6595 H   0  0  0  0  0  0  0  0  0  0  0  0
   40.8499   23.8142   33.9247 H   0  0  0  0  0  0  0  0  0  0  0  0
   40.8420   24.9973   32.6455 H   0  0  0  0  0  0  0  0  0  0  0  0
   43.2134   24.1132   34.4448 H   0  0  0  0  0  0  0  0  0  0  0  0
   43.2242   24.1856   32.6990 H   0  0  0  0  0  0  0  0  0  0  0  0
   44.0969   26.2610   34.3684 H   0  0  0  0  0  0  0  0  0  0  0  0
   43.5332   26.5475   32.7079 H   0  0  0  0  0  0  0  0  0  0  0  0
   42.3329   27.5148   35.1090 H   0  0  0  0  0  0  0  0  0  0  0  0
   41.6107   27.5988   33.5044 H   0  0  0  0  0  0  0  0  0  0  0  0
  1 10  1  0
  2  1  1  0
  3  2  1  0
  4  3  1  0
  4  5  1  0
  5  1  1  0
  6  7  2  0
  8  7  1  0
  9  8  2  0
 10 11  2  0
 10  9  1  0
 11  6  1  0
 12  5  1  0
 13 12  1  0
 14 13  1  0
 14 15  1  0
 15 16  1  0
 16 12  1  0
  1 17  1  6
  2 18  1  0
  2 19  1  0
  3 20  1  0
  3 21  1  0
  4 22  1  0
  4 23  1  0
  5 24  1  1
  6 25  1  0
  7 26  1  0
  8 27  1  0
 12 28  1  0
 13 29  1  0
 13 30  1  0
 14 31  1  0
 14 32  1  0
 15 33  1  0
 15 34  1  0
 16 35  1  0
 16 36  1  0
M  ISO  8  17  13  18  13  19  13  20  13  21  13  22  13  23  13  24  13
M  ISO  8  25  14  26  14  27  14  28  13  29  13  30  13  31  13  32  13
M  ISO  4  33  13  34  13  35  13  36  13
M  END
>  <minimizedAffinity>  (1) 
-4.16603041

>  <minimizedRMSD>  (1) 
0.26974231

$$$$
