
     RDKit          3D

 29 31  0  0  1  0  0  0  0  0999 V2000
   38.9610   25.1320   34.5720 C   0  0  1  0  0  0  0  0  0  0  0  0
   37.6430   25.3840   33.9790 C   0  0  0  0  0  0  0  0  0  0  0  0
   37.8400   26.5910   33.0830 C   0  0  0  0  0  0  0  0  0  0  0  0
   39.2480   27.0800   33.3070 C   0  0  0  0  0  0  0  0  0  0  0  0
   39.6230   26.4850   34.6580 C   0  0  2  0  0  0  0  0  0  0  0  0
   39.5650   22.7600   37.3290 C   0  0  0  0  0  0  0  0  0  0  0  0
   38.7960   23.3270   38.3950 C   0  0  0  0  0  0  0  0  0  0  0  0
   38.0720   24.5140   38.1650 C   0  0  0  0  0  0  0  0  0  0  0  0
   38.1520   25.0520   36.9190 N   0  0  0  0  0  0  0  0  0  0  0  0
   38.8940   24.4840   35.9290 C   0  0  0  0  0  0  0  0  0  0  0  0
   39.5930   23.3460   36.1420 N   0  0  0  0  0  0  0  0  0  0  0  0
   41.0560   26.2700   34.6080 N   0  0  0  0  0  0  0  0  0  0  0  0
   41.8010   25.2790   35.1500 C   0  0  0  0  0  0  0  0  0  0  0  0
   43.1090   25.4920   34.8380 N   0  0  0  0  0  0  0  0  0  0  0  0
   43.1720   26.6030   34.1120 C   0  0  0  0  0  0  0  0  0  0  0  0
   41.9180   27.0740   33.9740 N   0  0  0  0  0  0  0  0  0  0  0  0
   39.5245   24.4188   33.9524 H   0  0  0  0  0  0  0  0  0  0  0  0
   37.3114   24.5158   33.3906 H   0  0  0  0  0  0  0  0  0  0  0  0
   36.8723   25.5589   34.7442 H   0  0  0  0  0  0  0  0  0  0  0  0
   37.1197   27.3793   33.3471 H   0  0  0  0  0  0  0  0  0  0  0  0
   37.6790   26.3271   32.0273 H   0  0  0  0  0  0  0  0  0  0  0  0
   39.9208   26.7153   32.5168 H   0  0  0  0  0  0  0  0  0  0  0  0
   39.3280   28.1769   33.2860 H   0  0  0  0  0  0  0  0  0  0  0  0
   39.3485   27.0772   35.5434 H   0  0  0  0  0  0  0  0  0  0  0  0
   40.1347   21.8341   37.4966 H   0  0  0  0  0  0  0  0  0  0  0  0
   38.7705   22.8419   39.3820 H   0  0  0  0  0  0  0  0  0  0  0  0
   37.4700   24.9835   38.9570 H   0  0  0  0  0  0  0  0  0  0  0  0
   41.4134   24.4390   35.7451 H   0  0  0  0  0  0  0  0  0  0  0  0
   44.0846   27.0566   33.6980 H   0  0  0  0  0  0  0  0  0  0  0  0
  1  5  1  0
  1 10  1  0
  2  1  1  0
  3  4  1  0
  3  2  1  0
  4  5  1  0
  6  7  2  0
  8  7  1  0
  9  8  2  0
 10 11  2  0
 10  9  1  0
 11  6  1  0
 12  5  1  0
 12 13  1  0
 14 13  2  0
 15 14  1  0
 16 15  2  0
 16 12  1  0
  1 17  1  6
  2 18  1  0
  2 19  1  0
  3 20  1  0
  3 21  1  0
  4 22  1  0
  4 23  1  0
  5 24  1  1
  6 25  1  0
  7 26  1  0
  8 27  1  0
 13 28  1  0
 15 29  1  0
M  ISO  8  17  13  18  13  19  13  20  13  21  13  22  13  23  13  24  13
M  ISO  5  25  14  26  14  27  14  28  14  29  14
M  END
>  <minimizedAffinity>  (1) 
-4.05169964

>  <minimizedRMSD>  (1) 
0.913005888

$$$$
