
     RDKit          3D

 29 30  0  0  1  0  0  0  0  0999 V2000
   38.6830   25.3250   34.6870 C   0  0  1  0  0  0  0  0  0  0  0  0
   37.3340   25.8370   34.3770 C   0  0  0  0  0  0  0  0  0  0  0  0
   37.5810   27.0190   33.4570 C   0  0  0  0  0  0  0  0  0  0  0  0
   39.0870   27.2170   33.4190 C   0  0  0  0  0  0  0  0  0  0  0  0
   39.5230   26.5830   34.7180 C   0  0  2  0  0  0  0  0  0  0  0  0
   39.6420   22.8670   37.2680 C   0  0  0  0  0  0  0  0  0  0  0  0
   38.8680   23.2700   38.3970 C   0  0  0  0  0  0  0  0  0  0  0  0
   38.0220   24.3840   38.2540 C   0  0  0  0  0  0  0  0  0  0  0  0
   37.9840   25.0170   37.0520 N   0  0  0  0  0  0  0  0  0  0  0  0
   38.7430   24.5940   36.0030 C   0  0  0  0  0  0  0  0  0  0  0  0
   39.5730   23.5250   36.0950 N   0  0  0  0  0  0  0  0  0  0  0  0
   40.9740   26.3490   34.8370 C   0  0  0  0  0  0  0  0  0  0  0  0
   41.8530   27.0520   33.8890 C   0  0  0  0  0  0  0  0  0  0  0  0
   39.0255   24.5809   33.9528 H   0  0  0  0  0  0  0  0  0  0  0  0
   36.7328   25.0680   33.8699 H   0  0  0  0  0  0  0  0  0  0  0  0
   36.7746   26.1191   35.2811 H   0  0  0  0  0  0  0  0  0  0  0  0
   37.1988   26.8038   32.4482 H   0  0  0  0  0  0  0  0  0  0  0  0
   37.0662   27.9222   33.8166 H   0  0  0  0  0  0  0  0  0  0  0  0
   39.5352   26.7050   32.5547 H   0  0  0  0  0  0  0  0  0  0  0  0
   39.3924   28.2687   33.3158 H   0  0  0  0  0  0  0  0  0  0  0  0
   39.3678   27.2150   35.6048 H   0  0  0  0  0  0  0  0  0  0  0  0
   40.3108   21.9983   37.3579 H   0  0  0  0  0  0  0  0  0  0  0  0
   38.9313   22.7255   39.3507 H   0  0  0  0  0  0  0  0  0  0  0  0
   37.4057   24.7347   39.0949 H   0  0  0  0  0  0  0  0  0  0  0  0
   41.2747   26.6501   35.8514 H   0  0  0  0  0  0  0  0  0  0  0  0
   41.1069   25.2818   34.6057 H   0  0  0  0  0  0  0  0  0  0  0  0
   42.5938   27.6444   34.4460 H   0  0  0  0  0  0  0  0  0  0  0  0
   42.3721   26.3171   33.2562 H   0  0  0  0  0  0  0  0  0  0  0  0
   41.2502   27.7199   33.2562 H   0  0  0  0  0  0  0  0  0  0  0  0
  1  5  1  0
  1 10  1  0
  2  1  1  0
  3  2  1  0
  4  3  1  0
  4  5  1  0
  5 12  1  0
  6  7  2  0
  8  7  1  0
  9  8  2  0
 10 11  2  0
 10  9  1  0
 11  6  1  0
 13 12  1  0
  1 14  1  6
  2 15  1  0
  2 16  1  0
  3 17  1  0
  3 18  1  0
  4 19  1  0
  4 20  1  0
  5 21  1  1
  6 22  1  0
  7 23  1  0
  8 24  1  0
 12 25  1  0
 12 26  1  0
 13 27  1  0
 13 28  1  0
 13 29  1  0
M  ISO  8  14  13  15  13  16  13  17  13  18  13  19  13  20  13  21  13
M  ISO  8  22  14  23  14  24  14  25   8  26   8  27   8  28   8  29   8
M  END
>  <minimizedAffinity>  (1) 
-4.00579309

>  <minimizedRMSD>  (1) 
0.523746371

$$$$
