
     RDKit          3D

 25 26  0  0  1  0  0  0  0  0999 V2000
   38.7200   25.2500   34.9310 C   0  0  1  0  0  0  0  0  0  0  0  0
   37.5250   26.0950   34.7840 C   0  0  0  0  0  0  0  0  0  0  0  0
   37.9380   27.1920   33.8200 C   0  0  0  0  0  0  0  0  0  0  0  0
   39.4300   27.0630   33.6270 C   0  0  0  0  0  0  0  0  0  0  0  0
   39.8690   26.2520   34.8390 C   0  0  2  0  0  0  0  0  0  0  0  0
   39.7020   22.8710   37.5710 C   0  0  0  0  0  0  0  0  0  0  0  0
   38.8480   23.2280   38.6630 C   0  0  0  0  0  0  0  0  0  0  0  0
   37.9380   24.2870   38.4730 C   0  0  0  0  0  0  0  0  0  0  0  0
   37.9510   24.8830   37.2560 N   0  0  0  0  0  0  0  0  0  0  0  0
   38.7650   24.5260   36.2460 C   0  0  0  0  0  0  0  0  0  0  0  0
   39.6420   23.5120   36.4120 N   0  0  0  0  0  0  0  0  0  0  0  0
   41.0700   25.5350   34.4220 N   0  0  0  0  0  0  0  0  0  0  0  0
   38.7520   24.4552   34.1712 H   0  0  0  0  0  0  0  0  0  0  0  0
   36.6877   25.5127   34.3718 H   0  0  0  0  0  0  0  0  0  0  0  0
   37.1824   26.4987   35.7482 H   0  0  0  0  0  0  0  0  0  0  0  0
   37.4193   27.0662   32.8582 H   0  0  0  0  0  0  0  0  0  0  0  0
   37.6751   28.1845   34.2148 H   0  0  0  0  0  0  0  0  0  0  0  0
   39.6623   26.5321   32.6920 H   0  0  0  0  0  0  0  0  0  0  0  0
   39.9405   28.0343   33.5501 H   0  0  0  0  0  0  0  0  0  0  0  0
   40.0666   26.8101   35.7661 H   0  0  0  0  0  0  0  0  0  0  0  0
   40.4220   22.0488   37.6959 H   0  0  0  0  0  0  0  0  0  0  0  0
   38.9006   22.6916   39.6219 H   0  0  0  0  0  0  0  0  0  0  0  0
   37.2535   24.6126   39.2701 H   0  0  0  0  0  0  0  0  0  0  0  0
   41.5907   25.2241   35.2545 H   0  0  0  0  0  0  0  0  0  0  0  0
   40.8023   24.7154   33.8586 H   0  0  0  0  0  0  0  0  0  0  0  0
  1 10  1  0
  2  1  1  0
  3  2  1  0
  4  3  1  0
  4  5  1  0
  5  1  1  0
  6  7  2  0
  8  7  1  0
  9  8  2  0
 10 11  2  0
 10  9  1  0
 11  6  1  0
 12  5  1  0
  1 13  1  6
  2 14  1  0
  2 15  1  0
  3 16  1  0
  3 17  1  0
  4 18  1  0
  4 19  1  0
  5 20  1  1
  6 21  1  0
  7 22  1  0
  8 23  1  0
 12 24  1  0
 12 25  1  0
M  ISO  8  13  13  14  13  15  13  16  13  17  13  18  13  19  13  20  13
M  ISO  5  21  14  22  14  23  14  24   5  25   5
M  END
>  <minimizedAffinity>  (1) 
-3.75558734

>  <minimizedRMSD>  (1) 
0.0236181542

$$$$
