
     RDKit          3D

 38 40  0  0  1  0  0  0  0  0999 V2000
   38.7970   25.2290   34.9220 C   0  0  1  0  0  0  0  0  0  0  0  0
   37.5820   25.9620   34.6090 C   0  0  0  0  0  0  0  0  0  0  0  0
   38.0120   27.0890   33.6950 C   0  0  0  0  0  0  0  0  0  0  0  0
   39.5180   27.0820   33.6490 C   0  0  0  0  0  0  0  0  0  0  0  0
   39.9240   26.2540   34.8540 C   0  0  2  0  0  0  0  0  0  0  0  0
   39.6070   22.8340   37.5920 C   0  0  0  0  0  0  0  0  0  0  0  0
   38.7590   23.2900   38.6680 C   0  0  0  0  0  0  0  0  0  0  0  0
   37.9190   24.4170   38.4650 C   0  0  0  0  0  0  0  0  0  0  0  0
   37.9820   24.9910   37.2350 N   0  0  0  0  0  0  0  0  0  0  0  0
   38.7920   24.5280   36.2540 C   0  0  0  0  0  0  0  0  0  0  0  0
   39.6050   23.4560   36.4190 N   0  0  0  0  0  0  0  0  0  0  0  0
   41.1730   25.5450   34.5020 C   0  0  0  0  0  0  0  0  0  0  0  0
   42.2330   25.7720   35.0930 O   0  0  0  0  0  0  0  0  0  0  0  0
   41.5630   24.5490   33.5600 N   0  0  0  0  0  0  0  0  0  0  0  0
   42.9530   24.1320   33.5880 C   0  0  0  0  0  0  0  0  0  0  0  0
   42.9450   22.7470   34.2530 C   0  0  0  0  0  0  0  0  0  0  0  0
   41.6820   22.1430   34.0660 O   0  0  0  0  0  0  0  0  0  0  0  0
   41.3330   22.3170   32.7290 C   0  0  0  0  0  0  0  0  0  0  0  0
   40.9460   23.7610   32.4880 C   0  0  0  0  0  0  0  0  0  0  0  0
   38.9130   24.4074   34.1998 H   0  0  0  0  0  0  0  0  0  0  0  0
   36.8594   25.3080   34.0988 H   0  0  0  0  0  0  0  0  0  0  0  0
   37.0884   26.3393   35.5168 H   0  0  0  0  0  0  0  0  0  0  0  0
   37.6043   26.9309   32.6857 H   0  0  0  0  0  0  0  0  0  0  0  0
   37.6392   28.0547   34.0672 H   0  0  0  0  0  0  0  0  0  0  0  0
   39.8776   26.6187   32.7184 H   0  0  0  0  0  0  0  0  0  0  0  0
   39.9447   28.0956   33.6715 H   0  0  0  0  0  0  0  0  0  0  0  0
   40.0763   26.8237   35.7826 H   0  0  0  0  0  0  0  0  0  0  0  0
   40.2610   21.9629   37.7456 H   0  0  0  0  0  0  0  0  0  0  0  0
   38.7635   22.7689   39.6367 H   0  0  0  0  0  0  0  0  0  0  0  0
   37.2577   24.8018   39.2553 H   0  0  0  0  0  0  0  0  0  0  0  0
   43.3569   24.0672   32.5669 H   0  0  0  0  0  0  0  0  0  0  0  0
   43.5856   24.8468   34.1347 H   0  0  0  0  0  0  0  0  0  0  0  0
   43.7237   22.1172   33.7981 H   0  0  0  0  0  0  0  0  0  0  0  0
   43.1441   22.8556   35.3294 H   0  0  0  0  0  0  0  0  0  0  0  0
   42.1897   22.0563   32.0902 H   0  0  0  0  0  0  0  0  0  0  0  0
   40.4806   21.6654   32.4865 H   0  0  0  0  0  0  0  0  0  0  0  0
   41.3200   24.0951   31.5090 H   0  0  0  0  0  0  0  0  0  0  0  0
   39.8527   23.8821   32.4879 H   0  0  0  0  0  0  0  0  0  0  0  0
  1 10  1  0
  2  1  1  0
  3  2  1  0
  4  3  1  0
  4  5  1  0
  5  1  1  0
  6  7  2  0
  8  7  1  0
  9  8  2  0
 10 11  2  0
 10  9  1  0
 11  6  1  0
 12  5  1  0
 12 13  2  0
 14 15  1  0
 14 12  1  0
 15 16  1  0
 17 16  1  0
 18 17  1  0
 19 18  1  0
 19 14  1  0
  1 20  1  6
  2 21  1  0
  2 22  1  0
  3 23  1  0
  3 24  1  0
  4 25  1  0
  4 26  1  0
  5 27  1  1
  6 28  1  0
  7 29  1  0
  8 30  1  0
 15 31  1  0
 15 32  1  0
 16 33  1  0
 16 34  1  0
 18 35  1  0
 18 36  1  0
 19 37  1  0
 19 38  1  0
M  ISO  8  20  13  21  13  22  13  23  13  24  13  25  13  26  13  27  13
M  ISO  8  28  14  29  14  30  14  31  13  32  13  33  13  34  13  35  13
M  ISO  3  36  13  37  13  38  13
M  END
>  <minimizedAffinity>  (1) 
-4.35988617

>  <minimizedRMSD>  (1) 
0.334373295

$$$$
