
     RDKit          3D

 39 41  0  0  1  0  0  0  0  0999 V2000
   38.7480   25.2850   34.9090 C   0  0  1  0  0  0  0  0  0  0  0  0
   37.5120   25.9980   34.6400 C   0  0  0  0  0  0  0  0  0  0  0  0
   37.9150   27.1290   33.7030 C   0  0  0  0  0  0  0  0  0  0  0  0
   39.4260   27.1840   33.6830 C   0  0  0  0  0  0  0  0  0  0  0  0
   39.8490   26.3400   34.8600 C   0  0  2  0  0  0  0  0  0  0  0  0
   39.6250   22.8390   37.5200 C   0  0  0  0  0  0  0  0  0  0  0  0
   38.8060   23.2730   38.6220 C   0  0  0  0  0  0  0  0  0  0  0  0
   37.9590   24.3960   38.4630 C   0  0  0  0  0  0  0  0  0  0  0  0
   37.9900   24.9890   37.2410 N   0  0  0  0  0  0  0  0  0  0  0  0
   38.7730   24.5560   36.2240 C   0  0  0  0  0  0  0  0  0  0  0  0
   39.5940   23.4820   36.3510 N   0  0  0  0  0  0  0  0  0  0  0  0
   41.1130   25.6610   34.4910 C   0  0  0  0  0  0  0  0  0  0  0  0
   42.1210   25.6520   35.1690 O   0  0  0  0  0  0  0  0  0  0  0  0
   41.4440   24.9020   33.3320 N   0  0  0  0  0  0  0  0  0  0  0  0
   40.1260   24.6230   32.7390 C   0  0  0  0  0  0  0  0  0  0  0  0
   40.2240   23.7480   31.5180 C   0  0  0  0  0  0  0  0  0  0  0  0
   41.1570   24.2500   30.5380 N   0  0  0  0  0  0  0  0  0  0  0  0
   42.3640   24.7710   31.1310 C   0  0  0  0  0  0  0  0  0  0  0  0
   42.5160   24.3470   32.5780 C   0  0  0  0  0  0  0  0  0  0  0  0
   38.8767   24.4897   34.1600 H   0  0  0  0  0  0  0  0  0  0  0  0
   36.7793   25.3355   34.1559 H   0  0  0  0  0  0  0  0  0  0  0  0
   37.0364   26.3688   35.5600 H   0  0  0  0  0  0  0  0  0  0  0  0
   37.5326   26.9325   32.6905 H   0  0  0  0  0  0  0  0  0  0  0  0
   37.4964   28.0861   34.0475 H   0  0  0  0  0  0  0  0  0  0  0  0
   39.8181   26.7664   32.7439 H   0  0  0  0  0  0  0  0  0  0  0  0
   39.8085   28.2134   33.7468 H   0  0  0  0  0  0  0  0  0  0  0  0
   39.9891   26.8959   35.7988 H   0  0  0  0  0  0  0  0  0  0  0  0
   40.2841   21.9670   37.6432 H   0  0  0  0  0  0  0  0  0  0  0  0
   38.8383   22.7354   39.5811 H   0  0  0  0  0  0  0  0  0  0  0  0
   37.3170   24.7648   39.2765 H   0  0  0  0  0  0  0  0  0  0  0  0
   39.5007   24.1159   33.4886 H   0  0  0  0  0  0  0  0  0  0  0  0
   39.6848   25.5826   32.4315 H   0  0  0  0  0  0  0  0  0  0  0  0
   40.5499   22.7450   31.8307 H   0  0  0  0  0  0  0  0  0  0  0  0
   39.2303   23.7284   31.0466 H   0  0  0  0  0  0  0  0  0  0  0  0
   40.7004   25.0037   30.0048 H   0  0  0  0  0  0  0  0  0  0  0  0
   43.2283   24.4009   30.5601 H   0  0  0  0  0  0  0  0  0  0  0  0
   42.3088   25.8693   31.1034 H   0  0  0  0  0  0  0  0  0  0  0  0
   42.4875   23.2495   32.6469 H   0  0  0  0  0  0  0  0  0  0  0  0
   43.4775   24.7056   32.9742 H   0  0  0  0  0  0  0  0  0  0  0  0
  1 10  1  0
  2  1  1  0
  3  2  1  0
  4  3  1  0
  4  5  1  0
  5  1  1  0
  6  7  2  0
  8  7  1  0
  9  8  2  0
 10 11  2  0
 10  9  1  0
 11  6  1  0
 12  5  1  0
 12 13  2  0
 14 12  1  0
 15 14  1  0
 16 15  1  0
 17 18  1  0
 17 16  1  0
 18 19  1  0
 19 14  1  0
  1 20  1  6
  2 21  1  0
  2 22  1  0
  3 23  1  0
  3 24  1  0
  4 25  1  0
  4 26  1  0
  5 27  1  1
  6 28  1  0
  7 29  1  0
  8 30  1  0
 15 31  1  0
 15 32  1  0
 16 33  1  0
 16 34  1  0
 17 35  1  0
 18 36  1  0
 18 37  1  0
 19 38  1  0
 19 39  1  0
M  ISO  8  20  13  21  13  22  13  23  13  24  13  25  13  26  13  27  13
M  ISO  8  28  14  29  14  30  14  31  13  32  13  33  13  34  13  35   5
M  ISO  4  36  13  37  13  38  13  39  13
M  END
>  <minimizedAffinity>  (1) 
-4.30651379

>  <minimizedRMSD>  (1) 
0.0539920107

$$$$
