
     RDKit          3D

 40 44  0  0  0  0  0  0  0  0999 V2000
   37.3780   22.6200   36.9280 C   0  0  0  0  0  0  0  0  0  0  0  0
   38.2260   23.7130   36.8390 C   0  0  0  0  0  0  0  0  0  0  0  0
   38.6590   24.0200   35.5680 C   0  0  0  0  0  0  0  0  0  0  0  0
   38.2380   23.2610   34.5530 N   0  0  0  0  0  0  0  0  0  0  0  0
   37.4420   22.2300   34.6090 C   0  0  0  0  0  0  0  0  0  0  0  0
   37.0240   21.9350   35.8460 N   0  0  0  0  0  0  0  0  0  0  0  0
   39.5320   25.0940   35.2240 N   0  0  0  0  0  0  0  0  0  0  0  0
   39.3850   26.4400   35.1090 C   0  0  0  0  0  0  0  0  0  0  0  0
   40.5680   26.9620   34.7480 N   0  0  0  0  0  0  0  0  0  0  0  0
   41.4860   25.9830   34.6260 C   0  0  0  0  0  0  0  0  0  0  0  0
   42.8420   26.0020   34.2780 C   0  0  0  0  0  0  0  0  0  0  0  0
   43.3930   27.0990   34.0130 O   0  0  0  0  0  0  0  0  0  0  0  0
   43.5350   24.8450   34.2320 N   0  0  0  0  0  0  0  0  0  0  0  0
   42.8810   23.7140   34.5270 C   0  0  0  0  0  0  0  0  0  0  0  0
   43.4690   22.4370   34.5230 N   0  0  0  0  0  0  0  0  0  0  0  0
   41.5910   23.7080   34.8560 N   0  0  0  0  0  0  0  0  0  0  0  0
   40.8180   24.8090   34.9290 C   0  0  0  0  0  0  0  0  0  0  0  0
   36.9050   21.3220   33.6170 C   0  0  0  0  0  0  0  0  0  0  0  0
   35.7560   20.5800   33.8650 C   0  0  0  0  0  0  0  0  0  0  0  0
   35.1980   19.6980   32.9590 C   0  0  0  0  0  0  0  0  0  0  0  0
   35.7810   19.5220   31.7390 C   0  0  0  0  0  0  0  0  0  0  0  0
   36.9090   20.2200   31.4360 C   0  0  0  0  0  0  0  0  0  0  0  0
   37.4840   20.0290   30.1980 C   0  0  0  0  0  0  0  0  0  0  0  0
   38.6220   20.7030   29.8290 C   0  0  0  0  0  0  0  0  0  0  0  0
   39.1680   21.5860   30.7570 C   0  0  0  0  0  0  0  0  0  0  0  0
   38.5640   21.7480   31.9790 C   0  0  0  0  0  0  0  0  0  0  0  0
   37.4330   21.0890   32.3690 C   0  0  0  0  0  0  0  0  0  0  0  0
   36.9915   22.3145   37.9115 H   0  0  0  0  0  0  0  0  0  0  0  0
   38.5316   24.2943   37.7214 H   0  0  0  0  0  0  0  0  0  0  0  0
   38.4568   27.0045   35.2819 H   0  0  0  0  0  0  0  0  0  0  0  0
   44.5333   24.8321   33.9786 H   0  0  0  0  0  0  0  0  0  0  0  0
   42.9041   21.6092   34.7608 H   0  0  0  0  0  0  0  0  0  0  0  0
   44.4647   22.3292   34.2822 H   0  0  0  0  0  0  0  0  0  0  0  0
   35.2616   20.7020   34.8400 H   0  0  0  0  0  0  0  0  0  0  0  0
   34.2870   19.1401   33.2211 H   0  0  0  0  0  0  0  0  0  0  0  0
   35.3448   18.8244   31.0088 H   0  0  0  0  0  0  0  0  0  0  0  0
   37.0224   19.3230   29.4920 H   0  0  0  0  0  0  0  0  0  0  0  0
   39.0830   20.5518   28.8418 H   0  0  0  0  0  0  0  0  0  0  0  0
   40.0793   22.1512   30.5119 H   0  0  0  0  0  0  0  0  0  0  0  0
   39.0199   22.4534   32.6893 H   0  0  0  0  0  0  0  0  0  0  0  0
  2  1  2  0
  3  2  1  0
  4  5  1  0
  4  3  2  0
  5  6  2  0
  6  1  1  0
  7  3  1  0
  8  7  1  0
  9  8  2  0
 10  9  1  0
 10 17  2  0
 11 10  1  0
 12 11  2  0
 13 11  1  0
 13 14  1  0
 14 16  2  0
 15 14  1  0
 16 17  1  0
 17  7  1  0
 18 19  2  0
 18  5  1  0
 20 19  1  0
 21 20  2  0
 22 21  1  0
 22 27  2  0
 23 22  1  0
 24 23  2  0
 24 25  1  0
 25 26  2  0
 26 27  1  0
 27 18  1  0
  1 28  1  0
  2 29  1  0
  8 30  1  0
 13 31  1  0
 15 32  1  0
 15 33  1  0
 19 34  1  0
 20 35  1  0
 21 36  1  0
 23 37  1  0
 24 38  1  0
 25 39  1  0
 26 40  1  0
M  ISO  8  28  14  29  14  30  14  31   9  34  14  35  14  36  14  37  14
M  ISO  3  38  14  39  14  40  14
M  END
>  <minimizedAffinity>  (1) 
-6.01471376

>  <minimizedRMSD>  (1) 
4.90525436

$$$$
