
     RDKit          3D

 40 42  0  0  1  0  0  0  0  0999 V2000
   38.7720   25.2420   34.8990 C   0  0  1  0  0  0  0  0  0  0  0  0
   37.5410   25.9470   34.5910 C   0  0  0  0  0  0  0  0  0  0  0  0
   37.9540   27.1380   33.7390 C   0  0  0  0  0  0  0  0  0  0  0  0
   39.4620   27.0810   33.6120 C   0  0  0  0  0  0  0  0  0  0  0  0
   39.8680   26.2930   34.8380 C   0  0  2  0  0  0  0  0  0  0  0  0
   39.6110   22.8320   37.5500 C   0  0  0  0  0  0  0  0  0  0  0  0
   38.7750   23.2860   38.6350 C   0  0  0  0  0  0  0  0  0  0  0  0
   37.9310   24.4120   38.4510 C   0  0  0  0  0  0  0  0  0  0  0  0
   37.9820   24.9900   37.2220 N   0  0  0  0  0  0  0  0  0  0  0  0
   38.7810   24.5330   36.2280 C   0  0  0  0  0  0  0  0  0  0  0  0
   39.6000   23.4580   36.3750 N   0  0  0  0  0  0  0  0  0  0  0  0
   41.1450   25.6120   34.4970 C   0  0  0  0  0  0  0  0  0  0  0  0
   42.2350   25.9420   34.9710 O   0  0  0  0  0  0  0  0  0  0  0  0
   41.6050   24.5410   33.6780 N   0  0  0  0  0  0  0  0  0  0  0  0
   42.7820   23.9090   34.2460 C   0  0  0  0  0  0  0  0  0  0  0  0
   43.5530   23.2730   33.0910 C   0  0  0  0  0  0  0  0  0  0  0  0
   42.8150   22.1070   32.4750 C   0  0  0  0  0  0  0  0  0  0  0  0
   41.3340   22.4050   32.6660 C   0  0  0  0  0  0  0  0  0  0  0  0
   41.2100   23.9150   32.4270 C   0  0  0  0  0  0  0  0  0  0  0  0
   38.9113   24.4276   34.1728 H   0  0  0  0  0  0  0  0  0  0  0  0
   36.8544   25.2945   34.0318 H   0  0  0  0  0  0  0  0  0  0  0  0
   37.0134   26.2625   35.5032 H   0  0  0  0  0  0  0  0  0  0  0  0
   37.4872   27.0730   32.7451 H   0  0  0  0  0  0  0  0  0  0  0  0
   37.6314   28.0838   34.1987 H   0  0  0  0  0  0  0  0  0  0  0  0
   39.7633   26.5631   32.6895 H   0  0  0  0  0  0  0  0  0  0  0  0
   39.9336   28.0731   33.5542 H   0  0  0  0  0  0  0  0  0  0  0  0
   39.9890   26.8751   35.7635 H   0  0  0  0  0  0  0  0  0  0  0  0
   40.2645   21.9592   37.6953 H   0  0  0  0  0  0  0  0  0  0  0  0
   38.7918   22.7611   39.6015 H   0  0  0  0  0  0  0  0  0  0  0  0
   37.2783   24.7921   39.2507 H   0  0  0  0  0  0  0  0  0  0  0  0
   43.4082   24.6607   34.7488 H   0  0  0  0  0  0  0  0  0  0  0  0
   42.4979   23.1511   34.9909 H   0  0  0  0  0  0  0  0  0  0  0  0
   43.7185   24.0352   32.3153 H   0  0  0  0  0  0  0  0  0  0  0  0
   44.5034   22.8921   33.4932 H   0  0  0  0  0  0  0  0  0  0  0  0
   43.0859   21.1703   32.9841 H   0  0  0  0  0  0  0  0  0  0  0  0
   43.0690   21.9835   31.4119 H   0  0  0  0  0  0  0  0  0  0  0  0
   40.7281   21.8455   31.9381 H   0  0  0  0  0  0  0  0  0  0  0  0
   40.9737   22.1091   33.6623 H   0  0  0  0  0  0  0  0  0  0  0  0
   41.8773   24.2311   31.6117 H   0  0  0  0  0  0  0  0  0  0  0  0
   40.1885   24.1988   32.1339 H   0  0  0  0  0  0  0  0  0  0  0  0
  1 10  1  0
  2  1  1  0
  3  2  1  0
  4  3  1  0
  4  5  1  0
  5  1  1  0
  6  7  2  0
  8  7  1  0
  9  8  2  0
 10 11  2  0
 10  9  1  0
 11  6  1  0
 12  5  1  0
 12 13  2  0
 14 15  1  0
 14 12  1  0
 16 15  1  0
 17 18  1  0
 17 16  1  0
 19 18  1  0
 19 14  1  0
  1 20  1  6
  2 21  1  0
  2 22  1  0
  3 23  1  0
  3 24  1  0
  4 25  1  0
  4 26  1  0
  5 27  1  1
  6 28  1  0
  7 29  1  0
  8 30  1  0
 15 31  1  0
 15 32  1  0
 16 33  1  0
 16 34  1  0
 17 35  1  0
 17 36  1  0
 18 37  1  0
 18 38  1  0
 19 39  1  0
 19 40  1  0
M  ISO  8  20  13  21  13  22  13  23  13  24  13  25  13  26  13  27  13
M  ISO  8  28  14  29  14  30  14  31  13  32  13  33  13  34  13  35  13
M  ISO  5  36  13  37  13  38  13  39  13  40  13
M  END
>  <minimizedAffinity>  (1) 
-4.27007484

>  <minimizedRMSD>  (1) 
0.454304814

$$$$
