
     RDKit          3D

 33 35  0  0  1  0  0  0  0  0999 V2000
   38.7580   25.2550   34.9170 C   0  0  1  0  0  0  0  0  0  0  0  0
   37.5340   25.9950   34.6460 C   0  0  0  0  0  0  0  0  0  0  0  0
   37.9390   27.1170   33.7170 C   0  0  0  0  0  0  0  0  0  0  0  0
   39.4580   27.1180   33.6470 C   0  0  0  0  0  0  0  0  0  0  0  0
   39.8750   26.2680   34.8160 C   0  0  2  0  0  0  0  0  0  0  0  0
   39.5950   22.8290   37.5570 C   0  0  0  0  0  0  0  0  0  0  0  0
   38.7950   23.3060   38.6580 C   0  0  0  0  0  0  0  0  0  0  0  0
   37.9740   24.4510   38.4940 C   0  0  0  0  0  0  0  0  0  0  0  0
   38.0120   25.0260   37.2620 N   0  0  0  0  0  0  0  0  0  0  0  0
   38.7760   24.5500   36.2510 C   0  0  0  0  0  0  0  0  0  0  0  0
   39.5680   23.4590   36.3840 N   0  0  0  0  0  0  0  0  0  0  0  0
   41.1300   25.5740   34.4720 C   0  0  0  0  0  0  0  0  0  0  0  0
   42.1880   25.7940   35.0880 O   0  0  0  0  0  0  0  0  0  0  0  0
   41.2360   24.5830   33.3870 C   0  0  0  0  0  0  0  0  0  0  0  0
   41.7420   23.3230   33.6560 C   0  0  0  0  0  0  0  0  0  0  0  0
   41.9110   22.2820   32.7760 C   0  0  0  0  0  0  0  0  0  0  0  0
   41.5290   22.5490   31.4940 N   0  0  0  0  0  0  0  0  0  0  0  0
   41.0310   23.7450   31.1610 C   0  0  0  0  0  0  0  0  0  0  0  0
   40.9100   24.6830   32.0930 N   0  0  0  0  0  0  0  0  0  0  0  0
   38.8614   24.4358   34.1903 H   0  0  0  0  0  0  0  0  0  0  0  0
   36.7904   25.3446   34.1623 H   0  0  0  0  0  0  0  0  0  0  0  0
   37.0736   26.3755   35.5697 H   0  0  0  0  0  0  0  0  0  0  0  0
   37.5159   26.9483   32.7157 H   0  0  0  0  0  0  0  0  0  0  0  0
   37.5649   28.0833   34.0862 H   0  0  0  0  0  0  0  0  0  0  0  0
   39.8064   26.6794   32.7003 H   0  0  0  0  0  0  0  0  0  0  0  0
   39.8837   28.1315   33.6864 H   0  0  0  0  0  0  0  0  0  0  0  0
   40.0377   26.8347   35.7446 H   0  0  0  0  0  0  0  0  0  0  0  0
   40.2305   21.9406   37.6867 H   0  0  0  0  0  0  0  0  0  0  0  0
   38.8215   22.7820   39.6248 H   0  0  0  0  0  0  0  0  0  0  0  0
   37.3490   24.8470   39.3080 H   0  0  0  0  0  0  0  0  0  0  0  0
   42.0442   23.1331   34.6965 H   0  0  0  0  0  0  0  0  0  0  0  0
   42.3224   21.3086   33.0813 H   0  0  0  0  0  0  0  0  0  0  0  0
   40.7245   23.9496   30.1246 H   0  0  0  0  0  0  0  0  0  0  0  0
  1 10  1  0
  2  1  1  0
  3  2  1  0
  4  3  1  0
  4  5  1  0
  5  1  1  0
  6  7  2  0
  8  7  1  0
  9  8  2  0
 10 11  2  0
 10  9  1  0
 11  6  1  0
 12  5  1  0
 12 13  2  0
 14 15  2  0
 14 12  1  0
 16 15  1  0
 17 16  2  0
 18 17  1  0
 18 19  2  0
 19 14  1  0
  1 20  1  6
  2 21  1  0
  2 22  1  0
  3 23  1  0
  3 24  1  0
  4 25  1  0
  4 26  1  0
  5 27  1  1
  6 28  1  0
  7 29  1  0
  8 30  1  0
 15 31  1  0
 16 32  1  0
 18 33  1  0
M  ISO  8  20  13  21  13  22  13  23  13  24  13  25  13  26  13  27  13
M  ISO  6  28  14  29  14  30  14  31  14  32  14  33  14
M  END
>  <minimizedAffinity>  (1) 
-4.04108953

>  <minimizedRMSD>  (1) 
0.366505355

$$$$
