
     RDKit          3D

 31 33  0  0  1  0  0  0  0  0999 V2000
   38.7310   25.2750   34.8950 C   0  0  1  0  0  0  0  0  0  0  0  0
   37.4920   25.9720   34.5970 C   0  0  0  0  0  0  0  0  0  0  0  0
   37.8940   27.1650   33.7400 C   0  0  0  0  0  0  0  0  0  0  0  0
   39.4070   27.1580   33.6430 C   0  0  0  0  0  0  0  0  0  0  0  0
   39.8280   26.3280   34.8160 C   0  0  2  0  0  0  0  0  0  0  0  0
   39.5940   22.8300   37.5010 C   0  0  0  0  0  0  0  0  0  0  0  0
   38.8020   23.2900   38.6200 C   0  0  0  0  0  0  0  0  0  0  0  0
   37.9800   24.4360   38.4560 C   0  0  0  0  0  0  0  0  0  0  0  0
   38.0060   25.0220   37.2290 N   0  0  0  0  0  0  0  0  0  0  0  0
   38.7630   24.5550   36.2100 C   0  0  0  0  0  0  0  0  0  0  0  0
   39.5620   23.4630   36.3280 N   0  0  0  0  0  0  0  0  0  0  0  0
   41.0900   25.6500   34.4470 C   0  0  0  0  0  0  0  0  0  0  0  0
   42.1390   25.7610   35.0720 O   0  0  0  0  0  0  0  0  0  0  0  0
   41.0790   24.7830   33.2420 C   0  0  0  0  0  0  0  0  0  0  0  0
   41.6480   23.4830   33.4550 C   0  0  0  0  0  0  0  0  0  0  0  0
   41.4980   22.6700   31.8340 S   0  0  0  0  0  0  0  0  0  0  0  0
   40.6860   24.2120   31.1020 C   0  0  0  0  0  0  0  0  0  0  0  0
   40.6970   24.8490   32.0060 N   0  0  0  0  0  0  0  0  0  0  0  0
   38.8618   24.4619   34.1658 H   0  0  0  0  0  0  0  0  0  0  0  0
   36.8046   25.3152   34.0438 H   0  0  0  0  0  0  0  0  0  0  0  0
   36.9684   26.2844   35.5126 H   0  0  0  0  0  0  0  0  0  0  0  0
   37.4517   27.0746   32.7369 H   0  0  0  0  0  0  0  0  0  0  0  0
   37.5357   28.1045   34.1860 H   0  0  0  0  0  0  0  0  0  0  0  0
   39.7385   26.7012   32.6988 H   0  0  0  0  0  0  0  0  0  0  0  0
   39.8420   28.1683   33.6545 H   0  0  0  0  0  0  0  0  0  0  0  0
   39.9692   26.8941   35.7485 H   0  0  0  0  0  0  0  0  0  0  0  0
   40.2336   21.9430   37.6195 H   0  0  0  0  0  0  0  0  0  0  0  0
   38.8358   22.7602   39.5834 H   0  0  0  0  0  0  0  0  0  0  0  0
   37.3579   24.8274   39.2744 H   0  0  0  0  0  0  0  0  0  0  0  0
   42.0753   23.0734   34.3822 H   0  0  0  0  0  0  0  0  0  0  0  0
   40.3154   24.4142   30.0862 H   0  0  0  0  0  0  0  0  0  0  0  0
  1 10  1  0
  2  1  1  0
  3  2  1  0
  4  3  1  0
  4  5  1  0
  5  1  1  0
  6  7  2  0
  8  7  1  0
  9  8  2  0
 10 11  2  0
 10  9  1  0
 11  6  1  0
 12  5  1  0
 12 13  2  0
 14 15  2  0
 14 12  1  0
 16 15  1  0
 17 16  1  0
 17 18  2  0
 18 14  1  0
  1 19  1  6
  2 20  1  0
  2 21  1  0
  3 22  1  0
  3 23  1  0
  4 24  1  0
  4 25  1  0
  5 26  1  1
  6 27  1  0
  7 28  1  0
  8 29  1  0
 15 30  1  0
 17 31  1  0
M  ISO  8  19  13  20  13  21  13  22  13  23  13  24  13  25  13  26  13
M  ISO  5  27  14  28  14  29  14  30  14  31  14
M  END
>  <minimizedAffinity>  (1) 
-4.02209854

>  <minimizedRMSD>  (1) 
0.203937992

$$$$
