
     RDKit          3D

 32 34  0  0  1  0  0  0  0  0999 V2000
   37.5340   25.5010   34.6420 C   0  0  1  0  0  0  0  0  0  0  0  0
   37.3560   26.8780   35.0770 C   0  0  0  0  0  0  0  0  0  0  0  0
   37.3280   27.6960   33.7910 C   0  0  0  0  0  0  0  0  0  0  0  0
   37.7040   26.7650   32.6600 C   0  0  0  0  0  0  0  0  0  0  0  0
   38.3520   25.6010   33.3600 C   0  0  2  0  0  0  0  0  0  0  0  0
   40.0830   23.4250   36.2940 C   0  0  0  0  0  0  0  0  0  0  0  0
   39.4050   22.9980   37.4920 C   0  0  0  0  0  0  0  0  0  0  0  0
   38.0760   23.4310   37.7130 C   0  0  0  0  0  0  0  0  0  0  0  0
   37.5390   24.2310   36.7540 N   0  0  0  0  0  0  0  0  0  0  0  0
   38.2110   24.6080   35.6430 C   0  0  0  0  0  0  0  0  0  0  0  0
   39.4800   24.2130   35.4010 N   0  0  0  0  0  0  0  0  0  0  0  0
   38.0580   24.3890   32.5420 C   0  0  0  0  0  0  0  0  0  0  0  0
   38.9080   23.7190   31.9550 O   0  0  0  0  0  0  0  0  0  0  0  0
   36.6600   23.8980   32.3800 C   0  0  0  0  0  0  0  0  0  0  0  0
   35.9420   24.2600   31.0640 C   0  0  0  0  0  0  0  0  0  0  0  0
   36.4250   22.8570   31.2820 C   0  0  0  0  0  0  0  0  0  0  0  0
   36.5516   25.0266   34.5012 H   0  0  0  0  0  0  0  0  0  0  0  0
   36.4105   26.9906   35.6278 H   0  0  0  0  0  0  0  0  0  0  0  0
   38.1567   27.2038   35.7572 H   0  0  0  0  0  0  0  0  0  0  0  0
   36.3195   28.1025   33.6249 H   0  0  0  0  0  0  0  0  0  0  0  0
   38.0297   28.5410   33.8506 H   0  0  0  0  0  0  0  0  0  0  0  0
   38.4097   27.2505   31.9698 H   0  0  0  0  0  0  0  0  0  0  0  0
   36.8409   26.4679   32.0463 H   0  0  0  0  0  0  0  0  0  0  0  0
   39.4359   25.6985   33.5205 H   0  0  0  0  0  0  0  0  0  0  0  0
   41.1166   23.0954   36.1121 H   0  0  0  0  0  0  0  0  0  0  0  0
   39.9110   22.3478   38.2208 H   0  0  0  0  0  0  0  0  0  0  0  0
   37.5100   23.1371   38.6093 H   0  0  0  0  0  0  0  0  0  0  0  0
   36.4263   23.9828   33.4515 H   0  0  0  0  0  0  0  0  0  0  0  0
   36.4417   24.9039   30.3253 H   0  0  0  0  0  0  0  0  0  0  0  0
   34.9739   24.7159   30.8090 H   0  0  0  0  0  0  0  0  0  0  0  0
   35.6980   22.0473   31.4428 H   0  0  0  0  0  0  0  0  0  0  0  0
   37.0740   22.1691   30.7203 H   0  0  0  0  0  0  0  0  0  0  0  0
  1  2  1  0
  1 10  1  0
  3  2  1  0
  4  5  1  0
  4  3  1  0
  5  1  1  0
  6  7  2  0
  7  8  1  0
  9  8  2  0
 10  9  1  0
 11 10  2  0
 11  6  1  0
 12  5  1  0
 13 12  2  0
 14 12  1  0
 15 16  1  0
 15 14  1  0
 16 14  1  0
  1 17  1  6
  2 18  1  0
  2 19  1  0
  3 20  1  0
  3 21  1  0
  4 22  1  0
  4 23  1  0
  5 24  1  1
  6 25  1  0
  7 26  1  0
  8 27  1  0
 14 28  1  0
 15 29  1  0
 15 30  1  0
 16 31  1  0
 16 32  1  0
M  ISO  8  17  13  18  13  19  13  20  13  21  13  22  13  23  13  24  13
M  ISO  8  25  14  26  14  27  14  28  13  29  13  30  13  31  13  32  13
M  END
>  <minimizedAffinity>  (1) 
-3.93777275

>  <minimizedRMSD>  (1) 
2.82152605

$$$$
