
     RDKit          3D

 38 40  0  0  1  0  0  0  0  0999 V2000
   38.6580   25.2910   34.9500 C   0  0  1  0  0  0  0  0  0  0  0  0
   37.4300   26.0350   34.7240 C   0  0  0  0  0  0  0  0  0  0  0  0
   37.8180   27.1930   33.8400 C   0  0  0  0  0  0  0  0  0  0  0  0
   39.3320   27.1980   33.7180 C   0  0  0  0  0  0  0  0  0  0  0  0
   39.7840   26.2720   34.8130 C   0  0  2  0  0  0  0  0  0  0  0  0
   39.5820   22.8510   37.5640 C   0  0  0  0  0  0  0  0  0  0  0  0
   38.8200   23.2950   38.6780 C   0  0  0  0  0  0  0  0  0  0  0  0
   37.9850   24.4330   38.5400 C   0  0  0  0  0  0  0  0  0  0  0  0
   37.9830   25.0230   37.3180 N   0  0  0  0  0  0  0  0  0  0  0  0
   38.7130   24.5810   36.2860 C   0  0  0  0  0  0  0  0  0  0  0  0
   39.5200   23.4930   36.4000 N   0  0  0  0  0  0  0  0  0  0  0  0
   41.0110   25.5790   34.4170 C   0  0  0  0  0  0  0  0  0  0  0  0
   42.1140   25.8860   34.9320 O   0  0  0  0  0  0  0  0  0  0  0  0
   41.8570   22.4870   31.5730 C   0  0  0  0  0  0  0  0  0  0  0  0
   41.2520   23.6540   31.1830 C   0  0  0  0  0  0  0  0  0  0  0  0
   40.9950   24.6430   32.1450 C   0  0  0  0  0  0  0  0  0  0  0  0
   41.3140   24.5180   33.4780 C   0  0  0  0  0  0  0  0  0  0  0  0
   41.9130   23.3180   33.7670 C   0  0  0  0  0  0  0  0  0  0  0  0
   42.1980   22.3030   32.8890 C   0  0  0  0  0  0  0  0  0  0  0  0
   42.1690   21.2680   30.3600 S   0  0  0  0  0  0  0  0  0  0  0  0
   41.4510   20.0100   30.7340 O   0  0  0  0  0  0  0  0  0  0  0  0
   41.6400   21.7150   29.0260 O   0  0  0  0  0  0  0  0  0  0  0  0
   38.7252   24.4797   34.2102 H   0  0  0  0  0  0  0  0  0  0  0  0
   36.6835   25.4016   34.2224 H   0  0  0  0  0  0  0  0  0  0  0  0
   36.9791   26.3751   35.6679 H   0  0  0  0  0  0  0  0  0  0  0  0
   37.3630   27.0734   32.8457 H   0  0  0  0  0  0  0  0  0  0  0  0
   37.4645   28.1409   34.2718 H   0  0  0  0  0  0  0  0  0  0  0  0
   39.6469   26.8230   32.7330 H   0  0  0  0  0  0  0  0  0  0  0  0
   39.7624   28.2062   33.8092 H   0  0  0  0  0  0  0  0  0  0  0  0
   40.0045   26.8014   35.7517 H   0  0  0  0  0  0  0  0  0  0  0  0
   40.2297   21.9677   37.6647 H   0  0  0  0  0  0  0  0  0  0  0  0
   38.8772   22.7613   39.6381 H   0  0  0  0  0  0  0  0  0  0  0  0
   37.3760   24.8142   39.3729 H   0  0  0  0  0  0  0  0  0  0  0  0
   40.9721   23.8128   30.1311 H   0  0  0  0  0  0  0  0  0  0  0  0
   40.5099   25.5731   31.8140 H   0  0  0  0  0  0  0  0  0  0  0  0
   42.1955   23.1515   34.8170 H   0  0  0  0  0  0  0  0  0  0  0  0
   42.6823   21.3754   33.2280 H   0  0  0  0  0  0  0  0  0  0  0  0
   43.5213   21.0620   30.2844 H   0  0  0  0  0  0  0  0  0  0  0  0
  1 10  1  0
  2  1  1  0
  3  2  1  0
  4  3  1  0
  4  5  1  0
  5  1  1  0
  6  7  2  0
  8  7  1  0
  9  8  2  0
 10 11  2  0
 10  9  1  0
 11  6  1  0
 12  5  1  0
 12 13  2  0
 14 19  2  0
 15 14  1  0
 15 16  2  0
 16 17  1  0
 17 18  2  0
 17 12  1  0
 19 18  1  0
 20 21  2  0
 20 14  1  0
 22 20  2  0
  1 23  1  6
  2 24  1  0
  2 25  1  0
  3 26  1  0
  3 27  1  0
  4 28  1  0
  4 29  1  0
  5 30  1  1
  6 31  1  0
  7 32  1  0
  8 33  1  0
 15 34  1  0
 16 35  1  0
 18 36  1  0
 19 37  1  0
 20 38  1  0
M  ISO  8  23  13  24  13  25  13  26  13  27  13  28  13  29  13  30  13
M  ISO  8  31  14  32  14  33  14  34  14  35  14  36  14  37  14  38  11
M  END
>  <minimizedAffinity>  (1) 
-3.88114786

>  <minimizedRMSD>  (1) 
0.665764272

$$$$
