
     RDKit          3D

 47 50  0  0  1  0  0  0  0  0999 V2000
   38.0930   25.3880   34.9860 C   0  0  1  0  0  0  0  0  0  0  0  0
   37.1160   26.4390   35.1210 C   0  0  0  0  0  0  0  0  0  0  0  0
   37.5160   27.4860   34.0910 C   0  0  0  0  0  0  0  0  0  0  0  0
   38.8470   27.0520   33.4970 C   0  0  0  0  0  0  0  0  0  0  0  0
   39.3720   26.0540   34.4620 C   0  0  2  0  0  0  0  0  0  0  0  0
   39.4030   22.8330   37.2910 C   0  0  0  0  0  0  0  0  0  0  0  0
   38.8830   23.2780   38.5580 C   0  0  0  0  0  0  0  0  0  0  0  0
   38.0900   24.4410   38.6200 C   0  0  0  0  0  0  0  0  0  0  0  0
   37.8790   25.0610   37.4270 N   0  0  0  0  0  0  0  0  0  0  0  0
   38.3860   24.6120   36.2500 C   0  0  0  0  0  0  0  0  0  0  0  0
   39.1450   23.5050   36.1740 N   0  0  0  0  0  0  0  0  0  0  0  0
   40.1450   25.0340   33.7070 C   0  0  0  0  0  0  0  0  0  0  0  0
   41.2900   24.6980   34.0280 O   0  0  0  0  0  0  0  0  0  0  0  0
   39.5980   24.3580   32.5280 C   0  0  0  0  0  0  0  0  0  0  0  0
   38.8120   23.2370   32.6400 C   0  0  0  0  0  0  0  0  0  0  0  0
   38.2520   22.5450   31.6040 C   0  0  0  0  0  0  0  0  0  0  0  0
   38.4840   22.9960   30.3130 C   0  0  0  0  0  0  0  0  0  0  0  0
   39.2640   24.1100   30.1730 C   0  0  0  0  0  0  0  0  0  0  0  0
   39.7660   24.7180   31.2390 N   0  0  0  0  0  0  0  0  0  0  0  0
   39.5960   24.6970   28.9170 N   0  0  0  0  0  0  0  0  0  0  0  0
   39.5340   23.9010   27.8200 C   0  0  0  0  0  0  0  0  0  0  0  0
   39.8530   24.4530   26.5890 C   0  0  0  0  0  0  0  0  0  0  0  0
   39.8130   23.6500   25.3150 C   0  0  0  0  0  0  0  0  0  0  0  0
   40.2310   25.7960   26.4760 C   0  0  0  0  0  0  0  0  0  0  0  0
   40.5300   26.3410   25.3730 O   0  0  0  0  0  0  0  0  0  0  0  0
   40.2750   26.5380   27.6010 N   0  0  0  0  0  0  0  0  0  0  0  0
   39.9650   26.0080   28.8070 C   0  0  0  0  0  0  0  0  0  0  0  0
   39.9800   26.6250   29.9050 O   0  0  0  0  0  0  0  0  0  0  0  0
   37.6856   24.6304   34.3004 H   0  0  0  0  0  0  0  0  0  0  0  0
   36.1061   26.0569   34.9112 H   0  0  0  0  0  0  0  0  0  0  0  0
   37.0921   26.8514   36.1405 H   0  0  0  0  0  0  0  0  0  0  0  0
   36.7533   27.5470   33.3007 H   0  0  0  0  0  0  0  0  0  0  0  0
   37.6035   28.4779   34.5583 H   0  0  0  0  0  0  0  0  0  0  0  0
   38.7015   26.5968   32.5062 H   0  0  0  0  0  0  0  0  0  0  0  0
   39.5363   27.8964   33.3493 H   0  0  0  0  0  0  0  0  0  0  0  0
   40.0124   26.4842   35.2461 H   0  0  0  0  0  0  0  0  0  0  0  0
   40.0220   21.9247   37.2472 H   0  0  0  0  0  0  0  0  0  0  0  0
   39.1042   22.7117   39.4747 H   0  0  0  0  0  0  0  0  0  0  0  0
   37.6718   24.8203   39.5641 H   0  0  0  0  0  0  0  0  0  0  0  0
   38.6159   22.8628   33.6556 H   0  0  0  0  0  0  0  0  0  0  0  0
   37.6337   21.6541   31.7885 H   0  0  0  0  0  0  0  0  0  0  0  0
   38.0588   22.4797   29.4397 H   0  0  0  0  0  0  0  0  0  0  0  0
   39.2383   22.8449   27.9052 H   0  0  0  0  0  0  0  0  0  0  0  0
   39.7596   22.5786   25.5584 H   0  0  0  0  0  0  0  0  0  0  0  0
   38.9280   23.9372   24.7282 H   0  0  0  0  0  0  0  0  0  0  0  0
   40.7221   23.8479   24.7282 H   0  0  0  0  0  0  0  0  0  0  0  0
   40.5503   27.5287   27.5412 H   0  0  0  0  0  0  0  0  0  0  0  0
  1  2  1  0
  1 10  1  0
  3  2  1  0
  4  3  1  0
  4  5  1  0
  5  1  1  0
  6  7  2  0
  7  8  1  0
  9  8  2  0
 10  9  1  0
 11 10  2  0
 11  6  1  0
 12 13  2  0
 12  5  1  0
 14 15  2  0
 14 12  1  0
 16 15  1  0
 17 16  2  0
 18 17  1  0
 18 19  2  0
 19 14  1  0
 20 18  1  0
 21 20  1  0
 22 21  2  0
 23 22  1  0
 24 22  1  0
 24 26  1  0
 25 24  2  0
 26 27  1  0
 27 20  1  0
 27 28  2  0
  1 29  1  6
  2 30  1  0
  2 31  1  0
  3 32  1  0
  3 33  1  0
  4 34  1  0
  4 35  1  0
  5 36  1  1
  6 37  1  0
  7 38  1  0
  8 39  1  0
 15 40  1  0
 16 41  1  0
 17 42  1  0
 21 43  1  0
 23 44  1  0
 23 45  1  0
 23 46  1  0
 26 47  1  0
M  ISO  8  29  13  30  13  31  13  32  13  33  13  34  13  35  13  36  13
M  ISO  8  37  14  38  14  39  14  40  14  41  14  42  14  43  14  44   8
M  ISO  3  45   8  46   8  47   9
M  END
>  <minimizedAffinity>  (1) 
-5.50025034

>  <minimizedRMSD>  (1) 
2.40790224

$$$$
