
     RDKit          3D

 43 46  0  0  1  0  0  0  0  0999 V2000
   38.4240   25.4380   35.1250 C   0  0  1  0  0  0  0  0  0  0  0  0
   37.1870   26.1730   35.0510 C   0  0  0  0  0  0  0  0  0  0  0  0
   37.5080   27.4050   34.2160 C   0  0  0  0  0  0  0  0  0  0  0  0
   39.0120   27.4120   33.9730 C   0  0  0  0  0  0  0  0  0  0  0  0
   39.5480   26.4720   34.9890 C   0  0  2  0  0  0  0  0  0  0  0  0
   39.6010   22.8400   37.4530 C   0  0  0  0  0  0  0  0  0  0  0  0
   38.9100   23.1950   38.6700 C   0  0  0  0  0  0  0  0  0  0  0  0
   38.0490   24.3130   38.6870 C   0  0  0  0  0  0  0  0  0  0  0  0
   37.9480   24.9760   37.5060 N   0  0  0  0  0  0  0  0  0  0  0  0
   38.6130   24.6160   36.3790 C   0  0  0  0  0  0  0  0  0  0  0  0
   39.4360   23.5550   36.3450 N   0  0  0  0  0  0  0  0  0  0  0  0
   40.7330   25.7880   34.4100 C   0  0  0  0  0  0  0  0  0  0  0  0
   41.8280   25.7610   34.9870 O   0  0  0  0  0  0  0  0  0  0  0  0
   40.6850   25.1000   33.1230 C   0  0  0  0  0  0  0  0  0  0  0  0
   40.8780   23.7440   33.0240 C   0  0  0  0  0  0  0  0  0  0  0  0
   40.8470   23.0070   31.8690 C   0  0  0  0  0  0  0  0  0  0  0  0
   40.6010   23.6730   30.6810 C   0  0  0  0  0  0  0  0  0  0  0  0
   40.4060   25.0230   30.7480 C   0  0  0  0  0  0  0  0  0  0  0  0
   40.4550   25.6380   31.9100 N   0  0  0  0  0  0  0  0  0  0  0  0
   40.1370   25.8650   29.5880 C   0  0  0  0  0  0  0  0  0  0  0  0
   39.7420   27.1810   29.6890 C   0  0  0  0  0  0  0  0  0  0  0  0
   39.4770   28.0150   28.6250 C   0  0  0  0  0  0  0  0  0  0  0  0
   39.6140   27.5060   27.3510 C   0  0  0  0  0  0  0  0  0  0  0  0
   40.0090   26.1890   27.2320 C   0  0  0  0  0  0  0  0  0  0  0  0
   40.2460   25.4460   28.3130 N   0  0  0  0  0  0  0  0  0  0  0  0
   38.4245   24.6894   34.3190 H   0  0  0  0  0  0  0  0  0  0  0  0
   36.4072   25.5689   34.5643 H   0  0  0  0  0  0  0  0  0  0  0  0
   36.8046   26.4384   36.0477 H   0  0  0  0  0  0  0  0  0  0  0  0
   36.9724   27.3587   33.2563 H   0  0  0  0  0  0  0  0  0  0  0  0
   37.1950   28.3207   34.7389 H   0  0  0  0  0  0  0  0  0  0  0  0
   39.2448   27.0623   32.9564 H   0  0  0  0  0  0  0  0  0  0  0  0
   39.4483   28.4182   34.0574 H   0  0  0  0  0  0  0  0  0  0  0  0
   39.8330   26.9538   35.9359 H   0  0  0  0  0  0  0  0  0  0  0  0
   40.2715   21.9680   37.4428 H   0  0  0  0  0  0  0  0  0  0  0  0
   39.0542   22.5958   39.5812 H   0  0  0  0  0  0  0  0  0  0  0  0
   37.5011   24.6240   39.5887 H   0  0  0  0  0  0  0  0  0  0  0  0
   41.0759   23.1987   33.9586 H   0  0  0  0  0  0  0  0  0  0  0  0
   41.0125   21.9197   31.8857 H   0  0  0  0  0  0  0  0  0  0  0  0
   40.5640   23.1365   29.7214 H   0  0  0  0  0  0  0  0  0  0  0  0
   39.6292   27.5993   30.7001 H   0  0  0  0  0  0  0  0  0  0  0  0
   39.1650   29.0573   28.7872 H   0  0  0  0  0  0  0  0  0  0  0  0
   39.4162   28.1256   26.4639 H   0  0  0  0  0  0  0  0  0  0  0  0
   40.1298   25.7467   26.2321 H   0  0  0  0  0  0  0  0  0  0  0  0
  1 10  1  0
  2  1  1  0
  3  2  1  0
  4  3  1  0
  4  5  1  0
  5  1  1  0
  6  7  2  0
  7  8  1  0
  9  8  2  0
 10  9  1  0
 11 10  2  0
 11  6  1  0
 12 13  2  0
 12  5  1  0
 14 12  1  0
 15 14  2  0
 16 15  1  0
 17 18  1  0
 17 16  2  0
 18 19  2  0
 19 14  1  0
 20 21  2  0
 20 18  1  0
 22 21  1  0
 23 22  2  0
 24 23  1  0
 24 25  2  0
 25 20  1  0
  1 26  1  6
  2 27  1  0
  2 28  1  0
  3 29  1  0
  3 30  1  0
  4 31  1  0
  4 32  1  0
  5 33  1  1
  6 34  1  0
  7 35  1  0
  8 36  1  0
 15 37  1  0
 16 38  1  0
 17 39  1  0
 21 40  1  0
 22 41  1  0
 23 42  1  0
 24 43  1  0
M  ISO  8  26  13  27  13  28  13  29  13  30  13  31  13  32  13  33  13
M  ISO  8  34  14  35  14  36  14  37  14  38  14  39  14  40  14  41  14
M  ISO  2  42  14  43  14
M  END
>  <minimizedAffinity>  (1) 
-4.66765404

>  <minimizedRMSD>  (1) 
1.63393319

$$$$
