
     RDKit          3D

 42 45  0  0  1  0  0  0  0  0999 V2000
   38.3490   25.4900   35.1950 C   0  0  1  0  0  0  0  0  0  0  0  0
   37.1190   26.2390   35.1790 C   0  0  0  0  0  0  0  0  0  0  0  0
   37.4290   27.4910   34.3690 C   0  0  0  0  0  0  0  0  0  0  0  0
   38.9200   27.4810   34.0640 C   0  0  0  0  0  0  0  0  0  0  0  0
   39.4800   26.5130   35.0390 C   0  0  2  0  0  0  0  0  0  0  0  0
   39.5850   22.8390   37.4310 C   0  0  0  0  0  0  0  0  0  0  0  0
   38.9370   23.1620   38.6720 C   0  0  0  0  0  0  0  0  0  0  0  0
   38.0780   24.2850   38.7390 C   0  0  0  0  0  0  0  0  0  0  0  0
   37.9430   24.9770   37.5780 N   0  0  0  0  0  0  0  0  0  0  0  0
   38.5740   24.6390   36.4230 C   0  0  0  0  0  0  0  0  0  0  0  0
   39.3930   23.5760   36.3380 N   0  0  0  0  0  0  0  0  0  0  0  0
   40.6360   25.8260   34.4070 C   0  0  0  0  0  0  0  0  0  0  0  0
   41.7470   25.7670   34.9450 O   0  0  0  0  0  0  0  0  0  0  0  0
   40.5360   25.1740   33.1020 C   0  0  0  0  0  0  0  0  0  0  0  0
   40.6640   23.8120   32.9630 C   0  0  0  0  0  0  0  0  0  0  0  0
   40.5790   23.1100   31.7960 C   0  0  0  0  0  0  0  0  0  0  0  0
   40.3410   23.8150   30.6290 C   0  0  0  0  0  0  0  0  0  0  0  0
   40.2080   25.1720   30.7320 C   0  0  0  0  0  0  0  0  0  0  0  0
   40.3070   25.7600   31.9070 N   0  0  0  0  0  0  0  0  0  0  0  0
   39.9560   25.9860   29.5420 C   0  0  0  0  0  0  0  0  0  0  0  0
   39.4300   27.2500   29.6440 C   0  0  0  0  0  0  0  0  0  0  0  0
   39.2380   27.9220   28.4460 C   0  0  0  0  0  0  0  0  0  0  0  0
   39.5500   27.3630   27.2440 N   0  0  0  0  0  0  0  0  0  0  0  0
   40.0630   26.1220   27.1850 C   0  0  0  0  0  0  0  0  0  0  0  0
   40.2510   25.4710   28.3350 N   0  0  0  0  0  0  0  0  0  0  0  0
   38.3107   24.7583   34.3745 H   0  0  0  0  0  0  0  0  0  0  0  0
   36.3183   25.6569   34.6994 H   0  0  0  0  0  0  0  0  0  0  0  0
   36.7693   26.4800   36.1937 H   0  0  0  0  0  0  0  0  0  0  0  0
   36.8538   27.4837   33.4314 H   0  0  0  0  0  0  0  0  0  0  0  0
   37.1549   28.3949   34.9328 H   0  0  0  0  0  0  0  0  0  0  0  0
   39.1057   27.1482   33.0321 H   0  0  0  0  0  0  0  0  0  0  0  0
   39.3759   28.4785   34.1487 H   0  0  0  0  0  0  0  0  0  0  0  0
   39.8049   26.9728   35.9840 H   0  0  0  0  0  0  0  0  0  0  0  0
   40.2527   21.9661   37.3824 H   0  0  0  0  0  0  0  0  0  0  0  0
   39.1073   22.5409   39.5638 H   0  0  0  0  0  0  0  0  0  0  0  0
   37.5579   24.5760   39.6635 H   0  0  0  0  0  0  0  0  0  0  0  0
   40.8528   23.2336   33.8794 H   0  0  0  0  0  0  0  0  0  0  0  0
   40.6961   22.0163   31.7831 H   0  0  0  0  0  0  0  0  0  0  0  0
   40.2620   23.3043   29.6579 H   0  0  0  0  0  0  0  0  0  0  0  0
   39.1768   27.7013   30.6147 H   0  0  0  0  0  0  0  0  0  0  0  0
   38.8202   28.9393   28.4674 H   0  0  0  0  0  0  0  0  0  0  0  0
   40.3194   25.6583   26.2210 H   0  0  0  0  0  0  0  0  0  0  0  0
  1 10  1  0
  2  1  1  0
  3  2  1  0
  4  3  1  0
  4  5  1  0
  5  1  1  0
  6  7  2  0
  7  8  1  0
  9  8  2  0
 10  9  1  0
 11 10  2  0
 11  6  1  0
 12 13  2  0
 12  5  1  0
 14 12  1  0
 15 14  2  0
 16 15  1  0
 17 18  1  0
 17 16  2  0
 18 19  2  0
 19 14  1  0
 20 21  2  0
 20 18  1  0
 22 21  1  0
 23 22  2  0
 24 23  1  0
 24 25  2  0
 25 20  1  0
  1 26  1  6
  2 27  1  0
  2 28  1  0
  3 29  1  0
  3 30  1  0
  4 31  1  0
  4 32  1  0
  5 33  1  1
  6 34  1  0
  7 35  1  0
  8 36  1  0
 15 37  1  0
 16 38  1  0
 17 39  1  0
 21 40  1  0
 22 41  1  0
 24 42  1  0
M  ISO  8  26  13  27  13  28  13  29  13  30  13  31  13  32  13  33  13
M  ISO  8  34  14  35  14  36  14  37  14  38  14  39  14  40  14  41  14
M  ISO  1  42  14
M  END
>  <minimizedAffinity>  (1) 
-4.63758564

>  <minimizedRMSD>  (1) 
1.75268745

$$$$
