
     RDKit          3D

 41 44  0  0  1  0  0  0  0  0999 V2000
   38.5080   25.3760   35.0300 C   0  0  1  0  0  0  0  0  0  0  0  0
   37.2730   26.1170   34.8910 C   0  0  0  0  0  0  0  0  0  0  0  0
   37.6190   27.3170   34.0260 C   0  0  0  0  0  0  0  0  0  0  0  0
   39.1310   27.3140   33.8250 C   0  0  0  0  0  0  0  0  0  0  0  0
   39.6350   26.4060   34.8860 C   0  0  2  0  0  0  0  0  0  0  0  0
   39.6160   22.8310   37.4560 C   0  0  0  0  0  0  0  0  0  0  0  0
   38.8800   23.2480   38.6500 C   0  0  0  0  0  0  0  0  0  0  0  0
   38.0390   24.3670   38.5980 C   0  0  0  0  0  0  0  0  0  0  0  0
   37.9580   25.0120   37.4030 N   0  0  0  0  0  0  0  0  0  0  0  0
   38.6530   24.6020   36.3070 C   0  0  0  0  0  0  0  0  0  0  0  0
   39.4640   23.5340   36.3360 N   0  0  0  0  0  0  0  0  0  0  0  0
   40.8390   25.7050   34.3640 C   0  0  0  0  0  0  0  0  0  0  0  0
   41.9290   25.7420   34.9560 O   0  0  0  0  0  0  0  0  0  0  0  0
   40.8080   24.9360   33.1290 C   0  0  0  0  0  0  0  0  0  0  0  0
   41.0420   23.5870   33.1240 C   0  0  0  0  0  0  0  0  0  0  0  0
   41.0440   22.7530   32.0340 C   0  0  0  0  0  0  0  0  0  0  0  0
   40.7860   23.3190   30.8020 C   0  0  0  0  0  0  0  0  0  0  0  0
   40.5460   24.6780   30.7740 C   0  0  0  0  0  0  0  0  0  0  0  0
   40.5720   25.3550   31.8790 N   0  0  0  0  0  0  0  0  0  0  0  0
   40.3140   25.2530   29.4400 C   0  0  0  0  0  0  0  0  0  0  0  0
   40.1550   24.6350   28.3060 C   0  0  0  0  0  0  0  0  0  0  0  0
   39.9380   25.2490   27.1060 C   0  0  0  0  0  0  0  0  0  0  0  0
   39.9030   26.7010   27.2450 C   0  0  0  0  0  0  0  0  0  0  0  0
   40.1950   26.9460   29.1010 S   0  0  0  0  0  0  0  0  0  0  0  0
   38.5337   24.5945   34.2563 H   0  0  0  0  0  0  0  0  0  0  0  0
   36.5058   25.4985   34.4023 H   0  0  0  0  0  0  0  0  0  0  0  0
   36.8649   26.4195   35.8667 H   0  0  0  0  0  0  0  0  0  0  0  0
   37.1104   27.2388   33.0538 H   0  0  0  0  0  0  0  0  0  0  0  0
   37.2933   28.2503   34.5086 H   0  0  0  0  0  0  0  0  0  0  0  0
   39.3916   26.9313   32.8272 H   0  0  0  0  0  0  0  0  0  0  0  0
   39.5676   28.3216   33.8889 H   0  0  0  0  0  0  0  0  0  0  0  0
   39.8911   26.9192   35.8246 H   0  0  0  0  0  0  0  0  0  0  0  0
   40.2808   21.9551   37.4834 H   0  0  0  0  0  0  0  0  0  0  0  0
   38.9871   22.6831   39.5878 H   0  0  0  0  0  0  0  0  0  0  0  0
   37.4732   24.7067   39.4781 H   0  0  0  0  0  0  0  0  0  0  0  0
   41.2509   23.1215   34.0985 H   0  0  0  0  0  0  0  0  0  0  0  0
   41.2433   21.6762   32.1382 H   0  0  0  0  0  0  0  0  0  0  0  0
   40.7722   22.7141   29.8834 H   0  0  0  0  0  0  0  0  0  0  0  0
   40.1987   23.5359   28.3148 H   0  0  0  0  0  0  0  0  0  0  0  0
   39.8060   24.7155   26.1531 H   0  0  0  0  0  0  0  0  0  0  0  0
   39.7463   27.4627   26.4670 H   0  0  0  0  0  0  0  0  0  0  0  0
  1 10  1  0
  2  1  1  0
  3  2  1  0
  4  3  1  0
  4  5  1  0
  5  1  1  0
  6  7  2  0
  8  7  1  0
  9  8  2  0
 10 11  2  0
 10  9  1  0
 11  6  1  0
 12  5  1  0
 12 13  2  0
 14 12  1  0
 15 14  2  0
 16 15  1  0
 17 16  2  0
 18 17  1  0
 18 19  2  0
 19 14  1  0
 20 18  1  0
 21 20  2  0
 22 23  2  0
 22 21  1  0
 23 24  1  0
 24 20  1  0
  1 25  1  6
  2 26  1  0
  2 27  1  0
  3 28  1  0
  3 29  1  0
  4 30  1  0
  4 31  1  0
  5 32  1  1
  6 33  1  0
  7 34  1  0
  8 35  1  0
 15 36  1  0
 16 37  1  0
 17 38  1  0
 21 39  1  0
 22 40  1  0
 23 41  1  0
M  ISO  8  25  13  26  13  27  13  28  13  29  13  30  13  31  13  32  13
M  ISO  8  33  14  34  14  35  14  36  14  37  14  38  14  39  14  40  14
M  ISO  1  41  14
M  END
>  <minimizedAffinity>  (1) 
-4.50821257

>  <minimizedRMSD>  (1) 
1.47013688

$$$$
