
     RDKit          3D

 40 43  0  0  0  0  0  0  0  0999 V2000
   37.3900   22.4550   30.9560 C   0  0  0  0  0  0  0  0  0  0  0  0
   38.4730   22.0900   30.1880 C   0  0  0  0  0  0  0  0  0  0  0  0
   38.7490   20.8050   29.7860 C   0  0  0  0  0  0  0  0  0  0  0  0
   37.9170   19.7850   30.1530 C   0  0  0  0  0  0  0  0  0  0  0  0
   36.8280   20.0800   30.9130 C   0  0  0  0  0  0  0  0  0  0  0  0
   35.9920   19.0410   31.2790 C   0  0  0  0  0  0  0  0  0  0  0  0
   34.8770   19.2580   32.0420 C   0  0  0  0  0  0  0  0  0  0  0  0
   34.6220   20.5690   32.4340 C   0  0  0  0  0  0  0  0  0  0  0  0
   35.4780   21.5720   32.0490 C   0  0  0  0  0  0  0  0  0  0  0  0
   36.5870   21.3850   31.2950 C   0  0  0  0  0  0  0  0  0  0  0  0
   35.6030   25.5680   31.0240 C   0  0  0  0  0  0  0  0  0  0  0  0
   36.3160   26.4550   31.8410 C   0  0  0  0  0  0  0  0  0  0  0  0
   37.4680   25.9320   32.3850 C   0  0  0  0  0  0  0  0  0  0  0  0
   37.8110   24.6780   32.1120 N   0  0  0  0  0  0  0  0  0  0  0  0
   37.1530   23.8300   31.3470 C   0  0  0  0  0  0  0  0  0  0  0  0
   36.0390   24.3300   30.8180 N   0  0  0  0  0  0  0  0  0  0  0  0
   38.2820   26.7100   33.2250 N   0  0  0  0  0  0  0  0  0  0  0  0
   39.5360   27.3110   32.9120 C   0  0  0  0  0  0  0  0  0  0  0  0
   40.6410   27.0590   33.8950 C   0  0  0  0  0  0  0  0  0  0  0  0
   40.2560   26.9550   35.2610 N   0  0  0  0  0  0  0  0  0  0  0  0
   38.9590   26.3790   35.4780 C   0  0  0  0  0  0  0  0  0  0  0  0
   37.8970   26.9980   34.5940 C   0  0  0  0  0  0  0  0  0  0  0  0
   39.1669   22.8836   29.8737 H   0  0  0  0  0  0  0  0  0  0  0  0
   39.6370   20.5982   29.1706 H   0  0  0  0  0  0  0  0  0  0  0  0
   38.1229   18.7503   29.8414 H   0  0  0  0  0  0  0  0  0  0  0  0
   36.2283   18.0184   30.9498 H   0  0  0  0  0  0  0  0  0  0  0  0
   34.2111   18.4322   32.3329 H   0  0  0  0  0  0  0  0  0  0  0  0
   33.7397   20.8006   33.0488 H   0  0  0  0  0  0  0  0  0  0  0  0
   35.2468   22.5967   32.3754 H   0  0  0  0  0  0  0  0  0  0  0  0
   34.6696   25.9010   30.5466 H   0  0  0  0  0  0  0  0  0  0  0  0
   35.9827   27.4857   32.0325 H   0  0  0  0  0  0  0  0  0  0  0  0
   39.8600   26.9271   31.9334 H   0  0  0  0  0  0  0  0  0  0  0  0
   39.3610   28.3968   32.9291 H   0  0  0  0  0  0  0  0  0  0  0  0
   41.1329   26.1166   33.6124 H   0  0  0  0  0  0  0  0  0  0  0  0
   41.2916   27.9443   33.8394 H   0  0  0  0  0  0  0  0  0  0  0  0
   40.9515   26.3707   35.7465 H   0  0  0  0  0  0  0  0  0  0  0  0
   39.0112   25.3010   35.2654 H   0  0  0  0  0  0  0  0  0  0  0  0
   38.6779   26.5705   36.5241 H   0  0  0  0  0  0  0  0  0  0  0  0
   37.8539   28.0851   34.7560 H   0  0  0  0  0  0  0  0  0  0  0  0
   36.9016   26.5891   34.8219 H   0  0  0  0  0  0  0  0  0  0  0  0
  1 10  1  0
  1 15  1  0
  2  1  2  0
  3  4  2  0
  3  2  1  0
  4  5  1  0
  5  6  1  0
  5 10  2  0
  6  7  2  0
  7  8  1  0
  9  8  2  0
 10  9  1  0
 11 12  2  0
 12 13  1  0
 13 17  1  0
 14 13  2  0
 15 14  1  0
 16 11  1  0
 16 15  2  0
 17 22  1  0
 18 17  1  0
 18 19  1  0
 19 20  1  0
 20 21  1  0
 22 21  1  0
  2 23  1  0
  3 24  1  0
  4 25  1  0
  6 26  1  0
  7 27  1  0
  8 28  1  0
  9 29  1  0
 11 30  1  0
 12 31  1  0
 18 32  1  0
 18 33  1  0
 19 34  1  0
 19 35  1  0
 20 36  1  0
 21 37  1  0
 21 38  1  0
 22 39  1  0
 22 40  1  0
M  ISO  8  23  14  24  14  25  14  26  14  27  14  28  14  29  14  30  14
M  ISO  8  31  14  32  13  33  13  34  13  35  13  36   5  37  13  38  13
M  ISO  2  39  13  40  13
M  END
>  <minimizedAffinity>  (1) 
-5.69439793

>  <minimizedRMSD>  (1) 
5.49564791

$$$$
