
     RDKit          3D

 46 49  0  0  1  0  0  0  0  0999 V2000
   38.5560   25.3610   35.0020 C   0  0  1  0  0  0  0  0  0  0  0  0
   37.3160   26.0740   34.8330 C   0  0  0  0  0  0  0  0  0  0  0  0
   37.6650   27.2800   33.9720 C   0  0  0  0  0  0  0  0  0  0  0  0
   39.1800   27.3010   33.8180 C   0  0  0  0  0  0  0  0  0  0  0  0
   39.6730   26.4050   34.8940 C   0  0  2  0  0  0  0  0  0  0  0  0
   39.6070   22.8440   37.4770 C   0  0  0  0  0  0  0  0  0  0  0  0
   38.8780   23.2440   38.6460 C   0  0  0  0  0  0  0  0  0  0  0  0
   38.0280   24.3730   38.5850 C   0  0  0  0  0  0  0  0  0  0  0  0
   37.9790   24.9970   37.3760 N   0  0  0  0  0  0  0  0  0  0  0  0
   38.6860   24.5860   36.2920 C   0  0  0  0  0  0  0  0  0  0  0  0
   39.4990   23.5150   36.3310 N   0  0  0  0  0  0  0  0  0  0  0  0
   40.9000   25.7220   34.4100 C   0  0  0  0  0  0  0  0  0  0  0  0
   41.9540   25.7210   35.0530 O   0  0  0  0  0  0  0  0  0  0  0  0
   40.9380   25.0030   33.1350 C   0  0  0  0  0  0  0  0  0  0  0  0
   41.0550   23.6340   33.0850 C   0  0  0  0  0  0  0  0  0  0  0  0
   41.0910   22.8700   31.9550 C   0  0  0  0  0  0  0  0  0  0  0  0
   41.0050   23.5120   30.7280 C   0  0  0  0  0  0  0  0  0  0  0  0
   40.8890   24.8750   30.7470 C   0  0  0  0  0  0  0  0  0  0  0  0
   40.8630   25.5260   31.8970 N   0  0  0  0  0  0  0  0  0  0  0  0
   40.7990   25.5800   29.5150 N   0  0  0  0  0  0  0  0  0  0  0  0
   41.7930   25.5830   28.4600 C   0  0  0  0  0  0  0  0  0  0  0  0
   41.4840   26.7640   27.5650 C   0  0  0  0  0  0  0  0  0  0  0  0
   40.5570   27.5790   28.4400 C   0  0  0  0  0  0  0  0  0  0  0  0
   39.7260   26.4340   29.0380 C   0  0  0  0  0  0  0  0  0  0  0  0
   38.6099   24.5859   34.2233 H   0  0  0  0  0  0  0  0  0  0  0  0
   36.5724   25.4407   34.3270 H   0  0  0  0  0  0  0  0  0  0  0  0
   36.8764   26.3697   35.7970 H   0  0  0  0  0  0  0  0  0  0  0  0
   37.1872   27.1894   32.9853 H   0  0  0  0  0  0  0  0  0  0  0  0
   37.3074   28.2095   34.4391 H   0  0  0  0  0  0  0  0  0  0  0  0
   39.4760   26.9211   32.8290 H   0  0  0  0  0  0  0  0  0  0  0  0
   39.5952   28.3167   33.8951 H   0  0  0  0  0  0  0  0  0  0  0  0
   39.8991   26.9225   35.8380 H   0  0  0  0  0  0  0  0  0  0  0  0
   40.2680   21.9662   37.5278 H   0  0  0  0  0  0  0  0  0  0  0  0
   38.9793   22.6768   39.5830 H   0  0  0  0  0  0  0  0  0  0  0  0
   37.4482   24.7218   39.4523 H   0  0  0  0  0  0  0  0  0  0  0  0
   41.1263   23.1047   34.0466 H   0  0  0  0  0  0  0  0  0  0  0  0
   41.1856   21.7757   32.0151 H   0  0  0  0  0  0  0  0  0  0  0  0
   41.0290   22.9503   29.7825 H   0  0  0  0  0  0  0  0  0  0  0  0
   42.8000   25.6880   28.8899 H   0  0  0  0  0  0  0  0  0  0  0  0
   41.7654   24.6416   27.8916 H   0  0  0  0  0  0  0  0  0  0  0  0
   40.9835   26.4449   26.6389 H   0  0  0  0  0  0  0  0  0  0  0  0
   42.3754   27.3127   27.2268 H   0  0  0  0  0  0  0  0  0  0  0  0
   41.1046   28.1388   29.2125 H   0  0  0  0  0  0  0  0  0  0  0  0
   39.9825   28.3611   27.9221 H   0  0  0  0  0  0  0  0  0  0  0  0
   39.0819   26.7806   29.8596 H   0  0  0  0  0  0  0  0  0  0  0  0
   39.0216   25.9549   28.3421 H   0  0  0  0  0  0  0  0  0  0  0  0
  1 10  1  0
  2  1  1  0
  3  2  1  0
  4  3  1  0
  4  5  1  0
  5  1  1  0
  6  7  2  0
  8  7  1  0
  9  8  2  0
 10 11  2  0
 10  9  1  0
 11  6  1  0
 12  5  1  0
 12 13  2  0
 14 12  1  0
 15 14  2  0
 16 15  1  0
 17 18  1  0
 17 16  2  0
 18 19  2  0
 19 14  1  0
 20 18  1  0
 21 20  1  0
 22 23  1  0
 22 21  1  0
 23 24  1  0
 24 20  1  0
  1 25  1  6
  2 26  1  0
  2 27  1  0
  3 28  1  0
  3 29  1  0
  4 30  1  0
  4 31  1  0
  5 32  1  1
  6 33  1  0
  7 34  1  0
  8 35  1  0
 15 36  1  0
 16 37  1  0
 17 38  1  0
 21 39  1  0
 21 40  1  0
 22 41  1  0
 22 42  1  0
 23 43  1  0
 23 44  1  0
 24 45  1  0
 24 46  1  0
M  ISO  8  25  13  26  13  27  13  28  13  29  13  30  13  31  13  32  13
M  ISO  8  33  14  34  14  35  14  36  14  37  14  38  14  39  13  40  13
M  ISO  6  41  13  42  13  43  13  44  13  45  13  46  13
M  END
>  <minimizedAffinity>  (1) 
-4.4760294

>  <minimizedRMSD>  (1) 
1.04378867

$$$$
