
     RDKit          3D

 37 39  0  0  1  0  0  0  0  0999 V2000
   38.4480   25.3600   35.0440 C   0  0  1  0  0  0  0  0  0  0  0  0
   37.2430   26.1430   34.9480 C   0  0  0  0  0  0  0  0  0  0  0  0
   37.6090   27.3200   34.0530 C   0  0  0  0  0  0  0  0  0  0  0  0
   39.1060   27.2420   33.7850 C   0  0  0  0  0  0  0  0  0  0  0  0
   39.6170   26.3290   34.8370 C   0  0  2  0  0  0  0  0  0  0  0  0
   39.5830   22.8530   37.4900 C   0  0  0  0  0  0  0  0  0  0  0  0
   38.8900   23.2670   38.6850 C   0  0  0  0  0  0  0  0  0  0  0  0
   38.0420   24.3940   38.6460 C   0  0  0  0  0  0  0  0  0  0  0  0
   37.9520   25.0090   37.4380 N   0  0  0  0  0  0  0  0  0  0  0  0
   38.6220   24.5900   36.3310 C   0  0  0  0  0  0  0  0  0  0  0  0
   39.4360   23.5190   36.3470 N   0  0  0  0  0  0  0  0  0  0  0  0
   40.7580   25.5630   34.2760 C   0  0  0  0  0  0  0  0  0  0  0  0
   41.9080   25.6690   34.7160 O   0  0  0  0  0  0  0  0  0  0  0  0
   40.5980   24.6290   33.1630 C   0  0  0  0  0  0  0  0  0  0  0  0
   41.1340   23.3620   33.1980 C   0  0  0  0  0  0  0  0  0  0  0  0
   41.0350   22.4180   32.2200 C   0  0  0  0  0  0  0  0  0  0  0  0
   40.3330   22.7440   31.0710 C   0  0  0  0  0  0  0  0  0  0  0  0
   39.7880   23.9970   31.0030 C   0  0  0  0  0  0  0  0  0  0  0  0
   39.9390   24.8390   32.0040 N   0  0  0  0  0  0  0  0  0  0  0  0
   39.0360   24.4070   29.8200 C   0  0  0  0  0  0  0  0  0  0  0  0
   39.1840   23.8160   28.7170 O   0  0  0  0  0  0  0  0  0  0  0  0
   38.1340   25.4620   29.8810 O   0  0  0  0  0  0  0  0  0  0  0  0
   38.3991   24.5740   34.2760 H   0  0  0  0  0  0  0  0  0  0  0  0
   36.4324   25.5517   34.4972 H   0  0  0  0  0  0  0  0  0  0  0  0
   36.8826   26.4700   35.9345 H   0  0  0  0  0  0  0  0  0  0  0  0
   37.0539   27.2582   33.1053 H   0  0  0  0  0  0  0  0  0  0  0  0
   37.3513   28.2722   34.5398 H   0  0  0  0  0  0  0  0  0  0  0  0
   39.3022   26.8317   32.7834 H   0  0  0  0  0  0  0  0  0  0  0  0
   39.5908   28.2290   33.8119 H   0  0  0  0  0  0  0  0  0  0  0  0
   39.9430   26.8423   35.7536 H   0  0  0  0  0  0  0  0  0  0  0  0
   40.2430   21.9736   37.5236 H   0  0  0  0  0  0  0  0  0  0  0  0
   39.0219   22.7068   39.6224 H   0  0  0  0  0  0  0  0  0  0  0  0
   37.4930   24.7493   39.5305 H   0  0  0  0  0  0  0  0  0  0  0  0
   41.6962   23.0846   34.1019 H   0  0  0  0  0  0  0  0  0  0  0  0
   41.4983   21.4275   32.3393 H   0  0  0  0  0  0  0  0  0  0  0  0
   40.2185   22.0246   30.2468 H   0  0  0  0  0  0  0  0  0  0  0  0
   37.6304   25.7301   29.0719 H   0  0  0  0  0  0  0  0  0  0  0  0
  1 10  1  0
  2  1  1  0
  3  2  1  0
  4  3  1  0
  4  5  1  0
  5  1  1  0
  6  7  2  0
  8  7  1  0
  9  8  2  0
 10 11  2  0
 10  9  1  0
 11  6  1  0
 12 13  2  0
 12  5  1  0
 14 15  2  0
 14 12  1  0
 16 15  1  0
 17 16  2  0
 18 17  1  0
 18 19  2  0
 19 14  1  0
 20 22  1  0
 20 18  1  0
 21 20  2  0
  1 23  1  6
  2 24  1  0
  2 25  1  0
  3 26  1  0
  3 27  1  0
  4 28  1  0
  4 29  1  0
  5 30  1  1
  6 31  1  0
  7 32  1  0
  8 33  1  0
 15 34  1  0
 16 35  1  0
 17 36  1  0
 22 37  1  0
M  ISO  8  23  13  24  13  25  13  26  13  27  13  28  13  29  13  30  13
M  ISO  7  31  14  32  14  33  14  34  14  35  14  36  14  37   3
M  END
>  <minimizedAffinity>  (1) 
-4.42054939

>  <minimizedRMSD>  (1) 
1.69270992

$$$$
