
     RDKit          3D

 40 43  0  0  1  0  0  0  0  0999 V2000
   38.5420   25.3700   35.0270 C   0  0  1  0  0  0  0  0  0  0  0  0
   37.3030   26.0900   34.8730 C   0  0  0  0  0  0  0  0  0  0  0  0
   37.6470   27.2990   34.0190 C   0  0  0  0  0  0  0  0  0  0  0  0
   39.1610   27.3200   33.8500 C   0  0  0  0  0  0  0  0  0  0  0  0
   39.6600   26.4160   34.9170 C   0  0  2  0  0  0  0  0  0  0  0  0
   39.6130   22.8390   37.4750 C   0  0  0  0  0  0  0  0  0  0  0  0
   38.8860   23.2310   38.6480 C   0  0  0  0  0  0  0  0  0  0  0  0
   38.0270   24.3610   38.6060 C   0  0  0  0  0  0  0  0  0  0  0  0
   37.9750   24.9880   37.4040 N   0  0  0  0  0  0  0  0  0  0  0  0
   38.6780   24.5870   36.3130 C   0  0  0  0  0  0  0  0  0  0  0  0
   39.4960   23.5200   36.3370 N   0  0  0  0  0  0  0  0  0  0  0  0
   40.8800   25.7340   34.4190 C   0  0  0  0  0  0  0  0  0  0  0  0
   41.9410   25.7300   35.0550 O   0  0  0  0  0  0  0  0  0  0  0  0
   40.9120   25.0220   33.1440 C   0  0  0  0  0  0  0  0  0  0  0  0
   41.0560   23.6590   33.0770 C   0  0  0  0  0  0  0  0  0  0  0  0
   41.0900   22.8920   31.9540 C   0  0  0  0  0  0  0  0  0  0  0  0
   40.9690   23.5320   30.7420 C   0  0  0  0  0  0  0  0  0  0  0  0
   40.8220   24.9140   30.7560 C   0  0  0  0  0  0  0  0  0  0  0  0
   40.8040   25.5340   31.9130 N   0  0  0  0  0  0  0  0  0  0  0  0
   40.6870   25.6760   29.4860 C   0  0  0  0  0  0  0  0  0  0  0  0
   39.9830   25.1490   28.4060 C   0  0  0  0  0  0  0  0  0  0  0  0
   40.1260   26.4650   27.1380 S   0  0  0  0  0  0  0  0  0  0  0  0
   41.1460   27.5340   28.3280 C   0  0  0  0  0  0  0  0  0  0  0  0
   41.1920   26.8760   29.2480 N   0  0  0  0  0  0  0  0  0  0  0  0
   38.5901   24.5982   34.2447 H   0  0  0  0  0  0  0  0  0  0  0  0
   36.5527   25.4629   34.3691 H   0  0  0  0  0  0  0  0  0  0  0  0
   36.8739   26.3811   35.8431 H   0  0  0  0  0  0  0  0  0  0  0  0
   37.1599   27.2162   33.0362 H   0  0  0  0  0  0  0  0  0  0  0  0
   37.2962   28.2254   34.4972 H   0  0  0  0  0  0  0  0  0  0  0  0
   39.4477   26.9457   32.8561 H   0  0  0  0  0  0  0  0  0  0  0  0
   39.5793   28.3344   33.9279 H   0  0  0  0  0  0  0  0  0  0  0  0
   39.8930   26.9281   35.8623 H   0  0  0  0  0  0  0  0  0  0  0  0
   40.2769   21.9629   37.5165 H   0  0  0  0  0  0  0  0  0  0  0  0
   38.9939   22.6564   39.5797 H   0  0  0  0  0  0  0  0  0  0  0  0
   37.4498   24.7009   39.4785 H   0  0  0  0  0  0  0  0  0  0  0  0
   41.1547   23.1289   34.0358 H   0  0  0  0  0  0  0  0  0  0  0  0
   41.2098   21.8001   32.0127 H   0  0  0  0  0  0  0  0  0  0  0  0
   40.9879   22.9703   29.7964 H   0  0  0  0  0  0  0  0  0  0  0  0
   39.4674   24.1802   28.3320 H   0  0  0  0  0  0  0  0  0  0  0  0
   41.5793   28.5320   28.1663 H   0  0  0  0  0  0  0  0  0  0  0  0
  1 10  1  0
  2  1  1  0
  3  2  1  0
  4  3  1  0
  4  5  1  0
  5  1  1  0
  6  7  2  0
  8  7  1  0
  9  8  2  0
 10 11  2  0
 10  9  1  0
 11  6  1  0
 12  5  1  0
 12 13  2  0
 14 12  1  0
 15 14  2  0
 16 15  1  0
 17 18  1  0
 17 16  2  0
 18 19  2  0
 19 14  1  0
 20 18  1  0
 21 20  2  0
 22 23  1  0
 22 21  1  0
 23 24  2  0
 24 20  1  0
  1 25  1  6
  2 26  1  0
  2 27  1  0
  3 28  1  0
  3 29  1  0
  4 30  1  0
  4 31  1  0
  5 32  1  1
  6 33  1  0
  7 34  1  0
  8 35  1  0
 15 36  1  0
 16 37  1  0
 17 38  1  0
 21 39  1  0
 23 40  1  0
M  ISO  8  25  13  26  13  27  13  28  13  29  13  30  13  31  13  32  13
M  ISO  8  33  14  34  14  35  14  36  14  37  14  38  14  39  14  40  14
M  END
>  <minimizedAffinity>  (1) 
-4.3573966

>  <minimizedRMSD>  (1) 
1.14942765

$$$$
