
     RDKit          3D

 41 44  0  0  1  0  0  0  0  0999 V2000
   38.7550   25.2410   34.9130 C   0  0  1  0  0  0  0  0  0  0  0  0
   37.5320   25.9390   34.6110 C   0  0  0  0  0  0  0  0  0  0  0  0
   37.9480   27.1030   33.7240 C   0  0  0  0  0  0  0  0  0  0  0  0
   39.4700   27.1220   33.6840 C   0  0  0  0  0  0  0  0  0  0  0  0
   39.8770   26.2840   34.8390 C   0  0  2  0  0  0  0  0  0  0  0  0
   39.5860   22.8370   37.5760 C   0  0  0  0  0  0  0  0  0  0  0  0
   38.7930   23.3140   38.6730 C   0  0  0  0  0  0  0  0  0  0  0  0
   37.9760   24.4550   38.4990 C   0  0  0  0  0  0  0  0  0  0  0  0
   38.0190   25.0150   37.2610 N   0  0  0  0  0  0  0  0  0  0  0  0
   38.7830   24.5320   36.2470 C   0  0  0  0  0  0  0  0  0  0  0  0
   39.5660   23.4490   36.3940 N   0  0  0  0  0  0  0  0  0  0  0  0
   41.1390   25.5820   34.4890 C   0  0  0  0  0  0  0  0  0  0  0  0
   42.2040   25.8040   35.0720 O   0  0  0  0  0  0  0  0  0  0  0  0
   41.1990   24.5790   33.4260 C   0  0  0  0  0  0  0  0  0  0  0  0
   41.7760   23.3500   33.6290 C   0  0  0  0  0  0  0  0  0  0  0  0
   41.8760   22.3440   32.7070 C   0  0  0  0  0  0  0  0  0  0  0  0
   41.3550   22.5640   31.4410 C   0  0  0  0  0  0  0  0  0  0  0  0
   40.7760   23.7800   31.2110 C   0  0  0  0  0  0  0  0  0  0  0  0
   40.7250   24.6950   32.1670 N   0  0  0  0  0  0  0  0  0  0  0  0
   40.2040   24.0650   29.8670 C   0  0  0  0  0  0  0  0  0  0  0  0
   39.5060   23.0170   29.0870 C   0  0  0  0  0  0  0  0  0  0  0  0
   38.6490   23.9780   29.8320 C   0  0  0  0  0  0  0  0  0  0  0  0
   38.8709   24.4273   34.1819 H   0  0  0  0  0  0  0  0  0  0  0  0
   36.8320   25.2786   34.0783 H   0  0  0  0  0  0  0  0  0  0  0  0
   37.0160   26.2786   35.5212 H   0  0  0  0  0  0  0  0  0  0  0  0
   37.5467   26.9648   32.7092 H   0  0  0  0  0  0  0  0  0  0  0  0
   37.5574   28.0523   34.1194 H   0  0  0  0  0  0  0  0  0  0  0  0
   39.8405   26.6929   32.7413 H   0  0  0  0  0  0  0  0  0  0  0  0
   39.8794   28.1415   33.7391 H   0  0  0  0  0  0  0  0  0  0  0  0
   40.0279   26.8505   35.7698 H   0  0  0  0  0  0  0  0  0  0  0  0
   40.2216   21.9499   37.7144 H   0  0  0  0  0  0  0  0  0  0  0  0
   38.8206   22.7955   39.6427 H   0  0  0  0  0  0  0  0  0  0  0  0
   37.3503   24.8605   39.3077 H   0  0  0  0  0  0  0  0  0  0  0  0
   42.1974   23.1558   34.6263 H   0  0  0  0  0  0  0  0  0  0  0  0
   42.3561   21.3879   32.9628 H   0  0  0  0  0  0  0  0  0  0  0  0
   41.4056   21.7941   30.6570 H   0  0  0  0  0  0  0  0  0  0  0  0
   41.0061   24.7708   29.6053 H   0  0  0  0  0  0  0  0  0  0  0  0
   39.5593   21.9698   29.4196 H   0  0  0  0  0  0  0  0  0  0  0  0
   39.5506   22.6993   28.0348 H   0  0  0  0  0  0  0  0  0  0  0  0
   38.0628   24.7347   29.2900 H   0  0  0  0  0  0  0  0  0  0  0  0
   37.8464   23.9027   30.5804 H   0  0  0  0  0  0  0  0  0  0  0  0
  1 10  1  0
  2  1  1  0
  3  2  1  0
  4  3  1  0
  4  5  1  0
  5  1  1  0
  6  7  2  0
  8  7  1  0
  9  8  2  0
 10 11  2  0
 10  9  1  0
 11  6  1  0
 12  5  1  0
 12 13  2  0
 14 15  2  0
 14 12  1  0
 16 15  1  0
 17 16  2  0
 18 17  1  0
 18 19  2  0
 19 14  1  0
 20 18  1  0
 21 22  1  0
 21 20  1  0
 22 20  1  0
  1 23  1  6
  2 24  1  0
  2 25  1  0
  3 26  1  0
  3 27  1  0
  4 28  1  0
  4 29  1  0
  5 30  1  1
  6 31  1  0
  7 32  1  0
  8 33  1  0
 15 34  1  0
 16 35  1  0
 17 36  1  0
 20 37  1  0
 21 38  1  0
 21 39  1  0
 22 40  1  0
 22 41  1  0
M  ISO  8  23  13  24  13  25  13  26  13  27  13  28  13  29  13  30  13
M  ISO  8  31  14  32  14  33  14  34  14  35  14  36  14  37  13  38  13
M  ISO  3  39  13  40  13  41  13
M  END
>  <minimizedAffinity>  (1) 
-4.2807169

>  <minimizedRMSD>  (1) 
1.59543204

$$$$
