
     RDKit          3D

 35 37  0  0  1  0  0  0  0  0999 V2000
   38.7570   25.2560   34.8680 C   0  0  1  0  0  0  0  0  0  0  0  0
   37.5230   25.9400   34.5710 C   0  0  0  0  0  0  0  0  0  0  0  0
   37.9230   27.1180   33.6960 C   0  0  0  0  0  0  0  0  0  0  0  0
   39.4450   27.1650   33.6640 C   0  0  0  0  0  0  0  0  0  0  0  0
   39.8610   26.3190   34.8110 C   0  0  2  0  0  0  0  0  0  0  0  0
   39.6130   22.8350   37.5090 C   0  0  0  0  0  0  0  0  0  0  0  0
   38.8050   23.2900   38.6010 C   0  0  0  0  0  0  0  0  0  0  0  0
   37.9680   24.4180   38.4400 C   0  0  0  0  0  0  0  0  0  0  0  0
   38.0130   24.9850   37.2090 N   0  0  0  0  0  0  0  0  0  0  0  0
   38.7900   24.5310   36.1930 C   0  0  0  0  0  0  0  0  0  0  0  0
   39.5910   23.4610   36.3330 N   0  0  0  0  0  0  0  0  0  0  0  0
   41.1340   25.6430   34.4560 C   0  0  0  0  0  0  0  0  0  0  0  0
   42.1050   25.6170   35.2220 O   0  0  0  0  0  0  0  0  0  0  0  0
   41.3240   24.9640   33.1790 C   0  0  0  0  0  0  0  0  0  0  0  0
   41.0690   23.6220   33.0340 C   0  0  0  0  0  0  0  0  0  0  0  0
   41.2070   22.8890   31.8830 C   0  0  0  0  0  0  0  0  0  0  0  0
   41.6460   23.5480   30.7450 C   0  0  0  0  0  0  0  0  0  0  0  0
   41.9080   24.8850   30.8600 C   0  0  0  0  0  0  0  0  0  0  0  0
   41.7430   25.5010   32.0130 N   0  0  0  0  0  0  0  0  0  0  0  0
   42.3490   25.5760   29.7400 O   0  0  0  0  0  0  0  0  0  0  0  0
   38.8903   24.4532   34.1279 H   0  0  0  0  0  0  0  0  0  0  0  0
   36.8331   25.2748   34.0311 H   0  0  0  0  0  0  0  0  0  0  0  0
   37.0012   26.2633   35.4838 H   0  0  0  0  0  0  0  0  0  0  0  0
   37.5295   26.9810   32.6780 H   0  0  0  0  0  0  0  0  0  0  0  0
   37.5136   28.0568   34.0974 H   0  0  0  0  0  0  0  0  0  0  0  0
   39.8279   26.7548   32.7179 H   0  0  0  0  0  0  0  0  0  0  0  0
   39.8359   28.1908   33.7341 H   0  0  0  0  0  0  0  0  0  0  0  0
   39.9982   26.8763   35.7494 H   0  0  0  0  0  0  0  0  0  0  0  0
   40.2609   21.9562   37.6433 H   0  0  0  0  0  0  0  0  0  0  0  0
   38.8358   22.7615   39.5652 H   0  0  0  0  0  0  0  0  0  0  0  0
   37.3309   24.8049   39.2490 H   0  0  0  0  0  0  0  0  0  0  0  0
   40.7204   23.0832   33.9274 H   0  0  0  0  0  0  0  0  0  0  0  0
   40.9769   21.8135   31.8634 H   0  0  0  0  0  0  0  0  0  0  0  0
   41.7779   23.0178   29.7903 H   0  0  0  0  0  0  0  0  0  0  0  0
   42.5445   26.5446   29.8011 H   0  0  0  0  0  0  0  0  0  0  0  0
  1 10  1  0
  2  1  1  0
  3  2  1  0
  4  3  1  0
  4  5  1  0
  5  1  1  0
  6  7  2  0
  8  7  1  0
  9  8  2  0
 10 11  2  0
 10  9  1  0
 11  6  1  0
 12  5  1  0
 12 13  2  0
 14 12  1  0
 15 14  2  0
 16 15  1  0
 17 18  1  0
 17 16  2  0
 18 19  2  0
 19 14  1  0
 20 18  1  0
  1 21  1  6
  2 22  1  0
  2 23  1  0
  3 24  1  0
  3 25  1  0
  4 26  1  0
  4 27  1  0
  5 28  1  1
  6 29  1  0
  7 30  1  0
  8 31  1  0
 15 32  1  0
 16 33  1  0
 17 34  1  0
 20 35  1  0
M  ISO  8  21  13  22  13  23  13  24  13  25  13  26  13  27  13  28  13
M  ISO  7  29  14  30  14  31  14  32  14  33  14  34  14  35   3
M  END
>  <minimizedAffinity>  (1) 
-4.11020279

>  <minimizedRMSD>  (1) 
0.0091809053

$$$$
