
     RDKit          3D

 33 36  0  0  0  0  0  0  0  0999 V2000
   37.0530   21.8210   34.4800 C   0  0  0  0  0  0  0  0  0  0  0  0
   36.2280   20.7310   34.5880 C   0  0  0  0  0  0  0  0  0  0  0  0
   35.3330   20.3330   33.6270 C   0  0  0  0  0  0  0  0  0  0  0  0
   35.2280   21.0510   32.4640 C   0  0  0  0  0  0  0  0  0  0  0  0
   36.0220   22.1450   32.2960 C   0  0  0  0  0  0  0  0  0  0  0  0
   35.9080   22.8610   31.1190 C   0  0  0  0  0  0  0  0  0  0  0  0
   36.6700   23.9650   30.8850 C   0  0  0  0  0  0  0  0  0  0  0  0
   37.5710   24.3470   31.8790 C   0  0  0  0  0  0  0  0  0  0  0  0
   37.6480   23.6030   33.0320 C   0  0  0  0  0  0  0  0  0  0  0  0
   36.9040   22.5030   33.2910 C   0  0  0  0  0  0  0  0  0  0  0  0
   38.0410   23.2160   37.6490 C   0  0  0  0  0  0  0  0  0  0  0  0
   39.4150   23.0570   37.7720 C   0  0  0  0  0  0  0  0  0  0  0  0
   40.0300   22.4390   36.7110 C   0  0  0  0  0  0  0  0  0  0  0  0
   39.2780   22.0480   35.6680 N   0  0  0  0  0  0  0  0  0  0  0  0
   37.9790   22.1900   35.5340 C   0  0  0  0  0  0  0  0  0  0  0  0
   37.3960   22.7920   36.5720 N   0  0  0  0  0  0  0  0  0  0  0  0
   41.4620   22.1660   36.6200 C   0  0  0  0  0  0  0  0  0  0  0  0
   42.3780   23.1970   36.4800 C   0  0  0  0  0  0  0  0  0  0  0  0
   43.6550   22.6610   36.4190 C   0  0  0  0  0  0  0  0  0  0  0  0
   43.4320   21.2900   36.5310 C   0  0  0  0  0  0  0  0  0  0  0  0
   42.1550   21.0780   36.6420 O   0  0  0  0  0  0  0  0  0  0  0  0
   36.2879   20.1337   35.5098 H   0  0  0  0  0  0  0  0  0  0  0  0
   34.7047   19.4447   33.7886 H   0  0  0  0  0  0  0  0  0  0  0  0
   34.5162   20.7495   31.6814 H   0  0  0  0  0  0  0  0  0  0  0  0
   35.1871   22.5322   30.3560 H   0  0  0  0  0  0  0  0  0  0  0  0
   36.5785   24.5338   29.9480 H   0  0  0  0  0  0  0  0  0  0  0  0
   38.2108   25.2312   31.7420 H   0  0  0  0  0  0  0  0  0  0  0  0
   38.3666   23.9252   33.8000 H   0  0  0  0  0  0  0  0  0  0  0  0
   37.4784   23.7023   38.4596 H   0  0  0  0  0  0  0  0  0  0  0  0
   39.9712   23.4015   38.6563 H   0  0  0  0  0  0  0  0  0  0  0  0
   42.1314   24.2676   36.4260 H   0  0  0  0  0  0  0  0  0  0  0  0
   44.6130   23.1902   36.3088 H   0  0  0  0  0  0  0  0  0  0  0  0
   44.2109   20.5132   36.5262 H   0  0  0  0  0  0  0  0  0  0  0  0
  1  2  2  0
  1 15  1  0
  3  2  1  0
  4  3  2  0
  5  4  1  0
  5 10  2  0
  6  5  1  0
  7  6  2  0
  7  8  1  0
  8  9  2  0
  9 10  1  0
 10  1  1  0
 11 12  2  0
 13 12  1  0
 14 13  2  0
 15 14  1  0
 15 16  2  0
 16 11  1  0
 17 21  1  0
 17 13  1  0
 18 17  2  0
 19 18  1  0
 19 20  2  0
 20 21  1  0
  2 22  1  0
  3 23  1  0
  4 24  1  0
  6 25  1  0
  7 26  1  0
  8 27  1  0
  9 28  1  0
 11 29  1  0
 12 30  1  0
 18 31  1  0
 19 32  1  0
 20 33  1  0
M  ISO  8  22  14  23  14  24  14  25  14  26  14  27  14  28  14  29  14
M  ISO  4  30  14  31  14  32  14  33  14
M  END
>  <minimizedAffinity>  (1) 
-5.62145233

>  <minimizedRMSD>  (1) 
3.58431554

$$$$
