
     RDKit          3D

 37 39  0  0  1  0  0  0  0  0999 V2000
   38.4140   25.3830   35.1140 C   0  0  1  0  0  0  0  0  0  0  0  0
   37.2320   26.2060   35.0620 C   0  0  0  0  0  0  0  0  0  0  0  0
   37.6000   27.3690   34.1510 C   0  0  0  0  0  0  0  0  0  0  0  0
   39.0870   27.2530   33.8410 C   0  0  0  0  0  0  0  0  0  0  0  0
   39.6030   26.3220   34.8760 C   0  0  2  0  0  0  0  0  0  0  0  0
   39.5820   22.8650   37.5340 C   0  0  0  0  0  0  0  0  0  0  0  0
   38.8970   23.2660   38.7360 C   0  0  0  0  0  0  0  0  0  0  0  0
   38.0430   24.3890   38.7100 C   0  0  0  0  0  0  0  0  0  0  0  0
   37.9490   25.0030   37.5100 N   0  0  0  0  0  0  0  0  0  0  0  0
   38.6010   24.6070   36.3960 C   0  0  0  0  0  0  0  0  0  0  0  0
   39.4190   23.5400   36.3990 N   0  0  0  0  0  0  0  0  0  0  0  0
   40.7080   25.5250   34.2820 C   0  0  0  0  0  0  0  0  0  0  0  0
   41.8820   25.6450   34.6450 O   0  0  0  0  0  0  0  0  0  0  0  0
   40.4740   24.5410   33.2230 C   0  0  0  0  0  0  0  0  0  0  0  0
   41.2090   23.3830   33.1430 C   0  0  0  0  0  0  0  0  0  0  0  0
   41.0630   22.4030   32.2040 C   0  0  0  0  0  0  0  0  0  0  0  0
   40.0890   22.5690   31.2270 C   0  0  0  0  0  0  0  0  0  0  0  0
   39.3440   23.7130   31.2840 C   0  0  0  0  0  0  0  0  0  0  0  0
   39.5560   24.6110   32.2340 N   0  0  0  0  0  0  0  0  0  0  0  0
   38.2580   24.0750   30.3340 C   0  0  0  0  0  0  0  0  0  0  0  0
   37.1620   23.2240   30.4830 F   0  0  0  0  0  0  0  0  0  0  0  0
   37.7880   25.3530   30.5510 F   0  0  0  0  0  0  0  0  0  0  0  0
   38.7180   23.8760   29.0400 F   0  0  0  0  0  0  0  0  0  0  0  0
   38.3218   24.6010   34.3459 H   0  0  0  0  0  0  0  0  0  0  0  0
   36.3857   25.6408   34.6444 H   0  0  0  0  0  0  0  0  0  0  0  0
   36.9218   26.5464   36.0610 H   0  0  0  0  0  0  0  0  0  0  0  0
   37.0167   27.3162   33.2199 H   0  0  0  0  0  0  0  0  0  0  0  0
   37.3792   28.3295   34.6395 H   0  0  0  0  0  0  0  0  0  0  0  0
   39.2445   26.8418   32.8330 H   0  0  0  0  0  0  0  0  0  0  0  0
   39.5982   28.2269   33.8576 H   0  0  0  0  0  0  0  0  0  0  0  0
   39.9687   26.8246   35.7836 H   0  0  0  0  0  0  0  0  0  0  0  0
   40.2481   21.9899   37.5547 H   0  0  0  0  0  0  0  0  0  0  0  0
   39.0388   22.7002   39.6686 H   0  0  0  0  0  0  0  0  0  0  0  0
   37.4959   24.7378   39.5983 H   0  0  0  0  0  0  0  0  0  0  0  0
   41.9868   23.2316   33.9059 H   0  0  0  0  0  0  0  0  0  0  0  0
   41.6994   21.5059   32.2203 H   0  0  0  0  0  0  0  0  0  0  0  0
   39.9252   21.8142   30.4438 H   0  0  0  0  0  0  0  0  0  0  0  0
  1 10  1  0
  2  1  1  0
  3  2  1  0
  4  3  1  0
  4  5  1  0
  5  1  1  0
  6  7  2  0
  8  7  1  0
  9  8  2  0
 10 11  2  0
 10  9  1  0
 11  6  1  0
 12 13  2  0
 12  5  1  0
 14 12  1  0
 15 14  2  0
 16 15  1  0
 17 18  1  0
 17 16  2  0
 18 19  2  0
 19 14  1  0
 20 21  1  0
 20 22  1  0
 20 18  1  0
 23 20  1  0
  1 24  1  6
  2 25  1  0
  2 26  1  0
  3 27  1  0
  3 28  1  0
  4 29  1  0
  4 30  1  0
  5 31  1  1
  6 32  1  0
  7 33  1  0
  8 34  1  0
 15 35  1  0
 16 36  1  0
 17 37  1  0
M  ISO  8  24  13  25  13  26  13  27  13  28  13  29  13  30  13  31  13
M  ISO  6  32  14  33  14  34  14  35  14  36  14  37  14
M  END
>  <minimizedAffinity>  (1) 
-4.61127234

>  <minimizedRMSD>  (1) 
2.29390287

$$$$
