
     RDKit          3D

 43 46  0  0  1  0  0  0  0  0999 V2000
   38.0210   25.2790   34.8610 C   0  0  1  0  0  0  0  0  0  0  0  0
   37.1850   26.3860   35.2020 C   0  0  0  0  0  0  0  0  0  0  0  0
   37.4260   27.4080   34.0850 C   0  0  0  0  0  0  0  0  0  0  0  0
   38.5350   26.8630   33.1980 C   0  0  0  0  0  0  0  0  0  0  0  0
   39.1950   25.8170   34.0410 C   0  0  2  0  0  0  0  0  0  0  0  0
   40.1930   23.2470   37.0430 C   0  0  0  0  0  0  0  0  0  0  0  0
   39.3430   23.0010   38.1660 C   0  0  0  0  0  0  0  0  0  0  0  0
   38.0420   23.5230   38.1770 C   0  0  0  0  0  0  0  0  0  0  0  0
   37.7040   24.2380   37.0780 N   0  0  0  0  0  0  0  0  0  0  0  0
   38.5310   24.4520   36.0290 C   0  0  0  0  0  0  0  0  0  0  0  0
   39.7730   23.9630   36.0020 N   0  0  0  0  0  0  0  0  0  0  0  0
   39.6800   24.7310   33.1380 C   0  0  0  0  0  0  0  0  0  0  0  0
   40.7640   24.7660   32.5700 O   0  0  0  0  0  0  0  0  0  0  0  0
   38.8640   23.5360   32.8750 C   0  0  0  0  0  0  0  0  0  0  0  0
   39.3860   22.2700   33.0810 C   0  0  0  0  0  0  0  0  0  0  0  0
   38.7190   21.0950   32.8790 C   0  0  0  0  0  0  0  0  0  0  0  0
   37.4110   21.1500   32.4280 C   0  0  0  0  0  0  0  0  0  0  0  0
   36.8820   22.3870   32.2210 C   0  0  0  0  0  0  0  0  0  0  0  0
   37.5970   23.4750   32.4410 N   0  0  0  0  0  0  0  0  0  0  0  0
   36.6230   20.0190   32.1840 N   0  0  0  0  0  0  0  0  0  0  0  0
   36.5590   19.2780   31.0640 C   0  0  0  0  0  0  0  0  0  0  0  0
   35.6850   18.2990   31.2650 N   0  0  0  0  0  0  0  0  0  0  0  0
   35.1780   18.4000   32.5140 C   0  0  0  0  0  0  0  0  0  0  0  0
   35.7760   19.4760   33.0680 N   0  0  0  0  0  0  0  0  0  0  0  0
   35.4990   22.6480   31.7430 C   0  0  0  0  0  0  0  0  0  0  0  0
   34.5540   22.0250   32.5730 F   0  0  0  0  0  0  0  0  0  0  0  0
   35.1870   23.9910   31.7750 F   0  0  0  0  0  0  0  0  0  0  0  0
   35.3400   22.0690   30.4990 F   0  0  0  0  0  0  0  0  0  0  0  0
   37.3955   24.5757   34.2916 H   0  0  0  0  0  0  0  0  0  0  0  0
   36.1284   26.0814   35.2288 H   0  0  0  0  0  0  0  0  0  0  0  0
   37.4154   26.7928   36.1977 H   0  0  0  0  0  0  0  0  0  0  0  0
   36.5070   27.5445   33.4961 H   0  0  0  0  0  0  0  0  0  0  0  0
   37.7113   28.3830   34.5069 H   0  0  0  0  0  0  0  0  0  0  0  0
   39.2480   27.6572   32.9317 H   0  0  0  0  0  0  0  0  0  0  0  0
   38.1561   26.4616   32.2465 H   0  0  0  0  0  0  0  0  0  0  0  0
   40.0396   26.1803   34.6449 H   0  0  0  0  0  0  0  0  0  0  0  0
   41.2137   22.8368   37.0390 H   0  0  0  0  0  0  0  0  0  0  0  0
   39.7077   22.4058   39.0162 H   0  0  0  0  0  0  0  0  0  0  0  0
   37.3480   23.3637   39.0154 H   0  0  0  0  0  0  0  0  0  0  0  0
   40.4247   22.2050   33.4371 H   0  0  0  0  0  0  0  0  0  0  0  0
   39.2090   20.1289   33.0700 H   0  0  0  0  0  0  0  0  0  0  0  0
   37.1315   19.4526   30.1411 H   0  0  0  0  0  0  0  0  0  0  0  0
   34.4319   17.7412   32.9824 H   0  0  0  0  0  0  0  0  0  0  0  0
  1  2  1  0
  1 10  1  0
  3  2  1  0
  4  5  1  0
  4  3  1  0
  5  1  1  0
  6  7  2  0
  7  8  1  0
  9  8  2  0
 10  9  1  0
 11 10  2  0
 11  6  1  0
 12  5  1  0
 13 12  2  0
 14 15  2  0
 14 12  1  0
 16 15  1  0
 17 16  2  0
 18 17  1  0
 18 19  2  0
 19 14  1  0
 20 17  1  0
 20 24  1  0
 21 22  2  0
 21 20  1  0
 22 23  1  0
 23 24  2  0
 25 27  1  0
 25 18  1  0
 25 26  1  0
 28 25  1  0
  1 29  1  6
  2 30  1  0
  2 31  1  0
  3 32  1  0
  3 33  1  0
  4 34  1  0
  4 35  1  0
  5 36  1  1
  6 37  1  0
  7 38  1  0
  8 39  1  0
 15 40  1  0
 16 41  1  0
 21 42  1  0
 23 43  1  0
M  ISO  8  29  13  30  13  31  13  32  13  33  13  34  13  35  13  36  13
M  ISO  7  37  14  38  14  39  14  40  14  41  14  42  14  43  14
M  END
>  <minimizedAffinity>  (1) 
-5.74469471

>  <minimizedRMSD>  (1) 
2.88398528

$$$$
