
     RDKit          3D

 46 49  0  0  1  0  0  0  0  0999 V2000
   38.1180   25.3900   35.1150 C   0  0  1  0  0  0  0  0  0  0  0  0
   37.1420   26.4230   35.2350 C   0  0  0  0  0  0  0  0  0  0  0  0
   37.5330   27.4510   34.1710 C   0  0  0  0  0  0  0  0  0  0  0  0
   38.8630   27.0060   33.5710 C   0  0  0  0  0  0  0  0  0  0  0  0
   39.4000   26.0210   34.5630 C   0  0  2  0  0  0  0  0  0  0  0  0
   39.4930   22.9150   37.4800 C   0  0  0  0  0  0  0  0  0  0  0  0
   38.9130   23.3320   38.7230 C   0  0  0  0  0  0  0  0  0  0  0  0
   38.0600   24.4440   38.7460 C   0  0  0  0  0  0  0  0  0  0  0  0
   37.8570   25.0410   37.5450 N   0  0  0  0  0  0  0  0  0  0  0  0
   38.4210   24.6190   36.3890 C   0  0  0  0  0  0  0  0  0  0  0  0
   39.2360   23.5640   36.3480 N   0  0  0  0  0  0  0  0  0  0  0  0
   40.1640   24.9800   33.8210 C   0  0  0  0  0  0  0  0  0  0  0  0
   41.3860   24.9860   33.7280 O   0  0  0  0  0  0  0  0  0  0  0  0
   39.4830   23.8710   33.1480 C   0  0  0  0  0  0  0  0  0  0  0  0
   40.1630   22.7010   32.8530 C   0  0  0  0  0  0  0  0  0  0  0  0
   39.6350   21.6000   32.2450 C   0  0  0  0  0  0  0  0  0  0  0  0
   38.2920   21.6310   31.8800 C   0  0  0  0  0  0  0  0  0  0  0  0
   37.6080   22.7670   32.1580 C   0  0  0  0  0  0  0  0  0  0  0  0
   38.1920   23.8000   32.7520 N   0  0  0  0  0  0  0  0  0  0  0  0
   37.6750   20.4830   31.2520 C   0  0  0  0  0  0  0  0  0  0  0  0
   37.1240   19.4960   32.0380 C   0  0  0  0  0  0  0  0  0  0  0  0
   36.5110   18.3510   31.5690 C   0  0  0  0  0  0  0  0  0  0  0  0
   36.4250   18.1440   30.2090 C   0  0  0  0  0  0  0  0  0  0  0  0
   36.9730   19.1240   29.4170 C   0  0  0  0  0  0  0  0  0  0  0  0
   37.5360   20.1790   29.9630 N   0  0  0  0  0  0  0  0  0  0  0  0
   36.1830   22.9840   31.8340 C   0  0  0  0  0  0  0  0  0  0  0  0
   35.3590   22.1470   32.5650 F   0  0  0  0  0  0  0  0  0  0  0  0
   35.7720   24.2740   32.1580 F   0  0  0  0  0  0  0  0  0  0  0  0
   35.9600   22.7210   30.4850 F   0  0  0  0  0  0  0  0  0  0  0  0
   37.6944   24.6331   34.4385 H   0  0  0  0  0  0  0  0  0  0  0  0
   36.1336   26.0285   35.0414 H   0  0  0  0  0  0  0  0  0  0  0  0
   37.1176   26.8577   36.2452 H   0  0  0  0  0  0  0  0  0  0  0  0
   36.7623   27.4921   33.3872 H   0  0  0  0  0  0  0  0  0  0  0  0
   37.6242   28.4532   34.6153 H   0  0  0  0  0  0  0  0  0  0  0  0
   38.7095   26.5295   32.5915 H   0  0  0  0  0  0  0  0  0  0  0  0
   39.5501   27.8472   33.3970 H   0  0  0  0  0  0  0  0  0  0  0  0
   40.0555   26.4563   35.3316 H   0  0  0  0  0  0  0  0  0  0  0  0
   40.1627   22.0425   37.4623 H   0  0  0  0  0  0  0  0  0  0  0  0
   39.1354   22.7841   39.6505 H   0  0  0  0  0  0  0  0  0  0  0  0
   37.5890   24.8065   39.6716 H   0  0  0  0  0  0  0  0  0  0  0  0
   41.2254   22.6555   33.1346 H   0  0  0  0  0  0  0  0  0  0  0  0
   40.2536   20.7119   32.0485 H   0  0  0  0  0  0  0  0  0  0  0  0
   37.1764   19.6305   33.1285 H   0  0  0  0  0  0  0  0  0  0  0  0
   36.0965   17.6134   32.2719 H   0  0  0  0  0  0  0  0  0  0  0  0
   35.9470   17.2492   29.7838 H   0  0  0  0  0  0  0  0  0  0  0  0
   36.9405   19.0254   28.3219 H   0  0  0  0  0  0  0  0  0  0  0  0
  1  2  1  0
  1 10  1  0
  3  2  1  0
  4  3  1  0
  4  5  1  0
  5  1  1  0
  6  7  2  0
  7  8  1  0
  9  8  2  0
 10  9  1  0
 11 10  2  0
 11  6  1  0
 12  5  1  0
 13 12  2  0
 14 12  1  0
 15 14  2  0
 16 15  1  0
 17 18  1  0
 17 16  2  0
 18 19  2  0
 19 14  1  0
 20 17  1  0
 20 21  2  0
 22 21  1  0
 23 22  2  0
 24 25  2  0
 24 23  1  0
 25 20  1  0
 26 28  1  0
 26 18  1  0
 26 27  1  0
 29 26  1  0
  1 30  1  6
  2 31  1  0
  2 32  1  0
  3 33  1  0
  3 34  1  0
  4 35  1  0
  4 36  1  0
  5 37  1  1
  6 38  1  0
  7 39  1  0
  8 40  1  0
 15 41  1  0
 16 42  1  0
 21 43  1  0
 22 44  1  0
 23 45  1  0
 24 46  1  0
M  ISO  8  30  13  31  13  32  13  33  13  34  13  35  13  36  13  37  13
M  ISO  8  38  14  39  14  40  14  41  14  42  14  43  14  44  14  45  14
M  ISO  1  46  14
M  END
>  <minimizedAffinity>  (1) 
-5.51487303

>  <minimizedRMSD>  (1) 
2.08205891

$$$$
