
     RDKit          3D

 47 50  0  0  1  0  0  0  0  0999 V2000
   40.6590   24.8600   34.2380 C   0  0  0  0  0  0  0  0  0  0  0  0
   41.8660   24.7090   34.3700 O   0  0  0  0  0  0  0  0  0  0  0  0
   38.5200   25.4160   35.3110 C   0  0  1  0  0  0  0  0  0  0  0  0
   37.6110   26.5160   35.3300 C   0  0  0  0  0  0  0  0  0  0  0  0
   38.1930   27.5160   34.3260 C   0  0  0  0  0  0  0  0  0  0  0  0
   39.5360   26.9710   33.8620 C   0  0  0  0  0  0  0  0  0  0  0  0
   39.8940   25.9560   34.9040 C   0  0  2  0  0  0  0  0  0  0  0  0
   39.5010   22.8820   37.8030 C   0  0  0  0  0  0  0  0  0  0  0  0
   38.7610   23.2970   38.9570 C   0  0  0  0  0  0  0  0  0  0  0  0
   37.9370   24.4270   38.8820 C   0  0  0  0  0  0  0  0  0  0  0  0
   37.9190   25.0400   37.6760 N   0  0  0  0  0  0  0  0  0  0  0  0
   38.6290   24.6250   36.6010 C   0  0  0  0  0  0  0  0  0  0  0  0
   39.4190   23.5500   36.6550 N   0  0  0  0  0  0  0  0  0  0  0  0
   39.9890   23.8800   33.3680 C   0  0  0  0  0  0  0  0  0  0  0  0
   40.1890   22.5270   33.5470 C   0  0  0  0  0  0  0  0  0  0  0  0
   39.6200   21.5300   32.8100 C   0  0  0  0  0  0  0  0  0  0  0  0
   38.7600   21.8830   31.7850 C   0  0  0  0  0  0  0  0  0  0  0  0
   38.5500   23.2150   31.5920 C   0  0  0  0  0  0  0  0  0  0  0  0
   39.1440   24.1180   32.3530 N   0  0  0  0  0  0  0  0  0  0  0  0
   38.0910   20.9630   30.9290 N   0  0  0  0  0  0  0  0  0  0  0  0
   38.7860   20.6950   29.8080 C   0  0  0  0  0  0  0  0  0  0  0  0
   38.2270   19.8040   28.8900 C   0  0  0  0  0  0  0  0  0  0  0  0
   36.9870   19.2270   29.1540 C   0  0  0  0  0  0  0  0  0  0  0  0
   36.4290   18.4220   28.3770 O   0  0  0  0  0  0  0  0  0  0  0  0
   36.3630   19.5630   30.3150 N   0  0  0  0  0  0  0  0  0  0  0  0
   36.8920   20.4180   31.2030 C   0  0  0  0  0  0  0  0  0  0  0  0
   36.3160   20.7310   32.2830 O   0  0  0  0  0  0  0  0  0  0  0  0
   37.6620   23.7890   30.5450 C   0  0  0  0  0  0  0  0  0  0  0  0
   36.4030   23.1780   30.5590 F   0  0  0  0  0  0  0  0  0  0  0  0
   37.4240   25.1310   30.7520 F   0  0  0  0  0  0  0  0  0  0  0  0
   38.1960   23.5110   29.3020 F   0  0  0  0  0  0  0  0  0  0  0  0
   38.1190   24.6892   34.5892 H   0  0  0  0  0  0  0  0  0  0  0  0
   36.6059   26.1945   35.0196 H   0  0  0  0  0  0  0  0  0  0  0  0
   37.5020   26.9496   36.3350 H   0  0  0  0  0  0  0  0  0  0  0  0
   37.5144   27.6234   33.4669 H   0  0  0  0  0  0  0  0  0  0  0  0
   38.3167   28.5047   34.7920 H   0  0  0  0  0  0  0  0  0  0  0  0
   39.4461   26.5001   32.8719 H   0  0  0  0  0  0  0  0  0  0  0  0
   40.2985   27.7568   33.7564 H   0  0  0  0  0  0  0  0  0  0  0  0
   40.4906   26.3471   35.7414 H   0  0  0  0  0  0  0  0  0  0  0  0
   40.1487   21.9952   37.8668 H   0  0  0  0  0  0  0  0  0  0  0  0
   38.8394   22.7312   39.8971 H   0  0  0  0  0  0  0  0  0  0  0  0
   37.3491   24.7886   39.7385 H   0  0  0  0  0  0  0  0  0  0  0  0
   40.8687   22.2246   34.3573 H   0  0  0  0  0  0  0  0  0  0  0  0
   39.8390   20.4736   33.0248 H   0  0  0  0  0  0  0  0  0  0  0  0
   39.7636   21.1632   29.6210 H   0  0  0  0  0  0  0  0  0  0  0  0
   38.7638   19.5586   27.9617 H   0  0  0  0  0  0  0  0  0  0  0  0
   35.4453   19.1431   30.5211 H   0  0  0  0  0  0  0  0  0  0  0  0
  1  2  2  0
  1  7  1  0
  3  4  1  0
  3 12  1  0
  5  4  1  0
  6  5  1  0
  6  7  1  0
  7  3  1  0
  8  9  2  0
 10  9  1  0
 11 10  2  0
 12 13  2  0
 12 11  1  0
 13  8  1  0
 14 15  2  0
 14  1  1  0
 16 15  1  0
 17 16  2  0
 18 17  1  0
 18 19  2  0
 19 14  1  0
 20 26  1  0
 20 17  1  0
 21 20  1  0
 22 23  1  0
 22 21  2  0
 23 25  1  0
 24 23  2  0
 25 26  1  0
 26 27  2  0
 28 29  1  0
 28 30  1  0
 28 18  1  0
 31 28  1  0
  3 32  1  6
  4 33  1  0
  4 34  1  0
  5 35  1  0
  5 36  1  0
  6 37  1  0
  6 38  1  0
  7 39  1  1
  8 40  1  0
  9 41  1  0
 10 42  1  0
 15 43  1  0
 16 44  1  0
 21 45  1  0
 22 46  1  0
 25 47  1  0
M  ISO  8  32  13  33  13  34  13  35  13  36  13  37  13  38  13  39  13
M  ISO  8  40  14  41  14  42  14  43  14  44  14  45  14  46  14  47   9
M  END
>  <minimizedAffinity>  (1) 
-5.49533987

>  <minimizedRMSD>  (1) 
1.50334036

$$$$
