
     RDKit          3D

 51 54  0  0  1  0  0  0  0  0999 V2000
   38.2040   25.3940   35.1730 C   0  0  1  0  0  0  0  0  0  0  0  0
   37.2340   26.4400   35.2370 C   0  0  0  0  0  0  0  0  0  0  0  0
   37.6780   27.4430   34.1670 C   0  0  0  0  0  0  0  0  0  0  0  0
   39.0120   26.9590   33.6090 C   0  0  0  0  0  0  0  0  0  0  0  0
   39.5100   25.9980   34.6460 C   0  0  2  0  0  0  0  0  0  0  0  0
   39.4460   22.9380   37.6290 C   0  0  0  0  0  0  0  0  0  0  0  0
   38.8550   23.4050   38.8490 C   0  0  0  0  0  0  0  0  0  0  0  0
   38.0430   24.5450   38.8220 C   0  0  0  0  0  0  0  0  0  0  0  0
   37.8760   25.1290   37.6050 N   0  0  0  0  0  0  0  0  0  0  0  0
   38.4570   24.6500   36.4720 C   0  0  0  0  0  0  0  0  0  0  0  0
   39.2350   23.5660   36.4720 N   0  0  0  0  0  0  0  0  0  0  0  0
   40.2790   24.9250   33.9520 C   0  0  0  0  0  0  0  0  0  0  0  0
   41.5020   24.9240   33.8820 O   0  0  0  0  0  0  0  0  0  0  0  0
   39.6040   23.7950   33.3030 C   0  0  0  0  0  0  0  0  0  0  0  0
   40.2570   22.5900   33.1310 C   0  0  0  0  0  0  0  0  0  0  0  0
   39.7310   21.4740   32.5490 C   0  0  0  0  0  0  0  0  0  0  0  0
   38.4270   21.5290   32.0840 C   0  0  0  0  0  0  0  0  0  0  0  0
   37.7620   22.7120   32.2440 C   0  0  0  0  0  0  0  0  0  0  0  0
   38.3500   23.7450   32.8190 N   0  0  0  0  0  0  0  0  0  0  0  0
   37.7770   20.4300   31.4630 N   0  0  0  0  0  0  0  0  0  0  0  0
   37.7320   19.9990   30.0790 C   0  0  0  0  0  0  0  0  0  0  0  0
   36.2950   19.4940   29.8770 C   0  0  0  0  0  0  0  0  0  0  0  0
   36.0740   18.2850   30.6440 N   0  0  0  0  0  0  0  0  0  0  0  0
   36.9590   18.2190   31.7920 C   0  0  0  0  0  0  0  0  0  0  0  0
   37.0320   19.6100   32.4200 C   0  0  0  0  0  0  0  0  0  0  0  0
   36.3680   22.9570   31.8120 C   0  0  0  0  0  0  0  0  0  0  0  0
   35.4680   22.0950   32.4560 F   0  0  0  0  0  0  0  0  0  0  0  0
   35.9430   24.2310   32.1490 F   0  0  0  0  0  0  0  0  0  0  0  0
   36.2630   22.6830   30.4590 F   0  0  0  0  0  0  0  0  0  0  0  0
   37.7940   24.6255   34.5012 H   0  0  0  0  0  0  0  0  0  0  0  0
   36.2292   26.0524   35.0131 H   0  0  0  0  0  0  0  0  0  0  0  0
   37.1753   26.8946   36.2369 H   0  0  0  0  0  0  0  0  0  0  0  0
   36.9293   27.4896   33.3625 H   0  0  0  0  0  0  0  0  0  0  0  0
   37.7814   28.4493   34.5990 H   0  0  0  0  0  0  0  0  0  0  0  0
   38.8714   26.4533   32.6423 H   0  0  0  0  0  0  0  0  0  0  0  0
   39.7167   27.7824   33.4209 H   0  0  0  0  0  0  0  0  0  0  0  0
   40.1475   26.4483   35.4211 H   0  0  0  0  0  0  0  0  0  0  0  0
   40.0863   22.0437   37.6480 H   0  0  0  0  0  0  0  0  0  0  0  0
   39.0375   22.8739   39.7948 H   0  0  0  0  0  0  0  0  0  0  0  0
   37.5685   24.9445   39.7304 H   0  0  0  0  0  0  0  0  0  0  0  0
   41.2928   22.5245   33.4956 H   0  0  0  0  0  0  0  0  0  0  0  0
   40.3266   20.5544   32.4514 H   0  0  0  0  0  0  0  0  0  0  0  0
   37.9467   20.8399   29.4032 H   0  0  0  0  0  0  0  0  0  0  0  0
   38.4813   19.2244   29.8587 H   0  0  0  0  0  0  0  0  0  0  0  0
   35.5882   20.2686   30.2091 H   0  0  0  0  0  0  0  0  0  0  0  0
   36.1398   19.2743   28.8104 H   0  0  0  0  0  0  0  0  0  0  0  0
   35.0977   18.2695   30.9718 H   0  0  0  0  0  0  0  0  0  0  0  0
   36.5648   17.4998   32.5251 H   0  0  0  0  0  0  0  0  0  0  0  0
   37.9613   17.8901   31.4803 H   0  0  0  0  0  0  0  0  0  0  0  0
   37.5592   19.5696   33.3846 H   0  0  0  0  0  0  0  0  0  0  0  0
   36.0317   20.0216   32.6198 H   0  0  0  0  0  0  0  0  0  0  0  0
  1  2  1  0
  1 10  1  0
  3  2  1  0
  4  3  1  0
  4  5  1  0
  5  1  1  0
  6  7  2  0
  8  7  1  0
  9  8  2  0
 10  9  1  0
 11 10  2  0
 11  6  1  0
 12  5  1  0
 13 12  2  0
 14 12  1  0
 15 14  2  0
 16 15  1  0
 17 18  1  0
 17 16  2  0
 18 19  2  0
 19 14  1  0
 20 17  1  0
 20 25  1  0
 21 20  1  0
 22 21  1  0
 22 23  1  0
 23 24  1  0
 24 25  1  0
 26 28  1  0
 26 18  1  0
 26 27  1  0
 29 26  1  0
  1 30  1  6
  2 31  1  0
  2 32  1  0
  3 33  1  0
  3 34  1  0
  4 35  1  0
  4 36  1  0
  5 37  1  1
  6 38  1  0
  7 39  1  0
  8 40  1  0
 15 41  1  0
 16 42  1  0
 21 43  1  0
 21 44  1  0
 22 45  1  0
 22 46  1  0
 23 47  1  0
 24 48  1  0
 24 49  1  0
 25 50  1  0
 25 51  1  0
M  ISO  8  30  13  31  13  32  13  33  13  34  13  35  13  36  13  37  13
M  ISO  8  38  14  39  14  40  14  41  14  42  14  43  13  44  13  45  13
M  ISO  6  46  13  47   5  48  13  49  13  50  13  51  13
M  END
>  <minimizedAffinity>  (1) 
-5.43011665

>  <minimizedRMSD>  (1) 
2.18771195

$$$$
