
     RDKit          3D

 47 50  0  0  1  0  0  0  0  0999 V2000
   40.6810   24.8590   34.2700 C   0  0  0  0  0  0  0  0  0  0  0  0
   41.8790   24.6710   34.4600 O   0  0  0  0  0  0  0  0  0  0  0  0
   38.5480   25.4180   35.3430 C   0  0  1  0  0  0  0  0  0  0  0  0
   37.6370   26.5170   35.3680 C   0  0  0  0  0  0  0  0  0  0  0  0
   38.2370   27.5310   34.3890 C   0  0  0  0  0  0  0  0  0  0  0  0
   39.5760   26.9870   33.9190 C   0  0  0  0  0  0  0  0  0  0  0  0
   39.9220   25.9530   34.9440 C   0  0  2  0  0  0  0  0  0  0  0  0
   39.5030   22.8530   37.8150 C   0  0  0  0  0  0  0  0  0  0  0  0
   38.7540   23.2680   38.9690 C   0  0  0  0  0  0  0  0  0  0  0  0
   37.9330   24.4080   38.8970 C   0  0  0  0  0  0  0  0  0  0  0  0
   37.9290   25.0280   37.6970 N   0  0  0  0  0  0  0  0  0  0  0  0
   38.6430   24.6160   36.6270 C   0  0  0  0  0  0  0  0  0  0  0  0
   39.4290   23.5360   36.6750 N   0  0  0  0  0  0  0  0  0  0  0  0
   40.0290   23.9380   33.3310 C   0  0  0  0  0  0  0  0  0  0  0  0
   40.1550   22.5660   33.4750 C   0  0  0  0  0  0  0  0  0  0  0  0
   39.5690   21.6190   32.6770 C   0  0  0  0  0  0  0  0  0  0  0  0
   38.7830   22.0630   31.6350 C   0  0  0  0  0  0  0  0  0  0  0  0
   38.6410   23.4010   31.4670 C   0  0  0  0  0  0  0  0  0  0  0  0
   39.2390   24.2510   32.2800 N   0  0  0  0  0  0  0  0  0  0  0  0
   38.2000   21.0380   30.7930 C   0  0  0  0  0  0  0  0  0  0  0  0
   37.0080   20.5820   31.3800 C   0  0  0  0  0  0  0  0  0  0  0  0
   36.2320   19.5840   30.8210 C   0  0  0  0  0  0  0  0  0  0  0  0
   36.6410   18.9970   29.6230 C   0  0  0  0  0  0  0  0  0  0  0  0
   37.8130   19.4490   29.0520 C   0  0  0  0  0  0  0  0  0  0  0  0
   38.5610   20.4320   29.6200 C   0  0  0  0  0  0  0  0  0  0  0  0
   37.8320   24.0230   30.4030 C   0  0  0  0  0  0  0  0  0  0  0  0
   36.5120   23.5920   30.4340 F   0  0  0  0  0  0  0  0  0  0  0  0
   37.7630   25.4040   30.5630 F   0  0  0  0  0  0  0  0  0  0  0  0
   38.3180   23.6750   29.1670 F   0  0  0  0  0  0  0  0  0  0  0  0
   38.1539   24.6988   34.6099 H   0  0  0  0  0  0  0  0  0  0  0  0
   36.6367   26.2011   35.0369 H   0  0  0  0  0  0  0  0  0  0  0  0
   37.5100   26.9337   36.3781 H   0  0  0  0  0  0  0  0  0  0  0  0
   37.5643   27.6638   33.5288 H   0  0  0  0  0  0  0  0  0  0  0  0
   38.3695   28.5066   34.8796 H   0  0  0  0  0  0  0  0  0  0  0  0
   39.4861   26.5341   32.9206 H   0  0  0  0  0  0  0  0  0  0  0  0
   40.3442   27.7691   33.8281 H   0  0  0  0  0  0  0  0  0  0  0  0
   40.5205   26.3305   35.7862 H   0  0  0  0  0  0  0  0  0  0  0  0
   40.1444   21.9613   37.8744 H   0  0  0  0  0  0  0  0  0  0  0  0
   38.8224   22.6959   39.9060 H   0  0  0  0  0  0  0  0  0  0  0  0
   37.3404   24.7666   39.7515 H   0  0  0  0  0  0  0  0  0  0  0  0
   40.7814   22.2047   34.3039 H   0  0  0  0  0  0  0  0  0  0  0  0
   39.7199   20.5450   32.8607 H   0  0  0  0  0  0  0  0  0  0  0  0
   36.6781   21.0386   32.3248 H   0  0  0  0  0  0  0  0  0  0  0  0
   35.3046   19.2570   31.3139 H   0  0  0  0  0  0  0  0  0  0  0  0
   36.0487   18.2002   29.1494 H   0  0  0  0  0  0  0  0  0  0  0  0
   38.1529   18.9997   28.1072 H   0  0  0  0  0  0  0  0  0  0  0  0
   39.4874   20.7510   29.1201 H   0  0  0  0  0  0  0  0  0  0  0  0
  1  2  2  0
  1  7  1  0
  3  4  1  0
  3 12  1  0
  5  4  1  0
  6  5  1  0
  6  7  1  0
  7  3  1  0
  8  9  2  0
 10  9  1  0
 11 10  2  0
 12 13  2  0
 12 11  1  0
 13  8  1  0
 14 15  2  0
 14  1  1  0
 16 15  1  0
 17 16  2  0
 18 17  1  0
 18 19  2  0
 19 14  1  0
 20 21  2  0
 20 17  1  0
 22 21  1  0
 23 22  2  0
 24 25  2  0
 24 23  1  0
 25 20  1  0
 26 27  1  0
 26 28  1  0
 26 18  1  0
 29 26  1  0
  3 30  1  6
  4 31  1  0
  4 32  1  0
  5 33  1  0
  5 34  1  0
  6 35  1  0
  6 36  1  0
  7 37  1  1
  8 38  1  0
  9 39  1  0
 10 40  1  0
 15 41  1  0
 16 42  1  0
 21 43  1  0
 22 44  1  0
 23 45  1  0
 24 46  1  0
 25 47  1  0
M  ISO  8  30  13  31  13  32  13  33  13  34  13  35  13  36  13  37  13
M  ISO  8  38  14  39  14  40  14  41  14  42  14  43  14  44  14  45  14
M  ISO  2  46  14  47  14
M  END
>  <minimizedAffinity>  (1) 
-5.39234543

>  <minimizedRMSD>  (1) 
1.50651491

$$$$
