
     RDKit          3D

 53 56  0  0  1  0  0  0  0  0999 V2000
   38.5390   25.4490   35.3580 C   0  0  1  0  0  0  0  0  0  0  0  0
   37.6430   26.5580   35.3990 C   0  0  0  0  0  0  0  0  0  0  0  0
   38.2350   27.5680   34.4080 C   0  0  0  0  0  0  0  0  0  0  0  0
   39.5720   27.0130   33.9310 C   0  0  0  0  0  0  0  0  0  0  0  0
   39.9190   25.9750   34.9500 C   0  0  2  0  0  0  0  0  0  0  0  0
   39.5080   22.8680   37.8080 C   0  0  0  0  0  0  0  0  0  0  0  0
   38.7580   23.2750   38.9720 C   0  0  0  0  0  0  0  0  0  0  0  0
   37.9360   24.4110   38.9090 C   0  0  0  0  0  0  0  0  0  0  0  0
   37.9260   25.0420   37.7120 N   0  0  0  0  0  0  0  0  0  0  0  0
   38.6430   24.6340   36.6350 C   0  0  0  0  0  0  0  0  0  0  0  0
   39.4310   23.5570   36.6730 N   0  0  0  0  0  0  0  0  0  0  0  0
   40.6610   24.8790   34.2650 C   0  0  0  0  0  0  0  0  0  0  0  0
   41.8640   24.6960   34.4080 O   0  0  0  0  0  0  0  0  0  0  0  0
   39.9810   23.9420   33.3630 C   0  0  0  0  0  0  0  0  0  0  0  0
   40.1170   22.5750   33.5380 C   0  0  0  0  0  0  0  0  0  0  0  0
   39.5200   21.6120   32.7690 C   0  0  0  0  0  0  0  0  0  0  0  0
   38.7000   22.0190   31.7150 C   0  0  0  0  0  0  0  0  0  0  0  0
   38.5610   23.3570   31.5350 C   0  0  0  0  0  0  0  0  0  0  0  0
   39.1710   24.2320   32.3190 N   0  0  0  0  0  0  0  0  0  0  0  0
   38.0440   21.0030   30.8970 C   0  0  0  0  0  0  0  0  0  0  0  0
   36.9240   20.3450   31.7100 C   0  0  0  0  0  0  0  0  0  0  0  0
   36.0800   19.4650   30.8440 C   0  0  0  0  0  0  0  0  0  0  0  0
   36.7440   19.3250   29.4960 C   0  0  0  0  0  0  0  0  0  0  0  0
   38.1960   18.9870   29.5690 C   0  0  0  0  0  0  0  0  0  0  0  0
   38.9830   19.8270   30.5540 C   0  0  0  0  0  0  0  0  0  0  0  0
   37.7370   23.9650   30.4730 C   0  0  0  0  0  0  0  0  0  0  0  0
   36.4230   23.5050   30.5030 F   0  0  0  0  0  0  0  0  0  0  0  0
   37.6290   25.3430   30.6380 F   0  0  0  0  0  0  0  0  0  0  0  0
   38.2510   23.6440   29.2280 F   0  0  0  0  0  0  0  0  0  0  0  0
   38.1252   24.7401   34.6257 H   0  0  0  0  0  0  0  0  0  0  0  0
   36.6331   26.2535   35.0869 H   0  0  0  0  0  0  0  0  0  0  0  0
   37.5415   26.9761   36.4114 H   0  0  0  0  0  0  0  0  0  0  0  0
   37.5555   27.6973   33.5527 H   0  0  0  0  0  0  0  0  0  0  0  0
   38.3719   28.5477   34.8890 H   0  0  0  0  0  0  0  0  0  0  0  0
   39.4741   26.5626   32.9322 H   0  0  0  0  0  0  0  0  0  0  0  0
   40.3444   27.7909   33.8401 H   0  0  0  0  0  0  0  0  0  0  0  0
   40.5277   26.3438   35.7887 H   0  0  0  0  0  0  0  0  0  0  0  0
   40.1511   21.9771   37.8602 H   0  0  0  0  0  0  0  0  0  0  0  0
   38.8303   22.6970   39.9051 H   0  0  0  0  0  0  0  0  0  0  0  0
   37.3447   24.7618   39.7677 H   0  0  0  0  0  0  0  0  0  0  0  0
   40.7584   22.2341   34.3641 H   0  0  0  0  0  0  0  0  0  0  0  0
   39.6825   20.5441   32.9766 H   0  0  0  0  0  0  0  0  0  0  0  0
   37.7023   21.5210   29.9888 H   0  0  0  0  0  0  0  0  0  0  0  0
   37.3701   19.7391   32.5124 H   0  0  0  0  0  0  0  0  0  0  0  0
   36.2869   21.1355   32.1333 H   0  0  0  0  0  0  0  0  0  0  0  0
   35.9795   18.4741   31.3109 H   0  0  0  0  0  0  0  0  0  0  0  0
   35.0806   19.9085   30.7232 H   0  0  0  0  0  0  0  0  0  0  0  0
   36.6369   20.2777   28.9566 H   0  0  0  0  0  0  0  0  0  0  0  0
   36.2473   18.4896   28.9807 H   0  0  0  0  0  0  0  0  0  0  0  0
   38.2896   17.9316   29.8645 H   0  0  0  0  0  0  0  0  0  0  0  0
   38.6174   19.1913   28.5737 H   0  0  0  0  0  0  0  0  0  0  0  0
   39.2229   19.2453   31.4562 H   0  0  0  0  0  0  0  0  0  0  0  0
   39.9438   20.1664   30.1397 H   0  0  0  0  0  0  0  0  0  0  0  0
  1  2  1  0
  1 10  1  0
  3  2  1  0
  4  3  1  0
  4  5  1  0
  5  1  1  0
  6  7  2  0
  8  7  1  0
  9  8  2  0
 10 11  2  0
 10  9  1  0
 11  6  1  0
 12 13  2  0
 12  5  1  0
 14 15  2  0
 14 12  1  0
 16 15  1  0
 17 16  2  0
 18 17  1  0
 18 19  2  0
 19 14  1  0
 20 21  1  0
 20 17  1  0
 22 21  1  0
 23 24  1  0
 23 22  1  0
 24 25  1  0
 25 20  1  0
 26 27  1  0
 26 28  1  0
 26 18  1  0
 29 26  1  0
  1 30  1  6
  2 31  1  0
  2 32  1  0
  3 33  1  0
  3 34  1  0
  4 35  1  0
  4 36  1  0
  5 37  1  1
  6 38  1  0
  7 39  1  0
  8 40  1  0
 15 41  1  0
 16 42  1  0
 20 43  1  0
 21 44  1  0
 21 45  1  0
 22 46  1  0
 22 47  1  0
 23 48  1  0
 23 49  1  0
 24 50  1  0
 24 51  1  0
 25 52  1  0
 25 53  1  0
M  ISO  8  30  13  31  13  32  13  33  13  34  13  35  13  36  13  37  13
M  ISO  8  38  14  39  14  40  14  41  14  42  14  43  13  44  13  45  13
M  ISO  8  46  13  47  13  48  13  49  13  50  13  51  13  52  13  53  13
M  END
>  <minimizedAffinity>  (1) 
-5.27620888

>  <minimizedRMSD>  (1) 
1.78944814

$$$$
