
     RDKit          3D

 21 21  0  0  1  0  0  0  0  0999 V2000
   38.8960   25.6740   34.9490 C   0  0  2  0  0  0  0  0  0  0  0  0
   39.6230   22.9270   37.2560 C   0  0  0  0  0  0  0  0  0  0  0  0
   38.7770   23.1740   38.3580 C   0  0  0  0  0  0  0  0  0  0  0  0
   37.9560   24.2970   38.2920 C   0  0  0  0  0  0  0  0  0  0  0  0
   38.0160   25.0960   37.1690 N   0  0  0  0  0  0  0  0  0  0  0  0
   38.8450   24.8130   36.1430 C   0  0  0  0  0  0  0  0  0  0  0  0
   39.6510   23.7370   36.1710 N   0  0  0  0  0  0  0  0  0  0  0  0
   39.0020   27.1120   35.3930 C   0  0  0  0  0  0  0  0  0  0  0  0
   37.6710   25.5510   34.0730 C   0  0  0  0  0  0  0  0  0  0  0  0
   37.0480   26.8350   34.0140 N   0  0  0  0  0  0  0  0  0  0  0  0
   39.7666   25.3514   34.3591 H   0  0  0  0  0  0  0  0  0  0  0  0
   40.2821   22.0467   37.2790 H   0  0  0  0  0  0  0  0  0  0  0  0
   38.7664   22.5073   39.2328 H   0  0  0  0  0  0  0  0  0  0  0  0
   37.2732   24.5420   39.1189 H   0  0  0  0  0  0  0  0  0  0  0  0
   39.0053   27.1571   36.4921 H   0  0  0  0  0  0  0  0  0  0  0  0
   39.9347   27.5476   35.0053 H   0  0  0  0  0  0  0  0  0  0  0  0
   38.1433   27.6797   35.0053 H   0  0  0  0  0  0  0  0  0  0  0  0
   37.9639   25.2300   33.0625 H   0  0  0  0  0  0  0  0  0  0  0  0
   36.9762   24.8045   34.4853 H   0  0  0  0  0  0  0  0  0  0  0  0
   36.8807   27.1797   34.9701 H   0  0  0  0  0  0  0  0  0  0  0  0
   37.6636   27.4927   33.5147 H   0  0  0  0  0  0  0  0  0  0  0  0
  1  8  1  0
  1  6  1  0
  2  3  2  0
  4  3  1  0
  5  4  2  0
  6  7  2  0
  6  5  1  0
  7  2  1  0
  9  1  1  0
 10  9  1  0
  1 11  1  6
  2 12  1  0
  3 13  1  0
  4 14  1  0
  8 15  1  0
  8 16  1  0
  8 17  1  0
  9 18  1  0
  9 19  1  0
 10 20  1  0
 10 21  1  0
M  ISO  8  11   8  12  14  13  14  14  14  15   8  16   8  17   8  18   8
M  ISO  3  19   8  20   5  21   5
M  END
>  <minimizedAffinity>  (1) 
-3.19972253

>  <minimizedRMSD>  (1) 
0.388846189

$$$$
