
     RDKit          3D

 45 48  0  0  1  0  0  0  0  0999 V2000
   38.5290   25.4340   35.3310 C   0  0  1  0  0  0  0  0  0  0  0  0
   37.6270   26.5400   35.3620 C   0  0  0  0  0  0  0  0  0  0  0  0
   38.2120   27.5450   34.3680 C   0  0  0  0  0  0  0  0  0  0  0  0
   39.5600   27.0020   33.9050 C   0  0  0  0  0  0  0  0  0  0  0  0
   39.9070   25.9670   34.9250 C   0  0  2  0  0  0  0  0  0  0  0  0
   39.5020   22.8740   37.8020 C   0  0  0  0  0  0  0  0  0  0  0  0
   38.7640   23.2830   38.9620 C   0  0  0  0  0  0  0  0  0  0  0  0
   37.9390   24.4250   38.8920 C   0  0  0  0  0  0  0  0  0  0  0  0
   37.9230   25.0460   37.6900 N   0  0  0  0  0  0  0  0  0  0  0  0
   38.6330   24.6310   36.6160 C   0  0  0  0  0  0  0  0  0  0  0  0
   39.4200   23.5530   36.6610 N   0  0  0  0  0  0  0  0  0  0  0  0
   40.6630   24.8760   34.2520 C   0  0  0  0  0  0  0  0  0  0  0  0
   41.8690   24.7090   34.3910 O   0  0  0  0  0  0  0  0  0  0  0  0
   39.9930   23.9200   33.3670 C   0  0  0  0  0  0  0  0  0  0  0  0
   40.1380   22.5550   33.5570 C   0  0  0  0  0  0  0  0  0  0  0  0
   39.5510   21.5760   32.8090 C   0  0  0  0  0  0  0  0  0  0  0  0
   38.7280   21.9550   31.7550 C   0  0  0  0  0  0  0  0  0  0  0  0
   38.5740   23.2830   31.5510 C   0  0  0  0  0  0  0  0  0  0  0  0
   39.1770   24.1810   32.3190 N   0  0  0  0  0  0  0  0  0  0  0  0
   38.0700   20.9650   30.9510 C   0  0  0  0  0  0  0  0  0  0  0  0
   36.8930   20.4030   31.3950 C   0  0  0  0  0  0  0  0  0  0  0  0
   36.1630   19.4430   30.7260 C   0  0  0  0  0  0  0  0  0  0  0  0
   36.6230   18.9940   29.5190 N   0  0  0  0  0  0  0  0  0  0  0  0
   37.7700   19.5260   29.0610 C   0  0  0  0  0  0  0  0  0  0  0  0
   38.3880   20.4320   29.7730 N   0  0  0  0  0  0  0  0  0  0  0  0
   37.7480   23.8730   30.4740 C   0  0  0  0  0  0  0  0  0  0  0  0
   36.4470   23.4100   30.5100 F   0  0  0  0  0  0  0  0  0  0  0  0
   37.6380   25.2550   30.6100 F   0  0  0  0  0  0  0  0  0  0  0  0
   38.2830   23.5400   29.2350 F   0  0  0  0  0  0  0  0  0  0  0  0
   38.1231   24.7164   34.6027 H   0  0  0  0  0  0  0  0  0  0  0  0
   36.6193   26.2278   35.0505 H   0  0  0  0  0  0  0  0  0  0  0  0
   37.5232   26.9647   36.3714 H   0  0  0  0  0  0  0  0  0  0  0  0
   37.5369   27.6577   33.5069 H   0  0  0  0  0  0  0  0  0  0  0  0
   38.3336   28.5308   34.8407 H   0  0  0  0  0  0  0  0  0  0  0  0
   39.4767   26.5518   32.9048 H   0  0  0  0  0  0  0  0  0  0  0  0
   40.3257   27.7875   33.8239 H   0  0  0  0  0  0  0  0  0  0  0  0
   40.5094   26.3420   35.7655 H   0  0  0  0  0  0  0  0  0  0  0  0
   40.1464   21.9842   37.8568 H   0  0  0  0  0  0  0  0  0  0  0  0
   38.8408   22.7109   39.8984 H   0  0  0  0  0  0  0  0  0  0  0  0
   37.3524   24.7839   39.7506 H   0  0  0  0  0  0  0  0  0  0  0  0
   40.7848   22.2313   34.3858 H   0  0  0  0  0  0  0  0  0  0  0  0
   39.7249   20.5135   33.0346 H   0  0  0  0  0  0  0  0  0  0  0  0
   36.5031   20.7488   32.3637 H   0  0  0  0  0  0  0  0  0  0  0  0
   35.2304   19.0469   31.1543 H   0  0  0  0  0  0  0  0  0  0  0  0
   38.1849   19.2016   28.0953 H   0  0  0  0  0  0  0  0  0  0  0  0
  1  2  1  0
  1 10  1  0
  3  2  1  0
  4  3  1  0
  4  5  1  0
  5  1  1  0
  6  7  2  0
  8  7  1  0
  9  8  2  0
 10 11  2  0
 10  9  1  0
 11  6  1  0
 12 13  2  0
 12  5  1  0
 14 15  2  0
 14 12  1  0
 16 15  1  0
 17 16  2  0
 18 17  1  0
 18 19  2  0
 19 14  1  0
 20 21  2  0
 20 17  1  0
 22 21  1  0
 23 22  2  0
 24 23  1  0
 24 25  2  0
 25 20  1  0
 26 27  1  0
 26 28  1  0
 26 18  1  0
 29 26  1  0
  1 30  1  6
  2 31  1  0
  2 32  1  0
  3 33  1  0
  3 34  1  0
  4 35  1  0
  4 36  1  0
  5 37  1  1
  6 38  1  0
  7 39  1  0
  8 40  1  0
 15 41  1  0
 16 42  1  0
 21 43  1  0
 22 44  1  0
 24 45  1  0
M  ISO  8  30  13  31  13  32  13  33  13  34  13  35  13  36  13  37  13
M  ISO  8  38  14  39  14  40  14  41  14  42  14  43  14  44  14  45  14
M  END
>  <minimizedAffinity>  (1) 
-5.21566057

>  <minimizedRMSD>  (1) 
1.39958811

$$$$
