
     RDKit          3D

 52 55  0  0  1  0  0  0  0  0999 V2000
   38.5440   25.4180   35.3430 C   0  0  1  0  0  0  0  0  0  0  0  0
   37.6400   26.5230   35.3720 C   0  0  0  0  0  0  0  0  0  0  0  0
   38.2240   27.5310   34.3770 C   0  0  0  0  0  0  0  0  0  0  0  0
   39.5680   26.9890   33.9180 C   0  0  0  0  0  0  0  0  0  0  0  0
   39.9220   25.9570   34.9410 C   0  0  2  0  0  0  0  0  0  0  0  0
   39.5050   22.8570   37.8130 C   0  0  0  0  0  0  0  0  0  0  0  0
   38.7510   23.2690   38.9700 C   0  0  0  0  0  0  0  0  0  0  0  0
   37.9290   24.4010   38.8940 C   0  0  0  0  0  0  0  0  0  0  0  0
   37.9310   25.0120   37.6960 N   0  0  0  0  0  0  0  0  0  0  0  0
   38.6370   24.6160   36.6270 C   0  0  0  0  0  0  0  0  0  0  0  0
   39.4310   23.5350   36.6750 N   0  0  0  0  0  0  0  0  0  0  0  0
   40.6820   24.8700   34.2730 C   0  0  0  0  0  0  0  0  0  0  0  0
   41.8780   24.6810   34.4560 O   0  0  0  0  0  0  0  0  0  0  0  0
   40.0280   23.9450   33.3370 C   0  0  0  0  0  0  0  0  0  0  0  0
   40.1810   22.5770   33.4770 C   0  0  0  0  0  0  0  0  0  0  0  0
   39.6190   21.6240   32.6800 C   0  0  0  0  0  0  0  0  0  0  0  0
   38.8140   22.0500   31.6230 C   0  0  0  0  0  0  0  0  0  0  0  0
   38.6510   23.3890   31.4690 C   0  0  0  0  0  0  0  0  0  0  0  0
   39.2360   24.2380   32.2900 N   0  0  0  0  0  0  0  0  0  0  0  0
   38.1960   21.0910   30.7830 N   0  0  0  0  0  0  0  0  0  0  0  0
   38.4960   20.4930   29.5020 C   0  0  0  0  0  0  0  0  0  0  0  0
   38.5280   19.0000   29.5130 C   0  0  0  0  0  0  0  0  0  0  0  0
   37.4110   18.4940   30.3940 C   0  0  0  0  0  0  0  0  0  0  0  0
   36.3800   19.5840   30.5890 C   0  0  0  0  0  0  0  0  0  0  0  0
   36.9840   20.6810   31.4650 C   0  0  0  0  0  0  0  0  0  0  0  0
   37.8390   24.0090   30.4050 C   0  0  0  0  0  0  0  0  0  0  0  0
   36.5210   23.5750   30.4270 F   0  0  0  0  0  0  0  0  0  0  0  0
   37.7660   25.3910   30.5610 F   0  0  0  0  0  0  0  0  0  0  0  0
   38.3580   23.6690   29.1640 F   0  0  0  0  0  0  0  0  0  0  0  0
   38.1489   24.6970   34.6122 H   0  0  0  0  0  0  0  0  0  0  0  0
   36.6333   26.2086   35.0596 H   0  0  0  0  0  0  0  0  0  0  0  0
   37.5352   26.9480   36.3812 H   0  0  0  0  0  0  0  0  0  0  0  0
   37.5495   27.6429   33.5153 H   0  0  0  0  0  0  0  0  0  0  0  0
   38.3432   28.5178   34.8482 H   0  0  0  0  0  0  0  0  0  0  0  0
   39.4841   26.5347   32.9197 H   0  0  0  0  0  0  0  0  0  0  0  0
   40.3315   27.7765   33.8353 H   0  0  0  0  0  0  0  0  0  0  0  0
   40.5229   26.3361   35.7808 H   0  0  0  0  0  0  0  0  0  0  0  0
   40.1505   21.9684   37.8742 H   0  0  0  0  0  0  0  0  0  0  0  0
   38.8205   22.6979   39.9076 H   0  0  0  0  0  0  0  0  0  0  0  0
   37.3311   24.7605   39.7444 H   0  0  0  0  0  0  0  0  0  0  0  0
   40.8131   22.2266   34.3062 H   0  0  0  0  0  0  0  0  0  0  0  0
   39.7946   20.5539   32.8644 H   0  0  0  0  0  0  0  0  0  0  0  0
   39.4813   20.8563   29.1745 H   0  0  0  0  0  0  0  0  0  0  0  0
   37.6841   20.7856   28.8200 H   0  0  0  0  0  0  0  0  0  0  0  0
   38.3923   18.6201   28.4897 H   0  0  0  0  0  0  0  0  0  0  0  0
   39.4963   18.6505   29.9007 H   0  0  0  0  0  0  0  0  0  0  0  0
   36.9365   17.6230   29.9184 H   0  0  0  0  0  0  0  0  0  0  0  0
   37.8223   18.2032   31.3719 H   0  0  0  0  0  0  0  0  0  0  0  0
   36.0969   20.0043   29.6127 H   0  0  0  0  0  0  0  0  0  0  0  0
   35.4840   19.1690   31.0738 H   0  0  0  0  0  0  0  0  0  0  0  0
   37.2187   20.2894   32.4658 H   0  0  0  0  0  0  0  0  0  0  0  0
   36.2889   21.5216   31.6072 H   0  0  0  0  0  0  0  0  0  0  0  0
  1  2  1  0
  1 10  1  0
  3  2  1  0
  4  3  1  0
  4  5  1  0
  5  1  1  0
  6  7  2  0
  8  7  1  0
  9  8  2  0
 10 11  2  0
 10  9  1  0
 11  6  1  0
 12 13  2  0
 12  5  1  0
 14 15  2  0
 14 12  1  0
 16 15  1  0
 17 16  2  0
 18 17  1  0
 18 19  2  0
 19 14  1  0
 20 25  1  0
 20 17  1  0
 21 22  1  0
 21 20  1  0
 22 23  1  0
 23 24  1  0
 24 25  1  0
 26 27  1  0
 26 28  1  0
 26 18  1  0
 29 26  1  0
  1 30  1  6
  2 31  1  0
  2 32  1  0
  3 33  1  0
  3 34  1  0
  4 35  1  0
  4 36  1  0
  5 37  1  1
  6 38  1  0
  7 39  1  0
  8 40  1  0
 15 41  1  0
 16 42  1  0
 21 43  1  0
 21 44  1  0
 22 45  1  0
 22 46  1  0
 23 47  1  0
 23 48  1  0
 24 49  1  0
 24 50  1  0
 25 51  1  0
 25 52  1  0
M  ISO  8  30  13  31  13  32  13  33  13  34  13  35  13  36  13  37  13
M  ISO  8  38  14  39  14  40  14  41  14  42  14  43  13  44  13  45  13
M  ISO  7  46  13  47  13  48  13  49  13  50  13  51  13  52  13
M  END
>  <minimizedAffinity>  (1) 
-5.05177355

>  <minimizedRMSD>  (1) 
1.16388643

$$$$
