
     RDKit          3D

 44 47  0  0  1  0  0  0  0  0999 V2000
   38.3620   25.4380   35.2610 C   0  0  1  0  0  0  0  0  0  0  0  0
   37.3070   26.4010   35.2650 C   0  0  0  0  0  0  0  0  0  0  0  0
   37.7730   27.4850   34.2900 C   0  0  0  0  0  0  0  0  0  0  0  0
   39.1970   27.1430   33.8670 C   0  0  0  0  0  0  0  0  0  0  0  0
   39.6610   26.1670   34.9020 C   0  0  2  0  0  0  0  0  0  0  0  0
   39.4470   22.8920   37.7020 C   0  0  0  0  0  0  0  0  0  0  0  0
   38.8070   23.3450   38.9070 C   0  0  0  0  0  0  0  0  0  0  0  0
   38.0070   24.5100   38.8750 C   0  0  0  0  0  0  0  0  0  0  0  0
   37.9200   25.1090   37.6650 N   0  0  0  0  0  0  0  0  0  0  0  0
   38.5360   24.6530   36.5520 C   0  0  0  0  0  0  0  0  0  0  0  0
   39.2980   23.5560   36.5570 N   0  0  0  0  0  0  0  0  0  0  0  0
   40.5880   25.2000   34.2520 C   0  0  0  0  0  0  0  0  0  0  0  0
   41.7910   25.1730   34.4920 O   0  0  0  0  0  0  0  0  0  0  0  0
   40.1070   24.2190   33.2820 C   0  0  0  0  0  0  0  0  0  0  0  0
   40.5190   22.9000   33.3430 C   0  0  0  0  0  0  0  0  0  0  0  0
   40.1330   21.8970   32.5190 C   0  0  0  0  0  0  0  0  0  0  0  0
   39.2280   22.1900   31.4940 C   0  0  0  0  0  0  0  0  0  0  0  0
   38.8120   23.4740   31.4120 C   0  0  0  0  0  0  0  0  0  0  0  0
   39.2390   24.4050   32.2620 N   0  0  0  0  0  0  0  0  0  0  0  0
   38.7290   21.2000   30.5910 C   0  0  0  0  0  0  0  0  0  0  0  0
   37.6740   20.4480   30.9180 C   0  0  0  0  0  0  0  0  0  0  0  0
   37.0800   19.4850   30.2080 C   0  0  0  0  0  0  0  0  0  0  0  0
   37.7460   19.3010   28.9090 C   0  0  0  0  0  0  0  0  0  0  0  0
   39.1050   20.5680   28.9810 S   0  0  0  0  0  0  0  0  0  0  0  0
   37.8690   23.9980   30.3880 C   0  0  0  0  0  0  0  0  0  0  0  0
   36.6490   23.3550   30.4540 F   0  0  0  0  0  0  0  0  0  0  0  0
   37.5900   25.3470   30.5800 F   0  0  0  0  0  0  0  0  0  0  0  0
   38.3990   23.7710   29.1210 F   0  0  0  0  0  0  0  0  0  0  0  0
   38.0925   24.6740   34.5169 H   0  0  0  0  0  0  0  0  0  0  0  0
   36.3656   25.9476   34.9212 H   0  0  0  0  0  0  0  0  0  0  0  0
   37.1093   26.8003   36.2707 H   0  0  0  0  0  0  0  0  0  0  0  0
   37.1146   27.5053   33.4090 H   0  0  0  0  0  0  0  0  0  0  0  0
   37.7392   28.4751   34.7681 H   0  0  0  0  0  0  0  0  0  0  0  0
   39.2080   26.6859   32.8665 H   0  0  0  0  0  0  0  0  0  0  0  0
   39.8434   28.0308   33.8042 H   0  0  0  0  0  0  0  0  0  0  0  0
   40.1756   26.6217   35.7613 H   0  0  0  0  0  0  0  0  0  0  0  0
   40.0683   21.9846   37.7259 H   0  0  0  0  0  0  0  0  0  0  0  0
   38.9389   22.7891   39.8470 H   0  0  0  0  0  0  0  0  0  0  0  0
   37.4940   24.9000   39.7665 H   0  0  0  0  0  0  0  0  0  0  0  0
   41.2310   22.6399   34.1401 H   0  0  0  0  0  0  0  0  0  0  0  0
   40.5219   20.8767   32.6527 H   0  0  0  0  0  0  0  0  0  0  0  0
   37.2349   20.6493   31.9063 H   0  0  0  0  0  0  0  0  0  0  0  0
   36.2088   18.9065   30.5491 H   0  0  0  0  0  0  0  0  0  0  0  0
   37.5023   18.5946   28.1018 H   0  0  0  0  0  0  0  0  0  0  0  0
  1  2  1  0
  1 10  1  0
  3  2  1  0
  4  3  1  0
  4  5  1  0
  5  1  1  0
  6  7  2  0
  8  7  1  0
  9  8  2  0
 10 11  2  0
 10  9  1  0
 11  6  1  0
 12 13  2  0
 12  5  1  0
 14 15  2  0
 14 12  1  0
 16 15  1  0
 17 16  2  0
 18 17  1  0
 18 19  2  0
 19 14  1  0
 20 21  2  0
 20 17  1  0
 22 21  1  0
 23 24  1  0
 23 22  2  0
 24 20  1  0
 25 26  1  0
 25 27  1  0
 25 18  1  0
 28 25  1  0
  1 29  1  6
  2 30  1  0
  2 31  1  0
  3 32  1  0
  3 33  1  0
  4 34  1  0
  4 35  1  0
  5 36  1  1
  6 37  1  0
  7 38  1  0
  8 39  1  0
 15 40  1  0
 16 41  1  0
 21 42  1  0
 22 43  1  0
 23 44  1  0
M  ISO  8  29  13  30  13  31  13  32  13  33  13  34  13  35  13  36  13
M  ISO  8  37  14  38  14  39  14  40  14  41  14  42  14  43  14  44  14
M  END
>  <minimizedAffinity>  (1) 
-4.98163271

>  <minimizedRMSD>  (1) 
0.752767265

$$$$
