
     RDKit          3D

 42 45  0  0  1  0  0  0  0  0999 V2000
   38.5430   25.4290   35.3400 C   0  0  1  0  0  0  0  0  0  0  0  0
   37.6540   26.5440   35.3770 C   0  0  0  0  0  0  0  0  0  0  0  0
   38.2430   27.5420   34.3730 C   0  0  0  0  0  0  0  0  0  0  0  0
   39.5800   26.9850   33.9060 C   0  0  0  0  0  0  0  0  0  0  0  0
   39.9250   25.9500   34.9270 C   0  0  2  0  0  0  0  0  0  0  0  0
   39.5140   22.8680   37.8080 C   0  0  0  0  0  0  0  0  0  0  0  0
   38.7600   23.2730   38.9660 C   0  0  0  0  0  0  0  0  0  0  0  0
   37.9330   24.4020   38.8900 C   0  0  0  0  0  0  0  0  0  0  0  0
   37.9270   25.0220   37.6940 N   0  0  0  0  0  0  0  0  0  0  0  0
   38.6420   24.6250   36.6220 C   0  0  0  0  0  0  0  0  0  0  0  0
   39.4390   23.5470   36.6690 N   0  0  0  0  0  0  0  0  0  0  0  0
   40.6630   24.8470   34.2450 C   0  0  0  0  0  0  0  0  0  0  0  0
   41.8640   24.6580   34.3910 O   0  0  0  0  0  0  0  0  0  0  0  0
   39.9800   23.9120   33.3480 C   0  0  0  0  0  0  0  0  0  0  0  0
   40.1210   22.5450   33.5140 C   0  0  0  0  0  0  0  0  0  0  0  0
   39.5170   21.5770   32.7490 C   0  0  0  0  0  0  0  0  0  0  0  0
   38.6880   21.9870   31.7160 C   0  0  0  0  0  0  0  0  0  0  0  0
   38.5370   23.3240   31.5370 C   0  0  0  0  0  0  0  0  0  0  0  0
   39.1550   24.1980   32.3160 N   0  0  0  0  0  0  0  0  0  0  0  0
   38.0000   21.0130   30.8730 C   0  0  0  0  0  0  0  0  0  0  0  0
   38.6270   20.5250   29.7980 N   0  0  0  0  0  0  0  0  0  0  0  0
   37.8750   19.6790   29.1850 O   0  0  0  0  0  0  0  0  0  0  0  0
   36.7430   19.5790   29.8250 C   0  0  0  0  0  0  0  0  0  0  0  0
   36.8270   20.4110   30.8720 N   0  0  0  0  0  0  0  0  0  0  0  0
   37.6980   23.9310   30.4850 C   0  0  0  0  0  0  0  0  0  0  0  0
   36.4000   23.4570   30.5290 F   0  0  0  0  0  0  0  0  0  0  0  0
   37.5940   25.3090   30.6480 F   0  0  0  0  0  0  0  0  0  0  0  0
   38.2120   23.6160   29.2310 F   0  0  0  0  0  0  0  0  0  0  0  0
   38.1285   24.7151   34.6130 H   0  0  0  0  0  0  0  0  0  0  0  0
   36.6401   26.2424   35.0754 H   0  0  0  0  0  0  0  0  0  0  0  0
   37.5635   26.9720   36.3863 H   0  0  0  0  0  0  0  0  0  0  0  0
   37.5639   27.6572   33.5154 H   0  0  0  0  0  0  0  0  0  0  0  0
   38.3761   28.5290   34.8401 H   0  0  0  0  0  0  0  0  0  0  0  0
   39.4863   26.5320   32.9080 H   0  0  0  0  0  0  0  0  0  0  0  0
   40.3524   27.7633   33.8186 H   0  0  0  0  0  0  0  0  0  0  0  0
   40.5366   26.3206   35.7628 H   0  0  0  0  0  0  0  0  0  0  0  0
   40.1628   21.9817   37.8677 H   0  0  0  0  0  0  0  0  0  0  0  0
   38.8325   22.7009   39.9027 H   0  0  0  0  0  0  0  0  0  0  0  0
   37.3341   24.7551   39.7424 H   0  0  0  0  0  0  0  0  0  0  0  0
   40.7743   22.2037   34.3305 H   0  0  0  0  0  0  0  0  0  0  0  0
   39.6859   20.5088   32.9499 H   0  0  0  0  0  0  0  0  0  0  0  0
   35.8891   18.9389   29.5583 H   0  0  0  0  0  0  0  0  0  0  0  0
  1  2  1  0
  1 10  1  0
  3  2  1  0
  4  3  1  0
  4  5  1  0
  5  1  1  0
  6  7  2  0
  8  7  1  0
  9  8  2  0
 10 11  2  0
 10  9  1  0
 11  6  1  0
 12 13  2  0
 12  5  1  0
 14 15  2  0
 14 12  1  0
 16 15  1  0
 17 16  2  0
 18 17  1  0
 18 19  2  0
 19 14  1  0
 20 17  1  0
 21 20  2  0
 22 21  1  0
 22 23  1  0
 23 24  2  0
 24 20  1  0
 25 26  1  0
 25 27  1  0
 25 18  1  0
 28 25  1  0
  1 29  1  6
  2 30  1  0
  2 31  1  0
  3 32  1  0
  3 33  1  0
  4 34  1  0
  4 35  1  0
  5 36  1  1
  6 37  1  0
  7 38  1  0
  8 39  1  0
 15 40  1  0
 16 41  1  0
 23 42  1  0
M  ISO  8  29  13  30  13  31  13  32  13  33  13  34  13  35  13  36  13
M  ISO  6  37  14  38  14  39  14  40  14  41  14  42  14
M  END
>  <minimizedAffinity>  (1) 
-4.95017004

>  <minimizedRMSD>  (1) 
1.26892388

$$$$
