
     RDKit          3D

 44 47  0  0  1  0  0  0  0  0999 V2000
   38.3410   25.4410   35.2510 C   0  0  1  0  0  0  0  0  0  0  0  0
   37.2770   26.3920   35.2440 C   0  0  0  0  0  0  0  0  0  0  0  0
   37.7370   27.4800   34.2710 C   0  0  0  0  0  0  0  0  0  0  0  0
   39.1620   27.1510   33.8490 C   0  0  0  0  0  0  0  0  0  0  0  0
   39.6320   26.1900   34.8940 C   0  0  2  0  0  0  0  0  0  0  0  0
   39.4260   22.8990   37.6900 C   0  0  0  0  0  0  0  0  0  0  0  0
   38.8060   23.3630   38.8990 C   0  0  0  0  0  0  0  0  0  0  0  0
   38.0260   24.5280   38.8720 C   0  0  0  0  0  0  0  0  0  0  0  0
   37.9300   25.1210   37.6620 N   0  0  0  0  0  0  0  0  0  0  0  0
   38.5240   24.6640   36.5410 C   0  0  0  0  0  0  0  0  0  0  0  0
   39.2750   23.5500   36.5480 N   0  0  0  0  0  0  0  0  0  0  0  0
   40.5740   25.2280   34.2520 C   0  0  0  0  0  0  0  0  0  0  0  0
   41.7830   25.2310   34.4710 O   0  0  0  0  0  0  0  0  0  0  0  0
   40.0960   24.2090   33.3040 C   0  0  0  0  0  0  0  0  0  0  0  0
   40.5420   22.9010   33.3850 C   0  0  0  0  0  0  0  0  0  0  0  0
   40.1640   21.8690   32.5750 C   0  0  0  0  0  0  0  0  0  0  0  0
   39.2490   22.1420   31.5730 C   0  0  0  0  0  0  0  0  0  0  0  0
   38.7960   23.4190   31.4710 C   0  0  0  0  0  0  0  0  0  0  0  0
   39.2160   24.3620   32.3010 N   0  0  0  0  0  0  0  0  0  0  0  0
   38.7540   21.1780   30.6460 N   0  0  0  0  0  0  0  0  0  0  0  0
   39.0790   20.8470   29.4110 N   0  0  0  0  0  0  0  0  0  0  0  0
   38.2900   19.8490   28.9690 C   0  0  0  0  0  0  0  0  0  0  0  0
   37.4070   19.5380   30.0090 C   0  0  0  0  0  0  0  0  0  0  0  0
   37.7200   20.3920   31.0640 C   0  0  0  0  0  0  0  0  0  0  0  0
   37.8120   23.8990   30.4610 C   0  0  0  0  0  0  0  0  0  0  0  0
   36.6450   23.1340   30.5010 F   0  0  0  0  0  0  0  0  0  0  0  0
   37.4170   25.1980   30.7000 F   0  0  0  0  0  0  0  0  0  0  0  0
   38.3460   23.7050   29.1990 F   0  0  0  0  0  0  0  0  0  0  0  0
   38.0806   24.6678   34.5132 H   0  0  0  0  0  0  0  0  0  0  0  0
   36.3434   25.9275   34.8938 H   0  0  0  0  0  0  0  0  0  0  0  0
   37.0683   26.7913   36.2475 H   0  0  0  0  0  0  0  0  0  0  0  0
   37.0795   27.4965   33.3893 H   0  0  0  0  0  0  0  0  0  0  0  0
   37.6960   28.4688   34.7512 H   0  0  0  0  0  0  0  0  0  0  0  0
   39.1777   26.6849   32.8528 H   0  0  0  0  0  0  0  0  0  0  0  0
   39.8001   28.0439   33.7751 H   0  0  0  0  0  0  0  0  0  0  0  0
   40.1339   26.6597   35.7528 H   0  0  0  0  0  0  0  0  0  0  0  0
   40.0380   21.9852   37.7136 H   0  0  0  0  0  0  0  0  0  0  0  0
   38.9418   22.8088   39.8394 H   0  0  0  0  0  0  0  0  0  0  0  0
   37.5298   24.9287   39.7683 H   0  0  0  0  0  0  0  0  0  0  0  0
   41.2700   22.6713   34.1771 H   0  0  0  0  0  0  0  0  0  0  0  0
   40.5720   20.8569   32.7137 H   0  0  0  0  0  0  0  0  0  0  0  0
   38.3317   19.3700   27.9797 H   0  0  0  0  0  0  0  0  0  0  0  0
   36.6199   18.7697   29.9960 H   0  0  0  0  0  0  0  0  0  0  0  0
   37.2274   20.4262   32.0469 H   0  0  0  0  0  0  0  0  0  0  0  0
  1 10  1  0
  2  1  1  0
  3  2  1  0
  4  3  1  0
  4  5  1  0
  5  1  1  0
  6  7  2  0
  8  7  1  0
  9  8  2  0
 10 11  2  0
 10  9  1  0
 11  6  1  0
 12 13  2  0
 12  5  1  0
 14 15  2  0
 14 12  1  0
 16 15  1  0
 17 16  2  0
 18 17  1  0
 18 19  2  0
 19 14  1  0
 20 24  1  0
 20 17  1  0
 21 20  1  0
 22 21  2  0
 22 23  1  0
 23 24  2  0
 25 26  1  0
 25 27  1  0
 25 18  1  0
 28 25  1  0
  1 29  1  6
  2 30  1  0
  2 31  1  0
  3 32  1  0
  3 33  1  0
  4 34  1  0
  4 35  1  0
  5 36  1  1
  6 37  1  0
  7 38  1  0
  8 39  1  0
 15 40  1  0
 16 41  1  0
 22 42  1  0
 23 43  1  0
 24 44  1  0
M  ISO  8  29  13  30  13  31  13  32  13  33  13  34  13  35  13  36  13
M  ISO  8  37  14  38  14  39  14  40  14  41  14  42  14  43  14  44  14
M  END
>  <minimizedAffinity>  (1) 
-4.88190413

>  <minimizedRMSD>  (1) 
0.826990664

$$$$
