
     RDKit          3D

 44 47  0  0  1  0  0  0  0  0999 V2000
   38.3700   25.4340   35.2650 C   0  0  1  0  0  0  0  0  0  0  0  0
   37.3220   26.4020   35.2620 C   0  0  0  0  0  0  0  0  0  0  0  0
   37.7980   27.4800   34.2820 C   0  0  0  0  0  0  0  0  0  0  0  0
   39.2160   27.1230   33.8580 C   0  0  0  0  0  0  0  0  0  0  0  0
   39.6700   26.1480   34.8980 C   0  0  2  0  0  0  0  0  0  0  0  0
   39.4430   22.8960   37.7180 C   0  0  0  0  0  0  0  0  0  0  0  0
   38.7950   23.3440   38.9150 C   0  0  0  0  0  0  0  0  0  0  0  0
   38.0020   24.4980   38.8780 C   0  0  0  0  0  0  0  0  0  0  0  0
   37.9230   25.0950   37.6710 N   0  0  0  0  0  0  0  0  0  0  0  0
   38.5420   24.6510   36.5570 C   0  0  0  0  0  0  0  0  0  0  0  0
   39.3040   23.5550   36.5700 N   0  0  0  0  0  0  0  0  0  0  0  0
   40.5890   25.1660   34.2500 C   0  0  0  0  0  0  0  0  0  0  0  0
   41.7920   25.1210   34.4890 O   0  0  0  0  0  0  0  0  0  0  0  0
   40.0950   24.1880   33.2780 C   0  0  0  0  0  0  0  0  0  0  0  0
   40.4960   22.8640   33.3400 C   0  0  0  0  0  0  0  0  0  0  0  0
   40.0990   21.8680   32.5080 C   0  0  0  0  0  0  0  0  0  0  0  0
   39.2050   22.1850   31.4870 C   0  0  0  0  0  0  0  0  0  0  0  0
   38.7990   23.4750   31.4060 C   0  0  0  0  0  0  0  0  0  0  0  0
   39.2330   24.3910   32.2590 N   0  0  0  0  0  0  0  0  0  0  0  0
   38.7170   21.1760   30.5610 C   0  0  0  0  0  0  0  0  0  0  0  0
   37.6440   20.3620   30.8780 C   0  0  0  0  0  0  0  0  0  0  0  0
   37.3320   19.4700   29.8740 C   0  0  0  0  0  0  0  0  0  0  0  0
   38.2430   19.7590   28.9300 N   0  0  0  0  0  0  0  0  0  0  0  0
   39.0250   20.7330   29.3380 N   0  0  0  0  0  0  0  0  0  0  0  0
   37.8580   23.9940   30.3880 C   0  0  0  0  0  0  0  0  0  0  0  0
   36.6320   23.3550   30.4540 F   0  0  0  0  0  0  0  0  0  0  0  0
   37.5820   25.3430   30.5870 F   0  0  0  0  0  0  0  0  0  0  0  0
   38.3740   23.7680   29.1170 F   0  0  0  0  0  0  0  0  0  0  0  0
   38.0913   24.6675   34.5269 H   0  0  0  0  0  0  0  0  0  0  0  0
   36.3788   25.9528   34.9178 H   0  0  0  0  0  0  0  0  0  0  0  0
   37.1238   26.8070   36.2654 H   0  0  0  0  0  0  0  0  0  0  0  0
   37.1384   27.5046   33.4021 H   0  0  0  0  0  0  0  0  0  0  0  0
   37.7751   28.4716   34.7575 H   0  0  0  0  0  0  0  0  0  0  0  0
   39.2210   26.6607   32.8599 H   0  0  0  0  0  0  0  0  0  0  0  0
   39.8715   28.0036   33.7883 H   0  0  0  0  0  0  0  0  0  0  0  0
   40.1888   26.6039   35.7541 H   0  0  0  0  0  0  0  0  0  0  0  0
   40.0669   21.9906   37.7485 H   0  0  0  0  0  0  0  0  0  0  0  0
   38.9193   22.7863   39.8550 H   0  0  0  0  0  0  0  0  0  0  0  0
   37.4830   24.8879   39.7660 H   0  0  0  0  0  0  0  0  0  0  0  0
   41.2027   22.5942   34.1386 H   0  0  0  0  0  0  0  0  0  0  0  0
   40.4718   20.8410   32.6357 H   0  0  0  0  0  0  0  0  0  0  0  0
   37.0974   20.4204   31.8308 H   0  0  0  0  0  0  0  0  0  0  0  0
   36.5359   18.7112   29.8516 H   0  0  0  0  0  0  0  0  0  0  0  0
   38.3177   19.2856   28.0183 H   0  0  0  0  0  0  0  0  0  0  0  0
  1 10  1  0
  2  1  1  0
  3  2  1  0
  4  3  1  0
  4  5  1  0
  5  1  1  0
  6  7  2  0
  8  7  1  0
  9  8  2  0
 10 11  2  0
 10  9  1  0
 11  6  1  0
 12 13  2  0
 12  5  1  0
 14 15  2  0
 14 12  1  0
 16 15  1  0
 17 16  2  0
 18 17  1  0
 18 19  2  0
 19 14  1  0
 20 21  1  0
 20 17  1  0
 22 21  2  0
 23 24  1  0
 23 22  1  0
 24 20  2  0
 25 26  1  0
 25 27  1  0
 25 18  1  0
 28 25  1  0
  1 29  1  6
  2 30  1  0
  2 31  1  0
  3 32  1  0
  3 33  1  0
  4 34  1  0
  4 35  1  0
  5 36  1  1
  6 37  1  0
  7 38  1  0
  8 39  1  0
 15 40  1  0
 16 41  1  0
 21 42  1  0
 22 43  1  0
 23 44  1  0
M  ISO  8  29  13  30  13  31  13  32  13  33  13  34  13  35  13  36  13
M  ISO  8  37  14  38  14  39  14  40  14  41  14  42  14  43  14  44   9
M  END
>  <minimizedAffinity>  (1) 
-4.88139486

>  <minimizedRMSD>  (1) 
0.910063744

$$$$
