
     RDKit          3D

 49 52  0  0  1  0  0  0  0  0999 V2000
   38.4300   25.3540   35.2010 C   0  0  1  0  0  0  0  0  0  0  0  0
   37.4220   26.3640   35.1600 C   0  0  0  0  0  0  0  0  0  0  0  0
   37.9330   27.3750   34.1280 C   0  0  0  0  0  0  0  0  0  0  0  0
   39.3340   26.9440   33.7190 C   0  0  0  0  0  0  0  0  0  0  0  0
   39.7560   26.0010   34.8040 C   0  0  2  0  0  0  0  0  0  0  0  0
   39.4570   22.9150   37.7700 C   0  0  0  0  0  0  0  0  0  0  0  0
   38.7850   23.3970   38.9340 C   0  0  0  0  0  0  0  0  0  0  0  0
   37.9830   24.5500   38.8390 C   0  0  0  0  0  0  0  0  0  0  0  0
   37.9260   25.1100   37.6070 N   0  0  0  0  0  0  0  0  0  0  0  0
   38.5770   24.6240   36.5250 C   0  0  0  0  0  0  0  0  0  0  0  0
   39.3420   23.5310   36.5960 N   0  0  0  0  0  0  0  0  0  0  0  0
   40.6360   24.9600   34.2020 C   0  0  0  0  0  0  0  0  0  0  0  0
   41.8540   24.9550   34.3320 O   0  0  0  0  0  0  0  0  0  0  0  0
   40.0760   23.8610   33.4010 C   0  0  0  0  0  0  0  0  0  0  0  0
   40.4320   22.5500   33.6660 C   0  0  0  0  0  0  0  0  0  0  0  0
   39.9720   21.4490   33.0050 C   0  0  0  0  0  0  0  0  0  0  0  0
   39.0630   21.6490   31.9650 C   0  0  0  0  0  0  0  0  0  0  0  0
   38.7040   22.9270   31.6880 C   0  0  0  0  0  0  0  0  0  0  0  0
   39.2000   23.9330   32.3850 N   0  0  0  0  0  0  0  0  0  0  0  0
   38.5560   20.5310   31.2560 N   0  0  0  0  0  0  0  0  0  0  0  0
   37.4160   19.6400   31.2380 C   0  0  0  0  0  0  0  0  0  0  0  0
   37.0130   19.5300   29.7870 C   0  0  0  0  0  0  0  0  0  0  0  0
   38.3060   19.8230   29.0490 C   0  0  0  0  0  0  0  0  0  0  0  0
   39.3160   19.9700   30.1470 C   0  0  0  0  0  0  0  0  0  0  0  0
   37.7610   23.3130   30.6220 C   0  0  0  0  0  0  0  0  0  0  0  0
   36.5620   22.6170   30.7090 F   0  0  0  0  0  0  0  0  0  0  0  0
   37.4060   24.6550   30.7200 F   0  0  0  0  0  0  0  0  0  0  0  0
   38.3100   23.0160   29.3850 F   0  0  0  0  0  0  0  0  0  0  0  0
   38.1178   24.5686   34.4969 H   0  0  0  0  0  0  0  0  0  0  0  0
   36.4582   25.9387   34.8434 H   0  0  0  0  0  0  0  0  0  0  0  0
   37.2494   26.8227   36.1448 H   0  0  0  0  0  0  0  0  0  0  0  0
   37.2709   27.3820   33.2496 H   0  0  0  0  0  0  0  0  0  0  0  0
   37.9489   28.3889   34.5544 H   0  0  0  0  0  0  0  0  0  0  0  0
   39.3172   26.4353   32.7438 H   0  0  0  0  0  0  0  0  0  0  0  0
   40.0222   27.7948   33.6070 H   0  0  0  0  0  0  0  0  0  0  0  0
   40.2934   26.4746   35.6388 H   0  0  0  0  0  0  0  0  0  0  0  0
   40.0839   22.0142   37.8454 H   0  0  0  0  0  0  0  0  0  0  0  0
   38.8929   22.8728   39.8950 H   0  0  0  0  0  0  0  0  0  0  0  0
   37.4422   24.9657   39.7020 H   0  0  0  0  0  0  0  0  0  0  0  0
   41.1497   22.3809   34.4823 H   0  0  0  0  0  0  0  0  0  0  0  0
   40.3060   20.4382   33.2821 H   0  0  0  0  0  0  0  0  0  0  0  0
   37.6934   18.6527   31.6359 H   0  0  0  0  0  0  0  0  0  0  0  0
   36.5930   20.0175   31.8627 H   0  0  0  0  0  0  0  0  0  0  0  0
   36.6456   18.5196   29.5545 H   0  0  0  0  0  0  0  0  0  0  0  0
   36.1939   20.2109   29.5124 H   0  0  0  0  0  0  0  0  0  0  0  0
   38.5725   18.9919   28.3794 H   0  0  0  0  0  0  0  0  0  0  0  0
   38.2390   20.7152   28.4090 H   0  0  0  0  0  0  0  0  0  0  0  0
   39.7413   18.9929   30.4198 H   0  0  0  0  0  0  0  0  0  0  0  0
   40.1673   20.6028   29.8557 H   0  0  0  0  0  0  0  0  0  0  0  0
  1 10  1  0
  2  1  1  0
  3  2  1  0
  4  3  1  0
  4  5  1  0
  5  1  1  0
  6  7  2  0
  8  7  1  0
  9  8  2  0
 10 11  2  0
 10  9  1  0
 11  6  1  0
 12 13  2  0
 12  5  1  0
 14 15  2  0
 14 12  1  0
 16 15  1  0
 17 16  2  0
 18 17  1  0
 18 19  2  0
 19 14  1  0
 20 17  1  0
 21 20  1  0
 22 21  1  0
 23 22  1  0
 23 24  1  0
 24 20  1  0
 25 26  1  0
 25 27  1  0
 25 18  1  0
 28 25  1  0
  1 29  1  6
  2 30  1  0
  2 31  1  0
  3 32  1  0
  3 33  1  0
  4 34  1  0
  4 35  1  0
  5 36  1  1
  6 37  1  0
  7 38  1  0
  8 39  1  0
 15 40  1  0
 16 41  1  0
 21 42  1  0
 21 43  1  0
 22 44  1  0
 22 45  1  0
 23 46  1  0
 23 47  1  0
 24 48  1  0
 24 49  1  0
M  ISO  8  29  13  30  13  31  13  32  13  33  13  34  13  35  13  36  13
M  ISO  8  37  14  38  14  39  14  40  14  41  14  42  13  43  13  44  13
M  ISO  5  45  13  46  13  47  13  48  13  49  13
M  END
>  <minimizedAffinity>  (1) 
-4.86459017

>  <minimizedRMSD>  (1) 
1.16374576

$$$$
