
     RDKit          3D

 44 47  0  0  1  0  0  0  0  0999 V2000
   38.4010   25.4140   35.1950 C   0  0  1  0  0  0  0  0  0  0  0  0
   37.3010   26.3240   35.1660 C   0  0  0  0  0  0  0  0  0  0  0  0
   37.7460   27.4350   34.2090 C   0  0  0  0  0  0  0  0  0  0  0  0
   39.1920   27.1520   33.8190 C   0  0  0  0  0  0  0  0  0  0  0  0
   39.6710   26.2030   34.8740 C   0  0  2  0  0  0  0  0  0  0  0  0
   39.4990   22.8870   37.6450 C   0  0  0  0  0  0  0  0  0  0  0  0
   38.8390   23.3200   38.8430 C   0  0  0  0  0  0  0  0  0  0  0  0
   38.0270   24.4620   38.8040 C   0  0  0  0  0  0  0  0  0  0  0  0
   37.9430   25.0660   37.5960 N   0  0  0  0  0  0  0  0  0  0  0  0
   38.5790   24.6310   36.4830 C   0  0  0  0  0  0  0  0  0  0  0  0
   39.3570   23.5460   36.4980 N   0  0  0  0  0  0  0  0  0  0  0  0
   40.6590   25.2770   34.2450 C   0  0  0  0  0  0  0  0  0  0  0  0
   41.8510   25.2810   34.5250 O   0  0  0  0  0  0  0  0  0  0  0  0
   40.2460   24.2900   33.2350 C   0  0  0  0  0  0  0  0  0  0  0  0
   40.7730   23.0090   33.2400 C   0  0  0  0  0  0  0  0  0  0  0  0
   40.4650   22.0120   32.3690 C   0  0  0  0  0  0  0  0  0  0  0  0
   39.5320   22.2860   31.3690 C   0  0  0  0  0  0  0  0  0  0  0  0
   39.0020   23.5380   31.3460 C   0  0  0  0  0  0  0  0  0  0  0  0
   39.3630   24.4470   32.2380 N   0  0  0  0  0  0  0  0  0  0  0  0
   39.1120   21.3410   30.3890 N   0  0  0  0  0  0  0  0  0  0  0  0
   39.5430   21.0530   29.1480 C   0  0  0  0  0  0  0  0  0  0  0  0
   38.7450   20.0230   28.6540 C   0  0  0  0  0  0  0  0  0  0  0  0
   37.8330   19.6940   29.6020 N   0  0  0  0  0  0  0  0  0  0  0  0
   38.0710   20.5040   30.6470 C   0  0  0  0  0  0  0  0  0  0  0  0
   37.9980   24.0100   30.3620 C   0  0  0  0  0  0  0  0  0  0  0  0
   36.8310   23.2360   30.4260 F   0  0  0  0  0  0  0  0  0  0  0  0
   37.5960   25.3040   30.6160 F   0  0  0  0  0  0  0  0  0  0  0  0
   38.4940   23.8250   29.0860 F   0  0  0  0  0  0  0  0  0  0  0  0
   38.1855   24.6398   34.4439 H   0  0  0  0  0  0  0  0  0  0  0  0
   36.3950   25.8266   34.7896 H   0  0  0  0  0  0  0  0  0  0  0  0
   37.0506   26.7089   36.1656 H   0  0  0  0  0  0  0  0  0  0  0  0
   37.1086   27.4361   33.3125 H   0  0  0  0  0  0  0  0  0  0  0  0
   37.6607   28.4196   34.6921 H   0  0  0  0  0  0  0  0  0  0  0  0
   39.2451   26.6887   32.8227 H   0  0  0  0  0  0  0  0  0  0  0  0
   39.8022   28.0654   33.7616 H   0  0  0  0  0  0  0  0  0  0  0  0
   40.1371   26.6823   35.7475 H   0  0  0  0  0  0  0  0  0  0  0  0
   40.1362   21.9908   37.6755 H   0  0  0  0  0  0  0  0  0  0  0  0
   38.9687   22.7619   39.7820 H   0  0  0  0  0  0  0  0  0  0  0  0
   37.4968   24.8396   39.6907 H   0  0  0  0  0  0  0  0  0  0  0  0
   41.5102   22.7767   34.0226 H   0  0  0  0  0  0  0  0  0  0  0  0
   40.9362   21.0213   32.4501 H   0  0  0  0  0  0  0  0  0  0  0  0
   40.3744   21.5418   28.6190 H   0  0  0  0  0  0  0  0  0  0  0  0
   38.8390   19.5558   27.6626 H   0  0  0  0  0  0  0  0  0  0  0  0
   37.4997   20.4921   31.5869 H   0  0  0  0  0  0  0  0  0  0  0  0
  1 10  1  0
  2  1  1  0
  3  2  1  0
  4  3  1  0
  4  5  1  0
  5  1  1  0
  6  7  2  0
  8  7  1  0
  9  8  2  0
 10 11  2  0
 10  9  1  0
 11  6  1  0
 12 13  2  0
 12  5  1  0
 14 15  2  0
 14 12  1  0
 16 15  1  0
 17 16  2  0
 18 17  1  0
 18 19  2  0
 19 14  1  0
 20 24  1  0
 20 17  1  0
 21 20  1  0
 22 21  2  0
 22 23  1  0
 23 24  2  0
 25 26  1  0
 25 27  1  0
 25 18  1  0
 28 25  1  0
  1 29  1  6
  2 30  1  0
  2 31  1  0
  3 32  1  0
  3 33  1  0
  4 34  1  0
  4 35  1  0
  5 36  1  1
  6 37  1  0
  7 38  1  0
  8 39  1  0
 15 40  1  0
 16 41  1  0
 21 42  1  0
 22 43  1  0
 24 44  1  0
M  ISO  8  29  13  30  13  31  13  32  13  33  13  34  13  35  13  36  13
M  ISO  8  37  14  38  14  39  14  40  14  41  14  42  14  43  14  44  14
M  END
>  <minimizedAffinity>  (1) 
-4.82624865

>  <minimizedRMSD>  (1) 
0.599818289

$$$$
