
     RDKit          3D

 32 35  0  0  0  0  0  0  0  0999 V2000
   37.4300   21.8740   35.1300 C   0  0  0  0  0  0  0  0  0  0  0  0
   36.2510   21.1410   35.2260 C   0  0  0  0  0  0  0  0  0  0  0  0
   35.6980   20.6800   34.0520 C   0  0  0  0  0  0  0  0  0  0  0  0
   36.2930   20.9360   32.8490 N   0  0  0  0  0  0  0  0  0  0  0  0
   37.4380   21.6510   32.7840 C   0  0  0  0  0  0  0  0  0  0  0  0
   38.0130   22.1250   33.9320 N   0  0  0  0  0  0  0  0  0  0  0  0
   38.0220   21.8940   31.5090 N   0  0  0  0  0  0  0  0  0  0  0  0
   38.4020   20.8800   30.7080 C   0  0  0  0  0  0  0  0  0  0  0  0
   38.9260   21.3900   29.5560 N   0  0  0  0  0  0  0  0  0  0  0  0
   38.8540   22.7360   29.6770 C   0  0  0  0  0  0  0  0  0  0  0  0
   39.2340   23.7480   28.8210 C   0  0  0  0  0  0  0  0  0  0  0  0
   39.7520   23.4690   27.7030 O   0  0  0  0  0  0  0  0  0  0  0  0
   39.0450   25.0260   29.1960 N   0  0  0  0  0  0  0  0  0  0  0  0
   38.4860   25.2990   30.4060 C   0  0  0  0  0  0  0  0  0  0  0  0
   38.3400   26.6870   30.6850 N   0  0  0  0  0  0  0  0  0  0  0  0
   38.0980   24.3310   31.2770 N   0  0  0  0  0  0  0  0  0  0  0  0
   38.2900   23.0600   30.8940 C   0  0  0  0  0  0  0  0  0  0  0  0
   39.9240   22.7560   37.6860 C   0  0  0  0  0  0  0  0  0  0  0  0
   39.1450   23.4640   38.6290 C   0  0  0  0  0  0  0  0  0  0  0  0
   37.7780   23.6170   38.3580 C   0  0  0  0  0  0  0  0  0  0  0  0
   37.2980   23.0760   37.2070 N   0  0  0  0  0  0  0  0  0  0  0  0
   38.0830   22.4000   36.3230 C   0  0  0  0  0  0  0  0  0  0  0  0
   39.3850   22.2480   36.5700 N   0  0  0  0  0  0  0  0  0  0  0  0
   35.7803   20.9382   36.1993 H   0  0  0  0  0  0  0  0  0  0  0  0
   34.7651   20.0981   34.0832 H   0  0  0  0  0  0  0  0  0  0  0  0
   38.3052   19.8102   30.9450 H   0  0  0  0  0  0  0  0  0  0  0  0
   39.3224   25.7950   28.5694 H   0  0  0  0  0  0  0  0  0  0  0  0
   37.9263   26.9922   31.5775 H   0  0  0  0  0  0  0  0  0  0  0  0
   38.6480   27.3863   29.9944 H   0  0  0  0  0  0  0  0  0  0  0  0
   40.9992   22.6188   37.8731 H   0  0  0  0  0  0  0  0  0  0  0  0
   39.5949   23.8800   39.5425 H   0  0  0  0  0  0  0  0  0  0  0  0
   37.1169   24.1560   39.0525 H   0  0  0  0  0  0  0  0  0  0  0  0
  1  2  2  0
  1 22  1  0
  3  2  1  0
  4  3  2  0
  5  4  1  0
  5  6  2  0
  6  1  1  0
  7  5  1  0
  8  7  1  0
  9 10  1  0
  9  8  2  0
 10 17  2  0
 11 13  1  0
 11 10  1  0
 12 11  2  0
 13 14  1  0
 14 15  1  0
 14 16  2  0
 17 16  1  0
 17  7  1  0
 18 19  2  0
 20 19  1  0
 21 20  2  0
 22 23  2  0
 22 21  1  0
 23 18  1  0
  2 24  1  0
  3 25  1  0
  8 26  1  0
 13 27  1  0
 15 28  1  0
 15 29  1  0
 18 30  1  0
 19 31  1  0
 20 32  1  0
M  ISO  7  24  14  25  14  26  14  27   9  30  14  31  14  32  14
M  END
>  <minimizedAffinity>  (1) 
-5.35939789

>  <minimizedRMSD>  (1) 
0.865912855

$$$$
