
     RDKit          3D

 32 35  0  0  0  0  0  0  0  0999 V2000
   37.7320   22.5100   34.7120 C   0  0  0  0  0  0  0  0  0  0  0  0
   36.8760   21.4680   34.4590 C   0  0  0  0  0  0  0  0  0  0  0  0
   36.3830   21.3520   33.1800 C   0  0  0  0  0  0  0  0  0  0  0  0
   36.7300   22.2280   32.2160 N   0  0  0  0  0  0  0  0  0  0  0  0
   37.5700   23.2520   32.4570 C   0  0  0  0  0  0  0  0  0  0  0  0
   38.0390   23.3410   33.7230 N   0  0  0  0  0  0  0  0  0  0  0  0
   38.0940   24.3170   31.5960 C   0  0  0  0  0  0  0  0  0  0  0  0
   38.9680   24.0860   30.5720 N   0  0  0  0  0  0  0  0  0  0  0  0
   39.4560   25.0380   29.7780 C   0  0  0  0  0  0  0  0  0  0  0  0
   39.1160   26.3270   29.9300 N   0  0  0  0  0  0  0  0  0  0  0  0
   38.2580   26.6590   30.9150 C   0  0  0  0  0  0  0  0  0  0  0  0
   37.9090   27.9840   31.0690 C   0  0  0  0  0  0  0  0  0  0  0  0
   37.0340   28.3680   32.0620 C   0  0  0  0  0  0  0  0  0  0  0  0
   36.5410   27.3620   32.8730 C   0  0  0  0  0  0  0  0  0  0  0  0
   36.9160   26.0500   32.6840 C   0  0  0  0  0  0  0  0  0  0  0  0
   37.7780   25.6450   31.7120 C   0  0  0  0  0  0  0  0  0  0  0  0
   40.0130   22.6170   37.5900 C   0  0  0  0  0  0  0  0  0  0  0  0
   39.2390   23.2300   38.5700 C   0  0  0  0  0  0  0  0  0  0  0  0
   37.9320   23.5990   38.2200 C   0  0  0  0  0  0  0  0  0  0  0  0
   37.4970   23.3390   36.9480 N   0  0  0  0  0  0  0  0  0  0  0  0
   38.3100   22.7340   36.0350 C   0  0  0  0  0  0  0  0  0  0  0  0
   39.5660   22.3660   36.3290 N   0  0  0  0  0  0  0  0  0  0  0  0
   36.5952   20.7540   35.2473 H   0  0  0  0  0  0  0  0  0  0  0  0
   35.6932   20.5296   32.9396 H   0  0  0  0  0  0  0  0  0  0  0  0
   40.1562   24.7599   28.9766 H   0  0  0  0  0  0  0  0  0  0  0  0
   38.3328   28.7414   30.3932 H   0  0  0  0  0  0  0  0  0  0  0  0
   36.7429   29.4195   32.2022 H   0  0  0  0  0  0  0  0  0  0  0  0
   35.8386   27.6134   33.6814 H   0  0  0  0  0  0  0  0  0  0  0  0
   36.4953   25.2875   33.3560 H   0  0  0  0  0  0  0  0  0  0  0  0
   41.0402   22.3195   37.8476 H   0  0  0  0  0  0  0  0  0  0  0  0
   39.6360   23.4177   39.5785 H   0  0  0  0  0  0  0  0  0  0  0  0
   37.2708   24.0867   38.9514 H   0  0  0  0  0  0  0  0  0  0  0  0
  1 21  1  0
  2  1  2  0
  3  2  1  0
  4  5  1  0
  4  3  2  0
  5  6  2  0
  6  1  1  0
  7 16  1  0
  7  5  1  0
  8  7  2  0
  9 10  2  0
  9  8  1  0
 10 11  1  0
 11 12  1  0
 11 16  2  0
 12 13  2  0
 13 14  1  0
 15 14  2  0
 16 15  1  0
 17 18  2  0
 19 18  1  0
 20 19  2  0
 21 22  2  0
 21 20  1  0
 22 17  1  0
  2 23  1  0
  3 24  1  0
  9 25  1  0
 12 26  1  0
 13 27  1  0
 14 28  1  0
 15 29  1  0
 17 30  1  0
 18 31  1  0
 19 32  1  0
M  ISO  8  23  14  24  14  25  14  26  14  27  14  28  14  29  14  30  14
M  ISO  2  31  14  32  14
M  END
>  <minimizedAffinity>  (1) 
-5.30683422

>  <minimizedRMSD>  (1) 
2.12723947

$$$$
