
     RDKit          3D

 31 33  0  0  0  0  0  0  0  0999 V2000
   37.5970   22.1390   34.8170 C   0  0  0  0  0  0  0  0  0  0  0  0
   36.5520   21.2240   34.7530 C   0  0  0  0  0  0  0  0  0  0  0  0
   36.0370   20.8870   33.5310 C   0  0  0  0  0  0  0  0  0  0  0  0
   36.5570   21.4530   32.4020 N   0  0  0  0  0  0  0  0  0  0  0  0
   37.5750   22.3440   32.4710 C   0  0  0  0  0  0  0  0  0  0  0  0
   38.0970   22.6860   33.6880 N   0  0  0  0  0  0  0  0  0  0  0  0
   38.0710   22.8960   31.2580 N   0  0  0  0  0  0  0  0  0  0  0  0
   38.7680   22.0490   30.4440 C   0  0  0  0  0  0  0  0  0  0  0  0
   39.3220   22.4010   29.2330 C   0  0  0  0  0  0  0  0  0  0  0  0
   40.0650   21.3990   28.4210 C   0  0  0  0  0  0  0  0  0  0  0  0
   39.1600   23.7000   28.8160 C   0  0  0  0  0  0  0  0  0  0  0  0
   39.6530   24.0360   27.7260 O   0  0  0  0  0  0  0  0  0  0  0  0
   38.4690   24.5250   29.6320 N   0  0  0  0  0  0  0  0  0  0  0  0
   37.9360   24.1590   30.8110 C   0  0  0  0  0  0  0  0  0  0  0  0
   37.2980   24.9230   31.5630 O   0  0  0  0  0  0  0  0  0  0  0  0
   39.9590   22.6750   37.5770 C   0  0  0  0  0  0  0  0  0  0  0  0
   39.1460   23.2920   38.5450 C   0  0  0  0  0  0  0  0  0  0  0  0
   37.7970   23.5120   38.2320 C   0  0  0  0  0  0  0  0  0  0  0  0
   37.3460   23.1160   37.0010 N   0  0  0  0  0  0  0  0  0  0  0  0
   38.1700   22.5210   36.0910 C   0  0  0  0  0  0  0  0  0  0  0  0
   39.4690   22.3010   36.3740 N   0  0  0  0  0  0  0  0  0  0  0  0
   36.1450   20.7772   35.6721 H   0  0  0  0  0  0  0  0  0  0  0  0
   35.2100   20.1653   33.4584 H   0  0  0  0  0  0  0  0  0  0  0  0
   38.8963   21.0095   30.7802 H   0  0  0  0  0  0  0  0  0  0  0  0
   40.5850   20.6977   29.0901 H   0  0  0  0  0  0  0  0  0  0  0  0
   39.3581   20.8444   27.7864 H   0  0  0  0  0  0  0  0  0  0  0  0
   40.8010   21.9144   27.7864 H   0  0  0  0  0  0  0  0  0  0  0  0
   38.3415   25.5016   29.3305 H   0  0  0  0  0  0  0  0  0  0  0  0
   41.0196   22.4924   37.8046 H   0  0  0  0  0  0  0  0  0  0  0  0
   39.5569   23.5934   39.5199 H   0  0  0  0  0  0  0  0  0  0  0  0
   37.1196   23.9895   38.9553 H   0  0  0  0  0  0  0  0  0  0  0  0
  1 20  1  0
  2  1  2  0
  3  2  1  0
  4  5  1  0
  4  3  2  0
  5  6  2  0
  6  1  1  0
  7  5  1  0
  8  7  1  0
  9  8  2  0
 10  9  1  0
 11  9  1  0
 11 13  1  0
 12 11  2  0
 13 14  1  0
 14  7  1  0
 14 15  2  0
 16 17  2  0
 18 17  1  0
 19 18  2  0
 20 21  2  0
 20 19  1  0
 21 16  1  0
  2 22  1  0
  3 23  1  0
  8 24  1  0
 10 25  1  0
 10 26  1  0
 10 27  1  0
 13 28  1  0
 16 29  1  0
 17 30  1  0
 18 31  1  0
M  ISO  8  22  14  23  14  24  14  25   8  26   8  27   8  28   9  29  14
M  ISO  2  30  14  31  14
M  END
>  <minimizedAffinity>  (1) 
-5.16224527

>  <minimizedRMSD>  (1) 
0.866999686

$$$$
