
     RDKit          3D

 33 35  0  0  0  0  0  0  0  0999 V2000
   37.2600   21.8960   35.0990 C   0  0  0  0  0  0  0  0  0  0  0  0
   36.2030   20.9970   35.2620 C   0  0  0  0  0  0  0  0  0  0  0  0
   35.5220   20.5700   34.1440 C   0  0  0  0  0  0  0  0  0  0  0  0
   35.8850   21.0250   32.9060 N   0  0  0  0  0  0  0  0  0  0  0  0
   36.9110   21.8930   32.7740 C   0  0  0  0  0  0  0  0  0  0  0  0
   37.5970   22.3280   33.8600 N   0  0  0  0  0  0  0  0  0  0  0  0
   37.2660   22.3490   31.4740 N   0  0  0  0  0  0  0  0  0  0  0  0
   38.2280   21.6470   30.6840 C   0  0  0  0  0  0  0  0  0  0  0  0
   39.1790   22.4950   29.9060 C   0  0  0  0  0  0  0  0  0  0  0  0
   38.7880   23.9070   29.6680 C   0  0  0  0  0  0  0  0  0  0  0  0
   37.7810   24.4840   30.5940 C   0  0  0  0  0  0  0  0  0  0  0  0
   36.6490   23.5440   30.9270 C   0  0  0  0  0  0  0  0  0  0  0  0
   39.9880   22.6450   37.4360 C   0  0  0  0  0  0  0  0  0  0  0  0
   39.3230   23.3320   38.4570 C   0  0  0  0  0  0  0  0  0  0  0  0
   37.9320   23.5270   38.3200 C   0  0  0  0  0  0  0  0  0  0  0  0
   37.3060   23.0400   37.2090 N   0  0  0  0  0  0  0  0  0  0  0  0
   38.0110   22.3770   36.2460 C   0  0  0  0  0  0  0  0  0  0  0  0
   39.3290   22.1840   36.3590 N   0  0  0  0  0  0  0  0  0  0  0  0
   35.9207   20.6378   36.2626 H   0  0  0  0  0  0  0  0  0  0  0  0
   34.6858   19.8627   34.2464 H   0  0  0  0  0  0  0  0  0  0  0  0
   38.8191   21.0112   31.3596 H   0  0  0  0  0  0  0  0  0  0  0  0
   37.6468   21.0890   29.9351 H   0  0  0  0  0  0  0  0  0  0  0  0
   40.1357   22.5033   30.4489 H   0  0  0  0  0  0  0  0  0  0  0  0
   39.2150   22.0377   28.9062 H   0  0  0  0  0  0  0  0  0  0  0  0
   39.6975   24.5215   29.7394 H   0  0  0  0  0  0  0  0  0  0  0  0
   38.3077   23.9116   28.6784 H   0  0  0  0  0  0  0  0  0  0  0  0
   38.2888   24.7602   31.5299 H   0  0  0  0  0  0  0  0  0  0  0  0
   37.3369   25.3512   30.0834 H   0  0  0  0  0  0  0  0  0  0  0  0
   35.9786   24.0016   31.6694 H   0  0  0  0  0  0  0  0  0  0  0  0
   36.0437   23.3129   30.0381 H   0  0  0  0  0  0  0  0  0  0  0  0
   41.0724   22.4786   37.5161 H   0  0  0  0  0  0  0  0  0  0  0  0
   39.8659   23.7075   39.3369 H   0  0  0  0  0  0  0  0  0  0  0  0
   37.3626   24.0617   39.0945 H   0  0  0  0  0  0  0  0  0  0  0  0
  1  2  2  0
  1 17  1  0
  3  2  1  0
  4  3  2  0
  5  4  1  0
  5  6  2  0
  6  1  1  0
  7  5  1  0
  8  7  1  0
  9  8  1  0
 10  9  1  0
 10 11  1  0
 11 12  1  0
 12  7  1  0
 13 14  2  0
 15 14  1  0
 16 15  2  0
 17 18  2  0
 17 16  1  0
 18 13  1  0
  2 19  1  0
  3 20  1  0
  8 21  1  0
  8 22  1  0
  9 23  1  0
  9 24  1  0
 10 25  1  0
 10 26  1  0
 11 27  1  0
 11 28  1  0
 12 29  1  0
 12 30  1  0
 13 31  1  0
 14 32  1  0
 15 33  1  0
M  ISO  8  19  14  20  14  21  13  22  13  23  13  24  13  25  13  26  13
M  ISO  7  27  13  28  13  29  13  30  13  31  14  32  14  33  14
M  END
>  <minimizedAffinity>  (1) 
-4.97397327

>  <minimizedRMSD>  (1) 
0.123688243

$$$$
