
     RDKit          3D

 29 31  0  0  0  0  0  0  0  0999 V2000
   37.5300   22.1000   34.9690 C   0  0  0  0  0  0  0  0  0  0  0  0
   36.4690   21.1970   34.9230 C   0  0  0  0  0  0  0  0  0  0  0  0
   35.9550   20.8570   33.6960 C   0  0  0  0  0  0  0  0  0  0  0  0
   36.4760   21.3960   32.5540 N   0  0  0  0  0  0  0  0  0  0  0  0
   37.5040   22.2700   32.6140 C   0  0  0  0  0  0  0  0  0  0  0  0
   38.0300   22.6210   33.8260 N   0  0  0  0  0  0  0  0  0  0  0  0
   38.0210   22.8120   31.4040 N   0  0  0  0  0  0  0  0  0  0  0  0
   38.7370   21.9680   30.6390 C   0  0  0  0  0  0  0  0  0  0  0  0
   39.2590   22.4520   29.4550 C   0  0  0  0  0  0  0  0  0  0  0  0
   39.0020   23.7740   29.1490 C   0  0  0  0  0  0  0  0  0  0  0  0
   39.4540   24.4420   27.9840 N   0  0  0  0  0  0  0  0  0  0  0  0
   38.2710   24.5810   29.9620 N   0  0  0  0  0  0  0  0  0  0  0  0
   37.7670   24.1010   31.1130 C   0  0  0  0  0  0  0  0  0  0  0  0
   37.0840   24.8070   31.9000 O   0  0  0  0  0  0  0  0  0  0  0  0
   39.9220   22.7270   37.6810 C   0  0  0  0  0  0  0  0  0  0  0  0
   39.1170   23.3100   38.6690 C   0  0  0  0  0  0  0  0  0  0  0  0
   37.7420   23.4770   38.3730 C   0  0  0  0  0  0  0  0  0  0  0  0
   37.3030   23.0580   37.1480 N   0  0  0  0  0  0  0  0  0  0  0  0
   38.1230   22.5040   36.2380 C   0  0  0  0  0  0  0  0  0  0  0  0
   39.4200   22.3380   36.4940 N   0  0  0  0  0  0  0  0  0  0  0  0
   36.0539   20.7675   35.8467 H   0  0  0  0  0  0  0  0  0  0  0  0
   35.1182   20.1459   33.6322 H   0  0  0  0  0  0  0  0  0  0  0  0
   38.9017   20.9248   30.9468 H   0  0  0  0  0  0  0  0  0  0  0  0
   39.8531   21.8126   28.7855 H   0  0  0  0  0  0  0  0  0  0  0  0
   39.2161   25.4328   27.8334 H   0  0  0  0  0  0  0  0  0  0  0  0
   40.0205   23.9368   27.2878 H   0  0  0  0  0  0  0  0  0  0  0  0
   40.9941   22.5832   37.8810 H   0  0  0  0  0  0  0  0  0  0  0  0
   39.5363   23.6253   39.6358 H   0  0  0  0  0  0  0  0  0  0  0  0
   37.0525   23.9274   39.1022 H   0  0  0  0  0  0  0  0  0  0  0  0
  1 19  1  0
  2  1  2  0
  3  2  1  0
  4  5  1  0
  4  3  2  0
  5  6  2  0
  6  1  1  0
  7  5  1  0
  8  7  1  0
  9  8  2  0
 10  9  1  0
 10 12  2  0
 11 10  1  0
 12 13  1  0
 13  7  1  0
 13 14  2  0
 15 16  2  0
 17 16  1  0
 18 17  2  0
 19 20  2  0
 19 18  1  0
 20 15  1  0
  2 21  1  0
  3 22  1  0
  8 23  1  0
  9 24  1  0
 11 25  1  0
 11 26  1  0
 15 27  1  0
 16 28  1  0
 17 29  1  0
M  ISO  7  21  14  22  14  23  14  24  14  27  14  28  14  29  14
M  END
>  <minimizedAffinity>  (1) 
-4.9125061

>  <minimizedRMSD>  (1) 
0.710669577

$$$$
