
     RDKit          3D

 30 32  0  0  0  0  0  0  0  0999 V2000
   37.2910   21.8830   35.0510 C   0  0  0  0  0  0  0  0  0  0  0  0
   36.2070   21.0220   35.1890 C   0  0  0  0  0  0  0  0  0  0  0  0
   35.5760   20.6080   34.0340 C   0  0  0  0  0  0  0  0  0  0  0  0
   35.9970   21.0260   32.8150 N   0  0  0  0  0  0  0  0  0  0  0  0
   37.0510   21.8630   32.6940 C   0  0  0  0  0  0  0  0  0  0  0  0
   37.6910   22.2850   33.8200 N   0  0  0  0  0  0  0  0  0  0  0  0
   37.4970   22.3020   31.4350 N   0  0  0  0  0  0  0  0  0  0  0  0
   37.2460   23.6420   30.9380 C   0  0  0  0  0  0  0  0  0  0  0  0
   38.4010   23.9420   30.0230 C   0  0  0  0  0  0  0  0  0  0  0  0
   39.1100   22.6230   29.8200 C   0  0  0  0  0  0  0  0  0  0  0  0
   38.2370   21.5760   30.4520 C   0  0  0  0  0  0  0  0  0  0  0  0
   39.9530   22.6750   37.4580 C   0  0  0  0  0  0  0  0  0  0  0  0
   39.2470   23.3520   38.4600 C   0  0  0  0  0  0  0  0  0  0  0  0
   37.8650   23.5260   38.2910 C   0  0  0  0  0  0  0  0  0  0  0  0
   37.2900   23.0220   37.1550 N   0  0  0  0  0  0  0  0  0  0  0  0
   38.0180   22.3720   36.2140 C   0  0  0  0  0  0  0  0  0  0  0  0
   39.3290   22.1990   36.3600 N   0  0  0  0  0  0  0  0  0  0  0  0
   35.8666   20.6848   36.1792 H   0  0  0  0  0  0  0  0  0  0  0  0
   34.7155   19.9263   34.1035 H   0  0  0  0  0  0  0  0  0  0  0  0
   36.2957   23.6773   30.3850 H   0  0  0  0  0  0  0  0  0  0  0  0
   37.1641   24.3759   31.7533 H   0  0  0  0  0  0  0  0  0  0  0  0
   38.0378   24.3349   29.0619 H   0  0  0  0  0  0  0  0  0  0  0  0
   39.0710   24.7036   30.4485 H   0  0  0  0  0  0  0  0  0  0  0  0
   39.2345   22.4183   28.7464 H   0  0  0  0  0  0  0  0  0  0  0  0
   40.1133   22.6338   30.2709 H   0  0  0  0  0  0  0  0  0  0  0  0
   37.5639   21.1249   29.7080 H   0  0  0  0  0  0  0  0  0  0  0  0
   38.8126   20.7424   30.8807 H   0  0  0  0  0  0  0  0  0  0  0  0
   41.0376   22.5282   37.5679 H   0  0  0  0  0  0  0  0  0  0  0  0
   39.7608   23.7362   39.3535 H   0  0  0  0  0  0  0  0  0  0  0  0
   37.2625   24.0507   39.0471 H   0  0  0  0  0  0  0  0  0  0  0  0
  1  2  2  0
  1 16  1  0
  3  2  1  0
  4  3  2  0
  5  4  1  0
  5  6  2  0
  6  1  1  0
  7  5  1  0
  8  7  1  0
  9  8  1  0
 10  9  1  0
 10 11  1  0
 11  7  1  0
 12 13  2  0
 14 13  1  0
 15 14  2  0
 16 17  2  0
 16 15  1  0
 17 12  1  0
  2 18  1  0
  3 19  1  0
  8 20  1  0
  8 21  1  0
  9 22  1  0
  9 23  1  0
 10 24  1  0
 10 25  1  0
 11 26  1  0
 11 27  1  0
 12 28  1  0
 13 29  1  0
 14 30  1  0
M  ISO  8  18  14  19  14  20  13  21  13  22  13  23  13  24  13  25  13
M  ISO  5  26  13  27  13  28  14  29  14  30  14
M  END
>  <minimizedAffinity>  (1) 
-4.7229352

>  <minimizedRMSD>  (1) 
0.0653931424

$$$$
