
     RDKit          3D

 28 30  0  0  0  0  0  0  0  0999 V2000
   37.3590   21.8480   34.9760 C   0  0  0  0  0  0  0  0  0  0  0  0
   36.2080   21.0790   35.0540 C   0  0  0  0  0  0  0  0  0  0  0  0
   35.6610   20.6440   33.8710 C   0  0  0  0  0  0  0  0  0  0  0  0
   36.2280   20.9570   32.6850 N   0  0  0  0  0  0  0  0  0  0  0  0
   37.3540   21.7090   32.6230 C   0  0  0  0  0  0  0  0  0  0  0  0
   37.9260   22.1600   33.7870 N   0  0  0  0  0  0  0  0  0  0  0  0
   39.8780   22.7420   37.5100 C   0  0  0  0  0  0  0  0  0  0  0  0
   39.1060   23.3570   38.4940 C   0  0  0  0  0  0  0  0  0  0  0  0
   37.7060   23.4630   38.2780 C   0  0  0  0  0  0  0  0  0  0  0  0
   37.2230   22.9440   37.1040 N   0  0  0  0  0  0  0  0  0  0  0  0
   38.0150   22.3570   36.1850 C   0  0  0  0  0  0  0  0  0  0  0  0
   39.3260   22.2590   36.3900 N   0  0  0  0  0  0  0  0  0  0  0  0
   38.0230   22.0870   31.3810 C   0  0  0  0  0  0  0  0  0  0  0  0
   37.9790   23.4370   31.0570 C   0  0  0  0  0  0  0  0  0  0  0  0
   38.5820   23.8840   29.9040 C   0  0  0  0  0  0  0  0  0  0  0  0
   39.2120   22.9410   29.1190 C   0  0  0  0  0  0  0  0  0  0  0  0
   39.2860   21.5890   29.3940 C   0  0  0  0  0  0  0  0  0  0  0  0
   38.6700   21.1550   30.5640 C   0  0  0  0  0  0  0  0  0  0  0  0
   35.7516   20.8276   36.0228 H   0  0  0  0  0  0  0  0  0  0  0  0
   34.7475   20.0315   33.8896 H   0  0  0  0  0  0  0  0  0  0  0  0
   40.9644   22.6515   37.6568 H   0  0  0  0  0  0  0  0  0  0  0  0
   39.5678   23.7493   39.4121 H   0  0  0  0  0  0  0  0  0  0  0  0
   37.0423   23.9377   39.0157 H   0  0  0  0  0  0  0  0  0  0  0  0
   37.4634   24.1468   31.7205 H   0  0  0  0  0  0  0  0  0  0  0  0
   38.5625   24.9467   29.6207 H   0  0  0  0  0  0  0  0  0  0  0  0
   39.6960   23.2949   28.1968 H   0  0  0  0  0  0  0  0  0  0  0  0
   39.8058   20.8906   28.7217 H   0  0  0  0  0  0  0  0  0  0  0  0
   38.6919   20.0911   30.8427 H   0  0  0  0  0  0  0  0  0  0  0  0
  1  2  2  0
  1 11  1  0
  3  2  1  0
  4  3  2  0
  5  4  1  0
  5  6  2  0
  6  1  1  0
  7  8  2  0
  9  8  1  0
 10  9  2  0
 11 12  2  0
 11 10  1  0
 12  7  1  0
 13  5  1  0
 14 13  2  0
 15 14  1  0
 16 17  1  0
 16 15  2  0
 17 18  2  0
 18 13  1  0
  2 19  1  0
  3 20  1  0
  7 21  1  0
  8 22  1  0
  9 23  1  0
 14 24  1  0
 15 25  1  0
 16 26  1  0
 17 27  1  0
 18 28  1  0
M  ISO  8  19  14  20  14  21  14  22  14  23  14  24  14  25  14  26  14
M  ISO  2  27  14  28  14
M  END
>  <minimizedAffinity>  (1) 
-4.47303343

>  <minimizedRMSD>  (1) 
0.963284194

$$$$
