
     RDKit          3D

 25 27  0  0  0  0  0  0  0  0999 V2000
   37.4140   21.9420   34.9880 C   0  0  0  0  0  0  0  0  0  0  0  0
   36.3080   21.1230   35.0210 C   0  0  0  0  0  0  0  0  0  0  0  0
   35.7290   20.7130   33.8550 C   0  0  0  0  0  0  0  0  0  0  0  0
   36.2520   21.1170   32.6680 N   0  0  0  0  0  0  0  0  0  0  0  0
   37.3380   21.9190   32.6250 C   0  0  0  0  0  0  0  0  0  0  0  0
   37.9120   22.3270   33.7980 N   0  0  0  0  0  0  0  0  0  0  0  0
   39.9390   22.7050   37.5470 C   0  0  0  0  0  0  0  0  0  0  0  0
   39.1790   23.3330   38.5300 C   0  0  0  0  0  0  0  0  0  0  0  0
   37.8040   23.4880   38.3030 C   0  0  0  0  0  0  0  0  0  0  0  0
   37.2870   23.0100   37.1220 N   0  0  0  0  0  0  0  0  0  0  0  0
   38.0730   22.4110   36.2070 C   0  0  0  0  0  0  0  0  0  0  0  0
   39.3920   22.2470   36.3950 N   0  0  0  0  0  0  0  0  0  0  0  0
   37.9770   22.4090   31.4140 C   0  0  0  0  0  0  0  0  0  0  0  0
   38.8600   21.7220   30.5970 C   0  0  0  0  0  0  0  0  0  0  0  0
   39.3780   22.3250   29.4870 C   0  0  0  0  0  0  0  0  0  0  0  0
   38.9800   23.6750   29.2050 C   0  0  0  0  0  0  0  0  0  0  0  0
   37.8030   24.0050   30.6610 S   0  0  0  0  0  0  0  0  0  0  0  0
   35.8913   20.7993   35.9862 H   0  0  0  0  0  0  0  0  0  0  0  0
   34.8444   20.0595   33.8762 H   0  0  0  0  0  0  0  0  0  0  0  0
   41.0191   22.5764   37.7109 H   0  0  0  0  0  0  0  0  0  0  0  0
   39.6438   23.6971   39.4581 H   0  0  0  0  0  0  0  0  0  0  0  0
   37.1585   23.9772   39.0473 H   0  0  0  0  0  0  0  0  0  0  0  0
   39.1444   20.6883   30.8431 H   0  0  0  0  0  0  0  0  0  0  0  0
   40.0795   21.7921   28.8283 H   0  0  0  0  0  0  0  0  0  0  0  0
   39.2744   24.3355   28.3761 H   0  0  0  0  0  0  0  0  0  0  0  0
  1  2  2  0
  1 11  1  0
  3  2  1  0
  4  3  2  0
  5  4  1  0
  5  6  2  0
  6  1  1  0
  7  8  2  0
  9  8  1  0
 10  9  2  0
 11 12  2  0
 11 10  1  0
 12  7  1  0
 13  5  1  0
 14 13  2  0
 15 14  1  0
 16 15  2  0
 16 17  1  0
 17 13  1  0
  2 18  1  0
  3 19  1  0
  7 20  1  0
  8 21  1  0
  9 22  1  0
 14 23  1  0
 15 24  1  0
 16 25  1  0
M  ISO  8  18  14  19  14  20  14  21  14  22  14  23  14  24  14  25  14
M  END
>  <minimizedAffinity>  (1) 
-4.28648567

>  <minimizedRMSD>  (1) 
0.700458407

$$$$
