
     RDKit          3D

 32 34  0  0  0  0  0  0  0  0999 V2000
   37.1950   21.9600   34.2740 C   0  0  0  0  0  0  0  0  0  0  0  0
   36.3910   20.8280   34.3310 C   0  0  0  0  0  0  0  0  0  0  0  0
   35.4650   20.4880   33.3790 C   0  0  0  0  0  0  0  0  0  0  0  0
   35.2920   21.2960   32.2810 C   0  0  0  0  0  0  0  0  0  0  0  0
   36.0500   22.4200   32.1680 C   0  0  0  0  0  0  0  0  0  0  0  0
   35.8550   23.2040   31.0640 C   0  0  0  0  0  0  0  0  0  0  0  0
   36.5900   24.3590   30.8850 C   0  0  0  0  0  0  0  0  0  0  0  0
   37.5330   24.6890   31.8700 C   0  0  0  0  0  0  0  0  0  0  0  0
   37.6780   23.8630   32.9490 C   0  0  0  0  0  0  0  0  0  0  0  0
   36.9710   22.7190   33.1570 C   0  0  0  0  0  0  0  0  0  0  0  0
   40.4520   22.1570   35.7520 C   0  0  0  0  0  0  0  0  0  0  0  0
   40.3190   22.6880   37.0330 C   0  0  0  0  0  0  0  0  0  0  0  0
   39.0260   22.9910   37.3940 C   0  0  0  0  0  0  0  0  0  0  0  0
   38.0300   22.7660   36.5300 N   0  0  0  0  0  0  0  0  0  0  0  0
   38.1560   22.2620   35.3160 C   0  0  0  0  0  0  0  0  0  0  0  0
   39.3950   21.9710   34.9670 N   0  0  0  0  0  0  0  0  0  0  0  0
   38.7470   23.5550   38.7130 C   0  0  0  0  0  0  0  0  0  0  0  0
   37.8600   24.7530   38.6930 C   0  0  0  0  0  0  0  0  0  0  0  0
   36.5052   20.1603   35.1977 H   0  0  0  0  0  0  0  0  0  0  0  0
   34.8640   19.5738   33.4934 H   0  0  0  0  0  0  0  0  0  0  0  0
   34.5538   21.0385   31.5072 H   0  0  0  0  0  0  0  0  0  0  0  0
   35.1065   22.9118   30.3128 H   0  0  0  0  0  0  0  0  0  0  0  0
   36.4415   24.9976   30.0017 H   0  0  0  0  0  0  0  0  0  0  0  0
   38.1456   25.5977   31.7753 H   0  0  0  0  0  0  0  0  0  0  0  0
   38.4233   24.1444   33.7075 H   0  0  0  0  0  0  0  0  0  0  0  0
   41.4519   21.8860   35.3823 H   0  0  0  0  0  0  0  0  0  0  0  0
   41.1772   22.8517   37.7013 H   0  0  0  0  0  0  0  0  0  0  0  0
   38.2637   22.7787   39.3244 H   0  0  0  0  0  0  0  0  0  0  0  0
   39.7121   23.8846   39.1251 H   0  0  0  0  0  0  0  0  0  0  0  0
   37.6336   25.0588   39.7251 H   0  0  0  0  0  0  0  0  0  0  0  0
   38.3678   25.5765   38.1696 H   0  0  0  0  0  0  0  0  0  0  0  0
   36.9241   24.5076   38.1696 H   0  0  0  0  0  0  0  0  0  0  0  0
  1  2  2  0
  1 15  1  0
  3  2  1  0
  4  3  2  0
  5  4  1  0
  5 10  2  0
  6  5  1  0
  7  6  2  0
  7  8  1  0
  8  9  2  0
  9 10  1  0
 10  1  1  0
 11 12  2  0
 12 13  1  0
 13 17  1  0
 14 13  2  0
 15 14  1  0
 16 15  2  0
 16 11  1  0
 18 17  1  0
  2 19  1  0
  3 20  1  0
  4 21  1  0
  6 22  1  0
  7 23  1  0
  8 24  1  0
  9 25  1  0
 11 26  1  0
 12 27  1  0
 17 28  1  0
 17 29  1  0
 18 30  1  0
 18 31  1  0
 18 32  1  0
M  ISO  8  19  14  20  14  21  14  22  14  23  14  24  14  25  14  26  14
M  ISO  6  27  14  28   8  29   8  30   8  31   8  32   8
M  END
>  <minimizedAffinity>  (1) 
-5.21685696

>  <minimizedRMSD>  (1) 
0.690932035

$$$$
