
     RDKit          3D

 27 28  0  0  0  0  0  0  0  0999 V2000
   37.1990   21.9010   34.7900 C   0  0  0  0  0  0  0  0  0  0  0  0
   36.2550   20.9050   34.9070 C   0  0  0  0  0  0  0  0  0  0  0  0
   35.5160   20.5530   33.8110 C   0  0  0  0  0  0  0  0  0  0  0  0
   35.7200   21.1880   32.6260 N   0  0  0  0  0  0  0  0  0  0  0  0
   36.6460   22.1650   32.5150 C   0  0  0  0  0  0  0  0  0  0  0  0
   37.3930   22.5260   33.6090 N   0  0  0  0  0  0  0  0  0  0  0  0
   40.0480   22.4960   37.0510 C   0  0  0  0  0  0  0  0  0  0  0  0
   39.4190   23.1640   38.1240 C   0  0  0  0  0  0  0  0  0  0  0  0
   38.0370   23.3970   38.0580 C   0  0  0  0  0  0  0  0  0  0  0  0
   37.3730   22.9580   36.9380 N   0  0  0  0  0  0  0  0  0  0  0  0
   38.0210   22.3190   35.9290 C   0  0  0  0  0  0  0  0  0  0  0  0
   39.3310   22.0920   35.9800 N   0  0  0  0  0  0  0  0  0  0  0  0
   36.8650   22.8560   31.2170 C   0  0  0  0  0  0  0  0  0  0  0  0
   35.8990   24.0150   31.0800 C   0  0  0  0  0  0  0  0  0  0  0  0
   38.3010   23.3110   31.0570 C   0  0  0  0  0  0  0  0  0  0  0  0
   36.0971   20.3984   35.8706 H   0  0  0  0  0  0  0  0  0  0  0  0
   34.7590   19.7586   33.8880 H   0  0  0  0  0  0  0  0  0  0  0  0
   41.1303   22.3031   37.0875 H   0  0  0  0  0  0  0  0  0  0  0  0
   40.0018   23.4958   38.9959 H   0  0  0  0  0  0  0  0  0  0  0  0
   37.5053   23.9116   38.8719 H   0  0  0  0  0  0  0  0  0  0  0  0
   36.6700   22.1376   30.4072 H   0  0  0  0  0  0  0  0  0  0  0  0
   35.6052   24.3675   32.0797 H   0  0  0  0  0  0  0  0  0  0  0  0
   36.3852   24.8345   30.5304 H   0  0  0  0  0  0  0  0  0  0  0  0
   35.0053   23.6845   30.5304 H   0  0  0  0  0  0  0  0  0  0  0  0
   38.7530   23.4542   32.0496 H   0  0  0  0  0  0  0  0  0  0  0  0
   38.8677   22.5484   30.5026 H   0  0  0  0  0  0  0  0  0  0  0  0
   38.3251   24.2608   30.5026 H   0  0  0  0  0  0  0  0  0  0  0  0
  1  2  2  0
  1 11  1  0
  3  2  1  0
  4  3  2  0
  5  4  1  0
  5  6  2  0
  6  1  1  0
  7  8  2  0
  9  8  1  0
 10  9  2  0
 11 12  2  0
 11 10  1  0
 12  7  1  0
 13  5  1  0
 14 13  1  0
 15 13  1  0
  2 16  1  0
  3 17  1  0
  7 18  1  0
  8 19  1  0
  9 20  1  0
 13 21  1  0
 14 22  1  0
 14 23  1  0
 14 24  1  0
 15 25  1  0
 15 26  1  0
 15 27  1  0
M  ISO  8  16  14  17  14  18  14  19  14  20  14  21   8  22   8  23   8
M  ISO  4  24   8  25   8  26   8  27   8
M  END
>  <minimizedAffinity>  (1) 
-4.28495502

>  <minimizedRMSD>  (1) 
0.658853352

$$$$
