
     RDKit          3D

 20 21  0  0  0  0  0  0  0  0999 V2000
   37.2320   21.8980   34.8860 C   0  0  0  0  0  0  0  0  0  0  0  0
   36.2230   20.9570   35.0040 C   0  0  0  0  0  0  0  0  0  0  0  0
   35.5420   20.5760   33.8870 C   0  0  0  0  0  0  0  0  0  0  0  0
   35.8520   21.1180   32.6740 N   0  0  0  0  0  0  0  0  0  0  0  0
   36.8390   22.0370   32.5680 C   0  0  0  0  0  0  0  0  0  0  0  0
   37.5350   22.4330   33.6760 N   0  0  0  0  0  0  0  0  0  0  0  0
   39.9560   22.6210   37.2450 C   0  0  0  0  0  0  0  0  0  0  0  0
   39.2920   23.2620   38.2870 C   0  0  0  0  0  0  0  0  0  0  0  0
   37.9050   23.4370   38.1590 C   0  0  0  0  0  0  0  0  0  0  0  0
   37.2890   22.9710   37.0260 N   0  0  0  0  0  0  0  0  0  0  0  0
   38.0010   22.3510   36.0430 C   0  0  0  0  0  0  0  0  0  0  0  0
   39.3220   22.1690   36.1360 N   0  0  0  0  0  0  0  0  0  0  0  0
   37.2420   22.6710   31.3170 C   0  0  0  0  0  0  0  0  0  0  0  0
   36.6820   23.6670   30.8110 O   0  0  0  0  0  0  0  0  0  0  0  0
   35.9751   20.5238   35.9842 H   0  0  0  0  0  0  0  0  0  0  0  0
   34.7389   19.8282   33.9636 H   0  0  0  0  0  0  0  0  0  0  0  0
   41.0433   22.4749   37.3254 H   0  0  0  0  0  0  0  0  0  0  0  0
   39.8331   23.6176   39.1762 H   0  0  0  0  0  0  0  0  0  0  0  0
   37.3256   23.9365   38.9495 H   0  0  0  0  0  0  0  0  0  0  0  0
   38.1008   22.2411   30.7806 H   0  0  0  0  0  0  0  0  0  0  0  0
  1  2  2  0
  1 11  1  0
  3  2  1  0
  4  3  2  0
  5  4  1  0
  5  6  2  0
  6  1  1  0
  7  8  2  0
  9  8  1  0
 10  9  2  0
 11 12  2  0
 11 10  1  0
 12  7  1  0
 13  5  1  0
 14 13  2  0
  2 15  1  0
  3 16  1  0
  7 17  1  0
  8 18  1  0
  9 19  1  0
 13 20  1  0
M  ISO  6  15  14  16  14  17  14  18  14  19  14  20   6
M  END
>  <minimizedAffinity>  (1) 
-3.98023915

>  <minimizedRMSD>  (1) 
0.260760546

$$$$
