
     RDKit          3D

 33 36  0  0  0  0  0  0  0  0999 V2000
   36.9940   21.7460   32.2080 C   0  0  0  0  0  0  0  0  0  0  0  0
   35.7740   21.1190   32.2850 C   0  0  0  0  0  0  0  0  0  0  0  0
   35.3450   20.1240   31.4350 C   0  0  0  0  0  0  0  0  0  0  0  0
   36.1640   19.6990   30.4280 C   0  0  0  0  0  0  0  0  0  0  0  0
   37.3870   20.2790   30.2950 C   0  0  0  0  0  0  0  0  0  0  0  0
   38.2130   19.8410   29.2670 C   0  0  0  0  0  0  0  0  0  0  0  0
   39.4510   20.3730   29.0720 C   0  0  0  0  0  0  0  0  0  0  0  0
   39.8530   21.3740   29.9450 C   0  0  0  0  0  0  0  0  0  0  0  0
   39.0180   21.7860   30.9500 C   0  0  0  0  0  0  0  0  0  0  0  0
   37.7790   21.2770   31.1720 C   0  0  0  0  0  0  0  0  0  0  0  0
   37.6090   25.1230   33.2550 C   0  0  0  0  0  0  0  0  0  0  0  0
   38.0490   25.0790   34.5880 C   0  0  0  0  0  0  0  0  0  0  0  0
   38.1300   23.8160   35.1300 C   0  0  0  0  0  0  0  0  0  0  0  0
   37.7950   22.7780   34.3700 N   0  0  0  0  0  0  0  0  0  0  0  0
   37.3840   22.7840   33.1320 C   0  0  0  0  0  0  0  0  0  0  0  0
   37.3040   24.0050   32.6040 N   0  0  0  0  0  0  0  0  0  0  0  0
   38.5590   23.6000   36.4700 N   0  0  0  0  0  0  0  0  0  0  0  0
   37.9470   24.0850   37.5730 C   0  0  0  0  0  0  0  0  0  0  0  0
   38.6700   23.6540   38.6670 C   0  0  0  0  0  0  0  0  0  0  0  0
   39.7100   22.9130   38.2080 N   0  0  0  0  0  0  0  0  0  0  0  0
   39.6340   22.8850   36.8460 C   0  0  0  0  0  0  0  0  0  0  0  0
   35.0888   21.4353   33.0852 H   0  0  0  0  0  0  0  0  0  0  0  0
   34.3496   19.6746   31.5662 H   0  0  0  0  0  0  0  0  0  0  0  0
   35.8413   18.9044   29.7391 H   0  0  0  0  0  0  0  0  0  0  0  0
   37.8583   19.0457   28.5949 H   0  0  0  0  0  0  0  0  0  0  0  0
   40.1039   20.0246   28.2582 H   0  0  0  0  0  0  0  0  0  0  0  0
   40.8439   21.8375   29.8299 H   0  0  0  0  0  0  0  0  0  0  0  0
   39.3747   22.5813   31.6210 H   0  0  0  0  0  0  0  0  0  0  0  0
   37.5158   26.0928   32.7444 H   0  0  0  0  0  0  0  0  0  0  0  0
   38.3091   25.9846   35.1557 H   0  0  0  0  0  0  0  0  0  0  0  0
   37.0406   24.7079   37.5949 H   0  0  0  0  0  0  0  0  0  0  0  0
   38.4438   23.8720   39.7212 H   0  0  0  0  0  0  0  0  0  0  0  0
   40.3318   22.3669   36.1718 H   0  0  0  0  0  0  0  0  0  0  0  0
  1  2  2  0
  1 15  1  0
  3  2  1  0
  4  3  2  0
  5  4  1  0
  5 10  2  0
  6  5  1  0
  7  6  2  0
  7  8  1  0
  8  9  2  0
  9 10  1  0
 10  1  1  0
 11 12  2  0
 12 13  1  0
 13 17  1  0
 14 13  2  0
 15 14  1  0
 16 15  2  0
 16 11  1  0
 17 21  1  0
 17 18  1  0
 18 19  2  0
 20 19  1  0
 21 20  2  0
  2 22  1  0
  3 23  1  0
  4 24  1  0
  6 25  1  0
  7 26  1  0
  8 27  1  0
  9 28  1  0
 11 29  1  0
 12 30  1  0
 18 31  1  0
 19 32  1  0
 21 33  1  0
M  ISO  8  22  14  23  14  24  14  25  14  26  14  27  14  28  14  29  14
M  ISO  4  30  14  31  14  32  14  33  14
M  END
>  <minimizedAffinity>  (1) 
-5.19627571

>  <minimizedRMSD>  (1) 
3.35804272

$$$$
