
     RDKit          3D

 20 21  0  0  0  0  0  0  0  0999 V2000
   37.2400   21.8840   34.9050 C   0  0  0  0  0  0  0  0  0  0  0  0
   36.2140   20.9720   35.0300 C   0  0  0  0  0  0  0  0  0  0  0  0
   35.5450   20.5900   33.8950 C   0  0  0  0  0  0  0  0  0  0  0  0
   35.8860   21.0950   32.6900 N   0  0  0  0  0  0  0  0  0  0  0  0
   36.9000   21.9930   32.5730 C   0  0  0  0  0  0  0  0  0  0  0  0
   37.5740   22.3840   33.6900 N   0  0  0  0  0  0  0  0  0  0  0  0
   37.3500   22.5920   31.3730 N   0  0  0  0  0  0  0  0  0  0  0  0
   39.9620   22.6270   37.2670 C   0  0  0  0  0  0  0  0  0  0  0  0
   39.2880   23.2710   38.3030 C   0  0  0  0  0  0  0  0  0  0  0  0
   37.8830   23.4470   38.1800 C   0  0  0  0  0  0  0  0  0  0  0  0
   37.2900   22.9660   37.0410 N   0  0  0  0  0  0  0  0  0  0  0  0
   38.0070   22.3470   36.0660 C   0  0  0  0  0  0  0  0  0  0  0  0
   39.3210   22.1780   36.1710 N   0  0  0  0  0  0  0  0  0  0  0  0
   35.9392   20.5618   36.0130 H   0  0  0  0  0  0  0  0  0  0  0  0
   34.7216   19.8642   33.9673 H   0  0  0  0  0  0  0  0  0  0  0  0
   38.1305   23.2638   31.3939 H   0  0  0  0  0  0  0  0  0  0  0  0
   36.8972   22.3563   30.4784 H   0  0  0  0  0  0  0  0  0  0  0  0
   41.0494   22.4812   37.3468 H   0  0  0  0  0  0  0  0  0  0  0  0
   39.8279   23.6327   39.1905 H   0  0  0  0  0  0  0  0  0  0  0  0
   37.2966   23.9475   38.9647 H   0  0  0  0  0  0  0  0  0  0  0  0
  1  2  2  0
  1 12  1  0
  3  2  1  0
  4  3  2  0
  5  4  1  0
  5  6  2  0
  6  1  1  0
  7  5  1  0
  8  9  2  0
 10  9  1  0
 11 10  2  0
 12 13  2  0
 12 11  1  0
 13  8  1  0
  2 14  1  0
  3 15  1  0
  7 16  1  0
  7 17  1  0
  8 18  1  0
  9 19  1  0
 10 20  1  0
M  ISO  5  14  14  15  14  18  14  19  14  20  14
M  END
>  <minimizedAffinity>  (1) 
-3.91223884

>  <minimizedRMSD>  (1) 
0.161118671

$$$$
