
     RDKit          3D

 25 27  0  0  0  0  0  0  0  0999 V2000
   37.5510   22.1630   34.8490 C   0  0  0  0  0  0  0  0  0  0  0  0
   36.5450   21.2250   34.7670 C   0  0  0  0  0  0  0  0  0  0  0  0
   36.0140   20.9220   33.5410 C   0  0  0  0  0  0  0  0  0  0  0  0
   36.4800   21.5440   32.4310 N   0  0  0  0  0  0  0  0  0  0  0  0
   37.4680   22.4650   32.5130 C   0  0  0  0  0  0  0  0  0  0  0  0
   38.0090   22.7790   33.7350 N   0  0  0  0  0  0  0  0  0  0  0  0
   39.9560   22.6660   37.5890 C   0  0  0  0  0  0  0  0  0  0  0  0
   39.1710   23.2730   38.5680 C   0  0  0  0  0  0  0  0  0  0  0  0
   37.8210   23.4980   38.2630 C   0  0  0  0  0  0  0  0  0  0  0  0
   37.3410   23.1190   37.0400 N   0  0  0  0  0  0  0  0  0  0  0  0
   38.1570   22.5290   36.1210 C   0  0  0  0  0  0  0  0  0  0  0  0
   39.4460   22.3070   36.3930 N   0  0  0  0  0  0  0  0  0  0  0  0
   37.9280   23.1000   31.2790 C   0  0  0  0  0  0  0  0  0  0  0  0
   38.8940   22.4500   30.5140 C   0  0  0  0  0  0  0  0  0  0  0  0
   39.1470   23.2610   29.4110 C   0  0  0  0  0  0  0  0  0  0  0  0
   38.3480   24.3490   29.5350 N   0  0  0  0  0  0  0  0  0  0  0  0
   37.6180   24.2680   30.6420 N   0  0  0  0  0  0  0  0  0  0  0  0
   36.1731   20.7260   35.6740 H   0  0  0  0  0  0  0  0  0  0  0  0
   35.2108   20.1751   33.4578 H   0  0  0  0  0  0  0  0  0  0  0  0
   41.0191   22.4748   37.7972 H   0  0  0  0  0  0  0  0  0  0  0  0
   39.5937   23.5639   39.5410 H   0  0  0  0  0  0  0  0  0  0  0  0
   37.1560   23.9737   38.9988 H   0  0  0  0  0  0  0  0  0  0  0  0
   39.3661   21.4821   30.7383 H   0  0  0  0  0  0  0  0  0  0  0  0
   39.8578   23.0581   28.5964 H   0  0  0  0  0  0  0  0  0  0  0  0
   38.3119   25.1299   28.8643 H   0  0  0  0  0  0  0  0  0  0  0  0
  1 11  1  0
  2  1  2  0
  3  2  1  0
  4  5  1  0
  4  3  2  0
  5  6  2  0
  6  1  1  0
  7  8  2  0
  9  8  1  0
 10  9  2  0
 11 12  2  0
 11 10  1  0
 12  7  1  0
 13  5  1  0
 14 13  1  0
 15 16  1  0
 15 14  2  0
 16 17  1  0
 17 13  2  0
  2 18  1  0
  3 19  1  0
  7 20  1  0
  8 21  1  0
  9 22  1  0
 14 23  1  0
 15 24  1  0
 16 25  1  0
M  ISO  8  18  14  19  14  20  14  21  14  22  14  23  14  24  14  25   9
M  END
>  <minimizedAffinity>  (1) 
-4.4006815

>  <minimizedRMSD>  (1) 
0.748188078

$$$$
