
     RDKit          3D

 36 40  0  0  0  0  0  0  0  0999 V2000
   38.0170   23.1670   34.8190 C   0  0  0  0  0  0  0  0  0  0  0  0
   37.5070   22.0260   34.2620 C   0  0  0  0  0  0  0  0  0  0  0  0
   37.1530   22.0140   32.9420 C   0  0  0  0  0  0  0  0  0  0  0  0
   37.3110   23.1320   32.1920 N   0  0  0  0  0  0  0  0  0  0  0  0
   37.8170   24.2690   32.7350 C   0  0  0  0  0  0  0  0  0  0  0  0
   38.1710   24.2800   34.0580 N   0  0  0  0  0  0  0  0  0  0  0  0
   39.8720   22.8130   37.9820 C   0  0  0  0  0  0  0  0  0  0  0  0
   39.0380   23.4670   38.8770 C   0  0  0  0  0  0  0  0  0  0  0  0
   37.8510   24.0200   38.3890 C   0  0  0  0  0  0  0  0  0  0  0  0
   37.5650   23.8940   37.0520 N   0  0  0  0  0  0  0  0  0  0  0  0
   38.4120   23.2460   36.2180 C   0  0  0  0  0  0  0  0  0  0  0  0
   39.5450   22.7140   36.6680 N   0  0  0  0  0  0  0  0  0  0  0  0
   37.9630   25.4380   31.8760 C   0  0  0  0  0  0  0  0  0  0  0  0
   37.2660   26.5930   32.1940 C   0  0  0  0  0  0  0  0  0  0  0  0
   37.5990   27.5270   31.2070 C   0  0  0  0  0  0  0  0  0  0  0  0
   38.4550   26.9340   30.3520 N   0  0  0  0  0  0  0  0  0  0  0  0
   38.6840   25.6840   30.7380 N   0  0  0  0  0  0  0  0  0  0  0  0
   38.6960   30.1270   26.9960 N   0  0  0  0  0  0  0  0  0  0  0  0
   37.6860   30.3960   27.8520 C   0  0  0  0  0  0  0  0  0  0  0  0
   37.6610   29.4370   28.8090 N   0  0  0  0  0  0  0  0  0  0  0  0
   38.6690   28.5580   28.5440 C   0  0  0  0  0  0  0  0  0  0  0  0
   39.1150   27.3930   29.1780 C   0  0  0  0  0  0  0  0  0  0  0  0
   40.1810   26.7200   28.6520 N   0  0  0  0  0  0  0  0  0  0  0  0
   40.7950   27.1820   27.5270 C   0  0  0  0  0  0  0  0  0  0  0  0
   40.3800   28.3150   26.8890 N   0  0  0  0  0  0  0  0  0  0  0  0
   39.3150   28.9880   27.4140 C   0  0  0  0  0  0  0  0  0  0  0  0
   37.3823   21.1211   34.8748 H   0  0  0  0  0  0  0  0  0  0  0  0
   36.7411   21.0999   32.4896 H   0  0  0  0  0  0  0  0  0  0  0  0
   40.8115   22.3683   38.3420 H   0  0  0  0  0  0  0  0  0  0  0  0
   39.3036   23.5481   39.9414 H   0  0  0  0  0  0  0  0  0  0  0  0
   37.1591   24.5461   39.0631 H   0  0  0  0  0  0  0  0  0  0  0  0
   36.5893   26.7444   33.0479 H   0  0  0  0  0  0  0  0  0  0  0  0
   37.2283   28.5605   31.1408 H   0  0  0  0  0  0  0  0  0  0  0  0
   38.9534   30.6864   26.1703 H   0  0  0  0  0  0  0  0  0  0  0  0
   36.9981   31.2516   27.7835 H   0  0  0  0  0  0  0  0  0  0  0  0
   41.6517   26.6247   27.1203 H   0  0  0  0  0  0  0  0  0  0  0  0
  1 11  1  0
  2  1  2  0
  3  2  1  0
  4  5  1  0
  4  3  2  0
  5  6  2  0
  6  1  1  0
  7  8  2  0
  9  8  1  0
 10  9  2  0
 11 12  2  0
 11 10  1  0
 12  7  1  0
 13 14  1  0
 13  5  1  0
 15 14  2  0
 16 17  1  0
 16 15  1  0
 17 13  2  0
 18 26  1  0
 18 19  1  0
 19 20  2  0
 21 20  1  0
 21 22  2  0
 22 16  1  0
 23 22  1  0
 24 23  2  0
 25 26  2  0
 25 24  1  0
 26 21  1  0
  2 27  1  0
  3 28  1  0
  7 29  1  0
  8 30  1  0
  9 31  1  0
 14 32  1  0
 15 33  1  0
 18 34  1  0
 19 35  1  0
 24 36  1  0
M  ISO  8  27  14  28  14  29  14  30  14  31  14  32  14  33  14  34   9
M  ISO  2  35  14  36  14
M  END
>  <minimizedAffinity>  (1) 
-5.44610691

>  <minimizedRMSD>  (1) 
2.81121802

$$$$
