
     RDKit          3D

 41 45  0  0  0  0  0  0  0  0999 V2000
   37.5040   21.9440   34.8760 C   0  0  0  0  0  0  0  0  0  0  0  0
   36.3550   21.1990   34.8510 C   0  0  0  0  0  0  0  0  0  0  0  0
   35.8510   20.7950   33.6480 C   0  0  0  0  0  0  0  0  0  0  0  0
   36.4850   21.1290   32.4910 N   0  0  0  0  0  0  0  0  0  0  0  0
   37.6240   21.8660   32.5140 C   0  0  0  0  0  0  0  0  0  0  0  0
   38.1390   22.2780   33.7230 N   0  0  0  0  0  0  0  0  0  0  0  0
   39.8890   22.7470   37.5630 C   0  0  0  0  0  0  0  0  0  0  0  0
   39.0680   23.3260   38.5330 C   0  0  0  0  0  0  0  0  0  0  0  0
   37.6980   23.4300   38.2380 C   0  0  0  0  0  0  0  0  0  0  0  0
   37.2450   22.9640   37.0350 N   0  0  0  0  0  0  0  0  0  0  0  0
   38.0950   22.4060   36.1250 C   0  0  0  0  0  0  0  0  0  0  0  0
   39.4070   22.2970   36.3850 N   0  0  0  0  0  0  0  0  0  0  0  0
   38.2650   22.1970   31.2450 C   0  0  0  0  0  0  0  0  0  0  0  0
   38.8790   21.1600   30.5320 C   0  0  0  0  0  0  0  0  0  0  0  0
   39.4040   21.7380   29.3760 C   0  0  0  0  0  0  0  0  0  0  0  0
   39.0980   23.0600   29.4330 N   0  0  0  0  0  0  0  0  0  0  0  0
   38.4230   23.3430   30.5350 N   0  0  0  0  0  0  0  0  0  0  0  0
   39.4890   23.9580   28.4000 C   0  0  0  0  0  0  0  0  0  0  0  0
   39.5690   23.6220   27.0610 C   0  0  0  0  0  0  0  0  0  0  0  0
   39.9620   24.5680   26.1180 C   0  0  0  0  0  0  0  0  0  0  0  0
   40.2570   25.8260   26.5980 C   0  0  0  0  0  0  0  0  0  0  0  0
   40.1850   26.1920   27.9350 C   0  0  0  0  0  0  0  0  0  0  0  0
   40.5210   27.5090   28.2400 C   0  0  0  0  0  0  0  0  0  0  0  0
   40.4330   27.8220   29.5810 C   0  0  0  0  0  0  0  0  0  0  0  0
   40.0500   26.9180   30.5490 C   0  0  0  0  0  0  0  0  0  0  0  0
   39.7350   25.6350   30.1560 C   0  0  0  0  0  0  0  0  0  0  0  0
   39.7930   25.2360   28.8480 C   0  0  0  0  0  0  0  0  0  0  0  0
   35.8450   20.9297   35.7877 H   0  0  0  0  0  0  0  0  0  0  0  0
   34.9284   20.1969   33.6139 H   0  0  0  0  0  0  0  0  0  0  0  0
   40.9661   22.6543   37.7659 H   0  0  0  0  0  0  0  0  0  0  0  0
   39.4769   23.6859   39.4887 H   0  0  0  0  0  0  0  0  0  0  0  0
   37.0021   23.8785   38.9623 H   0  0  0  0  0  0  0  0  0  0  0  0
   38.9360   20.1012   30.8249 H   0  0  0  0  0  0  0  0  0  0  0  0
   39.9569   21.2242   28.5758 H   0  0  0  0  0  0  0  0  0  0  0  0
   39.3204   22.6001   26.7386 H   0  0  0  0  0  0  0  0  0  0  0  0
   40.0332   24.3246   25.0476 H   0  0  0  0  0  0  0  0  0  0  0  0
   40.5706   26.5913   25.8728 H   0  0  0  0  0  0  0  0  0  0  0  0
   40.8303   28.2378   27.4764 H   0  0  0  0  0  0  0  0  0  0  0  0
   40.6815   28.8468   29.8942 H   0  0  0  0  0  0  0  0  0  0  0  0
   39.9972   27.2130   31.6074 H   0  0  0  0  0  0  0  0  0  0  0  0
   39.4263   24.9064   30.9201 H   0  0  0  0  0  0  0  0  0  0  0  0
  1 11  1  0
  2  1  2  0
  3  2  1  0
  4  5  1  0
  4  3  2  0
  5  6  2  0
  6  1  1  0
  7  8  2  0
  9  8  1  0
 10  9  2  0
 11 12  2  0
 11 10  1  0
 12  7  1  0
 13  5  1  0
 14 13  1  0
 15 16  1  0
 15 14  2  0
 16 17  1  0
 17 13  2  0
 18 27  1  0
 18 16  1  0
 19 18  2  0
 20 21  2  0
 20 19  1  0
 21 22  1  0
 22 23  1  0
 22 27  2  0
 23 24  2  0
 24 25  1  0
 26 25  2  0
 27 26  1  0
  2 28  1  0
  3 29  1  0
  7 30  1  0
  8 31  1  0
  9 32  1  0
 14 33  1  0
 15 34  1  0
 19 35  1  0
 20 36  1  0
 21 37  1  0
 23 38  1  0
 24 39  1  0
 25 40  1  0
 26 41  1  0
M  ISO  8  28  14  29  14  30  14  31  14  32  14  33  14  34  14  35  14
M  ISO  6  36  14  37  14  38  14  39  14  40  14  41  14
M  END
>  <minimizedAffinity>  (1) 
-5.35449696

>  <minimizedRMSD>  (1) 
1.94955289

$$$$
