
     RDKit          3D

 33 36  0  0  0  0  0  0  0  0999 V2000
   38.0420   23.7670   34.7390 C   0  0  0  0  0  0  0  0  0  0  0  0
   37.8740   22.6630   33.9330 C   0  0  0  0  0  0  0  0  0  0  0  0
   37.5260   22.8450   32.6240 C   0  0  0  0  0  0  0  0  0  0  0  0
   37.3510   24.1000   32.1390 N   0  0  0  0  0  0  0  0  0  0  0  0
   37.5180   25.1880   32.9390 C   0  0  0  0  0  0  0  0  0  0  0  0
   37.8690   25.0110   34.2580 N   0  0  0  0  0  0  0  0  0  0  0  0
   39.7720   22.8370   37.8550 C   0  0  0  0  0  0  0  0  0  0  0  0
   39.0020   23.4730   38.8300 C   0  0  0  0  0  0  0  0  0  0  0  0
   37.9010   24.2100   38.3860 C   0  0  0  0  0  0  0  0  0  0  0  0
   37.6140   24.2880   37.0490 N   0  0  0  0  0  0  0  0  0  0  0  0
   38.4130   23.6370   36.1440 C   0  0  0  0  0  0  0  0  0  0  0  0
   39.4650   22.9310   36.5470 N   0  0  0  0  0  0  0  0  0  0  0  0
   37.3150   26.5040   32.3520 C   0  0  0  0  0  0  0  0  0  0  0  0
   36.6710   27.4790   33.1240 C   0  0  0  0  0  0  0  0  0  0  0  0
   36.6000   28.6260   32.3510 C   0  0  0  0  0  0  0  0  0  0  0  0
   37.1900   28.3230   31.1590 N   0  0  0  0  0  0  0  0  0  0  0  0
   37.6170   27.0660   31.1520 N   0  0  0  0  0  0  0  0  0  0  0  0
   37.3060   29.2670   30.0990 C   0  0  0  0  0  0  0  0  0  0  0  0
   36.7870   30.5440   30.2070 C   0  0  0  0  0  0  0  0  0  0  0  0
   36.9460   31.4060   29.1160 C   0  0  0  0  0  0  0  0  0  0  0  0
   37.5740   31.0530   27.9800 N   0  0  0  0  0  0  0  0  0  0  0  0
   38.0670   29.8030   27.9080 C   0  0  0  0  0  0  0  0  0  0  0  0
   37.9300   28.9380   28.9510 N   0  0  0  0  0  0  0  0  0  0  0  0
   38.0178   21.6499   34.3368 H   0  0  0  0  0  0  0  0  0  0  0  0
   37.3880   21.9754   31.9647 H   0  0  0  0  0  0  0  0  0  0  0  0
   40.6481   22.2465   38.1613 H   0  0  0  0  0  0  0  0  0  0  0  0
   39.2505   23.3975   39.8989 H   0  0  0  0  0  0  0  0  0  0  0  0
   37.2614   24.7303   39.1141 H   0  0  0  0  0  0  0  0  0  0  0  0
   36.2932   27.3570   34.1498 H   0  0  0  0  0  0  0  0  0  0  0  0
   36.1560   29.5898   32.6407 H   0  0  0  0  0  0  0  0  0  0  0  0
   36.2669   30.8713   31.1193 H   0  0  0  0  0  0  0  0  0  0  0  0
   36.5365   32.4242   29.1913 H   0  0  0  0  0  0  0  0  0  0  0  0
   38.5870   29.4758   26.9956 H   0  0  0  0  0  0  0  0  0  0  0  0
  1 11  1  0
  2  1  2  0
  3  2  1  0
  4  3  2  0
  4  5  1  0
  5  6  2  0
  6  1  1  0
  7  8  2  0
  9  8  1  0
 10  9  2  0
 11 12  2  0
 11 10  1  0
 12  7  1  0
 13  5  1  0
 13 14  1  0
 15 14  2  0
 16 15  1  0
 17 16  1  0
 17 13  2  0
 18 19  2  0
 18 16  1  0
 20 19  1  0
 21 20  2  0
 22 21  1  0
 22 23  2  0
 23 18  1  0
  2 24  1  0
  3 25  1  0
  7 26  1  0
  8 27  1  0
  9 28  1  0
 14 29  1  0
 15 30  1  0
 19 31  1  0
 20 32  1  0
 22 33  1  0
M  ISO  8  24  14  25  14  26  14  27  14  28  14  29  14  30  14  31  14
M  ISO  2  32  14  33  14
M  END
>  <minimizedAffinity>  (1) 
-5.26593494

>  <minimizedRMSD>  (1) 
3.49968171

$$$$
