
     RDKit          3D

 35 38  0  0  0  0  0  0  0  0999 V2000
   38.1120   22.9890   34.6850 C   0  0  0  0  0  0  0  0  0  0  0  0
   38.0020   21.7810   34.0320 C   0  0  0  0  0  0  0  0  0  0  0  0
   37.6340   21.7670   32.7180 C   0  0  0  0  0  0  0  0  0  0  0  0
   37.3830   22.9280   32.0680 N   0  0  0  0  0  0  0  0  0  0  0  0
   37.4930   24.1200   32.7100 C   0  0  0  0  0  0  0  0  0  0  0  0
   37.8610   24.1530   34.0330 N   0  0  0  0  0  0  0  0  0  0  0  0
   40.0140   22.7470   37.8300 C   0  0  0  0  0  0  0  0  0  0  0  0
   39.1080   23.2720   38.7650 C   0  0  0  0  0  0  0  0  0  0  0  0
   37.8650   23.6930   38.2800 C   0  0  0  0  0  0  0  0  0  0  0  0
   37.5910   23.5800   36.9490 N   0  0  0  0  0  0  0  0  0  0  0  0
   38.5010   23.0670   36.0880 C   0  0  0  0  0  0  0  0  0  0  0  0
   39.6870   22.6620   36.5290 N   0  0  0  0  0  0  0  0  0  0  0  0
   37.2110   25.3390   31.9600 C   0  0  0  0  0  0  0  0  0  0  0  0
   35.9000   25.5620   31.5230 C   0  0  0  0  0  0  0  0  0  0  0  0
   35.9120   26.7730   30.8480 C   0  0  0  0  0  0  0  0  0  0  0  0
   37.1910   27.2450   30.8900 N   0  0  0  0  0  0  0  0  0  0  0  0
   37.9650   26.3900   31.5510 N   0  0  0  0  0  0  0  0  0  0  0  0
   37.6110   28.4720   30.3020 C   0  0  0  0  0  0  0  0  0  0  0  0
   38.8770   28.5900   29.7670 C   0  0  0  0  0  0  0  0  0  0  0  0
   39.3490   29.7510   29.1840 C   0  0  0  0  0  0  0  0  0  0  0  0
   38.4920   30.8130   29.1530 C   0  0  0  0  0  0  0  0  0  0  0  0
   37.2190   30.7390   29.6760 C   0  0  0  0  0  0  0  0  0  0  0  0
   36.7580   29.5550   30.2630 C   0  0  0  0  0  0  0  0  0  0  0  0
   38.2081   20.8399   34.5629 H   0  0  0  0  0  0  0  0  0  0  0  0
   37.5410   20.8092   32.1850 H   0  0  0  0  0  0  0  0  0  0  0  0
   41.0028   22.4013   38.1659 H   0  0  0  0  0  0  0  0  0  0  0  0
   39.3641   23.3490   39.8320 H   0  0  0  0  0  0  0  0  0  0  0  0
   37.1148   24.1118   38.9669 H   0  0  0  0  0  0  0  0  0  0  0  0
   35.0317   24.9060   31.6834 H   0  0  0  0  0  0  0  0  0  0  0  0
   35.0511   27.2617   30.3683 H   0  0  0  0  0  0  0  0  0  0  0  0
   39.5443   27.7164   29.8063 H   0  0  0  0  0  0  0  0  0  0  0  0
   40.3644   29.8159   28.7660 H   0  0  0  0  0  0  0  0  0  0  0  0
   38.8274   31.7561   28.6969 H   0  0  0  0  0  0  0  0  0  0  0  0
   36.5595   31.6182   29.6317 H   0  0  0  0  0  0  0  0  0  0  0  0
   35.7429   29.4900   30.6818 H   0  0  0  0  0  0  0  0  0  0  0  0
  1 11  1  0
  2  1  2  0
  3  2  1  0
  4  5  1  0
  4  3  2  0
  5  6  2  0
  6  1  1  0
  7  8  2  0
  9  8  1  0
 10  9  2  0
 11 12  2  0
 11 10  1  0
 12  7  1  0
 13  5  1  0
 14 13  1  0
 15 16  1  0
 15 14  2  0
 16 17  1  0
 17 13  2  0
 18 16  1  0
 19 18  2  0
 20 19  1  0
 21 20  2  0
 21 22  1  0
 22 23  2  0
 23 18  1  0
  2 24  1  0
  3 25  1  0
  7 26  1  0
  8 27  1  0
  9 28  1  0
 14 29  1  0
 15 30  1  0
 19 31  1  0
 20 32  1  0
 21 33  1  0
 22 34  1  0
 23 35  1  0
M  ISO  8  24  14  25  14  26  14  27  14  28  14  29  14  30  14  31  14
M  ISO  4  32  14  33  14  34  14  35  14
M  END
>  <minimizedAffinity>  (1) 
-5.22921515

>  <minimizedRMSD>  (1) 
2.88235521

$$$$
