
     RDKit          3D

 33 36  0  0  0  0  0  0  0  0999 V2000
   37.9470   23.0830   34.7720 C   0  0  0  0  0  0  0  0  0  0  0  0
   37.6320   21.8630   34.2090 C   0  0  0  0  0  0  0  0  0  0  0  0
   37.2370   21.8140   32.8890 C   0  0  0  0  0  0  0  0  0  0  0  0
   37.1630   22.9550   32.1620 N   0  0  0  0  0  0  0  0  0  0  0  0
   37.4710   24.1390   32.7120 C   0  0  0  0  0  0  0  0  0  0  0  0
   37.8690   24.2160   34.0340 N   0  0  0  0  0  0  0  0  0  0  0  0
   39.8200   22.8050   37.9230 C   0  0  0  0  0  0  0  0  0  0  0  0
   39.0320   23.5420   38.8060 C   0  0  0  0  0  0  0  0  0  0  0  0
   37.8650   24.1200   38.2950 C   0  0  0  0  0  0  0  0  0  0  0  0
   37.5630   23.9380   36.9750 N   0  0  0  0  0  0  0  0  0  0  0  0
   38.3700   23.2080   36.1550 C   0  0  0  0  0  0  0  0  0  0  0  0
   39.4780   22.6530   36.6230 N   0  0  0  0  0  0  0  0  0  0  0  0
   37.3730   25.3420   31.8800 C   0  0  0  0  0  0  0  0  0  0  0  0
   36.1080   25.9130   31.6860 C   0  0  0  0  0  0  0  0  0  0  0  0
   36.2800   27.0180   30.8740 C   0  0  0  0  0  0  0  0  0  0  0  0
   37.6010   27.0980   30.5990 N   0  0  0  0  0  0  0  0  0  0  0  0
   38.2630   26.1000   31.1950 N   0  0  0  0  0  0  0  0  0  0  0  0
   38.2000   28.1020   29.7900 C   0  0  0  0  0  0  0  0  0  0  0  0
   39.5430   28.4020   29.8620 C   0  0  0  0  0  0  0  0  0  0  0  0
   40.0270   29.3940   29.0320 C   0  0  0  0  0  0  0  0  0  0  0  0
   39.2100   30.0510   28.1760 N   0  0  0  0  0  0  0  0  0  0  0  0
   37.9120   29.7590   28.1060 C   0  0  0  0  0  0  0  0  0  0  0  0
   37.4800   28.7990   28.9190 N   0  0  0  0  0  0  0  0  0  0  0  0
   37.6953   20.9412   34.8059 H   0  0  0  0  0  0  0  0  0  0  0  0
   36.9821   20.8492   32.4263 H   0  0  0  0  0  0  0  0  0  0  0  0
   40.7433   22.3352   38.2928 H   0  0  0  0  0  0  0  0  0  0  0  0
   39.3163   23.6640   39.8616 H   0  0  0  0  0  0  0  0  0  0  0  0
   37.2022   24.7106   38.9445 H   0  0  0  0  0  0  0  0  0  0  0  0
   35.1567   25.5498   32.1020 H   0  0  0  0  0  0  0  0  0  0  0  0
   35.4936   27.7007   30.5198 H   0  0  0  0  0  0  0  0  0  0  0  0
   40.2077   27.8689   30.5577 H   0  0  0  0  0  0  0  0  0  0  0  0
   41.0951   29.6547   29.0672 H   0  0  0  0  0  0  0  0  0  0  0  0
   37.2354   30.2825   27.4145 H   0  0  0  0  0  0  0  0  0  0  0  0
  1 11  1  0
  2  1  2  0
  3  2  1  0
  4  5  1  0
  4  3  2  0
  5  6  2  0
  6  1  1  0
  7  8  2  0
  9  8  1  0
 10  9  2  0
 11 12  2  0
 11 10  1  0
 12  7  1  0
 13  5  1  0
 14 13  1  0
 15 14  2  0
 16 15  1  0
 16 17  1  0
 17 13  2  0
 18 19  2  0
 18 16  1  0
 20 19  1  0
 21 20  2  0
 22 21  1  0
 22 23  2  0
 23 18  1  0
  2 24  1  0
  3 25  1  0
  7 26  1  0
  8 27  1  0
  9 28  1  0
 14 29  1  0
 15 30  1  0
 19 31  1  0
 20 32  1  0
 22 33  1  0
M  ISO  8  24  14  25  14  26  14  27  14  28  14  29  14  30  14  31  14
M  ISO  2  32  14  33  14
M  END
>  <minimizedAffinity>  (1) 
-5.16751003

>  <minimizedRMSD>  (1) 
2.54689145

$$$$
