
     RDKit          3D

 32 35  0  0  0  0  0  0  0  0999 V2000
   37.4810   21.9090   34.9090 C   0  0  0  0  0  0  0  0  0  0  0  0
   36.3130   21.1730   34.9030 C   0  0  0  0  0  0  0  0  0  0  0  0
   35.7900   20.7510   33.7100 C   0  0  0  0  0  0  0  0  0  0  0  0
   36.4220   21.0590   32.5470 N   0  0  0  0  0  0  0  0  0  0  0  0
   37.5740   21.7850   32.5560 C   0  0  0  0  0  0  0  0  0  0  0  0
   38.1060   22.2110   33.7400 N   0  0  0  0  0  0  0  0  0  0  0  0
   39.8940   22.7460   37.5540 C   0  0  0  0  0  0  0  0  0  0  0  0
   39.0960   23.3450   38.5140 C   0  0  0  0  0  0  0  0  0  0  0  0
   37.7330   23.4490   38.2290 C   0  0  0  0  0  0  0  0  0  0  0  0
   37.2630   22.9660   37.0440 N   0  0  0  0  0  0  0  0  0  0  0  0
   38.0910   22.3870   36.1340 C   0  0  0  0  0  0  0  0  0  0  0  0
   39.4070   22.2700   36.3780 N   0  0  0  0  0  0  0  0  0  0  0  0
   38.1970   22.0780   31.2700 C   0  0  0  0  0  0  0  0  0  0  0  0
   38.6980   21.0130   30.5060 C   0  0  0  0  0  0  0  0  0  0  0  0
   39.2290   21.5570   29.3510 C   0  0  0  0  0  0  0  0  0  0  0  0
   39.0490   22.9030   29.4280 N   0  0  0  0  0  0  0  0  0  0  0  0
   38.4340   23.2310   30.5700 N   0  0  0  0  0  0  0  0  0  0  0  0
   39.4660   23.8060   28.4220 C   0  0  0  0  0  0  0  0  0  0  0  0
   39.5900   23.6360   27.0990 C   0  0  0  0  0  0  0  0  0  0  0  0
   40.0200   24.6650   26.2950 C   0  0  0  0  0  0  0  0  0  0  0  0
   40.3070   25.8670   26.9750 C   0  0  0  0  0  0  0  0  0  0  0  0
   39.9460   25.4640   28.7340 S   0  0  0  0  0  0  0  0  0  0  0  0
   35.8069   20.9277   35.8484 H   0  0  0  0  0  0  0  0  0  0  0  0
   34.8600   20.1638   33.6930 H   0  0  0  0  0  0  0  0  0  0  0  0
   40.9718   22.6511   37.7524 H   0  0  0  0  0  0  0  0  0  0  0  0
   39.5166   23.7217   39.4580 H   0  0  0  0  0  0  0  0  0  0  0  0
   37.0470   23.9149   38.9517 H   0  0  0  0  0  0  0  0  0  0  0  0
   38.6730   19.9467   30.7751 H   0  0  0  0  0  0  0  0  0  0  0  0
   39.7061   21.0062   28.5270 H   0  0  0  0  0  0  0  0  0  0  0  0
   39.3449   22.6618   26.6507 H   0  0  0  0  0  0  0  0  0  0  0  0
   40.1316   24.5591   25.2058 H   0  0  0  0  0  0  0  0  0  0  0  0
   40.6622   26.8191   26.5539 H   0  0  0  0  0  0  0  0  0  0  0  0
  1 11  1  0
  2  1  2  0
  3  2  1  0
  4  5  1  0
  4  3  2  0
  5  6  2  0
  6  1  1  0
  7  8  2  0
  9  8  1  0
 10  9  2  0
 11 12  2  0
 11 10  1  0
 12  7  1  0
 13  5  1  0
 14 13  1  0
 15 16  1  0
 15 14  2  0
 16 17  1  0
 17 13  2  0
 18 22  1  0
 18 16  1  0
 19 18  2  0
 20 21  2  0
 20 19  1  0
 21 22  1  0
  2 23  1  0
  3 24  1  0
  7 25  1  0
  8 26  1  0
  9 27  1  0
 14 28  1  0
 15 29  1  0
 19 30  1  0
 20 31  1  0
 21 32  1  0
M  ISO  8  23  14  24  14  25  14  26  14  27  14  28  14  29  14  30  14
M  ISO  2  31  14  32  14
M  END
>  <minimizedAffinity>  (1) 
-4.70622587

>  <minimizedRMSD>  (1) 
1.37459409

$$$$
