
     RDKit          3D

 41 44  0  0  0  0  0  0  0  0999 V2000
   37.8690   22.5040   34.7550 C   0  0  0  0  0  0  0  0  0  0  0  0
   36.9900   21.4870   34.4730 C   0  0  0  0  0  0  0  0  0  0  0  0
   36.5950   21.2940   33.1690 C   0  0  0  0  0  0  0  0  0  0  0  0
   37.0700   22.0980   32.1890 N   0  0  0  0  0  0  0  0  0  0  0  0
   37.9410   23.1050   32.4770 C   0  0  0  0  0  0  0  0  0  0  0  0
   38.3320   23.2960   33.7670 N   0  0  0  0  0  0  0  0  0  0  0  0
   39.9480   22.7370   37.7910 C   0  0  0  0  0  0  0  0  0  0  0  0
   39.0740   23.3150   38.6980 C   0  0  0  0  0  0  0  0  0  0  0  0
   37.7870   23.6150   38.2590 C   0  0  0  0  0  0  0  0  0  0  0  0
   37.4350   23.3330   36.9590 N   0  0  0  0  0  0  0  0  0  0  0  0
   38.3310   22.7670   36.1140 C   0  0  0  0  0  0  0  0  0  0  0  0
   39.5770   22.4700   36.5210 N   0  0  0  0  0  0  0  0  0  0  0  0
   38.4100   23.9310   31.3760 C   0  0  0  0  0  0  0  0  0  0  0  0
   38.7860   23.3100   30.1780 C   0  0  0  0  0  0  0  0  0  0  0  0
   39.1870   24.3140   29.3070 C   0  0  0  0  0  0  0  0  0  0  0  0
   39.0500   25.4760   29.9740 N   0  0  0  0  0  0  0  0  0  0  0  0
   38.5940   25.2650   31.1920 N   0  0  0  0  0  0  0  0  0  0  0  0
   39.3520   26.7860   29.4550 C   0  0  0  0  0  0  0  0  0  0  0  0
   40.5070   26.8330   28.5060 C   0  0  0  0  0  0  0  0  0  0  0  0
   40.9930   28.2840   28.4190 C   0  0  0  0  0  0  0  0  0  0  0  0
   41.6810   28.7060   29.7080 C   0  0  0  0  0  0  0  0  0  0  0  0
   41.1170   27.7950   30.8050 C   0  0  0  0  0  0  0  0  0  0  0  0
   39.6100   27.8010   30.5630 C   0  0  0  0  0  0  0  0  0  0  0  0
   36.6085   20.8383   35.2753 H   0  0  0  0  0  0  0  0  0  0  0  0
   35.8919   20.4848   32.9225 H   0  0  0  0  0  0  0  0  0  0  0  0
   40.9699   22.4896   38.1143 H   0  0  0  0  0  0  0  0  0  0  0  0
   39.3866   23.5297   39.7306 H   0  0  0  0  0  0  0  0  0  0  0  0
   37.0589   24.0729   38.9447 H   0  0  0  0  0  0  0  0  0  0  0  0
   38.7671   22.2306   29.9671 H   0  0  0  0  0  0  0  0  0  0  0  0
   39.5460   24.1857   28.2752 H   0  0  0  0  0  0  0  0  0  0  0  0
   38.4434   27.0490   28.8935 H   0  0  0  0  0  0  0  0  0  0  0  0
   41.3191   26.1893   28.8749 H   0  0  0  0  0  0  0  0  0  0  0  0
   40.1991   26.4740   27.5129 H   0  0  0  0  0  0  0  0  0  0  0  0
   41.7041   28.3759   27.5848 H   0  0  0  0  0  0  0  0  0  0  0  0
   40.1223   28.9363   28.2564 H   0  0  0  0  0  0  0  0  0  0  0  0
   42.7694   28.5722   29.6220 H   0  0  0  0  0  0  0  0  0  0  0  0
   41.5001   29.7675   29.9328 H   0  0  0  0  0  0  0  0  0  0  0  0
   41.5224   26.7766   30.7123 H   0  0  0  0  0  0  0  0  0  0  0  0
   41.3816   28.1406   31.8152 H   0  0  0  0  0  0  0  0  0  0  0  0
   39.2785   28.8015   30.2481 H   0  0  0  0  0  0  0  0  0  0  0  0
   39.0565   27.5441   31.4782 H   0  0  0  0  0  0  0  0  0  0  0  0
  1 11  1  0
  2  1  2  0
  3  2  1  0
  4  5  1  0
  4  3  2  0
  5  6  2  0
  6  1  1  0
  7  8  2  0
  9  8  1  0
 10  9  2  0
 11 12  2  0
 11 10  1  0
 12  7  1  0
 13  5  1  0
 14 13  1  0
 15 16  1  0
 15 14  2  0
 16 17  1  0
 17 13  2  0
 18 16  1  0
 18 23  1  0
 19 18  1  0
 20 19  1  0
 20 21  1  0
 21 22  1  0
 23 22  1  0
  2 24  1  0
  3 25  1  0
  7 26  1  0
  8 27  1  0
  9 28  1  0
 14 29  1  0
 15 30  1  0
 18 31  1  0
 19 32  1  0
 19 33  1  0
 20 34  1  0
 20 35  1  0
 21 36  1  0
 21 37  1  0
 22 38  1  0
 22 39  1  0
 23 40  1  0
 23 41  1  0
M  ISO  8  24  14  25  14  26  14  27  14  28  14  29  14  30  14  31  13
M  ISO  8  32  13  33  13  34  13  35  13  36  13  37  13  38  13  39  13
M  ISO  2  40  13  41  13
M  END
>  <minimizedAffinity>  (1) 
-4.65502834

>  <minimizedRMSD>  (1) 
1.5310868

$$$$
