
     RDKit          3D

 40 43  0  0  0  0  0  0  0  0999 V2000
   37.8130   22.4480   34.7370 C   0  0  0  0  0  0  0  0  0  0  0  0
   36.8910   21.4720   34.4770 C   0  0  0  0  0  0  0  0  0  0  0  0
   36.4730   21.2760   33.1850 C   0  0  0  0  0  0  0  0  0  0  0  0
   36.9740   22.0430   32.1880 N   0  0  0  0  0  0  0  0  0  0  0  0
   37.8810   23.0020   32.4460 C   0  0  0  0  0  0  0  0  0  0  0  0
   38.3050   23.2070   33.7350 N   0  0  0  0  0  0  0  0  0  0  0  0
   39.9460   22.7260   37.7300 C   0  0  0  0  0  0  0  0  0  0  0  0
   39.0630   23.2670   38.6770 C   0  0  0  0  0  0  0  0  0  0  0  0
   37.7590   23.5190   38.2550 C   0  0  0  0  0  0  0  0  0  0  0  0
   37.3920   23.2380   36.9640 N   0  0  0  0  0  0  0  0  0  0  0  0
   38.3020   22.7120   36.0860 C   0  0  0  0  0  0  0  0  0  0  0  0
   39.5570   22.4620   36.4680 N   0  0  0  0  0  0  0  0  0  0  0  0
   38.3890   23.8010   31.3370 C   0  0  0  0  0  0  0  0  0  0  0  0
   38.7150   23.1540   30.1420 C   0  0  0  0  0  0  0  0  0  0  0  0
   39.1700   24.1220   29.2570 C   0  0  0  0  0  0  0  0  0  0  0  0
   39.1140   25.3030   29.9080 N   0  0  0  0  0  0  0  0  0  0  0  0
   38.6550   25.1170   31.1350 N   0  0  0  0  0  0  0  0  0  0  0  0
   40.4470   29.2100   29.4610 N   0  0  0  0  0  0  0  0  0  0  0  0
   41.2670   28.1930   28.8810 C   0  0  0  0  0  0  0  0  0  0  0  0
   40.9850   26.8130   29.4130 C   0  0  0  0  0  0  0  0  0  0  0  0
   39.4910   26.5730   29.3700 C   0  0  0  0  0  0  0  0  0  0  0  0
   38.7810   27.6540   30.1580 C   0  0  0  0  0  0  0  0  0  0  0  0
   39.0350   28.9480   29.4060 C   0  0  0  0  0  0  0  0  0  0  0  0
   36.4899   20.8525   35.2927 H   0  0  0  0  0  0  0  0  0  0  0  0
   35.7310   20.4959   32.9592 H   0  0  0  0  0  0  0  0  0  0  0  0
   40.9835   22.5119   38.0263 H   0  0  0  0  0  0  0  0  0  0  0  0
   39.3857   23.4825   39.7063 H   0  0  0  0  0  0  0  0  0  0  0  0
   37.0252   23.9427   38.9565 H   0  0  0  0  0  0  0  0  0  0  0  0
   38.6273   22.0763   29.9399 H   0  0  0  0  0  0  0  0  0  0  0  0
   39.5106   23.9580   28.2240 H   0  0  0  0  0  0  0  0  0  0  0  0
   40.7157   29.3134   30.4499 H   0  0  0  0  0  0  0  0  0  0  0  0
   42.3199   28.4362   29.0867 H   0  0  0  0  0  0  0  0  0  0  0  0
   41.0437   28.1747   27.8041 H   0  0  0  0  0  0  0  0  0  0  0  0
   41.4983   26.0645   28.7915 H   0  0  0  0  0  0  0  0  0  0  0  0
   41.3489   26.7282   30.4476 H   0  0  0  0  0  0  0  0  0  0  0  0
   39.1993   26.5912   28.3095 H   0  0  0  0  0  0  0  0  0  0  0  0
   37.7021   27.4455   30.2082 H   0  0  0  0  0  0  0  0  0  0  0  0
   39.1488   27.7083   31.1932 H   0  0  0  0  0  0  0  0  0  0  0  0
   38.4814   29.7723   29.8794 H   0  0  0  0  0  0  0  0  0  0  0  0
   38.6974   28.8622   28.3626 H   0  0  0  0  0  0  0  0  0  0  0  0
  1 11  1  0
  2  1  2  0
  3  2  1  0
  4  5  1  0
  4  3  2  0
  5  6  2  0
  6  1  1  0
  7  8  2  0
  9  8  1  0
 10  9  2  0
 11 12  2  0
 11 10  1  0
 12  7  1  0
 13  5  1  0
 14 13  1  0
 15 16  1  0
 15 14  2  0
 16 17  1  0
 17 13  2  0
 19 20  1  0
 19 18  1  0
 21 20  1  0
 21 16  1  0
 21 22  1  0
 23 18  1  0
 23 22  1  0
  2 24  1  0
  3 25  1  0
  7 26  1  0
  8 27  1  0
  9 28  1  0
 14 29  1  0
 15 30  1  0
 18 31  1  0
 19 32  1  0
 19 33  1  0
 20 34  1  0
 20 35  1  0
 21 36  1  0
 22 37  1  0
 22 38  1  0
 23 39  1  0
 23 40  1  0
M  ISO  8  24  14  25  14  26  14  27  14  28  14  29  14  30  14  31   5
M  ISO  8  32  13  33  13  34  13  35  13  36  13  37  13  38  13  39  13
M  ISO  1  40  13
M  END
>  <minimizedAffinity>  (1) 
-4.62906885

>  <minimizedRMSD>  (1) 
1.288638

$$$$
