
     RDKit          3D

 38 41  0  0  0  0  0  0  0  0999 V2000
   37.5250   21.9490   34.8380 C   0  0  0  0  0  0  0  0  0  0  0  0
   36.3740   21.2020   34.8160 C   0  0  0  0  0  0  0  0  0  0  0  0
   35.8610   20.8030   33.6180 C   0  0  0  0  0  0  0  0  0  0  0  0
   36.4900   21.1480   32.4650 N   0  0  0  0  0  0  0  0  0  0  0  0
   37.6300   21.8880   32.4840 C   0  0  0  0  0  0  0  0  0  0  0  0
   38.1470   22.2900   33.6850 N   0  0  0  0  0  0  0  0  0  0  0  0
   39.9480   22.6900   37.5160 C   0  0  0  0  0  0  0  0  0  0  0  0
   39.1440   23.3020   38.4750 C   0  0  0  0  0  0  0  0  0  0  0  0
   37.7850   23.4480   38.1850 C   0  0  0  0  0  0  0  0  0  0  0  0
   37.2970   22.9930   36.9880 N   0  0  0  0  0  0  0  0  0  0  0  0
   38.1220   22.4060   36.0880 C   0  0  0  0  0  0  0  0  0  0  0  0
   39.4320   22.2570   36.3500 N   0  0  0  0  0  0  0  0  0  0  0  0
   38.2520   22.2220   31.2070 C   0  0  0  0  0  0  0  0  0  0  0  0
   38.7860   21.1850   30.4400 C   0  0  0  0  0  0  0  0  0  0  0  0
   39.3040   21.8010   29.2930 C   0  0  0  0  0  0  0  0  0  0  0  0
   39.0780   23.1240   29.3950 N   0  0  0  0  0  0  0  0  0  0  0  0
   38.4460   23.3970   30.5390 N   0  0  0  0  0  0  0  0  0  0  0  0
   39.4430   24.1670   28.4330 C   0  0  0  0  0  0  0  0  0  0  0  0
   39.5560   23.5890   27.0310 C   0  0  0  0  0  0  0  0  0  0  0  0
   40.2230   24.7360   26.3030 C   0  0  0  0  0  0  0  0  0  0  0  0
   41.1900   25.2930   27.3130 C   0  0  0  0  0  0  0  0  0  0  0  0
   40.8440   24.6550   28.6440 C   0  0  0  0  0  0  0  0  0  0  0  0
   35.8709   20.9282   35.7551 H   0  0  0  0  0  0  0  0  0  0  0  0
   34.9397   20.2030   33.5852 H   0  0  0  0  0  0  0  0  0  0  0  0
   41.0219   22.5583   37.7145 H   0  0  0  0  0  0  0  0  0  0  0  0
   39.5643   23.6578   39.4272 H   0  0  0  0  0  0  0  0  0  0  0  0
   37.1116   23.9248   38.9124 H   0  0  0  0  0  0  0  0  0  0  0  0
   38.7976   20.1125   30.6841 H   0  0  0  0  0  0  0  0  0  0  0  0
   39.8067   21.2930   28.4568 H   0  0  0  0  0  0  0  0  0  0  0  0
   38.6735   24.9428   28.5591 H   0  0  0  0  0  0  0  0  0  0  0  0
   40.1796   22.6829   27.0159 H   0  0  0  0  0  0  0  0  0  0  0  0
   38.5996   23.2669   26.5932 H   0  0  0  0  0  0  0  0  0  0  0  0
   40.7544   24.3762   25.4096 H   0  0  0  0  0  0  0  0  0  0  0  0
   39.5033   25.4873   25.9458 H   0  0  0  0  0  0  0  0  0  0  0  0
   42.2223   25.0412   27.0287 H   0  0  0  0  0  0  0  0  0  0  0  0
   41.1171   26.3892   27.3684 H   0  0  0  0  0  0  0  0  0  0  0  0
   40.8866   25.3930   29.4586 H   0  0  0  0  0  0  0  0  0  0  0  0
   41.5413   23.8553   28.9344 H   0  0  0  0  0  0  0  0  0  0  0  0
  1 11  1  0
  2  1  2  0
  3  2  1  0
  4  5  1  0
  4  3  2  0
  5  6  2  0
  6  1  1  0
  7  8  2  0
  9  8  1  0
 10  9  2  0
 11 12  2  0
 11 10  1  0
 12  7  1  0
 13  5  1  0
 14 13  1  0
 15 16  1  0
 15 14  2  0
 16 17  1  0
 17 13  2  0
 18 22  1  0
 18 16  1  0
 19 18  1  0
 20 19  1  0
 20 21  1  0
 21 22  1  0
  2 23  1  0
  3 24  1  0
  7 25  1  0
  8 26  1  0
  9 27  1  0
 14 28  1  0
 15 29  1  0
 18 30  1  0
 19 31  1  0
 19 32  1  0
 20 33  1  0
 20 34  1  0
 21 35  1  0
 21 36  1  0
 22 37  1  0
 22 38  1  0
M  ISO  8  23  14  24  14  25  14  26  14  27  14  28  14  29  14  30  13
M  ISO  8  31  13  32  13  33  13  34  13  35  13  36  13  37  13  38  13
M  END
>  <minimizedAffinity>  (1) 
-4.54410076

>  <minimizedRMSD>  (1) 
1.26204443

$$$$
