
     RDKit          3D

 28 30  0  0  0  0  0  0  0  0999 V2000
   37.5010   21.9260   34.8930 C   0  0  0  0  0  0  0  0  0  0  0  0
   36.3390   21.1920   34.8780 C   0  0  0  0  0  0  0  0  0  0  0  0
   35.8210   20.7750   33.6850 C   0  0  0  0  0  0  0  0  0  0  0  0
   36.4580   21.0890   32.5250 N   0  0  0  0  0  0  0  0  0  0  0  0
   37.5990   21.8100   32.5410 C   0  0  0  0  0  0  0  0  0  0  0  0
   38.1270   22.2350   33.7440 N   0  0  0  0  0  0  0  0  0  0  0  0
   39.9170   22.7380   37.5540 C   0  0  0  0  0  0  0  0  0  0  0  0
   39.1010   23.3340   38.5170 C   0  0  0  0  0  0  0  0  0  0  0  0
   37.7350   23.4460   38.2330 C   0  0  0  0  0  0  0  0  0  0  0  0
   37.2570   22.9730   37.0390 N   0  0  0  0  0  0  0  0  0  0  0  0
   38.1010   22.4000   36.1360 C   0  0  0  0  0  0  0  0  0  0  0  0
   39.4080   22.2850   36.3890 N   0  0  0  0  0  0  0  0  0  0  0  0
   38.2390   22.1170   31.2620 C   0  0  0  0  0  0  0  0  0  0  0  0
   38.6340   21.0740   30.4410 C   0  0  0  0  0  0  0  0  0  0  0  0
   39.2060   21.6250   29.3080 C   0  0  0  0  0  0  0  0  0  0  0  0
   39.1430   22.9610   29.4680 N   0  0  0  0  0  0  0  0  0  0  0  0
   38.5690   23.2820   30.6290 N   0  0  0  0  0  0  0  0  0  0  0  0
   39.6000   24.0150   28.5770 C   0  0  0  0  0  0  0  0  0  0  0  0
   39.2350   25.2660   29.0720 F   0  0  0  0  0  0  0  0  0  0  0  0
   40.9770   23.9140   28.5130 F   0  0  0  0  0  0  0  0  0  0  0  0
   39.1260   23.8350   27.2940 F   0  0  0  0  0  0  0  0  0  0  0  0
   35.8297   20.9421   35.8204 H   0  0  0  0  0  0  0  0  0  0  0  0
   34.8916   20.1871   33.6624 H   0  0  0  0  0  0  0  0  0  0  0  0
   40.9949   22.6356   37.7482 H   0  0  0  0  0  0  0  0  0  0  0  0
   39.5170   23.7029   39.4661 H   0  0  0  0  0  0  0  0  0  0  0  0
   37.0523   23.9089   38.9607 H   0  0  0  0  0  0  0  0  0  0  0  0
   38.5145   20.0010   30.6516 H   0  0  0  0  0  0  0  0  0  0  0  0
   39.6273   21.0815   28.4495 H   0  0  0  0  0  0  0  0  0  0  0  0
  1 11  1  0
  2  1  2  0
  3  2  1  0
  4  5  1  0
  4  3  2  0
  5  6  2  0
  6  1  1  0
  7  8  2  0
  9  8  1  0
 10  9  2  0
 11 12  2  0
 11 10  1  0
 12  7  1  0
 13  5  1  0
 14 13  1  0
 15 16  1  0
 15 14  2  0
 16 17  1  0
 17 13  2  0
 18 19  1  0
 18 16  1  0
 20 18  1  0
 21 18  1  0
  2 22  1  0
  3 23  1  0
  7 24  1  0
  8 25  1  0
  9 26  1  0
 14 27  1  0
 15 28  1  0
M  ISO  7  22  14  23  14  24  14  25  14  26  14  27  14  28  14
M  END
>  <minimizedAffinity>  (1) 
-4.39436913

>  <minimizedRMSD>  (1) 
1.26129317

$$$$
