
     RDKit          3D

 37 39  0  0  0  0  0  0  0  0999 V2000
   37.5440   21.8660   34.7230 C   0  0  0  0  0  0  0  0  0  0  0  0
   36.3490   21.1900   34.6990 C   0  0  0  0  0  0  0  0  0  0  0  0
   35.8440   20.7780   33.4960 C   0  0  0  0  0  0  0  0  0  0  0  0
   36.5220   21.0400   32.3490 N   0  0  0  0  0  0  0  0  0  0  0  0
   37.7070   21.7110   32.3760 C   0  0  0  0  0  0  0  0  0  0  0  0
   38.2190   22.1260   33.5690 N   0  0  0  0  0  0  0  0  0  0  0  0
   39.9330   22.6510   37.4170 C   0  0  0  0  0  0  0  0  0  0  0  0
   39.1360   23.2710   38.3630 C   0  0  0  0  0  0  0  0  0  0  0  0
   37.7760   23.4100   38.0550 C   0  0  0  0  0  0  0  0  0  0  0  0
   37.3200   22.9360   36.8620 N   0  0  0  0  0  0  0  0  0  0  0  0
   38.1430   22.3360   35.9700 C   0  0  0  0  0  0  0  0  0  0  0  0
   39.4420   22.1960   36.2490 N   0  0  0  0  0  0  0  0  0  0  0  0
   38.3840   21.9590   31.1020 C   0  0  0  0  0  0  0  0  0  0  0  0
   38.5950   20.8800   30.2380 C   0  0  0  0  0  0  0  0  0  0  0  0
   39.2460   21.3930   29.1250 C   0  0  0  0  0  0  0  0  0  0  0  0
   39.4060   22.7150   29.3370 N   0  0  0  0  0  0  0  0  0  0  0  0
   38.8940   23.0720   30.5180 N   0  0  0  0  0  0  0  0  0  0  0  0
   40.0520   23.6240   28.3930 C   0  0  0  0  0  0  0  0  0  0  0  0
   39.4980   23.4470   27.0150 C   0  0  0  0  0  0  0  0  0  0  0  0
   39.7550   25.0780   28.7780 C   0  0  0  0  0  0  0  0  0  0  0  0
   41.5460   23.4790   28.4410 C   0  0  0  0  0  0  0  0  0  0  0  0
   35.8059   20.9828   35.6329 H   0  0  0  0  0  0  0  0  0  0  0  0
   34.8885   20.2344   33.4580 H   0  0  0  0  0  0  0  0  0  0  0  0
   41.0055   22.5255   37.6267 H   0  0  0  0  0  0  0  0  0  0  0  0
   39.5509   23.6380   39.3133 H   0  0  0  0  0  0  0  0  0  0  0  0
   37.0884   23.8936   38.7644 H   0  0  0  0  0  0  0  0  0  0  0  0
   38.3031   19.8330   30.4069 H   0  0  0  0  0  0  0  0  0  0  0  0
   39.5700   20.8284   28.2383 H   0  0  0  0  0  0  0  0  0  0  0  0
   38.4520   23.1128   27.0805 H   0  0  0  0  0  0  0  0  0  0  0  0
   39.5439   24.4045   26.4756 H   0  0  0  0  0  0  0  0  0  0  0  0
   40.0906   22.6935   26.4756 H   0  0  0  0  0  0  0  0  0  0  0  0
   39.7361   25.1706   29.8739 H   0  0  0  0  0  0  0  0  0  0  0  0
   40.5379   25.7331   28.3681 H   0  0  0  0  0  0  0  0  0  0  0  0
   38.7779   25.3736   28.3681 H   0  0  0  0  0  0  0  0  0  0  0  0
   41.8778   23.4468   29.4893 H   0  0  0  0  0  0  0  0  0  0  0  0
   41.8405   22.5481   27.9344 H   0  0  0  0  0  0  0  0  0  0  0  0
   42.0140   24.3359   27.9344 H   0  0  0  0  0  0  0  0  0  0  0  0
  1 11  1  0
  2  1  2  0
  3  2  1  0
  4  5  1  0
  4  3  2  0
  5  6  2  0
  6  1  1  0
  7  8  2  0
  9  8  1  0
 10  9  2  0
 11 12  2  0
 11 10  1  0
 12  7  1  0
 13  5  1  0
 14 13  1  0
 15 16  1  0
 15 14  2  0
 16 17  1  0
 17 13  2  0
 18 21  1  0
 18 20  1  0
 18 16  1  0
 19 18  1  0
  2 22  1  0
  3 23  1  0
  7 24  1  0
  8 25  1  0
  9 26  1  0
 14 27  1  0
 15 28  1  0
 19 29  1  0
 19 30  1  0
 19 31  1  0
 20 32  1  0
 20 33  1  0
 20 34  1  0
 21 35  1  0
 21 36  1  0
 21 37  1  0
M  ISO  8  22  14  23  14  24  14  25  14  26  14  27  14  28  14  29   8
M  ISO  8  30   8  31   8  32   8  33   8  34   8  35   8  36   8  37   8
M  END
>  <minimizedAffinity>  (1) 
-4.25250912

>  <minimizedRMSD>  (1) 
1.51005816

$$$$
