
     RDKit          3D

 42 46  0  0  0  0  0  0  0  0999 V2000
   38.7170   23.8660   31.2830 C   0  0  0  0  0  0  0  0  0  0  0  0
   38.6910   23.3130   29.9990 C   0  0  0  0  0  0  0  0  0  0  0  0
   39.2900   24.2250   29.1420 C   0  0  0  0  0  0  0  0  0  0  0  0
   39.6530   25.2740   29.9150 N   0  0  0  0  0  0  0  0  0  0  0  0
   39.3160   25.0680   31.1800 N   0  0  0  0  0  0  0  0  0  0  0  0
   37.9450   22.5410   34.6730 C   0  0  0  0  0  0  0  0  0  0  0  0
   36.9970   21.5980   34.3700 C   0  0  0  0  0  0  0  0  0  0  0  0
   36.6380   21.4210   33.0660 C   0  0  0  0  0  0  0  0  0  0  0  0
   37.1990   22.1590   32.0780 N   0  0  0  0  0  0  0  0  0  0  0  0
   38.1400   23.0950   32.3850 C   0  0  0  0  0  0  0  0  0  0  0  0
   38.5100   23.2830   33.6880 N   0  0  0  0  0  0  0  0  0  0  0  0
   39.9500   22.7300   37.7600 C   0  0  0  0  0  0  0  0  0  0  0  0
   39.0670   23.3330   38.6410 C   0  0  0  0  0  0  0  0  0  0  0  0
   37.8130   23.6590   38.1620 C   0  0  0  0  0  0  0  0  0  0  0  0
   37.4690   23.3910   36.8610 N   0  0  0  0  0  0  0  0  0  0  0  0
   38.3850   22.7930   36.0380 C   0  0  0  0  0  0  0  0  0  0  0  0
   39.5850   22.4790   36.4910 N   0  0  0  0  0  0  0  0  0  0  0  0
   40.3170   26.4460   29.3850 C   0  0  0  0  0  0  0  0  0  0  0  0
   39.6130   26.8080   28.0890 C   0  0  0  0  0  0  0  0  0  0  0  0
   39.0610   28.1620   28.1690 N   0  0  0  0  0  0  0  0  0  0  0  0
   39.4310   29.2030   27.4010 C   0  0  0  0  0  0  0  0  0  0  0  0
   38.7410   30.3200   27.7120 N   0  0  0  0  0  0  0  0  0  0  0  0
   37.8910   29.9810   28.7250 C   0  0  0  0  0  0  0  0  0  0  0  0
   36.9460   30.6780   29.4530 C   0  0  0  0  0  0  0  0  0  0  0  0
   36.2490   30.0640   30.4070 N   0  0  0  0  0  0  0  0  0  0  0  0
   36.4620   28.7460   30.6680 C   0  0  0  0  0  0  0  0  0  0  0  0
   37.3880   28.0310   29.9640 N   0  0  0  0  0  0  0  0  0  0  0  0
   38.1080   28.6450   28.9870 C   0  0  0  0  0  0  0  0  0  0  0  0
   38.2726   22.3348   29.7197 H   0  0  0  0  0  0  0  0  0  0  0  0
   39.4390   24.1172   28.0575 H   0  0  0  0  0  0  0  0  0  0  0  0
   36.5340   20.9946   35.1647 H   0  0  0  0  0  0  0  0  0  0  0  0
   35.8796   20.6657   32.8121 H   0  0  0  0  0  0  0  0  0  0  0  0
   40.9585   22.4543   38.1020 H   0  0  0  0  0  0  0  0  0  0  0  0
   39.3535   23.5440   39.6819 H   0  0  0  0  0  0  0  0  0  0  0  0
   37.0827   24.1384   38.8304 H   0  0  0  0  0  0  0  0  0  0  0  0
   40.2425   27.2782   30.1005 H   0  0  0  0  0  0  0  0  0  0  0  0
   41.3843   26.2463   29.2091 H   0  0  0  0  0  0  0  0  0  0  0  0
   38.7962   26.0937   27.9084 H   0  0  0  0  0  0  0  0  0  0  0  0
   40.3400   26.7671   27.2645 H   0  0  0  0  0  0  0  0  0  0  0  0
   40.2006   29.1500   26.6168 H   0  0  0  0  0  0  0  0  0  0  0  0
   36.7689   31.7433   29.2439 H   0  0  0  0  0  0  0  0  0  0  0  0
   35.8797   28.2490   31.4578 H   0  0  0  0  0  0  0  0  0  0  0  0
  1 10  1  0
  2  1  1  0
  3  4  1  0
  3  2  2  0
  4  5  1  0
  5  1  2  0
  6 16  1  0
  7  6  2  0
  8  7  1  0
  9 10  1  0
  9  8  2  0
 10 11  2  0
 11  6  1  0
 12 13  2  0
 14 13  1  0
 15 14  2  0
 16 17  2  0
 16 15  1  0
 17 12  1  0
 18  4  1  0
 19 20  1  0
 19 18  1  0
 20 28  1  0
 21 22  2  0
 21 20  1  0
 22 23  1  0
 23 28  2  0
 23 24  1  0
 24 25  2  0
 25 26  1  0
 27 26  2  0
 28 27  1  0
  2 29  1  0
  3 30  1  0
  7 31  1  0
  8 32  1  0
 12 33  1  0
 13 34  1  0
 14 35  1  0
 18 36  1  0
 18 37  1  0
 19 38  1  0
 19 39  1  0
 21 40  1  0
 24 41  1  0
 26 42  1  0
M  ISO  8  29  14  30  14  31  14  32  14  33  14  34  14  35  14  36   8
M  ISO  6  37   8  38   8  39   8  40  14  41  14  42  14
M  END
>  <minimizedAffinity>  (1) 
-5.08766317

>  <minimizedRMSD>  (1) 
3.40231943

$$$$
