
     RDKit          3D

 45 49  0  0  0  0  0  0  0  0999 V2000
   36.4960   18.7130   29.7670 C   0  0  0  0  0  0  0  0  0  0  0  0
   36.9050   17.3900   29.9830 C   0  0  0  0  0  0  0  0  0  0  0  0
   37.1310   16.8360   28.7320 C   0  0  0  0  0  0  0  0  0  0  0  0
   36.8600   17.8060   27.8320 N   0  0  0  0  0  0  0  0  0  0  0  0
   36.4850   18.9170   28.4380 N   0  0  0  0  0  0  0  0  0  0  0  0
   36.0660   21.6380   32.0220 C   0  0  0  0  0  0  0  0  0  0  0  0
   35.6280   21.0280   33.1660 C   0  0  0  0  0  0  0  0  0  0  0  0
   35.4830   19.6700   33.1670 C   0  0  0  0  0  0  0  0  0  0  0  0
   35.7660   18.9370   32.0620 N   0  0  0  0  0  0  0  0  0  0  0  0
   36.1960   19.5340   30.9420 C   0  0  0  0  0  0  0  0  0  0  0  0
   36.3450   20.9020   30.9300 N   0  0  0  0  0  0  0  0  0  0  0  0
   37.3340   25.0770   32.4780 C   0  0  0  0  0  0  0  0  0  0  0  0
   36.4800   25.8110   31.6850 C   0  0  0  0  0  0  0  0  0  0  0  0
   35.4880   25.1230   31.0090 C   0  0  0  0  0  0  0  0  0  0  0  0
   35.3800   23.7580   31.1420 N   0  0  0  0  0  0  0  0  0  0  0  0
   36.2490   23.0810   31.9370 C   0  0  0  0  0  0  0  0  0  0  0  0
   37.1980   23.7450   32.5820 N   0  0  0  0  0  0  0  0  0  0  0  0
   37.0000   17.5310   26.4210 C   0  0  0  0  0  0  0  0  0  0  0  0
   38.3730   17.9540   25.9720 C   0  0  0  0  0  0  0  0  0  0  0  0
   38.3830   19.1470   25.1110 C   0  0  0  0  0  0  0  0  0  0  0  0
   37.9660   19.2120   23.8270 N   0  0  0  0  0  0  0  0  0  0  0  0
   37.9570   20.2900   23.0630 C   0  0  0  0  0  0  0  0  0  0  0  0
   38.3840   21.4680   23.5330 N   0  0  0  0  0  0  0  0  0  0  0  0
   38.8310   21.5380   24.8120 C   0  0  0  0  0  0  0  0  0  0  0  0
   39.2670   22.7470   25.2570 C   0  0  0  0  0  0  0  0  0  0  0  0
   39.7390   22.8620   26.5460 C   0  0  0  0  0  0  0  0  0  0  0  0
   39.7620   21.7380   27.3750 C   0  0  0  0  0  0  0  0  0  0  0  0
   39.2960   20.5420   26.8360 C   0  0  0  0  0  0  0  0  0  0  0  0
   38.8190   20.3850   25.5580 C   0  0  0  0  0  0  0  0  0  0  0  0
   37.0236   16.8889   30.9550 H   0  0  0  0  0  0  0  0  0  0  0  0
   37.4647   15.8104   28.5156 H   0  0  0  0  0  0  0  0  0  0  0  0
   35.3978   21.6185   34.0651 H   0  0  0  0  0  0  0  0  0  0  0  0
   35.1314   19.1633   34.0779 H   0  0  0  0  0  0  0  0  0  0  0  0
   38.1358   25.5871   33.0319 H   0  0  0  0  0  0  0  0  0  0  0  0
   36.5827   26.9023   31.5926 H   0  0  0  0  0  0  0  0  0  0  0  0
   34.7840   25.6688   30.3637 H   0  0  0  0  0  0  0  0  0  0  0  0
   36.8688   16.4539   26.2406 H   0  0  0  0  0  0  0  0  0  0  0  0
   36.2371   18.0876   25.8569 H   0  0  0  0  0  0  0  0  0  0  0  0
   38.9779   18.1679   26.8655 H   0  0  0  0  0  0  0  0  0  0  0  0
   38.7791   17.1265   25.3718 H   0  0  0  0  0  0  0  0  0  0  0  0
   37.5938   20.2182   22.0272 H   0  0  0  0  0  0  0  0  0  0  0  0
   39.2429   23.6244   24.5940 H   0  0  0  0  0  0  0  0  0  0  0  0
   40.0956   23.8330   26.9202 H   0  0  0  0  0  0  0  0  0  0  0  0
   40.1324   21.7954   28.4092 H   0  0  0  0  0  0  0  0  0  0  0  0
   39.3111   19.6536   27.4844 H   0  0  0  0  0  0  0  0  0  0  0  0
  1  2  1  0
  1 10  1  0
  3  2  2  0
  4  5  1  0
  4  3  1  0
  5  1  2  0
  6  7  2  0
  7  8  1  0
  9  8  2  0
 10  9  1  0
 11 10  2  0
 11  6  1  0
 12 17  2  0
 13 12  1  0
 14 15  1  0
 14 13  2  0
 15 16  2  0
 16  6  1  0
 16 17  1  0
 18  4  1  0
 19 18  1  0
 20 29  1  0
 20 19  1  0
 21 20  2  0
 22 23  2  0
 22 21  1  0
 23 24  1  0
 24 25  1  0
 24 29  2  0
 25 26  2  0
 26 27  1  0
 28 27  2  0
 29 28  1  0
  2 30  1  0
  3 31  1  0
  7 32  1  0
  8 33  1  0
 12 34  1  0
 13 35  1  0
 14 36  1  0
 18 37  1  0
 18 38  1  0
 19 39  1  0
 19 40  1  0
 22 41  1  0
 25 42  1  0
 26 43  1  0
 27 44  1  0
 28 45  1  0
M  ISO  8  30  14  31  14  32  14  33  14  34  14  35  14  36  14  37   8
M  ISO  8  38   8  39   8  40   8  41  14  42  14  43  14  44  14  45  14
M  END
>  <minimizedAffinity>  (1) 
-4.90680265

>  <minimizedRMSD>  (1) 
4.71589375

$$$$
