
     RDKit          3D

 41 44  0  0  0  0  0  0  0  0999 V2000
   38.2230   22.2500   31.2310 C   0  0  0  0  0  0  0  0  0  0  0  0
   38.7570   21.2200   30.4450 C   0  0  0  0  0  0  0  0  0  0  0  0
   39.2880   21.7920   29.2960 C   0  0  0  0  0  0  0  0  0  0  0  0
   39.0690   23.1220   29.4100 N   0  0  0  0  0  0  0  0  0  0  0  0
   38.4390   23.3930   30.5520 N   0  0  0  0  0  0  0  0  0  0  0  0
   37.5120   21.9600   34.8610 C   0  0  0  0  0  0  0  0  0  0  0  0
   36.3620   21.2000   34.8410 C   0  0  0  0  0  0  0  0  0  0  0  0
   35.8450   20.8020   33.6290 C   0  0  0  0  0  0  0  0  0  0  0  0
   36.4630   21.1540   32.4730 N   0  0  0  0  0  0  0  0  0  0  0  0
   37.6000   21.9040   32.5020 C   0  0  0  0  0  0  0  0  0  0  0  0
   38.1150   22.3010   33.7020 N   0  0  0  0  0  0  0  0  0  0  0  0
   39.9250   22.7170   37.5380 C   0  0  0  0  0  0  0  0  0  0  0  0
   39.1120   23.3160   38.4970 C   0  0  0  0  0  0  0  0  0  0  0  0
   37.7660   23.4420   38.1990 C   0  0  0  0  0  0  0  0  0  0  0  0
   37.2760   22.9930   37.0100 N   0  0  0  0  0  0  0  0  0  0  0  0
   38.1100   22.4120   36.1010 C   0  0  0  0  0  0  0  0  0  0  0  0
   39.4110   22.2830   36.3730 N   0  0  0  0  0  0  0  0  0  0  0  0
   39.4760   24.0750   28.4090 C   0  0  0  0  0  0  0  0  0  0  0  0
   39.5830   23.3150   27.0990 C   0  0  0  0  0  0  0  0  0  0  0  0
   40.0140   24.2400   25.9930 C   0  0  0  0  0  0  0  0  0  0  0  0
   40.0280   23.6750   24.7200 C   0  0  0  0  0  0  0  0  0  0  0  0
   40.4070   24.4310   23.6280 C   0  0  0  0  0  0  0  0  0  0  0  0
   40.7650   25.7470   23.8460 C   0  0  0  0  0  0  0  0  0  0  0  0
   40.7520   26.3180   25.1170 C   0  0  0  0  0  0  0  0  0  0  0  0
   40.3700   25.5540   26.2160 C   0  0  0  0  0  0  0  0  0  0  0  0
   38.7558   20.1485   30.6938 H   0  0  0  0  0  0  0  0  0  0  0  0
   39.7845   21.2706   28.4643 H   0  0  0  0  0  0  0  0  0  0  0  0
   35.8647   20.9157   35.7801 H   0  0  0  0  0  0  0  0  0  0  0  0
   34.9274   20.1963   33.5972 H   0  0  0  0  0  0  0  0  0  0  0  0
   41.0005   22.5973   37.7355 H   0  0  0  0  0  0  0  0  0  0  0  0
   39.5227   23.6744   39.4524 H   0  0  0  0  0  0  0  0  0  0  0  0
   37.0869   23.9083   38.9280 H   0  0  0  0  0  0  0  0  0  0  0  0
   38.7273   24.8762   28.3221 H   0  0  0  0  0  0  0  0  0  0  0  0
   40.4361   24.5414   28.6747 H   0  0  0  0  0  0  0  0  0  0  0  0
   40.3231   22.5084   27.2067 H   0  0  0  0  0  0  0  0  0  0  0  0
   38.5988   22.8920   26.8490 H   0  0  0  0  0  0  0  0  0  0  0  0
   39.7362   22.6232   24.5839 H   0  0  0  0  0  0  0  0  0  0  0  0
   40.4232   23.9986   22.6167 H   0  0  0  0  0  0  0  0  0  0  0  0
   41.0703   26.3645   22.9884 H   0  0  0  0  0  0  0  0  0  0  0  0
   41.0430   27.3702   25.2515 H   0  0  0  0  0  0  0  0  0  0  0  0
   40.3526   25.9836   27.2285 H   0  0  0  0  0  0  0  0  0  0  0  0
  1 10  1  0
  2  1  1  0
  3  4  1  0
  3  2  2  0
  4  5  1  0
  5  1  2  0
  6 16  1  0
  7  6  2  0
  8  7  1  0
  9 10  1  0
  9  8  2  0
 10 11  2  0
 11  6  1  0
 12 13  2  0
 14 13  1  0
 15 14  2  0
 16 17  2  0
 16 15  1  0
 17 12  1  0
 18  4  1  0
 19 18  1  0
 20 25  1  0
 20 19  1  0
 21 20  2  0
 22 23  2  0
 22 21  1  0
 23 24  1  0
 24 25  2  0
  2 26  1  0
  3 27  1  0
  7 28  1  0
  8 29  1  0
 12 30  1  0
 13 31  1  0
 14 32  1  0
 18 33  1  0
 18 34  1  0
 19 35  1  0
 19 36  1  0
 21 37  1  0
 22 38  1  0
 23 39  1  0
 24 40  1  0
 25 41  1  0
M  ISO  8  26  14  27  14  28  14  29  14  30  14  31  14  32  14  33   8
M  ISO  8  34   8  35   8  36   8  37  14  38  14  39  14  40  14  41  14
M  END
>  <minimizedAffinity>  (1) 
-4.87029791

>  <minimizedRMSD>  (1) 
0.20053789

$$$$
