
     RDKit          3D

 42 45  0  0  0  0  0  0  0  0999 V2000
   38.2160   22.2550   31.2170 C   0  0  0  0  0  0  0  0  0  0  0  0
   38.7700   21.2240   30.4480 C   0  0  0  0  0  0  0  0  0  0  0  0
   39.2980   21.7990   29.3060 C   0  0  0  0  0  0  0  0  0  0  0  0
   39.0560   23.1250   29.4080 N   0  0  0  0  0  0  0  0  0  0  0  0
   38.4170   23.3990   30.5350 N   0  0  0  0  0  0  0  0  0  0  0  0
   37.5060   21.9520   34.8570 C   0  0  0  0  0  0  0  0  0  0  0  0
   36.3640   21.2050   34.8330 C   0  0  0  0  0  0  0  0  0  0  0  0
   35.8440   20.8120   33.6340 C   0  0  0  0  0  0  0  0  0  0  0  0
   36.4550   21.1600   32.4690 N   0  0  0  0  0  0  0  0  0  0  0  0
   37.5850   21.8990   32.4950 C   0  0  0  0  0  0  0  0  0  0  0  0
   38.1210   22.3030   33.6980 N   0  0  0  0  0  0  0  0  0  0  0  0
   39.9310   22.7070   37.5240 C   0  0  0  0  0  0  0  0  0  0  0  0
   39.1330   23.3060   38.4830 C   0  0  0  0  0  0  0  0  0  0  0  0
   37.7800   23.4400   38.1980 C   0  0  0  0  0  0  0  0  0  0  0  0
   37.2720   22.9900   37.0070 N   0  0  0  0  0  0  0  0  0  0  0  0
   38.1140   22.4050   36.0950 C   0  0  0  0  0  0  0  0  0  0  0  0
   39.4160   22.2710   36.3580 N   0  0  0  0  0  0  0  0  0  0  0  0
   39.4710   24.0510   28.3830 C   0  0  0  0  0  0  0  0  0  0  0  0
   39.5880   23.2760   27.0800 C   0  0  0  0  0  0  0  0  0  0  0  0
   39.9880   24.2930   26.0940 N   0  0  0  0  0  0  0  0  0  0  0  0
   40.3100   25.5480   26.5020 C   0  0  0  0  0  0  0  0  0  0  0  0
   40.6950   26.5690   25.6680 C   0  0  0  0  0  0  0  0  0  0  0  0
   40.7560   26.2910   24.3200 C   0  0  0  0  0  0  0  0  0  0  0  0
   41.1530   27.3370   23.4450 N   0  0  0  0  0  0  0  0  0  0  0  0
   40.4360   25.0490   23.9370 N   0  0  0  0  0  0  0  0  0  0  0  0
   40.0620   24.0730   24.7800 C   0  0  0  0  0  0  0  0  0  0  0  0
   39.7710   22.9200   24.3540 O   0  0  0  0  0  0  0  0  0  0  0  0
   38.7829   20.1544   30.7047 H   0  0  0  0  0  0  0  0  0  0  0  0
   39.8110   21.2819   28.4817 H   0  0  0  0  0  0  0  0  0  0  0  0
   35.8667   20.9220   35.7725 H   0  0  0  0  0  0  0  0  0  0  0  0
   34.9241   20.2094   33.6091 H   0  0  0  0  0  0  0  0  0  0  0  0
   41.0069   22.5845   37.7176 H   0  0  0  0  0  0  0  0  0  0  0  0
   39.5540   23.6624   39.4347 H   0  0  0  0  0  0  0  0  0  0  0  0
   37.1112   23.9108   38.9336 H   0  0  0  0  0  0  0  0  0  0  0  0
   38.7243   24.8518   28.2769 H   0  0  0  0  0  0  0  0  0  0  0  0
   40.4353   24.5103   28.6461 H   0  0  0  0  0  0  0  0  0  0  0  0
   40.3517   22.4885   27.1609 H   0  0  0  0  0  0  0  0  0  0  0  0
   38.6527   22.7661   26.8058 H   0  0  0  0  0  0  0  0  0  0  0  0
   40.2586   25.7623   27.5797 H   0  0  0  0  0  0  0  0  0  0  0  0
   40.9441   27.5663   26.0596 H   0  0  0  0  0  0  0  0  0  0  0  0
   41.2101   27.1663   22.4309 H   0  0  0  0  0  0  0  0  0  0  0  0
   41.3838   28.2663   23.8246 H   0  0  0  0  0  0  0  0  0  0  0  0
  1 10  1  0
  2  1  1  0
  3  4  1  0
  3  2  2  0
  4  5  1  0
  5  1  2  0
  6 16  1  0
  7  6  2  0
  8  7  1  0
  9 10  1  0
  9  8  2  0
 10 11  2  0
 11  6  1  0
 12 13  2  0
 14 13  1  0
 15 14  2  0
 16 17  2  0
 16 15  1  0
 17 12  1  0
 18  4  1  0
 19 18  1  0
 20 21  1  0
 20 19  1  0
 22 21  2  0
 23 22  1  0
 24 23  1  0
 25 23  2  0
 25 26  1  0
 26 20  1  0
 27 26  2  0
  2 28  1  0
  3 29  1  0
  7 30  1  0
  8 31  1  0
 12 32  1  0
 13 33  1  0
 14 34  1  0
 18 35  1  0
 18 36  1  0
 19 37  1  0
 19 38  1  0
 21 39  1  0
 22 40  1  0
 24 41  1  0
 24 42  1  0
M  ISO  8  28  14  29  14  30  14  31  14  32  14  33  14  34  14  35   8
M  ISO  5  36   8  37   8  38   8  39  14  40  14
M  END
>  <minimizedAffinity>  (1) 
-4.70450974

>  <minimizedRMSD>  (1) 
0.638402045

$$$$
