
     RDKit          3D

 38 41  0  0  0  0  0  0  0  0999 V2000
   38.2380   22.2400   31.2210 C   0  0  0  0  0  0  0  0  0  0  0  0
   38.7600   21.1980   30.4460 C   0  0  0  0  0  0  0  0  0  0  0  0
   39.2840   21.7800   29.3040 C   0  0  0  0  0  0  0  0  0  0  0  0
   39.0650   23.1260   29.4220 N   0  0  0  0  0  0  0  0  0  0  0  0
   38.4440   23.3950   30.5610 N   0  0  0  0  0  0  0  0  0  0  0  0
   37.5210   21.9610   34.8610 C   0  0  0  0  0  0  0  0  0  0  0  0
   36.3750   21.2070   34.8410 C   0  0  0  0  0  0  0  0  0  0  0  0
   35.8600   20.8040   33.6360 C   0  0  0  0  0  0  0  0  0  0  0  0
   36.4780   21.1500   32.4810 N   0  0  0  0  0  0  0  0  0  0  0  0
   37.6150   21.9000   32.4980 C   0  0  0  0  0  0  0  0  0  0  0  0
   38.1300   22.3020   33.7090 N   0  0  0  0  0  0  0  0  0  0  0  0
   39.9200   22.7190   37.5440 C   0  0  0  0  0  0  0  0  0  0  0  0
   39.1180   23.3130   38.4920 C   0  0  0  0  0  0  0  0  0  0  0  0
   37.7720   23.4500   38.2130 C   0  0  0  0  0  0  0  0  0  0  0  0
   37.2720   23.0010   37.0170 N   0  0  0  0  0  0  0  0  0  0  0  0
   38.1150   22.4160   36.1060 C   0  0  0  0  0  0  0  0  0  0  0  0
   39.4170   22.2790   36.3650 N   0  0  0  0  0  0  0  0  0  0  0  0
   39.4740   24.0570   28.4080 C   0  0  0  0  0  0  0  0  0  0  0  0
   39.5820   23.3110   27.1060 C   0  0  0  0  0  0  0  0  0  0  0  0
   40.0340   24.2370   26.0650 C   0  0  0  0  0  0  0  0  0  0  0  0
   40.0980   23.9430   24.7050 C   0  0  0  0  0  0  0  0  0  0  0  0
   40.4970   24.7230   23.6820 C   0  0  0  0  0  0  0  0  0  0  0  0
   40.9040   26.0740   24.2410 C   0  0  0  0  0  0  0  0  0  0  0  0
   40.6100   25.8980   26.1420 S   0  0  0  0  0  0  0  0  0  0  0  0
   38.7550   20.1266   30.6952 H   0  0  0  0  0  0  0  0  0  0  0  0
   39.7781   21.2633   28.4680 H   0  0  0  0  0  0  0  0  0  0  0  0
   35.8753   20.9291   35.7807 H   0  0  0  0  0  0  0  0  0  0  0  0
   34.9424   20.1980   33.6068 H   0  0  0  0  0  0  0  0  0  0  0  0
   40.9942   22.5987   37.7481 H   0  0  0  0  0  0  0  0  0  0  0  0
   39.5371   23.6686   39.4449 H   0  0  0  0  0  0  0  0  0  0  0  0
   37.1020   23.9185   38.9489 H   0  0  0  0  0  0  0  0  0  0  0  0
   38.7284   24.8606   28.3168 H   0  0  0  0  0  0  0  0  0  0  0  0
   40.4427   24.5068   28.6714 H   0  0  0  0  0  0  0  0  0  0  0  0
   40.3066   22.4899   27.2098 H   0  0  0  0  0  0  0  0  0  0  0  0
   38.6016   22.8932   26.8333 H   0  0  0  0  0  0  0  0  0  0  0  0
   39.7767   22.9285   24.4266 H   0  0  0  0  0  0  0  0  0  0  0  0
   40.5234   24.4306   22.6219 H   0  0  0  0  0  0  0  0  0  0  0  0
   41.2792   26.9499   23.6914 H   0  0  0  0  0  0  0  0  0  0  0  0
  1 10  1  0
  2  1  1  0
  3  4  1  0
  3  2  2  0
  4  5  1  0
  5  1  2  0
  6 16  1  0
  7  6  2  0
  8  7  1  0
  9 10  1  0
  9  8  2  0
 10 11  2  0
 11  6  1  0
 12 13  2  0
 14 13  1  0
 15 14  2  0
 16 17  2  0
 16 15  1  0
 17 12  1  0
 18  4  1  0
 19 18  1  0
 20 24  1  0
 20 19  1  0
 21 20  2  0
 22 23  2  0
 22 21  1  0
 23 24  1  0
  2 25  1  0
  3 26  1  0
  7 27  1  0
  8 28  1  0
 12 29  1  0
 13 30  1  0
 14 31  1  0
 18 32  1  0
 18 33  1  0
 19 34  1  0
 19 35  1  0
 21 36  1  0
 22 37  1  0
 23 38  1  0
M  ISO  8  25  14  26  14  27  14  28  14  29  14  30  14  31  14  32   8
M  ISO  6  33   8  34   8  35   8  36  14  37  14  38  14
M  END
>  <minimizedAffinity>  (1) 
-4.54245806

>  <minimizedRMSD>  (1) 
0.153593689

$$$$
