
     RDKit          3D

 37 40  0  0  0  0  0  0  0  0999 V2000
   38.2360   22.2480   31.2030 C   0  0  0  0  0  0  0  0  0  0  0  0
   38.7740   21.2140   30.4290 C   0  0  0  0  0  0  0  0  0  0  0  0
   39.2950   21.8210   29.2910 C   0  0  0  0  0  0  0  0  0  0  0  0
   39.0670   23.1480   29.3990 N   0  0  0  0  0  0  0  0  0  0  0  0
   38.4390   23.4000   30.5350 N   0  0  0  0  0  0  0  0  0  0  0  0
   37.5300   21.9610   34.8400 C   0  0  0  0  0  0  0  0  0  0  0  0
   36.3780   21.2080   34.8250 C   0  0  0  0  0  0  0  0  0  0  0  0
   35.8610   20.8150   33.6160 C   0  0  0  0  0  0  0  0  0  0  0  0
   36.4740   21.1620   32.4580 N   0  0  0  0  0  0  0  0  0  0  0  0
   37.6080   21.9020   32.4850 C   0  0  0  0  0  0  0  0  0  0  0  0
   38.1340   22.3010   33.6850 N   0  0  0  0  0  0  0  0  0  0  0  0
   39.9460   22.6870   37.5180 C   0  0  0  0  0  0  0  0  0  0  0  0
   39.1490   23.2900   38.4720 C   0  0  0  0  0  0  0  0  0  0  0  0
   37.7840   23.4470   38.1940 C   0  0  0  0  0  0  0  0  0  0  0  0
   37.2960   22.9990   36.9930 N   0  0  0  0  0  0  0  0  0  0  0  0
   38.1310   22.4060   36.0810 C   0  0  0  0  0  0  0  0  0  0  0  0
   39.4300   22.2580   36.3510 N   0  0  0  0  0  0  0  0  0  0  0  0
   39.4720   24.0630   28.3780 C   0  0  0  0  0  0  0  0  0  0  0  0
   39.5660   23.3190   27.0730 C   0  0  0  0  0  0  0  0  0  0  0  0
   40.0330   24.2790   26.0000 C   0  0  0  0  0  0  0  0  0  0  0  0
   40.3990   25.5790   26.4360 C   0  0  0  0  0  0  0  0  0  0  0  0
   40.8940   26.4060   24.8640 S   0  0  0  0  0  0  0  0  0  0  0  0
   40.5190   24.8480   23.8890 C   0  0  0  0  0  0  0  0  0  0  0  0
   40.1580   24.0980   24.6960 N   0  0  0  0  0  0  0  0  0  0  0  0
   38.7831   20.1410   30.6709 H   0  0  0  0  0  0  0  0  0  0  0  0
   39.8001   21.3133   28.4561 H   0  0  0  0  0  0  0  0  0  0  0  0
   35.8808   20.9263   35.7649 H   0  0  0  0  0  0  0  0  0  0  0  0
   34.9408   20.2130   33.5865 H   0  0  0  0  0  0  0  0  0  0  0  0
   41.0201   22.5553   37.7154 H   0  0  0  0  0  0  0  0  0  0  0  0
   39.5745   23.6378   39.4249 H   0  0  0  0  0  0  0  0  0  0  0  0
   37.1152   23.9217   38.9271 H   0  0  0  0  0  0  0  0  0  0  0  0
   38.7314   24.8716   28.2906 H   0  0  0  0  0  0  0  0  0  0  0  0
   40.4493   24.4994   28.6319 H   0  0  0  0  0  0  0  0  0  0  0  0
   40.2856   22.4926   27.1690 H   0  0  0  0  0  0  0  0  0  0  0  0
   38.5821   22.9067   26.8048 H   0  0  0  0  0  0  0  0  0  0  0  0
   40.3897   25.9903   27.4562 H   0  0  0  0  0  0  0  0  0  0  0  0
   40.6183   24.6844   22.8058 H   0  0  0  0  0  0  0  0  0  0  0  0
  1 10  1  0
  2  1  1  0
  3  4  1  0
  3  2  2  0
  4  5  1  0
  5  1  2  0
  6 16  1  0
  7  6  2  0
  8  7  1  0
  9 10  1  0
  9  8  2  0
 10 11  2  0
 11  6  1  0
 12 13  2  0
 14 13  1  0
 15 14  2  0
 16 17  2  0
 16 15  1  0
 17 12  1  0
 18  4  1  0
 19 18  1  0
 20 21  2  0
 20 19  1  0
 22 21  1  0
 23 24  2  0
 23 22  1  0
 24 20  1  0
  2 25  1  0
  3 26  1  0
  7 27  1  0
  8 28  1  0
 12 29  1  0
 13 30  1  0
 14 31  1  0
 18 32  1  0
 18 33  1  0
 19 34  1  0
 19 35  1  0
 21 36  1  0
 23 37  1  0
M  ISO  8  25  14  26  14  27  14  28  14  29  14  30  14  31  14  32   8
M  ISO  5  33   8  34   8  35   8  36  14  37  14
M  END
>  <minimizedAffinity>  (1) 
-4.44643164

>  <minimizedRMSD>  (1) 
0.144932985

$$$$
