
     RDKit          3D

 45 48  0  0  0  0  0  0  0  0999 V2000
   38.2660   22.3310   31.2190 C   0  0  0  0  0  0  0  0  0  0  0  0
   38.7750   21.3160   30.4100 C   0  0  0  0  0  0  0  0  0  0  0  0
   39.3000   21.9290   29.2800 C   0  0  0  0  0  0  0  0  0  0  0  0
   39.0910   23.2710   29.4460 N   0  0  0  0  0  0  0  0  0  0  0  0
   38.4810   23.5070   30.5920 N   0  0  0  0  0  0  0  0  0  0  0  0
   37.5370   21.9820   34.8470 C   0  0  0  0  0  0  0  0  0  0  0  0
   36.4020   21.2120   34.8150 C   0  0  0  0  0  0  0  0  0  0  0  0
   35.8940   20.8190   33.5950 C   0  0  0  0  0  0  0  0  0  0  0  0
   36.5120   21.1920   32.4510 N   0  0  0  0  0  0  0  0  0  0  0  0
   37.6390   21.9580   32.4930 C   0  0  0  0  0  0  0  0  0  0  0  0
   38.1480   22.3500   33.7030 N   0  0  0  0  0  0  0  0  0  0  0  0
   39.9140   22.7240   37.5600 C   0  0  0  0  0  0  0  0  0  0  0  0
   39.1070   23.3110   38.5070 C   0  0  0  0  0  0  0  0  0  0  0  0
   37.7520   23.4510   38.2120 C   0  0  0  0  0  0  0  0  0  0  0  0
   37.2870   23.0020   37.0070 N   0  0  0  0  0  0  0  0  0  0  0  0
   38.1250   22.4290   36.1040 C   0  0  0  0  0  0  0  0  0  0  0  0
   39.4150   22.2960   36.3850 N   0  0  0  0  0  0  0  0  0  0  0  0
   39.5020   24.2280   28.4510 C   0  0  0  0  0  0  0  0  0  0  0  0
   39.5630   23.5070   27.1050 C   0  0  0  0  0  0  0  0  0  0  0  0
   40.0970   24.2910   26.0750 N   0  0  0  0  0  0  0  0  0  0  0  0
   40.0050   23.9130   24.7370 C   0  0  0  0  0  0  0  0  0  0  0  0
   41.0150   24.6960   23.9070 C   0  0  0  0  0  0  0  0  0  0  0  0
   40.6330   26.0920   23.9800 N   0  0  0  0  0  0  0  0  0  0  0  0
   40.6120   26.5720   25.3340 C   0  0  0  0  0  0  0  0  0  0  0  0
   40.8120   25.4610   26.3430 C   0  0  0  0  0  0  0  0  0  0  0  0
   38.7630   20.2374   30.6254 H   0  0  0  0  0  0  0  0  0  0  0  0
   39.7854   21.4358   28.4249 H   0  0  0  0  0  0  0  0  0  0  0  0
   35.9044   20.9125   35.7492 H   0  0  0  0  0  0  0  0  0  0  0  0
   34.9849   20.2013   33.5519 H   0  0  0  0  0  0  0  0  0  0  0  0
   40.9875   22.6020   37.7667 H   0  0  0  0  0  0  0  0  0  0  0  0
   39.5180   23.6587   39.4663 H   0  0  0  0  0  0  0  0  0  0  0  0
   37.0675   23.9154   38.9371 H   0  0  0  0  0  0  0  0  0  0  0  0
   38.7747   25.0517   28.4014 H   0  0  0  0  0  0  0  0  0  0  0  0
   40.4860   24.6484   28.7062 H   0  0  0  0  0  0  0  0  0  0  0  0
   40.1882   22.6091   27.2190 H   0  0  0  0  0  0  0  0  0  0  0  0
   38.5286   23.2620   26.8221 H   0  0  0  0  0  0  0  0  0  0  0  0
   40.2145   22.8369   24.6466 H   0  0  0  0  0  0  0  0  0  0  0  0
   38.9905   24.1262   24.3691 H   0  0  0  0  0  0  0  0  0  0  0  0
   40.9925   24.3525   22.8623 H   0  0  0  0  0  0  0  0  0  0  0  0
   42.0357   24.5481   24.2894 H   0  0  0  0  0  0  0  0  0  0  0  0
   41.3084   26.6507   23.4392 H   0  0  0  0  0  0  0  0  0  0  0  0
   41.4163   27.3119   25.4591 H   0  0  0  0  0  0  0  0  0  0  0  0
   39.6229   27.0173   25.5168 H   0  0  0  0  0  0  0  0  0  0  0  0
   40.5001   25.8344   27.3296 H   0  0  0  0  0  0  0  0  0  0  0  0
   41.8772   25.1902   26.2986 H   0  0  0  0  0  0  0  0  0  0  0  0
  1 10  1  0
  2  1  1  0
  3  4  1  0
  3  2  2  0
  4  5  1  0
  5  1  2  0
  6 16  1  0
  7  6  2  0
  8  7  1  0
  9 10  1  0
  9  8  2  0
 10 11  2  0
 11  6  1  0
 12 13  2  0
 14 13  1  0
 15 14  2  0
 16 17  2  0
 16 15  1  0
 17 12  1  0
 18  4  1  0
 19 18  1  0
 20 25  1  0
 20 19  1  0
 21 20  1  0
 22 23  1  0
 22 21  1  0
 23 24  1  0
 24 25  1  0
  2 26  1  0
  3 27  1  0
  7 28  1  0
  8 29  1  0
 12 30  1  0
 13 31  1  0
 14 32  1  0
 18 33  1  0
 18 34  1  0
 19 35  1  0
 19 36  1  0
 21 37  1  0
 21 38  1  0
 22 39  1  0
 22 40  1  0
 23 41  1  0
 24 42  1  0
 24 43  1  0
 25 44  1  0
 25 45  1  0
M  ISO  8  26  14  27  14  28  14  29  14  30  14  31  14  32  14  33   8
M  ISO  8  34   8  35   8  36   8  37  13  38  13  39  13  40  13  41   5
M  ISO  4  42  13  43  13  44  13  45  13
M  END
>  <minimizedAffinity>  (1) 
-4.41323519

>  <minimizedRMSD>  (1) 
0.492985576

$$$$
