
     RDKit          3D

 37 40  0  0  0  0  0  0  0  0999 V2000
   38.2280   22.2540   31.2210 C   0  0  0  0  0  0  0  0  0  0  0  0
   38.7690   21.2290   30.4380 C   0  0  0  0  0  0  0  0  0  0  0  0
   39.2990   21.8010   29.2920 C   0  0  0  0  0  0  0  0  0  0  0  0
   39.0710   23.1290   29.4060 N   0  0  0  0  0  0  0  0  0  0  0  0
   38.4400   23.3980   30.5420 N   0  0  0  0  0  0  0  0  0  0  0  0
   37.5170   21.9640   34.8470 C   0  0  0  0  0  0  0  0  0  0  0  0
   36.3700   21.2070   34.8320 C   0  0  0  0  0  0  0  0  0  0  0  0
   35.8540   20.8080   33.6180 C   0  0  0  0  0  0  0  0  0  0  0  0
   36.4680   21.1560   32.4620 N   0  0  0  0  0  0  0  0  0  0  0  0
   37.6050   21.9060   32.4910 C   0  0  0  0  0  0  0  0  0  0  0  0
   38.1220   22.3050   33.6900 N   0  0  0  0  0  0  0  0  0  0  0  0
   39.9240   22.7160   37.5300 C   0  0  0  0  0  0  0  0  0  0  0  0
   39.1250   23.3080   38.4830 C   0  0  0  0  0  0  0  0  0  0  0  0
   37.7810   23.4400   38.1920 C   0  0  0  0  0  0  0  0  0  0  0  0
   37.2780   22.9930   36.9980 N   0  0  0  0  0  0  0  0  0  0  0  0
   38.1100   22.4150   36.0910 C   0  0  0  0  0  0  0  0  0  0  0  0
   39.4070   22.2880   36.3720 N   0  0  0  0  0  0  0  0  0  0  0  0
   39.4770   24.0880   28.4030 C   0  0  0  0  0  0  0  0  0  0  0  0
   39.5820   23.3330   27.0880 C   0  0  0  0  0  0  0  0  0  0  0  0
   40.0220   24.3450   26.1150 N   0  0  0  0  0  0  0  0  0  0  0  0
   40.1610   24.1700   24.8020 C   0  0  0  0  0  0  0  0  0  0  0  0
   40.5830   25.3080   24.2160 N   0  0  0  0  0  0  0  0  0  0  0  0
   40.7090   26.2160   25.2010 C   0  0  0  0  0  0  0  0  0  0  0  0
   40.3650   25.6180   26.3580 N   0  0  0  0  0  0  0  0  0  0  0  0
   38.7731   20.1577   30.6877 H   0  0  0  0  0  0  0  0  0  0  0  0
   39.8010   21.2822   28.4620 H   0  0  0  0  0  0  0  0  0  0  0  0
   35.8729   20.9248   35.7718 H   0  0  0  0  0  0  0  0  0  0  0  0
   34.9364   20.2022   33.5876 H   0  0  0  0  0  0  0  0  0  0  0  0
   41.0000   22.5935   37.7229 H   0  0  0  0  0  0  0  0  0  0  0  0
   39.5406   23.6617   39.4381 H   0  0  0  0  0  0  0  0  0  0  0  0
   37.1082   23.9083   38.9255 H   0  0  0  0  0  0  0  0  0  0  0  0
   38.7279   24.8893   28.3205 H   0  0  0  0  0  0  0  0  0  0  0  0
   40.4381   24.5526   28.6684 H   0  0  0  0  0  0  0  0  0  0  0  0
   40.3197   22.5206   27.1642 H   0  0  0  0  0  0  0  0  0  0  0  0
   38.6307   22.8619   26.7996 H   0  0  0  0  0  0  0  0  0  0  0  0
   39.9596   23.2284   24.2702 H   0  0  0  0  0  0  0  0  0  0  0  0
   41.0347   27.2600   25.0826 H   0  0  0  0  0  0  0  0  0  0  0  0
  1 10  1  0
  2  1  1  0
  3  4  1  0
  3  2  2  0
  4  5  1  0
  5  1  2  0
  6 16  1  0
  7  6  2  0
  8  7  1  0
  9 10  1  0
  9  8  2  0
 10 11  2  0
 11  6  1  0
 12 13  2  0
 14 13  1  0
 15 14  2  0
 16 17  2  0
 16 15  1  0
 17 12  1  0
 18  4  1  0
 19 18  1  0
 20 24  1  0
 20 19  1  0
 21 20  1  0
 22 21  2  0
 22 23  1  0
 23 24  2  0
  2 25  1  0
  3 26  1  0
  7 27  1  0
  8 28  1  0
 12 29  1  0
 13 30  1  0
 14 31  1  0
 18 32  1  0
 18 33  1  0
 19 34  1  0
 19 35  1  0
 21 36  1  0
 23 37  1  0
M  ISO  8  25  14  26  14  27  14  28  14  29  14  30  14  31  14  32   8
M  ISO  5  33   8  34   8  35   8  36  14  37  14
M  END
>  <minimizedAffinity>  (1) 
-4.3858676

>  <minimizedRMSD>  (1) 
0.143875957

$$$$
