
     RDKit          3D

 38 40  0  0  0  0  0  0  0  0999 V2000
   38.3300   22.1800   31.2460 C   0  0  0  0  0  0  0  0  0  0  0  0
   39.1390   21.2290   30.6590 C   0  0  0  0  0  0  0  0  0  0  0  0
   39.6130   21.7990   29.4730 C   0  0  0  0  0  0  0  0  0  0  0  0
   39.0750   23.0580   29.3980 N   0  0  0  0  0  0  0  0  0  0  0  0
   38.3120   23.2900   30.4490 N   0  0  0  0  0  0  0  0  0  0  0  0
   37.5410   21.9590   34.8720 C   0  0  0  0  0  0  0  0  0  0  0  0
   36.3820   21.2240   34.8420 C   0  0  0  0  0  0  0  0  0  0  0  0
   35.8830   20.8140   33.6230 C   0  0  0  0  0  0  0  0  0  0  0  0
   36.5330   21.1370   32.4880 N   0  0  0  0  0  0  0  0  0  0  0  0
   37.6830   21.8680   32.5170 C   0  0  0  0  0  0  0  0  0  0  0  0
   38.1810   22.2770   33.7320 N   0  0  0  0  0  0  0  0  0  0  0  0
   39.9040   22.7410   37.5780 C   0  0  0  0  0  0  0  0  0  0  0  0
   39.0960   23.3280   38.5280 C   0  0  0  0  0  0  0  0  0  0  0  0
   37.7400   23.4460   38.2200 C   0  0  0  0  0  0  0  0  0  0  0  0
   37.2660   22.9900   37.0190 N   0  0  0  0  0  0  0  0  0  0  0  0
   38.1160   22.4200   36.1240 C   0  0  0  0  0  0  0  0  0  0  0  0
   39.4150   22.2990   36.4030 N   0  0  0  0  0  0  0  0  0  0  0  0
   39.3840   23.8850   28.2820 C   0  0  0  0  0  0  0  0  0  0  0  0
   40.3560   24.9690   28.7060 C   0  0  0  0  0  0  0  0  0  0  0  0
   39.8830   25.6860   29.8550 N   0  0  0  0  0  0  0  0  0  0  0  0
   39.1070   26.8790   29.7720 C   0  0  0  0  0  0  0  0  0  0  0  0
   38.8950   27.3900   28.5840 N   0  0  0  0  0  0  0  0  0  0  0  0
   38.5470   27.5490   30.8960 N   0  0  0  0  0  0  0  0  0  0  0  0
   39.2850   26.9310   27.7340 H   0  0  0  0  0  0  0  0  0  0  0  0
   39.3656   20.2245   31.0459 H   0  0  0  0  0  0  0  0  0  0  0  0
   40.2869   21.3284   28.7420 H   0  0  0  0  0  0  0  0  0  0  0  0
   35.8595   20.9661   35.7750 H   0  0  0  0  0  0  0  0  0  0  0  0
   34.9556   20.2241   33.5778 H   0  0  0  0  0  0  0  0  0  0  0  0
   40.9786   22.6303   37.7851 H   0  0  0  0  0  0  0  0  0  0  0  0
   39.5016   23.6871   39.4854 H   0  0  0  0  0  0  0  0  0  0  0  0
   37.0507   23.9061   38.9433 H   0  0  0  0  0  0  0  0  0  0  0  0
   38.4612   24.3485   27.9031 H   0  0  0  0  0  0  0  0  0  0  0  0
   39.8411   23.2739   27.4898 H   0  0  0  0  0  0  0  0  0  0  0  0
   41.3235   24.5052   28.9486 H   0  0  0  0  0  0  0  0  0  0  0  0
   40.4581   25.6823   27.8748 H   0  0  0  0  0  0  0  0  0  0  0  0
   40.1163   25.3196   30.7889 H   0  0  0  0  0  0  0  0  0  0  0  0
   37.9958   28.4086   30.7611 H   0  0  0  0  0  0  0  0  0  0  0  0
   38.6929   27.1742   31.8442 H   0  0  0  0  0  0  0  0  0  0  0  0
  1 10  1  0
  2  1  1  0
  3  2  2  0
  4  3  1  0
  4  5  1  0
  5  1  2  0
  6 16  1  0
  7  6  2  0
  8  7  1  0
  9 10  1  0
  9  8  2  0
 10 11  2  0
 11  6  1  0
 12 13  2  0
 14 13  1  0
 15 14  2  0
 16 17  2  0
 16 15  1  0
 17 12  1  0
 18 19  1  0
 18  4  1  0
 19 20  1  0
 21 20  1  0
 21 23  1  0
 22 21  2  0
 24 22  1  0
  2 25  1  0
  3 26  1  0
  7 27  1  0
  8 28  1  0
 12 29  1  0
 13 30  1  0
 14 31  1  0
 18 32  1  0
 18 33  1  0
 19 34  1  0
 19 35  1  0
 20 36  1  0
 23 37  1  0
 23 38  1  0
M  ISO  8  25  14  26  14  27  14  28  14  29  14  30  14  31  14  32   8
M  ISO  3  33   8  34   8  35   8
M  END
>  <minimizedAffinity>  (1) 
-4.36923027

>  <minimizedRMSD>  (1) 
2.70926905

$$$$
