
     RDKit          3D

 44 47  0  0  0  0  0  0  0  0999 V2000
   38.2320   22.2970   31.2390 C   0  0  0  0  0  0  0  0  0  0  0  0
   38.7540   21.2720   30.4420 C   0  0  0  0  0  0  0  0  0  0  0  0
   39.2880   21.8590   29.2960 C   0  0  0  0  0  0  0  0  0  0  0  0
   39.0800   23.1840   29.4310 N   0  0  0  0  0  0  0  0  0  0  0  0
   38.4610   23.4410   30.5710 N   0  0  0  0  0  0  0  0  0  0  0  0
   37.5170   21.9620   34.8610 C   0  0  0  0  0  0  0  0  0  0  0  0
   36.3760   21.2010   34.8320 C   0  0  0  0  0  0  0  0  0  0  0  0
   35.8650   20.8160   33.6170 C   0  0  0  0  0  0  0  0  0  0  0  0
   36.4780   21.1820   32.4760 N   0  0  0  0  0  0  0  0  0  0  0  0
   37.6100   21.9350   32.5040 C   0  0  0  0  0  0  0  0  0  0  0  0
   38.1280   22.3260   33.7060 N   0  0  0  0  0  0  0  0  0  0  0  0
   39.9230   22.7200   37.5490 C   0  0  0  0  0  0  0  0  0  0  0  0
   39.1100   23.3150   38.5020 C   0  0  0  0  0  0  0  0  0  0  0  0
   37.7460   23.4490   38.2060 C   0  0  0  0  0  0  0  0  0  0  0  0
   37.2850   22.9920   37.0100 N   0  0  0  0  0  0  0  0  0  0  0  0
   38.1250   22.4120   36.1040 C   0  0  0  0  0  0  0  0  0  0  0  0
   39.4070   22.2890   36.3860 N   0  0  0  0  0  0  0  0  0  0  0  0
   39.4980   24.1530   28.4360 C   0  0  0  0  0  0  0  0  0  0  0  0
   39.5830   23.4140   27.1140 C   0  0  0  0  0  0  0  0  0  0  0  0
   39.8690   24.2280   25.9970 N   0  0  0  0  0  0  0  0  0  0  0  0
   40.5320   25.4550   26.1690 C   0  0  0  0  0  0  0  0  0  0  0  0
   41.8460   25.5470   25.3940 C   0  0  0  0  0  0  0  0  0  0  0  0
   41.6190   25.2280   24.0730 O   0  0  0  0  0  0  0  0  0  0  0  0
   41.2390   23.9030   23.9890 C   0  0  0  0  0  0  0  0  0  0  0  0
   39.9540   23.6000   24.7270 C   0  0  0  0  0  0  0  0  0  0  0  0
   38.7446   20.1975   30.6773 H   0  0  0  0  0  0  0  0  0  0  0  0
   39.7781   21.3467   28.4550 H   0  0  0  0  0  0  0  0  0  0  0  0
   35.8784   20.9040   35.7670 H   0  0  0  0  0  0  0  0  0  0  0  0
   34.9507   20.2058   33.5760 H   0  0  0  0  0  0  0  0  0  0  0  0
   40.9984   22.6001   37.7469 H   0  0  0  0  0  0  0  0  0  0  0  0
   39.5215   23.6700   39.4584 H   0  0  0  0  0  0  0  0  0  0  0  0
   37.0602   23.9157   38.9284 H   0  0  0  0  0  0  0  0  0  0  0  0
   38.7619   24.9676   28.3679 H   0  0  0  0  0  0  0  0  0  0  0  0
   40.4676   24.5991   28.7021 H   0  0  0  0  0  0  0  0  0  0  0  0
   40.3756   22.6557   27.1965 H   0  0  0  0  0  0  0  0  0  0  0  0
   38.5865   22.9836   26.9358 H   0  0  0  0  0  0  0  0  0  0  0  0
   39.8675   26.2618   25.8262 H   0  0  0  0  0  0  0  0  0  0  0  0
   40.7774   25.5453   27.2375 H   0  0  0  0  0  0  0  0  0  0  0  0
   42.2417   26.5711   25.4619 H   0  0  0  0  0  0  0  0  0  0  0  0
   42.5763   24.8447   25.8223 H   0  0  0  0  0  0  0  0  0  0  0  0
   41.1011   23.6461   22.9283 H   0  0  0  0  0  0  0  0  0  0  0  0
   42.0335   23.3062   24.4607 H   0  0  0  0  0  0  0  0  0  0  0  0
   39.1096   23.9436   24.1114 H   0  0  0  0  0  0  0  0  0  0  0  0
   39.9289   22.5141   24.9007 H   0  0  0  0  0  0  0  0  0  0  0  0
  1 10  1  0
  2  1  1  0
  3  4  1  0
  3  2  2  0
  4  5  1  0
  5  1  2  0
  6 16  1  0
  7  6  2  0
  8  7  1  0
  9 10  1  0
  9  8  2  0
 10 11  2  0
 11  6  1  0
 12 13  2  0
 14 13  1  0
 15 14  2  0
 16 17  2  0
 16 15  1  0
 17 12  1  0
 18  4  1  0
 19 18  1  0
 20 21  1  0
 20 19  1  0
 22 21  1  0
 23 22  1  0
 24 23  1  0
 24 25  1  0
 25 20  1  0
  2 26  1  0
  3 27  1  0
  7 28  1  0
  8 29  1  0
 12 30  1  0
 13 31  1  0
 14 32  1  0
 18 33  1  0
 18 34  1  0
 19 35  1  0
 19 36  1  0
 21 37  1  0
 21 38  1  0
 22 39  1  0
 22 40  1  0
 24 41  1  0
 24 42  1  0
 25 43  1  0
 25 44  1  0
M  ISO  8  26  14  27  14  28  14  29  14  30  14  31  14  32  14  33   8
M  ISO  8  34   8  35   8  36   8  37  13  38  13  39  13  40  13  41  13
M  ISO  3  42  13  43  13  44  13
M  END
>  <minimizedAffinity>  (1) 
-4.31284475

>  <minimizedRMSD>  (1) 
0.667214453

$$$$
