
     RDKit          3D

 32 34  0  0  0  0  0  0  0  0999 V2000
   37.4690   21.9050   34.9110 C   0  0  0  0  0  0  0  0  0  0  0  0
   36.3190   21.1810   34.9110 C   0  0  0  0  0  0  0  0  0  0  0  0
   35.7960   20.7590   33.7130 C   0  0  0  0  0  0  0  0  0  0  0  0
   36.4230   21.0640   32.5550 N   0  0  0  0  0  0  0  0  0  0  0  0
   37.5770   21.7890   32.5530 C   0  0  0  0  0  0  0  0  0  0  0  0
   38.0960   22.2100   33.7550 N   0  0  0  0  0  0  0  0  0  0  0  0
   39.9100   22.7460   37.5450 C   0  0  0  0  0  0  0  0  0  0  0  0
   39.1080   23.3430   38.5130 C   0  0  0  0  0  0  0  0  0  0  0  0
   37.7460   23.4410   38.2330 C   0  0  0  0  0  0  0  0  0  0  0  0
   37.2580   22.9620   37.0550 N   0  0  0  0  0  0  0  0  0  0  0  0
   38.0830   22.3860   36.1400 C   0  0  0  0  0  0  0  0  0  0  0  0
   39.3830   22.2880   36.3970 N   0  0  0  0  0  0  0  0  0  0  0  0
   38.2000   22.0810   31.2630 C   0  0  0  0  0  0  0  0  0  0  0  0
   38.7060   21.0360   30.5170 C   0  0  0  0  0  0  0  0  0  0  0  0
   39.2300   21.6110   29.3550 C   0  0  0  0  0  0  0  0  0  0  0  0
   39.0210   22.9630   29.4490 N   0  0  0  0  0  0  0  0  0  0  0  0
   38.4080   23.2500   30.5830 N   0  0  0  0  0  0  0  0  0  0  0  0
   39.4550   23.8120   28.3930 C   0  0  0  0  0  0  0  0  0  0  0  0
   40.2140   23.0060   27.3700 C   0  0  0  0  0  0  0  0  0  0  0  0
   39.5090   23.2030   25.7340 S   0  0  0  0  0  0  0  0  0  0  0  0
   35.8140   20.9363   35.8571 H   0  0  0  0  0  0  0  0  0  0  0  0
   34.8658   20.1721   33.6960 H   0  0  0  0  0  0  0  0  0  0  0  0
   40.9912   22.6476   37.7223 H   0  0  0  0  0  0  0  0  0  0  0  0
   39.5297   23.7204   39.4563 H   0  0  0  0  0  0  0  0  0  0  0  0
   37.0659   23.9047   38.9627 H   0  0  0  0  0  0  0  0  0  0  0  0
   38.6986   19.9685   30.7823 H   0  0  0  0  0  0  0  0  0  0  0  0
   39.7171   21.0800   28.5239 H   0  0  0  0  0  0  0  0  0  0  0  0
   38.5802   24.2775   27.9155 H   0  0  0  0  0  0  0  0  0  0  0  0
   40.1131   24.5930   28.8016 H   0  0  0  0  0  0  0  0  0  0  0  0
   41.2608   23.3436   27.3523 H   0  0  0  0  0  0  0  0  0  0  0  0
   40.1529   21.9438   27.6493 H   0  0  0  0  0  0  0  0  0  0  0  0
   38.1939   23.5705   25.8447 H   0  0  0  0  0  0  0  0  0  0  0  0
  1 11  1  0
  2  1  2  0
  3  2  1  0
  4  3  2  0
  5  4  1  0
  5  6  2  0
  6  1  1  0
  7  8  2  0
  9  8  1  0
 10  9  2  0
 11 12  2  0
 11 10  1  0
 12  7  1  0
 13  5  1  0
 14 13  1  0
 15 16  1  0
 15 14  2  0
 16 17  1  0
 17 13  2  0
 18 16  1  0
 19 18  1  0
 20 19  1  0
  2 21  1  0
  3 22  1  0
  7 23  1  0
  8 24  1  0
  9 25  1  0
 14 26  1  0
 15 27  1  0
 18 28  1  0
 18 29  1  0
 19 30  1  0
 19 31  1  0
 20 32  1  0
M  ISO  8  21  14  22  14  23  14  24  14  25  14  26  14  27  14  28   8
M  ISO  4  29   8  30   8  31   8  32  11
M  END
>  <minimizedAffinity>  (1) 
-4.13063574

>  <minimizedRMSD>  (1) 
0.476497024

$$$$
