
     RDKit          3D

 36 39  0  0  0  0  0  0  0  0999 V2000
   38.2350   22.2180   31.2110 C   0  0  0  0  0  0  0  0  0  0  0  0
   38.7830   21.1890   30.4360 C   0  0  0  0  0  0  0  0  0  0  0  0
   39.3080   21.7660   29.2870 C   0  0  0  0  0  0  0  0  0  0  0  0
   39.0730   23.0930   29.3880 N   0  0  0  0  0  0  0  0  0  0  0  0
   38.4410   23.3570   30.5220 N   0  0  0  0  0  0  0  0  0  0  0  0
   37.5220   21.9530   34.8400 C   0  0  0  0  0  0  0  0  0  0  0  0
   36.3670   21.2090   34.8290 C   0  0  0  0  0  0  0  0  0  0  0  0
   35.8390   20.8070   33.6160 C   0  0  0  0  0  0  0  0  0  0  0  0
   36.4640   21.1470   32.4640 N   0  0  0  0  0  0  0  0  0  0  0  0
   37.6100   21.8840   32.4860 C   0  0  0  0  0  0  0  0  0  0  0  0
   38.1330   22.2840   33.6830 N   0  0  0  0  0  0  0  0  0  0  0  0
   39.9360   22.7010   37.5180 C   0  0  0  0  0  0  0  0  0  0  0  0
   39.1420   23.3010   38.4710 C   0  0  0  0  0  0  0  0  0  0  0  0
   37.7810   23.4450   38.1840 C   0  0  0  0  0  0  0  0  0  0  0  0
   37.2960   22.9910   36.9880 N   0  0  0  0  0  0  0  0  0  0  0  0
   38.1230   22.4060   36.0820 C   0  0  0  0  0  0  0  0  0  0  0  0
   39.4210   22.2670   36.3510 N   0  0  0  0  0  0  0  0  0  0  0  0
   39.4740   24.0370   28.3780 C   0  0  0  0  0  0  0  0  0  0  0  0
   39.5880   23.2750   27.0700 C   0  0  0  0  0  0  0  0  0  0  0  0
   40.0180   24.3100   26.0610 C   0  0  0  0  0  0  0  0  0  0  0  0
   40.0750   24.1520   24.7220 N   0  0  0  0  0  0  0  0  0  0  0  0
   40.4960   25.2700   24.1660 O   0  0  0  0  0  0  0  0  0  0  0  0
   40.7200   26.1670   25.0990 C   0  0  0  0  0  0  0  0  0  0  0  0
   40.4240   25.5780   26.2870 N   0  0  0  0  0  0  0  0  0  0  0  0
   38.7955   20.1189   30.6906 H   0  0  0  0  0  0  0  0  0  0  0  0
   39.8141   21.2466   28.4599 H   0  0  0  0  0  0  0  0  0  0  0  0
   35.8695   20.9371   35.7716 H   0  0  0  0  0  0  0  0  0  0  0  0
   34.9138   20.2127   33.5870 H   0  0  0  0  0  0  0  0  0  0  0  0
   41.0110   22.5739   37.7137 H   0  0  0  0  0  0  0  0  0  0  0  0
   39.5637   23.6541   39.4236 H   0  0  0  0  0  0  0  0  0  0  0  0
   37.1069   23.9187   38.9128 H   0  0  0  0  0  0  0  0  0  0  0  0
   38.7204   24.8330   28.2858 H   0  0  0  0  0  0  0  0  0  0  0  0
   40.4336   24.5059   28.6412 H   0  0  0  0  0  0  0  0  0  0  0  0
   40.3397   22.4760   27.1507 H   0  0  0  0  0  0  0  0  0  0  0  0
   38.6433   22.7866   26.7889 H   0  0  0  0  0  0  0  0  0  0  0  0
   41.0780   27.1961   24.9478 H   0  0  0  0  0  0  0  0  0  0  0  0
  1 10  1  0
  2  1  1  0
  3  4  1  0
  3  2  2  0
  4  5  1  0
  5  1  2  0
  6 16  1  0
  7  6  2  0
  8  7  1  0
  9 10  1  0
  9  8  2  0
 10 11  2  0
 11  6  1  0
 12 13  2  0
 14 13  1  0
 15 14  2  0
 16 17  2  0
 16 15  1  0
 17 12  1  0
 18  4  1  0
 19 18  1  0
 20 24  1  0
 20 19  1  0
 21 20  2  0
 22 21  1  0
 22 23  1  0
 23 24  2  0
  2 25  1  0
  3 26  1  0
  7 27  1  0
  8 28  1  0
 12 29  1  0
 13 30  1  0
 14 31  1  0
 18 32  1  0
 18 33  1  0
 19 34  1  0
 19 35  1  0
 23 36  1  0
M  ISO  8  25  14  26  14  27  14  28  14  29  14  30  14  31  14  32   8
M  ISO  4  33   8  34   8  35   8  36  14
M  END
>  <minimizedAffinity>  (1) 
-4.42547226

>  <minimizedRMSD>  (1) 
0.184408218

$$$$
