
     RDKit          3D

 47 51  0  0  0  0  0  0  0  0999 V2000
   38.2100   22.1490   31.2820 C   0  0  0  0  0  0  0  0  0  0  0  0
   38.6730   21.0960   30.4710 C   0  0  0  0  0  0  0  0  0  0  0  0
   39.2120   21.6580   29.3220 C   0  0  0  0  0  0  0  0  0  0  0  0
   39.0650   23.0010   29.4620 N   0  0  0  0  0  0  0  0  0  0  0  0
   38.4750   23.2930   30.6170 N   0  0  0  0  0  0  0  0  0  0  0  0
   37.4870   21.9240   34.9080 C   0  0  0  0  0  0  0  0  0  0  0  0
   36.3420   21.1790   34.9080 C   0  0  0  0  0  0  0  0  0  0  0  0
   35.8230   20.7590   33.7000 C   0  0  0  0  0  0  0  0  0  0  0  0
   36.4490   21.0870   32.5470 N   0  0  0  0  0  0  0  0  0  0  0  0
   37.5930   21.8330   32.5620 C   0  0  0  0  0  0  0  0  0  0  0  0
   38.1070   22.2490   33.7470 N   0  0  0  0  0  0  0  0  0  0  0  0
   39.9000   22.7470   37.5730 C   0  0  0  0  0  0  0  0  0  0  0  0
   39.0890   23.3370   38.5310 C   0  0  0  0  0  0  0  0  0  0  0  0
   37.7230   23.4450   38.2510 C   0  0  0  0  0  0  0  0  0  0  0  0
   37.2620   22.9700   37.0600 N   0  0  0  0  0  0  0  0  0  0  0  0
   38.0860   22.3990   36.1460 C   0  0  0  0  0  0  0  0  0  0  0  0
   39.3930   22.2950   36.4140 N   0  0  0  0  0  0  0  0  0  0  0  0
   39.5040   23.9530   28.4720 C   0  0  0  0  0  0  0  0  0  0  0  0
   39.6720   23.1910   27.1730 C   0  0  0  0  0  0  0  0  0  0  0  0
   40.0110   24.2360   26.1500 C   0  0  0  0  0  0  0  0  0  0  0  0
   40.1170   24.0790   24.8240 N   0  0  0  0  0  0  0  0  0  0  0  0
   40.4290   25.2190   24.2480 O   0  0  0  0  0  0  0  0  0  0  0  0
   40.5370   26.1490   25.1630 C   0  0  0  0  0  0  0  0  0  0  0  0
   40.2770   25.5400   26.3500 N   0  0  0  0  0  0  0  0  0  0  0  0
   40.8270   27.5280   25.3000 N   0  0  0  0  0  0  0  0  0  0  0  0
   41.5690   28.2930   24.5110 C   0  0  0  0  0  0  0  0  0  0  0  0
   41.7400   29.6370   24.8100 C   0  0  0  0  0  0  0  0  0  0  0  0
   41.1480   30.2050   25.9230 C   0  0  0  0  0  0  0  0  0  0  0  0
   41.3290   31.5840   26.2210 N   0  0  0  0  0  0  0  0  0  0  0  0
   40.3950   29.3830   26.7040 N   0  0  0  0  0  0  0  0  0  0  0  0
   40.2410   28.0830   26.4000 C   0  0  0  0  0  0  0  0  0  0  0  0
   39.5090   27.4270   27.2180 O   0  0  0  0  0  0  0  0  0  0  0  0
   38.6177   20.0226   30.7052 H   0  0  0  0  0  0  0  0  0  0  0  0
   39.6650   21.1254   28.4728 H   0  0  0  0  0  0  0  0  0  0  0  0
   35.8429   20.9187   35.8531 H   0  0  0  0  0  0  0  0  0  0  0  0
   34.9017   20.1585   33.6751 H   0  0  0  0  0  0  0  0  0  0  0  0
   40.9784   22.6473   37.7658 H   0  0  0  0  0  0  0  0  0  0  0  0
   39.5061   23.7075   39.4790 H   0  0  0  0  0  0  0  0  0  0  0  0
   37.0354   23.9037   38.9768 H   0  0  0  0  0  0  0  0  0  0  0  0
   38.7520   24.7465   28.3506 H   0  0  0  0  0  0  0  0  0  0  0  0
   40.4486   24.4286   28.7746 H   0  0  0  0  0  0  0  0  0  0  0  0
   40.4856   22.4557   27.2587 H   0  0  0  0  0  0  0  0  0  0  0  0
   38.7658   22.6285   26.9040 H   0  0  0  0  0  0  0  0  0  0  0  0
   42.0488   27.8622   23.6198 H   0  0  0  0  0  0  0  0  0  0  0  0
   42.3582   30.2625   24.1492 H   0  0  0  0  0  0  0  0  0  0  0  0
   40.8821   31.9940   27.0535 H   0  0  0  0  0  0  0  0  0  0  0  0
   41.9070   32.1726   25.6043 H   0  0  0  0  0  0  0  0  0  0  0  0
  1 10  1  0
  2  1  1  0
  3  4  1  0
  3  2  2  0
  4  5  1  0
  5  1  2  0
  6  7  2  0
  6 16  1  0
  8  7  1  0
  9 10  1  0
  9  8  2  0
 10 11  2  0
 11  6  1  0
 12 13  2  0
 14 13  1  0
 15 14  2  0
 16 17  2  0
 16 15  1  0
 17 12  1  0
 18  4  1  0
 19 18  1  0
 20 24  1  0
 20 19  1  0
 21 20  2  0
 22 21  1  0
 22 23  1  0
 23 25  1  0
 23 24  2  0
 25 31  1  0
 26 27  2  0
 26 25  1  0
 27 28  1  0
 28 29  1  0
 28 30  2  0
 31 30  1  0
 31 32  2  0
  2 33  1  0
  3 34  1  0
  7 35  1  0
  8 36  1  0
 12 37  1  0
 13 38  1  0
 14 39  1  0
 18 40  1  0
 18 41  1  0
 19 42  1  0
 19 43  1  0
 26 44  1  0
 27 45  1  0
 29 46  1  0
 29 47  1  0
M  ISO  8  33  14  34  14  35  14  36  14  37  14  38  14  39  14  40   8
M  ISO  5  41   8  42   8  43   8  44  14  45  14
M  END
>  <minimizedAffinity>  (1) 
-5.06718969

>  <minimizedRMSD>  (1) 
0.156436577

$$$$
