
     RDKit          3D

 51 55  0  0  0  0  0  0  0  0999 V2000
   38.2370   22.2590   31.2320 C   0  0  0  0  0  0  0  0  0  0  0  0
   38.7610   21.2230   30.4330 C   0  0  0  0  0  0  0  0  0  0  0  0
   39.2850   21.8190   29.2890 C   0  0  0  0  0  0  0  0  0  0  0  0
   39.0720   23.1400   29.4210 N   0  0  0  0  0  0  0  0  0  0  0  0
   38.4600   23.3940   30.5600 N   0  0  0  0  0  0  0  0  0  0  0  0
   37.5250   21.9700   34.8600 C   0  0  0  0  0  0  0  0  0  0  0  0
   36.3800   21.2070   34.8490 C   0  0  0  0  0  0  0  0  0  0  0  0
   35.8560   20.7950   33.6330 C   0  0  0  0  0  0  0  0  0  0  0  0
   36.4820   21.1540   32.4790 N   0  0  0  0  0  0  0  0  0  0  0  0
   37.6160   21.9110   32.5150 C   0  0  0  0  0  0  0  0  0  0  0  0
   38.1330   22.3170   33.7020 N   0  0  0  0  0  0  0  0  0  0  0  0
   39.9260   22.7160   37.5460 C   0  0  0  0  0  0  0  0  0  0  0  0
   39.1170   23.3100   38.5020 C   0  0  0  0  0  0  0  0  0  0  0  0
   37.7600   23.4460   38.2100 C   0  0  0  0  0  0  0  0  0  0  0  0
   37.2810   22.9960   37.0110 N   0  0  0  0  0  0  0  0  0  0  0  0
   38.1050   22.4210   36.1050 C   0  0  0  0  0  0  0  0  0  0  0  0
   39.4120   22.2880   36.3790 N   0  0  0  0  0  0  0  0  0  0  0  0
   39.4820   24.0960   28.4240 C   0  0  0  0  0  0  0  0  0  0  0  0
   39.6340   23.3580   27.1170 C   0  0  0  0  0  0  0  0  0  0  0  0
   40.0240   24.4270   26.1160 C   0  0  0  0  0  0  0  0  0  0  0  0
   40.1700   24.2530   24.7900 N   0  0  0  0  0  0  0  0  0  0  0  0
   40.5150   25.3940   24.2400 O   0  0  0  0  0  0  0  0  0  0  0  0
   40.6010   26.3160   25.1590 C   0  0  0  0  0  0  0  0  0  0  0  0
   40.2960   25.7210   26.3410 N   0  0  0  0  0  0  0  0  0  0  0  0
   40.9530   27.6680   24.9010 N   0  0  0  0  0  0  0  0  0  0  0  0
   41.3290   28.4780   26.0460 C   0  0  0  0  0  0  0  0  0  0  0  0
   40.2860   29.6010   26.0940 C   0  0  0  0  0  0  0  0  0  0  0  0
   40.4610   30.4010   24.8220 C   0  0  0  0  0  0  0  0  0  0  0  0
   40.2440   29.6030   23.5720 C   0  0  0  0  0  0  0  0  0  0  0  0
   40.9590   28.2690   23.6020 C   0  0  0  0  0  0  0  0  0  0  0  0
   38.7568   20.1485   30.6683 H   0  0  0  0  0  0  0  0  0  0  0  0
   39.7753   21.3107   28.4457 H   0  0  0  0  0  0  0  0  0  0  0  0
   35.8871   20.9277   35.7919 H   0  0  0  0  0  0  0  0  0  0  0  0
   34.9423   20.1833   33.6013 H   0  0  0  0  0  0  0  0  0  0  0  0
   41.0010   22.5932   37.7440 H   0  0  0  0  0  0  0  0  0  0  0  0
   39.5311   23.6621   39.4583 H   0  0  0  0  0  0  0  0  0  0  0  0
   37.0803   23.9117   38.9387 H   0  0  0  0  0  0  0  0  0  0  0  0
   38.7200   24.8829   28.3236 H   0  0  0  0  0  0  0  0  0  0  0  0
   40.4320   24.5699   28.7119 H   0  0  0  0  0  0  0  0  0  0  0  0
   40.4199   22.5921   27.1929 H   0  0  0  0  0  0  0  0  0  0  0  0
   38.7131   22.8312   26.8264 H   0  0  0  0  0  0  0  0  0  0  0  0
   41.2978   27.8811   26.9694 H   0  0  0  0  0  0  0  0  0  0  0  0
   42.3539   28.8680   25.9589 H   0  0  0  0  0  0  0  0  0  0  0  0
   39.2721   29.1768   26.1402 H   0  0  0  0  0  0  0  0  0  0  0  0
   40.4210   30.2328   26.9843 H   0  0  0  0  0  0  0  0  0  0  0  0
   39.7403   31.2319   24.8327 H   0  0  0  0  0  0  0  0  0  0  0  0
   41.5042   30.7495   24.8031 H   0  0  0  0  0  0  0  0  0  0  0  0
   40.6161   30.1830   22.7146 H   0  0  0  0  0  0  0  0  0  0  0  0
   39.1659   29.4015   23.4881 H   0  0  0  0  0  0  0  0  0  0  0  0
   40.4615   27.5872   22.8965 H   0  0  0  0  0  0  0  0  0  0  0  0
   42.0080   28.4480   23.3237 H   0  0  0  0  0  0  0  0  0  0  0  0
  1 10  1  0
  2  1  1  0
  3  4  1  0
  3  2  2  0
  4  5  1  0
  5  1  2  0
  6 16  1  0
  7  6  2  0
  8  7  1  0
  9 10  1  0
  9  8  2  0
 10 11  2  0
 11  6  1  0
 12 13  2  0
 14 13  1  0
 15 14  2  0
 16 17  2  0
 16 15  1  0
 17 12  1  0
 18  4  1  0
 19 18  1  0
 20 24  1  0
 20 19  1  0
 21 20  2  0
 22 21  1  0
 22 23  1  0
 23 24  2  0
 25 23  1  0
 25 26  1  0
 26 27  1  0
 28 27  1  0
 29 30  1  0
 29 28  1  0
 30 25  1  0
  2 31  1  0
  3 32  1  0
  7 33  1  0
  8 34  1  0
 12 35  1  0
 13 36  1  0
 14 37  1  0
 18 38  1  0
 18 39  1  0
 19 40  1  0
 19 41  1  0
 26 42  1  0
 26 43  1  0
 27 44  1  0
 27 45  1  0
 28 46  1  0
 28 47  1  0
 29 48  1  0
 29 49  1  0
 30 50  1  0
 30 51  1  0
M  ISO  8  31  14  32  14  33  14  34  14  35  14  36  14  37  14  38   8
M  ISO  8  39   8  40   8  41   8  42  13  43  13  44  13  45  13  46  13
M  ISO  5  47  13  48  13  49  13  50  13  51  13
M  END
>  <minimizedAffinity>  (1) 
-4.85700083

>  <minimizedRMSD>  (1) 
0.265476227

$$$$
