
     RDKit          3D

 52 56  0  0  0  0  0  0  0  0999 V2000
   38.0720   21.8500   31.3950 C   0  0  0  0  0  0  0  0  0  0  0  0
   38.3990   20.7420   30.5860 C   0  0  0  0  0  0  0  0  0  0  0  0
   38.9670   21.2510   29.4230 C   0  0  0  0  0  0  0  0  0  0  0  0
   38.9700   22.5970   29.5480 N   0  0  0  0  0  0  0  0  0  0  0  0
   38.4430   22.9350   30.7080 N   0  0  0  0  0  0  0  0  0  0  0  0
   37.3780   21.8420   35.0370 C   0  0  0  0  0  0  0  0  0  0  0  0
   36.2100   21.1120   35.0850 C   0  0  0  0  0  0  0  0  0  0  0  0
   35.6670   20.6300   33.9060 C   0  0  0  0  0  0  0  0  0  0  0  0
   36.2920   20.8870   32.7320 N   0  0  0  0  0  0  0  0  0  0  0  0
   37.4480   21.6110   32.7040 C   0  0  0  0  0  0  0  0  0  0  0  0
   37.9860   22.0860   33.8560 N   0  0  0  0  0  0  0  0  0  0  0  0
   39.8360   22.7790   37.6140 C   0  0  0  0  0  0  0  0  0  0  0  0
   39.0630   23.3880   38.5640 C   0  0  0  0  0  0  0  0  0  0  0  0
   37.6840   23.4710   38.3080 C   0  0  0  0  0  0  0  0  0  0  0  0
   37.1770   22.9550   37.1480 N   0  0  0  0  0  0  0  0  0  0  0  0
   37.9830   22.3660   36.2430 C   0  0  0  0  0  0  0  0  0  0  0  0
   39.3000   22.2840   36.4850 N   0  0  0  0  0  0  0  0  0  0  0  0
   39.4870   23.4560   28.5260 C   0  0  0  0  0  0  0  0  0  0  0  0
   40.3820   22.6360   27.6310 C   0  0  0  0  0  0  0  0  0  0  0  0
   40.2960   23.3120   26.2810 C   0  0  0  0  0  0  0  0  0  0  0  0
   39.5500   22.8760   25.2350 N   0  0  0  0  0  0  0  0  0  0  0  0
   39.7200   23.7120   24.2240 O   0  0  0  0  0  0  0  0  0  0  0  0
   40.5390   24.6660   24.5690 C   0  0  0  0  0  0  0  0  0  0  0  0
   40.9090   24.4270   25.8600 N   0  0  0  0  0  0  0  0  0  0  0  0
   40.9590   25.7840   23.6830 C   0  0  0  0  0  0  0  0  0  0  0  0
   40.4790   27.0580   24.3070 C   0  0  0  0  0  0  0  0  0  0  0  0
   40.7360   28.1920   23.3670 C   0  0  0  0  0  0  0  0  0  0  0  0
   39.8330   27.9570   22.1560 C   0  0  0  0  0  0  0  0  0  0  0  0
   40.2430   26.7060   21.4470 C   0  0  0  0  0  0  0  0  0  0  0  0
   40.3970   25.5120   22.3260 C   0  0  0  0  0  0  0  0  0  0  0  0
   38.2364   19.6813   30.8279 H   0  0  0  0  0  0  0  0  0  0  0  0
   39.3414   20.6705   28.5669 H   0  0  0  0  0  0  0  0  0  0  0  0
   35.7155   20.9148   36.0476 H   0  0  0  0  0  0  0  0  0  0  0  0
   34.7365   20.0437   33.9226 H   0  0  0  0  0  0  0  0  0  0  0  0
   40.9203   22.6924   37.7775 H   0  0  0  0  0  0  0  0  0  0  0  0
   39.5014   23.7947   39.4873 H   0  0  0  0  0  0  0  0  0  0  0  0
   37.0148   23.9494   39.0383 H   0  0  0  0  0  0  0  0  0  0  0  0
   38.6578   23.8772   27.9387 H   0  0  0  0  0  0  0  0  0  0  0  0
   40.0545   24.2839   28.9760 H   0  0  0  0  0  0  0  0  0  0  0  0
   41.4168   22.6444   28.0041 H   0  0  0  0  0  0  0  0  0  0  0  0
   40.0750   21.5805   27.5888 H   0  0  0  0  0  0  0  0  0  0  0  0
   42.0490   25.8766   23.5672 H   0  0  0  0  0  0  0  0  0  0  0  0
   39.4003   26.9851   24.5096 H   0  0  0  0  0  0  0  0  0  0  0  0
   41.0147   27.2320   25.2519 H   0  0  0  0  0  0  0  0  0  0  0  0
   40.4871   29.1495   23.8479 H   0  0  0  0  0  0  0  0  0  0  0  0
   41.7953   28.2367   23.0738 H   0  0  0  0  0  0  0  0  0  0  0  0
   38.7903   27.8598   22.4926 H   0  0  0  0  0  0  0  0  0  0  0  0
   39.9248   28.8092   21.4666 H   0  0  0  0  0  0  0  0  0  0  0  0
   39.4800   26.4766   20.6885 H   0  0  0  0  0  0  0  0  0  0  0  0
   41.2358   26.9045   21.0171 H   0  0  0  0  0  0  0  0  0  0  0  0
   39.4047   25.0552   22.4549 H   0  0  0  0  0  0  0  0  0  0  0  0
   41.1232   24.8567   21.8228 H   0  0  0  0  0  0  0  0  0  0  0  0
  1 10  1  0
  2  1  1  0
  3  4  1  0
  3  2  2  0
  4  5  1  0
  5  1  2  0
  6  7  2  0
  6 16  1  0
  8  7  1  0
  9  8  2  0
 10  9  1  0
 10 11  2  0
 11  6  1  0
 12 13  2  0
 14 13  1  0
 15 14  2  0
 16 17  2  0
 16 15  1  0
 17 12  1  0
 18  4  1  0
 19 18  1  0
 20 19  1  0
 21 20  2  0
 22 23  1  0
 22 21  1  0
 23 24  2  0
 24 20  1  0
 25 26  1  0
 25 23  1  0
 27 26  1  0
 28 27  1  0
 29 28  1  0
 29 30  1  0
 30 25  1  0
  2 31  1  0
  3 32  1  0
  7 33  1  0
  8 34  1  0
 12 35  1  0
 13 36  1  0
 14 37  1  0
 18 38  1  0
 18 39  1  0
 19 40  1  0
 19 41  1  0
 25 42  1  0
 26 43  1  0
 26 44  1  0
 27 45  1  0
 27 46  1  0
 28 47  1  0
 28 48  1  0
 29 49  1  0
 29 50  1  0
 30 51  1  0
 30 52  1  0
M  ISO  8  31  14  32  14  33  14  34  14  35  14  36  14  37  14  38   8
M  ISO  8  39   8  40   8  41   8  42  13  43  13  44  13  45  13  46  13
M  ISO  6  47  13  48  13  49  13  50  13  51  13  52  13
M  END
>  <minimizedAffinity>  (1) 
-4.81981468

>  <minimizedRMSD>  (1) 
1.2700696

$$$$
