
     RDKit          3D

 43 47  0  0  0  0  0  0  0  0999 V2000
   38.1940   22.1190   31.2930 C   0  0  0  0  0  0  0  0  0  0  0  0
   38.6930   21.0700   30.4980 C   0  0  0  0  0  0  0  0  0  0  0  0
   39.2250   21.6350   29.3450 C   0  0  0  0  0  0  0  0  0  0  0  0
   39.0450   22.9750   29.4570 N   0  0  0  0  0  0  0  0  0  0  0  0
   38.4430   23.2430   30.5980 N   0  0  0  0  0  0  0  0  0  0  0  0
   37.4810   21.9180   34.9230 C   0  0  0  0  0  0  0  0  0  0  0  0
   36.3300   21.1780   34.9260 C   0  0  0  0  0  0  0  0  0  0  0  0
   35.7990   20.7500   33.7190 C   0  0  0  0  0  0  0  0  0  0  0  0
   36.4250   21.0710   32.5610 N   0  0  0  0  0  0  0  0  0  0  0  0
   37.5730   21.8110   32.5760 C   0  0  0  0  0  0  0  0  0  0  0  0
   38.0860   22.2250   33.7620 N   0  0  0  0  0  0  0  0  0  0  0  0
   39.9000   22.7540   37.5700 C   0  0  0  0  0  0  0  0  0  0  0  0
   39.0930   23.3370   38.5260 C   0  0  0  0  0  0  0  0  0  0  0  0
   37.7350   23.4370   38.2540 C   0  0  0  0  0  0  0  0  0  0  0  0
   37.2490   22.9610   37.0640 N   0  0  0  0  0  0  0  0  0  0  0  0
   38.0880   22.3960   36.1580 C   0  0  0  0  0  0  0  0  0  0  0  0
   39.3810   22.3000   36.4180 N   0  0  0  0  0  0  0  0  0  0  0  0
   39.4750   23.8860   28.4430 C   0  0  0  0  0  0  0  0  0  0  0  0
   39.7480   23.0950   27.1830 C   0  0  0  0  0  0  0  0  0  0  0  0
   40.0210   24.1450   26.1320 C   0  0  0  0  0  0  0  0  0  0  0  0
   40.1950   23.9330   24.8070 N   0  0  0  0  0  0  0  0  0  0  0  0
   40.4110   25.0700   24.1980 O   0  0  0  0  0  0  0  0  0  0  0  0
   40.3870   26.0470   25.0790 C   0  0  0  0  0  0  0  0  0  0  0  0
   40.1450   25.4800   26.2880 N   0  0  0  0  0  0  0  0  0  0  0  0
   40.5480   27.4600   25.0400 N   0  0  0  0  0  0  0  0  0  0  0  0
   40.7150   28.2280   23.9410 C   0  0  0  0  0  0  0  0  0  0  0  0
   40.8250   29.5300   24.4410 C   0  0  0  0  0  0  0  0  0  0  0  0
   40.7220   29.4990   25.8000 N   0  0  0  0  0  0  0  0  0  0  0  0
   40.5520   28.2140   26.1570 C   0  0  0  0  0  0  0  0  0  0  0  0
   38.6667   19.9983   30.7444 H   0  0  0  0  0  0  0  0  0  0  0  0
   39.6982   21.1014   28.5076 H   0  0  0  0  0  0  0  0  0  0  0  0
   35.8324   20.9259   35.8741 H   0  0  0  0  0  0  0  0  0  0  0  0
   34.8750   20.1534   33.7015 H   0  0  0  0  0  0  0  0  0  0  0  0
   40.9804   22.6603   37.7540 H   0  0  0  0  0  0  0  0  0  0  0  0
   39.5118   23.7101   39.4722 H   0  0  0  0  0  0  0  0  0  0  0  0
   37.0548   23.8945   38.9875 H   0  0  0  0  0  0  0  0  0  0  0  0
   38.6875   24.6300   28.2525 H   0  0  0  0  0  0  0  0  0  0  0  0
   40.3851   24.4127   28.7661 H   0  0  0  0  0  0  0  0  0  0  0  0
   40.6222   22.4407   27.3159 H   0  0  0  0  0  0  0  0  0  0  0  0
   38.9093   22.4374   26.9108 H   0  0  0  0  0  0  0  0  0  0  0  0
   40.7553   27.9031   22.8909 H   0  0  0  0  0  0  0  0  0  0  0  0
   40.9714   30.4354   23.8337 H   0  0  0  0  0  0  0  0  0  0  0  0
   40.4360   27.8416   27.1855 H   0  0  0  0  0  0  0  0  0  0  0  0
  1 10  1  0
  2  1  1  0
  3  4  1  0
  3  2  2  0
  4  5  1  0
  5  1  2  0
  6  7  2  0
  6 16  1  0
  8  7  1  0
  9 10  1  0
  9  8  2  0
 10 11  2  0
 11  6  1  0
 12 13  2  0
 14 13  1  0
 15 14  2  0
 16 17  2  0
 16 15  1  0
 17 12  1  0
 18  4  1  0
 19 18  1  0
 20 24  1  0
 20 19  1  0
 21 20  2  0
 22 21  1  0
 22 23  1  0
 23 24  2  0
 25 23  1  0
 25 29  1  0
 26 27  2  0
 26 25  1  0
 27 28  1  0
 28 29  2  0
  2 30  1  0
  3 31  1  0
  7 32  1  0
  8 33  1  0
 12 34  1  0
 13 35  1  0
 14 36  1  0
 18 37  1  0
 18 38  1  0
 19 39  1  0
 19 40  1  0
 26 41  1  0
 27 42  1  0
 29 43  1  0
M  ISO  8  30  14  31  14  32  14  33  14  34  14  35  14  36  14  37   8
M  ISO  6  38   8  39   8  40   8  41  14  42  14  43  14
M  END
>  <minimizedAffinity>  (1) 
-4.76226997

>  <minimizedRMSD>  (1) 
0.458126843

$$$$
