
     RDKit          3D

 43 47  0  0  0  0  0  0  0  0999 V2000
   38.2030   22.2070   31.2680 C   0  0  0  0  0  0  0  0  0  0  0  0
   38.6970   21.1650   30.4570 C   0  0  0  0  0  0  0  0  0  0  0  0
   39.2270   21.7530   29.3150 C   0  0  0  0  0  0  0  0  0  0  0  0
   39.0510   23.0810   29.4510 N   0  0  0  0  0  0  0  0  0  0  0  0
   38.4460   23.3430   30.6050 N   0  0  0  0  0  0  0  0  0  0  0  0
   37.4940   21.9480   34.9010 C   0  0  0  0  0  0  0  0  0  0  0  0
   36.3450   21.1860   34.8950 C   0  0  0  0  0  0  0  0  0  0  0  0
   35.8170   20.7650   33.6790 C   0  0  0  0  0  0  0  0  0  0  0  0
   36.4400   21.1120   32.5270 N   0  0  0  0  0  0  0  0  0  0  0  0
   37.5820   21.8700   32.5540 C   0  0  0  0  0  0  0  0  0  0  0  0
   38.0970   22.2810   33.7390 N   0  0  0  0  0  0  0  0  0  0  0  0
   39.9150   22.7340   37.5600 C   0  0  0  0  0  0  0  0  0  0  0  0
   39.1070   23.3180   38.5250 C   0  0  0  0  0  0  0  0  0  0  0  0
   37.7460   23.4330   38.2430 C   0  0  0  0  0  0  0  0  0  0  0  0
   37.2530   22.9750   37.0500 N   0  0  0  0  0  0  0  0  0  0  0  0
   38.0820   22.4110   36.1390 C   0  0  0  0  0  0  0  0  0  0  0  0
   39.3940   22.2970   36.4000 N   0  0  0  0  0  0  0  0  0  0  0  0
   39.4780   24.0180   28.4550 C   0  0  0  0  0  0  0  0  0  0  0  0
   39.6990   23.2620   27.1680 C   0  0  0  0  0  0  0  0  0  0  0  0
   40.0240   24.3250   26.1460 C   0  0  0  0  0  0  0  0  0  0  0  0
   40.1800   24.1200   24.8200 N   0  0  0  0  0  0  0  0  0  0  0  0
   40.4610   25.2880   24.2530 O   0  0  0  0  0  0  0  0  0  0  0  0
   40.4920   26.2300   25.1540 C   0  0  0  0  0  0  0  0  0  0  0  0
   40.2200   25.6370   26.3370 N   0  0  0  0  0  0  0  0  0  0  0  0
   40.7580   27.6570   25.0070 C   0  0  0  0  0  0  0  0  0  0  0  0
   41.6710   28.4200   25.7050 C   0  0  0  0  0  0  0  0  0  0  0  0
   41.5760   29.6950   25.2380 N   0  0  0  0  0  0  0  0  0  0  0  0
   40.6180   29.6860   24.2760 C   0  0  0  0  0  0  0  0  0  0  0  0
   40.1180   28.4480   24.1310 N   0  0  0  0  0  0  0  0  0  0  0  0
   38.6683   20.0893   30.6852 H   0  0  0  0  0  0  0  0  0  0  0  0
   39.6979   21.2352   28.4664 H   0  0  0  0  0  0  0  0  0  0  0  0
   35.8520   20.9144   35.8401 H   0  0  0  0  0  0  0  0  0  0  0  0
   34.9016   20.1556   33.6529 H   0  0  0  0  0  0  0  0  0  0  0  0
   40.9939   22.6273   37.7460 H   0  0  0  0  0  0  0  0  0  0  0  0
   39.5245   23.6770   39.4773 H   0  0  0  0  0  0  0  0  0  0  0  0
   37.0686   23.8914   38.9785 H   0  0  0  0  0  0  0  0  0  0  0  0
   38.7041   24.7859   28.3087 H   0  0  0  0  0  0  0  0  0  0  0  0
   40.4073   24.5146   28.7709 H   0  0  0  0  0  0  0  0  0  0  0  0
   40.5362   22.5561   27.2723 H   0  0  0  0  0  0  0  0  0  0  0  0
   38.8204   22.6656   26.8811 H   0  0  0  0  0  0  0  0  0  0  0  0
   42.3504   28.0638   26.4934 H   0  0  0  0  0  0  0  0  0  0  0  0
   40.2976   30.5658   23.6986 H   0  0  0  0  0  0  0  0  0  0  0  0
   39.3815   28.1594   23.4713 H   0  0  0  0  0  0  0  0  0  0  0  0
  1 10  1  0
  2  1  1  0
  3  4  1  0
  3  2  2  0
  4  5  1  0
  5  1  2  0
  6 16  1  0
  7  6  2  0
  8  7  1  0
  9 10  1  0
  9  8  2  0
 10 11  2  0
 11  6  1  0
 12 13  2  0
 14 13  1  0
 15 14  2  0
 16 17  2  0
 16 15  1  0
 17 12  1  0
 18  4  1  0
 19 18  1  0
 20 24  1  0
 20 19  1  0
 21 20  2  0
 22 21  1  0
 22 23  1  0
 23 24  2  0
 25 23  1  0
 25 26  2  0
 27 26  1  0
 28 27  2  0
 29 28  1  0
 29 25  1  0
  2 30  1  0
  3 31  1  0
  7 32  1  0
  8 33  1  0
 12 34  1  0
 13 35  1  0
 14 36  1  0
 18 37  1  0
 18 38  1  0
 19 39  1  0
 19 40  1  0
 26 41  1  0
 28 42  1  0
 29 43  1  0
M  ISO  8  30  14  31  14  32  14  33  14  34  14  35  14  36  14  37   8
M  ISO  6  38   8  39   8  40   8  41  14  42  14  43   9
M  END
>  <minimizedAffinity>  (1) 
-4.72032309

>  <minimizedRMSD>  (1) 
0.390219867

$$$$
