
     RDKit          3D

 46 50  0  0  0  0  0  0  0  0999 V2000
   38.1820   22.0940   31.3070 C   0  0  0  0  0  0  0  0  0  0  0  0
   38.6770   21.0320   30.5230 C   0  0  0  0  0  0  0  0  0  0  0  0
   39.2090   21.5930   29.3640 C   0  0  0  0  0  0  0  0  0  0  0  0
   39.0350   22.9190   29.4670 N   0  0  0  0  0  0  0  0  0  0  0  0
   38.4330   23.2050   30.6060 N   0  0  0  0  0  0  0  0  0  0  0  0
   37.4680   21.9160   34.9390 C   0  0  0  0  0  0  0  0  0  0  0  0
   36.3100   21.1670   34.9450 C   0  0  0  0  0  0  0  0  0  0  0  0
   35.7840   20.7330   33.7470 C   0  0  0  0  0  0  0  0  0  0  0  0
   36.4100   21.0490   32.5870 N   0  0  0  0  0  0  0  0  0  0  0  0
   37.5620   21.7950   32.5930 C   0  0  0  0  0  0  0  0  0  0  0  0
   38.0820   22.2220   33.7720 N   0  0  0  0  0  0  0  0  0  0  0  0
   39.8970   22.7530   37.5780 C   0  0  0  0  0  0  0  0  0  0  0  0
   39.0900   23.3400   38.5370 C   0  0  0  0  0  0  0  0  0  0  0  0
   37.7330   23.4370   38.2620 C   0  0  0  0  0  0  0  0  0  0  0  0
   37.2380   22.9600   37.0750 N   0  0  0  0  0  0  0  0  0  0  0  0
   38.0620   22.3960   36.1680 C   0  0  0  0  0  0  0  0  0  0  0  0
   39.3770   22.2960   36.4230 N   0  0  0  0  0  0  0  0  0  0  0  0
   39.4670   23.8270   28.4450 C   0  0  0  0  0  0  0  0  0  0  0  0
   39.7820   23.0310   27.2040 C   0  0  0  0  0  0  0  0  0  0  0  0
   40.0270   24.0880   26.1420 C   0  0  0  0  0  0  0  0  0  0  0  0
   40.1360   23.8320   24.8130 N   0  0  0  0  0  0  0  0  0  0  0  0
   40.3450   24.9610   24.1800 O   0  0  0  0  0  0  0  0  0  0  0  0
   40.3780   25.9560   25.0450 C   0  0  0  0  0  0  0  0  0  0  0  0
   40.1790   25.4120   26.2770 N   0  0  0  0  0  0  0  0  0  0  0  0
   40.5900   27.3520   24.7070 C   0  0  0  0  0  0  0  0  0  0  0  0
   40.3430   27.7210   23.4010 C   0  0  0  0  0  0  0  0  0  0  0  0
   40.5200   29.0310   22.9980 C   0  0  0  0  0  0  0  0  0  0  0  0
   40.9420   29.9410   23.9220 C   0  0  0  0  0  0  0  0  0  0  0  0
   41.1890   29.5620   25.2370 C   0  0  0  0  0  0  0  0  0  0  0  0
   41.0180   28.2440   25.6700 C   0  0  0  0  0  0  0  0  0  0  0  0
   38.6486   19.9624   30.7782 H   0  0  0  0  0  0  0  0  0  0  0  0
   39.6795   21.0542   28.5283 H   0  0  0  0  0  0  0  0  0  0  0  0
   35.8122   20.9190   35.8941 H   0  0  0  0  0  0  0  0  0  0  0  0
   34.8617   20.1338   33.7325 H   0  0  0  0  0  0  0  0  0  0  0  0
   40.9774   22.6585   37.7617 H   0  0  0  0  0  0  0  0  0  0  0  0
   39.5086   23.7158   39.4823 H   0  0  0  0  0  0  0  0  0  0  0  0
   37.0545   23.8964   38.9959 H   0  0  0  0  0  0  0  0  0  0  0  0
   38.6675   24.5510   28.2291 H   0  0  0  0  0  0  0  0  0  0  0  0
   40.3600   24.3754   28.7793 H   0  0  0  0  0  0  0  0  0  0  0  0
   40.6788   22.4119   27.3537 H   0  0  0  0  0  0  0  0  0  0  0  0
   38.9747   22.3355   26.9308 H   0  0  0  0  0  0  0  0  0  0  0  0
   40.0029   26.9674   22.6754 H   0  0  0  0  0  0  0  0  0  0  0  0
   40.3254   29.3322   21.9581 H   0  0  0  0  0  0  0  0  0  0  0  0
   41.0890   30.9893   23.6230 H   0  0  0  0  0  0  0  0  0  0  0  0
   41.5287   30.3211   25.9570 H   0  0  0  0  0  0  0  0  0  0  0  0
   41.2115   27.9379   26.7087 H   0  0  0  0  0  0  0  0  0  0  0  0
  1 10  1  0
  2  1  1  0
  3  4  1  0
  3  2  2  0
  4  5  1  0
  5  1  2  0
  6  7  2  0
  6 16  1  0
  8  7  1  0
  9 10  1  0
  9  8  2  0
 10 11  2  0
 11  6  1  0
 12 13  2  0
 14 13  1  0
 15 14  2  0
 16 17  2  0
 16 15  1  0
 17 12  1  0
 18  4  1  0
 19 18  1  0
 20 24  1  0
 20 19  1  0
 21 20  2  0
 22 21  1  0
 22 23  1  0
 23 24  2  0
 25 23  1  0
 25 30  1  0
 26 25  2  0
 27 26  1  0
 27 28  2  0
 28 29  1  0
 29 30  2  0
  2 31  1  0
  3 32  1  0
  7 33  1  0
  8 34  1  0
 12 35  1  0
 13 36  1  0
 14 37  1  0
 18 38  1  0
 18 39  1  0
 19 40  1  0
 19 41  1  0
 26 42  1  0
 27 43  1  0
 28 44  1  0
 29 45  1  0
 30 46  1  0
M  ISO  8  31  14  32  14  33  14  34  14  35  14  36  14  37  14  38   8
M  ISO  8  39   8  40   8  41   8  42  14  43  14  44  14  45  14  46  14
M  END
>  <minimizedAffinity>  (1) 
-4.68590641

>  <minimizedRMSD>  (1) 
0.445346326

$$$$
