
     RDKit          3D

 44 48  0  0  0  0  0  0  0  0999 V2000
   38.1910   22.1140   31.2850 C   0  0  0  0  0  0  0  0  0  0  0  0
   38.6840   21.0720   30.5020 C   0  0  0  0  0  0  0  0  0  0  0  0
   39.2260   21.6280   29.3420 C   0  0  0  0  0  0  0  0  0  0  0  0
   39.0460   22.9680   29.4560 N   0  0  0  0  0  0  0  0  0  0  0  0
   38.4380   23.2560   30.5970 N   0  0  0  0  0  0  0  0  0  0  0  0
   37.4770   21.9190   34.9160 C   0  0  0  0  0  0  0  0  0  0  0  0
   36.3260   21.1750   34.9180 C   0  0  0  0  0  0  0  0  0  0  0  0
   35.8020   20.7480   33.7150 C   0  0  0  0  0  0  0  0  0  0  0  0
   36.4230   21.0640   32.5560 N   0  0  0  0  0  0  0  0  0  0  0  0
   37.5660   21.8040   32.5640 C   0  0  0  0  0  0  0  0  0  0  0  0
   38.0840   22.2250   33.7510 N   0  0  0  0  0  0  0  0  0  0  0  0
   39.8980   22.7500   37.5680 C   0  0  0  0  0  0  0  0  0  0  0  0
   39.0990   23.3350   38.5270 C   0  0  0  0  0  0  0  0  0  0  0  0
   37.7360   23.4330   38.2430 C   0  0  0  0  0  0  0  0  0  0  0  0
   37.2540   22.9620   37.0640 N   0  0  0  0  0  0  0  0  0  0  0  0
   38.0750   22.3960   36.1510 C   0  0  0  0  0  0  0  0  0  0  0  0
   39.3850   22.2940   36.4080 N   0  0  0  0  0  0  0  0  0  0  0  0
   39.4790   23.8900   28.4420 C   0  0  0  0  0  0  0  0  0  0  0  0
   39.7280   23.0930   27.1790 C   0  0  0  0  0  0  0  0  0  0  0  0
   40.0120   24.1170   26.1170 C   0  0  0  0  0  0  0  0  0  0  0  0
   40.1660   23.9300   24.8010 N   0  0  0  0  0  0  0  0  0  0  0  0
   40.4030   25.0750   24.1990 O   0  0  0  0  0  0  0  0  0  0  0  0
   40.4120   26.0360   25.0810 C   0  0  0  0  0  0  0  0  0  0  0  0
   40.1680   25.4380   26.2740 N   0  0  0  0  0  0  0  0  0  0  0  0
   40.6130   27.4760   25.0360 C   0  0  0  0  0  0  0  0  0  0  0  0
   41.0480   28.2120   23.9310 C   0  0  0  0  0  0  0  0  0  0  0  0
   41.1800   29.5780   24.0770 C   0  0  0  0  0  0  0  0  0  0  0  0
   40.9030   30.1810   25.2300 N   0  0  0  0  0  0  0  0  0  0  0  0
   40.4810   29.4390   26.2910 C   0  0  0  0  0  0  0  0  0  0  0  0
   40.3380   28.1030   26.1930 N   0  0  0  0  0  0  0  0  0  0  0  0
   38.6518   20.0016   30.7534 H   0  0  0  0  0  0  0  0  0  0  0  0
   39.7009   21.0908   28.5078 H   0  0  0  0  0  0  0  0  0  0  0  0
   35.8270   20.9219   35.8651 H   0  0  0  0  0  0  0  0  0  0  0  0
   34.8787   20.1503   33.6988 H   0  0  0  0  0  0  0  0  0  0  0  0
   40.9779   22.6532   37.7535 H   0  0  0  0  0  0  0  0  0  0  0  0
   39.5169   23.7079   39.4737 H   0  0  0  0  0  0  0  0  0  0  0  0
   37.0530   23.8913   38.9734 H   0  0  0  0  0  0  0  0  0  0  0  0
   38.6989   24.6444   28.2624 H   0  0  0  0  0  0  0  0  0  0  0  0
   40.3945   24.4116   28.7579 H   0  0  0  0  0  0  0  0  0  0  0  0
   40.5906   22.4230   27.3094 H   0  0  0  0  0  0  0  0  0  0  0  0
   38.8692   22.4571   26.9180 H   0  0  0  0  0  0  0  0  0  0  0  0
   41.2779   27.7185   22.9752 H   0  0  0  0  0  0  0  0  0  0  0  0
   41.5213   30.1806   23.2224 H   0  0  0  0  0  0  0  0  0  0  0  0
   40.2531   29.9388   27.2440 H   0  0  0  0  0  0  0  0  0  0  0  0
  1 10  1  0
  2  1  1  0
  3  4  1  0
  3  2  2  0
  4  5  1  0
  5  1  2  0
  6  7  2  0
  6 16  1  0
  8  7  1  0
  9 10  1  0
  9  8  2  0
 10 11  2  0
 11  6  1  0
 12 13  2  0
 14 13  1  0
 15 14  2  0
 16 17  2  0
 16 15  1  0
 17 12  1  0
 18  4  1  0
 19 18  1  0
 20 24  1  0
 20 19  1  0
 21 20  2  0
 22 21  1  0
 22 23  1  0
 23 24  2  0
 25 23  1  0
 25 30  2  0
 26 27  2  0
 26 25  1  0
 27 28  1  0
 28 29  2  0
 30 29  1  0
  2 31  1  0
  3 32  1  0
  7 33  1  0
  8 34  1  0
 12 35  1  0
 13 36  1  0
 14 37  1  0
 18 38  1  0
 18 39  1  0
 19 40  1  0
 19 41  1  0
 26 42  1  0
 27 43  1  0
 29 44  1  0
M  ISO  8  31  14  32  14  33  14  34  14  35  14  36  14  37  14  38   8
M  ISO  6  39   8  40   8  41   8  42  14  43  14  44  14
M  END
>  <minimizedAffinity>  (1) 
-4.63832426

>  <minimizedRMSD>  (1) 
0.536726236

$$$$
