
     RDKit          3D

 48 51  0  0  0  0  0  0  0  0999 V2000
   38.1900   22.0260   31.2790 C   0  0  0  0  0  0  0  0  0  0  0  0
   38.7340   20.9830   30.5400 C   0  0  0  0  0  0  0  0  0  0  0  0
   39.2630   21.5190   29.3710 C   0  0  0  0  0  0  0  0  0  0  0  0
   39.0350   22.8400   29.4250 N   0  0  0  0  0  0  0  0  0  0  0  0
   38.4040   23.1440   30.5480 N   0  0  0  0  0  0  0  0  0  0  0  0
   37.4730   21.9060   34.9150 C   0  0  0  0  0  0  0  0  0  0  0  0
   36.3020   21.1850   34.9310 C   0  0  0  0  0  0  0  0  0  0  0  0
   35.7720   20.7510   33.7320 C   0  0  0  0  0  0  0  0  0  0  0  0
   36.3950   21.0310   32.5640 N   0  0  0  0  0  0  0  0  0  0  0  0
   37.5620   21.7520   32.5620 C   0  0  0  0  0  0  0  0  0  0  0  0
   38.1000   22.1900   33.7480 N   0  0  0  0  0  0  0  0  0  0  0  0
   39.9210   22.7380   37.5300 C   0  0  0  0  0  0  0  0  0  0  0  0
   39.1290   23.3350   38.5000 C   0  0  0  0  0  0  0  0  0  0  0  0
   37.7520   23.4410   38.2310 C   0  0  0  0  0  0  0  0  0  0  0  0
   37.2600   22.9630   37.0530 N   0  0  0  0  0  0  0  0  0  0  0  0
   38.0750   22.3870   36.1380 C   0  0  0  0  0  0  0  0  0  0  0  0
   39.3830   22.2850   36.3900 N   0  0  0  0  0  0  0  0  0  0  0  0
   39.4460   23.7380   28.3780 C   0  0  0  0  0  0  0  0  0  0  0  0
   39.6630   22.9140   27.1300 C   0  0  0  0  0  0  0  0  0  0  0  0
   39.9790   23.9400   26.0560 C   0  0  0  0  0  0  0  0  0  0  0  0
   39.9690   23.7370   24.7210 N   0  0  0  0  0  0  0  0  0  0  0  0
   40.2930   24.8520   24.1090 O   0  0  0  0  0  0  0  0  0  0  0  0
   40.5160   25.7950   25.0060 C   0  0  0  0  0  0  0  0  0  0  0  0
   40.3260   25.2450   26.2230 N   0  0  0  0  0  0  0  0  0  0  0  0
   40.9060   27.2160   24.8420 C   0  0  0  0  0  0  0  0  0  0  0  0
   40.4450   28.0720   25.9840 C   0  0  0  0  0  0  0  0  0  0  0  0
   42.4100   27.3550   24.7260 C   0  0  0  0  0  0  0  0  0  0  0  0
   40.3440   27.6770   23.5000 C   0  0  0  0  0  0  0  0  0  0  0  0
   38.7444   19.9215   30.8284 H   0  0  0  0  0  0  0  0  0  0  0  0
   39.7679   20.9694   28.5629 H   0  0  0  0  0  0  0  0  0  0  0  0
   35.7968   20.9582   35.8815 H   0  0  0  0  0  0  0  0  0  0  0  0
   34.8360   20.1731   33.7264 H   0  0  0  0  0  0  0  0  0  0  0  0
   41.0031   22.6355   37.6990 H   0  0  0  0  0  0  0  0  0  0  0  0
   39.5596   23.7099   39.4402 H   0  0  0  0  0  0  0  0  0  0  0  0
   37.0779   23.9059   38.9654 H   0  0  0  0  0  0  0  0  0  0  0  0
   38.6632   24.4900   28.1998 H   0  0  0  0  0  0  0  0  0  0  0  0
   40.3702   24.2637   28.6600 H   0  0  0  0  0  0  0  0  0  0  0  0
   40.5039   22.2176   27.2637 H   0  0  0  0  0  0  0  0  0  0  0  0
   38.7898   22.2948   26.8770 H   0  0  0  0  0  0  0  0  0  0  0  0
   40.7067   27.5860   26.9355 H   0  0  0  0  0  0  0  0  0  0  0  0
   40.9358   29.0548   25.9270 H   0  0  0  0  0  0  0  0  0  0  0  0
   39.3543   28.2030   25.9270 H   0  0  0  0  0  0  0  0  0  0  0  0
   42.8531   27.3960   25.7320 H   0  0  0  0  0  0  0  0  0  0  0  0
   42.8172   26.4907   24.1809 H   0  0  0  0  0  0  0  0  0  0  0  0
   42.6518   28.2793   24.1809 H   0  0  0  0  0  0  0  0  0  0  0  0
   39.5039   28.3661   23.6715 H   0  0  0  0  0  0  0  0  0  0  0  0
   41.1311   28.1930   22.9306 H   0  0  0  0  0  0  0  0  0  0  0  0
   39.9919   26.8042   22.9306 H   0  0  0  0  0  0  0  0  0  0  0  0
  1 10  1  0
  2  1  1  0
  3  4  1  0
  3  2  2  0
  4  5  1  0
  5  1  2  0
  6  7  2  0
  6 16  1  0
  8  7  1  0
  9  8  2  0
 10  9  1  0
 10 11  2  0
 11  6  1  0
 12 13  2  0
 14 13  1  0
 15 14  2  0
 16 17  2  0
 16 15  1  0
 17 12  1  0
 18  4  1  0
 19 18  1  0
 20 24  1  0
 20 19  1  0
 21 20  2  0
 22 21  1  0
 22 23  1  0
 23 24  2  0
 25 23  1  0
 25 26  1  0
 27 25  1  0
 28 25  1  0
  2 29  1  0
  3 30  1  0
  7 31  1  0
  8 32  1  0
 12 33  1  0
 13 34  1  0
 14 35  1  0
 18 36  1  0
 18 37  1  0
 19 38  1  0
 19 39  1  0
 26 40  1  0
 26 41  1  0
 26 42  1  0
 27 43  1  0
 27 44  1  0
 27 45  1  0
 28 46  1  0
 28 47  1  0
 28 48  1  0
M  ISO  8  29  14  30  14  31  14  32  14  33  14  34  14  35  14  36   8
M  ISO  8  37   8  38   8  39   8  40   8  41   8  42   8  43   8  44   8
M  ISO  4  45   8  46   8  47   8  48   8
M  END
>  <minimizedAffinity>  (1) 
-4.62515545

>  <minimizedRMSD>  (1) 
0.480834216

$$$$
