
     RDKit          3D

 39 42  0  0  0  0  0  0  0  0999 V2000
   38.2050   22.1120   31.2700 C   0  0  0  0  0  0  0  0  0  0  0  0
   38.7120   21.0540   30.4930 C   0  0  0  0  0  0  0  0  0  0  0  0
   39.2470   21.6180   29.3340 C   0  0  0  0  0  0  0  0  0  0  0  0
   39.0550   22.9610   29.4370 N   0  0  0  0  0  0  0  0  0  0  0  0
   38.4450   23.2380   30.5750 N   0  0  0  0  0  0  0  0  0  0  0  0
   37.4890   21.9220   34.9050 C   0  0  0  0  0  0  0  0  0  0  0  0
   36.3330   21.1850   34.9010 C   0  0  0  0  0  0  0  0  0  0  0  0
   35.8040   20.7590   33.6990 C   0  0  0  0  0  0  0  0  0  0  0  0
   36.4360   21.0770   32.5450 N   0  0  0  0  0  0  0  0  0  0  0  0
   37.5810   21.8080   32.5530 C   0  0  0  0  0  0  0  0  0  0  0  0
   38.0960   22.2240   33.7390 N   0  0  0  0  0  0  0  0  0  0  0  0
   39.9150   22.7400   37.5510 C   0  0  0  0  0  0  0  0  0  0  0  0
   39.1140   23.3310   38.5140 C   0  0  0  0  0  0  0  0  0  0  0  0
   37.7460   23.4360   38.2300 C   0  0  0  0  0  0  0  0  0  0  0  0
   37.2570   22.9630   37.0410 N   0  0  0  0  0  0  0  0  0  0  0  0
   38.0890   22.3960   36.1390 C   0  0  0  0  0  0  0  0  0  0  0  0
   39.3810   22.2940   36.4000 N   0  0  0  0  0  0  0  0  0  0  0  0
   39.4770   23.8830   28.4260 C   0  0  0  0  0  0  0  0  0  0  0  0
   39.6990   23.0910   27.1550 C   0  0  0  0  0  0  0  0  0  0  0  0
   40.0070   24.1350   26.1030 C   0  0  0  0  0  0  0  0  0  0  0  0
   40.0670   23.9260   24.7710 N   0  0  0  0  0  0  0  0  0  0  0  0
   40.3570   25.0530   24.1620 O   0  0  0  0  0  0  0  0  0  0  0  0
   40.4900   26.0040   25.0570 C   0  0  0  0  0  0  0  0  0  0  0  0
   40.2730   25.4420   26.2690 N   0  0  0  0  0  0  0  0  0  0  0  0
   40.8090   27.3710   24.7250 C   0  0  0  0  0  0  0  0  0  0  0  0
   41.9140   27.8270   25.1090 O   0  0  0  0  0  0  0  0  0  0  0  0
   39.9960   28.2240   24.0170 O   0  0  0  0  0  0  0  0  0  0  0  0
   38.6907   19.9848   30.7504 H   0  0  0  0  0  0  0  0  0  0  0  0
   39.7284   21.0829   28.5022 H   0  0  0  0  0  0  0  0  0  0  0  0
   35.8312   20.9352   35.8475 H   0  0  0  0  0  0  0  0  0  0  0  0
   34.8774   20.1666   33.6793 H   0  0  0  0  0  0  0  0  0  0  0  0
   40.9954   22.6347   37.7288 H   0  0  0  0  0  0  0  0  0  0  0  0
   39.5336   23.7019   39.4608 H   0  0  0  0  0  0  0  0  0  0  0  0
   37.0656   23.8976   38.9608 H   0  0  0  0  0  0  0  0  0  0  0  0
   38.6999   24.6445   28.2636 H   0  0  0  0  0  0  0  0  0  0  0  0
   40.4011   24.3965   28.7300 H   0  0  0  0  0  0  0  0  0  0  0  0
   40.5444   22.3971   27.2726 H   0  0  0  0  0  0  0  0  0  0  0  0
   38.8267   22.4759   26.8892 H   0  0  0  0  0  0  0  0  0  0  0  0
   40.2922   29.1503   23.8317 H   0  0  0  0  0  0  0  0  0  0  0  0
  1 10  1  0
  2  1  1  0
  3  4  1  0
  3  2  2  0
  4  5  1  0
  5  1  2  0
  6 16  1  0
  7  6  2  0
  8  7  1  0
  9 10  1  0
  9  8  2  0
 10 11  2  0
 11  6  1  0
 12 13  2  0
 14 13  1  0
 15 14  2  0
 16 17  2  0
 16 15  1  0
 17 12  1  0
 18  4  1  0
 19 18  1  0
 20 24  1  0
 20 19  1  0
 21 20  2  0
 22 21  1  0
 22 23  1  0
 23 24  2  0
 25 23  1  0
 25 26  2  0
 27 25  1  0
  2 28  1  0
  3 29  1  0
  7 30  1  0
  8 31  1  0
 12 32  1  0
 13 33  1  0
 14 34  1  0
 18 35  1  0
 18 36  1  0
 19 37  1  0
 19 38  1  0
 27 39  1  0
M  ISO  8  28  14  29  14  30  14  31  14  32  14  33  14  34  14  35   8
M  ISO  4  36   8  37   8  38   8  39   3
M  END
>  <minimizedAffinity>  (1) 
-4.59496689

>  <minimizedRMSD>  (1) 
0.310556203

$$$$
