
     RDKit          3D

 38 41  0  0  0  0  0  0  0  0999 V2000
   38.2480   22.1920   31.2100 C   0  0  0  0  0  0  0  0  0  0  0  0
   38.7880   21.1500   30.4300 C   0  0  0  0  0  0  0  0  0  0  0  0
   39.3090   21.7310   29.2800 C   0  0  0  0  0  0  0  0  0  0  0  0
   39.0850   23.0520   29.3850 N   0  0  0  0  0  0  0  0  0  0  0  0
   38.4620   23.3160   30.5200 N   0  0  0  0  0  0  0  0  0  0  0  0
   37.5280   21.9500   34.8390 C   0  0  0  0  0  0  0  0  0  0  0  0
   36.3660   21.2090   34.8290 C   0  0  0  0  0  0  0  0  0  0  0  0
   35.8360   20.7970   33.6120 C   0  0  0  0  0  0  0  0  0  0  0  0
   36.4710   21.1320   32.4640 N   0  0  0  0  0  0  0  0  0  0  0  0
   37.6220   21.8700   32.4960 C   0  0  0  0  0  0  0  0  0  0  0  0
   38.1440   22.2750   33.6800 N   0  0  0  0  0  0  0  0  0  0  0  0
   39.9370   22.7010   37.5220 C   0  0  0  0  0  0  0  0  0  0  0  0
   39.1450   23.3000   38.4680 C   0  0  0  0  0  0  0  0  0  0  0  0
   37.7790   23.4450   38.1800 C   0  0  0  0  0  0  0  0  0  0  0  0
   37.2980   22.9900   36.9840 N   0  0  0  0  0  0  0  0  0  0  0  0
   38.1210   22.4050   36.0820 C   0  0  0  0  0  0  0  0  0  0  0  0
   39.4240   22.2660   36.3530 N   0  0  0  0  0  0  0  0  0  0  0  0
   39.4800   24.0200   28.3860 C   0  0  0  0  0  0  0  0  0  0  0  0
   39.6050   23.2460   27.0750 C   0  0  0  0  0  0  0  0  0  0  0  0
   40.0090   24.2860   26.0610 C   0  0  0  0  0  0  0  0  0  0  0  0
   40.0780   24.1180   24.7250 N   0  0  0  0  0  0  0  0  0  0  0  0
   40.4670   25.2400   24.1570 O   0  0  0  0  0  0  0  0  0  0  0  0
   40.6580   26.1480   25.0790 C   0  0  0  0  0  0  0  0  0  0  0  0
   40.3730   25.5590   26.2720 N   0  0  0  0  0  0  0  0  0  0  0  0
   41.0830   27.4810   24.8200 N   0  0  0  0  0  0  0  0  0  0  0  0
   38.7957   20.0796   30.6833 H   0  0  0  0  0  0  0  0  0  0  0  0
   39.8067   21.2118   28.4477 H   0  0  0  0  0  0  0  0  0  0  0  0
   35.8644   20.9470   35.7722 H   0  0  0  0  0  0  0  0  0  0  0  0
   34.9097   20.2045   33.5817 H   0  0  0  0  0  0  0  0  0  0  0  0
   41.0113   22.5729   37.7205 H   0  0  0  0  0  0  0  0  0  0  0  0
   39.5661   23.6548   39.4203 H   0  0  0  0  0  0  0  0  0  0  0  0
   37.1038   23.9189   38.9077 H   0  0  0  0  0  0  0  0  0  0  0  0
   38.7170   24.8070   28.2938 H   0  0  0  0  0  0  0  0  0  0  0  0
   40.4262   24.5125   28.6546 H   0  0  0  0  0  0  0  0  0  0  0  0
   40.3737   22.4635   27.1570 H   0  0  0  0  0  0  0  0  0  0  0  0
   38.6710   22.7340   26.8003 H   0  0  0  0  0  0  0  0  0  0  0  0
   41.2120   28.1411   25.6000 H   0  0  0  0  0  0  0  0  0  0  0  0
   41.2616   27.7858   23.8525 H   0  0  0  0  0  0  0  0  0  0  0  0
  1 10  1  0
  2  1  1  0
  3  4  1  0
  3  2  2  0
  4  5  1  0
  5  1  2  0
  6 16  1  0
  7  6  2  0
  8  7  1  0
  9 10  1  0
  9  8  2  0
 10 11  2  0
 11  6  1  0
 12 13  2  0
 14 13  1  0
 15 14  2  0
 16 17  2  0
 16 15  1  0
 17 12  1  0
 18  4  1  0
 19 18  1  0
 20 24  1  0
 20 19  1  0
 21 20  2  0
 22 21  1  0
 22 23  1  0
 23 24  2  0
 25 23  1  0
  2 26  1  0
  3 27  1  0
  7 28  1  0
  8 29  1  0
 12 30  1  0
 13 31  1  0
 14 32  1  0
 18 33  1  0
 18 34  1  0
 19 35  1  0
 19 36  1  0
 25 37  1  0
 25 38  1  0
M  ISO  8  26  14  27  14  28  14  29  14  30  14  31  14  32  14  33   8
M  ISO  3  34   8  35   8  36   8
M  END
>  <minimizedAffinity>  (1) 
-4.47747946

>  <minimizedRMSD>  (1) 
0.0477110855

$$$$
