
     RDKit          3D

 27 29  0  0  0  0  0  0  0  0999 V2000
   40.3130   22.0760   36.6990 C   0  0  0  0  0  0  0  0  0  0  0  0
   39.7250   22.7860   37.7420 C   0  0  0  0  0  0  0  0  0  0  0  0
   38.6180   23.5720   37.4440 C   0  0  0  0  0  0  0  0  0  0  0  0
   38.2210   23.5640   36.1580 N   0  0  0  0  0  0  0  0  0  0  0  0
   38.7690   22.8930   35.1500 C   0  0  0  0  0  0  0  0  0  0  0  0
   39.8230   22.1550   35.4740 N   0  0  0  0  0  0  0  0  0  0  0  0
   38.0620   23.1320   33.8920 C   0  0  0  0  0  0  0  0  0  0  0  0
   38.3200   24.1770   33.0600 N   0  0  0  0  0  0  0  0  0  0  0  0
   37.6750   24.3940   31.9120 C   0  0  0  0  0  0  0  0  0  0  0  0
   36.6990   23.5880   31.4700 N   0  0  0  0  0  0  0  0  0  0  0  0
   36.3670   22.5110   32.2360 C   0  0  0  0  0  0  0  0  0  0  0  0
   35.3780   21.7110   31.7670 C   0  0  0  0  0  0  0  0  0  0  0  0
   34.9940   20.6030   32.4930 C   0  0  0  0  0  0  0  0  0  0  0  0
   35.6650   20.3670   33.7000 C   0  0  0  0  0  0  0  0  0  0  0  0
   36.6590   21.2280   34.1050 C   0  0  0  0  0  0  0  0  0  0  0  0
   37.0600   22.3330   33.4050 C   0  0  0  0  0  0  0  0  0  0  0  0
   37.8840   24.3930   38.4770 C   0  0  0  0  0  0  0  0  0  0  0  0
   41.1919   21.4445   36.8957 H   0  0  0  0  0  0  0  0  0  0  0  0
   40.1224   22.7271   38.7660 H   0  0  0  0  0  0  0  0  0  0  0  0
   37.9549   25.2677   31.3051 H   0  0  0  0  0  0  0  0  0  0  0  0
   34.8843   21.9445   30.8122 H   0  0  0  0  0  0  0  0  0  0  0  0
   34.1957   19.9338   32.1397 H   0  0  0  0  0  0  0  0  0  0  0  0
   35.3988   19.4985   34.3203 H   0  0  0  0  0  0  0  0  0  0  0  0
   37.1661   21.0131   35.0572 H   0  0  0  0  0  0  0  0  0  0  0  0
   38.1787   24.0634   39.4843 H   0  0  0  0  0  0  0  0  0  0  0  0
   38.1389   25.4555   38.3496 H   0  0  0  0  0  0  0  0  0  0  0  0
   36.7997   24.2582   38.3496 H   0  0  0  0  0  0  0  0  0  0  0  0
  1  2  2  0
  3  2  1  0
  3 17  1  0
  4  3  2  0
  5  6  2  0
  5  4  1  0
  6  1  1  0
  7  5  1  0
  8  7  2  0
  9  8  1  0
 10  9  2  0
 10 11  1  0
 11 16  2  0
 12 11  1  0
 12 13  2  0
 13 14  1  0
 14 15  2  0
 16  7  1  0
 16 15  1  0
  1 18  1  0
  2 19  1  0
  9 20  1  0
 12 21  1  0
 13 22  1  0
 14 23  1  0
 15 24  1  0
 17 25  1  0
 17 26  1  0
 17 27  1  0
M  ISO  8  18  14  19  14  20  14  21  14  22  14  23  14  24  14  25   8
M  ISO  2  26   8  27   8
M  END
>  <minimizedAffinity>  (1) 
-5.15658712

>  <minimizedRMSD>  (1) 
2.2046721

$$$$
