
     RDKit          3D

 24 26  0  0  0  0  0  0  0  0999 V2000
   40.4350   22.1440   36.7270 C   0  0  0  0  0  0  0  0  0  0  0  0
   39.8030   22.8010   37.7870 C   0  0  0  0  0  0  0  0  0  0  0  0
   38.6210   23.5030   37.5380 C   0  0  0  0  0  0  0  0  0  0  0  0
   38.1410   23.5080   36.2450 N   0  0  0  0  0  0  0  0  0  0  0  0
   38.7750   22.8670   35.2550 C   0  0  0  0  0  0  0  0  0  0  0  0
   39.9080   22.1940   35.4930 N   0  0  0  0  0  0  0  0  0  0  0  0
   38.2170   22.9180   33.9420 N   0  0  0  0  0  0  0  0  0  0  0  0
   38.4720   23.6310   32.8140 C   0  0  0  0  0  0  0  0  0  0  0  0
   37.5970   23.2420   31.8580 N   0  0  0  0  0  0  0  0  0  0  0  0
   36.7890   22.2870   32.3730 C   0  0  0  0  0  0  0  0  0  0  0  0
   35.7520   21.6070   31.7580 C   0  0  0  0  0  0  0  0  0  0  0  0
   35.0670   20.6810   32.4690 N   0  0  0  0  0  0  0  0  0  0  0  0
   35.4450   20.4860   33.7310 C   0  0  0  0  0  0  0  0  0  0  0  0
   36.4550   21.1520   34.3240 N   0  0  0  0  0  0  0  0  0  0  0  0
   37.1870   22.0870   33.6920 C   0  0  0  0  0  0  0  0  0  0  0  0
   37.8980   24.2250   38.6280 C   0  0  0  0  0  0  0  0  0  0  0  0
   41.3657   21.5851   36.9042 H   0  0  0  0  0  0  0  0  0  0  0  0
   40.2294   22.7658   38.8004 H   0  0  0  0  0  0  0  0  0  0  0  0
   39.2558   24.3940   32.6978 H   0  0  0  0  0  0  0  0  0  0  0  0
   35.4893   21.8154   30.7103 H   0  0  0  0  0  0  0  0  0  0  0  0
   34.9004   19.7368   34.3244 H   0  0  0  0  0  0  0  0  0  0  0  0
   38.2560   23.8675   39.6048 H   0  0  0  0  0  0  0  0  0  0  0  0
   38.0875   25.3050   38.5409 H   0  0  0  0  0  0  0  0  0  0  0  0
   36.8182   24.0340   38.5409 H   0  0  0  0  0  0  0  0  0  0  0  0
  1  2  2  0
  3  2  1  0
  3 16  1  0
  4  3  2  0
  5  6  2  0
  5  4  1  0
  6  1  1  0
  7  5  1  0
  8  7  1  0
  9 10  1  0
  9  8  2  0
 10 15  2  0
 11 10  1  0
 11 12  2  0
 12 13  1  0
 13 14  2  0
 15  7  1  0
 15 14  1  0
  1 17  1  0
  2 18  1  0
  8 19  1  0
 11 20  1  0
 13 21  1  0
 16 22  1  0
 16 23  1  0
 16 24  1  0
M  ISO  8  17  14  18  14  19  14  20  14  21  14  22   8  23   8  24   8
M  END
>  <minimizedAffinity>  (1) 
-4.75286531

>  <minimizedRMSD>  (1) 
1.29809856

$$$$
