
     RDKit          3D

 26 27  0  0  0  0  0  0  0  0999 V2000
   40.3230   22.3670   37.3100 C   0  0  0  0  0  0  0  0  0  0  0  0
   39.7860   23.2920   38.2070 C   0  0  0  0  0  0  0  0  0  0  0  0
   38.4620   23.7370   37.9920 C   0  0  0  0  0  0  0  0  0  0  0  0
   37.8050   23.2200   36.9100 N   0  0  0  0  0  0  0  0  0  0  0  0
   38.3610   22.3350   36.0750 C   0  0  0  0  0  0  0  0  0  0  0  0
   39.6160   21.9110   36.2750 N   0  0  0  0  0  0  0  0  0  0  0  0
   36.2050   20.8740   32.7220 C   0  0  0  0  0  0  0  0  0  0  0  0
   37.4120   21.5290   32.5300 C   0  0  0  0  0  0  0  0  0  0  0  0
   38.0730   21.9840   33.6520 C   0  0  0  0  0  0  0  0  0  0  0  0
   37.6020   21.8240   34.9370 C   0  0  0  0  0  0  0  0  0  0  0  0
   36.4000   21.1720   35.1260 C   0  0  0  0  0  0  0  0  0  0  0  0
   35.7160   20.7060   34.0230 C   0  0  0  0  0  0  0  0  0  0  0  0
   35.3050   20.2670   31.3490 S   0  0  0  0  0  0  0  0  0  0  0  0
   34.0950   19.5570   31.9110 O   0  0  0  0  0  0  0  0  0  0  0  0
   36.1140   19.3250   30.5170 O   0  0  0  0  0  0  0  0  0  0  0  0
   37.8290   24.7230   38.9150 C   0  0  0  0  0  0  0  0  0  0  0  0
   41.3513   22.0064   37.4600 H   0  0  0  0  0  0  0  0  0  0  0  0
   40.3767   23.6640   39.0571 H   0  0  0  0  0  0  0  0  0  0  0  0
   37.8263   21.6799   31.5222 H   0  0  0  0  0  0  0  0  0  0  0  0
   39.0318   22.5048   33.5128 H   0  0  0  0  0  0  0  0  0  0  0  0
   35.9950   21.0268   36.1384 H   0  0  0  0  0  0  0  0  0  0  0  0
   34.7575   20.1867   34.1698 H   0  0  0  0  0  0  0  0  0  0  0  0
   34.9545   21.3031   30.5241 H   0  0  0  0  0  0  0  0  0  0  0  0
   38.0201   24.4253   39.9566 H   0  0  0  0  0  0  0  0  0  0  0  0
   38.2558   25.7206   38.7346 H   0  0  0  0  0  0  0  0  0  0  0  0
   36.7442   24.7502   38.7346 H   0  0  0  0  0  0  0  0  0  0  0  0
  1  2  2  0
  3  2  1  0
  3 16  1  0
  4  3  2  0
  5  6  2  0
  5  4  1  0
  6  1  1  0
  7 12  2  0
  8  7  1  0
  8  9  2  0
  9 10  1  0
 10 11  2  0
 10  5  1  0
 12 11  1  0
 13 14  2  0
 13  7  1  0
 15 13  2  0
  1 17  1  0
  2 18  1  0
  8 19  1  0
  9 20  1  0
 11 21  1  0
 12 22  1  0
 13 23  1  0
 16 24  1  0
 16 25  1  0
 16 26  1  0
M  ISO  8  17  14  18  14  19  14  20  14  21  14  22  14  23  11  24   8
M  ISO  2  25   8  26   8
M  END
>  <minimizedAffinity>  (1) 
-4.39958954

>  <minimizedRMSD>  (1) 
1.50036192

$$$$
