
     RDKit          3D

 20 20  0  0  0  0  0  0  0  0999 V2000
   40.2280   22.2030   37.0180 C   0  0  0  0  0  0  0  0  0  0  0  0
   39.7100   23.0970   37.9560 C   0  0  0  0  0  0  0  0  0  0  0  0
   38.3960   23.5440   37.8220 C   0  0  0  0  0  0  0  0  0  0  0  0
   37.6810   23.0700   36.7580 N   0  0  0  0  0  0  0  0  0  0  0  0
   38.2000   22.2130   35.8730 C   0  0  0  0  0  0  0  0  0  0  0  0
   39.4580   21.7890   36.0070 N   0  0  0  0  0  0  0  0  0  0  0  0
   37.3940   21.7510   34.7770 N   0  0  0  0  0  0  0  0  0  0  0  0
   36.1830   21.0440   35.0670 C   0  0  0  0  0  0  0  0  0  0  0  0
   35.9510   20.7150   36.3130 N   0  0  0  0  0  0  0  0  0  0  0  0
   35.3680   20.7860   33.9340 N   0  0  0  0  0  0  0  0  0  0  0  0
   35.0790   20.2000   36.5640 H   0  0  0  0  0  0  0  0  0  0  0  0
   37.8040   24.5000   38.8020 C   0  0  0  0  0  0  0  0  0  0  0  0
   41.2628   21.8415   37.1100 H   0  0  0  0  0  0  0  0  0  0  0  0
   40.3324   23.4458   38.7932 H   0  0  0  0  0  0  0  0  0  0  0  0
   37.6812   21.9247   33.8032 H   0  0  0  0  0  0  0  0  0  0  0  0
   34.4764   20.2823   34.0449 H   0  0  0  0  0  0  0  0  0  0  0  0
   35.6681   21.1025   33.0009 H   0  0  0  0  0  0  0  0  0  0  0  0
   38.0172   24.1557   39.8247 H   0  0  0  0  0  0  0  0  0  0  0  0
   38.2427   25.4975   38.6520 H   0  0  0  0  0  0  0  0  0  0  0  0
   36.7155   24.5518   38.6520 H   0  0  0  0  0  0  0  0  0  0  0  0
  1  2  2  0
  3  2  1  0
  3 12  1  0
  4  3  2  0
  5  6  2  0
  5  4  1  0
  6  1  1  0
  7  8  1  0
  7  5  1  0
  8  9  2  0
  9 11  1  0
 10  8  1  0
  1 13  1  0
  2 14  1  0
  7 15  1  0
 10 16  1  0
 10 17  1  0
 12 18  1  0
 12 19  1  0
 12 20  1  0
M  ISO  5  13  14  14  14  18   8  19   8  20   8
M  END
>  <minimizedAffinity>  (1) 
-4.00064898

>  <minimizedRMSD>  (1) 
0.799495101

$$$$
