
     RDKit          3D

 21 22  0  0  0  0  0  0  0  0999 V2000
   40.2170   22.1810   36.8640 C   0  0  0  0  0  0  0  0  0  0  0  0
   39.7640   23.0320   37.8950 C   0  0  0  0  0  0  0  0  0  0  0  0
   38.4520   23.4980   37.8270 C   0  0  0  0  0  0  0  0  0  0  0  0
   37.6730   23.1130   36.7740 N   0  0  0  0  0  0  0  0  0  0  0  0
   38.1450   22.2940   35.8030 C   0  0  0  0  0  0  0  0  0  0  0  0
   39.4080   21.8380   35.8580 N   0  0  0  0  0  0  0  0  0  0  0  0
   37.2900   21.8970   34.6860 C   0  0  0  0  0  0  0  0  0  0  0  0
   36.2830   20.9610   34.9040 C   0  0  0  0  0  0  0  0  0  0  0  0
   35.5120   20.6360   33.7880 C   0  0  0  0  0  0  0  0  0  0  0  0
   35.7090   21.1770   32.5750 N   0  0  0  0  0  0  0  0  0  0  0  0
   36.7070   22.0910   32.4030 C   0  0  0  0  0  0  0  0  0  0  0  0
   37.4720   22.4290   33.4630 N   0  0  0  0  0  0  0  0  0  0  0  0
   37.9180   24.4010   38.8880 C   0  0  0  0  0  0  0  0  0  0  0  0
   41.2472   21.7962   36.8893 H   0  0  0  0  0  0  0  0  0  0  0  0
   40.4254   23.3184   38.7259 H   0  0  0  0  0  0  0  0  0  0  0  0
   36.1070   20.5078   35.8907 H   0  0  0  0  0  0  0  0  0  0  0  0
   34.7029   19.9004   33.9075 H   0  0  0  0  0  0  0  0  0  0  0  0
   36.8855   22.5451   31.4171 H   0  0  0  0  0  0  0  0  0  0  0  0
   38.1622   23.9881   39.8779 H   0  0  0  0  0  0  0  0  0  0  0  0
   38.3722   25.3975   38.7841 H   0  0  0  0  0  0  0  0  0  0  0  0
   36.8260   24.4831   38.7841 H   0  0  0  0  0  0  0  0  0  0  0  0
  1  2  2  0
  3  2  1  0
  3 13  1  0
  4  3  2  0
  5  6  2  0
  5  4  1  0
  6  1  1  0
  7  8  2  0
  7  5  1  0
  9  8  1  0
 10  9  2  0
 11 10  1  0
 11 12  2  0
 12  7  1  0
  1 14  1  0
  2 15  1  0
  8 16  1  0
  9 17  1  0
 11 18  1  0
 13 19  1  0
 13 20  1  0
 13 21  1  0
M  ISO  8  14  14  15  14  16  14  17  14  18  14  19   8  20   8  21   8
M  END
>  <minimizedAffinity>  (1) 
-3.99828672

>  <minimizedRMSD>  (1) 
1.19255757

$$$$
