
     RDKit          3D

 19 20  0  0  0  0  0  0  0  0999 V2000
   40.2790   22.2200   36.9160 C   0  0  0  0  0  0  0  0  0  0  0  0
   39.7850   23.0970   37.9110 C   0  0  0  0  0  0  0  0  0  0  0  0
   38.4460   23.4950   37.8260 C   0  0  0  0  0  0  0  0  0  0  0  0
   37.6940   23.0190   36.7940 N   0  0  0  0  0  0  0  0  0  0  0  0
   38.1880   22.1890   35.8650 C   0  0  0  0  0  0  0  0  0  0  0  0
   39.4790   21.7900   35.9270 N   0  0  0  0  0  0  0  0  0  0  0  0
   37.3060   21.7560   34.8340 N   0  0  0  0  0  0  0  0  0  0  0  0
   37.2980   21.9540   33.5040 C   0  0  0  0  0  0  0  0  0  0  0  0
   36.2470   21.3370   32.9350 N   0  0  0  0  0  0  0  0  0  0  0  0
   35.5860   20.7410   33.9440 C   0  0  0  0  0  0  0  0  0  0  0  0
   36.2450   21.0040   35.1060 N   0  0  0  0  0  0  0  0  0  0  0  0
   37.8730   24.4190   38.8480 C   0  0  0  0  0  0  0  0  0  0  0  0
   41.3270   21.8879   36.9532 H   0  0  0  0  0  0  0  0  0  0  0  0
   40.4328   23.4543   38.7251 H   0  0  0  0  0  0  0  0  0  0  0  0
   38.0493   22.5411   32.9556 H   0  0  0  0  0  0  0  0  0  0  0  0
   34.6683   20.1424   33.8466 H   0  0  0  0  0  0  0  0  0  0  0  0
   38.1065   24.0424   39.8548 H   0  0  0  0  0  0  0  0  0  0  0  0
   38.3083   25.4212   38.7213 H   0  0  0  0  0  0  0  0  0  0  0  0
   36.7817   24.4745   38.7213 H   0  0  0  0  0  0  0  0  0  0  0  0
  1  2  2  0
  3  2  1  0
  3 12  1  0
  4  3  2  0
  5  6  2  0
  5  4  1  0
  6  1  1  0
  7 11  1  0
  7  5  1  0
  8  7  1  0
  9  8  2  0
  9 10  1  0
 10 11  2  0
  1 13  1  0
  2 14  1  0
  8 15  1  0
 10 16  1  0
 12 17  1  0
 12 18  1  0
 12 19  1  0
M  ISO  7  13  14  14  14  15  14  16  14  17   8  18   8  19   8
M  END
>  <minimizedAffinity>  (1) 
-3.93533325

>  <minimizedRMSD>  (1) 
0.967066884

$$$$
