
     RDKit          3D

 25 26  0  0  0  0  0  0  0  0999 V2000
   40.3580   22.1220   36.8080 C   0  0  0  0  0  0  0  0  0  0  0  0
   39.7530   22.8730   37.8340 C   0  0  0  0  0  0  0  0  0  0  0  0
   38.5550   23.5310   37.5550 C   0  0  0  0  0  0  0  0  0  0  0  0
   38.0410   23.4060   36.2960 N   0  0  0  0  0  0  0  0  0  0  0  0
   38.6330   22.6850   35.3330 C   0  0  0  0  0  0  0  0  0  0  0  0
   39.7790   22.0540   35.5970 N   0  0  0  0  0  0  0  0  0  0  0  0
   38.0550   22.5850   34.0350 N   0  0  0  0  0  0  0  0  0  0  0  0
   37.7820   23.6920   33.1280 C   0  0  0  0  0  0  0  0  0  0  0  0
   36.7570   23.2030   32.1530 C   0  0  0  0  0  0  0  0  0  0  0  0
   36.3190   21.8570   32.7050 C   0  0  0  0  0  0  0  0  0  0  0  0
   37.6210   21.3830   33.3500 C   0  0  0  0  0  0  0  0  0  0  0  0
   37.8700   24.3410   38.6030 C   0  0  0  0  0  0  0  0  0  0  0  0
   41.3030   21.5918   36.9973 H   0  0  0  0  0  0  0  0  0  0  0  0
   40.2136   22.9392   38.8307 H   0  0  0  0  0  0  0  0  0  0  0  0
   37.3918   24.5544   33.6883 H   0  0  0  0  0  0  0  0  0  0  0  0
   38.6974   24.0169   32.6118 H   0  0  0  0  0  0  0  0  0  0  0  0
   37.1968   23.0880   31.1513 H   0  0  0  0  0  0  0  0  0  0  0  0
   35.9163   23.9038   32.0431 H   0  0  0  0  0  0  0  0  0  0  0  0
   35.5141   21.9649   33.4469 H   0  0  0  0  0  0  0  0  0  0  0  0
   35.9016   21.1683   31.9557 H   0  0  0  0  0  0  0  0  0  0  0  0
   37.4432   20.5591   34.0568 H   0  0  0  0  0  0  0  0  0  0  0  0
   38.3560   20.9815   32.6369 H   0  0  0  0  0  0  0  0  0  0  0  0
   38.1722   23.9836   39.5985 H   0  0  0  0  0  0  0  0  0  0  0  0
   38.1520   25.3984   38.4918 H   0  0  0  0  0  0  0  0  0  0  0  0
   36.7804   24.2385   38.4918 H   0  0  0  0  0  0  0  0  0  0  0  0
  1  2  2  0
  3  2  1  0
  3 12  1  0
  4  3  2  0
  5  6  2  0
  5  4  1  0
  6  1  1  0
  7  5  1  0
  8  7  1  0
  9 10  1  0
  9  8  1  0
 10 11  1  0
 11  7  1  0
  1 13  1  0
  2 14  1  0
  8 15  1  0
  8 16  1  0
  9 17  1  0
  9 18  1  0
 10 19  1  0
 10 20  1  0
 11 21  1  0
 11 22  1  0
 12 23  1  0
 12 24  1  0
 12 25  1  0
M  ISO  8  13  14  14  14  15  13  16  13  17  13  18  13  19  13  20  13
M  ISO  5  21  13  22  13  23   8  24   8  25   8
M  END
>  <minimizedAffinity>  (1) 
-3.86194086

>  <minimizedRMSD>  (1) 
0.786471665

$$$$
