
     RDKit          3D

 27 28  0  0  0  0  0  0  0  0999 V2000
   40.2720   22.1080   36.7350 C   0  0  0  0  0  0  0  0  0  0  0  0
   39.7410   22.8740   37.8020 C   0  0  0  0  0  0  0  0  0  0  0  0
   38.5270   23.5590   37.5810 C   0  0  0  0  0  0  0  0  0  0  0  0
   37.9450   23.4420   36.3600 N   0  0  0  0  0  0  0  0  0  0  0  0
   38.4780   22.7080   35.3720 C   0  0  0  0  0  0  0  0  0  0  0  0
   39.6240   22.0510   35.5570 N   0  0  0  0  0  0  0  0  0  0  0  0
   37.7710   22.6660   34.1430 N   0  0  0  0  0  0  0  0  0  0  0  0
   37.0190   21.5150   33.7440 C   0  0  0  0  0  0  0  0  0  0  0  0
   37.2200   21.2130   32.2830 C   0  0  0  0  0  0  0  0  0  0  0  0
   38.3330   21.8940   31.6800 N   0  0  0  0  0  0  0  0  0  0  0  0
   38.3350   23.3190   31.8790 C   0  0  0  0  0  0  0  0  0  0  0  0
   37.7450   23.7610   33.1930 C   0  0  0  0  0  0  0  0  0  0  0  0
   37.9340   24.3780   38.6870 C   0  0  0  0  0  0  0  0  0  0  0  0
   41.2156   21.5589   36.8697 H   0  0  0  0  0  0  0  0  0  0  0  0
   40.2581   22.9329   38.7711 H   0  0  0  0  0  0  0  0  0  0  0  0
   37.3465   20.6489   34.3378 H   0  0  0  0  0  0  0  0  0  0  0  0
   35.9517   21.7203   33.9136 H   0  0  0  0  0  0  0  0  0  0  0  0
   37.3807   20.1302   32.1752 H   0  0  0  0  0  0  0  0  0  0  0  0
   36.3178   21.5684   31.7636 H   0  0  0  0  0  0  0  0  0  0  0  0
   38.3129   21.7100   30.6668 H   0  0  0  0  0  0  0  0  0  0  0  0
   39.3757   23.6722   31.8322 H   0  0  0  0  0  0  0  0  0  0  0  0
   37.7024   23.7490   31.0884 H   0  0  0  0  0  0  0  0  0  0  0  0
   38.3316   24.6022   33.5909 H   0  0  0  0  0  0  0  0  0  0  0  0
   36.7029   24.0748   33.0329 H   0  0  0  0  0  0  0  0  0  0  0  0
   38.2378   23.9584   39.6574 H   0  0  0  0  0  0  0  0  0  0  0  0
   38.2919   25.4151   38.6077 H   0  0  0  0  0  0  0  0  0  0  0  0
   36.8370   24.3617   38.6077 H   0  0  0  0  0  0  0  0  0  0  0  0
  1  2  2  0
  3  2  1  0
  3 13  1  0
  4  3  2  0
  5  6  2  0
  5  4  1  0
  6  1  1  0
  7  5  1  0
  8  7  1  0
  9  8  1  0
 10 11  1  0
 10  9  1  0
 11 12  1  0
 12  7  1  0
  1 14  1  0
  2 15  1  0
  8 16  1  0
  8 17  1  0
  9 18  1  0
  9 19  1  0
 10 20  1  0
 11 21  1  0
 11 22  1  0
 12 23  1  0
 12 24  1  0
 13 25  1  0
 13 26  1  0
 13 27  1  0
M  ISO  8  14  14  15  14  16  13  17  13  18  13  19  13  20   5  21  13
M  ISO  6  22  13  23  13  24  13  25   8  26   8  27   8
M  END
>  <minimizedAffinity>  (1) 
-3.83498621

>  <minimizedRMSD>  (1) 
0.922862947

$$$$
