
     RDKit          3D

 19 20  0  0  0  0  0  0  0  0999 V2000
   40.2960   22.1650   36.8910 C   0  0  0  0  0  0  0  0  0  0  0  0
   39.7980   23.0050   37.8890 C   0  0  0  0  0  0  0  0  0  0  0  0
   38.4850   23.4830   37.7900 C   0  0  0  0  0  0  0  0  0  0  0  0
   37.7650   23.0900   36.7080 N   0  0  0  0  0  0  0  0  0  0  0  0
   38.2610   22.2790   35.7550 C   0  0  0  0  0  0  0  0  0  0  0  0
   39.5170   21.8250   35.8540 N   0  0  0  0  0  0  0  0  0  0  0  0
   37.4000   21.9040   34.6090 C   0  0  0  0  0  0  0  0  0  0  0  0
   37.6420   22.4130   33.3380 C   0  0  0  0  0  0  0  0  0  0  0  0
   36.3060   21.6300   32.3400 S   0  0  0  0  0  0  0  0  0  0  0  0
   35.6490   20.7310   33.8830 C   0  0  0  0  0  0  0  0  0  0  0  0
   36.3520   21.0680   34.6980 N   0  0  0  0  0  0  0  0  0  0  0  0
   37.9070   24.3840   38.8320 C   0  0  0  0  0  0  0  0  0  0  0  0
   41.3255   21.7829   36.9554 H   0  0  0  0  0  0  0  0  0  0  0  0
   40.4299   23.2883   38.7437 H   0  0  0  0  0  0  0  0  0  0  0  0
   38.4306   23.1068   33.0114 H   0  0  0  0  0  0  0  0  0  0  0  0
   34.7907   20.0475   33.9612 H   0  0  0  0  0  0  0  0  0  0  0  0
   38.1557   23.9963   39.8309 H   0  0  0  0  0  0  0  0  0  0  0  0
   38.3258   25.3945   38.7162 H   0  0  0  0  0  0  0  0  0  0  0  0
   36.8139   24.4246   38.7162 H   0  0  0  0  0  0  0  0  0  0  0  0
  1  2  2  0
  3  2  1  0
  3 12  1  0
  4  3  2  0
  5  6  2  0
  5  4  1  0
  6  1  1  0
  7 11  1  0
  7  5  1  0
  8  7  2  0
  9  8  1  0
  9 10  1  0
 10 11  2  0
  1 13  1  0
  2 14  1  0
  8 15  1  0
 10 16  1  0
 12 17  1  0
 12 18  1  0
 12 19  1  0
M  ISO  7  13  14  14  14  15  14  16  14  17   8  18   8  19   8
M  END
>  <minimizedAffinity>  (1) 
-3.74152398

>  <minimizedRMSD>  (1) 
0.857336164

$$$$
