
     RDKit          3D

 18 19  0  0  0  0  0  0  0  0999 V2000
   40.3220   22.1490   36.8970 C   0  0  0  0  0  0  0  0  0  0  0  0
   39.7990   22.9950   37.8930 C   0  0  0  0  0  0  0  0  0  0  0  0
   38.4950   23.4740   37.7620 C   0  0  0  0  0  0  0  0  0  0  0  0
   37.7890   23.0810   36.6480 N   0  0  0  0  0  0  0  0  0  0  0  0
   38.3170   22.2740   35.7190 C   0  0  0  0  0  0  0  0  0  0  0  0
   39.5720   21.8120   35.8420 N   0  0  0  0  0  0  0  0  0  0  0  0
   37.4620   21.9210   34.5650 C   0  0  0  0  0  0  0  0  0  0  0  0
   37.4450   22.1870   33.2480 N   0  0  0  0  0  0  0  0  0  0  0  0
   36.4130   21.5720   32.7540 O   0  0  0  0  0  0  0  0  0  0  0  0
   35.7600   20.9180   33.6950 C   0  0  0  0  0  0  0  0  0  0  0  0
   36.4130   21.1270   34.8610 N   0  0  0  0  0  0  0  0  0  0  0  0
   37.8930   24.3720   38.7890 C   0  0  0  0  0  0  0  0  0  0  0  0
   41.3487   21.7645   36.9864 H   0  0  0  0  0  0  0  0  0  0  0  0
   40.4104   23.2749   38.7635 H   0  0  0  0  0  0  0  0  0  0  0  0
   34.8513   20.3136   33.5569 H   0  0  0  0  0  0  0  0  0  0  0  0
   38.1427   23.9995   39.7934 H   0  0  0  0  0  0  0  0  0  0  0  0
   38.2921   25.3896   38.6656 H   0  0  0  0  0  0  0  0  0  0  0  0
   36.8001   24.3893   38.6656 H   0  0  0  0  0  0  0  0  0  0  0  0
  1  2  2  0
  3  2  1  0
  3 12  1  0
  4  3  2  0
  5  6  2  0
  5  4  1  0
  6  1  1  0
  7 11  1  0
  7  5  1  0
  8  7  2  0
  9  8  1  0
  9 10  1  0
 10 11  2  0
  1 13  1  0
  2 14  1  0
 10 15  1  0
 12 16  1  0
 12 17  1  0
 12 18  1  0
M  ISO  6  13  14  14  14  15  14  16   8  17   8  18   8
M  END
>  <minimizedAffinity>  (1) 
-3.67522836

>  <minimizedRMSD>  (1) 
0.738690734

$$$$
