
     RDKit          3D

 26 27  0  0  0  0  0  0  0  0999 V2000
   40.5980   22.5680   36.6330 C   0  0  0  0  0  0  0  0  0  0  0  0
   39.7370   22.7700   37.7130 C   0  0  0  0  0  0  0  0  0  0  0  0
   38.7480   23.7490   37.5980 C   0  0  0  0  0  0  0  0  0  0  0  0
   38.6760   24.4530   36.4410 N   0  0  0  0  0  0  0  0  0  0  0  0
   39.5190   24.2430   35.4070 C   0  0  0  0  0  0  0  0  0  0  0  0
   40.4770   23.2970   35.5150 N   0  0  0  0  0  0  0  0  0  0  0  0
   39.3690   25.0630   34.1730 C   0  0  0  0  0  0  0  0  0  0  0  0
   39.4060   26.5300   34.6190 C   0  0  0  0  0  0  0  0  0  0  0  0
   38.4910   27.1370   33.5550 C   0  0  0  0  0  0  0  0  0  0  0  0
   37.3060   26.1730   33.6630 C   0  0  0  0  0  0  0  0  0  0  0  0
   38.0540   24.8440   33.4980 C   0  0  0  0  0  0  0  0  0  0  0  0
   37.7950   24.0070   38.7270 C   0  0  0  0  0  0  0  0  0  0  0  0
   41.3845   21.8020   36.7003 H   0  0  0  0  0  0  0  0  0  0  0  0
   39.8352   22.1729   38.6316 H   0  0  0  0  0  0  0  0  0  0  0  0
   40.1671   24.7890   33.4673 H   0  0  0  0  0  0  0  0  0  0  0  0
   39.0006   26.6615   35.6331 H   0  0  0  0  0  0  0  0  0  0  0  0
   40.4096   26.9755   34.6846 H   0  0  0  0  0  0  0  0  0  0  0  0
   38.9505   27.1125   32.5559 H   0  0  0  0  0  0  0  0  0  0  0  0
   38.2455   28.1996   33.6988 H   0  0  0  0  0  0  0  0  0  0  0  0
   36.8050   26.2447   34.6396 H   0  0  0  0  0  0  0  0  0  0  0  0
   36.4908   26.3467   32.9451 H   0  0  0  0  0  0  0  0  0  0  0  0
   37.5013   24.0251   33.9816 H   0  0  0  0  0  0  0  0  0  0  0  0
   38.1704   24.5601   32.4417 H   0  0  0  0  0  0  0  0  0  0  0  0
   38.3156   23.8661   39.6857 H   0  0  0  0  0  0  0  0  0  0  0  0
   37.4199   25.0390   38.6617 H   0  0  0  0  0  0  0  0  0  0  0  0
   36.9505   23.3051   38.6617 H   0  0  0  0  0  0  0  0  0  0  0  0
  1  2  2  0
  3  2  1  0
  3 12  1  0
  4  3  2  0
  5  6  2  0
  5  4  1  0
  6  1  1  0
  7  8  1  0
  7  5  1  0
  9 10  1  0
  9  8  1  0
 11 10  1  0
 11  7  1  0
  1 13  1  0
  2 14  1  0
  7 15  1  0
  8 16  1  0
  8 17  1  0
  9 18  1  0
  9 19  1  0
 10 20  1  0
 10 21  1  0
 11 22  1  0
 11 23  1  0
 12 24  1  0
 12 25  1  0
 12 26  1  0
M  ISO  8  13  14  14  14  15  13  16  13  17  13  18  13  19  13  20  13
M  ISO  6  21  13  22  13  23  13  24   8  25   8  26   8
M  END
>  <minimizedAffinity>  (1) 
-3.49346399

>  <minimizedRMSD>  (1) 
3.3079164

$$$$
