
     RDKit          3D

 25 25  0  0  0  0  0  0  0  0999 V2000
   40.4300   22.1160   36.9070 C   0  0  0  0  0  0  0  0  0  0  0  0
   39.7990   22.8800   37.9170 C   0  0  0  0  0  0  0  0  0  0  0  0
   38.6010   23.5190   37.6050 C   0  0  0  0  0  0  0  0  0  0  0  0
   38.1020   23.3690   36.3350 N   0  0  0  0  0  0  0  0  0  0  0  0
   38.7330   22.6360   35.4110 C   0  0  0  0  0  0  0  0  0  0  0  0
   39.8830   22.0140   35.6870 N   0  0  0  0  0  0  0  0  0  0  0  0
   37.8810   24.3450   38.6290 C   0  0  0  0  0  0  0  0  0  0  0  0
   38.2290   22.4510   34.0370 C   0  0  0  0  0  0  0  0  0  0  0  0
   37.8910   23.7400   33.3470 C   0  0  0  0  0  0  0  0  0  0  0  0
   37.0090   21.5510   34.1360 C   0  0  0  0  0  0  0  0  0  0  0  0
   39.2660   21.6510   33.2740 C   0  0  0  0  0  0  0  0  0  0  0  0
   41.3775   21.6013   37.1245 H   0  0  0  0  0  0  0  0  0  0  0  0
   40.2418   22.9670   38.9202 H   0  0  0  0  0  0  0  0  0  0  0  0
   38.1703   24.0132   39.6371 H   0  0  0  0  0  0  0  0  0  0  0  0
   38.1494   25.4040   38.5005 H   0  0  0  0  0  0  0  0  0  0  0  0
   36.7953   24.2237   38.5005 H   0  0  0  0  0  0  0  0  0  0  0  0
   37.6875   24.5162   34.0994 H   0  0  0  0  0  0  0  0  0  0  0  0
   38.7377   24.0521   32.7179 H   0  0  0  0  0  0  0  0  0  0  0  0
   37.0001   23.5965   32.7179 H   0  0  0  0  0  0  0  0  0  0  0  0
   36.7689   21.3739   35.1948 H   0  0  0  0  0  0  0  0  0  0  0  0
   36.1542   22.0365   33.6424 H   0  0  0  0  0  0  0  0  0  0  0  0
   37.2206   20.5910   33.6424 H   0  0  0  0  0  0  0  0  0  0  0  0
   39.9302   21.1386   33.9855 H   0  0  0  0  0  0  0  0  0  0  0  0
   38.7616   20.9058   32.6414 H   0  0  0  0  0  0  0  0  0  0  0  0
   39.8588   22.3280   32.6414 H   0  0  0  0  0  0  0  0  0  0  0  0
  1  2  2  0
  3  2  1  0
  3  7  1  0
  4  3  2  0
  5  6  2  0
  5  4  1  0
  6  1  1  0
  8 10  1  0
  8  5  1  0
  9  8  1  0
 11  8  1  0
  1 12  1  0
  2 13  1  0
  7 14  1  0
  7 15  1  0
  7 16  1  0
  9 17  1  0
  9 18  1  0
  9 19  1  0
 10 20  1  0
 10 21  1  0
 10 22  1  0
 11 23  1  0
 11 24  1  0
 11 25  1  0
M  ISO  8  12  14  13  14  14   8  15   8  16   8  17   8  18   8  19   8
M  ISO  6  20   8  21   8  22   8  23   8  24   8  25   8
M  END
>  <minimizedAffinity>  (1) 
-3.35028672

>  <minimizedRMSD>  (1) 
0.569782257

$$$$
