
     RDKit          3D

 20 21  0  0  0  0  0  0  0  0999 V2000
   40.3500   22.1420   36.9500 C   0  0  0  0  0  0  0  0  0  0  0  0
   39.8140   22.9840   37.9510 C   0  0  0  0  0  0  0  0  0  0  0  0
   38.5240   23.4810   37.7740 C   0  0  0  0  0  0  0  0  0  0  0  0
   37.8540   23.1240   36.6390 N   0  0  0  0  0  0  0  0  0  0  0  0
   38.3870   22.3250   35.7070 C   0  0  0  0  0  0  0  0  0  0  0  0
   39.6190   21.8390   35.8580 N   0  0  0  0  0  0  0  0  0  0  0  0
   37.9010   24.3750   38.7940 C   0  0  0  0  0  0  0  0  0  0  0  0
   37.6220   21.9560   34.4780 C   0  0  0  0  0  0  0  0  0  0  0  0
   37.7780   22.9180   33.2720 C   0  0  0  0  0  0  0  0  0  0  0  0
   38.2900   21.5200   33.2420 C   0  0  0  0  0  0  0  0  0  0  0  0
   41.3651   21.7332   37.0620 H   0  0  0  0  0  0  0  0  0  0  0  0
   40.3997   23.2402   38.8462 H   0  0  0  0  0  0  0  0  0  0  0  0
   38.1532   24.0131   39.8017 H   0  0  0  0  0  0  0  0  0  0  0  0
   38.2822   25.3989   38.6660 H   0  0  0  0  0  0  0  0  0  0  0  0
   36.8085   24.3719   38.6660 H   0  0  0  0  0  0  0  0  0  0  0  0
   36.8116   21.5222   35.0822 H   0  0  0  0  0  0  0  0  0  0  0  0
   36.9019   23.2021   32.6706 H   0  0  0  0  0  0  0  0  0  0  0  0
   38.2038   23.9192   33.1097 H   0  0  0  0  0  0  0  0  0  0  0  0
   37.7995   20.7780   32.5948 H   0  0  0  0  0  0  0  0  0  0  0  0
   39.2735   21.0767   33.0269 H   0  0  0  0  0  0  0  0  0  0  0  0
  1  2  2  0
  3  2  1  0
  3  7  1  0
  4  3  2  0
  5  6  2  0
  5  4  1  0
  6  1  1  0
  8  5  1  0
  9  8  1  0
 10  9  1  0
 10  8  1  0
  1 11  1  0
  2 12  1  0
  7 13  1  0
  7 14  1  0
  7 15  1  0
  8 16  1  0
  9 17  1  0
  9 18  1  0
 10 19  1  0
 10 20  1  0
M  ISO  8  11  14  12  14  13   8  14   8  15   8  16  13  17  13  18  13
M  ISO  2  19  13  20  13
M  END
>  <minimizedAffinity>  (1) 
-3.20395923

>  <minimizedRMSD>  (1) 
0.508129895

$$$$
