
     RDKit          3D

 32 35  0  0  0  0  0  0  0  0999 V2000
   39.0410   23.1960   34.4500 C   0  0  0  0  0  0  0  0  0  0  0  0
   40.1830   22.5390   34.0300 C   0  0  0  0  0  0  0  0  0  0  0  0
   41.1340   22.0210   34.8770 C   0  0  0  0  0  0  0  0  0  0  0  0
   40.9770   22.1420   36.2400 C   0  0  0  0  0  0  0  0  0  0  0  0
   39.8700   22.7800   36.7080 C   0  0  0  0  0  0  0  0  0  0  0  0
   39.7250   22.8960   38.0780 C   0  0  0  0  0  0  0  0  0  0  0  0
   38.6500   23.5170   38.6330 C   0  0  0  0  0  0  0  0  0  0  0  0
   37.6930   24.0380   37.7570 C   0  0  0  0  0  0  0  0  0  0  0  0
   37.8770   23.9010   36.4030 C   0  0  0  0  0  0  0  0  0  0  0  0
   38.9430   23.2840   35.8270 C   0  0  0  0  0  0  0  0  0  0  0  0
   36.4020   23.0290   32.0200 C   0  0  0  0  0  0  0  0  0  0  0  0
   36.0850   24.3290   31.6400 C   0  0  0  0  0  0  0  0  0  0  0  0
   36.8310   25.3030   32.2630 C   0  0  0  0  0  0  0  0  0  0  0  0
   37.7610   24.9460   33.1480 N   0  0  0  0  0  0  0  0  0  0  0  0
   38.0690   23.7240   33.5160 C   0  0  0  0  0  0  0  0  0  0  0  0
   37.3570   22.7900   32.9190 N   0  0  0  0  0  0  0  0  0  0  0  0
   36.6300   26.6850   31.9870 N   0  0  0  0  0  0  0  0  0  0  0  0
   36.1930   27.2070   30.8260 C   0  0  0  0  0  0  0  0  0  0  0  0
   36.1220   28.5320   30.9130 N   0  0  0  0  0  0  0  0  0  0  0  0
   36.5180   28.8670   32.1470 C   0  0  0  0  0  0  0  0  0  0  0  0
   36.8240   27.7260   32.7870 N   0  0  0  0  0  0  0  0  0  0  0  0
   40.3408   22.4233   32.9476 H   0  0  0  0  0  0  0  0  0  0  0  0
   42.0183   21.5111   34.4671 H   0  0  0  0  0  0  0  0  0  0  0  0
   41.7275   21.7333   36.9326 H   0  0  0  0  0  0  0  0  0  0  0  0
   40.4993   22.4750   38.7362 H   0  0  0  0  0  0  0  0  0  0  0  0
   38.5383   23.6056   39.7237 H   0  0  0  0  0  0  0  0  0  0  0  0
   36.8025   24.5520   38.1480 H   0  0  0  0  0  0  0  0  0  0  0  0
   37.1078   24.3199   35.7375 H   0  0  0  0  0  0  0  0  0  0  0  0
   35.8565   22.1854   31.5720 H   0  0  0  0  0  0  0  0  0  0  0  0
   35.3024   24.5594   30.9022 H   0  0  0  0  0  0  0  0  0  0  0  0
   35.9318   26.6211   29.9324 H   0  0  0  0  0  0  0  0  0  0  0  0
   36.5810   29.8848   32.5594 H   0  0  0  0  0  0  0  0  0  0  0  0
  1 10  1  0
  2  1  2  0
  2  3  1  0
  3  4  2  0
  4  5  1  0
  5  6  2  0
  6  7  1  0
  8  7  2  0
  9  8  1  0
 10  9  2  0
 10  5  1  0
 11 16  2  0
 12 11  1  0
 12 13  2  0
 13 14  1  0
 14 15  2  0
 15  1  1  0
 16 15  1  0
 17 13  1  0
 17 21  1  0
 18 19  2  0
 18 17  1  0
 19 20  1  0
 20 21  2  0
  2 22  1  0
  3 23  1  0
  4 24  1  0
  6 25  1  0
  7 26  1  0
  8 27  1  0
  9 28  1  0
 11 29  1  0
 12 30  1  0
 18 31  1  0
 20 32  1  0
M  ISO  8  22  14  23  14  24  14  25  14  26  14  27  14  28  14  29  14
M  ISO  3  30  14  31  14  32  14
M  END
>  <minimizedAffinity>  (1) 
-5.93199635

>  <minimizedRMSD>  (1) 
6.41462278

$$$$
