
     RDKit          3D

 19 19  0  0  0  0  0  0  0  0999 V2000
   40.3010   22.1510   36.9240 C   0  0  0  0  0  0  0  0  0  0  0  0
   39.7980   23.0030   37.9360 C   0  0  0  0  0  0  0  0  0  0  0  0
   38.4830   23.4850   37.7900 C   0  0  0  0  0  0  0  0  0  0  0  0
   37.7760   23.1060   36.6920 N   0  0  0  0  0  0  0  0  0  0  0  0
   38.2820   22.2960   35.7510 C   0  0  0  0  0  0  0  0  0  0  0  0
   39.5430   21.8280   35.8820 N   0  0  0  0  0  0  0  0  0  0  0  0
   37.8980   24.3940   38.8350 C   0  0  0  0  0  0  0  0  0  0  0  0
   37.4870   21.8950   34.5590 C   0  0  0  0  0  0  0  0  0  0  0  0
   36.2680   21.0740   34.9920 C   0  0  0  0  0  0  0  0  0  0  0  0
   41.3242   21.7545   37.0006 H   0  0  0  0  0  0  0  0  0  0  0  0
   40.4125   23.2789   38.8057 H   0  0  0  0  0  0  0  0  0  0  0  0
   38.1454   24.0095   39.8355 H   0  0  0  0  0  0  0  0  0  0  0  0
   38.3155   25.4048   38.7170 H   0  0  0  0  0  0  0  0  0  0  0  0
   36.8050   24.4327   38.7170 H   0  0  0  0  0  0  0  0  0  0  0  0
   38.1151   21.2887   33.8898 H   0  0  0  0  0  0  0  0  0  0  0  0
   37.1446   22.7987   34.0335 H   0  0  0  0  0  0  0  0  0  0  0  0
   36.2194   21.0413   36.0904 H   0  0  0  0  0  0  0  0  0  0  0  0
   35.3530   21.5406   34.5982 H   0  0  0  0  0  0  0  0  0  0  0  0
   36.3564   20.0507   34.5982 H   0  0  0  0  0  0  0  0  0  0  0  0
  1  2  2  0
  3  2  1  0
  3  7  1  0
  4  3  2  0
  5  6  2  0
  5  4  1  0
  6  1  1  0
  8  9  1  0
  8  5  1  0
  1 10  1  0
  2 11  1  0
  7 12  1  0
  7 13  1  0
  7 14  1  0
  8 15  1  0
  8 16  1  0
  9 17  1  0
  9 18  1  0
  9 19  1  0
M  ISO  8  10  14  11  14  12   8  13   8  14   8  15   8  16   8  17   8
M  ISO  2  18   8  19   8
M  END
>  <minimizedAffinity>  (1) 
-3.02650142

>  <minimizedRMSD>  (1) 
0.552654386

$$$$
