
     RDKit          3D

 16 16  0  0  0  0  0  0  0  0999 V2000
   40.3970   22.1440   36.9780 C   0  0  0  0  0  0  0  0  0  0  0  0
   39.8460   22.9680   37.9620 C   0  0  0  0  0  0  0  0  0  0  0  0
   38.5590   23.4730   37.7790 C   0  0  0  0  0  0  0  0  0  0  0  0
   37.9060   23.1310   36.6370 N   0  0  0  0  0  0  0  0  0  0  0  0
   38.4560   22.3340   35.6990 C   0  0  0  0  0  0  0  0  0  0  0  0
   39.6890   21.8490   35.8740 N   0  0  0  0  0  0  0  0  0  0  0  0
   37.9040   24.3650   38.7940 C   0  0  0  0  0  0  0  0  0  0  0  0
   37.7050   21.9860   34.4650 C   0  0  0  0  0  0  0  0  0  0  0  0
   41.4106   21.7363   37.1065 H   0  0  0  0  0  0  0  0  0  0  0  0
   40.4188   23.2150   38.8680 H   0  0  0  0  0  0  0  0  0  0  0  0
   38.1590   24.0178   39.8061 H   0  0  0  0  0  0  0  0  0  0  0  0
   38.2605   25.3969   38.6597 H   0  0  0  0  0  0  0  0  0  0  0  0
   36.8127   24.3337   38.6597 H   0  0  0  0  0  0  0  0  0  0  0  0
   36.7382   21.5380   34.7382 H   0  0  0  0  0  0  0  0  0  0  0  0
   37.5328   22.8961   33.8716 H   0  0  0  0  0  0  0  0  0  0  0  0
   38.2880   21.2663   33.8716 H   0  0  0  0  0  0  0  0  0  0  0  0
  1  2  2  0
  3  2  1  0
  3  7  1  0
  4  3  2  0
  5  6  2  0
  5  4  1  0
  6  1  1  0
  8  5  1  0
  1  9  1  0
  2 10  1  0
  7 11  1  0
  7 12  1  0
  7 13  1  0
  8 14  1  0
  8 15  1  0
  8 16  1  0
M  ISO  8   9  14  10  14  11   8  12   8  13   8  14   8  15   8  16   8
M  END
>  <minimizedAffinity>  (1) 
-2.97864413

>  <minimizedRMSD>  (1) 
0.367032886

$$$$
