
     RDKit          3D

 14 14  0  0  0  0  0  0  0  0999 V2000
   40.4850   22.1470   37.0740 C   0  0  0  0  0  0  0  0  0  0  0  0
   39.8690   22.9730   38.0250 C   0  0  0  0  0  0  0  0  0  0  0  0
   38.5880   23.4650   37.7700 C   0  0  0  0  0  0  0  0  0  0  0  0
   37.9900   23.1100   36.5890 N   0  0  0  0  0  0  0  0  0  0  0  0
   38.6110   22.3140   35.6950 C   0  0  0  0  0  0  0  0  0  0  0  0
   39.8380   21.8420   35.9370 N   0  0  0  0  0  0  0  0  0  0  0  0
   37.9000   24.3470   38.7590 C   0  0  0  0  0  0  0  0  0  0  0  0
   37.6480   21.9750   34.2130 S   0  0  0  0  0  0  0  0  0  0  0  0
   41.4943   21.7503   37.2583 H   0  0  0  0  0  0  0  0  0  0  0  0
   40.3886   23.2299   38.9599 H   0  0  0  0  0  0  0  0  0  0  0  0
   38.1536   24.0219   39.7788 H   0  0  0  0  0  0  0  0  0  0  0  0
   38.2280   25.3868   38.6134 H   0  0  0  0  0  0  0  0  0  0  0  0
   36.8116   24.2820   38.6134 H   0  0  0  0  0  0  0  0  0  0  0  0
   36.4003   21.5358   34.5697 H   0  0  0  0  0  0  0  0  0  0  0  0
  1  2  2  0
  3  2  1  0
  3  7  1  0
  4  3  2  0
  5  6  2  0
  5  4  1  0
  6  1  1  0
  8  5  1  0
  1  9  1  0
  2 10  1  0
  7 11  1  0
  7 12  1  0
  7 13  1  0
  8 14  1  0
M  ISO  6   9  14  10  14  11   8  12   8  13   8  14  11
M  END
>  <minimizedAffinity>  (1) 
-2.96432543

>  <minimizedRMSD>  (1) 
0.24505198

$$$$
