
     RDKit          3D

 36 38  0  0  0  0  0  0  0  0999 V2000
   39.5370   22.7110   36.6440 C   0  0  0  0  0  0  0  0  0  0  0  0
   39.3270   24.0820   36.7490 C   0  0  0  0  0  0  0  0  0  0  0  0
   38.3810   24.6840   35.9290 C   0  0  0  0  0  0  0  0  0  0  0  0
   37.6910   23.9020   35.0460 N   0  0  0  0  0  0  0  0  0  0  0  0
   37.9200   22.5690   34.9690 C   0  0  0  0  0  0  0  0  0  0  0  0
   38.8360   21.9880   35.7640 N   0  0  0  0  0  0  0  0  0  0  0  0
   37.1820   21.7430   34.0280 C   0  0  0  0  0  0  0  0  0  0  0  0
   36.1220   20.9820   34.5490 C   0  0  0  0  0  0  0  0  0  0  0  0
   35.5750   20.2830   33.4660 C   0  0  0  0  0  0  0  0  0  0  0  0
   36.3360   20.6650   32.3660 C   0  0  0  0  0  0  0  0  0  0  0  0
   37.2430   21.5070   32.7620 O   0  0  0  0  0  0  0  0  0  0  0  0
   38.1200   26.1480   36.0070 C   0  0  0  0  0  0  0  0  0  0  0  0
   38.8580   26.8990   34.9180 C   0  0  0  0  0  0  0  0  0  0  0  0
   40.3230   26.5570   35.0330 C   0  0  0  0  0  0  0  0  0  0  0  0
   41.0000   26.3520   33.7040 C   0  0  0  0  0  0  0  0  0  0  0  0
   40.4700   27.2060   32.5990 C   0  0  0  0  0  0  0  0  0  0  0  0
   38.9740   27.1850   32.4530 C   0  0  0  0  0  0  0  0  0  0  0  0
   38.4020   26.3540   33.5800 C   0  0  0  0  0  0  0  0  0  0  0  0
   40.2822   22.2198   37.2870 H   0  0  0  0  0  0  0  0  0  0  0  0
   39.9017   24.6808   37.4709 H   0  0  0  0  0  0  0  0  0  0  0  0
   35.7889   20.9432   35.5966 H   0  0  0  0  0  0  0  0  0  0  0  0
   34.7267   19.5829   33.4817 H   0  0  0  0  0  0  0  0  0  0  0  0
   36.1937   20.3131   31.3336 H   0  0  0  0  0  0  0  0  0  0  0  0
   37.0402   26.3256   35.8957 H   0  0  0  0  0  0  0  0  0  0  0  0
   38.4766   26.5121   36.9818 H   0  0  0  0  0  0  0  0  0  0  0  0
   38.6754   27.9802   35.0060 H   0  0  0  0  0  0  0  0  0  0  0  0
   40.8316   27.3782   35.5594 H   0  0  0  0  0  0  0  0  0  0  0  0
   40.3901   25.6048   35.5796 H   0  0  0  0  0  0  0  0  0  0  0  0
   42.0704   26.5739   33.8262 H   0  0  0  0  0  0  0  0  0  0  0  0
   40.8067   25.3090   33.4127 H   0  0  0  0  0  0  0  0  0  0  0  0
   40.7815   28.2439   32.7882 H   0  0  0  0  0  0  0  0  0  0  0  0
   40.8798   26.7955   31.6644 H   0  0  0  0  0  0  0  0  0  0  0  0
   38.5798   28.2104   32.5089 H   0  0  0  0  0  0  0  0  0  0  0  0
   38.6926   26.7533   31.4812 H   0  0  0  0  0  0  0  0  0  0  0  0
   37.3035   26.3835   33.5314 H   0  0  0  0  0  0  0  0  0  0  0  0
   38.7558   25.3176   33.4761 H   0  0  0  0  0  0  0  0  0  0  0  0
  1  2  2  0
  3 12  1  0
  3  2  1  0
  4  3  2  0
  5  4  1  0
  5  6  2  0
  6  1  1  0
  7  8  2  0
  7  5  1  0
  9  8  1  0
 10 11  1  0
 10  9  2  0
 11  7  1  0
 13 14  1  0
 13 12  1  0
 15 14  1  0
 16 15  1  0
 17 16  1  0
 17 18  1  0
 18 13  1  0
  1 19  1  0
  2 20  1  0
  8 21  1  0
  9 22  1  0
 10 23  1  0
 12 24  1  0
 12 25  1  0
 13 26  1  0
 14 27  1  0
 14 28  1  0
 15 29  1  0
 15 30  1  0
 16 31  1  0
 16 32  1  0
 17 33  1  0
 17 34  1  0
 18 35  1  0
 18 36  1  0
M  ISO  8  19  14  20  14  21  14  22  14  23  14  24   8  25   8  26  13
M  ISO  8  27  13  28  13  29  13  30  13  31  13  32  13  33  13  34  13
M  ISO  2  35  13  36  13
M  END
>  <minimizedAffinity>  (1) 
-4.45804024

>  <minimizedRMSD>  (1) 
2.57922816

$$$$
