
     RDKit          3D

 27 29  0  0  0  0  0  0  0  0999 V2000
   39.6840   22.3010   33.9820 C   0  0  0  0  0  0  0  0  0  0  0  0
   39.2140   22.7530   35.2210 C   0  0  0  0  0  0  0  0  0  0  0  0
   37.8960   22.4560   35.6000 C   0  0  0  0  0  0  0  0  0  0  0  0
   37.1480   21.7400   34.7280 N   0  0  0  0  0  0  0  0  0  0  0  0
   37.6180   21.3150   33.5400 C   0  0  0  0  0  0  0  0  0  0  0  0
   38.8670   21.5910   33.1740 N   0  0  0  0  0  0  0  0  0  0  0  0
   36.7730   20.5490   32.6440 C   0  0  0  0  0  0  0  0  0  0  0  0
   35.5200   20.1330   33.1220 C   0  0  0  0  0  0  0  0  0  0  0  0
   34.8940   19.4220   32.0970 C   0  0  0  0  0  0  0  0  0  0  0  0
   35.8120   19.4520   31.0540 C   0  0  0  0  0  0  0  0  0  0  0  0
   36.8860   20.1170   31.4220 O   0  0  0  0  0  0  0  0  0  0  0  0
   37.3950   22.9330   36.9100 C   0  0  0  0  0  0  0  0  0  0  0  0
   38.3880   23.8920   37.5580 C   0  0  0  0  0  0  0  0  0  0  0  0
   37.9340   24.6460   38.7400 C   0  0  0  0  0  0  0  0  0  0  0  0
   38.8970   23.5390   38.9320 C   0  0  0  0  0  0  0  0  0  0  0  0
   40.7145   22.5232   33.6678 H   0  0  0  0  0  0  0  0  0  0  0  0
   39.8688   23.3329   35.8880 H   0  0  0  0  0  0  0  0  0  0  0  0
   35.1070   20.3313   34.1221 H   0  0  0  0  0  0  0  0  0  0  0  0
   33.9019   18.9470   32.1114 H   0  0  0  0  0  0  0  0  0  0  0  0
   35.6629   18.9887   30.0675 H   0  0  0  0  0  0  0  0  0  0  0  0
   36.4372   23.4531   36.7612 H   0  0  0  0  0  0  0  0  0  0  0  0
   37.2629   22.0647   37.5722 H   0  0  0  0  0  0  0  0  0  0  0  0
   38.8520   24.1544   36.5958 H   0  0  0  0  0  0  0  0  0  0  0  0
   38.2619   25.6862   38.8834 H   0  0  0  0  0  0  0  0  0  0  0  0
   36.9495   24.8920   39.1645 H   0  0  0  0  0  0  0  0  0  0  0  0
   38.5759   22.6054   39.4171 H   0  0  0  0  0  0  0  0  0  0  0  0
   39.8885   23.4356   39.3970 H   0  0  0  0  0  0  0  0  0  0  0  0
  1  2  2  0
  2  3  1  0
  3 12  1  0
  4  3  2  0
  5  4  1  0
  6  5  2  0
  6  1  1  0
  7  8  2  0
  7  5  1  0
  9  8  1  0
 10 11  1  0
 10  9  2  0
 11  7  1  0
 12 13  1  0
 13 14  1  0
 13 15  1  0
 14 15  1  0
  1 16  1  0
  2 17  1  0
  8 18  1  0
  9 19  1  0
 10 20  1  0
 12 21  1  0
 12 22  1  0
 13 23  1  0
 14 24  1  0
 14 25  1  0
 15 26  1  0
 15 27  1  0
M  ISO  8  16  14  17  14  18  14  19  14  20  14  21   8  22   8  23  13
M  ISO  4  24  13  25  13  26  13  27  13
M  END
>  <minimizedAffinity>  (1) 
-4.09306526

>  <minimizedRMSD>  (1) 
2.67718983

$$$$
