
     RDKit          3D

 27 28  0  0  0  0  0  0  0  0999 V2000
   36.7940   21.5020   33.4200 C   0  0  0  0  0  0  0  0  0  0  0  0
   36.9710   22.5080   32.4710 C   0  0  0  0  0  0  0  0  0  0  0  0
   37.6270   23.6940   32.8380 C   0  0  0  0  0  0  0  0  0  0  0  0
   38.0580   23.7900   34.1190 N   0  0  0  0  0  0  0  0  0  0  0  0
   37.8700   22.7930   35.0200 C   0  0  0  0  0  0  0  0  0  0  0  0
   37.2510   21.6690   34.6820 N   0  0  0  0  0  0  0  0  0  0  0  0
   38.3580   22.9600   36.3840 C   0  0  0  0  0  0  0  0  0  0  0  0
   39.6870   22.6090   36.6470 C   0  0  0  0  0  0  0  0  0  0  0  0
   39.9210   22.8510   37.9930 C   0  0  0  0  0  0  0  0  0  0  0  0
   38.7100   23.3390   38.4760 C   0  0  0  0  0  0  0  0  0  0  0  0
   37.8240   23.3860   37.5010 O   0  0  0  0  0  0  0  0  0  0  0  0
   37.8240   24.7770   31.8360 C   0  0  0  0  0  0  0  0  0  0  0  0
   39.1040   25.4000   32.1110 N   0  0  0  0  0  0  0  0  0  0  0  0
   39.1160   26.7680   32.4740 C   0  0  0  0  0  0  0  0  0  0  0  0
   38.1230   27.5780   32.3050 N   0  0  0  0  0  0  0  0  0  0  0  0
   40.3060   27.2780   33.0630 N   0  0  0  0  0  0  0  0  0  0  0  0
   37.2190   27.2890   31.8830 H   0  0  0  0  0  0  0  0  0  0  0  0
   36.2811   20.5696   33.1415 H   0  0  0  0  0  0  0  0  0  0  0  0
   36.6001   22.3738   31.4441 H   0  0  0  0  0  0  0  0  0  0  0  0
   40.4124   22.2140   35.9205 H   0  0  0  0  0  0  0  0  0  0  0  0
   40.8544   22.6927   38.5531 H   0  0  0  0  0  0  0  0  0  0  0  0
   38.5205   23.6406   39.5167 H   0  0  0  0  0  0  0  0  0  0  0  0
   37.0182   25.5206   31.9238 H   0  0  0  0  0  0  0  0  0  0  0  0
   37.8046   24.3676   30.8152 H   0  0  0  0  0  0  0  0  0  0  0  0
   39.9799   24.8622   32.0441 H   0  0  0  0  0  0  0  0  0  0  0  0
   40.3589   28.2679   33.3426 H   0  0  0  0  0  0  0  0  0  0  0  0
   41.1148   26.6574   33.2099 H   0  0  0  0  0  0  0  0  0  0  0  0
  1  6  2  0
  2  3  2  0
  2  1  1  0
  3  4  1  0
  4  5  2  0
  5  7  1  0
  6  5  1  0
  7  8  2  0
  7 11  1  0
  8  9  1  0
  9 10  2  0
 11 10  1  0
 12 13  1  0
 12  3  1  0
 13 14  1  0
 14 16  1  0
 15 14  2  0
 17 15  1  0
  1 18  1  0
  2 19  1  0
  8 20  1  0
  9 21  1  0
 10 22  1  0
 12 23  1  0
 12 24  1  0
 13 25  1  0
 16 26  1  0
 16 27  1  0
M  ISO  7  18  14  19  14  20  14  21  14  22  14  23   8  24   8
M  END
>  <minimizedAffinity>  (1) 
-3.74542284

>  <minimizedRMSD>  (1) 
6.13945532

$$$$
