
     RDKit          3D

 22 23  0  0  0  0  0  0  0  0999 V2000
   40.6350   22.4810   35.4830 C   0  0  0  0  0  0  0  0  0  0  0  0
   40.3660   22.8860   36.7850 C   0  0  0  0  0  0  0  0  0  0  0  0
   39.0290   22.9320   37.2250 C   0  0  0  0  0  0  0  0  0  0  0  0
   38.0690   22.5710   36.3350 N   0  0  0  0  0  0  0  0  0  0  0  0
   38.3790   22.1790   35.0640 C   0  0  0  0  0  0  0  0  0  0  0  0
   39.6380   22.1360   34.6480 N   0  0  0  0  0  0  0  0  0  0  0  0
   37.2970   21.8070   34.1550 C   0  0  0  0  0  0  0  0  0  0  0  0
   36.3250   20.9320   34.6070 C   0  0  0  0  0  0  0  0  0  0  0  0
   35.4180   20.7360   33.5720 C   0  0  0  0  0  0  0  0  0  0  0  0
   35.9100   21.5220   32.5340 C   0  0  0  0  0  0  0  0  0  0  0  0
   37.0140   22.1340   32.9190 O   0  0  0  0  0  0  0  0  0  0  0  0
   38.7010   23.3590   38.6080 C   0  0  0  0  0  0  0  0  0  0  0  0
   37.9180   24.5900   38.4590 N   0  0  0  0  0  0  0  0  0  0  0  0
   41.6763   22.4420   35.1307 H   0  0  0  0  0  0  0  0  0  0  0  0
   41.1860   23.1667   37.4624 H   0  0  0  0  0  0  0  0  0  0  0  0
   36.2784   20.4738   35.6059 H   0  0  0  0  0  0  0  0  0  0  0  0
   34.5175   20.1043   33.5731 H   0  0  0  0  0  0  0  0  0  0  0  0
   35.4475   21.6187   31.5407 H   0  0  0  0  0  0  0  0  0  0  0  0
   38.1091   22.5857   39.1196 H   0  0  0  0  0  0  0  0  0  0  0  0
   39.6059   23.5199   39.2124 H   0  0  0  0  0  0  0  0  0  0  0  0
   37.6817   24.9614   39.3902 H   0  0  0  0  0  0  0  0  0  0  0  0
   38.4708   25.2879   37.9411 H   0  0  0  0  0  0  0  0  0  0  0  0
  1  2  2  0
  2  3  1  0
  3 12  1  0
  4  3  2  0
  5  4  1  0
  6  5  2  0
  6  1  1  0
  7  8  2  0
  7  5  1  0
  9  8  1  0
 10 11  1  0
 10  9  2  0
 11  7  1  0
 13 12  1  0
  1 14  1  0
  2 15  1  0
  8 16  1  0
  9 17  1  0
 10 18  1  0
 12 19  1  0
 12 20  1  0
 13 21  1  0
 13 22  1  0
M  ISO  8  14  14  15  14  16  14  17  14  18  14  19   8  20   8  21   5
M  ISO  1  22   5
M  END
>  <minimizedAffinity>  (1) 
-3.63917232

>  <minimizedRMSD>  (1) 
1.03310382

$$$$
