
     RDKit          3D

 29 31  0  0  0  0  0  0  0  0999 V2000
   40.1140   21.9310   34.3490 C   0  0  0  0  0  0  0  0  0  0  0  0
   39.8100   22.4770   35.6050 C   0  0  0  0  0  0  0  0  0  0  0  0
   38.4500   22.6570   35.9630 C   0  0  0  0  0  0  0  0  0  0  0  0
   37.5240   22.2840   35.0560 N   0  0  0  0  0  0  0  0  0  0  0  0
   37.8720   21.7560   33.8440 C   0  0  0  0  0  0  0  0  0  0  0  0
   39.1260   21.5820   33.4940 N   0  0  0  0  0  0  0  0  0  0  0  0
   36.7900   21.3800   32.9170 C   0  0  0  0  0  0  0  0  0  0  0  0
   35.7080   20.6980   33.3990 C   0  0  0  0  0  0  0  0  0  0  0  0
   34.8430   20.4680   32.3370 C   0  0  0  0  0  0  0  0  0  0  0  0
   35.4780   21.0450   31.2460 C   0  0  0  0  0  0  0  0  0  0  0  0
   36.6250   21.5740   31.6250 O   0  0  0  0  0  0  0  0  0  0  0  0
   38.1410   23.2440   37.2750 C   0  0  0  0  0  0  0  0  0  0  0  0
   38.3410   24.6880   37.1040 N   0  0  0  0  0  0  0  0  0  0  0  0
   38.0070   25.5860   36.0830 C   0  0  0  0  0  0  0  0  0  0  0  0
   38.3650   26.9010   36.3610 C   0  0  0  0  0  0  0  0  0  0  0  0
   37.9930   27.6960   35.3220 N   0  0  0  0  0  0  0  0  0  0  0  0
   37.4080   26.8700   34.4110 C   0  0  0  0  0  0  0  0  0  0  0  0
   37.4140   25.6050   34.8630 N   0  0  0  0  0  0  0  0  0  0  0  0
   41.1646   21.7856   34.0572 H   0  0  0  0  0  0  0  0  0  0  0  0
   40.6135   22.7608   36.3006 H   0  0  0  0  0  0  0  0  0  0  0  0
   35.5504   20.3867   34.4422 H   0  0  0  0  0  0  0  0  0  0  0  0
   33.8745   19.9468   32.3562 H   0  0  0  0  0  0  0  0  0  0  0  0
   35.0837   21.0589   30.2192 H   0  0  0  0  0  0  0  0  0  0  0  0
   37.1002   23.0291   37.5588 H   0  0  0  0  0  0  0  0  0  0  0  0
   38.7773   22.8311   38.0716 H   0  0  0  0  0  0  0  0  0  0  0  0
   38.8262   25.1313   37.8971 H   0  0  0  0  0  0  0  0  0  0  0  0
   38.8693   27.2438   37.2765 H   0  0  0  0  0  0  0  0  0  0  0  0
   36.9911   27.1919   33.4453 H   0  0  0  0  0  0  0  0  0  0  0  0
   37.0325   24.7870   34.3667 H   0  0  0  0  0  0  0  0  0  0  0  0
  1  2  2  0
  2  3  1  0
  3 12  1  0
  4  3  2  0
  5  4  1  0
  6  5  2  0
  6  1  1  0
  7  8  2  0
  7  5  1  0
  9  8  1  0
 10 11  1  0
 10  9  2  0
 11  7  1  0
 13 12  1  0
 14 15  2  0
 14 13  1  0
 16 15  1  0
 17 18  1  0
 17 16  2  0
 18 14  1  0
  1 19  1  0
  2 20  1  0
  8 21  1  0
  9 22  1  0
 10 23  1  0
 12 24  1  0
 12 25  1  0
 13 26  1  0
 15 27  1  0
 17 28  1  0
 18 29  1  0
M  ISO  8  19  14  20  14  21  14  22  14  23  14  24   8  25   8  27  14
M  ISO  2  28  14  29   9
M  END
>  <minimizedAffinity>  (1) 
-4.21610498

>  <minimizedRMSD>  (1) 
2.21370745

$$$$
