
     RDKit          3D

 34 35  0  0  0  0  0  0  0  0999 V2000
   38.0640   22.5770   35.9250 C   0  0  0  0  0  0  0  0  0  0  0  0
   38.4290   23.8360   35.5020 C   0  0  0  0  0  0  0  0  0  0  0  0
   38.1800   24.2380   34.1770 C   0  0  0  0  0  0  0  0  0  0  0  0
   37.5750   23.3250   33.3680 N   0  0  0  0  0  0  0  0  0  0  0  0
   37.2250   22.0840   33.8180 C   0  0  0  0  0  0  0  0  0  0  0  0
   37.4690   21.7250   35.0740 N   0  0  0  0  0  0  0  0  0  0  0  0
   36.5790   21.1540   32.8990 C   0  0  0  0  0  0  0  0  0  0  0  0
   35.5650   20.3560   33.3690 C   0  0  0  0  0  0  0  0  0  0  0  0
   35.1140   19.5630   32.3160 C   0  0  0  0  0  0  0  0  0  0  0  0
   35.9190   19.9500   31.2370 C   0  0  0  0  0  0  0  0  0  0  0  0
   36.7570   20.8810   31.6320 O   0  0  0  0  0  0  0  0  0  0  0  0
   38.5590   25.5770   33.6960 C   0  0  0  0  0  0  0  0  0  0  0  0
   37.9110   25.7400   32.4010 N   0  0  0  0  0  0  0  0  0  0  0  0
   37.1480   26.9550   32.3110 C   0  0  0  0  0  0  0  0  0  0  0  0
   38.0210   27.8970   31.4680 C   0  0  0  0  0  0  0  0  0  0  0  0
   36.9680   27.6460   33.6470 C   0  0  0  0  0  0  0  0  0  0  0  0
   35.8630   26.8490   31.5840 C   0  0  0  0  0  0  0  0  0  0  0  0
   38.2603   22.2685   36.9624 H   0  0  0  0  0  0  0  0  0  0  0  0
   38.9169   24.5296   36.2027 H   0  0  0  0  0  0  0  0  0  0  0  0
   35.1764   20.3448   34.3980 H   0  0  0  0  0  0  0  0  0  0  0  0
   34.3130   18.8092   32.3289 H   0  0  0  0  0  0  0  0  0  0  0  0
   35.8588   19.5387   30.2186 H   0  0  0  0  0  0  0  0  0  0  0  0
   38.2086   26.3480   34.3979 H   0  0  0  0  0  0  0  0  0  0  0  0
   39.6511   25.6804   33.6146 H   0  0  0  0  0  0  0  0  0  0  0  0
   38.6356   25.7511   31.6691 H   0  0  0  0  0  0  0  0  0  0  0  0
   38.6162   28.5392   32.1338 H   0  0  0  0  0  0  0  0  0  0  0  0
   38.6947   27.3026   30.8333 H   0  0  0  0  0  0  0  0  0  0  0  0
   37.3772   28.5236   30.8333 H   0  0  0  0  0  0  0  0  0  0  0  0
   37.1550   26.9281   34.4592 H   0  0  0  0  0  0  0  0  0  0  0  0
   37.6783   28.4822   33.7259 H   0  0  0  0  0  0  0  0  0  0  0  0
   35.9400   28.0294   33.7259 H   0  0  0  0  0  0  0  0  0  0  0  0
   35.0370   26.7809   32.3073 H   0  0  0  0  0  0  0  0  0  0  0  0
   35.7247   27.7388   30.9522 H   0  0  0  0  0  0  0  0  0  0  0  0
   35.8723   25.9486   30.9522 H   0  0  0  0  0  0  0  0  0  0  0  0
  2  1  2  0
  3  2  1  0
  4  5  1  0
  4  3  2  0
  5  6  2  0
  6  1  1  0
  7  8  2  0
  7  5  1  0
  9  8  1  0
 10 11  1  0
 10  9  2  0
 11  7  1  0
 12  3  1  0
 13 12  1  0
 14 13  1  0
 14 16  1  0
 15 14  1  0
 17 14  1  0
  1 18  1  0
  2 19  1  0
  8 20  1  0
  9 21  1  0
 10 22  1  0
 12 23  1  0
 12 24  1  0
 13 25  1  0
 15 26  1  0
 15 27  1  0
 15 28  1  0
 16 29  1  0
 16 30  1  0
 16 31  1  0
 17 32  1  0
 17 33  1  0
 17 34  1  0
M  ISO  8  18  14  19  14  20  14  21  14  22  14  23   8  24   8  25   5
M  ISO  8  26   8  27   8  28   8  29   8  30   8  31   8  32   8  33   8
M  ISO  1  34   8
M  END
>  <minimizedAffinity>  (1) 
-3.94939542

>  <minimizedRMSD>  (1) 
4.81281233

$$$$
