
     RDKit          3D

 42 44  0  0  0  0  0  0  0  0999 V2000
   38.0770   24.5410   33.6900 C   0  0  0  0  0  0  0  0  0  0  0  0
   35.4670   24.8740   31.0140 C   0  0  0  0  0  0  0  0  0  0  0  0
   36.3470   24.2980   31.9410 C   0  0  0  0  0  0  0  0  0  0  0  0
   37.1530   25.1360   32.7180 C   0  0  0  0  0  0  0  0  0  0  0  0
   37.0240   26.4530   32.5190 N   0  0  0  0  0  0  0  0  0  0  0  0
   36.1520   26.9880   31.6020 C   0  0  0  0  0  0  0  0  0  0  0  0
   35.3950   26.2110   30.8710 N   0  0  0  0  0  0  0  0  0  0  0  0
   36.0840   28.4340   31.4590 C   0  0  0  0  0  0  0  0  0  0  0  0
   35.9740   29.2290   32.5650 C   0  0  0  0  0  0  0  0  0  0  0  0
   35.9290   30.5540   32.1740 C   0  0  0  0  0  0  0  0  0  0  0  0
   36.0170   30.4910   30.7980 C   0  0  0  0  0  0  0  0  0  0  0  0
   36.1050   29.2450   30.4360 O   0  0  0  0  0  0  0  0  0  0  0  0
   37.7430   25.1140   34.9870 N   0  0  0  0  0  0  0  0  0  0  0  0
   38.3700   24.0630   36.1940 S   0  0  0  0  0  0  0  0  0  0  0  0
   38.1180   24.5700   37.5730 O   0  0  0  0  0  0  0  0  0  0  0  0
   37.7230   22.7290   36.0360 O   0  0  0  0  0  0  0  0  0  0  0  0
   40.1230   23.8900   35.8930 C   0  0  0  0  0  0  0  0  0  0  0  0
   40.4340   22.4960   36.1270 N   0  0  0  0  0  0  0  0  0  0  0  0
   40.8940   22.2280   37.4460 C   0  0  0  0  0  0  0  0  0  0  0  0
   41.8830   21.0620   37.3880 C   0  0  0  0  0  0  0  0  0  0  0  0
   43.0360   21.4520   36.6020 N   0  0  0  0  0  0  0  0  0  0  0  0
   42.6760   22.1130   35.3830 C   0  0  0  0  0  0  0  0  0  0  0  0
   41.2230   21.8960   35.0890 C   0  0  0  0  0  0  0  0  0  0  0  0
   39.1162   24.7844   33.4239 H   0  0  0  0  0  0  0  0  0  0  0  0
   37.9850   23.4450   33.7051 H   0  0  0  0  0  0  0  0  0  0  0  0
   34.8278   24.2261   30.3962 H   0  0  0  0  0  0  0  0  0  0  0  0
   36.4025   23.2054   32.0552 H   0  0  0  0  0  0  0  0  0  0  0  0
   35.9284   28.8706   33.6040 H   0  0  0  0  0  0  0  0  0  0  0  0
   35.8433   31.4478   32.8095 H   0  0  0  0  0  0  0  0  0  0  0  0
   36.0133   31.3552   30.1174 H   0  0  0  0  0  0  0  0  0  0  0  0
   38.1679   26.0478   35.0787 H   0  0  0  0  0  0  0  0  0  0  0  0
   40.6938   24.5296   36.5823 H   0  0  0  0  0  0  0  0  0  0  0  0
   40.3874   24.1948   34.8697 H   0  0  0  0  0  0  0  0  0  0  0  0
   41.3945   23.1192   37.8526 H   0  0  0  0  0  0  0  0  0  0  0  0
   40.0449   21.9699   38.0960 H   0  0  0  0  0  0  0  0  0  0  0  0
   42.2041   20.8012   38.4073 H   0  0  0  0  0  0  0  0  0  0  0  0
   41.3985   20.1900   36.9246 H   0  0  0  0  0  0  0  0  0  0  0  0
   43.6172   22.0904   37.1638 H   0  0  0  0  0  0  0  0  0  0  0  0
   42.8699   23.1912   35.4829 H   0  0  0  0  0  0  0  0  0  0  0  0
   43.2756   21.6995   34.5587 H   0  0  0  0  0  0  0  0  0  0  0  0
   40.9708   22.3572   34.1227 H   0  0  0  0  0  0  0  0  0  0  0  0
   41.0134   20.8171   35.0440 H   0  0  0  0  0  0  0  0  0  0  0  0
  1 13  1  0
  2  3  2  0
  3  4  1  0
  4  1  1  0
  5  4  2  0
  6  5  1  0
  7  2  1  0
  7  6  2  0
  8  6  1  0
  8  9  2  0
 10  9  1  0
 11 10  2  0
 12 11  1  0
 12  8  1  0
 13 14  1  0
 14 15  2  0
 16 14  2  0
 17 18  1  0
 17 14  1  0
 18 19  1  0
 20 19  1  0
 21 20  1  0
 22 21  1  0
 23 22  1  0
 23 18  1  0
  1 24  1  0
  1 25  1  0
  2 26  1  0
  3 27  1  0
  9 28  1  0
 10 29  1  0
 11 30  1  0
 13 31  1  0
 17 32  1  0
 17 33  1  0
 19 34  1  0
 19 35  1  0
 20 36  1  0
 20 37  1  0
 21 38  1  0
 22 39  1  0
 22 40  1  0
 23 41  1  0
 23 42  1  0
M  ISO  8  24   8  25   8  26  14  27  14  28  14  29  14  30  14  31   5
M  ISO  8  32   8  33   8  34  13  35  13  36  13  37  13  38   5  39  13
M  ISO  3  40  13  41  13  42  13
M  END
>  <minimizedAffinity>  (1) 
-4.62774944

>  <minimizedRMSD>  (1) 
8.14319611

$$$$
