
     RDKit          3D

 35 37  0  0  0  0  0  0  0  0999 V2000
   38.0080   22.8390   36.5520 C   0  0  0  0  0  0  0  0  0  0  0  0
   38.5150   24.0410   36.0440 C   0  0  0  0  0  0  0  0  0  0  0  0
   38.4640   24.2820   34.6730 C   0  0  0  0  0  0  0  0  0  0  0  0
   37.9200   23.3250   33.9030 N   0  0  0  0  0  0  0  0  0  0  0  0
   37.4310   22.1560   34.4290 C   0  0  0  0  0  0  0  0  0  0  0  0
   37.4750   21.9220   35.7160 N   0  0  0  0  0  0  0  0  0  0  0  0
   36.8550   21.1650   33.5270 C   0  0  0  0  0  0  0  0  0  0  0  0
   35.6480   20.5790   33.8350 C   0  0  0  0  0  0  0  0  0  0  0  0
   35.3160   19.6880   32.8430 C   0  0  0  0  0  0  0  0  0  0  0  0
   36.3750   19.7780   31.9480 C   0  0  0  0  0  0  0  0  0  0  0  0
   37.2440   20.6520   32.3920 O   0  0  0  0  0  0  0  0  0  0  0  0
   38.9960   25.5460   34.1360 C   0  0  0  0  0  0  0  0  0  0  0  0
   37.8440   26.4240   33.9820 N   0  0  0  0  0  0  0  0  0  0  0  0
   37.9100   27.0700   32.3870 S   0  0  0  0  0  0  0  0  0  0  0  0
   37.1440   28.3420   32.2500 O   0  0  0  0  0  0  0  0  0  0  0  0
   39.3340   27.3370   32.0330 O   0  0  0  0  0  0  0  0  0  0  0  0
   37.2700   25.8170   31.2890 C   0  0  0  0  0  0  0  0  0  0  0  0
   35.9460   25.2890   31.7210 C   0  0  0  0  0  0  0  0  0  0  0  0
   35.5700   23.9010   31.1800 C   0  0  0  0  0  0  0  0  0  0  0  0
   34.8220   25.1150   30.7710 C   0  0  0  0  0  0  0  0  0  0  0  0
   38.0438   22.6412   37.6335 H   0  0  0  0  0  0  0  0  0  0  0  0
   38.9504   24.7895   36.7224 H   0  0  0  0  0  0  0  0  0  0  0  0
   35.0461   20.7901   34.7312 H   0  0  0  0  0  0  0  0  0  0  0  0
   34.4211   19.0521   32.7736 H   0  0  0  0  0  0  0  0  0  0  0  0
   36.4689   19.2054   31.0135 H   0  0  0  0  0  0  0  0  0  0  0  0
   39.7220   25.9849   34.8362 H   0  0  0  0  0  0  0  0  0  0  0  0
   39.5206   25.3930   33.1814 H   0  0  0  0  0  0  0  0  0  0  0  0
   36.9728   25.8899   34.1112 H   0  0  0  0  0  0  0  0  0  0  0  0
   37.9859   24.9826   31.2534 H   0  0  0  0  0  0  0  0  0  0  0  0
   37.1337   26.2819   30.3014 H   0  0  0  0  0  0  0  0  0  0  0  0
   36.0327   25.7943   32.6942 H   0  0  0  0  0  0  0  0  0  0  0  0
   36.2290   23.3893   30.4632 H   0  0  0  0  0  0  0  0  0  0  0  0
   35.3075   22.9297   31.6247 H   0  0  0  0  0  0  0  0  0  0  0  0
   34.9176   25.4909   29.7416 H   0  0  0  0  0  0  0  0  0  0  0  0
   33.7591   25.3979   30.7860 H   0  0  0  0  0  0  0  0  0  0  0  0
  2  1  2  0
  3  2  1  0
  4  5  1  0
  4  3  2  0
  5  6  2  0
  6  1  1  0
  7  8  2  0
  7  5  1  0
  9  8  1  0
 10 11  1  0
 10  9  2  0
 11  7  1  0
 12  3  1  0
 13 12  1  0
 14 13  1  0
 15 14  2  0
 16 14  2  0
 17 18  1  0
 17 14  1  0
 19 18  1  0
 20 19  1  0
 20 18  1  0
  1 21  1  0
  2 22  1  0
  8 23  1  0
  9 24  1  0
 10 25  1  0
 12 26  1  0
 12 27  1  0
 13 28  1  0
 17 29  1  0
 17 30  1  0
 18 31  1  0
 19 32  1  0
 19 33  1  0
 20 34  1  0
 20 35  1  0
M  ISO  8  21  14  22  14  23  14  24  14  25  14  26   8  27   8  28   5
M  ISO  7  29   8  30   8  31  13  32  13  33  13  34  13  35  13
M  END
>  <minimizedAffinity>  (1) 
-4.44501781

>  <minimizedRMSD>  (1) 
1.18260312

$$$$
