
     RDKit          3D

 41 43  0  0  0  0  0  0  0  0999 V2000
   40.5670   24.8440   33.3730 C   0  0  0  0  0  0  0  0  0  0  0  0
   39.4220   24.5740   29.8170 C   0  0  0  0  0  0  0  0  0  0  0  0
   40.1280   24.9870   30.9510 C   0  0  0  0  0  0  0  0  0  0  0  0
   39.8220   24.4160   32.1940 C   0  0  0  0  0  0  0  0  0  0  0  0
   38.8570   23.4940   32.2190 N   0  0  0  0  0  0  0  0  0  0  0  0
   38.1710   23.0980   31.0920 C   0  0  0  0  0  0  0  0  0  0  0  0
   38.4550   23.6330   29.9140 N   0  0  0  0  0  0  0  0  0  0  0  0
   37.1500   22.0870   31.1980 C   0  0  0  0  0  0  0  0  0  0  0  0
   35.9580   22.3780   31.8340 C   0  0  0  0  0  0  0  0  0  0  0  0
   35.1460   21.2730   31.8140 C   0  0  0  0  0  0  0  0  0  0  0  0
   35.9010   20.3170   31.1410 C   0  0  0  0  0  0  0  0  0  0  0  0
   37.0380   20.8560   30.8190 O   0  0  0  0  0  0  0  0  0  0  0  0
   39.6300   24.9240   34.4760 N   0  0  0  0  0  0  0  0  0  0  0  0
   39.0300   26.5350   34.4920 S   0  0  0  0  0  0  0  0  0  0  0  0
   39.0430   27.0400   35.9250 O   0  0  0  0  0  0  0  0  0  0  0  0
   39.9840   27.4050   33.7680 O   0  0  0  0  0  0  0  0  0  0  0  0
   37.4590   26.5500   33.7760 C   0  0  0  0  0  0  0  0  0  0  0  0
   35.1790   30.0040   32.6580 C   0  0  0  0  0  0  0  0  0  0  0  0
   35.4210   29.8290   34.0010 C   0  0  0  0  0  0  0  0  0  0  0  0
   36.1360   28.7470   34.4510 C   0  0  0  0  0  0  0  0  0  0  0  0
   36.6770   27.7510   33.6680 C   0  0  0  0  0  0  0  0  0  0  0  0
   36.3980   27.9800   32.2990 C   0  0  0  0  0  0  0  0  0  0  0  0
   35.6830   29.0540   31.7960 C   0  0  0  0  0  0  0  0  0  0  0  0
   34.2570   31.4320   32.2660 S   0  0  0  0  0  0  0  0  0  0  0  0
   33.3740   31.2150   31.0720 O   0  0  0  0  0  0  0  0  0  0  0  0
   35.1990   32.5820   32.0650 O   0  0  0  0  0  0  0  0  0  0  0  0
   41.0203   25.8300   33.1932 H   0  0  0  0  0  0  0  0  0  0  0  0
   41.3735   24.1315   33.6010 H   0  0  0  0  0  0  0  0  0  0  0  0
   39.6548   25.0179   28.8379 H   0  0  0  0  0  0  0  0  0  0  0  0
   40.9147   25.7514   30.8686 H   0  0  0  0  0  0  0  0  0  0  0  0
   35.7002   23.3469   32.2866 H   0  0  0  0  0  0  0  0  0  0  0  0
   34.1342   21.1670   32.2323 H   0  0  0  0  0  0  0  0  0  0  0  0
   35.5893   19.2854   30.9204 H   0  0  0  0  0  0  0  0  0  0  0  0
   38.8571   24.2579   34.3351 H   0  0  0  0  0  0  0  0  0  0  0  0
   37.5858   26.1733   32.7503 H   0  0  0  0  0  0  0  0  0  0  0  0
   36.8738   25.9606   34.4972 H   0  0  0  0  0  0  0  0  0  0  0  0
   35.0370   30.5649   34.7228 H   0  0  0  0  0  0  0  0  0  0  0  0
   36.2913   28.6680   35.5371 H   0  0  0  0  0  0  0  0  0  0  0  0
   36.7804   27.2447   31.5758 H   0  0  0  0  0  0  0  0  0  0  0  0
   35.5179   29.1485   30.7126 H   0  0  0  0  0  0  0  0  0  0  0  0
   33.4168   31.7227   33.3083 H   0  0  0  0  0  0  0  0  0  0  0  0
  1 13  1  0
  2  7  2  0
  2  3  1  0
  3  4  2  0
  4  5  1  0
  4  1  1  0
  6  8  1  0
  6  5  2  0
  7  6  1  0
  8  9  2  0
 10  9  1  0
 11 10  2  0
 12 11  1  0
 12  8  1  0
 13 14  1  0
 14 15  2  0
 16 14  2  0
 17 14  1  0
 18 19  2  0
 19 20  1  0
 21 17  1  0
 21 20  2  0
 22 21  1  0
 23 22  2  0
 23 18  1  0
 24 18  1  0
 25 24  2  0
 26 24  2  0
  1 27  1  0
  1 28  1  0
  2 29  1  0
  3 30  1  0
  9 31  1  0
 10 32  1  0
 11 33  1  0
 13 34  1  0
 17 35  1  0
 17 36  1  0
 19 37  1  0
 20 38  1  0
 22 39  1  0
 23 40  1  0
 24 41  1  0
M  ISO  8  27   8  28   8  29  14  30  14  31  14  32  14  33  14  34   5
M  ISO  7  35   8  36   8  37  14  38  14  39  14  40  14  41  11
M  END
>  <minimizedAffinity>  (1) 
-4.43895912

>  <minimizedRMSD>  (1) 
5.00895834

$$$$
