
     RDKit          3D

 29 30  0  0  0  0  0  0  0  0999 V2000
   38.1600   22.6870   35.7270 C   0  0  0  0  0  0  0  0  0  0  0  0
   38.4380   23.9420   35.1890 C   0  0  0  0  0  0  0  0  0  0  0  0
   38.0610   24.2280   33.8720 C   0  0  0  0  0  0  0  0  0  0  0  0
   37.4390   23.2550   33.1900 N   0  0  0  0  0  0  0  0  0  0  0  0
   37.1790   22.0280   33.7480 C   0  0  0  0  0  0  0  0  0  0  0  0
   37.5300   21.7490   34.9830 N   0  0  0  0  0  0  0  0  0  0  0  0
   36.5010   21.0280   32.9420 C   0  0  0  0  0  0  0  0  0  0  0  0
   35.1490   21.1520   32.7000 C   0  0  0  0  0  0  0  0  0  0  0  0
   34.7430   20.0850   31.9170 C   0  0  0  0  0  0  0  0  0  0  0  0
   35.8890   19.3530   31.7190 C   0  0  0  0  0  0  0  0  0  0  0  0
   36.8710   19.9470   32.3350 O   0  0  0  0  0  0  0  0  0  0  0  0
   38.3600   25.5610   33.3110 C   0  0  0  0  0  0  0  0  0  0  0  0
   37.1970   26.3880   33.6100 N   0  0  0  0  0  0  0  0  0  0  0  0
   36.7470   27.1980   32.1620 S   0  0  0  0  0  0  0  0  0  0  0  0
   35.4710   27.9600   32.2930 O   0  0  0  0  0  0  0  0  0  0  0  0
   37.8320   28.1470   31.7990 O   0  0  0  0  0  0  0  0  0  0  0  0
   36.6160   25.9500   30.8920 C   0  0  0  0  0  0  0  0  0  0  0  0
   35.0200   25.1010   30.9730 S   0  0  0  0  0  0  0  0  0  0  0  0
   38.4543   22.4578   36.7618 H   0  0  0  0  0  0  0  0  0  0  0  0
   38.9505   24.7031   35.7957 H   0  0  0  0  0  0  0  0  0  0  0  0
   34.5021   21.9623   33.0673 H   0  0  0  0  0  0  0  0  0  0  0  0
   33.7323   19.8715   31.5390 H   0  0  0  0  0  0  0  0  0  0  0  0
   35.9644   18.4220   31.1380 H   0  0  0  0  0  0  0  0  0  0  0  0
   38.5127   25.4935   32.2237 H   0  0  0  0  0  0  0  0  0  0  0  0
   39.2793   25.9845   33.7417 H   0  0  0  0  0  0  0  0  0  0  0  0
   36.4201   25.7960   33.9370 H   0  0  0  0  0  0  0  0  0  0  0  0
   37.4217   25.2136   31.0279 H   0  0  0  0  0  0  0  0  0  0  0  0
   36.7009   26.4403   29.9110 H   0  0  0  0  0  0  0  0  0  0  0  0
   34.6683   24.9139   32.2838 H   0  0  0  0  0  0  0  0  0  0  0  0
  2  1  2  0
  3  2  1  0
  4  5  1  0
  4  3  2  0
  5  6  2  0
  6  1  1  0
  7  5  1  0
  8  7  2  0
  9  8  1  0
 10  9  2  0
 10 11  1  0
 11  7  1  0
 12 13  1  0
 12  3  1  0
 14 15  2  0
 14 13  1  0
 16 14  2  0
 17 18  1  0
 17 14  1  0
  1 19  1  0
  2 20  1  0
  8 21  1  0
  9 22  1  0
 10 23  1  0
 12 24  1  0
 12 25  1  0
 13 26  1  0
 17 27  1  0
 17 28  1  0
 18 29  1  0
M  ISO  8  19  14  20  14  21  14  22  14  23  14  24   8  25   8  26   5
M  ISO  3  27   8  28   8  29  11
M  END
>  <minimizedAffinity>  (1) 
-3.87243032

>  <minimizedRMSD>  (1) 
0.443026215

$$$$
