
     RDKit          3D

 42 44  0  0  0  0  0  0  0  0999 V2000
   35.8930   22.8670   31.1680 C   0  0  0  0  0  0  0  0  0  0  0  0
   35.4770   26.5940   31.2970 C   0  0  0  0  0  0  0  0  0  0  0  0
   35.3230   25.2550   30.9400 C   0  0  0  0  0  0  0  0  0  0  0  0
   36.0850   24.2730   31.5660 C   0  0  0  0  0  0  0  0  0  0  0  0
   36.9490   24.6880   32.5040 N   0  0  0  0  0  0  0  0  0  0  0  0
   37.0890   26.0090   32.8430 C   0  0  0  0  0  0  0  0  0  0  0  0
   36.3670   26.9420   32.2500 N   0  0  0  0  0  0  0  0  0  0  0  0
   38.0420   26.3790   33.8660 C   0  0  0  0  0  0  0  0  0  0  0  0
   37.5780   26.9440   35.0480 C   0  0  0  0  0  0  0  0  0  0  0  0
   38.6700   27.2120   35.8670 C   0  0  0  0  0  0  0  0  0  0  0  0
   39.7480   26.7920   35.1310 C   0  0  0  0  0  0  0  0  0  0  0  0
   39.3180   26.3270   33.9980 O   0  0  0  0  0  0  0  0  0  0  0  0
   35.2050   22.2270   32.2780 N   0  0  0  0  0  0  0  0  0  0  0  0
   36.2260   20.9490   32.8310 S   0  0  0  0  0  0  0  0  0  0  0  0
   35.4030   19.7990   33.3400 O   0  0  0  0  0  0  0  0  0  0  0  0
   37.0700   20.4730   31.7230 O   0  0  0  0  0  0  0  0  0  0  0  0
   37.1920   21.6110   34.1430 C   0  0  0  0  0  0  0  0  0  0  0  0
   38.9070   21.9030   33.7110 S   0  0  0  0  0  0  0  0  0  0  0  0
   39.6850   22.9120   34.9760 C   0  0  0  0  0  0  0  0  0  0  0  0
   41.1970   22.9210   34.8530 C   0  0  0  0  0  0  0  0  0  0  0  0
   41.5720   23.4320   36.2490 C   0  0  0  0  0  0  0  0  0  0  0  0
   40.6660   22.6240   37.1750 C   0  0  0  0  0  0  0  0  0  0  0  0
   39.4760   22.2670   36.3300 C   0  0  0  0  0  0  0  0  0  0  0  0
   35.2826   22.8081   30.2548 H   0  0  0  0  0  0  0  0  0  0  0  0
   36.8525   22.3749   30.9509 H   0  0  0  0  0  0  0  0  0  0  0  0
   34.8723   27.3677   30.8013 H   0  0  0  0  0  0  0  0  0  0  0  0
   34.5978   24.9742   30.1620 H   0  0  0  0  0  0  0  0  0  0  0  0
   36.5250   27.1453   35.2943 H   0  0  0  0  0  0  0  0  0  0  0  0
   38.6690   27.6578   36.8726 H   0  0  0  0  0  0  0  0  0  0  0  0
   40.8003   26.8409   35.4475 H   0  0  0  0  0  0  0  0  0  0  0  0
   35.0463   22.9066   33.0355 H   0  0  0  0  0  0  0  0  0  0  0  0
   36.7457   22.5676   34.4525 H   0  0  0  0  0  0  0  0  0  0  0  0
   37.1901   20.8620   34.9486 H   0  0  0  0  0  0  0  0  0  0  0  0
   39.2500   23.9162   34.8650 H   0  0  0  0  0  0  0  0  0  0  0  0
   41.5977   21.9140   34.6652 H   0  0  0  0  0  0  0  0  0  0  0  0
   41.5914   23.5191   34.0183 H   0  0  0  0  0  0  0  0  0  0  0  0
   42.6324   23.2379   36.4678 H   0  0  0  0  0  0  0  0  0  0  0  0
   41.4402   24.5185   36.3590 H   0  0  0  0  0  0  0  0  0  0  0  0
   41.1796   21.7163   37.5247 H   0  0  0  0  0  0  0  0  0  0  0  0
   40.3822   23.1886   38.0754 H   0  0  0  0  0  0  0  0  0  0  0  0
   38.5550   22.6508   36.7931 H   0  0  0  0  0  0  0  0  0  0  0  0
   39.3760   21.1758   36.2338 H   0  0  0  0  0  0  0  0  0  0  0  0
  1  4  1  0
  1 13  1  0
  2  7  2  0
  3  2  1  0
  3  4  2  0
  4  5  1  0
  5  6  2  0
  6  8  1  0
  7  6  1  0
  8 12  1  0
  8  9  2  0
  9 10  1  0
 11 10  2  0
 12 11  1  0
 13 14  1  0
 14 15  2  0
 14 17  1  0
 16 14  2  0
 18 17  1  0
 18 19  1  0
 19 23  1  0
 20 19  1  0
 20 21  1  0
 21 22  1  0
 23 22  1  0
  1 24  1  0
  1 25  1  0
  2 26  1  0
  3 27  1  0
  9 28  1  0
 10 29  1  0
 11 30  1  0
 13 31  1  0
 17 32  1  0
 17 33  1  0
 19 34  1  0
 20 35  1  0
 20 36  1  0
 21 37  1  0
 21 38  1  0
 22 39  1  0
 22 40  1  0
 23 41  1  0
 23 42  1  0
M  ISO  8  24   8  25   8  26  14  27  14  28  14  29  14  30  14  31   5
M  ISO  8  32   8  33   8  34  13  35  13  36  13  37  13  38  13  39  13
M  ISO  3  40  13  41  13  42  13
M  END
>  <minimizedAffinity>  (1) 
-4.88095522

>  <minimizedRMSD>  (1) 
7.47162628

$$$$
