
     RDKit          3D

 41 42  0  0  0  0  0  0  0  0999 V2000
   36.1380   21.7650   37.0400 C   0  0  0  0  0  0  0  0  0  0  0  0
   37.3080   22.4860   36.8880 C   0  0  0  0  0  0  0  0  0  0  0  0
   37.9570   22.5190   35.6590 C   0  0  0  0  0  0  0  0  0  0  0  0
   37.3900   21.8250   34.6600 N   0  0  0  0  0  0  0  0  0  0  0  0
   36.2310   21.1150   34.8230 C   0  0  0  0  0  0  0  0  0  0  0  0
   35.6190   21.0880   35.9940 N   0  0  0  0  0  0  0  0  0  0  0  0
   35.6730   20.3930   33.7080 C   0  0  0  0  0  0  0  0  0  0  0  0
   35.1090   21.1010   32.6530 C   0  0  0  0  0  0  0  0  0  0  0  0
   34.6460   20.1990   31.7150 C   0  0  0  0  0  0  0  0  0  0  0  0
   34.9560   18.9640   32.2510 C   0  0  0  0  0  0  0  0  0  0  0  0
   35.5450   19.1480   33.3980 O   0  0  0  0  0  0  0  0  0  0  0  0
   39.1940   23.2970   35.5200 C   0  0  0  0  0  0  0  0  0  0  0  0
   38.9070   24.6190   36.0620 N   0  0  0  0  0  0  0  0  0  0  0  0
   39.6130   25.7720   34.9870 S   0  0  0  0  0  0  0  0  0  0  0  0
   39.2470   27.1610   35.3530 O   0  0  0  0  0  0  0  0  0  0  0  0
   41.0880   25.6460   35.0410 O   0  0  0  0  0  0  0  0  0  0  0  0
   38.9990   25.4160   33.3790 C   0  0  0  0  0  0  0  0  0  0  0  0
   37.2940   25.7150   33.1140 S   0  0  0  0  0  0  0  0  0  0  0  0
   36.7040   27.2750   32.5690 C   0  0  0  0  0  0  0  0  0  0  0  0
   37.8850   27.9340   31.7890 C   0  0  0  0  0  0  0  0  0  0  0  0
   35.6410   27.0860   31.4820 C   0  0  0  0  0  0  0  0  0  0  0  0
   36.3130   28.2650   33.6090 C   0  0  0  0  0  0  0  0  0  0  0  0
   35.6293   21.7431   38.0151 H   0  0  0  0  0  0  0  0  0  0  0  0
   37.7272   23.0360   37.7434 H   0  0  0  0  0  0  0  0  0  0  0  0
   35.0425   22.1964   32.5778 H   0  0  0  0  0  0  0  0  0  0  0  0
   34.1450   20.4147   30.7597 H   0  0  0  0  0  0  0  0  0  0  0  0
   34.7416   17.9898   31.7874 H   0  0  0  0  0  0  0  0  0  0  0  0
   40.0088   22.8217   36.0859 H   0  0  0  0  0  0  0  0  0  0  0  0
   39.5141   23.3558   34.4693 H   0  0  0  0  0  0  0  0  0  0  0  0
   37.8889   24.7648   36.1176 H   0  0  0  0  0  0  0  0  0  0  0  0
   39.5623   26.0310   32.6617 H   0  0  0  0  0  0  0  0  0  0  0  0
   39.1295   24.3315   33.2494 H   0  0  0  0  0  0  0  0  0  0  0  0
   38.6148   28.3412   32.5042 H   0  0  0  0  0  0  0  0  0  0  0  0
   38.3738   27.1782   31.1566 H   0  0  0  0  0  0  0  0  0  0  0  0
   37.4985   28.7468   31.1566 H   0  0  0  0  0  0  0  0  0  0  0  0
   34.6621   26.9120   31.9527 H   0  0  0  0  0  0  0  0  0  0  0  0
   35.5916   27.9894   30.8564 H   0  0  0  0  0  0  0  0  0  0  0  0
   35.9060   26.2209   30.8564 H   0  0  0  0  0  0  0  0  0  0  0  0
   36.4829   27.8348   34.6070 H   0  0  0  0  0  0  0  0  0  0  0  0
   36.9189   29.1759   33.4944 H   0  0  0  0  0  0  0  0  0  0  0  0
   35.2482   28.5161   33.4944 H   0  0  0  0  0  0  0  0  0  0  0  0
  2  1  2  0
  3  2  1  0
  4  5  1  0
  4  3  2  0
  5  6  2  0
  6  1  1  0
  7  5  1  0
  8  7  2  0
  9 10  2  0
  9  8  1  0
 10 11  1  0
 11  7  1  0
 12  3  1  0
 12 13  1  0
 14 16  2  0
 14 15  2  0
 14 13  1  0
 17 14  1  0
 18 17  1  0
 19 18  1  0
 19 22  1  0
 20 19  1  0
 21 19  1  0
  1 23  1  0
  2 24  1  0
  8 25  1  0
  9 26  1  0
 10 27  1  0
 12 28  1  0
 12 29  1  0
 13 30  1  0
 17 31  1  0
 17 32  1  0
 20 33  1  0
 20 34  1  0
 20 35  1  0
 21 36  1  0
 21 37  1  0
 21 38  1  0
 22 39  1  0
 22 40  1  0
 22 41  1  0
M  ISO  8  23  14  24  14  25  14  26  14  27  14  28   8  29   8  30   5
M  ISO  8  31   8  32   8  33   8  34   8  35   8  36   8  37   8  38   8
M  ISO  3  39   8  40   8  41   8
M  END
>  <minimizedAffinity>  (1) 
-4.35498524

>  <minimizedRMSD>  (1) 
3.23336411

$$$$
