
     RDKit          3D

 43 46  0  0  0  0  0  0  0  0999 V2000
   39.0320   25.0930   32.8850 N   0  0  0  0  0  0  0  0  0  0  0  0
   39.7520   24.0400   33.5210 C   0  0  0  0  0  0  0  0  0  0  0  0
   37.6860   22.4000   36.2020 C   0  0  0  0  0  0  0  0  0  0  0  0
   38.6300   23.1940   35.5610 C   0  0  0  0  0  0  0  0  0  0  0  0
   38.7330   23.1780   34.1750 C   0  0  0  0  0  0  0  0  0  0  0  0
   37.8820   22.3630   33.5180 N   0  0  0  0  0  0  0  0  0  0  0  0
   36.9620   21.5910   34.1730 C   0  0  0  0  0  0  0  0  0  0  0  0
   36.8640   21.6060   35.4760 N   0  0  0  0  0  0  0  0  0  0  0  0
   36.0830   20.7450   33.4040 C   0  0  0  0  0  0  0  0  0  0  0  0
   35.2180   21.3220   32.4940 C   0  0  0  0  0  0  0  0  0  0  0  0
   34.4870   20.3050   31.8860 C   0  0  0  0  0  0  0  0  0  0  0  0
   34.9550   19.1450   32.4690 C   0  0  0  0  0  0  0  0  0  0  0  0
   35.8780   19.4590   33.3400 O   0  0  0  0  0  0  0  0  0  0  0  0
   39.2090   24.9480   31.2080 S   0  0  0  0  0  0  0  0  0  0  0  0
   39.5120   26.2760   30.5580 O   0  0  0  0  0  0  0  0  0  0  0  0
   40.3260   24.0170   30.9100 O   0  0  0  0  0  0  0  0  0  0  0  0
   37.6800   24.3380   30.5550 C   0  0  0  0  0  0  0  0  0  0  0  0
   36.2500   24.9390   31.4350 S   0  0  0  0  0  0  0  0  0  0  0  0
   36.1730   26.7010   31.5640 C   0  0  0  0  0  0  0  0  0  0  0  0
   36.2740   27.5260   30.4820 N   0  0  0  0  0  0  0  0  0  0  0  0
   36.1820   28.7730   30.8640 O   0  0  0  0  0  0  0  0  0  0  0  0
   36.0220   28.8090   32.1770 C   0  0  0  0  0  0  0  0  0  0  0  0
   36.0180   27.5400   32.5940 N   0  0  0  0  0  0  0  0  0  0  0  0
   35.8700   29.9410   33.0870 C   0  0  0  0  0  0  0  0  0  0  0  0
   35.6910   29.8000   34.4450 C   0  0  0  0  0  0  0  0  0  0  0  0
   35.5510   30.8950   35.2730 C   0  0  0  0  0  0  0  0  0  0  0  0
   35.5960   32.1560   34.7010 C   0  0  0  0  0  0  0  0  0  0  0  0
   35.7760   32.2480   33.3440 C   0  0  0  0  0  0  0  0  0  0  0  0
   35.9110   31.1750   32.5440 N   0  0  0  0  0  0  0  0  0  0  0  0
   38.0346   25.0285   33.1337 H   0  0  0  0  0  0  0  0  0  0  0  0
   40.3195   23.4621   32.7767 H   0  0  0  0  0  0  0  0  0  0  0  0
   40.4743   24.4324   34.2519 H   0  0  0  0  0  0  0  0  0  0  0  0
   37.6068   22.4168   37.2990 H   0  0  0  0  0  0  0  0  0  0  0  0
   39.2978   23.8372   36.1528 H   0  0  0  0  0  0  0  0  0  0  0  0
   35.1234   22.3980   32.2861 H   0  0  0  0  0  0  0  0  0  0  0  0
   33.7101   20.4040   31.1136 H   0  0  0  0  0  0  0  0  0  0  0  0
   34.6092   18.1264   32.2392 H   0  0  0  0  0  0  0  0  0  0  0  0
   37.5998   24.6501   29.5033 H   0  0  0  0  0  0  0  0  0  0  0  0
   37.6929   23.2433   30.6616 H   0  0  0  0  0  0  0  0  0  0  0  0
   35.6588   28.7903   34.8802 H   0  0  0  0  0  0  0  0  0  0  0  0
   35.4077   30.7702   36.3565 H   0  0  0  0  0  0  0  0  0  0  0  0
   35.4902   33.0600   35.3188 H   0  0  0  0  0  0  0  0  0  0  0  0
   35.8117   33.2483   32.8878 H   0  0  0  0  0  0  0  0  0  0  0  0
  1  2  1  0
  2  5  1  0
  4  3  2  0
  5  4  1  0
  6  7  1  0
  6  5  2  0
  7  8  2  0
  8  3  1  0
  9  7  1  0
 10  9  2  0
 11 12  2  0
 11 10  1  0
 12 13  1  0
 13  9  1  0
 14  1  1  0
 15 14  2  0
 16 14  2  0
 17 14  1  0
 17 18  1  0
 18 19  1  0
 19 23  1  0
 20 21  1  0
 20 19  2  0
 21 22  1  0
 22 23  2  0
 22 24  1  0
 24 25  2  0
 25 26  1  0
 27 26  2  0
 28 27  1  0
 29 24  1  0
 29 28  2  0
  1 30  1  0
  2 31  1  0
  2 32  1  0
  3 33  1  0
  4 34  1  0
 10 35  1  0
 11 36  1  0
 12 37  1  0
 17 38  1  0
 17 39  1  0
 25 40  1  0
 26 41  1  0
 27 42  1  0
 28 43  1  0
M  ISO  8  30   5  31   8  32   8  33  14  34  14  35  14  36  14  37  14
M  ISO  6  38   8  39   8  40  14  41  14  42  14  43  14
M  END
>  <minimizedAffinity>  (1) 
-5.00376511

>  <minimizedRMSD>  (1) 
0.665010095

$$$$
