
     RDKit          3D

 41 44  0  0  0  0  0  0  0  0999 V2000
   38.7730   25.2190   33.0620 N   0  0  0  0  0  0  0  0  0  0  0  0
   39.5370   24.3040   33.8540 C   0  0  0  0  0  0  0  0  0  0  0  0
   37.5280   22.4180   36.4170 C   0  0  0  0  0  0  0  0  0  0  0  0
   38.4330   23.2960   35.8320 C   0  0  0  0  0  0  0  0  0  0  0  0
   38.5630   23.3560   34.4500 C   0  0  0  0  0  0  0  0  0  0  0  0
   37.7750   22.5300   33.7380 N   0  0  0  0  0  0  0  0  0  0  0  0
   36.8910   21.6730   34.3410 C   0  0  0  0  0  0  0  0  0  0  0  0
   36.7680   21.6150   35.6340 N   0  0  0  0  0  0  0  0  0  0  0  0
   36.0750   20.8110   33.5030 C   0  0  0  0  0  0  0  0  0  0  0  0
   35.2660   21.3810   32.5340 C   0  0  0  0  0  0  0  0  0  0  0  0
   34.5990   20.3540   31.8780 C   0  0  0  0  0  0  0  0  0  0  0  0
   35.0430   19.1960   32.4920 C   0  0  0  0  0  0  0  0  0  0  0  0
   35.8930   19.5200   33.4220 O   0  0  0  0  0  0  0  0  0  0  0  0
   39.2740   25.0700   31.4400 S   0  0  0  0  0  0  0  0  0  0  0  0
   39.5600   26.4240   30.8250 O   0  0  0  0  0  0  0  0  0  0  0  0
   40.5070   24.2590   31.3800 O   0  0  0  0  0  0  0  0  0  0  0  0
   37.9500   24.3170   30.5430 C   0  0  0  0  0  0  0  0  0  0  0  0
   36.3320   24.8200   31.1040 S   0  0  0  0  0  0  0  0  0  0  0  0
   36.1950   26.5490   31.4500 C   0  0  0  0  0  0  0  0  0  0  0  0
   36.2450   27.4960   30.4730 N   0  0  0  0  0  0  0  0  0  0  0  0
   36.1200   28.6910   30.9930 O   0  0  0  0  0  0  0  0  0  0  0  0
   35.9880   28.5620   32.3090 C   0  0  0  0  0  0  0  0  0  0  0  0
   36.0350   27.2570   32.5740 N   0  0  0  0  0  0  0  0  0  0  0  0
   35.8320   29.6850   33.1680 N   0  0  0  0  0  0  0  0  0  0  0  0
   35.7950   29.4990   34.4770 N   0  0  0  0  0  0  0  0  0  0  0  0
   35.6410   30.6940   35.1120 C   0  0  0  0  0  0  0  0  0  0  0  0
   35.5840   31.6430   34.1000 C   0  0  0  0  0  0  0  0  0  0  0  0
   35.7050   31.0040   32.8670 C   0  0  0  0  0  0  0  0  0  0  0  0
   37.7709   24.9938   33.1391 H   0  0  0  0  0  0  0  0  0  0  0  0
   40.2575   23.7633   33.2227 H   0  0  0  0  0  0  0  0  0  0  0  0
   40.1103   24.8300   34.6315 H   0  0  0  0  0  0  0  0  0  0  0  0
   37.4292   22.3753   37.5117 H   0  0  0  0  0  0  0  0  0  0  0  0
   39.0505   23.9478   36.4675 H   0  0  0  0  0  0  0  0  0  0  0  0
   35.1689   22.4559   32.3216 H   0  0  0  0  0  0  0  0  0  0  0  0
   33.8772   20.4419   31.0526 H   0  0  0  0  0  0  0  0  0  0  0  0
   34.7297   18.1730   32.2365 H   0  0  0  0  0  0  0  0  0  0  0  0
   38.0323   23.2255   30.6519 H   0  0  0  0  0  0  0  0  0  0  0  0
   38.0440   24.6405   29.4959 H   0  0  0  0  0  0  0  0  0  0  0  0
   35.5757   30.8699   36.1959 H   0  0  0  0  0  0  0  0  0  0  0  0
   35.4627   32.7263   34.2477 H   0  0  0  0  0  0  0  0  0  0  0  0
   35.6990   31.4663   31.8689 H   0  0  0  0  0  0  0  0  0  0  0  0
  1  2  1  0
  2  5  1  0
  4  3  2  0
  5  4  1  0
  6  7  1  0
  6  5  2  0
  7  8  2  0
  8  3  1  0
  9  7  1  0
 10  9  2  0
 11 12  2  0
 11 10  1  0
 12 13  1  0
 13  9  1  0
 14  1  1  0
 15 14  2  0
 16 14  2  0
 17 18  1  0
 17 14  1  0
 18 19  1  0
 19 23  1  0
 20 21  1  0
 20 19  2  0
 21 22  1  0
 22 23  2  0
 22 24  1  0
 24 25  1  0
 25 26  2  0
 27 26  1  0
 28 24  1  0
 28 27  2  0
  1 29  1  0
  2 30  1  0
  2 31  1  0
  3 32  1  0
  4 33  1  0
 10 34  1  0
 11 35  1  0
 12 36  1  0
 17 37  1  0
 17 38  1  0
 26 39  1  0
 27 40  1  0
 28 41  1  0
M  ISO  8  29   5  30   8  31   8  32  14  33  14  34  14  35  14  36  14
M  ISO  5  37   8  38   8  39  14  40  14  41  14
M  END
>  <minimizedAffinity>  (1) 
-4.85190964

>  <minimizedRMSD>  (1) 
0.54138571

$$$$
