
     RDKit          3D

 46 49  0  0  0  0  0  0  0  0999 V2000
   38.7390   25.1870   33.0040 N   0  0  0  0  0  0  0  0  0  0  0  0
   39.5140   24.3000   33.8250 C   0  0  0  0  0  0  0  0  0  0  0  0
   37.5470   22.4010   36.3950 C   0  0  0  0  0  0  0  0  0  0  0  0
   38.4390   23.2850   35.8140 C   0  0  0  0  0  0  0  0  0  0  0  0
   38.5500   23.3470   34.4260 C   0  0  0  0  0  0  0  0  0  0  0  0
   37.7570   22.5170   33.7210 N   0  0  0  0  0  0  0  0  0  0  0  0
   36.8840   21.6550   34.3290 C   0  0  0  0  0  0  0  0  0  0  0  0
   36.7840   21.6010   35.6310 N   0  0  0  0  0  0  0  0  0  0  0  0
   36.0660   20.7920   33.5030 C   0  0  0  0  0  0  0  0  0  0  0  0
   35.2390   21.3520   32.5540 C   0  0  0  0  0  0  0  0  0  0  0  0
   34.5670   20.3250   31.8990 C   0  0  0  0  0  0  0  0  0  0  0  0
   35.0320   19.1770   32.4990 C   0  0  0  0  0  0  0  0  0  0  0  0
   35.9020   19.5020   33.4250 O   0  0  0  0  0  0  0  0  0  0  0  0
   39.2340   24.9860   31.3860 S   0  0  0  0  0  0  0  0  0  0  0  0
   39.5810   26.3070   30.7530 O   0  0  0  0  0  0  0  0  0  0  0  0
   40.4190   24.1070   31.3400 O   0  0  0  0  0  0  0  0  0  0  0  0
   37.8740   24.2630   30.5080 C   0  0  0  0  0  0  0  0  0  0  0  0
   36.2820   24.7970   31.1070 S   0  0  0  0  0  0  0  0  0  0  0  0
   36.1810   26.5370   31.4410 C   0  0  0  0  0  0  0  0  0  0  0  0
   36.2810   27.4710   30.4570 N   0  0  0  0  0  0  0  0  0  0  0  0
   36.1570   28.6660   30.9690 O   0  0  0  0  0  0  0  0  0  0  0  0
   35.9760   28.5490   32.2760 C   0  0  0  0  0  0  0  0  0  0  0  0
   35.9930   27.2520   32.5560 N   0  0  0  0  0  0  0  0  0  0  0  0
   35.8130   29.7280   33.0340 N   0  0  0  0  0  0  0  0  0  0  0  0
   35.6960   31.1570   32.9610 C   0  0  0  0  0  0  0  0  0  0  0  0
   34.4190   31.3930   33.7670 C   0  0  0  0  0  0  0  0  0  0  0  0
   34.3620   30.2120   34.7350 C   0  0  0  0  0  0  0  0  0  0  0  0
   35.7360   29.5730   34.4880 C   0  0  0  0  0  0  0  0  0  0  0  0
   37.7384   24.9593   33.0931 H   0  0  0  0  0  0  0  0  0  0  0  0
   40.2523   23.7610   33.2131 H   0  0  0  0  0  0  0  0  0  0  0  0
   40.0691   24.8510   34.5985 H   0  0  0  0  0  0  0  0  0  0  0  0
   37.4618   22.3527   37.4906 H   0  0  0  0  0  0  0  0  0  0  0  0
   39.0592   23.9374   36.4462 H   0  0  0  0  0  0  0  0  0  0  0  0
   35.1289   22.4272   32.3493 H   0  0  0  0  0  0  0  0  0  0  0  0
   33.8310   20.4110   31.0860 H   0  0  0  0  0  0  0  0  0  0  0  0
   34.7238   18.1525   32.2432 H   0  0  0  0  0  0  0  0  0  0  0  0
   37.9357   23.1693   30.6086 H   0  0  0  0  0  0  0  0  0  0  0  0
   37.9532   24.5888   29.4603 H   0  0  0  0  0  0  0  0  0  0  0  0
   36.5612   31.6562   33.4216 H   0  0  0  0  0  0  0  0  0  0  0  0
   35.6625   31.5550   31.9361 H   0  0  0  0  0  0  0  0  0  0  0  0
   34.4745   32.3447   34.3158 H   0  0  0  0  0  0  0  0  0  0  0  0
   33.5249   31.4584   33.1296 H   0  0  0  0  0  0  0  0  0  0  0  0
   34.2526   30.5472   35.7770 H   0  0  0  0  0  0  0  0  0  0  0  0
   33.5094   29.5348   34.5785 H   0  0  0  0  0  0  0  0  0  0  0  0
   35.7577   28.5156   34.7902 H   0  0  0  0  0  0  0  0  0  0  0  0
   36.5689   30.0178   35.0523 H   0  0  0  0  0  0  0  0  0  0  0  0
  1  2  1  0
  2  5  1  0
  4  3  2  0
  5  4  1  0
  6  7  1  0
  6  5  2  0
  7  8  2  0
  8  3  1  0
  9  7  1  0
 10  9  2  0
 11 12  2  0
 11 10  1  0
 12 13  1  0
 13  9  1  0
 14  1  1  0
 15 14  2  0
 16 14  2  0
 17 18  1  0
 17 14  1  0
 18 19  1  0
 19 23  1  0
 20 21  1  0
 20 19  2  0
 21 22  1  0
 22 23  2  0
 22 24  1  0
 24 28  1  0
 25 24  1  0
 25 26  1  0
 26 27  1  0
 28 27  1  0
  1 29  1  0
  2 30  1  0
  2 31  1  0
  3 32  1  0
  4 33  1  0
 10 34  1  0
 11 35  1  0
 12 36  1  0
 17 37  1  0
 17 38  1  0
 25 39  1  0
 25 40  1  0
 26 41  1  0
 26 42  1  0
 27 43  1  0
 27 44  1  0
 28 45  1  0
 28 46  1  0
M  ISO  8  29   5  30   8  31   8  32  14  33  14  34  14  35  14  36  14
M  ISO  8  37   8  38   8  39  13  40  13  41  13  42  13  43  13  44  13
M  ISO  2  45  13  46  13
M  END
>  <minimizedAffinity>  (1) 
-4.78386164

>  <minimizedRMSD>  (1) 
0.56551671

$$$$
