
     RDKit          3D

 47 50  0  0  0  0  0  0  0  0999 V2000
   39.7540   24.0240   33.5830 C   0  0  0  0  0  0  0  0  0  0  0  0
   37.6470   22.3880   36.2360 C   0  0  0  0  0  0  0  0  0  0  0  0
   38.6010   23.1790   35.6090 C   0  0  0  0  0  0  0  0  0  0  0  0
   38.7250   23.1650   34.2260 C   0  0  0  0  0  0  0  0  0  0  0  0
   37.8810   22.3560   33.5560 N   0  0  0  0  0  0  0  0  0  0  0  0
   36.9480   21.5840   34.1930 C   0  0  0  0  0  0  0  0  0  0  0  0
   36.8370   21.6020   35.5000 N   0  0  0  0  0  0  0  0  0  0  0  0
   36.0770   20.7430   33.4120 C   0  0  0  0  0  0  0  0  0  0  0  0
   35.2160   21.3350   32.4990 C   0  0  0  0  0  0  0  0  0  0  0  0
   34.4910   20.3170   31.8790 C   0  0  0  0  0  0  0  0  0  0  0  0
   34.9540   19.1510   32.4530 C   0  0  0  0  0  0  0  0  0  0  0  0
   35.8740   19.4580   33.3360 O   0  0  0  0  0  0  0  0  0  0  0  0
   39.0450   25.0840   32.9440 N   0  0  0  0  0  0  0  0  0  0  0  0
   39.3240   24.9940   31.2730 S   0  0  0  0  0  0  0  0  0  0  0  0
   39.6060   26.3520   30.6690 O   0  0  0  0  0  0  0  0  0  0  0  0
   40.4930   24.1210   31.0150 O   0  0  0  0  0  0  0  0  0  0  0  0
   37.8570   24.3440   30.5210 C   0  0  0  0  0  0  0  0  0  0  0  0
   36.3570   24.8850   31.3190 S   0  0  0  0  0  0  0  0  0  0  0  0
   36.2440   26.6330   31.5300 C   0  0  0  0  0  0  0  0  0  0  0  0
   36.2780   27.5070   30.4830 N   0  0  0  0  0  0  0  0  0  0  0  0
   36.1740   28.7400   30.9210 O   0  0  0  0  0  0  0  0  0  0  0  0
   36.0710   28.7120   32.2430 C   0  0  0  0  0  0  0  0  0  0  0  0
   36.1150   27.4240   32.6030 N   0  0  0  0  0  0  0  0  0  0  0  0
   35.9370   29.9390   33.0580 C   0  0  0  0  0  0  0  0  0  0  0  0
   35.0840   30.9950   32.4420 C   0  0  0  0  0  0  0  0  0  0  0  0
   33.6850   30.4610   32.6130 C   0  0  0  0  0  0  0  0  0  0  0  0
   33.7450   29.5420   33.8180 C   0  0  0  0  0  0  0  0  0  0  0  0
   35.1420   29.6290   34.3320 C   0  0  0  0  0  0  0  0  0  0  0  0
   40.4415   24.4276   34.3409 H   0  0  0  0  0  0  0  0  0  0  0  0
   40.3582   23.4540   32.8618 H   0  0  0  0  0  0  0  0  0  0  0  0
   37.5528   22.4032   37.3319 H   0  0  0  0  0  0  0  0  0  0  0  0
   39.2618   23.8199   36.2111 H   0  0  0  0  0  0  0  0  0  0  0  0
   35.1220   22.4127   32.2999 H   0  0  0  0  0  0  0  0  0  0  0  0
   33.7190   20.4212   31.1023 H   0  0  0  0  0  0  0  0  0  0  0  0
   34.6095   18.1348   32.2108 H   0  0  0  0  0  0  0  0  0  0  0  0
   38.0368   24.9900   33.1328 H   0  0  0  0  0  0  0  0  0  0  0  0
   37.8301   24.6683   29.4702 H   0  0  0  0  0  0  0  0  0  0  0  0
   37.8999   23.2489   30.6156 H   0  0  0  0  0  0  0  0  0  0  0  0
   36.9753   30.2747   33.1965 H   0  0  0  0  0  0  0  0  0  0  0  0
   35.3276   31.1258   31.3773 H   0  0  0  0  0  0  0  0  0  0  0  0
   35.2249   31.9833   32.9040 H   0  0  0  0  0  0  0  0  0  0  0  0
   32.9786   31.2848   32.7929 H   0  0  0  0  0  0  0  0  0  0  0  0
   33.3382   29.9314   31.7134 H   0  0  0  0  0  0  0  0  0  0  0  0
   33.0331   29.8743   34.5879 H   0  0  0  0  0  0  0  0  0  0  0  0
   33.4776   28.5090   33.5506 H   0  0  0  0  0  0  0  0  0  0  0  0
   35.4621   28.6768   34.7801 H   0  0  0  0  0  0  0  0  0  0  0  0
   35.2740   30.3768   35.1278 H   0  0  0  0  0  0  0  0  0  0  0  0
  1  4  1  0
  3  2  2  0
  4  3  1  0
  5  6  1  0
  5  4  2  0
  6  7  2  0
  7  2  1  0
  8  6  1  0
  9  8  2  0
 10 11  2  0
 10  9  1  0
 11 12  1  0
 12  8  1  0
 13  1  1  0
 14 13  1  0
 15 14  2  0
 16 14  2  0
 17 14  1  0
 17 18  1  0
 18 19  1  0
 19 23  1  0
 20 21  1  0
 20 19  2  0
 21 22  1  0
 22 23  2  0
 22 24  1  0
 24 28  1  0
 25 26  1  0
 25 24  1  0
 26 27  1  0
 27 28  1  0
  1 29  1  0
  1 30  1  0
  2 31  1  0
  3 32  1  0
  9 33  1  0
 10 34  1  0
 11 35  1  0
 13 36  1  0
 17 37  1  0
 17 38  1  0
 24 39  1  0
 25 40  1  0
 25 41  1  0
 26 42  1  0
 26 43  1  0
 27 44  1  0
 27 45  1  0
 28 46  1  0
 28 47  1  0
M  ISO  8  29   8  30   8  31  14  32  14  33  14  34  14  35  14  36   5
M  ISO  8  37   8  38   8  39  13  40  13  41  13  42  13  43  13  44  13
M  ISO  3  45  13  46  13  47  13
M  END
>  <minimizedAffinity>  (1) 
-4.68420124

>  <minimizedRMSD>  (1) 
1.15808642

$$$$
