
     RDKit          3D

 37 39  0  0  0  0  0  0  0  0999 V2000
   39.9770   23.7990   33.3050 C   0  0  0  0  0  0  0  0  0  0  0  0
   37.8040   22.4190   36.0420 C   0  0  0  0  0  0  0  0  0  0  0  0
   38.7900   23.1250   35.3750 C   0  0  0  0  0  0  0  0  0  0  0  0
   38.9100   23.0310   33.9930 C   0  0  0  0  0  0  0  0  0  0  0  0
   38.0250   22.2300   33.3710 N   0  0  0  0  0  0  0  0  0  0  0  0
   37.0550   21.5400   34.0500 C   0  0  0  0  0  0  0  0  0  0  0  0
   36.9450   21.6290   35.3500 N   0  0  0  0  0  0  0  0  0  0  0  0
   36.1420   20.7000   33.3120 C   0  0  0  0  0  0  0  0  0  0  0  0
   35.1730   21.2950   32.5240 C   0  0  0  0  0  0  0  0  0  0  0  0
   34.4310   20.2720   31.9260 C   0  0  0  0  0  0  0  0  0  0  0  0
   34.9940   19.1060   32.3880 C   0  0  0  0  0  0  0  0  0  0  0  0
   35.9820   19.4120   33.1880 O   0  0  0  0  0  0  0  0  0  0  0  0
   39.3500   24.9830   32.7950 N   0  0  0  0  0  0  0  0  0  0  0  0
   39.7790   25.1450   31.1510 S   0  0  0  0  0  0  0  0  0  0  0  0
   39.7410   26.5900   30.7180 O   0  0  0  0  0  0  0  0  0  0  0  0
   41.1460   24.6320   30.9470 O   0  0  0  0  0  0  0  0  0  0  0  0
   38.5900   24.2450   30.2050 C   0  0  0  0  0  0  0  0  0  0  0  0
   36.9260   24.3220   30.8680 S   0  0  0  0  0  0  0  0  0  0  0  0
   36.5290   25.8710   31.6200 C   0  0  0  0  0  0  0  0  0  0  0  0
   35.8920   26.8650   30.9530 N   0  0  0  0  0  0  0  0  0  0  0  0
   35.7190   27.9020   31.7320 O   0  0  0  0  0  0  0  0  0  0  0  0
   36.2400   27.6120   32.9280 C   0  0  0  0  0  0  0  0  0  0  0  0
   36.7250   26.3840   32.8440 N   0  0  0  0  0  0  0  0  0  0  0  0
   36.2510   28.5070   34.0790 C   0  0  0  0  0  0  0  0  0  0  0  0
   35.4930   29.5070   34.1290 O   0  0  0  0  0  0  0  0  0  0  0  0
   37.1140   28.2390   35.1230 O   0  0  0  0  0  0  0  0  0  0  0  0
   40.7741   24.0649   34.0149 H   0  0  0  0  0  0  0  0  0  0  0  0
   40.4392   23.2104   32.4988 H   0  0  0  0  0  0  0  0  0  0  0  0
   37.7166   22.4986   37.1356 H   0  0  0  0  0  0  0  0  0  0  0  0
   39.4829   23.7643   35.9417 H   0  0  0  0  0  0  0  0  0  0  0  0
   35.0152   22.3756   32.3920 H   0  0  0  0  0  0  0  0  0  0  0  0
   33.5811   20.3773   31.2356 H   0  0  0  0  0  0  0  0  0  0  0  0
   34.6684   18.0878   32.1286 H   0  0  0  0  0  0  0  0  0  0  0  0
   38.3270   24.9014   32.8823 H   0  0  0  0  0  0  0  0  0  0  0  0
   38.9009   23.1904   30.1709 H   0  0  0  0  0  0  0  0  0  0  0  0
   38.5583   24.7082   29.2078 H   0  0  0  0  0  0  0  0  0  0  0  0
   37.1356   28.8354   35.9129 H   0  0  0  0  0  0  0  0  0  0  0  0
  1  4  1  0
  3  2  2  0
  4  3  1  0
  5  4  2  0
  5  6  1  0
  6  7  2  0
  7  2  1  0
  8  6  1  0
  9  8  2  0
 10 11  2  0
 10  9  1  0
 11 12  1  0
 12  8  1  0
 13  1  1  0
 14 13  1  0
 15 14  2  0
 16 14  2  0
 17 18  1  0
 17 14  1  0
 18 19  1  0
 19 23  1  0
 20 19  2  0
 20 21  1  0
 21 22  1  0
 22 24  1  0
 23 22  2  0
 24 25  2  0
 24 26  1  0
  1 27  1  0
  1 28  1  0
  2 29  1  0
  3 30  1  0
  9 31  1  0
 10 32  1  0
 11 33  1  0
 13 34  1  0
 17 35  1  0
 17 36  1  0
 26 37  1  0
M  ISO  8  27   8  28   8  29  14  30  14  31  14  32  14  33  14  34   5
M  ISO  3  35   8  36   8  37   3
M  END
>  <minimizedAffinity>  (1) 
-4.35717058

>  <minimizedRMSD>  (1) 
0.721765697

$$$$
