
     RDKit          3D

 35 37  0  0  0  0  0  0  0  0999 V2000
   39.7370   24.0230   33.5490 C   0  0  0  0  0  0  0  0  0  0  0  0
   37.6520   22.3910   36.2210 C   0  0  0  0  0  0  0  0  0  0  0  0
   38.5970   23.1820   35.5870 C   0  0  0  0  0  0  0  0  0  0  0  0
   38.7170   23.1660   34.2020 C   0  0  0  0  0  0  0  0  0  0  0  0
   37.8740   22.3490   33.5420 N   0  0  0  0  0  0  0  0  0  0  0  0
   36.9470   21.5750   34.1940 C   0  0  0  0  0  0  0  0  0  0  0  0
   36.8390   21.5950   35.4930 N   0  0  0  0  0  0  0  0  0  0  0  0
   36.0760   20.7230   33.4130 C   0  0  0  0  0  0  0  0  0  0  0  0
   35.1910   21.3050   32.5190 C   0  0  0  0  0  0  0  0  0  0  0  0
   34.4780   20.2740   31.9020 C   0  0  0  0  0  0  0  0  0  0  0  0
   34.9740   19.1140   32.4610 C   0  0  0  0  0  0  0  0  0  0  0  0
   35.8950   19.4330   33.3280 O   0  0  0  0  0  0  0  0  0  0  0  0
   39.0120   25.0410   32.8500 N   0  0  0  0  0  0  0  0  0  0  0  0
   39.3920   24.9240   31.1940 S   0  0  0  0  0  0  0  0  0  0  0  0
   39.6200   26.2910   30.5870 O   0  0  0  0  0  0  0  0  0  0  0  0
   40.6250   24.1290   31.0270 O   0  0  0  0  0  0  0  0  0  0  0  0
   38.0120   24.1750   30.3850 C   0  0  0  0  0  0  0  0  0  0  0  0
   36.4310   24.6260   31.0860 S   0  0  0  0  0  0  0  0  0  0  0  0
   36.3030   26.3380   31.5170 C   0  0  0  0  0  0  0  0  0  0  0  0
   36.1580   27.3180   30.5850 N   0  0  0  0  0  0  0  0  0  0  0  0
   36.0890   28.4890   31.1670 O   0  0  0  0  0  0  0  0  0  0  0  0
   36.1870   28.3130   32.4800 C   0  0  0  0  0  0  0  0  0  0  0  0
   36.3160   27.0030   32.6820 N   0  0  0  0  0  0  0  0  0  0  0  0
   36.1440   29.3890   33.3400 O   0  0  0  0  0  0  0  0  0  0  0  0
   40.3966   24.4746   34.3046 H   0  0  0  0  0  0  0  0  0  0  0  0
   40.3727   23.4411   32.8654 H   0  0  0  0  0  0  0  0  0  0  0  0
   37.5640   22.4114   37.3173 H   0  0  0  0  0  0  0  0  0  0  0  0
   39.2574   23.8277   36.1844 H   0  0  0  0  0  0  0  0  0  0  0  0
   35.0718   22.3820   32.3298 H   0  0  0  0  0  0  0  0  0  0  0  0
   33.6926   20.3667   31.1374 H   0  0  0  0  0  0  0  0  0  0  0  0
   34.6477   18.0923   32.2167 H   0  0  0  0  0  0  0  0  0  0  0  0
   38.0002   24.9041   32.9860 H   0  0  0  0  0  0  0  0  0  0  0  0
   38.1219   23.0826   30.4522 H   0  0  0  0  0  0  0  0  0  0  0  0
   38.0158   24.5361   29.3460 H   0  0  0  0  0  0  0  0  0  0  0  0
   36.2180   29.2453   34.3167 H   0  0  0  0  0  0  0  0  0  0  0  0
  1  4  1  0
  3  2  2  0
  4  3  1  0
  5  6  1  0
  5  4  2  0
  6  7  2  0
  7  2  1  0
  8  6  1  0
  9  8  2  0
 10 11  2  0
 10  9  1  0
 11 12  1  0
 12  8  1  0
 13  1  1  0
 14 13  1  0
 15 14  2  0
 16 14  2  0
 17 18  1  0
 17 14  1  0
 18 19  1  0
 19 23  1  0
 20 21  1  0
 20 19  2  0
 21 22  1  0
 22 23  2  0
 22 24  1  0
  1 25  1  0
  1 26  1  0
  2 27  1  0
  3 28  1  0
  9 29  1  0
 10 30  1  0
 11 31  1  0
 13 32  1  0
 17 33  1  0
 17 34  1  0
 24 35  1  0
M  ISO  8  25   8  26   8  27  14  28  14  29  14  30  14  31  14  32   5
M  ISO  3  33   8  34   8  35   3
M  END
>  <minimizedAffinity>  (1) 
-4.1403985

>  <minimizedRMSD>  (1) 
0.180881426

$$$$
