
     RDKit          3D

 35 37  0  0  0  0  0  0  0  0999 V2000
   39.9160   23.9010   33.5120 C   0  0  0  0  0  0  0  0  0  0  0  0
   37.7250   22.4170   36.1880 C   0  0  0  0  0  0  0  0  0  0  0  0
   38.7150   23.1550   35.5490 C   0  0  0  0  0  0  0  0  0  0  0  0
   38.8480   23.1000   34.1640 C   0  0  0  0  0  0  0  0  0  0  0  0
   37.9790   22.3080   33.5090 N   0  0  0  0  0  0  0  0  0  0  0  0
   37.0130   21.5910   34.1670 C   0  0  0  0  0  0  0  0  0  0  0  0
   36.8880   21.6420   35.4600 N   0  0  0  0  0  0  0  0  0  0  0  0
   36.1160   20.7590   33.3910 C   0  0  0  0  0  0  0  0  0  0  0  0
   35.2440   21.3650   32.4990 C   0  0  0  0  0  0  0  0  0  0  0  0
   34.5000   20.3600   31.8850 C   0  0  0  0  0  0  0  0  0  0  0  0
   34.9630   19.1810   32.4420 C   0  0  0  0  0  0  0  0  0  0  0  0
   35.8990   19.4740   33.3080 O   0  0  0  0  0  0  0  0  0  0  0  0
   39.2670   25.0520   32.9630 N   0  0  0  0  0  0  0  0  0  0  0  0
   39.7790   25.2270   31.3440 S   0  0  0  0  0  0  0  0  0  0  0  0
   39.8480   26.6850   30.9430 O   0  0  0  0  0  0  0  0  0  0  0  0
   41.1180   24.6330   31.1860 O   0  0  0  0  0  0  0  0  0  0  0  0
   38.5790   24.4290   30.3230 C   0  0  0  0  0  0  0  0  0  0  0  0
   36.9110   24.5720   30.9340 S   0  0  0  0  0  0  0  0  0  0  0  0
   36.4900   26.1870   31.5150 C   0  0  0  0  0  0  0  0  0  0  0  0
   36.1240   27.1940   30.6710 N   0  0  0  0  0  0  0  0  0  0  0  0
   35.8670   28.2770   31.3530 O   0  0  0  0  0  0  0  0  0  0  0  0
   36.0520   28.0250   32.6420 C   0  0  0  0  0  0  0  0  0  0  0  0
   36.4320   26.7490   32.7310 N   0  0  0  0  0  0  0  0  0  0  0  0
   35.8760   29.0620   34.0920 S   0  0  0  0  0  0  0  0  0  0  0  0
   40.6714   24.2047   34.2517 H   0  0  0  0  0  0  0  0  0  0  0  0
   40.4353   23.3222   32.7340 H   0  0  0  0  0  0  0  0  0  0  0  0
   37.6224   22.4630   37.2822 H   0  0  0  0  0  0  0  0  0  0  0  0
   39.3960   23.7850   36.1400 H   0  0  0  0  0  0  0  0  0  0  0  0
   35.1557   22.4451   32.3103 H   0  0  0  0  0  0  0  0  0  0  0  0
   33.7153   20.4780   31.1232 H   0  0  0  0  0  0  0  0  0  0  0  0
   34.6052   18.1698   32.1983 H   0  0  0  0  0  0  0  0  0  0  0  0
   38.2453   24.9250   32.9944 H   0  0  0  0  0  0  0  0  0  0  0  0
   38.8343   23.3611   30.2566 H   0  0  0  0  0  0  0  0  0  0  0  0
   38.6068   24.9285   29.3433 H   0  0  0  0  0  0  0  0  0  0  0  0
   36.0061   28.2956   35.2201 H   0  0  0  0  0  0  0  0  0  0  0  0
  1  4  1  0
  3  2  2  0
  4  3  1  0
  5  4  2  0
  5  6  1  0
  6  7  2  0
  7  2  1  0
  8  6  1  0
  9  8  2  0
 10 11  2  0
 10  9  1  0
 11 12  1  0
 12  8  1  0
 13  1  1  0
 14 13  1  0
 15 14  2  0
 16 14  2  0
 17 18  1  0
 17 14  1  0
 18 19  1  0
 19 23  1  0
 20 21  1  0
 20 19  2  0
 21 22  1  0
 22 23  2  0
 22 24  1  0
  1 25  1  0
  1 26  1  0
  2 27  1  0
  3 28  1  0
  9 29  1  0
 10 30  1  0
 11 31  1  0
 13 32  1  0
 17 33  1  0
 17 34  1  0
 24 35  1  0
M  ISO  8  25   8  26   8  27  14  28  14  29  14  30  14  31  14  32   5
M  ISO  3  33   8  34   8  35  11
M  END
>  <minimizedAffinity>  (1) 
-4.10514784

>  <minimizedRMSD>  (1) 
0.467033476

$$$$
