
     RDKit          3D

 20 21  0  0  0  0  0  0  0  0999 V2000
   44.4080   24.1220   36.6580 C   0  0  0  0  0  0  0  0  0  0  0  0
   43.2350   23.3350   36.6020 C   0  0  0  0  0  0  0  0  0  0  0  0
   42.2160   23.7400   35.7610 C   0  0  0  0  0  0  0  0  0  0  0  0
   42.3730   24.8770   35.0170 N   0  0  0  0  0  0  0  0  0  0  0  0
   43.4990   25.6030   35.0920 C   0  0  0  0  0  0  0  0  0  0  0  0
   44.5150   25.2290   35.9080 N   0  0  0  0  0  0  0  0  0  0  0  0
   41.0530   22.8880   35.7590 C   0  0  0  0  0  0  0  0  0  0  0  0
   40.9670   21.7980   35.1260 O   0  0  0  0  0  0  0  0  0  0  0  0
   39.8770   23.3070   36.5450 C   0  0  0  0  0  0  0  0  0  0  0  0
   39.7040   22.9380   37.8610 C   0  0  0  0  0  0  0  0  0  0  0  0
   38.6080   23.3270   38.5990 C   0  0  0  0  0  0  0  0  0  0  0  0
   37.6650   24.1070   37.9950 N   0  0  0  0  0  0  0  0  0  0  0  0
   37.8330   24.4700   36.7050 C   0  0  0  0  0  0  0  0  0  0  0  0
   38.9170   24.0720   36.0130 N   0  0  0  0  0  0  0  0  0  0  0  0
   45.2359   23.8256   37.3189 H   0  0  0  0  0  0  0  0  0  0  0  0
   43.1360   22.4247   37.2115 H   0  0  0  0  0  0  0  0  0  0  0  0
   43.5990   26.5137   34.4833 H   0  0  0  0  0  0  0  0  0  0  0  0
   40.4693   22.3096   38.3400 H   0  0  0  0  0  0  0  0  0  0  0  0
   38.4957   23.0169   39.6484 H   0  0  0  0  0  0  0  0  0  0  0  0
   37.0752   25.0982   36.2140 H   0  0  0  0  0  0  0  0  0  0  0  0
  2  1  2  0
  3  2  1  0
  4  5  1  0
  4  3  2  0
  5  6  2  0
  6  1  1  0
  7  3  1  0
  7  9  1  0
  8  7  2  0
  9 10  2  0
 10 11  1  0
 12 11  2  0
 13 12  1  0
 14  9  1  0
 14 13  2  0
  1 15  1  0
  2 16  1  0
  5 17  1  0
 10 18  1  0
 11 19  1  0
 13 20  1  0
M  ISO  6  15  14  16  14  17  14  18  14  19  14  20  14
M  END
>  <minimizedAffinity>  (1) 
-3.72907305

>  <minimizedRMSD>  (1) 
4.41420031

$$$$
