
     RDKit          3D

 18 19  0  0  0  0  0  0  0  0999 V2000
   41.2610   21.7220   37.5480 C   0  0  0  0  0  0  0  0  0  0  0  0
   40.0560   22.3090   37.1600 C   0  0  0  0  0  0  0  0  0  0  0  0
   39.8460   22.4420   35.7940 C   0  0  0  0  0  0  0  0  0  0  0  0
   40.7940   22.0080   34.9140 N   0  0  0  0  0  0  0  0  0  0  0  0
   41.9440   21.4460   35.3380 C   0  0  0  0  0  0  0  0  0  0  0  0
   42.1700   21.3060   36.6580 N   0  0  0  0  0  0  0  0  0  0  0  0
   38.6050   23.0470   35.3740 C   0  0  0  0  0  0  0  0  0  0  0  0
   38.4620   24.2640   35.1100 O   0  0  0  0  0  0  0  0  0  0  0  0
   37.4680   22.1240   35.2660 C   0  0  0  0  0  0  0  0  0  0  0  0
   37.2710   21.7900   33.9960 C   0  0  0  0  0  0  0  0  0  0  0  0
   35.8030   20.6240   34.0180 S   0  0  0  0  0  0  0  0  0  0  0  0
   35.7410   20.8370   35.9140 C   0  0  0  0  0  0  0  0  0  0  0  0
   36.6030   21.5420   36.0510 N   0  0  0  0  0  0  0  0  0  0  0  0
   41.4707   21.5970   38.6206 H   0  0  0  0  0  0  0  0  0  0  0  0
   39.3127   22.6480   37.8965 H   0  0  0  0  0  0  0  0  0  0  0  0
   42.6936   21.1037   34.6094 H   0  0  0  0  0  0  0  0  0  0  0  0
   37.8454   22.1252   33.1198 H   0  0  0  0  0  0  0  0  0  0  0  0
   35.0588   20.3967   36.6561 H   0  0  0  0  0  0  0  0  0  0  0  0
  2  1  2  0
  3  2  1  0
  4  5  1  0
  4  3  2  0
  5  6  2  0
  6  1  1  0
  7  3  1  0
  8  7  2  0
  9  7  1  0
  9 13  1  0
 10 11  1  0
 10  9  2  0
 11 12  1  0
 12 13  2  0
  1 14  1  0
  2 15  1  0
  5 16  1  0
 10 17  1  0
 12 18  1  0
M  ISO  5  14  14  15  14  16  14  17  14  18  14
M  END
>  <minimizedAffinity>  (1) 
-3.19135642

>  <minimizedRMSD>  (1) 
2.98446441

$$$$
