
     RDKit          3D

 19 20  0  0  0  0  0  0  0  0999 V2000
   44.0390   24.4190   35.9370 C   0  0  0  0  0  0  0  0  0  0  0  0
   42.6580   24.1900   35.8100 C   0  0  0  0  0  0  0  0  0  0  0  0
   42.2480   22.8690   35.7250 C   0  0  0  0  0  0  0  0  0  0  0  0
   43.1610   21.8520   35.7650 N   0  0  0  0  0  0  0  0  0  0  0  0
   44.4900   22.1210   35.8900 C   0  0  0  0  0  0  0  0  0  0  0  0
   44.9190   23.3920   35.9750 N   0  0  0  0  0  0  0  0  0  0  0  0
   40.8390   22.6320   35.5940 C   0  0  0  0  0  0  0  0  0  0  0  0
   40.2960   22.0480   34.6280 O   0  0  0  0  0  0  0  0  0  0  0  0
   39.8980   23.0770   36.6250 C   0  0  0  0  0  0  0  0  0  0  0  0
   39.7600   22.8130   37.9350 C   0  0  0  0  0  0  0  0  0  0  0  0
   38.7420   23.4130   38.6300 C   0  0  0  0  0  0  0  0  0  0  0  0
   37.9020   24.2710   37.9290 C   0  0  0  0  0  0  0  0  0  0  0  0
   38.5500   24.2400   36.2480 S   0  0  0  0  0  0  0  0  0  0  0  0
   44.4110   25.4518   36.0068 H   0  0  0  0  0  0  0  0  0  0  0  0
   41.9369   25.0201   35.7795 H   0  0  0  0  0  0  0  0  0  0  0  0
   45.2155   21.2948   35.9215 H   0  0  0  0  0  0  0  0  0  0  0  0
   40.4533   22.1259   38.4422 H   0  0  0  0  0  0  0  0  0  0  0  0
   38.5950   23.2225   39.7034 H   0  0  0  0  0  0  0  0  0  0  0  0
   37.0407   24.8379   38.3122 H   0  0  0  0  0  0  0  0  0  0  0  0
  1  6  2  0
  2  1  1  0
  3  4  1  0
  3  2  2  0
  4  5  2  0
  5  6  1  0
  7  3  1  0
  7  9  1  0
  8  7  2  0
  9 10  2  0
 10 11  1  0
 12 11  2  0
 13  9  1  0
 13 12  1  0
  1 14  1  0
  2 15  1  0
  5 16  1  0
 10 17  1  0
 11 18  1  0
 12 19  1  0
M  ISO  6  14  14  15  14  16  14  17  14  18  14  19  14
M  END
>  <minimizedAffinity>  (1) 
-3.1907661

>  <minimizedRMSD>  (1) 
4.44666862

$$$$
