
     RDKit          3D

 14 14  0  0  0  0  0  0  0  0999 V2000
   41.6810   21.5820   36.9240 C   0  0  0  0  0  0  0  0  0  0  0  0
   40.6520   22.2010   37.6720 C   0  0  0  0  0  0  0  0  0  0  0  0
   39.6210   22.8150   36.9840 C   0  0  0  0  0  0  0  0  0  0  0  0
   39.6260   22.8070   35.6370 N   0  0  0  0  0  0  0  0  0  0  0  0
   40.6100   22.2150   34.9360 C   0  0  0  0  0  0  0  0  0  0  0  0
   41.6310   21.6060   35.5770 N   0  0  0  0  0  0  0  0  0  0  0  0
   38.6240   23.4150   37.8180 C   0  0  0  0  0  0  0  0  0  0  0  0
   38.7520   23.7090   39.0500 O   0  0  0  0  0  0  0  0  0  0  0  0
   37.4090   23.6580   37.0780 N   0  0  0  0  0  0  0  0  0  0  0  0
   42.5165   21.0844   37.4382 H   0  0  0  0  0  0  0  0  0  0  0  0
   40.6713   22.1942   38.7718 H   0  0  0  0  0  0  0  0  0  0  0  0
   40.5829   22.2270   33.8364 H   0  0  0  0  0  0  0  0  0  0  0  0
   36.5982   24.0875   37.5459 H   0  0  0  0  0  0  0  0  0  0  0  0
   37.3527   23.4019   36.0819 H   0  0  0  0  0  0  0  0  0  0  0  0
  1  2  2  0
  3  2  1  0
  3  7  1  0
  4  3  2  0
  5  6  2  0
  5  4  1  0
  6  1  1  0
  7  8  2  0
  9  7  1  0
  1 10  1  0
  2 11  1  0
  5 12  1  0
  9 13  1  0
  9 14  1  0
M  ISO  3  10  14  11  14  12  14
M  END
>  <minimizedAffinity>  (1) 
-2.83574271

>  <minimizedRMSD>  (1) 
1.12091267

$$$$
