
     RDKit          3D

 19 20  0  0  0  0  0  0  0  0999 V2000
   40.9950   22.0270   37.4970 C   0  0  0  0  0  0  0  0  0  0  0  0
   39.7660   22.7170   37.5470 C   0  0  0  0  0  0  0  0  0  0  0  0
   39.4900   23.5990   36.5100 C   0  0  0  0  0  0  0  0  0  0  0  0
   40.3860   23.7710   35.5020 N   0  0  0  0  0  0  0  0  0  0  0  0
   41.5570   23.0880   35.4930 C   0  0  0  0  0  0  0  0  0  0  0  0
   41.8450   22.2280   36.4870 N   0  0  0  0  0  0  0  0  0  0  0  0
   38.2300   24.2830   36.5930 C   0  0  0  0  0  0  0  0  0  0  0  0
   37.2170   23.8780   37.2500 O   0  0  0  0  0  0  0  0  0  0  0  0
   37.4740   26.9890   34.3440 N   0  0  0  0  0  0  0  0  0  0  0  0
   37.4870   25.6920   34.6500 N   0  0  0  0  0  0  0  0  0  0  0  0
   38.0350   25.5510   35.8920 C   0  0  0  0  0  0  0  0  0  0  0  0
   38.3560   26.8210   36.3330 C   0  0  0  0  0  0  0  0  0  0  0  0
   37.9970   27.7210   35.3490 C   0  0  0  0  0  0  0  0  0  0  0  0
   41.2554   21.3176   38.2964 H   0  0  0  0  0  0  0  0  0  0  0  0
   39.0557   22.5631   38.3727 H   0  0  0  0  0  0  0  0  0  0  0  0
   42.2731   23.2371   34.6715 H   0  0  0  0  0  0  0  0  0  0  0  0
   37.1140   27.3789   33.4612 H   0  0  0  0  0  0  0  0  0  0  0  0
   38.8173   27.0713   37.2997 H   0  0  0  0  0  0  0  0  0  0  0  0
   38.1140   28.8144   35.3788 H   0  0  0  0  0  0  0  0  0  0  0  0
  1  2  2  0
  3  7  1  0
  3  2  1  0
  4  3  2  0
  5  4  1  0
  5  6  2  0
  6  1  1  0
  7  8  2  0
  9 10  1  0
  9 13  1  0
 10 11  2  0
 11 12  1  0
 11  7  1  0
 13 12  2  0
  1 14  1  0
  2 15  1  0
  5 16  1  0
  9 17  1  0
 12 18  1  0
 13 19  1  0
M  ISO  6  14  14  15  14  16  14  17   9  18  14  19  14
M  END
>  <minimizedAffinity>  (1) 
-3.66167068

>  <minimizedRMSD>  (1) 
3.10170007

$$$$
