
     RDKit          3D

 32 34  0  0  0  0  0  0  0  0999 V2000
   37.5140   25.1740   33.2910 N   0  0  0  0  0  0  0  0  0  0  0  0
   37.9520   24.1680   34.0400 N   0  0  0  0  0  0  0  0  0  0  0  0
   38.1200   24.6220   35.3130 C   0  0  0  0  0  0  0  0  0  0  0  0
   37.7630   25.9470   35.3040 C   0  0  0  0  0  0  0  0  0  0  0  0
   37.3850   26.2830   34.0300 C   0  0  0  0  0  0  0  0  0  0  0  0
   36.9400   27.5360   33.5500 N   0  0  0  0  0  0  0  0  0  0  0  0
   37.2360   27.9420   32.1900 C   0  0  0  0  0  0  0  0  0  0  0  0
   35.8920   28.1700   31.5230 C   0  0  0  0  0  0  0  0  0  0  0  0
   34.9910   28.8400   32.3140 O   0  0  0  0  0  0  0  0  0  0  0  0
   35.5190   29.4370   33.4370 C   0  0  0  0  0  0  0  0  0  0  0  0
   36.1860   28.4540   34.3790 C   0  0  0  0  0  0  0  0  0  0  0  0
   38.5900   23.8270   36.4480 C   0  0  0  0  0  0  0  0  0  0  0  0
   37.7240   23.6480   37.3740 O   0  0  0  0  0  0  0  0  0  0  0  0
   41.4510   21.6950   37.3600 C   0  0  0  0  0  0  0  0  0  0  0  0
   40.1470   22.2390   37.3050 C   0  0  0  0  0  0  0  0  0  0  0  0
   39.9210   23.3130   36.4680 C   0  0  0  0  0  0  0  0  0  0  0  0
   40.9420   23.8080   35.7310 N   0  0  0  0  0  0  0  0  0  0  0  0
   42.1820   23.2790   35.7920 C   0  0  0  0  0  0  0  0  0  0  0  0
   42.4250   22.2250   36.6070 N   0  0  0  0  0  0  0  0  0  0  0  0
   37.3036   25.1099   32.2848 H   0  0  0  0  0  0  0  0  0  0  0  0
   37.7777   26.6238   36.1710 H   0  0  0  0  0  0  0  0  0  0  0  0
   37.8268   28.8699   32.1875 H   0  0  0  0  0  0  0  0  0  0  0  0
   37.8261   27.1799   31.6600 H   0  0  0  0  0  0  0  0  0  0  0  0
   36.0538   28.7569   30.6068 H   0  0  0  0  0  0  0  0  0  0  0  0
   35.4633   27.1785   31.3153 H   0  0  0  0  0  0  0  0  0  0  0  0
   36.2664   30.1791   33.1197 H   0  0  0  0  0  0  0  0  0  0  0  0
   34.6842   29.8990   33.9845 H   0  0  0  0  0  0  0  0  0  0  0  0
   35.4268   27.9074   34.9576 H   0  0  0  0  0  0  0  0  0  0  0  0
   36.8405   28.9717   35.0957 H   0  0  0  0  0  0  0  0  0  0  0  0
   41.6653   20.8401   38.0182 H   0  0  0  0  0  0  0  0  0  0  0  0
   39.3336   21.8171   37.9136 H   0  0  0  0  0  0  0  0  0  0  0  0
   42.9931   23.7027   35.1815 H   0  0  0  0  0  0  0  0  0  0  0  0
  1  5  1  0
  1  2  1  0
  2  3  2  0
  3 12  1  0
  4  3  1  0
  5  4  2  0
  6  5  1  0
  6 11  1  0
  7  6  1  0
  8  7  1  0
  8  9  1  0
  9 10  1  0
 10 11  1  0
 12 16  1  0
 12 13  2  0
 15 14  2  0
 16 15  1  0
 17 18  1  0
 17 16  2  0
 18 19  2  0
 19 14  1  0
  1 20  1  0
  4 21  1  0
  7 22  1  0
  7 23  1  0
  8 24  1  0
  8 25  1  0
 10 26  1  0
 10 27  1  0
 11 28  1  0
 11 29  1  0
 14 30  1  0
 15 31  1  0
 18 32  1  0
M  ISO  8  20   9  21  14  22  13  23  13  24  13  25  13  26  13  27  13
M  ISO  5  28  13  29  13  30  14  31  14  32  14
M  END
>  <minimizedAffinity>  (1) 
-4.51661539

>  <minimizedRMSD>  (1) 
2.46968389

$$$$
