
     RDKit          3D

 22 23  0  0  0  0  0  0  0  0999 V2000
   39.3000   23.3600   37.0470 C   0  0  0  0  0  0  0  0  0  0  0  0
   38.5770   23.0890   38.0470 O   0  0  0  0  0  0  0  0  0  0  0  0
   42.2390   21.1530   37.2500 C   0  0  0  0  0  0  0  0  0  0  0  0
   40.9520   21.6750   37.4530 C   0  0  0  0  0  0  0  0  0  0  0  0
   40.6330   22.8580   36.8120 C   0  0  0  0  0  0  0  0  0  0  0  0
   41.5540   23.4680   36.0210 N   0  0  0  0  0  0  0  0  0  0  0  0
   42.7830   22.9400   35.8460 C   0  0  0  0  0  0  0  0  0  0  0  0
   43.1050   21.7920   36.4630 N   0  0  0  0  0  0  0  0  0  0  0  0
   37.7500   24.9770   34.2260 N   0  0  0  0  0  0  0  0  0  0  0  0
   38.2500   23.9070   34.8270 N   0  0  0  0  0  0  0  0  0  0  0  0
   38.6850   24.2670   36.0760 C   0  0  0  0  0  0  0  0  0  0  0  0
   38.4270   25.6150   36.2100 C   0  0  0  0  0  0  0  0  0  0  0  0
   37.8370   26.0590   35.0430 C   0  0  0  0  0  0  0  0  0  0  0  0
   37.3790   27.4520   34.7220 C   0  0  0  0  0  0  0  0  0  0  0  0
   35.9990   27.5390   34.7980 F   0  0  0  0  0  0  0  0  0  0  0  0
   37.8910   28.3240   35.6330 F   0  0  0  0  0  0  0  0  0  0  0  0
   37.7590   27.7830   33.4510 F   0  0  0  0  0  0  0  0  0  0  0  0
   42.5339   20.2142   37.7415 H   0  0  0  0  0  0  0  0  0  0  0  0
   40.2238   21.1619   38.0983 H   0  0  0  0  0  0  0  0  0  0  0  0
   43.5166   23.4469   35.2019 H   0  0  0  0  0  0  0  0  0  0  0  0
   37.3525   24.9869   33.2759 H   0  0  0  0  0  0  0  0  0  0  0  0
   38.6522   26.2302   37.0936 H   0  0  0  0  0  0  0  0  0  0  0  0
  1  2  2  0
  3  4  2  0
  5  1  1  0
  5  4  1  0
  6  5  2  0
  7  6  1  0
  7  8  2  0
  8  3  1  0
  9 10  1  0
  9 13  1  0
 10 11  2  0
 11 12  1  0
 11  1  1  0
 13 12  2  0
 14 15  1  0
 14 13  1  0
 14 16  1  0
 17 14  1  0
  3 18  1  0
  4 19  1  0
  7 20  1  0
  9 21  1  0
 12 22  1  0
M  ISO  5  18  14  19  14  20  14  21   9  22  14
M  END
>  <minimizedAffinity>  (1) 
-4.28469086

>  <minimizedRMSD>  (1) 
1.74691236

$$$$
