
     RDKit          3D

 31 32  0  0  0  0  0  0  0  0999 V2000
   38.3030   24.1560   36.1140 C   0  0  0  0  0  0  0  0  0  0  0  0
   37.3950   24.1850   37.0070 O   0  0  0  0  0  0  0  0  0  0  0  0
   41.0230   22.0810   37.4610 C   0  0  0  0  0  0  0  0  0  0  0  0
   39.7470   22.6260   37.2650 C   0  0  0  0  0  0  0  0  0  0  0  0
   39.6300   23.6130   36.3000 C   0  0  0  0  0  0  0  0  0  0  0  0
   40.7070   24.0200   35.5890 N   0  0  0  0  0  0  0  0  0  0  0  0
   41.9310   23.4560   35.8180 C   0  0  0  0  0  0  0  0  0  0  0  0
   42.0710   22.5010   36.7460 N   0  0  0  0  0  0  0  0  0  0  0  0
   37.4460   24.8750   32.6970 N   0  0  0  0  0  0  0  0  0  0  0  0
   37.8230   24.0330   33.6510 N   0  0  0  0  0  0  0  0  0  0  0  0
   37.9180   24.7240   34.8350 C   0  0  0  0  0  0  0  0  0  0  0  0
   37.5830   26.0230   34.5520 C   0  0  0  0  0  0  0  0  0  0  0  0
   37.2870   26.1070   33.2010 C   0  0  0  0  0  0  0  0  0  0  0  0
   36.8690   27.3110   32.4200 C   0  0  0  0  0  0  0  0  0  0  0  0
   35.7820   26.9680   31.4240 C   0  0  0  0  0  0  0  0  0  0  0  0
   36.3320   28.3990   33.3190 C   0  0  0  0  0  0  0  0  0  0  0  0
   38.0200   27.8860   31.6170 C   0  0  0  0  0  0  0  0  0  0  0  0
   41.1645   21.2940   38.2164 H   0  0  0  0  0  0  0  0  0  0  0  0
   38.8794   22.2862   37.8497 H   0  0  0  0  0  0  0  0  0  0  0  0
   42.8044   23.7881   35.2376 H   0  0  0  0  0  0  0  0  0  0  0  0
   37.2969   24.6186   31.7106 H   0  0  0  0  0  0  0  0  0  0  0  0
   37.5542   26.8540   35.2722 H   0  0  0  0  0  0  0  0  0  0  0  0
   34.8679   26.6796   31.9637 H   0  0  0  0  0  0  0  0  0  0  0  0
   35.5738   27.8441   30.7923 H   0  0  0  0  0  0  0  0  0  0  0  0
   36.1143   26.1311   30.7923 H   0  0  0  0  0  0  0  0  0  0  0  0
   36.4749   28.1095   34.3706 H   0  0  0  0  0  0  0  0  0  0  0  0
   36.8704   29.3375   33.1207 H   0  0  0  0  0  0  0  0  0  0  0  0
   35.2596   28.5425   33.1207 H   0  0  0  0  0  0  0  0  0  0  0  0
   38.7895   28.2704   32.3027 H   0  0  0  0  0  0  0  0  0  0  0  0
   38.4540   27.0989   30.9830 H   0  0  0  0  0  0  0  0  0  0  0  0
   37.6513   28.7058   30.9830 H   0  0  0  0  0  0  0  0  0  0  0  0
  1  5  1  0
  1  2  2  0
  4  3  2  0
  5  4  1  0
  6  7  1  0
  6  5  2  0
  7  8  2  0
  8  3  1  0
  9 13  1  0
  9 10  1  0
 10 11  2  0
 11  1  1  0
 12 11  1  0
 13 12  2  0
 14 13  1  0
 14 16  1  0
 15 14  1  0
 17 14  1  0
  3 18  1  0
  4 19  1  0
  7 20  1  0
  9 21  1  0
 12 22  1  0
 15 23  1  0
 15 24  1  0
 15 25  1  0
 16 26  1  0
 16 27  1  0
 16 28  1  0
 17 29  1  0
 17 30  1  0
 17 31  1  0
M  ISO  8  18  14  19  14  20  14  21   9  22  14  23   8  24   8  25   8
M  ISO  6  26   8  27   8  28   8  29   8  30   8  31   8
M  END
>  <minimizedAffinity>  (1) 
-4.23093939

>  <minimizedRMSD>  (1) 
2.43246722

$$$$
