
     RDKit          3D

 32 34  0  0  0  0  0  0  0  0999 V2000
   36.5590   26.8720   32.7360 N   0  0  0  0  0  0  0  0  0  0  0  0
   37.1320   25.8120   33.3230 N   0  0  0  0  0  0  0  0  0  0  0  0
   37.5350   26.1960   34.5650 C   0  0  0  0  0  0  0  0  0  0  0  0
   37.1940   27.5150   34.7220 C   0  0  0  0  0  0  0  0  0  0  0  0
   36.5730   27.9350   33.5510 C   0  0  0  0  0  0  0  0  0  0  0  0
   36.0560   29.3070   33.3240 C   0  0  0  0  0  0  0  0  0  0  0  0
   35.4090   29.8830   34.5640 C   0  0  0  0  0  0  0  0  0  0  0  0
   33.9660   29.4870   34.5310 C   0  0  0  0  0  0  0  0  0  0  0  0
   33.6470   29.3170   33.0550 C   0  0  0  0  0  0  0  0  0  0  0  0
   34.9660   29.3880   32.3120 C   0  0  0  0  0  0  0  0  0  0  0  0
   38.2070   25.3270   35.5300 C   0  0  0  0  0  0  0  0  0  0  0  0
   37.4460   24.8760   36.4590 O   0  0  0  0  0  0  0  0  0  0  0  0
   41.3670   23.4680   35.7240 C   0  0  0  0  0  0  0  0  0  0  0  0
   40.0050   23.7790   35.8400 C   0  0  0  0  0  0  0  0  0  0  0  0
   39.6030   25.0400   35.3990 C   0  0  0  0  0  0  0  0  0  0  0  0
   40.5080   25.9010   34.8860 N   0  0  0  0  0  0  0  0  0  0  0  0
   41.8190   25.5570   34.7940 C   0  0  0  0  0  0  0  0  0  0  0  0
   42.2300   24.3370   35.2160 N   0  0  0  0  0  0  0  0  0  0  0  0
   36.1613   26.8695   31.7859 H   0  0  0  0  0  0  0  0  0  0  0  0
   37.3787   28.1306   35.6147 H   0  0  0  0  0  0  0  0  0  0  0  0
   36.9556   29.8500   32.9986 H   0  0  0  0  0  0  0  0  0  0  0  0
   35.8915   29.4764   35.4650 H   0  0  0  0  0  0  0  0  0  0  0  0
   35.5144   30.9777   34.5885 H   0  0  0  0  0  0  0  0  0  0  0  0
   33.8103   28.5425   35.0729 H   0  0  0  0  0  0  0  0  0  0  0  0
   33.3182   30.2335   35.0138 H   0  0  0  0  0  0  0  0  0  0  0  0
   33.1661   28.3431   32.8810 H   0  0  0  0  0  0  0  0  0  0  0  0
   32.9553   30.0986   32.7077 H   0  0  0  0  0  0  0  0  0  0  0  0
   35.0453   28.5475   31.6068 H   0  0  0  0  0  0  0  0  0  0  0  0
   35.0380   30.3247   31.7398 H   0  0  0  0  0  0  0  0  0  0  0  0
   41.7265   22.4845   36.0608 H   0  0  0  0  0  0  0  0  0  0  0  0
   39.2854   23.0608   36.2600 H   0  0  0  0  0  0  0  0  0  0  0  0
   42.5466   26.2688   34.3770 H   0  0  0  0  0  0  0  0  0  0  0  0
  1  2  1  0
  1  5  1  0
  2  3  2  0
  3  4  1  0
  3 11  1  0
  5  4  2  0
  6  5  1  0
  6  7  1  0
  8  7  1  0
  9  8  1  0
 10  9  1  0
 10  6  1  0
 11 12  2  0
 13 14  2  0
 15 11  1  0
 15 14  1  0
 16 15  2  0
 17 16  1  0
 17 18  2  0
 18 13  1  0
  1 19  1  0
  4 20  1  0
  6 21  1  0
  7 22  1  0
  7 23  1  0
  8 24  1  0
  8 25  1  0
  9 26  1  0
  9 27  1  0
 10 28  1  0
 10 29  1  0
 13 30  1  0
 14 31  1  0
 17 32  1  0
M  ISO  8  19   9  20  14  21  13  22  13  23  13  24  13  25  13  26  13
M  ISO  6  27  13  28  13  29  13  30  14  31  14  32  14
M  END
>  <minimizedAffinity>  (1) 
-4.22125721

>  <minimizedRMSD>  (1) 
2.41618872

$$$$
