
     RDKit          3D

 26 28  0  0  0  0  0  0  0  0999 V2000
   36.7350   26.6130   32.7450 N   0  0  0  0  0  0  0  0  0  0  0  0
   37.3560   25.5890   33.3070 N   0  0  0  0  0  0  0  0  0  0  0  0
   37.6560   25.9020   34.5920 C   0  0  0  0  0  0  0  0  0  0  0  0
   37.1840   27.1750   34.7910 C   0  0  0  0  0  0  0  0  0  0  0  0
   36.6040   27.6270   33.6330 C   0  0  0  0  0  0  0  0  0  0  0  0
   35.9750   28.9200   33.3900 C   0  0  0  0  0  0  0  0  0  0  0  0
   35.5540   29.7940   34.3710 C   0  0  0  0  0  0  0  0  0  0  0  0
   35.0340   30.8610   33.7250 N   0  0  0  0  0  0  0  0  0  0  0  0
   35.1430   30.6250   32.4080 C   0  0  0  0  0  0  0  0  0  0  0  0
   35.7290   29.4170   32.1640 N   0  0  0  0  0  0  0  0  0  0  0  0
   38.3410   25.0430   35.5480 C   0  0  0  0  0  0  0  0  0  0  0  0
   37.5870   24.5380   36.4550 O   0  0  0  0  0  0  0  0  0  0  0  0
   41.5960   23.3520   35.8570 C   0  0  0  0  0  0  0  0  0  0  0  0
   40.2180   23.6100   35.9470 C   0  0  0  0  0  0  0  0  0  0  0  0
   39.7560   24.8120   35.4400 C   0  0  0  0  0  0  0  0  0  0  0  0
   40.6240   25.7050   34.8750 N   0  0  0  0  0  0  0  0  0  0  0  0
   41.9450   25.4120   34.8100 C   0  0  0  0  0  0  0  0  0  0  0  0
   42.4150   24.2590   35.2930 N   0  0  0  0  0  0  0  0  0  0  0  0
   36.3992   26.6358   31.7715 H   0  0  0  0  0  0  0  0  0  0  0  0
   37.2589   27.7429   35.7301 H   0  0  0  0  0  0  0  0  0  0  0  0
   35.6269   29.6512   35.4592 H   0  0  0  0  0  0  0  0  0  0  0  0
   34.8029   31.3180   31.6243 H   0  0  0  0  0  0  0  0  0  0  0  0
   35.9354   28.9853   31.2519 H   0  0  0  0  0  0  0  0  0  0  0  0
   42.0056   22.4087   36.2475 H   0  0  0  0  0  0  0  0  0  0  0  0
   39.5309   22.8827   36.4041 H   0  0  0  0  0  0  0  0  0  0  0  0
   42.6393   26.1329   34.3536 H   0  0  0  0  0  0  0  0  0  0  0  0
  1  2  1  0
  1  5  1  0
  2  3  2  0
  3  4  1  0
  3 11  1  0
  5  4  2  0
  6  5  1  0
  6  7  2  0
  8  7  1  0
  9  8  2  0
 10  9  1  0
 10  6  1  0
 11 12  2  0
 13 14  2  0
 15 11  1  0
 15 14  1  0
 16 15  2  0
 17 16  1  0
 17 18  2  0
 18 13  1  0
  1 19  1  0
  4 20  1  0
  7 21  1  0
  9 22  1  0
 10 23  1  0
 13 24  1  0
 14 25  1  0
 17 26  1  0
M  ISO  8  19   9  20  14  21  14  22  14  23   9  24  14  25  14  26  14
M  END
>  <minimizedAffinity>  (1) 
-3.85959601

>  <minimizedRMSD>  (1) 
2.49170327

$$$$
