
     RDKit          3D

 26 27  0  0  0  0  0  0  0  0999 V2000
   37.3420   25.5080   32.6180 N   0  0  0  0  0  0  0  0  0  0  0  0
   37.6300   24.6910   33.6200 N   0  0  0  0  0  0  0  0  0  0  0  0
   38.2120   25.4150   34.6120 C   0  0  0  0  0  0  0  0  0  0  0  0
   38.2580   26.7090   34.1500 C   0  0  0  0  0  0  0  0  0  0  0  0
   37.7140   26.7850   32.8950 C   0  0  0  0  0  0  0  0  0  0  0  0
   37.5690   27.9320   32.0650 N   0  0  0  0  0  0  0  0  0  0  0  0
   36.3560   28.2360   31.4150 C   0  0  0  0  0  0  0  0  0  0  0  0
   35.2570   27.9380   32.0470 N   0  0  0  0  0  0  0  0  0  0  0  0
   36.4150   28.8500   30.1100 N   0  0  0  0  0  0  0  0  0  0  0  0
   34.3490   28.1560   31.5800 H   0  0  0  0  0  0  0  0  0  0  0  0
   38.6810   24.9020   35.8910 C   0  0  0  0  0  0  0  0  0  0  0  0
   38.1180   25.4300   36.9080 O   0  0  0  0  0  0  0  0  0  0  0  0
   40.5500   21.9420   37.0320 C   0  0  0  0  0  0  0  0  0  0  0  0
   39.5560   22.9520   36.9670 C   0  0  0  0  0  0  0  0  0  0  0  0
   39.6930   23.8870   35.9460 C   0  0  0  0  0  0  0  0  0  0  0  0
   40.7270   23.8180   35.0770 N   0  0  0  0  0  0  0  0  0  0  0  0
   41.6560   22.8300   35.1810 C   0  0  0  0  0  0  0  0  0  0  0  0
   41.5500   21.9100   36.1570 N   0  0  0  0  0  0  0  0  0  0  0  0
   36.8927   25.2125   31.7396 H   0  0  0  0  0  0  0  0  0  0  0  0
   38.6724   27.5615   34.7082 H   0  0  0  0  0  0  0  0  0  0  0  0
   38.3755   28.5594   31.9353 H   0  0  0  0  0  0  0  0  0  0  0  0
   37.3273   29.0540   29.6776 H   0  0  0  0  0  0  0  0  0  0  0  0
   35.5448   29.0841   29.6112 H   0  0  0  0  0  0  0  0  0  0  0  0
   40.4924   21.1744   37.8178 H   0  0  0  0  0  0  0  0  0  0  0  0
   38.7230   22.9936   37.6842 H   0  0  0  0  0  0  0  0  0  0  0  0
   42.4926   22.7832   34.4683 H   0  0  0  0  0  0  0  0  0  0  0  0
  1  5  1  0
  1  2  1  0
  2  3  2  0
  3 11  1  0
  4  3  1  0
  5  4  2  0
  6  5  1  0
  7  8  2  0
  7  6  1  0
  9  7  1  0
 10  8  1  0
 11 15  1  0
 11 12  2  0
 14 13  2  0
 15 14  1  0
 16 17  1  0
 16 15  2  0
 17 18  2  0
 18 13  1  0
  1 19  1  0
  4 20  1  0
  6 21  1  0
  9 22  1  0
  9 23  1  0
 13 24  1  0
 14 25  1  0
 17 26  1  0
M  ISO  5  19   9  20  14  24  14  25  14  26  14
M  END
>  <minimizedAffinity>  (1) 
-3.84753323

>  <minimizedRMSD>  (1) 
3.2158668

$$$$
