
     RDKit          3D

 39 43  0  0  0  0  0  0  0  0999 V2000
   36.7450   24.5920   31.9080 C   0  0  0  0  0  0  0  0  0  0  0  0
   36.2490   25.8900   31.9500 C   0  0  0  0  0  0  0  0  0  0  0  0
   36.7940   26.6820   32.9470 C   0  0  0  0  0  0  0  0  0  0  0  0
   37.7070   26.1630   33.7490 N   0  0  0  0  0  0  0  0  0  0  0  0
   38.1880   24.9430   33.7280 C   0  0  0  0  0  0  0  0  0  0  0  0
   37.6700   24.1820   32.7760 N   0  0  0  0  0  0  0  0  0  0  0  0
   39.1750   24.2540   34.5350 C   0  0  0  0  0  0  0  0  0  0  0  0
   40.3780   23.8390   34.0130 C   0  0  0  0  0  0  0  0  0  0  0  0
   41.3450   23.1840   34.7340 C   0  0  0  0  0  0  0  0  0  0  0  0
   41.1310   22.9060   36.0720 C   0  0  0  0  0  0  0  0  0  0  0  0
   39.9640   23.2910   36.6350 C   0  0  0  0  0  0  0  0  0  0  0  0
   39.7550   23.0110   37.9740 C   0  0  0  0  0  0  0  0  0  0  0  0
   38.6130   23.3620   38.6180 C   0  0  0  0  0  0  0  0  0  0  0  0
   37.6390   24.0290   37.8690 C   0  0  0  0  0  0  0  0  0  0  0  0
   37.8800   24.2920   36.5420 C   0  0  0  0  0  0  0  0  0  0  0  0
   39.0170   23.9460   35.8850 C   0  0  0  0  0  0  0  0  0  0  0  0
   36.3780   28.0270   33.1020 N   0  0  0  0  0  0  0  0  0  0  0  0
   36.3550   28.9870   32.1710 C   0  0  0  0  0  0  0  0  0  0  0  0
   35.9020   30.1210   32.6840 N   0  0  0  0  0  0  0  0  0  0  0  0
   35.6260   29.9020   33.9680 C   0  0  0  0  0  0  0  0  0  0  0  0
   35.9230   28.6090   34.2140 N   0  0  0  0  0  0  0  0  0  0  0  0
   35.1120   30.6750   35.0980 C   0  0  0  0  0  0  0  0  0  0  0  0
   33.8440   30.9280   35.5810 C   0  0  0  0  0  0  0  0  0  0  0  0
   34.0510   31.7370   36.6860 C   0  0  0  0  0  0  0  0  0  0  0  0
   35.3660   31.9540   36.8540 N   0  0  0  0  0  0  0  0  0  0  0  0
   36.0080   31.3050   35.8830 N   0  0  0  0  0  0  0  0  0  0  0  0
   36.3685   23.8926   31.1470 H   0  0  0  0  0  0  0  0  0  0  0  0
   35.4858   26.2581   31.2485 H   0  0  0  0  0  0  0  0  0  0  0  0
   40.5776   24.0450   32.9511 H   0  0  0  0  0  0  0  0  0  0  0  0
   42.2855   22.8816   34.2502 H   0  0  0  0  0  0  0  0  0  0  0  0
   41.8948   22.3824   36.6657 H   0  0  0  0  0  0  0  0  0  0  0  0
   40.5415   22.4859   38.5358 H   0  0  0  0  0  0  0  0  0  0  0  0
   38.4605   23.1317   39.6828 H   0  0  0  0  0  0  0  0  0  0  0  0
   36.6924   24.3391   38.3357 H   0  0  0  0  0  0  0  0  0  0  0  0
   37.0992   24.8184   35.9735 H   0  0  0  0  0  0  0  0  0  0  0  0
   36.6686   28.8534   31.1251 H   0  0  0  0  0  0  0  0  0  0  0  0
   32.8853   30.5683   35.1790 H   0  0  0  0  0  0  0  0  0  0  0  0
   33.2566   32.1417   37.3303 H   0  0  0  0  0  0  0  0  0  0  0  0
   35.7994   32.5192   37.5980 H   0  0  0  0  0  0  0  0  0  0  0  0
  1  2  2  0
  1  6  1  0
  2  3  1  0
  3 17  1  0
  3  4  2  0
  5  4  1  0
  5  7  1  0
  6  5  2  0
  7 16  1  0
  8  7  2  0
  8  9  1  0
  9 10  2  0
 10 11  1  0
 11 12  2  0
 12 13  1  0
 14 13  2  0
 15 14  1  0
 16 15  2  0
 16 11  1  0
 17 21  1  0
 18 19  2  0
 18 17  1  0
 19 20  1  0
 20 21  2  0
 20 22  1  0
 22 23  1  0
 22 26  2  0
 23 24  2  0
 24 25  1  0
 26 25  1  0
  1 27  1  0
  2 28  1  0
  8 29  1  0
  9 30  1  0
 10 31  1  0
 12 32  1  0
 13 33  1  0
 14 34  1  0
 15 35  1  0
 18 36  1  0
 23 37  1  0
 24 38  1  0
 25 39  1  0
M  ISO  8  27  14  28  14  29  14  30  14  31  14  32  14  33  14  34  14
M  ISO  5  35  14  36  14  37  14  38  14  39   9
M  END
>  <minimizedAffinity>  (1) 
-6.77668667

>  <minimizedRMSD>  (1) 
1.93181288

$$$$
