
     RDKit          3D

 38 42  0  0  0  0  0  0  0  0999 V2000
   38.4920   23.6730   36.1670 C   0  0  0  0  0  0  0  0  0  0  0  0
   37.5580   23.3580   36.9700 O   0  0  0  0  0  0  0  0  0  0  0  0
   41.4600   21.7060   37.0940 C   0  0  0  0  0  0  0  0  0  0  0  0
   40.1110   22.0980   36.9450 C   0  0  0  0  0  0  0  0  0  0  0  0
   39.8720   23.3040   36.3030 C   0  0  0  0  0  0  0  0  0  0  0  0
   40.9090   24.0510   35.8470 N   0  0  0  0  0  0  0  0  0  0  0  0
   42.1780   23.6330   36.0120 C   0  0  0  0  0  0  0  0  0  0  0  0
   42.4400   22.4760   36.6290 N   0  0  0  0  0  0  0  0  0  0  0  0
   43.2690   24.4340   35.5260 N   0  0  0  0  0  0  0  0  0  0  0  0
   43.3800   24.8310   34.2300 C   0  0  0  0  0  0  0  0  0  0  0  0
   44.5050   25.5600   34.1110 N   0  0  0  0  0  0  0  0  0  0  0  0
   45.0800   25.6070   35.3280 C   0  0  0  0  0  0  0  0  0  0  0  0
   46.2230   26.1860   35.8420 C   0  0  0  0  0  0  0  0  0  0  0  0
   46.5870   26.0810   37.1490 N   0  0  0  0  0  0  0  0  0  0  0  0
   45.8090   25.3820   37.9990 C   0  0  0  0  0  0  0  0  0  0  0  0
   44.6700   24.7910   37.5420 N   0  0  0  0  0  0  0  0  0  0  0  0
   44.3140   24.9010   36.2370 C   0  0  0  0  0  0  0  0  0  0  0  0
   37.6120   25.0980   32.9670 N   0  0  0  0  0  0  0  0  0  0  0  0
   38.0480   24.1030   33.7230 N   0  0  0  0  0  0  0  0  0  0  0  0
   38.0700   24.4870   35.0160 C   0  0  0  0  0  0  0  0  0  0  0  0
   37.6170   25.7960   35.0370 C   0  0  0  0  0  0  0  0  0  0  0  0
   37.3340   26.1600   33.7410 C   0  0  0  0  0  0  0  0  0  0  0  0
   36.8270   27.4960   33.4210 C   0  0  0  0  0  0  0  0  0  0  0  0
   36.2780   28.2600   34.4280 C   0  0  0  0  0  0  0  0  0  0  0  0
   35.7530   29.5450   34.2400 C   0  0  0  0  0  0  0  0  0  0  0  0
   35.8010   30.0390   32.9900 N   0  0  0  0  0  0  0  0  0  0  0  0
   36.3370   29.3000   31.9990 C   0  0  0  0  0  0  0  0  0  0  0  0
   36.8490   28.0470   32.1840 N   0  0  0  0  0  0  0  0  0  0  0  0
   41.7015   20.7583   37.5976 H   0  0  0  0  0  0  0  0  0  0  0  0
   39.2867   21.4744   37.3214 H   0  0  0  0  0  0  0  0  0  0  0  0
   42.6734   24.5970   33.4201 H   0  0  0  0  0  0  0  0  0  0  0  0
   46.8705   26.7597   35.1625 H   0  0  0  0  0  0  0  0  0  0  0  0
   46.0927   25.2891   39.0577 H   0  0  0  0  0  0  0  0  0  0  0  0
   37.5028   25.0633   31.9434 H   0  0  0  0  0  0  0  0  0  0  0  0
   37.5040   26.4298   35.9289 H   0  0  0  0  0  0  0  0  0  0  0  0
   36.2503   27.8345   35.4420 H   0  0  0  0  0  0  0  0  0  0  0  0
   35.3231   30.1210   35.0727 H   0  0  0  0  0  0  0  0  0  0  0  0
   36.3638   29.7287   30.9863 H   0  0  0  0  0  0  0  0  0  0  0  0
  1  5  1  0
  1  2  2  0
  4  3  2  0
  5  4  1  0
  6  7  1  0
  6  5  2  0
  7  8  2  0
  8  3  1  0
  9  7  1  0
  9 17  1  0
 10  9  1  0
 11 10  2  0
 11 12  1  0
 12 13  2  0
 12 17  1  0
 13 14  1  0
 14 15  2  0
 16 15  1  0
 17 16  2  0
 18 19  1  0
 18 22  1  0
 19 20  2  0
 20 21  1  0
 20  1  1  0
 22 21  2  0
 23 22  1  0
 23 24  2  0
 25 24  1  0
 26 25  2  0
 27 28  2  0
 27 26  1  0
 28 23  1  0
  3 29  1  0
  4 30  1  0
 10 31  1  0
 13 32  1  0
 15 33  1  0
 18 34  1  0
 21 35  1  0
 24 36  1  0
 25 37  1  0
 27 38  1  0
M  ISO  8  29  14  30  14  31  14  32  14  33  14  34   9  35  14  36  14
M  ISO  2  37  14  38  14
M  END
>  <minimizedAffinity>  (1) 
-5.96398544

>  <minimizedRMSD>  (1) 
2.37750006

$$$$
