
     RDKit          3D

 40 43  0  0  0  0  0  0  0  0999 V2000
   38.6020   23.9800   35.8380 C   0  0  0  0  0  0  0  0  0  0  0  0
   37.7480   23.5940   36.7040 O   0  0  0  0  0  0  0  0  0  0  0  0
   41.7020   22.0290   36.1790 C   0  0  0  0  0  0  0  0  0  0  0  0
   40.3220   22.3520   36.1710 C   0  0  0  0  0  0  0  0  0  0  0  0
   39.9980   23.6730   35.8420 C   0  0  0  0  0  0  0  0  0  0  0  0
   40.9780   24.5600   35.5570 N   0  0  0  0  0  0  0  0  0  0  0  0
   42.2740   24.1940   35.5840 C   0  0  0  0  0  0  0  0  0  0  0  0
   42.6180   22.9460   35.8910 N   0  0  0  0  0  0  0  0  0  0  0  0
   43.1610   25.2610   35.2560 N   0  0  0  0  0  0  0  0  0  0  0  0
   44.4030   25.1760   35.7730 C   0  0  0  0  0  0  0  0  0  0  0  0
   45.2550   26.2170   35.4500 C   0  0  0  0  0  0  0  0  0  0  0  0
   46.6690   26.2670   35.9500 C   0  0  0  0  0  0  0  0  0  0  0  0
   44.8560   27.2690   34.6520 C   0  0  0  0  0  0  0  0  0  0  0  0
   45.6120   28.2380   34.3370 O   0  0  0  0  0  0  0  0  0  0  0  0
   43.6060   27.3250   34.1500 N   0  0  0  0  0  0  0  0  0  0  0  0
   42.8080   26.2930   34.4880 C   0  0  0  0  0  0  0  0  0  0  0  0
   41.6070   26.2480   34.0660 O   0  0  0  0  0  0  0  0  0  0  0  0
   37.3290   25.4490   32.7980 N   0  0  0  0  0  0  0  0  0  0  0  0
   37.8450   24.4410   33.4820 N   0  0  0  0  0  0  0  0  0  0  0  0
   38.0450   24.8140   34.7600 C   0  0  0  0  0  0  0  0  0  0  0  0
   37.6210   26.1300   34.8500 C   0  0  0  0  0  0  0  0  0  0  0  0
   37.1750   26.5000   33.5930 C   0  0  0  0  0  0  0  0  0  0  0  0
   36.6600   27.8420   33.3610 C   0  0  0  0  0  0  0  0  0  0  0  0
   36.1070   28.5580   34.4100 C   0  0  0  0  0  0  0  0  0  0  0  0
   35.5830   29.8460   34.2960 C   0  0  0  0  0  0  0  0  0  0  0  0
   35.6240   30.4200   33.0840 N   0  0  0  0  0  0  0  0  0  0  0  0
   36.1630   29.7290   32.0480 C   0  0  0  0  0  0  0  0  0  0  0  0
   36.6660   28.4880   32.1620 N   0  0  0  0  0  0  0  0  0  0  0  0
   42.0183   21.0051   36.4271 H   0  0  0  0  0  0  0  0  0  0  0  0
   39.5493   21.6064   36.4099 H   0  0  0  0  0  0  0  0  0  0  0  0
   44.7179   24.3355   36.4089 H   0  0  0  0  0  0  0  0  0  0  0  0
   46.6692   26.2670   37.0500 H   0  0  0  0  0  0  0  0  0  0  0  0
   47.2189   25.3877   35.5833 H   0  0  0  0  0  0  0  0  0  0  0  0
   47.1554   27.1829   35.5833 H   0  0  0  0  0  0  0  0  0  0  0  0
   43.2846   28.0996   33.5521 H   0  0  0  0  0  0  0  0  0  0  0  0
   37.0836   25.4219   31.7980 H   0  0  0  0  0  0  0  0  0  0  0  0
   37.6360   26.7616   35.7505 H   0  0  0  0  0  0  0  0  0  0  0  0
   36.0791   28.0787   35.3997 H   0  0  0  0  0  0  0  0  0  0  0  0
   35.1542   30.3690   35.1635 H   0  0  0  0  0  0  0  0  0  0  0  0
   36.1897   30.2115   31.0598 H   0  0  0  0  0  0  0  0  0  0  0  0
  1  5  1  0
  1  2  2  0
  4  3  2  0
  5  4  1  0
  6  7  1  0
  6  5  2  0
  7  8  2  0
  8  3  1  0
  9  7  1  0
  9 10  1  0
 11 10  2  0
 11 12  1  0
 13 11  1  0
 14 13  2  0
 15 16  1  0
 15 13  1  0
 16  9  1  0
 17 16  2  0
 18 19  1  0
 18 22  1  0
 19 20  2  0
 20 21  1  0
 20  1  1  0
 22 21  2  0
 23 22  1  0
 23 24  2  0
 25 24  1  0
 26 25  2  0
 27 28  2  0
 27 26  1  0
 28 23  1  0
  3 29  1  0
  4 30  1  0
 10 31  1  0
 12 32  1  0
 12 33  1  0
 12 34  1  0
 15 35  1  0
 18 36  1  0
 21 37  1  0
 24 38  1  0
 25 39  1  0
 27 40  1  0
M  ISO  8  29  14  30  14  31  14  32   8  33   8  34   8  35   9  36   9
M  ISO  4  37  14  38  14  39  14  40  14
M  END
>  <minimizedAffinity>  (1) 
-5.94866896

>  <minimizedRMSD>  (1) 
1.82466745

$$$$
