
     RDKit          3D

 37 40  0  0  0  0  0  0  0  0999 V2000
   38.1550   26.1930   35.3930 C   0  0  0  0  0  0  0  0  0  0  0  0
   38.4610   26.9400   36.3820 O   0  0  0  0  0  0  0  0  0  0  0  0
   38.9110   22.7710   36.5000 C   0  0  0  0  0  0  0  0  0  0  0  0
   38.8160   24.1850   36.4990 C   0  0  0  0  0  0  0  0  0  0  0  0
   38.2460   24.7680   35.3810 C   0  0  0  0  0  0  0  0  0  0  0  0
   37.8080   23.9910   34.3520 N   0  0  0  0  0  0  0  0  0  0  0  0
   37.9250   22.6470   34.4080 C   0  0  0  0  0  0  0  0  0  0  0  0
   38.4710   22.0590   35.4740 N   0  0  0  0  0  0  0  0  0  0  0  0
   37.4490   21.8770   33.3000 N   0  0  0  0  0  0  0  0  0  0  0  0
   38.0990   22.0390   32.1330 C   0  0  0  0  0  0  0  0  0  0  0  0
   37.6940   21.3230   31.0060 C   0  0  0  0  0  0  0  0  0  0  0  0
   36.6190   20.4930   31.2430 C   0  0  0  0  0  0  0  0  0  0  0  0
   36.2140   19.8180   30.2370 O   0  0  0  0  0  0  0  0  0  0  0  0
   35.9450   20.3050   32.3870 N   0  0  0  0  0  0  0  0  0  0  0  0
   36.3990   21.0350   33.4320 C   0  0  0  0  0  0  0  0  0  0  0  0
   35.8100   20.9070   34.5460 O   0  0  0  0  0  0  0  0  0  0  0  0
   36.4660   28.1480   32.8740 N   0  0  0  0  0  0  0  0  0  0  0  0
   36.5700   27.6550   34.0990 N   0  0  0  0  0  0  0  0  0  0  0  0
   37.6820   26.9080   34.2020 C   0  0  0  0  0  0  0  0  0  0  0  0
   38.2920   26.9540   32.9550 C   0  0  0  0  0  0  0  0  0  0  0  0
   37.4980   27.7440   32.1420 C   0  0  0  0  0  0  0  0  0  0  0  0
   37.8720   27.9950   30.7460 C   0  0  0  0  0  0  0  0  0  0  0  0
   38.9610   27.3350   30.2170 C   0  0  0  0  0  0  0  0  0  0  0  0
   39.4250   27.4900   28.9010 C   0  0  0  0  0  0  0  0  0  0  0  0
   38.7230   28.3590   28.1280 N   0  0  0  0  0  0  0  0  0  0  0  0
   37.6640   29.0000   28.6380 C   0  0  0  0  0  0  0  0  0  0  0  0
   37.2250   28.8410   29.9160 N   0  0  0  0  0  0  0  0  0  0  0  0
   39.3564   22.2579   37.3651 H   0  0  0  0  0  0  0  0  0  0  0  0
   39.1773   24.7888   37.3445 H   0  0  0  0  0  0  0  0  0  0  0  0
   38.9484   22.7349   32.0676 H   0  0  0  0  0  0  0  0  0  0  0  0
   38.1841   21.4120   30.0252 H   0  0  0  0  0  0  0  0  0  0  0  0
   35.1472   19.6580   32.4639 H   0  0  0  0  0  0  0  0  0  0  0  0
   35.7016   28.7523   32.5401 H   0  0  0  0  0  0  0  0  0  0  0  0
   39.2298   26.4561   32.6676 H   0  0  0  0  0  0  0  0  0  0  0  0
   39.5044   26.6381   30.8721 H   0  0  0  0  0  0  0  0  0  0  0  0
   40.3003   26.9432   28.5205 H   0  0  0  0  0  0  0  0  0  0  0  0
   37.1166   29.6961   27.9855 H   0  0  0  0  0  0  0  0  0  0  0  0
  1  2  2  0
  4  3  2  0
  5  1  1  0
  5  4  1  0
  6  7  1  0
  6  5  2  0
  7  8  2  0
  8  3  1  0
  9 15  1  0
  9  7  1  0
 10  9  1  0
 11 12  1  0
 11 10  2  0
 12 14  1  0
 13 12  2  0
 14 15  1  0
 15 16  2  0
 17 18  1  0
 18 19  2  0
 19  1  1  0
 20 19  1  0
 21 17  1  0
 21 20  2  0
 22 21  1  0
 23 22  2  0
 24 23  1  0
 25 26  1  0
 25 24  2  0
 26 27  2  0
 27 22  1  0
  3 28  1  0
  4 29  1  0
 10 30  1  0
 11 31  1  0
 14 32  1  0
 17 33  1  0
 20 34  1  0
 23 35  1  0
 24 36  1  0
 26 37  1  0
M  ISO  8  28  14  29  14  30  14  31  14  32   9  33   9  34  14  35  14
M  ISO  2  36  14  37  14
M  END
>  <minimizedAffinity>  (1) 
-5.9131403

>  <minimizedRMSD>  (1) 
6.50470877

$$$$
