
     RDKit          3D

 38 41  0  0  0  0  0  0  0  0999 V2000
   38.5330   26.1650   34.9090 C   0  0  0  0  0  0  0  0  0  0  0  0
   39.1130   26.9000   35.7510 O   0  0  0  0  0  0  0  0  0  0  0  0
   38.5260   22.7890   36.3730 C   0  0  0  0  0  0  0  0  0  0  0  0
   38.6840   24.1780   36.2410 C   0  0  0  0  0  0  0  0  0  0  0  0
   38.3600   24.7360   35.0120 C   0  0  0  0  0  0  0  0  0  0  0  0
   37.9140   23.9480   34.0100 N   0  0  0  0  0  0  0  0  0  0  0  0
   37.7790   22.6100   34.1870 C   0  0  0  0  0  0  0  0  0  0  0  0
   38.0870   22.0560   35.3650 N   0  0  0  0  0  0  0  0  0  0  0  0
   37.3070   21.7850   33.1170 N   0  0  0  0  0  0  0  0  0  0  0  0
   36.0130   21.8140   32.7230 C   0  0  0  0  0  0  0  0  0  0  0  0
   35.5890   21.0080   31.6900 C   0  0  0  0  0  0  0  0  0  0  0  0
   36.5240   20.1920   31.0930 C   0  0  0  0  0  0  0  0  0  0  0  0
   36.1830   19.3390   30.0340 N   0  0  0  0  0  0  0  0  0  0  0  0
   37.7860   20.2060   31.5250 N   0  0  0  0  0  0  0  0  0  0  0  0
   38.2280   20.9810   32.5300 C   0  0  0  0  0  0  0  0  0  0  0  0
   39.4260   20.9880   32.9330 O   0  0  0  0  0  0  0  0  0  0  0  0
   36.6330   27.9470   32.4070 N   0  0  0  0  0  0  0  0  0  0  0  0
   36.7610   27.3710   33.5940 N   0  0  0  0  0  0  0  0  0  0  0  0
   38.0030   26.8730   33.7380 C   0  0  0  0  0  0  0  0  0  0  0  0
   38.6630   27.1720   32.5550 C   0  0  0  0  0  0  0  0  0  0  0  0
   37.7940   27.8400   31.7400 C   0  0  0  0  0  0  0  0  0  0  0  0
   38.1950   28.2940   30.4090 C   0  0  0  0  0  0  0  0  0  0  0  0
   39.5080   28.1260   30.0100 C   0  0  0  0  0  0  0  0  0  0  0  0
   40.0020   28.5230   28.7620 C   0  0  0  0  0  0  0  0  0  0  0  0
   39.1160   29.1000   27.9230 N   0  0  0  0  0  0  0  0  0  0  0  0
   37.8450   29.2660   28.3030 C   0  0  0  0  0  0  0  0  0  0  0  0
   37.3690   28.8840   29.5020 N   0  0  0  0  0  0  0  0  0  0  0  0
   38.7712   22.3040   37.3294 H   0  0  0  0  0  0  0  0  0  0  0  0
   39.0484   24.7965   37.0745 H   0  0  0  0  0  0  0  0  0  0  0  0
   35.2994   22.4816   33.2280 H   0  0  0  0  0  0  0  0  0  0  0  0
   34.5416   21.0157   31.3540 H   0  0  0  0  0  0  0  0  0  0  0  0
   35.2142   19.3128   29.6853 H   0  0  0  0  0  0  0  0  0  0  0  0
   36.9013   18.7384   29.6047 H   0  0  0  0  0  0  0  0  0  0  0  0
   35.7802   28.4034   32.0530 H   0  0  0  0  0  0  0  0  0  0  0  0
   39.7054   26.9156   32.3149 H   0  0  0  0  0  0  0  0  0  0  0  0
   40.2062   27.6520   30.7155 H   0  0  0  0  0  0  0  0  0  0  0  0
   41.0547   28.3730   28.4804 H   0  0  0  0  0  0  0  0  0  0  0  0
   37.1495   29.7415   27.5958 H   0  0  0  0  0  0  0  0  0  0  0  0
  1  5  1  0
  1  2  2  0
  4  3  2  0
  5  4  1  0
  6  7  1  0
  6  5  2  0
  7  8  2  0
  8  3  1  0
  9  7  1  0
 10  9  1  0
 11 10  2  0
 12 14  2  0
 12 11  1  0
 13 12  1  0
 14 15  1  0
 15 16  2  0
 15  9  1  0
 17 18  1  0
 18 19  2  0
 19  1  1  0
 20 19  1  0
 21 17  1  0
 21 20  2  0
 22 21  1  0
 23 22  2  0
 24 23  1  0
 25 26  1  0
 25 24  2  0
 26 27  2  0
 27 22  1  0
  3 28  1  0
  4 29  1  0
 10 30  1  0
 11 31  1  0
 13 32  1  0
 13 33  1  0
 17 34  1  0
 20 35  1  0
 23 36  1  0
 24 37  1  0
 26 38  1  0
M  ISO  8  28  14  29  14  30  14  31  14  34   9  35  14  36  14  37  14
M  ISO  1  38  14
M  END
>  <minimizedAffinity>  (1) 
-5.72528458

>  <minimizedRMSD>  (1) 
6.64312696

$$$$
