
     RDKit          3D

 40 44  0  0  0  0  0  0  0  0999 V2000
   36.8050   24.4090   31.8540 C   0  0  0  0  0  0  0  0  0  0  0  0
   36.2950   25.7080   31.8560 C   0  0  0  0  0  0  0  0  0  0  0  0
   36.8250   26.5170   32.8300 C   0  0  0  0  0  0  0  0  0  0  0  0
   37.7420   26.0290   33.6590 N   0  0  0  0  0  0  0  0  0  0  0  0
   38.2310   24.8220   33.6750 C   0  0  0  0  0  0  0  0  0  0  0  0
   37.7280   24.0410   32.7450 N   0  0  0  0  0  0  0  0  0  0  0  0
   39.2190   24.1590   34.5080 C   0  0  0  0  0  0  0  0  0  0  0  0
   40.4370   23.7350   34.0130 C   0  0  0  0  0  0  0  0  0  0  0  0
   41.3920   23.1080   34.7640 C   0  0  0  0  0  0  0  0  0  0  0  0
   41.1740   22.8630   36.0980 C   0  0  0  0  0  0  0  0  0  0  0  0
   39.9980   23.2560   36.6390 C   0  0  0  0  0  0  0  0  0  0  0  0
   39.7780   23.0090   37.9840 C   0  0  0  0  0  0  0  0  0  0  0  0
   38.6200   23.3710   38.6130 C   0  0  0  0  0  0  0  0  0  0  0  0
   37.6520   24.0140   37.8240 C   0  0  0  0  0  0  0  0  0  0  0  0
   37.9030   24.2430   36.4960 C   0  0  0  0  0  0  0  0  0  0  0  0
   39.0500   23.8860   35.8630 C   0  0  0  0  0  0  0  0  0  0  0  0
   36.4120   27.8770   32.9700 N   0  0  0  0  0  0  0  0  0  0  0  0
   36.5060   28.8320   32.0220 C   0  0  0  0  0  0  0  0  0  0  0  0
   36.0300   29.9860   32.4820 N   0  0  0  0  0  0  0  0  0  0  0  0
   35.6240   29.7680   33.7460 C   0  0  0  0  0  0  0  0  0  0  0  0
   35.8690   28.4710   34.0170 N   0  0  0  0  0  0  0  0  0  0  0  0
   35.0250   30.5060   34.8470 C   0  0  0  0  0  0  0  0  0  0  0  0
   35.8470   31.3900   35.5280 C   0  0  0  0  0  0  0  0  0  0  0  0
   35.3740   32.1320   36.5830 C   0  0  0  0  0  0  0  0  0  0  0  0
   34.0700   31.9700   36.9380 N   0  0  0  0  0  0  0  0  0  0  0  0
   33.2530   31.1110   36.2840 C   0  0  0  0  0  0  0  0  0  0  0  0
   33.7430   30.4060   35.2650 N   0  0  0  0  0  0  0  0  0  0  0  0
   36.4432   23.6822   31.1118 H   0  0  0  0  0  0  0  0  0  0  0  0
   35.5349   26.0533   31.1398 H   0  0  0  0  0  0  0  0  0  0  0  0
   40.6518   23.9128   32.9489 H   0  0  0  0  0  0  0  0  0  0  0  0
   42.3391   22.7984   34.2980 H   0  0  0  0  0  0  0  0  0  0  0  0
   41.9365   22.3599   36.7109 H   0  0  0  0  0  0  0  0  0  0  0  0
   40.5628   22.5038   38.5662 H   0  0  0  0  0  0  0  0  0  0  0  0
   38.4546   23.1693   39.6816 H   0  0  0  0  0  0  0  0  0  0  0  0
   36.6978   24.3320   38.2693 H   0  0  0  0  0  0  0  0  0  0  0  0
   37.1251   24.7486   35.9050 H   0  0  0  0  0  0  0  0  0  0  0  0
   36.9172   28.6786   31.0133 H   0  0  0  0  0  0  0  0  0  0  0  0
   36.8968   31.4994   35.2182 H   0  0  0  0  0  0  0  0  0  0  0  0
   36.0272   32.8335   37.1227 H   0  0  0  0  0  0  0  0  0  0  0  0
   32.2022   30.9970   36.5888 H   0  0  0  0  0  0  0  0  0  0  0  0
  1  2  2  0
  1  6  1  0
  2  3  1  0
  3 17  1  0
  3  4  2  0
  4  5  1  0
  5  7  1  0
  6  5  2  0
  7 16  1  0
  8  7  2  0
  8  9  1  0
  9 10  2  0
 10 11  1  0
 11 12  2  0
 12 13  1  0
 14 13  2  0
 15 14  1  0
 16 15  2  0
 16 11  1  0
 17 21  1  0
 18 19  2  0
 18 17  1  0
 19 20  1  0
 20 21  2  0
 20 22  1  0
 22 27  1  0
 22 23  2  0
 23 24  1  0
 24 25  2  0
 26 25  1  0
 27 26  2  0
  1 28  1  0
  2 29  1  0
  8 30  1  0
  9 31  1  0
 10 32  1  0
 12 33  1  0
 13 34  1  0
 14 35  1  0
 15 36  1  0
 18 37  1  0
 23 38  1  0
 24 39  1  0
 26 40  1  0
M  ISO  8  28  14  29  14  30  14  31  14  32  14  33  14  34  14  35  14
M  ISO  5  36  14  37  14  38  14  39  14  40  14
M  END
>  <minimizedAffinity>  (1) 
-6.77279949

>  <minimizedRMSD>  (1) 
1.95564675

$$$$
