
     RDKit          3D

 37 40  0  0  0  0  0  0  0  0999 V2000
   39.0330   26.0550   34.7050 C   0  0  0  0  0  0  0  0  0  0  0  0
   39.9210   26.7120   35.3330 O   0  0  0  0  0  0  0  0  0  0  0  0
   39.1460   22.6630   36.1210 C   0  0  0  0  0  0  0  0  0  0  0  0
   39.3980   24.0480   35.9460 C   0  0  0  0  0  0  0  0  0  0  0  0
   38.7710   24.6630   34.8690 C   0  0  0  0  0  0  0  0  0  0  0  0
   37.9680   23.9410   34.0520 N   0  0  0  0  0  0  0  0  0  0  0  0
   37.7620   22.6210   34.2640 C   0  0  0  0  0  0  0  0  0  0  0  0
   38.3430   21.9960   35.2830 N   0  0  0  0  0  0  0  0  0  0  0  0
   36.8860   21.8700   33.3600 C   0  0  0  0  0  0  0  0  0  0  0  0
   36.0940   20.8390   33.8690 C   0  0  0  0  0  0  0  0  0  0  0  0
   35.2500   20.0990   33.0650 C   0  0  0  0  0  0  0  0  0  0  0  0
   35.1870   20.3810   31.7250 C   0  0  0  0  0  0  0  0  0  0  0  0
   35.9680   21.4040   31.1920 C   0  0  0  0  0  0  0  0  0  0  0  0
   36.8060   22.1360   32.0080 C   0  0  0  0  0  0  0  0  0  0  0  0
   36.6000   27.9500   32.8340 N   0  0  0  0  0  0  0  0  0  0  0  0
   36.9820   27.2730   33.9060 N   0  0  0  0  0  0  0  0  0  0  0  0
   38.2440   26.8410   33.7450 C   0  0  0  0  0  0  0  0  0  0  0  0
   38.6500   27.2870   32.4940 C   0  0  0  0  0  0  0  0  0  0  0  0
   37.5950   27.9820   31.9410 C   0  0  0  0  0  0  0  0  0  0  0  0
   37.7110   28.5810   30.6160 C   0  0  0  0  0  0  0  0  0  0  0  0
   38.4530   27.9530   29.6380 C   0  0  0  0  0  0  0  0  0  0  0  0
   38.6310   28.4300   28.3480 C   0  0  0  0  0  0  0  0  0  0  0  0
   38.0300   29.5920   28.0410 N   0  0  0  0  0  0  0  0  0  0  0  0
   37.2950   30.2240   28.9910 C   0  0  0  0  0  0  0  0  0  0  0  0
   37.1280   29.7520   30.2440 N   0  0  0  0  0  0  0  0  0  0  0  0
   39.6180   22.1286   36.9587 H   0  0  0  0  0  0  0  0  0  0  0  0
   40.0560   24.6066   36.6279 H   0  0  0  0  0  0  0  0  0  0  0  0
   36.1440   20.6092   34.9436 H   0  0  0  0  0  0  0  0  0  0  0  0
   34.6360   19.2935   33.4942 H   0  0  0  0  0  0  0  0  0  0  0  0
   34.5202   19.7999   31.0710 H   0  0  0  0  0  0  0  0  0  0  0  0
   35.9165   21.6291   30.1165 H   0  0  0  0  0  0  0  0  0  0  0  0
   37.4178   22.9415   31.5757 H   0  0  0  0  0  0  0  0  0  0  0  0
   35.6756   28.3863   32.7070 H   0  0  0  0  0  0  0  0  0  0  0  0
   39.6326   27.1171   32.0296 H   0  0  0  0  0  0  0  0  0  0  0  0
   38.9402   27.0024   29.9007 H   0  0  0  0  0  0  0  0  0  0  0  0
   39.2361   27.8825   27.6103 H   0  0  0  0  0  0  0  0  0  0  0  0
   36.8084   31.1739   28.7246 H   0  0  0  0  0  0  0  0  0  0  0  0
  1  5  1  0
  1  2  2  0
  4  3  2  0
  5  4  1  0
  6  7  1  0
  6  5  2  0
  7  8  2  0
  8  3  1  0
  9 10  2  0
  9  7  1  0
 11 10  1  0
 12 11  2  0
 13 12  1  0
 13 14  2  0
 14  9  1  0
 15 16  1  0
 17 16  2  0
 17  1  1  0
 18 17  1  0
 19 18  2  0
 19 15  1  0
 20 19  1  0
 21 20  2  0
 22 21  1  0
 23 22  2  0
 23 24  1  0
 24 25  2  0
 25 20  1  0
  3 26  1  0
  4 27  1  0
 10 28  1  0
 11 29  1  0
 12 30  1  0
 13 31  1  0
 14 32  1  0
 15 33  1  0
 18 34  1  0
 21 35  1  0
 22 36  1  0
 24 37  1  0
M  ISO  8  26  14  27  14  28  14  29  14  30  14  31  14  32  14  33   9
M  ISO  4  34  14  35  14  36  14  37  14
M  END
>  <minimizedAffinity>  (1) 
-5.60855389

>  <minimizedRMSD>  (1) 
6.16129208

$$$$
