
     RDKit          3D

 37 40  0  0  0  0  0  0  0  0999 V2000
   39.0740   26.0390   34.7100 C   0  0  0  0  0  0  0  0  0  0  0  0
   39.9780   26.7020   35.3180 O   0  0  0  0  0  0  0  0  0  0  0  0
   39.1960   22.6570   36.1500 C   0  0  0  0  0  0  0  0  0  0  0  0
   39.4560   24.0380   35.9580 C   0  0  0  0  0  0  0  0  0  0  0  0
   38.8050   24.6480   34.8940 C   0  0  0  0  0  0  0  0  0  0  0  0
   37.9660   23.9280   34.0940 N   0  0  0  0  0  0  0  0  0  0  0  0
   37.7610   22.6140   34.3290 C   0  0  0  0  0  0  0  0  0  0  0  0
   38.3700   22.0020   35.3410 N   0  0  0  0  0  0  0  0  0  0  0  0
   36.8580   21.8700   33.4560 C   0  0  0  0  0  0  0  0  0  0  0  0
   36.7490   22.2100   32.1230 C   0  0  0  0  0  0  0  0  0  0  0  0
   35.9390   21.5850   31.2130 C   0  0  0  0  0  0  0  0  0  0  0  0
   35.1580   20.5230   31.6590 C   0  0  0  0  0  0  0  0  0  0  0  0
   35.2570   20.1710   32.9920 C   0  0  0  0  0  0  0  0  0  0  0  0
   36.0910   20.8290   33.8840 C   0  0  0  0  0  0  0  0  0  0  0  0
   36.6150   27.9250   32.8570 N   0  0  0  0  0  0  0  0  0  0  0  0
   37.0140   27.2480   33.9230 N   0  0  0  0  0  0  0  0  0  0  0  0
   38.2750   26.8220   33.7540 C   0  0  0  0  0  0  0  0  0  0  0  0
   38.6760   27.2680   32.5030 C   0  0  0  0  0  0  0  0  0  0  0  0
   37.6070   27.9620   31.9570 C   0  0  0  0  0  0  0  0  0  0  0  0
   37.7150   28.5640   30.6270 C   0  0  0  0  0  0  0  0  0  0  0  0
   38.4580   27.9330   29.6510 C   0  0  0  0  0  0  0  0  0  0  0  0
   38.6250   28.4210   28.3610 C   0  0  0  0  0  0  0  0  0  0  0  0
   38.0180   29.5830   28.0560 N   0  0  0  0  0  0  0  0  0  0  0  0
   37.2850   30.2100   29.0110 C   0  0  0  0  0  0  0  0  0  0  0  0
   37.1140   29.7410   30.2790 N   0  0  0  0  0  0  0  0  0  0  0  0
   39.6837   22.1220   36.9782 H   0  0  0  0  0  0  0  0  0  0  0  0
   40.1372   24.5962   36.6170 H   0  0  0  0  0  0  0  0  0  0  0  0
   37.3615   23.0498   31.7629 H   0  0  0  0  0  0  0  0  0  0  0  0
   35.9066   21.9118   30.1632 H   0  0  0  0  0  0  0  0  0  0  0  0
   34.4862   19.9832   30.9754 H   0  0  0  0  0  0  0  0  0  0  0  0
   34.6480   19.3328   33.3615 H   0  0  0  0  0  0  0  0  0  0  0  0
   36.1329   20.5104   34.9360 H   0  0  0  0  0  0  0  0  0  0  0  0
   35.6870   28.3558   32.7383 H   0  0  0  0  0  0  0  0  0  0  0  0
   39.6567   27.1024   32.0331 H   0  0  0  0  0  0  0  0  0  0  0  0
   38.9492   26.9836   29.9104 H   0  0  0  0  0  0  0  0  0  0  0  0
   39.2293   27.8793   27.6184 H   0  0  0  0  0  0  0  0  0  0  0  0
   36.7970   31.1589   28.7439 H   0  0  0  0  0  0  0  0  0  0  0  0
  1  5  1  0
  1  2  2  0
  4  3  2  0
  5  4  1  0
  6  7  1  0
  6  5  2  0
  7  8  2  0
  8  3  1  0
  9 14  1  0
  9  7  1  0
 10  9  2  0
 11 12  2  0
 11 10  1  0
 12 13  1  0
 13 14  2  0
 15 16  1  0
 17 16  2  0
 17  1  1  0
 18 17  1  0
 19 18  2  0
 19 15  1  0
 20 19  1  0
 21 20  2  0
 22 21  1  0
 23 22  2  0
 23 24  1  0
 24 25  2  0
 25 20  1  0
  3 26  1  0
  4 27  1  0
 10 28  1  0
 11 29  1  0
 12 30  1  0
 13 31  1  0
 14 32  1  0
 15 33  1  0
 18 34  1  0
 21 35  1  0
 22 36  1  0
 24 37  1  0
M  ISO  8  26  14  27  14  28  14  29  14  30  14  31  14  32  14  33   9
M  ISO  4  34  14  35  14  36  14  37  14
M  END
>  <minimizedAffinity>  (1) 
-5.60849237

>  <minimizedRMSD>  (1) 
6.16993237

$$$$
