
     RDKit          3D

 35 38  0  0  0  0  0  0  0  0999 V2000
   38.3590   26.4340   35.3480 C   0  0  0  0  0  0  0  0  0  0  0  0
   38.9820   27.2350   36.1050 O   0  0  0  0  0  0  0  0  0  0  0  0
   37.8220   23.3080   37.2360 C   0  0  0  0  0  0  0  0  0  0  0  0
   38.0300   24.6740   36.9530 C   0  0  0  0  0  0  0  0  0  0  0  0
   38.1490   25.0440   35.6090 C   0  0  0  0  0  0  0  0  0  0  0  0
   38.0630   24.0870   34.6510 N   0  0  0  0  0  0  0  0  0  0  0  0
   37.8640   22.7960   34.9800 C   0  0  0  0  0  0  0  0  0  0  0  0
   37.7470   22.4220   36.2540 N   0  0  0  0  0  0  0  0  0  0  0  0
   37.7800   21.8070   33.8830 C   0  0  0  0  0  0  0  0  0  0  0  0
   36.5300   21.2800   33.5760 C   0  0  0  0  0  0  0  0  0  0  0  0
   36.5210   20.3530   32.5310 C   0  0  0  0  0  0  0  0  0  0  0  0
   37.6560   20.0170   31.8900 N   0  0  0  0  0  0  0  0  0  0  0  0
   38.8440   20.5620   32.2280 C   0  0  0  0  0  0  0  0  0  0  0  0
   38.9030   21.4670   33.2370 N   0  0  0  0  0  0  0  0  0  0  0  0
   36.4770   28.0210   32.7140 N   0  0  0  0  0  0  0  0  0  0  0  0
   36.6160   27.5940   33.9540 N   0  0  0  0  0  0  0  0  0  0  0  0
   37.8310   27.0240   34.1180 C   0  0  0  0  0  0  0  0  0  0  0  0
   38.4630   27.1180   32.8890 C   0  0  0  0  0  0  0  0  0  0  0  0
   37.5940   27.7490   32.0210 C   0  0  0  0  0  0  0  0  0  0  0  0
   37.9770   27.9990   30.6280 C   0  0  0  0  0  0  0  0  0  0  0  0
   39.0880   27.3710   30.1080 C   0  0  0  0  0  0  0  0  0  0  0  0
   39.5350   27.5410   28.8000 C   0  0  0  0  0  0  0  0  0  0  0  0
   38.8160   28.3780   28.0120 N   0  0  0  0  0  0  0  0  0  0  0  0
   37.7360   28.9900   28.5110 C   0  0  0  0  0  0  0  0  0  0  0  0
   37.2950   28.8270   29.7930 N   0  0  0  0  0  0  0  0  0  0  0  0
   37.7213   22.9759   38.2798 H   0  0  0  0  0  0  0  0  0  0  0  0
   38.0962   25.4202   37.7585 H   0  0  0  0  0  0  0  0  0  0  0  0
   35.6168   21.5714   34.1157 H   0  0  0  0  0  0  0  0  0  0  0  0
   35.5707   19.8899   32.2269 H   0  0  0  0  0  0  0  0  0  0  0  0
   39.7584   20.2741   31.6887 H   0  0  0  0  0  0  0  0  0  0  0  0
   35.6415   28.4901   32.3362 H   0  0  0  0  0  0  0  0  0  0  0  0
   39.4734   26.7558   32.6483 H   0  0  0  0  0  0  0  0  0  0  0  0
   39.6554   26.6954   30.7650 H   0  0  0  0  0  0  0  0  0  0  0  0
   40.4286   27.0211   28.4242 H   0  0  0  0  0  0  0  0  0  0  0  0
   37.1705   29.6635   27.8502 H   0  0  0  0  0  0  0  0  0  0  0  0
  1  5  1  0
  1  2  2  0
  4  3  2  0
  5  4  1  0
  6  7  1  0
  6  5  2  0
  7  8  2  0
  8  3  1  0
  9  7  1  0
 10  9  2  0
 11 10  1  0
 12 13  1  0
 12 11  2  0
 13 14  2  0
 14  9  1  0
 15 16  1  0
 16 17  2  0
 17  1  1  0
 18 17  1  0
 19 15  1  0
 19 18  2  0
 20 19  1  0
 21 20  2  0
 22 21  1  0
 23 24  1  0
 23 22  2  0
 24 25  2  0
 25 20  1  0
  3 26  1  0
  4 27  1  0
 10 28  1  0
 11 29  1  0
 13 30  1  0
 15 31  1  0
 18 32  1  0
 21 33  1  0
 22 34  1  0
 24 35  1  0
M  ISO  8  26  14  27  14  28  14  29  14  30  14  31   9  32  14  33  14
M  ISO  2  34  14  35  14
M  END
>  <minimizedAffinity>  (1) 
-5.38633537

>  <minimizedRMSD>  (1) 
5.88811207

$$$$
