
     RDKit          3D

 40 43  0  0  0  0  0  0  0  0999 V2000
   37.6180   25.1830   33.0990 N   0  0  0  0  0  0  0  0  0  0  0  0
   38.0560   24.2260   33.9010 N   0  0  0  0  0  0  0  0  0  0  0  0
   38.0520   24.6580   35.1720 C   0  0  0  0  0  0  0  0  0  0  0  0
   37.5800   25.9630   35.1320 C   0  0  0  0  0  0  0  0  0  0  0  0
   37.3140   26.2710   33.8170 C   0  0  0  0  0  0  0  0  0  0  0  0
   36.7980   27.5900   33.4480 C   0  0  0  0  0  0  0  0  0  0  0  0
   36.2170   28.3910   34.4100 C   0  0  0  0  0  0  0  0  0  0  0  0
   35.6980   29.6570   34.1590 C   0  0  0  0  0  0  0  0  0  0  0  0
   35.7720   30.1140   32.8980 N   0  0  0  0  0  0  0  0  0  0  0  0
   36.3420   29.3320   31.9460 C   0  0  0  0  0  0  0  0  0  0  0  0
   36.8560   28.0920   32.1770 N   0  0  0  0  0  0  0  0  0  0  0  0
   38.4640   23.8990   36.3580 C   0  0  0  0  0  0  0  0  0  0  0  0
   37.5490   23.7390   37.2340 O   0  0  0  0  0  0  0  0  0  0  0  0
   41.2720   21.6900   37.2410 C   0  0  0  0  0  0  0  0  0  0  0  0
   39.9550   22.1970   37.1250 C   0  0  0  0  0  0  0  0  0  0  0  0
   39.7970   23.4050   36.4660 C   0  0  0  0  0  0  0  0  0  0  0  0
   40.8820   24.0500   35.9640 N   0  0  0  0  0  0  0  0  0  0  0  0
   42.1250   23.5260   36.1000 C   0  0  0  0  0  0  0  0  0  0  0  0
   42.3060   22.3660   36.7290 N   0  0  0  0  0  0  0  0  0  0  0  0
   43.2860   24.2680   35.5330 C   0  0  0  0  0  0  0  0  0  0  0  0
   42.8660   25.5620   34.8750 C   0  0  0  0  0  0  0  0  0  0  0  0
   44.2410   26.1990   34.6380 C   0  0  0  0  0  0  0  0  0  0  0  0
   45.0680   25.7620   35.8540 C   0  0  0  0  0  0  0  0  0  0  0  0
   44.2080   24.7760   36.6130 C   0  0  0  0  0  0  0  0  0  0  0  0
   37.5250   25.1028   32.0763 H   0  0  0  0  0  0  0  0  0  0  0  0
   37.4432   26.6306   35.9955 H   0  0  0  0  0  0  0  0  0  0  0  0
   36.1609   28.0046   35.4384 H   0  0  0  0  0  0  0  0  0  0  0  0
   35.2454   30.2593   34.9605 H   0  0  0  0  0  0  0  0  0  0  0  0
   36.3921   29.7258   30.9201 H   0  0  0  0  0  0  0  0  0  0  0  0
   41.4458   20.7335   37.7558 H   0  0  0  0  0  0  0  0  0  0  0  0
   39.0934   21.6542   37.5409 H   0  0  0  0  0  0  0  0  0  0  0  0
   43.7495   23.5452   34.8454 H   0  0  0  0  0  0  0  0  0  0  0  0
   42.3301   25.3847   33.9309 H   0  0  0  0  0  0  0  0  0  0  0  0
   42.1666   26.1748   35.4626 H   0  0  0  0  0  0  0  0  0  0  0  0
   44.6894   25.8253   33.7056 H   0  0  0  0  0  0  0  0  0  0  0  0
   44.1881   27.2927   34.5333 H   0  0  0  0  0  0  0  0  0  0  0  0
   46.0023   25.2818   35.5278 H   0  0  0  0  0  0  0  0  0  0  0  0
   45.3443   26.6216   36.4823 H   0  0  0  0  0  0  0  0  0  0  0  0
   43.6458   25.2726   37.4176 H   0  0  0  0  0  0  0  0  0  0  0  0
   44.7809   23.9832   37.1162 H   0  0  0  0  0  0  0  0  0  0  0  0
  1  5  1  0
  1  2  1  0
  2  3  2  0
  3 12  1  0
  4  3  1  0
  5  4  2  0
  6  5  1  0
  6  7  2  0
  8  7  1  0
  9  8  2  0
 10 11  2  0
 10  9  1  0
 11  6  1  0
 12 16  1  0
 12 13  2  0
 15 14  2  0
 16 15  1  0
 17 18  1  0
 17 16  2  0
 18 19  2  0
 19 14  1  0
 20 18  1  0
 20 24  1  0
 21 20  1  0
 22 21  1  0
 22 23  1  0
 23 24  1  0
  1 25  1  0
  4 26  1  0
  7 27  1  0
  8 28  1  0
 10 29  1  0
 14 30  1  0
 15 31  1  0
 20 32  1  0
 21 33  1  0
 21 34  1  0
 22 35  1  0
 22 36  1  0
 23 37  1  0
 23 38  1  0
 24 39  1  0
 24 40  1  0
M  ISO  8  25   9  26  14  27  14  28  14  29  14  30  14  31  14  32  13
M  ISO  8  33  13  34  13  35  13  36  13  37  13  38  13  39  13  40  13
M  END
>  <minimizedAffinity>  (1) 
-5.28628922

>  <minimizedRMSD>  (1) 
2.35843635

$$$$
