
     RDKit          3D

 43 46  0  0  0  0  0  0  0  0999 V2000
   37.9450   24.8370   33.1380 N   0  0  0  0  0  0  0  0  0  0  0  0
   38.4230   23.8840   33.9190 N   0  0  0  0  0  0  0  0  0  0  0  0
   38.3600   24.2610   35.2110 C   0  0  0  0  0  0  0  0  0  0  0  0
   37.8030   25.5340   35.1970 C   0  0  0  0  0  0  0  0  0  0  0  0
   37.5520   25.8700   33.8850 C   0  0  0  0  0  0  0  0  0  0  0  0
   36.9620   27.1600   33.5560 C   0  0  0  0  0  0  0  0  0  0  0  0
   36.5070   27.9900   34.5600 C   0  0  0  0  0  0  0  0  0  0  0  0
   35.9270   29.2410   34.3390 C   0  0  0  0  0  0  0  0  0  0  0  0
   35.8130   29.6420   33.0520 N   0  0  0  0  0  0  0  0  0  0  0  0
   36.2500   28.8460   32.0680 C   0  0  0  0  0  0  0  0  0  0  0  0
   36.8120   27.6370   32.2850 N   0  0  0  0  0  0  0  0  0  0  0  0
   38.7910   23.4870   36.3820 C   0  0  0  0  0  0  0  0  0  0  0  0
   37.8760   23.2260   37.2170 O   0  0  0  0  0  0  0  0  0  0  0  0
   41.7270   21.3700   37.0670 C   0  0  0  0  0  0  0  0  0  0  0  0
   40.3890   21.7980   36.9400 C   0  0  0  0  0  0  0  0  0  0  0  0
   40.1610   23.0940   36.4970 C   0  0  0  0  0  0  0  0  0  0  0  0
   41.2240   23.8980   36.2040 N   0  0  0  0  0  0  0  0  0  0  0  0
   42.4800   23.4420   36.3420 C   0  0  0  0  0  0  0  0  0  0  0  0
   42.7180   22.2000   36.7660 N   0  0  0  0  0  0  0  0  0  0  0  0
   43.5460   24.4020   35.9950 C   0  0  0  0  0  0  0  0  0  0  0  0
   44.3730   23.9360   34.8180 C   0  0  0  0  0  0  0  0  0  0  0  0
   45.6810   24.6660   34.7370 C   0  0  0  0  0  0  0  0  0  0  0  0
   45.6410   26.0200   35.4230 C   0  0  0  0  0  0  0  0  0  0  0  0
   45.2380   25.9330   36.8590 C   0  0  0  0  0  0  0  0  0  0  0  0
   44.4980   24.6430   37.1460 C   0  0  0  0  0  0  0  0  0  0  0  0
   37.8851   24.7895   32.1108 H   0  0  0  0  0  0  0  0  0  0  0  0
   37.5989   26.1616   36.0770 H   0  0  0  0  0  0  0  0  0  0  0  0
   36.6074   27.6447   35.5995 H   0  0  0  0  0  0  0  0  0  0  0  0
   35.5794   29.8703   35.1716 H   0  0  0  0  0  0  0  0  0  0  0  0
   36.1460   29.1944   31.0298 H   0  0  0  0  0  0  0  0  0  0  0  0
   41.9487   20.3503   37.4148 H   0  0  0  0  0  0  0  0  0  0  0  0
   39.5528   21.1264   37.1842 H   0  0  0  0  0  0  0  0  0  0  0  0
   43.0174   25.3329   35.7418 H   0  0  0  0  0  0  0  0  0  0  0  0
   44.5714   22.8594   34.9253 H   0  0  0  0  0  0  0  0  0  0  0  0
   43.8071   24.1420   33.8975 H   0  0  0  0  0  0  0  0  0  0  0  0
   46.4571   24.0515   35.2167 H   0  0  0  0  0  0  0  0  0  0  0  0
   45.8988   24.8395   33.6728 H   0  0  0  0  0  0  0  0  0  0  0  0
   46.6423   26.4718   35.3663 H   0  0  0  0  0  0  0  0  0  0  0  0
   44.8864   26.6301   34.9050 H   0  0  0  0  0  0  0  0  0  0  0  0
   46.1398   25.9762   37.4874 H   0  0  0  0  0  0  0  0  0  0  0  0
   44.5668   26.7753   37.0828 H   0  0  0  0  0  0  0  0  0  0  0  0
   43.9352   24.7337   38.0868 H   0  0  0  0  0  0  0  0  0  0  0  0
   45.2033   23.8052   37.2487 H   0  0  0  0  0  0  0  0  0  0  0  0
  1  5  1  0
  1  2  1  0
  2  3  2  0
  3 12  1  0
  4  3  1  0
  5  4  2  0
  6  5  1  0
  6  7  2  0
  8  7  1  0
  9  8  2  0
 10 11  2  0
 10  9  1  0
 11  6  1  0
 12 16  1  0
 12 13  2  0
 15 14  2  0
 16 15  1  0
 17 18  1  0
 17 16  2  0
 18 19  2  0
 19 14  1  0
 20 18  1  0
 20 25  1  0
 21 20  1  0
 22 21  1  0
 22 23  1  0
 23 24  1  0
 24 25  1  0
  1 26  1  0
  4 27  1  0
  7 28  1  0
  8 29  1  0
 10 30  1  0
 14 31  1  0
 15 32  1  0
 20 33  1  0
 21 34  1  0
 21 35  1  0
 22 36  1  0
 22 37  1  0
 23 38  1  0
 23 39  1  0
 24 40  1  0
 24 41  1  0
 25 42  1  0
 25 43  1  0
M  ISO  8  26   9  27  14  28  14  29  14  30  14  31  14  32  14  33  13
M  ISO  8  34  13  35  13  36  13  37  13  38  13  39  13  40  13  41  13
M  ISO  2  42  13  43  13
M  END
>  <minimizedAffinity>  (1) 
-5.25985956

>  <minimizedRMSD>  (1) 
2.70321417

$$$$
