
     RDKit          3D

 33 36  0  0  0  0  0  0  0  0999 V2000
   37.4900   25.2120   33.1020 N   0  0  0  0  0  0  0  0  0  0  0  0
   37.9350   24.2580   33.9060 N   0  0  0  0  0  0  0  0  0  0  0  0
   38.0020   24.7150   35.1700 C   0  0  0  0  0  0  0  0  0  0  0  0
   37.5720   26.0300   35.1310 C   0  0  0  0  0  0  0  0  0  0  0  0
   37.2540   26.3280   33.8210 C   0  0  0  0  0  0  0  0  0  0  0  0
   36.7590   27.6430   33.4340 C   0  0  0  0  0  0  0  0  0  0  0  0
   36.1810   28.4390   34.3980 C   0  0  0  0  0  0  0  0  0  0  0  0
   35.6540   29.7210   34.1670 C   0  0  0  0  0  0  0  0  0  0  0  0
   35.7330   30.1770   32.9070 N   0  0  0  0  0  0  0  0  0  0  0  0
   36.3000   29.4000   31.9540 C   0  0  0  0  0  0  0  0  0  0  0  0
   36.8120   28.1530   32.1830 N   0  0  0  0  0  0  0  0  0  0  0  0
   38.4450   23.9590   36.3490 C   0  0  0  0  0  0  0  0  0  0  0  0
   37.5490   23.7910   37.2420 O   0  0  0  0  0  0  0  0  0  0  0  0
   41.3040   21.8310   37.2700 C   0  0  0  0  0  0  0  0  0  0  0  0
   39.9830   22.3280   37.1840 C   0  0  0  0  0  0  0  0  0  0  0  0
   39.7930   23.4800   36.4170 C   0  0  0  0  0  0  0  0  0  0  0  0
   40.8410   24.0660   35.8010 N   0  0  0  0  0  0  0  0  0  0  0  0
   42.0850   23.5510   35.9140 C   0  0  0  0  0  0  0  0  0  0  0  0
   42.2960   22.4510   36.6410 N   0  0  0  0  0  0  0  0  0  0  0  0
   43.1290   24.2460   35.2220 N   0  0  0  0  0  0  0  0  0  0  0  0
   43.7000   24.1900   34.0170 C   0  0  0  0  0  0  0  0  0  0  0  0
   44.6470   25.1390   33.9940 N   0  0  0  0  0  0  0  0  0  0  0  0
   44.6840   25.7950   35.1660 C   0  0  0  0  0  0  0  0  0  0  0  0
   43.7340   25.2200   35.9050 N   0  0  0  0  0  0  0  0  0  0  0  0
   37.3467   25.1163   32.0865 H   0  0  0  0  0  0  0  0  0  0  0  0
   37.4971   26.7143   35.9890 H   0  0  0  0  0  0  0  0  0  0  0  0
   36.1281   28.0426   35.4227 H   0  0  0  0  0  0  0  0  0  0  0  0
   35.2021   30.3173   34.9734 H   0  0  0  0  0  0  0  0  0  0  0  0
   36.3521   29.7975   30.9297 H   0  0  0  0  0  0  0  0  0  0  0  0
   41.5111   20.9265   37.8607 H   0  0  0  0  0  0  0  0  0  0  0  0
   39.1456   21.8316   37.6962 H   0  0  0  0  0  0  0  0  0  0  0  0
   43.4434   23.4989   33.2006 H   0  0  0  0  0  0  0  0  0  0  0  0
   45.3498   26.6224   35.4524 H   0  0  0  0  0  0  0  0  0  0  0  0
  1  5  1  0
  1  2  1  0
  2  3  2  0
  3 12  1  0
  4  3  1  0
  5  4  2  0
  6  5  1  0
  6  7  2  0
  8  7  1  0
  9  8  2  0
 10 11  2  0
 10  9  1  0
 11  6  1  0
 12 16  1  0
 12 13  2  0
 15 14  2  0
 16 15  1  0
 17 18  1  0
 17 16  2  0
 18 19  2  0
 19 14  1  0
 20 24  1  0
 20 18  1  0
 21 20  1  0
 22 21  2  0
 22 23  1  0
 23 24  2  0
  1 25  1  0
  4 26  1  0
  7 27  1  0
  8 28  1  0
 10 29  1  0
 14 30  1  0
 15 31  1  0
 21 32  1  0
 23 33  1  0
M  ISO  8  25   9  26  14  27  14  28  14  29  14  30  14  31  14  32  14
M  ISO  1  33  14
M  END
>  <minimizedAffinity>  (1) 
-5.21204805

>  <minimizedRMSD>  (1) 
2.25776362

$$$$
