
     RDKit          3D

 35 38  0  0  0  0  0  0  0  0999 V2000
   38.8500   23.3320   36.2010 C   0  0  0  0  0  0  0  0  0  0  0  0
   37.9390   22.9290   36.9680 O   0  0  0  0  0  0  0  0  0  0  0  0
   41.9520   21.4860   36.9500 C   0  0  0  0  0  0  0  0  0  0  0  0
   40.5730   21.7780   36.7850 C   0  0  0  0  0  0  0  0  0  0  0  0
   40.2500   23.0690   36.3570 C   0  0  0  0  0  0  0  0  0  0  0  0
   41.2460   23.9760   36.1180 N   0  0  0  0  0  0  0  0  0  0  0  0
   42.5330   23.6280   36.2950 C   0  0  0  0  0  0  0  0  0  0  0  0
   42.8660   22.4080   36.7010 N   0  0  0  0  0  0  0  0  0  0  0  0
   43.5840   24.6040   36.0360 C   0  0  0  0  0  0  0  0  0  0  0  0
   44.5180   24.9180   36.9910 C   0  0  0  0  0  0  0  0  0  0  0  0
   45.5310   25.8470   36.7690 C   0  0  0  0  0  0  0  0  0  0  0  0
   45.6150   26.4740   35.5770 N   0  0  0  0  0  0  0  0  0  0  0  0
   44.6940   26.1590   34.6460 C   0  0  0  0  0  0  0  0  0  0  0  0
   43.7070   25.2530   34.8640 N   0  0  0  0  0  0  0  0  0  0  0  0
   37.9220   24.7620   33.0190 N   0  0  0  0  0  0  0  0  0  0  0  0
   38.4160   23.7840   33.7680 N   0  0  0  0  0  0  0  0  0  0  0  0
   38.3920   24.1370   35.0640 C   0  0  0  0  0  0  0  0  0  0  0  0
   37.8500   25.4060   35.1000 C   0  0  0  0  0  0  0  0  0  0  0  0
   37.5600   25.7820   33.8050 C   0  0  0  0  0  0  0  0  0  0  0  0
   36.9710   27.0880   33.5150 C   0  0  0  0  0  0  0  0  0  0  0  0
   36.5490   27.9010   34.5480 C   0  0  0  0  0  0  0  0  0  0  0  0
   35.9760   29.1580   34.3730 C   0  0  0  0  0  0  0  0  0  0  0  0
   35.8360   29.5850   33.1020 N   0  0  0  0  0  0  0  0  0  0  0  0
   36.2380   28.8120   32.0880 C   0  0  0  0  0  0  0  0  0  0  0  0
   36.7910   27.5980   32.2590 N   0  0  0  0  0  0  0  0  0  0  0  0
   42.2623   20.4860   37.2873 H   0  0  0  0  0  0  0  0  0  0  0  0
   39.7961   21.0251   36.9842 H   0  0  0  0  0  0  0  0  0  0  0  0
   44.4644   24.4169   37.9688 H   0  0  0  0  0  0  0  0  0  0  0  0
   46.2601   26.0690   37.5622 H   0  0  0  0  0  0  0  0  0  0  0  0
   44.7438   26.6575   33.6667 H   0  0  0  0  0  0  0  0  0  0  0  0
   37.8315   24.7391   31.9932 H   0  0  0  0  0  0  0  0  0  0  0  0
   37.6794   26.0110   36.0027 H   0  0  0  0  0  0  0  0  0  0  0  0
   36.6736   27.5316   35.5766 H   0  0  0  0  0  0  0  0  0  0  0  0
   35.6542   29.7710   35.2278 H   0  0  0  0  0  0  0  0  0  0  0  0
   36.1100   29.1878   31.0621 H   0  0  0  0  0  0  0  0  0  0  0  0
  1  5  1  0
  1  2  2  0
  4  3  2  0
  5  4  1  0
  6  7  1  0
  6  5  2  0
  7  8  2  0
  8  3  1  0
  9  7  1  0
  9 10  2  0
 11 10  1  0
 12 11  2  0
 13 14  2  0
 13 12  1  0
 14  9  1  0
 15 16  1  0
 15 19  1  0
 16 17  2  0
 17 18  1  0
 17  1  1  0
 19 18  2  0
 20 19  1  0
 20 21  2  0
 22 21  1  0
 23 22  2  0
 24 25  2  0
 24 23  1  0
 25 20  1  0
  3 26  1  0
  4 27  1  0
 10 28  1  0
 11 29  1  0
 13 30  1  0
 15 31  1  0
 18 32  1  0
 21 33  1  0
 22 34  1  0
 24 35  1  0
M  ISO  8  26  14  27  14  28  14  29  14  30  14  31   9  32  14  33  14
M  ISO  2  34  14  35  14
M  END
>  <minimizedAffinity>  (1) 
-5.15519285

>  <minimizedRMSD>  (1) 
2.6554749

$$$$
