
     RDKit          3D

 33 36  0  0  0  0  0  0  0  0999 V2000
   37.5380   25.4690   33.0170 N   0  0  0  0  0  0  0  0  0  0  0  0
   37.9400   24.5100   33.8320 N   0  0  0  0  0  0  0  0  0  0  0  0
   37.8890   24.9530   35.1160 C   0  0  0  0  0  0  0  0  0  0  0  0
   37.4300   26.2500   35.0540 C   0  0  0  0  0  0  0  0  0  0  0  0
   37.2140   26.5610   33.7330 C   0  0  0  0  0  0  0  0  0  0  0  0
   36.7190   27.8830   33.3460 C   0  0  0  0  0  0  0  0  0  0  0  0
   36.0640   28.6650   34.2740 C   0  0  0  0  0  0  0  0  0  0  0  0
   35.5570   29.9320   34.0080 C   0  0  0  0  0  0  0  0  0  0  0  0
   35.7280   30.4090   32.7560 N   0  0  0  0  0  0  0  0  0  0  0  0
   36.3640   29.6560   31.8430 C   0  0  0  0  0  0  0  0  0  0  0  0
   36.8630   28.4170   32.0960 N   0  0  0  0  0  0  0  0  0  0  0  0
   38.2590   24.1720   36.2980 C   0  0  0  0  0  0  0  0  0  0  0  0
   37.3220   24.0440   37.1550 O   0  0  0  0  0  0  0  0  0  0  0  0
   41.0020   21.9880   37.4090 C   0  0  0  0  0  0  0  0  0  0  0  0
   39.7180   22.5380   37.2750 C   0  0  0  0  0  0  0  0  0  0  0  0
   39.5710   23.6260   36.4210 C   0  0  0  0  0  0  0  0  0  0  0  0
   40.6480   24.1020   35.7680 N   0  0  0  0  0  0  0  0  0  0  0  0
   41.8730   23.5380   35.9270 C   0  0  0  0  0  0  0  0  0  0  0  0
   42.0270   22.4920   36.7440 N   0  0  0  0  0  0  0  0  0  0  0  0
   43.0720   24.0400   35.2200 C   0  0  0  0  0  0  0  0  0  0  0  0
   43.6840   23.3760   34.0810 C   0  0  0  0  0  0  0  0  0  0  0  0
   45.0450   24.5310   33.7750 S   0  0  0  0  0  0  0  0  0  0  0  0
   44.5630   25.7030   35.2180 C   0  0  0  0  0  0  0  0  0  0  0  0
   43.5630   25.1670   35.7090 N   0  0  0  0  0  0  0  0  0  0  0  0
   37.4814   25.3924   31.9914 H   0  0  0  0  0  0  0  0  0  0  0  0
   37.2652   26.9193   35.9112 H   0  0  0  0  0  0  0  0  0  0  0  0
   35.9345   28.2608   35.2888 H   0  0  0  0  0  0  0  0  0  0  0  0
   35.0403   30.5190   34.7817 H   0  0  0  0  0  0  0  0  0  0  0  0
   36.4884   30.0666   30.8301 H   0  0  0  0  0  0  0  0  0  0  0  0
   41.1573   21.1269   38.0756 H   0  0  0  0  0  0  0  0  0  0  0  0
   38.8598   22.1242   37.8248 H   0  0  0  0  0  0  0  0  0  0  0  0
   43.4040   22.4485   33.5602 H   0  0  0  0  0  0  0  0  0  0  0  0
   45.0597   26.6324   35.5334 H   0  0  0  0  0  0  0  0  0  0  0  0
  1  5  1  0
  1  2  1  0
  2  3  2  0
  3 12  1  0
  4  3  1  0
  5  4  2  0
  6  5  1  0
  6  7  2  0
  8  7  1  0
  9  8  2  0
 10 11  2  0
 10  9  1  0
 11  6  1  0
 12 16  1  0
 12 13  2  0
 15 14  2  0
 16 15  1  0
 17 18  1  0
 17 16  2  0
 18 19  2  0
 19 14  1  0
 20 24  1  0
 20 18  1  0
 21 20  2  0
 22 21  1  0
 22 23  1  0
 23 24  2  0
  1 25  1  0
  4 26  1  0
  7 27  1  0
  8 28  1  0
 10 29  1  0
 14 30  1  0
 15 31  1  0
 21 32  1  0
 23 33  1  0
M  ISO  8  25   9  26  14  27  14  28  14  29  14  30  14  31  14  32  14
M  ISO  1  33  14
M  END
>  <minimizedAffinity>  (1) 
-4.98389435

>  <minimizedRMSD>  (1) 
2.26198936

$$$$
