
     RDKit          3D

 36 38  0  0  0  0  0  0  0  0999 V2000
   37.5730   25.1940   33.1290 N   0  0  0  0  0  0  0  0  0  0  0  0
   38.0060   24.2460   33.9400 N   0  0  0  0  0  0  0  0  0  0  0  0
   38.0160   24.6920   35.2100 C   0  0  0  0  0  0  0  0  0  0  0  0
   37.5580   26.0020   35.1580 C   0  0  0  0  0  0  0  0  0  0  0  0
   37.2880   26.2910   33.8400 C   0  0  0  0  0  0  0  0  0  0  0  0
   36.7850   27.6010   33.4530 C   0  0  0  0  0  0  0  0  0  0  0  0
   36.1950   28.4230   34.3940 C   0  0  0  0  0  0  0  0  0  0  0  0
   35.6840   29.6860   34.1390 C   0  0  0  0  0  0  0  0  0  0  0  0
   35.7740   30.1380   32.8720 N   0  0  0  0  0  0  0  0  0  0  0  0
   36.3490   29.3520   31.9330 C   0  0  0  0  0  0  0  0  0  0  0  0
   36.8390   28.1280   32.2010 N   0  0  0  0  0  0  0  0  0  0  0  0
   38.4290   23.9460   36.4100 C   0  0  0  0  0  0  0  0  0  0  0  0
   37.5400   23.8170   37.2940 O   0  0  0  0  0  0  0  0  0  0  0  0
   41.2380   21.7330   37.3180 C   0  0  0  0  0  0  0  0  0  0  0  0
   39.9380   22.2670   37.2180 C   0  0  0  0  0  0  0  0  0  0  0  0
   39.7610   23.4340   36.4890 C   0  0  0  0  0  0  0  0  0  0  0  0
   40.8570   24.0090   35.9040 N   0  0  0  0  0  0  0  0  0  0  0  0
   42.0760   23.4640   36.0280 C   0  0  0  0  0  0  0  0  0  0  0  0
   42.2580   22.3440   36.7240 N   0  0  0  0  0  0  0  0  0  0  0  0
   43.1940   24.1970   35.3360 C   0  0  0  0  0  0  0  0  0  0  0  0
   44.3790   24.3540   36.2590 C   0  0  0  0  0  0  0  0  0  0  0  0
   42.7300   25.5360   34.8640 C   0  0  0  0  0  0  0  0  0  0  0  0
   37.4706   25.1031   32.1081 H   0  0  0  0  0  0  0  0  0  0  0  0
   37.4339   26.6831   36.0128 H   0  0  0  0  0  0  0  0  0  0  0  0
   36.1255   28.0460   35.4250 H   0  0  0  0  0  0  0  0  0  0  0  0
   35.2258   30.2921   34.9344 H   0  0  0  0  0  0  0  0  0  0  0  0
   36.4192   29.7311   30.9028 H   0  0  0  0  0  0  0  0  0  0  0  0
   41.4091   20.8084   37.8889 H   0  0  0  0  0  0  0  0  0  0  0  0
   39.0854   21.7714   37.7054 H   0  0  0  0  0  0  0  0  0  0  0  0
   43.5046   23.6035   34.4635 H   0  0  0  0  0  0  0  0  0  0  0  0
   44.0384   24.3089   37.3040 H   0  0  0  0  0  0  0  0  0  0  0  0
   45.0988   23.5434   36.0727 H   0  0  0  0  0  0  0  0  0  0  0  0
   44.8629   25.3241   36.0727 H   0  0  0  0  0  0  0  0  0  0  0  0
   42.5088   26.1744   35.7321 H   0  0  0  0  0  0  0  0  0  0  0  0
   43.5184   26.0039   34.2562 H   0  0  0  0  0  0  0  0  0  0  0  0
   41.8211   25.4158   34.2562 H   0  0  0  0  0  0  0  0  0  0  0  0
  1  5  1  0
  1  2  1  0
  2  3  2  0
  3 12  1  0
  4  3  1  0
  5  4  2  0
  6  5  1  0
  6  7  2  0
  8  7  1  0
  9  8  2  0
 10 11  2  0
 10  9  1  0
 11  6  1  0
 12 16  1  0
 12 13  2  0
 15 14  2  0
 16 15  1  0
 17 18  1  0
 17 16  2  0
 18 19  2  0
 19 14  1  0
 20 18  1  0
 20 21  1  0
 22 20  1  0
  1 23  1  0
  4 24  1  0
  7 25  1  0
  8 26  1  0
 10 27  1  0
 14 28  1  0
 15 29  1  0
 20 30  1  0
 21 31  1  0
 21 32  1  0
 21 33  1  0
 22 34  1  0
 22 35  1  0
 22 36  1  0
M  ISO  8  23   9  24  14  25  14  26  14  27  14  28  14  29  14  30   8
M  ISO  6  31   8  32   8  33   8  34   8  35   8  36   8
M  END
>  <minimizedAffinity>  (1) 
-4.92979574

>  <minimizedRMSD>  (1) 
2.20453763

$$$$
