
     RDKit          3D

 45 49  0  0  0  0  0  0  0  0999 V2000
   36.6140   24.0460   31.9320 C   0  0  0  0  0  0  0  0  0  0  0  0
   36.1940   25.3680   31.8190 C   0  0  0  0  0  0  0  0  0  0  0  0
   36.8280   26.2400   32.6810 C   0  0  0  0  0  0  0  0  0  0  0  0
   37.7490   25.7730   33.5150 N   0  0  0  0  0  0  0  0  0  0  0  0
   38.1530   24.5310   33.6300 C   0  0  0  0  0  0  0  0  0  0  0  0
   37.5510   23.6940   32.8090 N   0  0  0  0  0  0  0  0  0  0  0  0
   39.1380   23.8940   34.4880 C   0  0  0  0  0  0  0  0  0  0  0  0
   40.3260   23.3950   33.9760 C   0  0  0  0  0  0  0  0  0  0  0  0
   41.2930   22.7820   34.7530 C   0  0  0  0  0  0  0  0  0  0  0  0
   41.1010   22.6410   36.1140 C   0  0  0  0  0  0  0  0  0  0  0  0
   39.9530   23.1170   36.6430 C   0  0  0  0  0  0  0  0  0  0  0  0
   39.7650   22.9730   38.0110 C   0  0  0  0  0  0  0  0  0  0  0  0
   38.6400   23.4230   38.6350 C   0  0  0  0  0  0  0  0  0  0  0  0
   37.6800   24.0350   37.8420 C   0  0  0  0  0  0  0  0  0  0  0  0
   37.9030   24.1580   36.4930 C   0  0  0  0  0  0  0  0  0  0  0  0
   39.0110   23.7210   35.8490 C   0  0  0  0  0  0  0  0  0  0  0  0
   36.5090   27.6290   32.6880 N   0  0  0  0  0  0  0  0  0  0  0  0
   36.5930   28.4720   31.6420 C   0  0  0  0  0  0  0  0  0  0  0  0
   36.2120   29.7000   32.0200 N   0  0  0  0  0  0  0  0  0  0  0  0
   35.8890   29.6280   33.3060 C   0  0  0  0  0  0  0  0  0  0  0  0
   36.0690   28.3690   33.7090 N   0  0  0  0  0  0  0  0  0  0  0  0
   35.4280   30.6870   34.1350 N   0  0  0  0  0  0  0  0  0  0  0  0
   35.9310   30.9140   35.4680 C   0  0  0  0  0  0  0  0  0  0  0  0
   36.1070   32.3930   35.7600 C   0  0  0  0  0  0  0  0  0  0  0  0
   34.9700   33.1160   35.3980 O   0  0  0  0  0  0  0  0  0  0  0  0
   34.8310   33.0490   34.0140 C   0  0  0  0  0  0  0  0  0  0  0  0
   34.4130   31.6130   33.6860 C   0  0  0  0  0  0  0  0  0  0  0  0
   36.1636   23.2787   31.2852 H   0  0  0  0  0  0  0  0  0  0  0  0
   35.4228   25.6904   31.1040 H   0  0  0  0  0  0  0  0  0  0  0  0
   40.5093   23.4915   32.8957 H   0  0  0  0  0  0  0  0  0  0  0  0
   42.2157   22.4065   34.2866 H   0  0  0  0  0  0  0  0  0  0  0  0
   41.8592   22.1564   36.7467 H   0  0  0  0  0  0  0  0  0  0  0  0
   40.5468   22.4814   38.6086 H   0  0  0  0  0  0  0  0  0  0  0  0
   38.4993   23.3061   39.7197 H   0  0  0  0  0  0  0  0  0  0  0  0
   36.7506   24.4174   38.2892 H   0  0  0  0  0  0  0  0  0  0  0  0
   37.1238   24.6479   35.8906 H   0  0  0  0  0  0  0  0  0  0  0  0
   36.9242   28.1950   30.6303 H   0  0  0  0  0  0  0  0  0  0  0  0
   35.2211   30.4899   36.1934 H   0  0  0  0  0  0  0  0  0  0  0  0
   36.9155   30.4301   35.5489 H   0  0  0  0  0  0  0  0  0  0  0  0
   36.2903   32.5272   36.8363 H   0  0  0  0  0  0  0  0  0  0  0  0
   36.9592   32.7657   35.1728 H   0  0  0  0  0  0  0  0  0  0  0  0
   34.0592   33.7558   33.6753 H   0  0  0  0  0  0  0  0  0  0  0  0
   35.7706   33.3145   33.5074 H   0  0  0  0  0  0  0  0  0  0  0  0
   33.4632   31.3856   34.1921 H   0  0  0  0  0  0  0  0  0  0  0  0
   34.2895   31.5129   32.5975 H   0  0  0  0  0  0  0  0  0  0  0  0
  1  6  2  0
  2  1  1  0
  2  3  2  0
  3 17  1  0
  3  4  1  0
  4  5  2  0
  5  7  1  0
  6  5  1  0
  7 16  1  0
  8  7  2  0
  8  9  1  0
  9 10  2  0
 10 11  1  0
 11 12  2  0
 12 13  1  0
 14 13  2  0
 15 14  1  0
 16 15  2  0
 16 11  1  0
 17 21  1  0
 18 19  2  0
 18 17  1  0
 19 20  1  0
 20 21  2  0
 20 22  1  0
 22 23  1  0
 23 24  1  0
 25 24  1  0
 26 25  1  0
 27 26  1  0
 27 22  1  0
  1 28  1  0
  2 29  1  0
  8 30  1  0
  9 31  1  0
 10 32  1  0
 12 33  1  0
 13 34  1  0
 14 35  1  0
 15 36  1  0
 18 37  1  0
 23 38  1  0
 23 39  1  0
 24 40  1  0
 24 41  1  0
 26 42  1  0
 26 43  1  0
 27 44  1  0
 27 45  1  0
M  ISO  8  28  14  29  14  30  14  31  14  32  14  33  14  34  14  35  14
M  ISO  8  36  14  37  14  38  13  39  13  40  13  41  13  42  13  43  13
M  ISO  2  44  13  45  13
M  END
>  <minimizedAffinity>  (1) 
-6.64417028

>  <minimizedRMSD>  (1) 
1.45539629

$$$$
