
     RDKit          3D

 32 35  0  0  0  0  0  0  0  0999 V2000
   37.5200   25.2110   33.1120 N   0  0  0  0  0  0  0  0  0  0  0  0
   37.9600   24.2550   33.9200 N   0  0  0  0  0  0  0  0  0  0  0  0
   37.9960   24.7140   35.1990 C   0  0  0  0  0  0  0  0  0  0  0  0
   37.5530   26.0160   35.1430 C   0  0  0  0  0  0  0  0  0  0  0  0
   37.2590   26.3110   33.8260 C   0  0  0  0  0  0  0  0  0  0  0  0
   36.7600   27.6330   33.4410 C   0  0  0  0  0  0  0  0  0  0  0  0
   36.1760   28.4410   34.3900 C   0  0  0  0  0  0  0  0  0  0  0  0
   35.6660   29.7060   34.1490 C   0  0  0  0  0  0  0  0  0  0  0  0
   35.7530   30.1690   32.8890 N   0  0  0  0  0  0  0  0  0  0  0  0
   36.3250   29.3870   31.9390 C   0  0  0  0  0  0  0  0  0  0  0  0
   36.8260   28.1410   32.1880 N   0  0  0  0  0  0  0  0  0  0  0  0
   38.4250   23.9550   36.3770 C   0  0  0  0  0  0  0  0  0  0  0  0
   37.5400   23.7920   37.2530 O   0  0  0  0  0  0  0  0  0  0  0  0
   41.2810   21.7960   37.2780 C   0  0  0  0  0  0  0  0  0  0  0  0
   39.9710   22.3080   37.1880 C   0  0  0  0  0  0  0  0  0  0  0  0
   39.7800   23.4720   36.4400 C   0  0  0  0  0  0  0  0  0  0  0  0
   40.8480   24.0550   35.8360 N   0  0  0  0  0  0  0  0  0  0  0  0
   42.0750   23.5250   35.9520 C   0  0  0  0  0  0  0  0  0  0  0  0
   42.2780   22.4140   36.6630 N   0  0  0  0  0  0  0  0  0  0  0  0
   43.1130   24.2740   35.2410 C   0  0  0  0  0  0  0  0  0  0  0  0
   42.9610   25.5890   34.9960 N   0  0  0  0  0  0  0  0  0  0  0  0
   43.9820   26.0790   34.3580 O   0  0  0  0  0  0  0  0  0  0  0  0
   44.8180   25.0900   34.1770 C   0  0  0  0  0  0  0  0  0  0  0  0
   44.3220   23.9520   34.7080 N   0  0  0  0  0  0  0  0  0  0  0  0
   37.3984   25.1200   32.0933 H   0  0  0  0  0  0  0  0  0  0  0  0
   37.4510   26.7014   35.9973 H   0  0  0  0  0  0  0  0  0  0  0  0
   36.1093   28.0529   35.4171 H   0  0  0  0  0  0  0  0  0  0  0  0
   35.2105   30.3048   34.9515 H   0  0  0  0  0  0  0  0  0  0  0  0
   36.3887   29.7777   30.9127 H   0  0  0  0  0  0  0  0  0  0  0  0
   41.4755   20.8826   37.8593 H   0  0  0  0  0  0  0  0  0  0  0  0
   39.1287   21.8085   37.6891 H   0  0  0  0  0  0  0  0  0  0  0  0
   45.7879   25.1733   33.6648 H   0  0  0  0  0  0  0  0  0  0  0  0
  1  5  1  0
  1  2  1  0
  2  3  2  0
  3 12  1  0
  4  3  1  0
  5  4  2  0
  6  5  1  0
  6  7  2  0
  8  7  1  0
  9  8  2  0
 10 11  2  0
 10  9  1  0
 11  6  1  0
 12 16  1  0
 12 13  2  0
 15 14  2  0
 16 15  1  0
 17 18  1  0
 17 16  2  0
 18 19  2  0
 19 14  1  0
 20 18  1  0
 21 20  2  0
 22 21  1  0
 23 22  1  0
 23 24  2  0
 24 20  1  0
  1 25  1  0
  4 26  1  0
  7 27  1  0
  8 28  1  0
 10 29  1  0
 14 30  1  0
 15 31  1  0
 23 32  1  0
M  ISO  8  25   9  26  14  27  14  28  14  29  14  30  14  31  14  32  14
M  END
>  <minimizedAffinity>  (1) 
-4.92520666

>  <minimizedRMSD>  (1) 
2.29784107

$$$$
