
     RDKit          3D

 34 37  0  0  0  0  0  0  0  0999 V2000
   37.5630   25.4590   33.0290 N   0  0  0  0  0  0  0  0  0  0  0  0
   37.9630   24.5030   33.8460 N   0  0  0  0  0  0  0  0  0  0  0  0
   37.9080   24.9310   35.1180 C   0  0  0  0  0  0  0  0  0  0  0  0
   37.4450   26.2310   35.0660 C   0  0  0  0  0  0  0  0  0  0  0  0
   37.2340   26.5440   33.7320 C   0  0  0  0  0  0  0  0  0  0  0  0
   36.7370   27.8660   33.3460 C   0  0  0  0  0  0  0  0  0  0  0  0
   36.0800   28.6430   34.2760 C   0  0  0  0  0  0  0  0  0  0  0  0
   35.5640   29.9170   34.0140 C   0  0  0  0  0  0  0  0  0  0  0  0
   35.7390   30.3880   32.7580 N   0  0  0  0  0  0  0  0  0  0  0  0
   36.3800   29.6320   31.8440 C   0  0  0  0  0  0  0  0  0  0  0  0
   36.8760   28.3990   32.1050 N   0  0  0  0  0  0  0  0  0  0  0  0
   38.2710   24.1600   36.3190 C   0  0  0  0  0  0  0  0  0  0  0  0
   37.3380   24.0560   37.1840 O   0  0  0  0  0  0  0  0  0  0  0  0
   41.0080   21.9700   37.4420 C   0  0  0  0  0  0  0  0  0  0  0  0
   39.7110   22.5280   37.3160 C   0  0  0  0  0  0  0  0  0  0  0  0
   39.5760   23.6030   36.4440 C   0  0  0  0  0  0  0  0  0  0  0  0
   40.6560   24.0640   35.7680 N   0  0  0  0  0  0  0  0  0  0  0  0
   41.8750   23.4920   35.9280 C   0  0  0  0  0  0  0  0  0  0  0  0
   42.0360   22.4640   36.7530 N   0  0  0  0  0  0  0  0  0  0  0  0
   43.0150   24.0540   35.1510 C   0  0  0  0  0  0  0  0  0  0  0  0
   43.7630   25.1450   35.9070 C   0  0  0  0  0  0  0  0  0  0  0  0
   44.4120   23.8410   35.5250 C   0  0  0  0  0  0  0  0  0  0  0  0
   37.5124   25.3795   32.0033 H   0  0  0  0  0  0  0  0  0  0  0  0
   37.2748   26.8962   35.9254 H   0  0  0  0  0  0  0  0  0  0  0  0
   35.9532   28.2351   35.2897 H   0  0  0  0  0  0  0  0  0  0  0  0
   35.0448   30.5031   34.7866 H   0  0  0  0  0  0  0  0  0  0  0  0
   36.5072   30.0392   30.8301 H   0  0  0  0  0  0  0  0  0  0  0  0
   41.1681   21.1172   38.1181 H   0  0  0  0  0  0  0  0  0  0  0  0
   38.8541   22.1306   37.8798 H   0  0  0  0  0  0  0  0  0  0  0  0
   42.5007   23.9082   34.1896 H   0  0  0  0  0  0  0  0  0  0  0  0
   44.0483   26.0781   35.3992 H   0  0  0  0  0  0  0  0  0  0  0  0
   43.6097   25.7093   36.8387 H   0  0  0  0  0  0  0  0  0  0  0  0
   44.6615   23.1071   36.3055 H   0  0  0  0  0  0  0  0  0  0  0  0
   45.3223   23.5706   34.9698 H   0  0  0  0  0  0  0  0  0  0  0  0
  1  5  1  0
  1  2  1  0
  2  3  2  0
  3 12  1  0
  4  3  1  0
  5  4  2  0
  6  5  1  0
  6  7  2  0
  8  7  1  0
  9  8  2  0
 10 11  2  0
 10  9  1  0
 11  6  1  0
 12 16  1  0
 12 13  2  0
 15 14  2  0
 16 15  1  0
 17 18  1  0
 17 16  2  0
 18 19  2  0
 19 14  1  0
 20 22  1  0
 20 21  1  0
 20 18  1  0
 22 21  1  0
  1 23  1  0
  4 24  1  0
  7 25  1  0
  8 26  1  0
 10 27  1  0
 14 28  1  0
 15 29  1  0
 20 30  1  0
 21 31  1  0
 21 32  1  0
 22 33  1  0
 22 34  1  0
M  ISO  8  23   9  24  14  25  14  26  14  27  14  28  14  29  14  30  13
M  ISO  4  31  13  32  13  33  13  34  13
M  END
>  <minimizedAffinity>  (1) 
-4.92234755

>  <minimizedRMSD>  (1) 
2.22706294

$$$$
