
     RDKit          3D

 34 37  0  0  0  0  0  0  0  0999 V2000
   37.4820   25.3130   33.1060 N   0  0  0  0  0  0  0  0  0  0  0  0
   37.9160   24.3520   33.9090 N   0  0  0  0  0  0  0  0  0  0  0  0
   37.9560   24.8110   35.1830 C   0  0  0  0  0  0  0  0  0  0  0  0
   37.5240   26.1110   35.1380 C   0  0  0  0  0  0  0  0  0  0  0  0
   37.2310   26.4140   33.8320 C   0  0  0  0  0  0  0  0  0  0  0  0
   36.7390   27.7410   33.4510 C   0  0  0  0  0  0  0  0  0  0  0  0
   36.1070   28.5270   34.3910 C   0  0  0  0  0  0  0  0  0  0  0  0
   35.6040   29.7990   34.1370 C   0  0  0  0  0  0  0  0  0  0  0  0
   35.7540   30.2760   32.8850 N   0  0  0  0  0  0  0  0  0  0  0  0
   36.3670   29.5220   31.9560 C   0  0  0  0  0  0  0  0  0  0  0  0
   36.8550   28.2870   32.2090 N   0  0  0  0  0  0  0  0  0  0  0  0
   38.3850   24.0390   36.3560 C   0  0  0  0  0  0  0  0  0  0  0  0
   37.4850   23.8870   37.2380 O   0  0  0  0  0  0  0  0  0  0  0  0
   41.2120   21.8920   37.3360 C   0  0  0  0  0  0  0  0  0  0  0  0
   39.9050   22.4220   37.2400 C   0  0  0  0  0  0  0  0  0  0  0  0
   39.7200   23.5320   36.4270 C   0  0  0  0  0  0  0  0  0  0  0  0
   40.7860   24.0620   35.7630 N   0  0  0  0  0  0  0  0  0  0  0  0
   42.0060   23.5180   35.8900 C   0  0  0  0  0  0  0  0  0  0  0  0
   42.2110   22.4530   36.6630 N   0  0  0  0  0  0  0  0  0  0  0  0
   43.1310   24.1040   35.1690 C   0  0  0  0  0  0  0  0  0  0  0  0
   43.5370   25.4230   35.1930 C   0  0  0  0  0  0  0  0  0  0  0  0
   44.6110   25.5900   34.4010 N   0  0  0  0  0  0  0  0  0  0  0  0
   44.9070   24.3830   33.8630 C   0  0  0  0  0  0  0  0  0  0  0  0
   44.0040   23.5060   34.3380 N   0  0  0  0  0  0  0  0  0  0  0  0
   37.3572   25.2285   32.0871 H   0  0  0  0  0  0  0  0  0  0  0  0
   37.4289   26.7914   35.9971 H   0  0  0  0  0  0  0  0  0  0  0  0
   35.9931   28.1222   35.4075 H   0  0  0  0  0  0  0  0  0  0  0  0
   35.1068   30.3884   34.9215 H   0  0  0  0  0  0  0  0  0  0  0  0
   36.4768   29.9299   30.9404 H   0  0  0  0  0  0  0  0  0  0  0  0
   41.4025   21.0130   37.9694 H   0  0  0  0  0  0  0  0  0  0  0  0
   39.0653   21.9714   37.7894 H   0  0  0  0  0  0  0  0  0  0  0  0
   43.0528   26.2210   35.7750 H   0  0  0  0  0  0  0  0  0  0  0  0
   45.7307   24.1613   33.1684 H   0  0  0  0  0  0  0  0  0  0  0  0
   43.9836   22.5049   34.0964 H   0  0  0  0  0  0  0  0  0  0  0  0
  1  5  1  0
  1  2  1  0
  2  3  2  0
  3 12  1  0
  4  3  1  0
  5  4  2  0
  6  5  1  0
  6  7  2  0
  8  7  1  0
  9  8  2  0
 10 11  2  0
 10  9  1  0
 11  6  1  0
 12 16  1  0
 12 13  2  0
 15 14  2  0
 16 15  1  0
 17 18  1  0
 17 16  2  0
 18 19  2  0
 19 14  1  0
 20 21  2  0
 20 18  1  0
 22 21  1  0
 23 24  1  0
 23 22  2  0
 24 20  1  0
  1 25  1  0
  4 26  1  0
  7 27  1  0
  8 28  1  0
 10 29  1  0
 14 30  1  0
 15 31  1  0
 21 32  1  0
 23 33  1  0
 24 34  1  0
M  ISO  8  25   9  26  14  27  14  28  14  29  14  30  14  31  14  32  14
M  ISO  2  33  14  34   9
M  END
>  <minimizedAffinity>  (1) 
-4.91446543

>  <minimizedRMSD>  (1) 
2.29114795

$$$$
