
     RDKit          3D

 28 30  0  0  0  0  0  0  0  0999 V2000
   36.6230   26.8410   32.6510 N   0  0  0  0  0  0  0  0  0  0  0  0
   37.3100   25.8650   33.2170 N   0  0  0  0  0  0  0  0  0  0  0  0
   37.5580   26.1610   34.5140 C   0  0  0  0  0  0  0  0  0  0  0  0
   36.9820   27.4020   34.7470 C   0  0  0  0  0  0  0  0  0  0  0  0
   36.4020   27.8090   33.5640 C   0  0  0  0  0  0  0  0  0  0  0  0
   35.7020   29.0940   33.4720 C   0  0  0  0  0  0  0  0  0  0  0  0
   35.6740   29.9240   34.5730 C   0  0  0  0  0  0  0  0  0  0  0  0
   35.0390   31.1720   34.6040 C   0  0  0  0  0  0  0  0  0  0  0  0
   34.4220   31.5620   33.4720 N   0  0  0  0  0  0  0  0  0  0  0  0
   34.4440   30.7590   32.3920 C   0  0  0  0  0  0  0  0  0  0  0  0
   35.0620   29.5430   32.3590 N   0  0  0  0  0  0  0  0  0  0  0  0
   38.2920   25.3300   35.4770 C   0  0  0  0  0  0  0  0  0  0  0  0
   37.5790   24.8320   36.4010 O   0  0  0  0  0  0  0  0  0  0  0  0
   41.5680   23.6600   35.4460 C   0  0  0  0  0  0  0  0  0  0  0  0
   40.1880   23.8610   35.5970 C   0  0  0  0  0  0  0  0  0  0  0  0
   39.6980   25.1460   35.3170 C   0  0  0  0  0  0  0  0  0  0  0  0
   40.5610   26.1110   34.9240 N   0  0  0  0  0  0  0  0  0  0  0  0
   41.8870   25.8670   34.7930 C   0  0  0  0  0  0  0  0  0  0  0  0
   42.3640   24.6390   35.0590 N   0  0  0  0  0  0  0  0  0  0  0  0
   42.5790   27.0020   34.3790 O   0  0  0  0  0  0  0  0  0  0  0  0
   36.3071   26.8598   31.6708 H   0  0  0  0  0  0  0  0  0  0  0  0
   36.9872   27.9567   35.6969 H   0  0  0  0  0  0  0  0  0  0  0  0
   36.1836   29.5837   35.4865 H   0  0  0  0  0  0  0  0  0  0  0  0
   35.0439   31.8012   35.5063 H   0  0  0  0  0  0  0  0  0  0  0  0
   33.9329   31.1039   31.4810 H   0  0  0  0  0  0  0  0  0  0  0  0
   41.9948   22.6677   35.6541 H   0  0  0  0  0  0  0  0  0  0  0  0
   39.5204   23.0486   35.9201 H   0  0  0  0  0  0  0  0  0  0  0  0
   43.5589   26.9624   34.2437 H   0  0  0  0  0  0  0  0  0  0  0  0
  1  2  1  0
  1  5  1  0
  2  3  2  0
  3  4  1  0
  3 12  1  0
  5  4  2  0
  6  5  1  0
  6  7  2  0
  7  8  1  0
  9  8  2  0
 10  9  1  0
 11 10  2  0
 11  6  1  0
 12 13  2  0
 14 15  2  0
 16 12  1  0
 16 15  1  0
 17 16  2  0
 18 17  1  0
 18 19  2  0
 19 14  1  0
 20 18  1  0
  1 21  1  0
  4 22  1  0
  7 23  1  0
  8 24  1  0
 10 25  1  0
 14 26  1  0
 15 27  1  0
 20 28  1  0
M  ISO  8  21   9  22  14  23  14  24  14  25  14  26  14  27  14  28   3
M  END
>  <minimizedAffinity>  (1) 
-4.48728466

>  <minimizedRMSD>  (1) 
0.0377189443

$$$$
