
     RDKit          3D

 28 30  0  0  0  0  0  0  0  0999 V2000
   36.6270   26.7440   32.6980 N   0  0  0  0  0  0  0  0  0  0  0  0
   37.2400   25.7250   33.2840 N   0  0  0  0  0  0  0  0  0  0  0  0
   37.5560   26.0470   34.5480 C   0  0  0  0  0  0  0  0  0  0  0  0
   37.1070   27.3450   34.7440 C   0  0  0  0  0  0  0  0  0  0  0  0
   36.5240   27.7610   33.5560 C   0  0  0  0  0  0  0  0  0  0  0  0
   35.9420   29.1000   33.4360 C   0  0  0  0  0  0  0  0  0  0  0  0
   35.6510   29.8110   34.5800 C   0  0  0  0  0  0  0  0  0  0  0  0
   35.0850   31.0940   34.5860 C   0  0  0  0  0  0  0  0  0  0  0  0
   34.8180   31.6410   33.3810 N   0  0  0  0  0  0  0  0  0  0  0  0
   35.1000   30.9530   32.2640 C   0  0  0  0  0  0  0  0  0  0  0  0
   35.6520   29.7040   32.2610 N   0  0  0  0  0  0  0  0  0  0  0  0
   38.2410   25.1960   35.5340 C   0  0  0  0  0  0  0  0  0  0  0  0
   37.4960   24.7530   36.4710 O   0  0  0  0  0  0  0  0  0  0  0  0
   41.4620   23.4360   35.7720 C   0  0  0  0  0  0  0  0  0  0  0  0
   40.0870   23.7220   35.9010 C   0  0  0  0  0  0  0  0  0  0  0  0
   39.6340   24.9290   35.3920 C   0  0  0  0  0  0  0  0  0  0  0  0
   40.5110   25.7750   34.8030 N   0  0  0  0  0  0  0  0  0  0  0  0
   41.8230   25.4580   34.7020 C   0  0  0  0  0  0  0  0  0  0  0  0
   42.2720   24.2970   35.1870 N   0  0  0  0  0  0  0  0  0  0  0  0
   42.7670   26.7540   33.8760 S   0  0  0  0  0  0  0  0  0  0  0  0
   36.2824   26.7499   31.7274 H   0  0  0  0  0  0  0  0  0  0  0  0
   37.1966   27.9341   35.6686 H   0  0  0  0  0  0  0  0  0  0  0  0
   35.8769   29.3427   35.5494 H   0  0  0  0  0  0  0  0  0  0  0  0
   34.8698   31.6270   35.5238 H   0  0  0  0  0  0  0  0  0  0  0  0
   34.8735   31.4220   31.2951 H   0  0  0  0  0  0  0  0  0  0  0  0
   41.8617   22.4883   36.1620 H   0  0  0  0  0  0  0  0  0  0  0  0
   39.3999   23.0138   36.3873 H   0  0  0  0  0  0  0  0  0  0  0  0
   43.3543   27.5603   34.8151 H   0  0  0  0  0  0  0  0  0  0  0  0
  1  2  1  0
  1  5  1  0
  2  3  2  0
  3  4  1  0
  3 12  1  0
  5  4  2  0
  6  5  1  0
  6  7  2  0
  7  8  1  0
  9  8  2  0
 10  9  1  0
 11 10  2  0
 11  6  1  0
 12 13  2  0
 14 15  2  0
 16 12  1  0
 16 15  1  0
 17 16  2  0
 18 17  1  0
 18 19  2  0
 19 14  1  0
 20 18  1  0
  1 21  1  0
  4 22  1  0
  7 23  1  0
  8 24  1  0
 10 25  1  0
 14 26  1  0
 15 27  1  0
 20 28  1  0
M  ISO  8  21   9  22  14  23  14  24  14  25  14  26  14  27  14  28  11
M  END
>  <minimizedAffinity>  (1) 
-4.27646542

>  <minimizedRMSD>  (1) 
0.332987785

$$$$
