
     RDKit          3D

 33 36  0  0  1  0  0  0  0  0999 V2000
   37.8770   25.8900   35.7140 C   0  0  1  0  0  0  0  0  0  0  0  0
   38.3340   27.2990   36.0690 C   0  0  0  0  0  0  0  0  0  0  0  0
   38.6020   26.7190   34.7960 C   0  0  2  0  0  0  0  0  0  0  0  0
   38.4050   27.0660   33.4180 C   0  0  0  0  0  0  0  0  0  0  0  0
   39.2580   26.7130   32.3500 C   0  0  0  0  0  0  0  0  0  0  0  0
   39.1520   27.0480   31.0260 C   0  0  0  0  0  0  0  0  0  0  0  0
   38.0870   27.8280   30.6510 C   0  0  0  0  0  0  0  0  0  0  0  0
   37.1820   28.2370   31.6000 C   0  0  0  0  0  0  0  0  0  0  0  0
   36.1260   29.0050   31.1660 C   0  0  0  0  0  0  0  0  0  0  0  0
   35.1770   29.4290   32.0730 C   0  0  0  0  0  0  0  0  0  0  0  0
   35.3140   29.0650   33.4170 C   0  0  0  0  0  0  0  0  0  0  0  0
   36.3920   28.3070   33.7420 C   0  0  0  0  0  0  0  0  0  0  0  0
   37.3780   27.8490   32.8900 C   0  0  0  0  0  0  0  0  0  0  0  0
   38.4810   24.7550   36.4700 C   0  0  0  0  0  0  0  0  0  0  0  0
   39.5420   24.0540   35.8160 C   0  0  0  0  0  0  0  0  0  0  0  0
   40.1540   22.9810   36.4990 C   0  0  0  0  0  0  0  0  0  0  0  0
   39.6750   22.6960   37.7450 N   0  0  0  0  0  0  0  0  0  0  0  0
   38.6700   23.3900   38.3180 C   0  0  0  0  0  0  0  0  0  0  0  0
   38.0820   24.4050   37.6870 N   0  0  0  0  0  0  0  0  0  0  0  0
   36.9415   25.3165   35.6370 H   0  0  0  0  0  0  0  0  0  0  0  0
   37.6004   28.1130   36.1649 H   0  0  0  0  0  0  0  0  0  0  0  0
   38.9341   27.7553   36.8700 H   0  0  0  0  0  0  0  0  0  0  0  0
   39.5052   26.6420   34.1728 H   0  0  0  0  0  0  0  0  0  0  0  0
   40.1219   26.0862   32.6161 H   0  0  0  0  0  0  0  0  0  0  0  0
   39.8937   26.7042   30.2900 H   0  0  0  0  0  0  0  0  0  0  0  0
   37.9591   28.1233   29.5991 H   0  0  0  0  0  0  0  0  0  0  0  0
   36.0392   29.2787   30.1041 H   0  0  0  0  0  0  0  0  0  0  0  0
   34.3259   30.0437   31.7447 H   0  0  0  0  0  0  0  0  0  0  0  0
   34.5817   29.3787   34.1755 H   0  0  0  0  0  0  0  0  0  0  0  0
   36.4914   28.0264   34.8010 H   0  0  0  0  0  0  0  0  0  0  0  0
   39.8724   24.3433   34.8075 H   0  0  0  0  0  0  0  0  0  0  0  0
   40.9755   22.4036   36.0498 H   0  0  0  0  0  0  0  0  0  0  0  0
   38.3294   23.1121   39.3263 H   0  0  0  0  0  0  0  0  0  0  0  0
  1  2  1  0
  1 14  1  0
  3  1  1  0
  3  2  1  0
  4  3  1  0
  5  4  2  0
  6  5  1  0
  7  6  2  0
  7  8  1  0
  8 13  2  0
  9  8  1  0
  9 10  2  0
 10 11  1  0
 11 12  2  0
 13  4  1  0
 13 12  1  0
 14 19  1  0
 15 14  2  0
 15 16  1  0
 16 17  2  0
 17 18  1  0
 19 18  2  0
  1 20  1  6
  2 21  1  0
  2 22  1  0
  3 23  1  6
  5 24  1  0
  6 25  1  0
  7 26  1  0
  9 27  1  0
 10 28  1  0
 11 29  1  0
 12 30  1  0
 15 31  1  0
 16 32  1  0
 18 33  1  0
M  ISO  8  20  13  21  13  22  13  23  13  24  14  25  14  26  14  27  14
M  ISO  6  28  14  29  14  30  14  31  14  32  14  33  14
M  END
>  <minimizedAffinity>  (1) 
-5.76617479

>  <minimizedRMSD>  (1) 
0.715439737

$$$$
