
     RDKit          3D

 39 43  0  0  0  0  0  0  0  0999 V2000
   36.6780   24.2440   31.9580 C   0  0  0  0  0  0  0  0  0  0  0  0
   36.2230   25.5620   31.8830 C   0  0  0  0  0  0  0  0  0  0  0  0
   36.8300   26.4240   32.7670 C   0  0  0  0  0  0  0  0  0  0  0  0
   37.7610   25.9560   33.5900 N   0  0  0  0  0  0  0  0  0  0  0  0
   38.2000   24.7280   33.6760 C   0  0  0  0  0  0  0  0  0  0  0  0
   37.6240   23.8940   32.8320 N   0  0  0  0  0  0  0  0  0  0  0  0
   39.1980   24.0900   34.5180 C   0  0  0  0  0  0  0  0  0  0  0  0
   40.4180   23.6710   34.0170 C   0  0  0  0  0  0  0  0  0  0  0  0
   41.3960   23.0640   34.7680 C   0  0  0  0  0  0  0  0  0  0  0  0
   41.1770   22.8450   36.1140 C   0  0  0  0  0  0  0  0  0  0  0  0
   39.9990   23.2350   36.6620 C   0  0  0  0  0  0  0  0  0  0  0  0
   39.7910   23.0110   38.0030 C   0  0  0  0  0  0  0  0  0  0  0  0
   38.6480   23.3680   38.6260 C   0  0  0  0  0  0  0  0  0  0  0  0
   37.6600   23.9860   37.8450 C   0  0  0  0  0  0  0  0  0  0  0  0
   37.9020   24.1930   36.5080 C   0  0  0  0  0  0  0  0  0  0  0  0
   39.0510   23.8410   35.8610 C   0  0  0  0  0  0  0  0  0  0  0  0
   36.4810   27.8010   32.8180 N   0  0  0  0  0  0  0  0  0  0  0  0
   36.6240   28.6940   31.8090 C   0  0  0  0  0  0  0  0  0  0  0  0
   36.1970   29.8930   32.2020 N   0  0  0  0  0  0  0  0  0  0  0  0
   35.7830   29.7660   33.4550 C   0  0  0  0  0  0  0  0  0  0  0  0
   35.9620   28.4850   33.8190 N   0  0  0  0  0  0  0  0  0  0  0  0
   35.1950   30.7970   34.4200 C   0  0  0  0  0  0  0  0  0  0  0  0
   35.9020   31.0940   35.6190 C   0  0  0  0  0  0  0  0  0  0  0  0
   35.3600   32.0170   36.4670 C   0  0  0  0  0  0  0  0  0  0  0  0
   34.1070   32.6480   36.1190 C   0  0  0  0  0  0  0  0  0  0  0  0
   33.7330   31.8140   34.4450 S   0  0  0  0  0  0  0  0  0  0  0  0
   36.2509   23.4837   31.2875 H   0  0  0  0  0  0  0  0  0  0  0  0
   35.4442   25.8842   31.1761 H   0  0  0  0  0  0  0  0  0  0  0  0
   40.6181   23.8344   32.9478 H   0  0  0  0  0  0  0  0  0  0  0  0
   42.3435   22.7558   34.3019 H   0  0  0  0  0  0  0  0  0  0  0  0
   41.9470   22.3611   36.7329 H   0  0  0  0  0  0  0  0  0  0  0  0
   40.5844   22.5236   38.5887 H   0  0  0  0  0  0  0  0  0  0  0  0
   38.4977   23.1824   39.6998 H   0  0  0  0  0  0  0  0  0  0  0  0
   36.7068   24.2999   38.2955 H   0  0  0  0  0  0  0  0  0  0  0  0
   37.1118   24.6779   35.9161 H   0  0  0  0  0  0  0  0  0  0  0  0
   37.0319   28.4633   30.8138 H   0  0  0  0  0  0  0  0  0  0  0  0
   36.8541   30.5962   35.8549 H   0  0  0  0  0  0  0  0  0  0  0  0
   35.8717   32.2776   37.4052 H   0  0  0  0  0  0  0  0  0  0  0  0
   33.5271   33.4034   36.6696 H   0  0  0  0  0  0  0  0  0  0  0  0
  1  6  2  0
  2  1  1  0
  2  3  2  0
  3 17  1  0
  3  4  1  0
  4  5  2  0
  5  7  1  0
  6  5  1  0
  7 16  1  0
  8  7  2  0
  8  9  1  0
  9 10  2  0
 10 11  1  0
 11 12  2  0
 12 13  1  0
 14 13  2  0
 15 14  1  0
 16 15  2  0
 16 11  1  0
 17 21  1  0
 18 19  2  0
 18 17  1  0
 19 20  1  0
 20 21  2  0
 20 22  1  0
 22 26  1  0
 22 23  2  0
 23 24  1  0
 25 24  2  0
 26 25  1  0
  1 27  1  0
  2 28  1  0
  8 29  1  0
  9 30  1  0
 10 31  1  0
 12 32  1  0
 13 33  1  0
 14 34  1  0
 15 35  1  0
 18 36  1  0
 23 37  1  0
 24 38  1  0
 25 39  1  0
M  ISO  8  27  14  28  14  29  14  30  14  31  14  32  14  33  14  34  14
M  ISO  5  35  14  36  14  37  14  38  14  39  14
M  END
>  <minimizedAffinity>  (1) 
-6.55147362

>  <minimizedRMSD>  (1) 
1.71201038

$$$$
