
     RDKit          3D

 31 34  0  0  1  0  0  0  0  0999 V2000
   38.3280   25.6450   33.3170 C   0  0  1  0  0  0  0  0  0  0  0  0
   37.7860   26.5490   34.3940 C   0  0  0  0  0  0  0  0  0  0  0  0
   38.9570   25.6660   34.6140 C   0  0  1  0  0  0  0  0  0  0  0  0
   38.8330   24.7730   35.7520 C   0  0  0  0  0  0  0  0  0  0  0  0
   37.7220   24.7430   36.5360 N   0  0  0  0  0  0  0  0  0  0  0  0
   37.5680   23.9390   37.5880 C   0  0  0  0  0  0  0  0  0  0  0  0
   38.5260   23.0740   37.9600 N   0  0  0  0  0  0  0  0  0  0  0  0
   39.6800   22.9940   37.2770 C   0  0  0  0  0  0  0  0  0  0  0  0
   40.7330   22.1490   37.5630 C   0  0  0  0  0  0  0  0  0  0  0  0
   41.8880   22.1250   36.8100 C   0  0  0  0  0  0  0  0  0  0  0  0
   42.0270   22.9590   35.7340 C   0  0  0  0  0  0  0  0  0  0  0  0
   40.9740   23.7980   35.4560 C   0  0  0  0  0  0  0  0  0  0  0  0
   39.7880   23.8450   36.2010 C   0  0  0  0  0  0  0  0  0  0  0  0
   37.4490   24.5840   32.7820 C   0  0  0  0  0  0  0  0  0  0  0  0
   36.4310   25.0220   31.9260 C   0  0  0  0  0  0  0  0  0  0  0  0
   35.5670   24.0950   31.3730 C   0  0  0  0  0  0  0  0  0  0  0  0
   35.7620   22.7900   31.6980 N   0  0  0  0  0  0  0  0  0  0  0  0
   36.7370   22.3830   32.5170 C   0  0  0  0  0  0  0  0  0  0  0  0
   37.5700   23.2700   33.0520 N   0  0  0  0  0  0  0  0  0  0  0  0
   38.7473   25.7287   32.3035 H   0  0  0  0  0  0  0  0  0  0  0  0
   37.9165   27.6389   34.3233 H   0  0  0  0  0  0  0  0  0  0  0  0
   36.8112   26.7062   34.8788 H   0  0  0  0  0  0  0  0  0  0  0  0
   40.0350   25.6941   34.8312 H   0  0  0  0  0  0  0  0  0  0  0  0
   36.6332   23.9850   38.1659 H   0  0  0  0  0  0  0  0  0  0  0  0
   40.6478   21.4693   38.4237 H   0  0  0  0  0  0  0  0  0  0  0  0
   42.7007   21.4328   37.0753 H   0  0  0  0  0  0  0  0  0  0  0  0
   42.9395   22.9581   35.1197 H   0  0  0  0  0  0  0  0  0  0  0  0
   41.0684   24.4752   34.5943 H   0  0  0  0  0  0  0  0  0  0  0  0
   36.3199   26.0919   31.6960 H   0  0  0  0  0  0  0  0  0  0  0  0
   34.7548   24.4014   30.6974 H   0  0  0  0  0  0  0  0  0  0  0  0
   36.8500   21.3135   32.7483 H   0  0  0  0  0  0  0  0  0  0  0  0
  1  2  1  0
  1  3  1  0
  2  3  1  0
  3  4  1  0
  4 13  1  0
  4  5  2  0
  5  6  1  0
  6  7  2  0
  8  9  2  0
  8  7  1  0
 10  9  1  0
 11 10  2  0
 12 11  1  0
 12 13  2  0
 13  8  1  0
 14 19  1  0
 14  1  1  0
 15 14  2  0
 16 17  2  0
 16 15  1  0
 17 18  1  0
 18 19  2  0
  1 20  1  6
  2 21  1  0
  2 22  1  0
  3 23  1  6
  6 24  1  0
  9 25  1  0
 10 26  1  0
 11 27  1  0
 12 28  1  0
 15 29  1  0
 16 30  1  0
 18 31  1  0
M  ISO  8  20  13  21  13  22  13  23  13  24  14  25  14  26  14  27  14
M  ISO  4  28  14  29  14  30  14  31  14
M  END
>  <minimizedAffinity>  (1) 
-5.1659255

>  <minimizedRMSD>  (1) 
4.72655773

$$$$
