
     RDKit          3D

 28 30  0  0  1  0  0  0  0  0999 V2000
   37.8280   25.6900   35.6140 C   0  0  1  0  0  0  0  0  0  0  0  0
   38.2280   27.1370   35.8120 C   0  0  0  0  0  0  0  0  0  0  0  0
   38.5880   26.3830   34.5830 C   0  0  2  0  0  0  0  0  0  0  0  0
   38.0180   26.8610   33.3630 N   0  0  0  0  0  0  0  0  0  0  0  0
   38.6210   26.3660   32.2460 C   0  0  0  0  0  0  0  0  0  0  0  0
   38.1830   26.7340   30.9910 C   0  0  0  0  0  0  0  0  0  0  0  0
   37.1250   27.6110   30.9240 C   0  0  0  0  0  0  0  0  0  0  0  0
   36.5710   28.0750   29.6930 N   0  0  0  0  0  0  0  0  0  0  0  0
   36.5610   28.0730   32.0370 N   0  0  0  0  0  0  0  0  0  0  0  0
   36.9980   27.7050   33.2620 C   0  0  0  0  0  0  0  0  0  0  0  0
   36.4750   28.1330   34.3270 O   0  0  0  0  0  0  0  0  0  0  0  0
   38.4320   24.6730   36.5070 C   0  0  0  0  0  0  0  0  0  0  0  0
   39.5240   23.8970   36.0020 C   0  0  0  0  0  0  0  0  0  0  0  0
   40.0970   22.9450   36.8600 C   0  0  0  0  0  0  0  0  0  0  0  0
   39.5820   22.8140   38.1270 N   0  0  0  0  0  0  0  0  0  0  0  0
   38.5420   23.5830   38.5470 C   0  0  0  0  0  0  0  0  0  0  0  0
   37.9770   24.4950   37.7540 N   0  0  0  0  0  0  0  0  0  0  0  0
   36.8951   25.1075   35.5942 H   0  0  0  0  0  0  0  0  0  0  0  0
   37.4698   27.9330   35.7730 H   0  0  0  0  0  0  0  0  0  0  0  0
   38.7759   27.7065   36.5771 H   0  0  0  0  0  0  0  0  0  0  0  0
   39.5040   26.0947   34.0465 H   0  0  0  0  0  0  0  0  0  0  0  0
   39.4644   25.6669   32.3460 H   0  0  0  0  0  0  0  0  0  0  0  0
   38.6602   26.3422   30.0806 H   0  0  0  0  0  0  0  0  0  0  0  0
   35.7779   28.7322   29.7004 H   0  0  0  0  0  0  0  0  0  0  0  0
   36.9643   27.7526   28.7973 H   0  0  0  0  0  0  0  0  0  0  0  0
   39.9005   24.0415   34.9786 H   0  0  0  0  0  0  0  0  0  0  0  0
   40.9378   22.3192   36.5261 H   0  0  0  0  0  0  0  0  0  0  0  0
   38.1561   23.4494   39.5684 H   0  0  0  0  0  0  0  0  0  0  0  0
  1  2  1  0
  1 12  1  0
  3  1  1  0
  3  2  1  0
  4  3  1  0
  5  4  1  0
  6  5  2  0
  7  6  1  0
  7  9  2  0
  8  7  1  0
  9 10  1  0
 10  4  1  0
 10 11  2  0
 12 17  1  0
 13 12  2  0
 13 14  1  0
 14 15  2  0
 15 16  1  0
 17 16  2  0
  1 18  1  6
  2 19  1  0
  2 20  1  0
  3 21  1  6
  5 22  1  0
  6 23  1  0
  8 24  1  0
  8 25  1  0
 13 26  1  0
 14 27  1  0
 16 28  1  0
M  ISO  8  18  13  19  13  20  13  21  13  22  14  23  14  26  14  27  14
M  ISO  1  28  14
M  END
>  <minimizedAffinity>  (1) 
-5.08166647

>  <minimizedRMSD>  (1) 
0.67307514

$$$$
