
     RDKit          3D

 27 29  0  0  1  0  0  0  0  0999 V2000
   37.7500   25.7260   35.7860 C   0  0  1  0  0  0  0  0  0  0  0  0
   38.2240   27.1550   35.8880 C   0  0  0  0  0  0  0  0  0  0  0  0
   38.3480   26.3940   34.6300 C   0  0  2  0  0  0  0  0  0  0  0  0
   38.4510   24.6740   36.5570 C   0  0  0  0  0  0  0  0  0  0  0  0
   39.5130   23.9850   35.9370 C   0  0  0  0  0  0  0  0  0  0  0  0
   40.1620   22.9810   36.6880 C   0  0  0  0  0  0  0  0  0  0  0  0
   39.7230   22.7390   37.9680 N   0  0  0  0  0  0  0  0  0  0  0  0
   38.6930   23.4410   38.5090 C   0  0  0  0  0  0  0  0  0  0  0  0
   38.0550   24.4130   37.8000 N   0  0  0  0  0  0  0  0  0  0  0  0
   37.4160   26.5910   33.4870 C   0  0  0  0  0  0  0  0  0  0  0  0
   37.0580   25.4950   32.6930 C   0  0  0  0  0  0  0  0  0  0  0  0
   36.1880   25.6020   31.6030 C   0  0  0  0  0  0  0  0  0  0  0  0
   35.6660   26.8350   31.3020 C   0  0  0  0  0  0  0  0  0  0  0  0
   36.0160   27.9270   32.0850 C   0  0  0  0  0  0  0  0  0  0  0  0
   36.8710   27.8270   33.1580 C   0  0  0  0  0  0  0  0  0  0  0  0
   36.8082   25.1803   35.9450 H   0  0  0  0  0  0  0  0  0  0  0  0
   37.4957   27.9754   35.9693 H   0  0  0  0  0  0  0  0  0  0  0  0
   38.9134   27.7090   36.5420 H   0  0  0  0  0  0  0  0  0  0  0  0
   39.2070   26.2470   33.9588 H   0  0  0  0  0  0  0  0  0  0  0  0
   39.8239   24.2203   34.9084 H   0  0  0  0  0  0  0  0  0  0  0  0
   40.9973   22.4073   36.2600 H   0  0  0  0  0  0  0  0  0  0  0  0
   38.3691   23.2205   39.5368 H   0  0  0  0  0  0  0  0  0  0  0  0
   37.4786   24.5082   32.9366 H   0  0  0  0  0  0  0  0  0  0  0  0
   35.9283   24.7186   31.0012 H   0  0  0  0  0  0  0  0  0  0  0  0
   34.9792   26.9566   30.4514 H   0  0  0  0  0  0  0  0  0  0  0  0
   35.5926   28.9116   31.8373 H   0  0  0  0  0  0  0  0  0  0  0  0
   37.1217   28.7186   33.7515 H   0  0  0  0  0  0  0  0  0  0  0  0
  1  2  1  0
  1  4  1  0
  3  1  1  0
  3  2  1  0
  4  9  1  0
  5  4  2  0
  5  6  1  0
  6  7  2  0
  7  8  1  0
  9  8  2  0
 10  3  1  0
 11 10  2  0
 12 11  1  0
 13 12  2  0
 13 14  1  0
 14 15  2  0
 15 10  1  0
  1 16  1  6
  2 17  1  0
  2 18  1  0
  3 19  1  6
  5 20  1  0
  6 21  1  0
  8 22  1  0
 11 23  1  0
 12 24  1  0
 13 25  1  0
 14 26  1  0
 15 27  1  0
M  ISO  8  16  13  17  13  18  13  19  13  20  14  21  14  22  14  23  14
M  ISO  4  24  14  25  14  26  14  27  14
M  END
>  <minimizedAffinity>  (1) 
-4.75574207

>  <minimizedRMSD>  (1) 
0.383069724

$$$$
