
     RDKit          3D

 30 32  0  0  1  0  0  0  0  0999 V2000
   37.6890   25.8520   35.9070 C   0  0  1  0  0  0  0  0  0  0  0  0
   38.3170   27.2280   35.9490 C   0  0  0  0  0  0  0  0  0  0  0  0
   38.2270   26.4530   34.6920 C   0  0  2  0  0  0  0  0  0  0  0  0
   38.3870   24.7360   36.6070 C   0  0  0  0  0  0  0  0  0  0  0  0
   39.4190   24.0520   35.8890 C   0  0  0  0  0  0  0  0  0  0  0  0
   40.0690   23.0120   36.5750 C   0  0  0  0  0  0  0  0  0  0  0  0
   39.6880   22.7310   37.8450 N   0  0  0  0  0  0  0  0  0  0  0  0
   38.7000   23.4150   38.4780 C   0  0  0  0  0  0  0  0  0  0  0  0
   38.0570   24.4070   37.8670 N   0  0  0  0  0  0  0  0  0  0  0  0
   37.3540   26.8870   33.5460 C   0  0  0  0  0  0  0  0  0  0  0  0
   36.5120   28.0880   33.8110 C   0  0  0  0  0  0  0  0  0  0  0  0
   36.1320   28.4790   32.3760 C   0  0  0  0  0  0  0  0  0  0  0  0
   37.4510   28.3130   31.6430 C   0  0  0  0  0  0  0  0  0  0  0  0
   38.2340   27.2570   32.3830 C   0  0  0  0  0  0  0  0  0  0  0  0
   36.7172   25.4074   36.1676 H   0  0  0  0  0  0  0  0  0  0  0  0
   37.6899   28.1196   36.0970 H   0  0  0  0  0  0  0  0  0  0  0  0
   39.1238   27.7083   36.5220 H   0  0  0  0  0  0  0  0  0  0  0  0
   38.9558   26.1247   33.9363 H   0  0  0  0  0  0  0  0  0  0  0  0
   39.6883   24.3251   34.8580 H   0  0  0  0  0  0  0  0  0  0  0  0
   40.8718   22.4369   36.0905 H   0  0  0  0  0  0  0  0  0  0  0  0
   38.4278   23.1455   39.5091 H   0  0  0  0  0  0  0  0  0  0  0  0
   36.6838   26.0348   33.3601 H   0  0  0  0  0  0  0  0  0  0  0  0
   35.6258   27.8389   34.4131 H   0  0  0  0  0  0  0  0  0  0  0  0
   37.0102   28.8813   34.3877 H   0  0  0  0  0  0  0  0  0  0  0  0
   35.3617   27.8071   31.9695 H   0  0  0  0  0  0  0  0  0  0  0  0
   35.7015   29.4876   32.2907 H   0  0  0  0  0  0  0  0  0  0  0  0
   37.2699   27.9926   30.6064 H   0  0  0  0  0  0  0  0  0  0  0  0
   38.0050   29.2627   31.6096 H   0  0  0  0  0  0  0  0  0  0  0  0
   38.4158   26.3840   31.7389 H   0  0  0  0  0  0  0  0  0  0  0  0
   39.2238   27.6150   32.7026 H   0  0  0  0  0  0  0  0  0  0  0  0
  1  2  1  0
  1  4  1  0
  3  1  1  0
  3  2  1  0
  4  9  2  0
  5  6  2  0
  5  4  1  0
  6  7  1  0
  7  8  2  0
  9  8  1  0
 10 11  1  0
 10  3  1  0
 12 11  1  0
 13 12  1  0
 13 14  1  0
 14 10  1  0
  1 15  1  6
  2 16  1  0
  2 17  1  0
  3 18  1  6
  5 19  1  0
  6 20  1  0
  8 21  1  0
 10 22  1  0
 11 23  1  0
 11 24  1  0
 12 25  1  0
 12 26  1  0
 13 27  1  0
 13 28  1  0
 14 29  1  0
 14 30  1  0
M  ISO  8  15  13  16  13  17  13  18  13  19  14  20  14  21  14  22  13
M  ISO  8  23  13  24  13  25  13  26  13  27  13  28  13  29  13  30  13
M  END
>  <minimizedAffinity>  (1) 
-4.60822153

>  <minimizedRMSD>  (1) 
0.528288603

$$$$
