
     RDKit          3D

 32 34  0  0  1  0  0  0  0  0999 V2000
   37.7100   25.8220   35.9080 C   0  0  1  0  0  0  0  0  0  0  0  0
   38.3500   27.1920   35.8900 C   0  0  0  0  0  0  0  0  0  0  0  0
   38.2030   26.3910   34.6530 C   0  0  2  0  0  0  0  0  0  0  0  0
   38.3940   24.7220   36.6260 C   0  0  0  0  0  0  0  0  0  0  0  0
   39.4240   24.0180   35.9230 C   0  0  0  0  0  0  0  0  0  0  0  0
   40.0730   22.9760   36.6100 C   0  0  0  0  0  0  0  0  0  0  0  0
   39.6840   22.7060   37.8900 N   0  0  0  0  0  0  0  0  0  0  0  0
   38.6990   23.4070   38.5070 C   0  0  0  0  0  0  0  0  0  0  0  0
   38.0590   24.4100   37.8770 N   0  0  0  0  0  0  0  0  0  0  0  0
   37.2160   26.7020   33.6560 N   0  0  0  0  0  0  0  0  0  0  0  0
   36.5650   27.9670   33.8600 C   0  0  0  0  0  0  0  0  0  0  0  0
   36.0610   28.6200   32.6130 C   0  0  0  0  0  0  0  0  0  0  0  0
   37.0680   28.6480   31.5010 C   0  0  0  0  0  0  0  0  0  0  0  0
   38.1950   27.6630   31.7100 C   0  0  0  0  0  0  0  0  0  0  0  0
   37.5710   26.3990   32.3120 C   0  0  0  0  0  0  0  0  0  0  0  0
   36.7464   25.3867   36.2113 H   0  0  0  0  0  0  0  0  0  0  0  0
   37.7366   28.0921   36.0434 H   0  0  0  0  0  0  0  0  0  0  0  0
   39.1840   27.6773   36.4181 H   0  0  0  0  0  0  0  0  0  0  0  0
   38.9242   26.1035   33.8737 H   0  0  0  0  0  0  0  0  0  0  0  0
   39.6960   24.2808   34.8901 H   0  0  0  0  0  0  0  0  0  0  0  0
   40.8728   22.3943   36.1283 H   0  0  0  0  0  0  0  0  0  0  0  0
   38.4188   23.1512   39.5395 H   0  0  0  0  0  0  0  0  0  0  0  0
   35.7094   27.8072   34.5326 H   0  0  0  0  0  0  0  0  0  0  0  0
   37.3252   28.6430   34.2786 H   0  0  0  0  0  0  0  0  0  0  0  0
   35.1745   28.0690   32.2657 H   0  0  0  0  0  0  0  0  0  0  0  0
   35.8308   29.6654   32.8664 H   0  0  0  0  0  0  0  0  0  0  0  0
   37.4930   29.6605   31.4365 H   0  0  0  0  0  0  0  0  0  0  0  0
   36.5474   28.3656   30.5741 H   0  0  0  0  0  0  0  0  0  0  0  0
   38.6755   27.4275   30.7489 H   0  0  0  0  0  0  0  0  0  0  0  0
   38.9651   28.0792   32.3761 H   0  0  0  0  0  0  0  0  0  0  0  0
   36.6752   26.1128   31.7413 H   0  0  0  0  0  0  0  0  0  0  0  0
   38.2805   25.5592   32.2762 H   0  0  0  0  0  0  0  0  0  0  0  0
  1  4  1  0
  2  1  1  0
  3  2  1  0
  3  1  1  0
  4  9  2  0
  5  6  2  0
  5  4  1  0
  6  7  1  0
  7  8  2  0
  9  8  1  0
 10 11  1  0
 10  3  1  0
 12 11  1  0
 13 14  1  0
 13 12  1  0
 14 15  1  0
 15 10  1  0
  1 16  1  6
  2 17  1  0
  2 18  1  0
  3 19  1  6
  5 20  1  0
  6 21  1  0
  8 22  1  0
 11 23  1  0
 11 24  1  0
 12 25  1  0
 12 26  1  0
 13 27  1  0
 13 28  1  0
 14 29  1  0
 14 30  1  0
 15 31  1  0
 15 32  1  0
M  ISO  8  16  13  17  13  18  13  19  13  20  14  21  14  22  14  23  13
M  ISO  8  24  13  25  13  26  13  27  13  28  13  29  13  30  13  31  13
M  ISO  1  32  13
M  END
>  <minimizedAffinity>  (1) 
-4.56774235

>  <minimizedRMSD>  (1) 
0.677379608

$$$$
