
     RDKit          3D

 39 43  0  0  0  0  0  0  0  0999 V2000
   36.3900   22.9400   32.0070 C   0  0  0  0  0  0  0  0  0  0  0  0
   36.0230   24.2340   31.6440 C   0  0  0  0  0  0  0  0  0  0  0  0
   36.7310   25.2300   32.2810 C   0  0  0  0  0  0  0  0  0  0  0  0
   37.6700   24.8860   33.1550 N   0  0  0  0  0  0  0  0  0  0  0  0
   38.0350   23.6830   33.5130 C   0  0  0  0  0  0  0  0  0  0  0  0
   37.3550   22.7300   32.9020 N   0  0  0  0  0  0  0  0  0  0  0  0
   39.0240   23.1810   34.4360 C   0  0  0  0  0  0  0  0  0  0  0  0
   40.1790   22.5500   34.0150 C   0  0  0  0  0  0  0  0  0  0  0  0
   41.1370   22.0620   34.8640 C   0  0  0  0  0  0  0  0  0  0  0  0
   40.9820   22.1870   36.2280 C   0  0  0  0  0  0  0  0  0  0  0  0
   39.8730   22.7950   36.7020 C   0  0  0  0  0  0  0  0  0  0  0  0
   39.7260   22.9170   38.0700 C   0  0  0  0  0  0  0  0  0  0  0  0
   38.6460   23.5120   38.6290 C   0  0  0  0  0  0  0  0  0  0  0  0
   37.6640   24.0120   37.7520 C   0  0  0  0  0  0  0  0  0  0  0  0
   37.8510   23.8710   36.4020 C   0  0  0  0  0  0  0  0  0  0  0  0
   38.9210   23.2790   35.8220 C   0  0  0  0  0  0  0  0  0  0  0  0
   36.4700   26.5930   32.0150 N   0  0  0  0  0  0  0  0  0  0  0  0
   36.3020   27.1600   30.8010 C   0  0  0  0  0  0  0  0  0  0  0  0
   36.0720   28.4650   30.9370 N   0  0  0  0  0  0  0  0  0  0  0  0
   36.0900   28.7470   32.2420 C   0  0  0  0  0  0  0  0  0  0  0  0
   36.3350   27.5890   32.8850 N   0  0  0  0  0  0  0  0  0  0  0  0
   35.8790   30.0600   32.7590 N   0  0  0  0  0  0  0  0  0  0  0  0
   35.4590   30.1840   34.0320 C   0  0  0  0  0  0  0  0  0  0  0  0
   35.3430   31.5590   34.2530 C   0  0  0  0  0  0  0  0  0  0  0  0
   35.6920   32.2170   33.1180 N   0  0  0  0  0  0  0  0  0  0  0  0
   36.0260   31.2780   32.1880 C   0  0  0  0  0  0  0  0  0  0  0  0
   35.8771   22.0812   31.5494 H   0  0  0  0  0  0  0  0  0  0  0  0
   35.2323   24.4437   30.9086 H   0  0  0  0  0  0  0  0  0  0  0  0
   40.3388   22.4325   32.9330 H   0  0  0  0  0  0  0  0  0  0  0  0
   42.0320   21.5693   34.4563 H   0  0  0  0  0  0  0  0  0  0  0  0
   41.7467   21.7991   36.9171 H   0  0  0  0  0  0  0  0  0  0  0  0
   40.5125   22.5175   38.7271 H   0  0  0  0  0  0  0  0  0  0  0  0
   38.5401   23.6010   39.7203 H   0  0  0  0  0  0  0  0  0  0  0  0
   36.7631   24.5068   38.1438 H   0  0  0  0  0  0  0  0  0  0  0  0
   37.0704   24.2702   35.7376 H   0  0  0  0  0  0  0  0  0  0  0  0
   36.3482   26.6236   29.8418 H   0  0  0  0  0  0  0  0  0  0  0  0
   35.2511   29.3743   34.7470 H   0  0  0  0  0  0  0  0  0  0  0  0
   35.0214   32.0311   35.1931 H   0  0  0  0  0  0  0  0  0  0  0  0
   36.3561   31.4752   31.1574 H   0  0  0  0  0  0  0  0  0  0  0  0
  1  6  2  0
  2  1  1  0
  2  3  2  0
  3  4  1  0
  4  5  2  0
  5  7  1  0
  6  5  1  0
  7 16  1  0
  8  7  2  0
  8  9  1  0
  9 10  2  0
 10 11  1  0
 11 12  2  0
 12 13  1  0
 14 13  2  0
 15 14  1  0
 16 15  2  0
 16 11  1  0
 17  3  1  0
 17 21  1  0
 18 19  2  0
 18 17  1  0
 19 20  1  0
 20 22  1  0
 20 21  2  0
 22 23  1  0
 23 24  2  0
 25 24  1  0
 26 22  1  0
 26 25  2  0
  1 27  1  0
  2 28  1  0
  8 29  1  0
  9 30  1  0
 10 31  1  0
 12 32  1  0
 13 33  1  0
 14 34  1  0
 15 35  1  0
 18 36  1  0
 23 37  1  0
 24 38  1  0
 26 39  1  0
M  ISO  8  27  14  28  14  29  14  30  14  31  14  32  14  33  14  34  14
M  ISO  5  35  14  36  14  37  14  38  14  39  14
M  END
>  <minimizedAffinity>  (1) 
-6.49475336

>  <minimizedRMSD>  (1) 
0.46511355

$$$$
