
     RDKit          3D

 31 33  0  0  1  0  0  0  0  0999 V2000
   37.6140   25.6100   35.6920 C   0  0  1  0  0  0  0  0  0  0  0  0
   38.1990   26.9970   35.5460 C   0  0  0  0  0  0  0  0  0  0  0  0
   38.0910   26.0680   34.3920 C   0  0  2  0  0  0  0  0  0  0  0  0
   38.3740   24.6090   36.4980 C   0  0  0  0  0  0  0  0  0  0  0  0
   39.4810   23.9330   35.9010 C   0  0  0  0  0  0  0  0  0  0  0  0
   40.1700   23.0120   36.6900 C   0  0  0  0  0  0  0  0  0  0  0  0
   39.7540   22.8070   37.9820 N   0  0  0  0  0  0  0  0  0  0  0  0
   38.6930   23.4820   38.4960 C   0  0  0  0  0  0  0  0  0  0  0  0
   37.9940   24.3790   37.7790 N   0  0  0  0  0  0  0  0  0  0  0  0
   37.2120   26.3510   33.2870 N   0  0  0  0  0  0  0  0  0  0  0  0
   37.6110   27.4850   32.4970 C   0  0  0  0  0  0  0  0  0  0  0  0
   36.4330   27.7580   31.5590 C   0  0  0  0  0  0  0  0  0  0  0  0
   36.1730   26.6660   30.6580 N   0  0  0  0  0  0  0  0  0  0  0  0
   36.8040   25.4340   31.0410 C   0  0  0  0  0  0  0  0  0  0  0  0
   36.8490   25.2070   32.5230 C   0  0  0  0  0  0  0  0  0  0  0  0
   36.6653   25.1750   36.0396 H   0  0  0  0  0  0  0  0  0  0  0  0
   37.5494   27.8825   35.6081 H   0  0  0  0  0  0  0  0  0  0  0  0
   39.0085   27.5656   36.0270 H   0  0  0  0  0  0  0  0  0  0  0  0
   38.7966   25.6535   33.6569 H   0  0  0  0  0  0  0  0  0  0  0  0
   39.7785   24.1306   34.8606 H   0  0  0  0  0  0  0  0  0  0  0  0
   41.0308   22.4601   36.2844 H   0  0  0  0  0  0  0  0  0  0  0  0
   38.3950   23.2875   39.5368 H   0  0  0  0  0  0  0  0  0  0  0  0
   37.8003   28.3561   33.1414 H   0  0  0  0  0  0  0  0  0  0  0  0
   38.5409   27.2916   31.9421 H   0  0  0  0  0  0  0  0  0  0  0  0
   35.5332   27.9341   32.1668 H   0  0  0  0  0  0  0  0  0  0  0  0
   36.6917   28.6362   30.9492 H   0  0  0  0  0  0  0  0  0  0  0  0
   36.5150   26.9286   29.7226 H   0  0  0  0  0  0  0  0  0  0  0  0
   36.2491   24.6033   30.5805 H   0  0  0  0  0  0  0  0  0  0  0  0
   37.8469   25.4896   30.6956 H   0  0  0  0  0  0  0  0  0  0  0  0
   35.8515   24.8784   32.8501 H   0  0  0  0  0  0  0  0  0  0  0  0
   37.6310   24.4537   32.6992 H   0  0  0  0  0  0  0  0  0  0  0  0
  1  4  1  0
  2  1  1  0
  3  2  1  0
  3  1  1  0
  4  9  1  0
  5  4  2  0
  5  6  1  0
  6  7  2  0
  7  8  1  0
  9  8  2  0
 10  3  1  0
 11 10  1  0
 12 11  1  0
 13 14  1  0
 13 12  1  0
 14 15  1  0
 15 10  1  0
  1 16  1  6
  2 17  1  0
  2 18  1  0
  3 19  1  6
  5 20  1  0
  6 21  1  0
  8 22  1  0
 11 23  1  0
 11 24  1  0
 12 25  1  0
 12 26  1  0
 13 27  1  0
 14 28  1  0
 14 29  1  0
 15 30  1  0
 15 31  1  0
M  ISO  8  16  13  17  13  18  13  19  13  20  14  21  14  22  14  23  13
M  ISO  8  24  13  25  13  26  13  27   5  28  13  29  13  30  13  31  13
M  END
>  <minimizedAffinity>  (1) 
-4.51323843

>  <minimizedRMSD>  (1) 
0.951792479

$$$$
