
     RDKit          3D

 28 31  0  0  1  0  0  0  0  0999 V2000
   38.2090   26.2400   35.8520 C   0  0  1  0  0  0  0  0  0  0  0  0
   37.9260   27.6670   35.4690 C   0  0  0  0  0  0  0  0  0  0  0  0
   37.0940   26.5380   34.9710 C   0  0  1  0  0  0  0  0  0  0  0  0
   37.1000   26.4580   33.5260 N   0  0  0  0  0  0  0  0  0  0  0  0
   37.4330   25.4270   32.6940 C   0  0  0  0  0  0  0  0  0  0  0  0
   37.3010   25.7990   31.4080 N   0  0  0  0  0  0  0  0  0  0  0  0
   36.8820   27.0730   31.3680 C   0  0  0  0  0  0  0  0  0  0  0  0
   36.5870   27.9480   30.3390 C   0  0  0  0  0  0  0  0  0  0  0  0
   36.1700   29.2230   30.5830 N   0  0  0  0  0  0  0  0  0  0  0  0
   36.0620   29.5840   31.8760 C   0  0  0  0  0  0  0  0  0  0  0  0
   36.3460   28.7400   32.8850 N   0  0  0  0  0  0  0  0  0  0  0  0
   36.7630   27.4670   32.6620 C   0  0  0  0  0  0  0  0  0  0  0  0
   39.4850   25.6150   35.4390 C   0  0  0  0  0  0  0  0  0  0  0  0
   40.4700   26.5090   34.9310 C   0  0  0  0  0  0  0  0  0  0  0  0
   41.6840   25.9660   34.5490 C   0  0  0  0  0  0  0  0  0  0  0  0
   41.8760   24.6290   34.6760 N   0  0  0  0  0  0  0  0  0  0  0  0
   40.9140   23.8210   35.1630 C   0  0  0  0  0  0  0  0  0  0  0  0
   39.7350   24.3120   35.5390 N   0  0  0  0  0  0  0  0  0  0  0  0
   38.2849   25.6476   36.7757 H   0  0  0  0  0  0  0  0  0  0  0  0
   37.5203   28.3710   36.2105 H   0  0  0  0  0  0  0  0  0  0  0  0
   38.4959   28.4891   35.0114 H   0  0  0  0  0  0  0  0  0  0  0  0
   36.0646   26.1528   35.0151 H   0  0  0  0  0  0  0  0  0  0  0  0
   37.7628   24.4324   33.0286 H   0  0  0  0  0  0  0  0  0  0  0  0
   36.6912   27.6073   29.2983 H   0  0  0  0  0  0  0  0  0  0  0  0
   35.7299   30.6049   32.1158 H   0  0  0  0  0  0  0  0  0  0  0  0
   40.2737   27.5880   34.8457 H   0  0  0  0  0  0  0  0  0  0  0  0
   42.4816   26.6088   34.1483 H   0  0  0  0  0  0  0  0  0  0  0  0
   41.1053   22.7413   35.2511 H   0  0  0  0  0  0  0  0  0  0  0  0
  2  1  1  0
  3  2  1  0
  3  1  1  0
  4  3  1  0
  5  4  1  0
  6  5  2  0
  7  6  1  0
  7 12  2  0
  8  9  2  0
  8  7  1  0
  9 10  1  0
 10 11  2  0
 12 11  1  0
 12  4  1  0
 13 18  1  0
 13  1  1  0
 14 13  2  0
 15 16  2  0
 15 14  1  0
 16 17  1  0
 17 18  2  0
  1 19  1  1
  2 20  1  0
  2 21  1  0
  3 22  1  1
  5 23  1  0
  8 24  1  0
 10 25  1  0
 14 26  1  0
 15 27  1  0
 17 28  1  0
M  ISO  8  19  13  20  13  21  13  22  13  23  14  24  14  25  14  26  14
M  ISO  2  27  14  28  14
M  END
>  <minimizedAffinity>  (1) 
-4.47982025

>  <minimizedRMSD>  (1) 
5.25102282

$$$$
