
     RDKit          3D

 24 26  0  0  1  0  0  0  0  0999 V2000
   37.6090   25.8320   35.8620 C   0  0  1  0  0  0  0  0  0  0  0  0
   38.2850   27.1870   35.8220 C   0  0  0  0  0  0  0  0  0  0  0  0
   38.0740   26.3810   34.5950 C   0  0  2  0  0  0  0  0  0  0  0  0
   38.3430   24.7310   36.5630 C   0  0  0  0  0  0  0  0  0  0  0  0
   39.3890   24.0630   35.8480 C   0  0  0  0  0  0  0  0  0  0  0  0
   40.0670   23.0510   36.5480 C   0  0  0  0  0  0  0  0  0  0  0  0
   39.6930   22.7790   37.8280 N   0  0  0  0  0  0  0  0  0  0  0  0
   38.6910   23.4490   38.4540 C   0  0  0  0  0  0  0  0  0  0  0  0
   38.0190   24.4150   37.8350 N   0  0  0  0  0  0  0  0  0  0  0  0
   37.1660   26.8540   33.5360 C   0  0  0  0  0  0  0  0  0  0  0  0
   36.5530   28.1020   33.4910 C   0  0  0  0  0  0  0  0  0  0  0  0
   35.7780   28.1710   32.3440 C   0  0  0  0  0  0  0  0  0  0  0  0
   35.9300   26.9860   31.7220 N   0  0  0  0  0  0  0  0  0  0  0  0
   36.7430   26.2020   32.4120 N   0  0  0  0  0  0  0  0  0  0  0  0
   36.6436   25.4198   36.1910 H   0  0  0  0  0  0  0  0  0  0  0  0
   37.7011   28.1038   35.9911 H   0  0  0  0  0  0  0  0  0  0  0  0
   39.1477   27.6529   36.3208 H   0  0  0  0  0  0  0  0  0  0  0  0
   38.7202   25.9837   33.7984 H   0  0  0  0  0  0  0  0  0  0  0  0
   39.6464   24.3269   34.8116 H   0  0  0  0  0  0  0  0  0  0  0  0
   40.8839   22.4896   36.0710 H   0  0  0  0  0  0  0  0  0  0  0  0
   38.4311   23.1881   39.4905 H   0  0  0  0  0  0  0  0  0  0  0  0
   36.6646   28.8999   34.2399 H   0  0  0  0  0  0  0  0  0  0  0  0
   35.1640   29.0203   32.0098 H   0  0  0  0  0  0  0  0  0  0  0  0
   35.4771   26.7264   30.8341 H   0  0  0  0  0  0  0  0  0  0  0  0
  1  4  1  0
  2  1  1  0
  3  2  1  0
  3  1  1  0
  4  9  2  0
  5  6  2  0
  5  4  1  0
  6  7  1  0
  7  8  2  0
  9  8  1  0
 10  3  1  0
 11 10  1  0
 12 11  2  0
 13 12  1  0
 13 14  1  0
 14 10  2  0
  1 15  1  6
  2 16  1  0
  2 17  1  0
  3 18  1  6
  5 19  1  0
  6 20  1  0
  8 21  1  0
 11 22  1  0
 12 23  1  0
 13 24  1  0
M  ISO  8  15  13  16  13  17  13  18  13  19  14  20  14  21  14  22  14
M  ISO  2  23  14  24   9
M  END
>  <minimizedAffinity>  (1) 
-4.41676569

>  <minimizedRMSD>  (1) 
0.698882997

$$$$
