
     RDKit          3D

 30 32  0  0  1  0  0  0  0  0999 V2000
   37.5800   25.9970   35.6190 C   0  0  1  0  0  0  0  0  0  0  0  0
   38.4090   27.1290   36.1980 C   0  0  0  0  0  0  0  0  0  0  0  0
   38.0130   27.1080   34.7890 C   0  0  1  0  0  0  0  0  0  0  0  0
   38.9050   27.1330   33.6950 N   0  0  0  0  0  0  0  0  0  0  0  0
   38.4220   27.3010   32.4220 C   0  0  0  0  0  0  0  0  0  0  0  0
   39.2000   27.3540   31.3120 C   0  0  0  0  0  0  0  0  0  0  0  0
   38.6010   27.5390   29.9530 C   0  0  0  0  0  0  0  0  0  0  0  0
   40.5600   27.2370   31.4150 C   0  0  0  0  0  0  0  0  0  0  0  0
   41.3170   27.2810   30.4180 O   0  0  0  0  0  0  0  0  0  0  0  0
   41.0600   27.0720   32.6530 N   0  0  0  0  0  0  0  0  0  0  0  0
   40.2520   27.0260   33.7230 C   0  0  0  0  0  0  0  0  0  0  0  0
   40.7940   26.8710   34.8210 O   0  0  0  0  0  0  0  0  0  0  0  0
   38.1670   24.6360   35.6190 C   0  0  0  0  0  0  0  0  0  0  0  0
   38.1390   23.9620   34.3920 C   0  0  0  0  0  0  0  0  0  0  0  0
   38.6870   22.6820   34.2940 C   0  0  0  0  0  0  0  0  0  0  0  0
   39.2320   22.1560   35.4450 N   0  0  0  0  0  0  0  0  0  0  0  0
   39.2360   22.8370   36.6050 C   0  0  0  0  0  0  0  0  0  0  0  0
   38.7120   24.0600   36.6940 N   0  0  0  0  0  0  0  0  0  0  0  0
   36.5967   25.5274   35.7695 H   0  0  0  0  0  0  0  0  0  0  0  0
   37.9538   27.8515   36.8914 H   0  0  0  0  0  0  0  0  0  0  0  0
   39.3580   27.2087   36.7484 H   0  0  0  0  0  0  0  0  0  0  0  0
   37.4662   27.7709   34.1023 H   0  0  0  0  0  0  0  0  0  0  0  0
   37.3340   27.3990   32.2931 H   0  0  0  0  0  0  0  0  0  0  0  0
   37.5545   27.8622   30.0545 H   0  0  0  0  0  0  0  0  0  0  0  0
   39.1692   28.3035   29.4028 H   0  0  0  0  0  0  0  0  0  0  0  0
   38.6391   26.5872   29.4028 H   0  0  0  0  0  0  0  0  0  0  0  0
   42.0778   26.9797   32.7812 H   0  0  0  0  0  0  0  0  0  0  0  0
   37.6874   24.4389   33.5096 H   0  0  0  0  0  0  0  0  0  0  0  0
   38.6839   22.1223   33.3471 H   0  0  0  0  0  0  0  0  0  0  0  0
   39.6808   22.3754   37.4989 H   0  0  0  0  0  0  0  0  0  0  0  0
  1  2  1  0
  3  1  1  0
  3  2  1  0
  4 11  1  0
  4  3  1  0
  5  4  1  0
  6  8  1  0
  6  5  2  0
  7  6  1  0
  8 10  1  0
  9  8  2  0
 10 11  1  0
 11 12  2  0
 13  1  1  0
 13 18  1  0
 14 13  2  0
 15 14  1  0
 15 16  2  0
 16 17  1  0
 17 18  2  0
  1 19  1  1
  2 20  1  0
  2 21  1  0
  3 22  1  6
  5 23  1  0
  7 24  1  0
  7 25  1  0
  7 26  1  0
 10 27  1  0
 14 28  1  0
 15 29  1  0
 17 30  1  0
M  ISO  8  19  13  20  13  21  13  22  13  23  14  24   8  25   8  26   8
M  ISO  4  27   9  28  14  29  14  30  14
M  END
>  <minimizedAffinity>  (1) 
-4.28499079

>  <minimizedRMSD>  (1) 
2.04616141

$$$$
