
     RDKit          3D

 22 24  0  0  1  0  0  0  0  0999 V2000
   37.8980   25.8670   35.6540 C   0  0  1  0  0  0  0  0  0  0  0  0
   38.3010   27.2940   35.9310 C   0  0  0  0  0  0  0  0  0  0  0  0
   38.4920   26.6410   34.6310 C   0  0  1  0  0  0  0  0  0  0  0  0
   38.4670   24.7990   36.4790 C   0  0  0  0  0  0  0  0  0  0  0  0
   39.5270   24.0940   35.8980 C   0  0  0  0  0  0  0  0  0  0  0  0
   40.1280   23.0350   36.6060 C   0  0  0  0  0  0  0  0  0  0  0  0
   39.6130   22.7630   37.8560 N   0  0  0  0  0  0  0  0  0  0  0  0
   38.6010   23.4650   38.3650 C   0  0  0  0  0  0  0  0  0  0  0  0
   38.0260   24.4750   37.6940 N   0  0  0  0  0  0  0  0  0  0  0  0
   39.8480   26.7450   34.1100 C   0  0  0  0  0  0  0  0  0  0  0  0
   40.9950   26.5050   34.8140 N   0  0  0  0  0  0  0  0  0  0  0  0
   42.0030   26.6880   34.0400 O   0  0  0  0  0  0  0  0  0  0  0  0
   41.6260   27.0390   32.8450 C   0  0  0  0  0  0  0  0  0  0  0  0
   40.2960   27.0820   32.8620 N   0  0  0  0  0  0  0  0  0  0  0  0
   37.0014   25.2300   35.6346 H   0  0  0  0  0  0  0  0  0  0  0  0
   37.5376   28.0760   36.0569 H   0  0  0  0  0  0  0  0  0  0  0  0
   38.9370   27.8146   36.6621 H   0  0  0  0  0  0  0  0  0  0  0  0
   38.1720   26.6671   33.5789 H   0  0  0  0  0  0  0  0  0  0  0  0
   39.8885   24.3650   34.8951 H   0  0  0  0  0  0  0  0  0  0  0  0
   40.9631   22.4562   36.1846 H   0  0  0  0  0  0  0  0  0  0  0  0
   38.2252   23.2085   39.3665 H   0  0  0  0  0  0  0  0  0  0  0  0
   42.2795   27.2576   31.9876 H   0  0  0  0  0  0  0  0  0  0  0  0
  1  2  1  0
  1  4  1  0
  3  1  1  0
  3  2  1  0
  4  9  1  0
  5  4  2  0
  5  6  1  0
  6  7  2  0
  7  8  1  0
  9  8  2  0
 10  3  1  0
 10 11  2  0
 12 11  1  0
 13 14  2  0
 13 12  1  0
 14 10  1  0
  1 15  1  6
  2 16  1  0
  2 17  1  0
  3 18  1  6
  5 19  1  0
  6 20  1  0
  8 21  1  0
 13 22  1  0
M  ISO  8  15  13  16  13  17  13  18  13  19  14  20  14  21  14  22  14
M  END
>  <minimizedAffinity>  (1) 
-4.07173538

>  <minimizedRMSD>  (1) 
0.0899600834

$$$$
