
     RDKit          3D

 25 27  0  0  1  0  0  0  0  0999 V2000
   38.0760   25.9700   36.0750 C   0  0  1  0  0  0  0  0  0  0  0  0
   38.7660   27.2620   35.7020 C   0  0  0  0  0  0  0  0  0  0  0  0
   37.5300   26.8450   35.0420 C   0  0  1  0  0  0  0  0  0  0  0  0
   38.7820   24.6940   35.8260 C   0  0  0  0  0  0  0  0  0  0  0  0
   38.0240   23.5370   36.0850 C   0  0  0  0  0  0  0  0  0  0  0  0
   38.6170   22.2800   35.8540 C   0  0  0  0  0  0  0  0  0  0  0  0
   39.8950   22.2760   35.3930 N   0  0  0  0  0  0  0  0  0  0  0  0
   40.5910   23.3930   35.1570 C   0  0  0  0  0  0  0  0  0  0  0  0
   40.0340   24.6040   35.3730 N   0  0  0  0  0  0  0  0  0  0  0  0
   37.6610   26.6230   33.5810 C   0  0  0  0  0  0  0  0  0  0  0  0
   38.6130   27.2150   32.7750 C   0  0  0  0  0  0  0  0  0  0  0  0
   38.7640   27.0110   31.4390 C   0  0  0  0  0  0  0  0  0  0  0  0
   37.9040   26.1540   30.8510 N   0  0  0  0  0  0  0  0  0  0  0  0
   36.9530   25.5450   31.5780 C   0  0  0  0  0  0  0  0  0  0  0  0
   36.8380   25.7740   32.9010 N   0  0  0  0  0  0  0  0  0  0  0  0
   37.6321   25.5007   36.9654 H   0  0  0  0  0  0  0  0  0  0  0  0
   38.7612   28.1131   36.3989 H   0  0  0  0  0  0  0  0  0  0  0  0
   39.7759   27.5452   35.3705 H   0  0  0  0  0  0  0  0  0  0  0  0
   36.5014   27.2098   34.9049 H   0  0  0  0  0  0  0  0  0  0  0  0
   36.9923   23.6123   36.4592 H   0  0  0  0  0  0  0  0  0  0  0  0
   38.0698   21.3438   36.0386 H   0  0  0  0  0  0  0  0  0  0  0  0
   41.6238   23.3250   34.7846 H   0  0  0  0  0  0  0  0  0  0  0  0
   39.3120   27.9144   33.2568 H   0  0  0  0  0  0  0  0  0  0  0  0
   39.5510   27.5212   30.8643 H   0  0  0  0  0  0  0  0  0  0  0  0
   36.2576   24.8489   31.0862 H   0  0  0  0  0  0  0  0  0  0  0  0
  2  1  1  0
  3  2  1  0
  3  1  1  0
  4  1  1  0
  4  5  2  0
  6  5  1  0
  7  6  2  0
  8  9  2  0
  8  7  1  0
  9  4  1  0
 10  3  1  0
 11 10  2  0
 12 11  1  0
 13 12  2  0
 13 14  1  0
 14 15  2  0
 15 10  1  0
  1 16  1  1
  2 17  1  0
  2 18  1  0
  3 19  1  1
  5 20  1  0
  6 21  1  0
  8 22  1  0
 11 23  1  0
 12 24  1  0
 14 25  1  0
M  ISO  8  16  13  17  13  18  13  19  13  20  14  21  14  22  14  23  14
M  ISO  2  24  14  25  14
M  END
>  <minimizedAffinity>  (1) 
-4.046175

>  <minimizedRMSD>  (1) 
3.24647379

$$$$
