
     RDKit          3D

 26 27  0  0  1  0  0  0  0  0999 V2000
   37.7550   25.8900   35.8200 C   0  0  1  0  0  0  0  0  0  0  0  0
   38.3140   27.2810   35.9750 C   0  0  0  0  0  0  0  0  0  0  0  0
   38.3860   26.5620   34.6870 C   0  0  2  0  0  0  0  0  0  0  0  0
   38.4170   24.7630   36.5380 C   0  0  0  0  0  0  0  0  0  0  0  0
   39.4600   24.0580   35.8600 C   0  0  0  0  0  0  0  0  0  0  0  0
   40.0730   23.0080   36.5710 C   0  0  0  0  0  0  0  0  0  0  0  0
   39.6400   22.7430   37.8300 N   0  0  0  0  0  0  0  0  0  0  0  0
   38.6430   23.4470   38.4240 C   0  0  0  0  0  0  0  0  0  0  0  0
   38.0370   24.4460   37.7890 N   0  0  0  0  0  0  0  0  0  0  0  0
   37.5120   26.8960   33.5210 C   0  0  0  0  0  0  0  0  0  0  0  0
   38.3870   27.2850   32.3290 C   0  0  0  0  0  0  0  0  0  0  0  0
   36.5530   28.0210   33.7920 C   0  0  0  0  0  0  0  0  0  0  0  0
   36.7815   25.4002   35.9694 H   0  0  0  0  0  0  0  0  0  0  0  0
   37.6370   28.1400   36.0927 H   0  0  0  0  0  0  0  0  0  0  0  0
   39.0382   27.7668   36.6455 H   0  0  0  0  0  0  0  0  0  0  0  0
   39.2250   26.3650   34.0035 H   0  0  0  0  0  0  0  0  0  0  0  0
   39.7674   24.3217   34.8373 H   0  0  0  0  0  0  0  0  0  0  0  0
   40.8825   22.4173   36.1174 H   0  0  0  0  0  0  0  0  0  0  0  0
   38.3315   23.1871   39.4465 H   0  0  0  0  0  0  0  0  0  0  0  0
   36.9136   25.9968   33.3126 H   0  0  0  0  0  0  0  0  0  0  0  0
   39.3356   27.7067   32.6927 H   0  0  0  0  0  0  0  0  0  0  0  0
   38.5923   26.3934   31.7184 H   0  0  0  0  0  0  0  0  0  0  0  0
   37.8626   28.0348   31.7184 H   0  0  0  0  0  0  0  0  0  0  0  0
   36.4403   28.1531   34.8782 H   0  0  0  0  0  0  0  0  0  0  0  0
   36.9419   28.9493   33.3481 H   0  0  0  0  0  0  0  0  0  0  0  0
   35.5749   27.7840   33.3481 H   0  0  0  0  0  0  0  0  0  0  0  0
  1  2  1  0
  1  4  1  0
  3  1  1  0
  3  2  1  0
  4  9  1  0
  5  4  2  0
  5  6  1  0
  6  7  2  0
  7  8  1  0
  9  8  2  0
 10 12  1  0
 10  3  1  0
 11 10  1  0
  1 13  1  6
  2 14  1  0
  2 15  1  0
  3 16  1  6
  5 17  1  0
  6 18  1  0
  8 19  1  0
 10 20  1  0
 11 21  1  0
 11 22  1  0
 11 23  1  0
 12 24  1  0
 12 25  1  0
 12 26  1  0
M  ISO  8  13  13  14  13  15  13  16  13  17  14  18  14  19  14  20   8
M  ISO  6  21   8  22   8  23   8  24   8  25   8  26   8
M  END
>  <minimizedAffinity>  (1) 
-4.04184771

>  <minimizedRMSD>  (1) 
0.545483232

$$$$
