
     RDKit          3D

 24 26  0  0  1  0  0  0  0  0999 V2000
   37.9280   26.1190   35.2300 C   0  0  1  0  0  0  0  0  0  0  0  0
   38.5170   27.2190   36.0820 C   0  0  0  0  0  0  0  0  0  0  0  0
   38.8880   27.0620   34.6550 C   0  0  1  0  0  0  0  0  0  0  0  0
   38.2290   24.7200   35.5860 C   0  0  0  0  0  0  0  0  0  0  0  0
   38.2100   23.8110   34.5140 C   0  0  0  0  0  0  0  0  0  0  0  0
   38.5030   22.4590   34.7450 C   0  0  0  0  0  0  0  0  0  0  0  0
   38.7970   22.0960   36.0290 N   0  0  0  0  0  0  0  0  0  0  0  0
   38.8030   23.0050   37.0250 C   0  0  0  0  0  0  0  0  0  0  0  0
   38.5280   24.2900   36.8250 N   0  0  0  0  0  0  0  0  0  0  0  0
   40.3330   26.7630   34.4730 C   0  0  0  0  0  0  0  0  0  0  0  0
   41.0830   27.4120   33.4890 C   0  0  0  0  0  0  0  0  0  0  0  0
   42.3990   26.9550   33.5310 C   0  0  0  0  0  0  0  0  0  0  0  0
   42.3680   26.0360   34.5600 C   0  0  0  0  0  0  0  0  0  0  0  0
   41.1680   25.9460   35.0840 O   0  0  0  0  0  0  0  0  0  0  0  0
   36.9336   25.7819   34.9019 H   0  0  0  0  0  0  0  0  0  0  0  0
   37.8928   28.0662   36.4022 H   0  0  0  0  0  0  0  0  0  0  0  0
   39.0629   27.2682   37.0357 H   0  0  0  0  0  0  0  0  0  0  0  0
   38.8378   27.6273   33.7127 H   0  0  0  0  0  0  0  0  0  0  0  0
   37.9666   24.1583   33.4990 H   0  0  0  0  0  0  0  0  0  0  0  0
   38.4964   21.7227   33.9278 H   0  0  0  0  0  0  0  0  0  0  0  0
   39.0453   22.6696   38.0442 H   0  0  0  0  0  0  0  0  0  0  0  0
   40.6949   28.1669   32.7894 H   0  0  0  0  0  0  0  0  0  0  0  0
   43.2502   27.2527   32.9010 H   0  0  0  0  0  0  0  0  0  0  0  0
   43.2377   25.4534   34.8978 H   0  0  0  0  0  0  0  0  0  0  0  0
  1  4  1  0
  1  2  1  0
  3  1  1  0
  3  2  1  0
  4  9  2  0
  5  6  2  0
  5  4  1  0
  6  7  1  0
  7  8  2  0
  9  8  1  0
 10  3  1  0
 10 14  1  0
 11 12  1  0
 11 10  2  0
 12 13  2  0
 13 14  1  0
  1 15  1  6
  2 16  1  0
  2 17  1  0
  3 18  1  6
  5 19  1  0
  6 20  1  0
  8 21  1  0
 11 22  1  0
 12 23  1  0
 13 24  1  0
M  ISO  8  15  13  16  13  17  13  18  13  19  14  20  14  21  14  22  14
M  ISO  2  23  14  24  14
M  END
>  <minimizedAffinity>  (1) 
-4.01965284

>  <minimizedRMSD>  (1) 
1.45589793

$$$$
