
     RDKit          3D

 23 25  0  0  1  0  0  0  0  0999 V2000
   38.0560   25.9780   36.0480 C   0  0  1  0  0  0  0  0  0  0  0  0
   38.7830   27.2710   35.7410 C   0  0  0  0  0  0  0  0  0  0  0  0
   37.5810   26.8810   35.0010 C   0  0  1  0  0  0  0  0  0  0  0  0
   38.7730   24.7060   35.8210 C   0  0  0  0  0  0  0  0  0  0  0  0
   38.0270   23.5460   36.0940 C   0  0  0  0  0  0  0  0  0  0  0  0
   38.6020   22.2940   35.8880 C   0  0  0  0  0  0  0  0  0  0  0  0
   39.8970   22.2770   35.4200 N   0  0  0  0  0  0  0  0  0  0  0  0
   40.5820   23.3960   35.1700 C   0  0  0  0  0  0  0  0  0  0  0  0
   40.0260   24.5850   35.3680 N   0  0  0  0  0  0  0  0  0  0  0  0
   37.6880   26.6070   33.5360 C   0  0  0  0  0  0  0  0  0  0  0  0
   38.8120   27.1680   32.7890 C   0  0  0  0  0  0  0  0  0  0  0  0
   38.5570   26.5720   31.1520 S   0  0  0  0  0  0  0  0  0  0  0  0
   36.9680   25.6330   31.6500 C   0  0  0  0  0  0  0  0  0  0  0  0
   36.8120   25.8520   32.8990 N   0  0  0  0  0  0  0  0  0  0  0  0
   37.5494   25.4950   36.8966 H   0  0  0  0  0  0  0  0  0  0  0  0
   38.7471   28.1086   36.4531 H   0  0  0  0  0  0  0  0  0  0  0  0
   39.8137   27.5480   35.4746 H   0  0  0  0  0  0  0  0  0  0  0  0
   36.5900   27.3163   34.8048 H   0  0  0  0  0  0  0  0  0  0  0  0
   36.9957   23.6265   36.4680 H   0  0  0  0  0  0  0  0  0  0  0  0
   38.0489   21.3647   36.0893 H   0  0  0  0  0  0  0  0  0  0  0  0
   41.6149   23.3318   34.7971 H   0  0  0  0  0  0  0  0  0  0  0  0
   39.6241   27.8099   33.1610 H   0  0  0  0  0  0  0  0  0  0  0  0
   36.3216   25.0290   30.9963 H   0  0  0  0  0  0  0  0  0  0  0  0
  2  1  1  0
  3  2  1  0
  3  1  1  0
  4  1  1  0
  4  5  2  0
  6  5  1  0
  7  6  2  0
  8  9  2  0
  8  7  1  0
  9  4  1  0
 10  3  1  0
 11 10  2  0
 12 13  1  0
 12 11  1  0
 13 14  2  0
 14 10  1  0
  1 15  1  1
  2 16  1  0
  2 17  1  0
  3 18  1  1
  5 19  1  0
  6 20  1  0
  8 21  1  0
 11 22  1  0
 13 23  1  0
M  ISO  8  15  13  16  13  17  13  18  13  19  14  20  14  21  14  22  14
M  ISO  1  23  14
M  END
>  <minimizedAffinity>  (1) 
-3.76985979

>  <minimizedRMSD>  (1) 
2.9993732

$$$$
