
     RDKit          3D

 45 49  0  0  0  0  0  0  0  0999 V2000
   36.4410   23.0590   31.9450 C   0  0  0  0  0  0  0  0  0  0  0  0
   36.0450   24.3590   31.6400 C   0  0  0  0  0  0  0  0  0  0  0  0
   36.7120   25.3410   32.3500 C   0  0  0  0  0  0  0  0  0  0  0  0
   37.6360   24.9830   33.2260 N   0  0  0  0  0  0  0  0  0  0  0  0
   38.0220   23.7680   33.5270 C   0  0  0  0  0  0  0  0  0  0  0  0
   37.3870   22.8210   32.8510 N   0  0  0  0  0  0  0  0  0  0  0  0
   39.0070   23.2390   34.4530 C   0  0  0  0  0  0  0  0  0  0  0  0
   40.1520   22.5930   34.0170 C   0  0  0  0  0  0  0  0  0  0  0  0
   41.1180   22.0720   34.8450 C   0  0  0  0  0  0  0  0  0  0  0  0
   40.9690   22.1820   36.2030 C   0  0  0  0  0  0  0  0  0  0  0  0
   39.8610   22.8070   36.6880 C   0  0  0  0  0  0  0  0  0  0  0  0
   39.7200   22.9120   38.0650 C   0  0  0  0  0  0  0  0  0  0  0  0
   38.6400   23.5230   38.6290 C   0  0  0  0  0  0  0  0  0  0  0  0
   37.6800   24.0400   37.7680 C   0  0  0  0  0  0  0  0  0  0  0  0
   37.8590   23.9150   36.4160 C   0  0  0  0  0  0  0  0  0  0  0  0
   38.9230   23.3110   35.8220 C   0  0  0  0  0  0  0  0  0  0  0  0
   36.4220   26.7150   32.1530 N   0  0  0  0  0  0  0  0  0  0  0  0
   36.1680   27.3140   30.9770 C   0  0  0  0  0  0  0  0  0  0  0  0
   35.9380   28.6100   31.1640 N   0  0  0  0  0  0  0  0  0  0  0  0
   36.0440   28.8530   32.4820 C   0  0  0  0  0  0  0  0  0  0  0  0
   36.3420   27.6770   33.0650 N   0  0  0  0  0  0  0  0  0  0  0  0
   35.8570   30.1920   33.1080 C   0  0  0  0  0  0  0  0  0  0  0  0
   34.6810   30.9380   32.5670 C   0  0  0  0  0  0  0  0  0  0  0  0
   33.4700   30.4950   33.3690 C   0  0  0  0  0  0  0  0  0  0  0  0
   34.0200   29.7420   34.5700 C   0  0  0  0  0  0  0  0  0  0  0  0
   35.4890   30.0420   34.5860 C   0  0  0  0  0  0  0  0  0  0  0  0
   35.9635   22.2136   31.4279 H   0  0  0  0  0  0  0  0  0  0  0  0
   35.2667   24.5859   30.8965 H   0  0  0  0  0  0  0  0  0  0  0  0
   40.2988   22.4895   32.9318 H   0  0  0  0  0  0  0  0  0  0  0  0
   42.0016   21.5719   34.4218 H   0  0  0  0  0  0  0  0  0  0  0  0
   41.7283   21.7741   36.8864 H   0  0  0  0  0  0  0  0  0  0  0  0
   40.4995   22.4915   38.7174 H   0  0  0  0  0  0  0  0  0  0  0  0
   38.5329   23.6034   39.7208 H   0  0  0  0  0  0  0  0  0  0  0  0
   36.7872   24.5435   38.1673 H   0  0  0  0  0  0  0  0  0  0  0  0
   37.0825   24.3354   35.7600 H   0  0  0  0  0  0  0  0  0  0  0  0
   36.1526   26.8058   30.0015 H   0  0  0  0  0  0  0  0  0  0  0  0
   36.8053   30.7149   32.9152 H   0  0  0  0  0  0  0  0  0  0  0  0
   34.8349   32.0211   32.6816 H   0  0  0  0  0  0  0  0  0  0  0  0
   34.5415   30.7295   31.4960 H   0  0  0  0  0  0  0  0  0  0  0  0
   32.8885   31.3687   33.6984 H   0  0  0  0  0  0  0  0  0  0  0  0
   32.7968   29.8643   32.7698 H   0  0  0  0  0  0  0  0  0  0  0  0
   33.5445   30.0951   35.4970 H   0  0  0  0  0  0  0  0  0  0  0  0
   33.8226   28.6620   34.5025 H   0  0  0  0  0  0  0  0  0  0  0  0
   36.0510   29.2159   35.0462 H   0  0  0  0  0  0  0  0  0  0  0  0
   35.7295   30.9403   35.1736 H   0  0  0  0  0  0  0  0  0  0  0  0
  1  6  2  0
  2  1  1  0
  2  3  2  0
  3  4  1  0
  4  5  2  0
  5  7  1  0
  6  5  1  0
  7 16  1  0
  8  7  2  0
  8  9  1  0
  9 10  2  0
 10 11  1  0
 11 12  2  0
 12 13  1  0
 14 13  2  0
 15 14  1  0
 16 15  2  0
 16 11  1  0
 17  3  1  0
 17 21  1  0
 18 19  2  0
 18 17  1  0
 19 20  1  0
 20 21  2  0
 20 22  1  0
 22 26  1  0
 23 22  1  0
 23 24  1  0
 24 25  1  0
 25 26  1  0
  1 27  1  0
  2 28  1  0
  8 29  1  0
  9 30  1  0
 10 31  1  0
 12 32  1  0
 13 33  1  0
 14 34  1  0
 15 35  1  0
 18 36  1  0
 22 37  1  0
 23 38  1  0
 23 39  1  0
 24 40  1  0
 24 41  1  0
 25 42  1  0
 25 43  1  0
 26 44  1  0
 26 45  1  0
M  ISO  8  27  14  28  14  29  14  30  14  31  14  32  14  33  14  34  14
M  ISO  8  35  14  36  14  37  13  38  13  39  13  40  13  41  13  42  13
M  ISO  3  43  13  44  13  45  13
M  END
>  <minimizedAffinity>  (1) 
-6.40618658

>  <minimizedRMSD>  (1) 
0.464269429

$$$$
