
     RDKit          3D

 45 48  0  0  1  0  0  0  0  0999 V2000
   37.9740   26.8110   33.4180 C   0  0  0  0  0  0  0  0  0  0  0  0
   37.8270   25.6380   35.7320 C   0  0  1  0  0  0  0  0  0  0  0  0
   38.2610   27.0860   35.9820 C   0  0  0  0  0  0  0  0  0  0  0  0
   38.5510   26.3480   34.7150 C   0  0  2  0  0  0  0  0  0  0  0  0
   38.4380   24.5990   36.6140 C   0  0  0  0  0  0  0  0  0  0  0  0
   39.5160   23.8290   36.0390 C   0  0  0  0  0  0  0  0  0  0  0  0
   40.1060   22.8580   36.8660 C   0  0  0  0  0  0  0  0  0  0  0  0
   39.6300   22.6990   38.1530 N   0  0  0  0  0  0  0  0  0  0  0  0
   38.6050   23.4710   38.6160 C   0  0  0  0  0  0  0  0  0  0  0  0
   38.0100   24.4110   37.8650 N   0  0  0  0  0  0  0  0  0  0  0  0
   37.3180   25.6240   32.7170 C   0  0  0  0  0  0  0  0  0  0  0  0
   36.8610   27.8400   33.6160 C   0  0  0  0  0  0  0  0  0  0  0  0
   38.9110   27.4110   32.4510 C   0  0  0  0  0  0  0  0  0  0  0  0
   38.3860   27.9830   31.2260 C   0  0  0  0  0  0  0  0  0  0  0  0
   37.3210   28.8270   30.9890 C   0  0  0  0  0  0  0  0  0  0  0  0
   36.9420   29.2930   29.7510 C   0  0  0  0  0  0  0  0  0  0  0  0
   37.6610   28.9030   28.6550 C   0  0  0  0  0  0  0  0  0  0  0  0
   38.7470   28.0510   28.8330 C   0  0  0  0  0  0  0  0  0  0  0  0
   39.3970   27.7250   27.6650 C   0  0  0  0  0  0  0  0  0  0  0  0
   40.4870   26.8870   27.7400 C   0  0  0  0  0  0  0  0  0  0  0  0
   40.8850   26.4080   28.9700 C   0  0  0  0  0  0  0  0  0  0  0  0
   40.1970   26.7660   30.1090 C   0  0  0  0  0  0  0  0  0  0  0  0
   39.1040   27.6000   30.0840 C   0  0  0  0  0  0  0  0  0  0  0  0
   36.8933   25.0576   35.6964 H   0  0  0  0  0  0  0  0  0  0  0  0
   37.5183   27.8973   35.9990 H   0  0  0  0  0  0  0  0  0  0  0  0
   38.8459   27.6226   36.7436 H   0  0  0  0  0  0  0  0  0  0  0  0
   39.4543   26.0903   34.1427 H   0  0  0  0  0  0  0  0  0  0  0  0
   39.8578   23.9941   35.0066 H   0  0  0  0  0  0  0  0  0  0  0  0
   40.9330   22.2350   36.4947 H   0  0  0  0  0  0  0  0  0  0  0  0
   38.2519   23.3169   39.6463 H   0  0  0  0  0  0  0  0  0  0  0  0
   36.9301   24.9221   33.4699 H   0  0  0  0  0  0  0  0  0  0  0  0
   36.4895   25.9817   32.0880 H   0  0  0  0  0  0  0  0  0  0  0  0
   38.0617   25.1129   32.0880 H   0  0  0  0  0  0  0  0  0  0  0  0
   36.6927   27.9956   34.6918 H   0  0  0  0  0  0  0  0  0  0  0  0
   37.1544   28.7919   33.1493 H   0  0  0  0  0  0  0  0  0  0  0  0
   35.9350   27.4729   33.1493 H   0  0  0  0  0  0  0  0  0  0  0  0
   39.4476   28.2139   32.9777 H   0  0  0  0  0  0  0  0  0  0  0  0
   39.5162   26.5595   32.1066 H   0  0  0  0  0  0  0  0  0  0  0  0
   36.7288   29.1528   31.8569 H   0  0  0  0  0  0  0  0  0  0  0  0
   36.0781   29.9657   29.6450 H   0  0  0  0  0  0  0  0  0  0  0  0
   37.3858   29.2565   27.6504 H   0  0  0  0  0  0  0  0  0  0  0  0
   39.0554   28.1228   26.6980 H   0  0  0  0  0  0  0  0  0  0  0  0
   41.0340   26.6030   26.8289 H   0  0  0  0  0  0  0  0  0  0  0  0
   41.7544   25.7380   29.0424 H   0  0  0  0  0  0  0  0  0  0  0  0
   40.5358   26.3686   31.0772 H   0  0  0  0  0  0  0  0  0  0  0  0
  1 12  1  0
  1  4  1  0
  2  3  1  0
  2  5  1  0
  4  2  1  0
  4  3  1  0
  5 10  1  0
  6  5  2  0
  6  7  1  0
  7  8  2  0
  8  9  1  0
 10  9  2  0
 11  1  1  0
 13  1  1  0
 14 13  1  0
 15 14  2  0
 16 15  1  0
 17 18  1  0
 17 16  2  0
 18 23  2  0
 19 20  2  0
 19 18  1  0
 20 21  1  0
 21 22  2  0
 23 22  1  0
 23 14  1  0
  2 24  1  6
  3 25  1  0
  3 26  1  0
  4 27  1  6
  6 28  1  0
  7 29  1  0
  9 30  1  0
 11 31  1  0
 11 32  1  0
 11 33  1  0
 12 34  1  0
 12 35  1  0
 12 36  1  0
 13 37  1  0
 13 38  1  0
 15 39  1  0
 16 40  1  0
 17 41  1  0
 19 42  1  0
 20 43  1  0
 21 44  1  0
 22 45  1  0
M  ISO  8  24  13  25  13  26  13  27  13  28  14  29  14  30  14  31   8
M  ISO  8  32   8  33   8  34   8  35   8  36   8  37   8  38   8  39  14
M  ISO  6  40  14  41  14  42  14  43  14  44  14  45  14
M  END
>  <minimizedAffinity>  (1) 
-5.5213666

>  <minimizedRMSD>  (1) 
3.41469502

$$$$
