
     RDKit          3D

 43 46  0  0  1  0  0  0  0  0999 V2000
   37.6720   26.9380   33.4460 C   0  0  0  0  0  0  0  0  0  0  0  0
   37.7540   25.7340   35.7540 C   0  0  1  0  0  0  0  0  0  0  0  0
   38.2730   27.1610   35.9480 C   0  0  0  0  0  0  0  0  0  0  0  0
   38.3830   26.4400   34.6690 C   0  0  2  0  0  0  0  0  0  0  0  0
   38.4280   24.6670   36.5400 C   0  0  0  0  0  0  0  0  0  0  0  0
   39.5200   23.9690   35.9080 C   0  0  0  0  0  0  0  0  0  0  0  0
   40.1730   22.9710   36.6410 C   0  0  0  0  0  0  0  0  0  0  0  0
   39.7310   22.7160   37.9190 N   0  0  0  0  0  0  0  0  0  0  0  0
   38.6860   23.4190   38.4530 C   0  0  0  0  0  0  0  0  0  0  0  0
   38.0290   24.3850   37.7910 N   0  0  0  0  0  0  0  0  0  0  0  0
   36.9590   25.7650   32.7840 C   0  0  0  0  0  0  0  0  0  0  0  0
   36.5870   27.9420   33.7630 C   0  0  0  0  0  0  0  0  0  0  0  0
   38.5400   27.5300   32.3890 C   0  0  0  0  0  0  0  0  0  0  0  0
   39.2730   26.6070   31.5310 C   0  0  0  0  0  0  0  0  0  0  0  0
   39.8630   25.4980   32.0480 N   0  0  0  0  0  0  0  0  0  0  0  0
   40.5310   24.6740   31.2180 C   0  0  0  0  0  0  0  0  0  0  0  0
   40.6240   24.9260   29.8960 N   0  0  0  0  0  0  0  0  0  0  0  0
   40.0580   26.0060   29.3490 C   0  0  0  0  0  0  0  0  0  0  0  0
   40.1210   26.3120   28.0050 C   0  0  0  0  0  0  0  0  0  0  0  0
   39.5180   27.4490   27.4620 C   0  0  0  0  0  0  0  0  0  0  0  0
   38.8320   28.3060   28.2820 C   0  0  0  0  0  0  0  0  0  0  0  0
   38.7650   28.0040   29.6280 C   0  0  0  0  0  0  0  0  0  0  0  0
   39.3570   26.8840   30.1780 C   0  0  0  0  0  0  0  0  0  0  0  0
   36.8021   25.1881   35.8303 H   0  0  0  0  0  0  0  0  0  0  0  0
   37.5699   28.0000   36.0563 H   0  0  0  0  0  0  0  0  0  0  0  0
   38.9662   27.6668   36.6362 H   0  0  0  0  0  0  0  0  0  0  0  0
   39.2068   26.1632   33.9946 H   0  0  0  0  0  0  0  0  0  0  0  0
   39.8304   24.2132   34.8814 H   0  0  0  0  0  0  0  0  0  0  0  0
   41.0134   22.4081   36.2088 H   0  0  0  0  0  0  0  0  0  0  0  0
   38.3672   23.1804   39.4784 H   0  0  0  0  0  0  0  0  0  0  0  0
   36.5535   25.0978   33.5589 H   0  0  0  0  0  0  0  0  0  0  0  0
   36.1370   26.1418   32.1577 H   0  0  0  0  0  0  0  0  0  0  0  0
   37.6719   25.2087   32.1577 H   0  0  0  0  0  0  0  0  0  0  0  0
   36.4835   28.0378   34.8539 H   0  0  0  0  0  0  0  0  0  0  0  0
   36.8541   28.9186   33.3329 H   0  0  0  0  0  0  0  0  0  0  0  0
   35.6341   27.6001   33.3329 H   0  0  0  0  0  0  0  0  0  0  0  0
   37.8984   28.1450   31.7407 H   0  0  0  0  0  0  0  0  0  0  0  0
   39.3168   28.0823   32.9382 H   0  0  0  0  0  0  0  0  0  0  0  0
   41.0123   23.7739   31.6280 H   0  0  0  0  0  0  0  0  0  0  0  0
   40.6681   25.6333   27.3342 H   0  0  0  0  0  0  0  0  0  0  0  0
   39.5933   27.6548   26.3841 H   0  0  0  0  0  0  0  0  0  0  0  0
   38.3486   29.2085   27.8798 H   0  0  0  0  0  0  0  0  0  0  0  0
   38.2150   28.6867   30.2924 H   0  0  0  0  0  0  0  0  0  0  0  0
  1 12  1  0
  1  4  1  0
  2  3  1  0
  2  5  1  0
  4  2  1  0
  4  3  1  0
  5 10  1  0
  6  5  2  0
  6  7  1  0
  7  8  2  0
  8  9  1  0
 10  9  2  0
 11  1  1  0
 13  1  1  0
 14 15  2  0
 14 13  1  0
 16 15  1  0
 17 16  2  0
 18 17  1  0
 18 23  2  0
 19 18  1  0
 20 19  2  0
 20 21  1  0
 21 22  2  0
 22 23  1  0
 23 14  1  0
  2 24  1  6
  3 25  1  0
  3 26  1  0
  4 27  1  6
  6 28  1  0
  7 29  1  0
  9 30  1  0
 11 31  1  0
 11 32  1  0
 11 33  1  0
 12 34  1  0
 12 35  1  0
 12 36  1  0
 13 37  1  0
 13 38  1  0
 16 39  1  0
 19 40  1  0
 20 41  1  0
 21 42  1  0
 22 43  1  0
M  ISO  8  24  13  25  13  26  13  27  13  28  14  29  14  30  14  31   8
M  ISO  8  32   8  33   8  34   8  35   8  36   8  37   8  38   8  39  14
M  ISO  4  40  14  41  14  42  14  43  14
M  END
>  <minimizedAffinity>  (1) 
-5.22059059

>  <minimizedRMSD>  (1) 
2.95198083

$$$$
