
     RDKit          3D

 39 43  0  0  0  0  0  0  0  0999 V2000
   36.6700   23.7190   31.8780 C   0  0  0  0  0  0  0  0  0  0  0  0
   36.2020   25.0310   31.7950 C   0  0  0  0  0  0  0  0  0  0  0  0
   36.7550   25.8940   32.7180 C   0  0  0  0  0  0  0  0  0  0  0  0
   37.6480   25.4310   33.5740 N   0  0  0  0  0  0  0  0  0  0  0  0
   38.1040   24.1970   33.6700 C   0  0  0  0  0  0  0  0  0  0  0  0
   37.5730   23.3760   32.7870 N   0  0  0  0  0  0  0  0  0  0  0  0
   39.0610   23.5730   34.5430 C   0  0  0  0  0  0  0  0  0  0  0  0
   40.1880   22.9410   34.0650 C   0  0  0  0  0  0  0  0  0  0  0  0
   41.1400   22.3260   34.8500 C   0  0  0  0  0  0  0  0  0  0  0  0
   40.9850   22.3220   36.2200 C   0  0  0  0  0  0  0  0  0  0  0  0
   39.8930   22.9280   36.7420 C   0  0  0  0  0  0  0  0  0  0  0  0
   39.7440   22.9200   38.1230 C   0  0  0  0  0  0  0  0  0  0  0  0
   38.6730   23.5090   38.7390 C   0  0  0  0  0  0  0  0  0  0  0  0
   37.7320   24.1210   37.9210 C   0  0  0  0  0  0  0  0  0  0  0  0
   37.9120   24.1080   36.5610 C   0  0  0  0  0  0  0  0  0  0  0  0
   38.9670   23.5310   35.9320 C   0  0  0  0  0  0  0  0  0  0  0  0
   36.3730   27.2610   32.7520 N   0  0  0  0  0  0  0  0  0  0  0  0
   36.0580   28.0380   31.7100 C   0  0  0  0  0  0  0  0  0  0  0  0
   35.7490   29.2710   32.1120 N   0  0  0  0  0  0  0  0  0  0  0  0
   35.8690   29.2790   33.4440 C   0  0  0  0  0  0  0  0  0  0  0  0
   36.2510   28.0460   33.8200 N   0  0  0  0  0  0  0  0  0  0  0  0
   35.6350   30.4080   34.3380 C   0  0  0  0  0  0  0  0  0  0  0  0
   34.8630   31.5160   34.0800 C   0  0  0  0  0  0  0  0  0  0  0  0
   34.9020   32.3320   35.1630 N   0  0  0  0  0  0  0  0  0  0  0  0
   35.6800   31.7700   36.1060 C   0  0  0  0  0  0  0  0  0  0  0  0
   36.1090   30.6090   35.5800 N   0  0  0  0  0  0  0  0  0  0  0  0
   36.2853   22.9599   31.1810 H   0  0  0  0  0  0  0  0  0  0  0  0
   35.4539   25.3506   31.0546 H   0  0  0  0  0  0  0  0  0  0  0  0
   40.3396   22.9260   32.9756 H   0  0  0  0  0  0  0  0  0  0  0  0
   42.0140   21.8436   34.3882 H   0  0  0  0  0  0  0  0  0  0  0  0
   41.7287   21.8394   36.8712 H   0  0  0  0  0  0  0  0  0  0  0  0
   40.5092   22.4258   38.7397 H   0  0  0  0  0  0  0  0  0  0  0  0
   38.5624   23.4982   39.8334 H   0  0  0  0  0  0  0  0  0  0  0  0
   36.8505   24.6116   38.3596 H   0  0  0  0  0  0  0  0  0  0  0  0
   37.1495   24.5985   35.9382 H   0  0  0  0  0  0  0  0  0  0  0  0
   36.0544   27.7044   30.6618 H   0  0  0  0  0  0  0  0  0  0  0  0
   34.3067   31.7086   33.1508 H   0  0  0  0  0  0  0  0  0  0  0  0
   35.9161   32.1759   37.1007 H   0  0  0  0  0  0  0  0  0  0  0  0
   36.7291   29.9499   36.0719 H   0  0  0  0  0  0  0  0  0  0  0  0
  1  6  2  0
  2  1  1  0
  2  3  2  0
  3 17  1  0
  3  4  1  0
  4  5  2  0
  5  7  1  0
  6  5  1  0
  7 16  1  0
  8  7  2  0
  8  9  1  0
  9 10  2  0
 10 11  1  0
 11 12  2  0
 12 13  1  0
 14 13  2  0
 15 14  1  0
 16 15  2  0
 16 11  1  0
 17 21  1  0
 18 19  2  0
 18 17  1  0
 19 20  1  0
 20 21  2  0
 20 22  1  0
 22 26  1  0
 23 22  2  0
 23 24  1  0
 24 25  2  0
 26 25  1  0
  1 27  1  0
  2 28  1  0
  8 29  1  0
  9 30  1  0
 10 31  1  0
 12 32  1  0
 13 33  1  0
 14 34  1  0
 15 35  1  0
 18 36  1  0
 23 37  1  0
 25 38  1  0
 26 39  1  0
M  ISO  8  27  14  28  14  29  14  30  14  31  14  32  14  33  14  34  14
M  ISO  5  35  14  36  14  37  14  38  14  39   9
M  END
>  <minimizedAffinity>  (1) 
-6.28666353

>  <minimizedRMSD>  (1) 
1.24680984

$$$$
