
     RDKit          3D

 37 39  0  0  1  0  0  0  0  0999 V2000
   37.7690   26.8540   33.4000 C   0  0  0  0  0  0  0  0  0  0  0  0
   37.7610   25.6960   35.7370 C   0  0  1  0  0  0  0  0  0  0  0  0
   38.2650   27.1300   35.9290 C   0  0  0  0  0  0  0  0  0  0  0  0
   38.4280   26.3890   34.6690 C   0  0  2  0  0  0  0  0  0  0  0  0
   38.4260   24.6450   36.5670 C   0  0  0  0  0  0  0  0  0  0  0  0
   39.5190   23.9180   35.9700 C   0  0  0  0  0  0  0  0  0  0  0  0
   40.1480   22.9460   36.7660 C   0  0  0  0  0  0  0  0  0  0  0  0
   39.6900   22.7520   38.0480 N   0  0  0  0  0  0  0  0  0  0  0  0
   38.6430   23.4860   38.5420 C   0  0  0  0  0  0  0  0  0  0  0  0
   38.0250   24.4090   37.8230 N   0  0  0  0  0  0  0  0  0  0  0  0
   36.9720   25.7080   32.8110 C   0  0  0  0  0  0  0  0  0  0  0  0
   36.7650   27.9680   33.6540 C   0  0  0  0  0  0  0  0  0  0  0  0
   38.6910   27.3450   32.3350 C   0  0  0  0  0  0  0  0  0  0  0  0
   40.1180   26.9920   32.5270 C   0  0  0  0  0  0  0  0  0  0  0  0
   40.4480   25.8770   31.7470 C   0  0  0  0  0  0  0  0  0  0  0  0
   41.7260   25.3490   31.7510 C   0  0  0  0  0  0  0  0  0  0  0  0
   42.6640   25.9450   32.5370 N   0  0  0  0  0  0  0  0  0  0  0  0
   42.3020   27.0220   33.2750 C   0  0  0  0  0  0  0  0  0  0  0  0
   41.0690   27.5570   33.2930 N   0  0  0  0  0  0  0  0  0  0  0  0
   36.8095   25.1462   35.7852 H   0  0  0  0  0  0  0  0  0  0  0  0
   37.5541   27.9668   35.9960 H   0  0  0  0  0  0  0  0  0  0  0  0
   38.9280   27.6509   36.6355 H   0  0  0  0  0  0  0  0  0  0  0  0
   39.2810   26.1104   34.0327 H   0  0  0  0  0  0  0  0  0  0  0  0
   39.8454   24.1155   34.9383 H   0  0  0  0  0  0  0  0  0  0  0  0
   40.9875   22.3538   36.3727 H   0  0  0  0  0  0  0  0  0  0  0  0
   38.3047   23.3012   39.5723 H   0  0  0  0  0  0  0  0  0  0  0  0
   36.5489   25.0997   33.6240 H   0  0  0  0  0  0  0  0  0  0  0  0
   36.1569   26.1090   32.1907 H   0  0  0  0  0  0  0  0  0  0  0  0
   37.6316   25.0833   32.1907 H   0  0  0  0  0  0  0  0  0  0  0  0
   36.6389   28.1079   34.7378 H   0  0  0  0  0  0  0  0  0  0  0  0
   37.1322   28.9022   33.2040 H   0  0  0  0  0  0  0  0  0  0  0  0
   35.7978   27.6996   33.2040 H   0  0  0  0  0  0  0  0  0  0  0  0
   38.6134   28.4416   32.2961 H   0  0  0  0  0  0  0  0  0  0  0  0
   38.3755   26.8503   31.4046 H   0  0  0  0  0  0  0  0  0  0  0  0
   39.6748   25.4115   31.1182 H   0  0  0  0  0  0  0  0  0  0  0  0
   41.9775   24.4721   31.1364 H   0  0  0  0  0  0  0  0  0  0  0  0
   43.0720   27.4921   33.9043 H   0  0  0  0  0  0  0  0  0  0  0  0
  1 12  1  0
  1  4  1  0
  2  3  1  0
  2  5  1  0
  4  2  1  0
  4  3  1  0
  5 10  1  0
  6  5  2  0
  6  7  1  0
  7  8  2  0
  8  9  1  0
 10  9  2  0
 11  1  1  0
 13 14  1  0
 13  1  1  0
 14 19  2  0
 15 16  2  0
 15 14  1  0
 16 17  1  0
 17 18  2  0
 18 19  1  0
  2 20  1  6
  3 21  1  0
  3 22  1  0
  4 23  1  6
  6 24  1  0
  7 25  1  0
  9 26  1  0
 11 27  1  0
 11 28  1  0
 11 29  1  0
 12 30  1  0
 12 31  1  0
 12 32  1  0
 13 33  1  0
 13 34  1  0
 15 35  1  0
 16 36  1  0
 18 37  1  0
M  ISO  8  20  13  21  13  22  13  23  13  24  14  25  14  26  14  27   8
M  ISO  8  28   8  29   8  30   8  31   8  32   8  33   8  34   8  35  14
M  ISO  2  36  14  37  14
M  END
>  <minimizedAffinity>  (1) 
-4.62742376

>  <minimizedRMSD>  (1) 
1.26139832

$$$$
