
     RDKit          3D

 39 43  0  0  0  0  0  0  0  0999 V2000
   39.1810   24.2160   34.5310 C   0  0  0  0  0  0  0  0  0  0  0  0
   40.4150   23.8140   34.0310 C   0  0  0  0  0  0  0  0  0  0  0  0
   41.3850   23.1870   34.7800 C   0  0  0  0  0  0  0  0  0  0  0  0
   41.1630   22.9250   36.1030 C   0  0  0  0  0  0  0  0  0  0  0  0
   39.9710   23.2990   36.6460 C   0  0  0  0  0  0  0  0  0  0  0  0
   39.7500   23.0310   37.9920 C   0  0  0  0  0  0  0  0  0  0  0  0
   38.5920   23.3670   38.6130 C   0  0  0  0  0  0  0  0  0  0  0  0
   37.6220   24.0020   37.8350 C   0  0  0  0  0  0  0  0  0  0  0  0
   37.8770   24.2490   36.5110 C   0  0  0  0  0  0  0  0  0  0  0  0
   39.0220   23.9240   35.8680 C   0  0  0  0  0  0  0  0  0  0  0  0
   36.7330   24.4460   31.9130 C   0  0  0  0  0  0  0  0  0  0  0  0
   36.2450   25.7480   31.8990 C   0  0  0  0  0  0  0  0  0  0  0  0
   36.7960   26.5720   32.8400 C   0  0  0  0  0  0  0  0  0  0  0  0
   37.7150   26.0900   33.6650 N   0  0  0  0  0  0  0  0  0  0  0  0
   38.1990   24.8680   33.7070 C   0  0  0  0  0  0  0  0  0  0  0  0
   37.6650   24.0710   32.7940 N   0  0  0  0  0  0  0  0  0  0  0  0
   36.4140   27.9420   32.9700 N   0  0  0  0  0  0  0  0  0  0  0  0
   36.4160   28.8520   31.9670 C   0  0  0  0  0  0  0  0  0  0  0  0
   36.0070   30.0290   32.4240 N   0  0  0  0  0  0  0  0  0  0  0  0
   35.7410   29.8750   33.7260 C   0  0  0  0  0  0  0  0  0  0  0  0
   35.9920   28.6040   34.0460 N   0  0  0  0  0  0  0  0  0  0  0  0
   35.2520   30.9010   34.6960 C   0  0  0  0  0  0  0  0  0  0  0  0
   36.0840   31.2540   35.8890 C   0  0  0  0  0  0  0  0  0  0  0  0
   35.9330   32.2320   34.7800 C   0  0  0  0  0  0  0  0  0  0  0  0
   40.6294   24.0094   32.9700 H   0  0  0  0  0  0  0  0  0  0  0  0
   42.3383   22.8970   34.3140 H   0  0  0  0  0  0  0  0  0  0  0  0
   41.9282   22.4243   36.7143 H   0  0  0  0  0  0  0  0  0  0  0  0
   40.5394   22.5305   38.5719 H   0  0  0  0  0  0  0  0  0  0  0  0
   38.4251   23.1497   39.6783 H   0  0  0  0  0  0  0  0  0  0  0  0
   36.6618   24.3014   38.2805 H   0  0  0  0  0  0  0  0  0  0  0  0
   37.0907   24.7496   35.9269 H   0  0  0  0  0  0  0  0  0  0  0  0
   36.3463   23.7143   31.1884 H   0  0  0  0  0  0  0  0  0  0  0  0
   35.4774   26.0874   31.1879 H   0  0  0  0  0  0  0  0  0  0  0  0
   36.7126   28.6462   30.9279 H   0  0  0  0  0  0  0  0  0  0  0  0
   34.2174   30.5623   34.5382 H   0  0  0  0  0  0  0  0  0  0  0  0
   35.6009   31.4443   36.8587 H   0  0  0  0  0  0  0  0  0  0  0  0
   36.9382   30.7905   36.4043 H   0  0  0  0  0  0  0  0  0  0  0  0
   36.7872   32.4545   34.1236 H   0  0  0  0  0  0  0  0  0  0  0  0
   35.6034   33.2789   34.7074 H   0  0  0  0  0  0  0  0  0  0  0  0
  1 10  1  0
  2  1  2  0
  2  3  1  0
  3  4  2  0
  4  5  1  0
  5  6  2  0
  6  7  1  0
  8  7  2  0
  9  8  1  0
 10  9  2  0
 10  5  1  0
 11 16  2  0
 12 11  1  0
 12 13  2  0
 13 17  1  0
 13 14  1  0
 14 15  2  0
 15  1  1  0
 16 15  1  0
 17 21  1  0
 18 19  2  0
 18 17  1  0
 19 20  1  0
 20 21  2  0
 20 22  1  0
 22 24  1  0
 22 23  1  0
 24 23  1  0
  2 25  1  0
  3 26  1  0
  4 27  1  0
  6 28  1  0
  7 29  1  0
  8 30  1  0
  9 31  1  0
 11 32  1  0
 12 33  1  0
 18 34  1  0
 22 35  1  0
 23 36  1  0
 23 37  1  0
 24 38  1  0
 24 39  1  0
M  ISO  8  25  14  26  14  27  14  28  14  29  14  30  14  31  14  32  14
M  ISO  7  33  14  34  14  35  13  36  13  37  13  38  13  39  13
M  END
>  <minimizedAffinity>  (1) 
-6.21441221

>  <minimizedRMSD>  (1) 
1.6385802

$$$$
