
     RDKit          3D

 44 47  0  0  0  0  0  0  0  0999 V2000
   36.3910   22.9830   31.9800 C   0  0  0  0  0  0  0  0  0  0  0  0
   35.9960   24.2660   31.6110 C   0  0  0  0  0  0  0  0  0  0  0  0
   36.6890   25.2760   32.2250 C   0  0  0  0  0  0  0  0  0  0  0  0
   37.6470   24.9600   33.0920 N   0  0  0  0  0  0  0  0  0  0  0  0
   38.0410   23.7730   33.4590 C   0  0  0  0  0  0  0  0  0  0  0  0
   37.3690   22.8020   32.8630 N   0  0  0  0  0  0  0  0  0  0  0  0
   39.0500   23.2960   34.3740 C   0  0  0  0  0  0  0  0  0  0  0  0
   40.2430   22.7400   33.9290 C   0  0  0  0  0  0  0  0  0  0  0  0
   41.2310   22.2730   34.7520 C   0  0  0  0  0  0  0  0  0  0  0  0
   41.0720   22.3410   36.1220 C   0  0  0  0  0  0  0  0  0  0  0  0
   39.9200   22.8780   36.6180 C   0  0  0  0  0  0  0  0  0  0  0  0
   39.7670   22.9440   37.9860 C   0  0  0  0  0  0  0  0  0  0  0  0
   38.6420   23.4670   38.5580 C   0  0  0  0  0  0  0  0  0  0  0  0
   37.6500   23.9360   37.6960 C   0  0  0  0  0  0  0  0  0  0  0  0
   37.8380   23.8540   36.3460 C   0  0  0  0  0  0  0  0  0  0  0  0
   38.9530   23.3360   35.7570 C   0  0  0  0  0  0  0  0  0  0  0  0
   36.4130   26.6430   31.9620 N   0  0  0  0  0  0  0  0  0  0  0  0
   36.5330   27.2560   30.7680 C   0  0  0  0  0  0  0  0  0  0  0  0
   36.1950   28.5350   30.8720 N   0  0  0  0  0  0  0  0  0  0  0  0
   35.8530   28.7520   32.1440 C   0  0  0  0  0  0  0  0  0  0  0  0
   35.9890   27.5900   32.7990 N   0  0  0  0  0  0  0  0  0  0  0  0
   35.3910   30.0080   32.8120 C   0  0  0  0  0  0  0  0  0  0  0  0
   35.6480   29.9330   34.3090 C   0  0  0  0  0  0  0  0  0  0  0  0
   33.8750   30.0140   32.6340 C   0  0  0  0  0  0  0  0  0  0  0  0
   36.0120   31.2450   32.2490 C   0  0  0  0  0  0  0  0  0  0  0  0
   35.8892   22.1102   31.5368 H   0  0  0  0  0  0  0  0  0  0  0  0
   35.1917   24.4539   30.8845 H   0  0  0  0  0  0  0  0  0  0  0  0
   40.4037   22.6707   32.8430 H   0  0  0  0  0  0  0  0  0  0  0  0
   42.1492   21.8447   34.3237 H   0  0  0  0  0  0  0  0  0  0  0  0
   41.8565   21.9705   36.7983 H   0  0  0  0  0  0  0  0  0  0  0  0
   40.5714   22.5658   38.6340 H   0  0  0  0  0  0  0  0  0  0  0  0
   38.5233   23.5162   39.6505 H   0  0  0  0  0  0  0  0  0  0  0  0
   36.7233   24.3686   38.1010 H   0  0  0  0  0  0  0  0  0  0  0  0
   37.0380   24.2302   35.6914 H   0  0  0  0  0  0  0  0  0  0  0  0
   36.8637   26.7664   29.8402 H   0  0  0  0  0  0  0  0  0  0  0  0
   34.7299   30.2009   34.8525 H   0  0  0  0  0  0  0  0  0  0  0  0
   35.9484   28.9097   34.5787 H   0  0  0  0  0  0  0  0  0  0  0  0
   36.4516   30.6341   34.5787 H   0  0  0  0  0  0  0  0  0  0  0  0
   33.3899   30.0159   33.6213 H   0  0  0  0  0  0  0  0  0  0  0  0
   33.5749   30.9133   32.0762 H   0  0  0  0  0  0  0  0  0  0  0  0
   33.5677   29.1171   32.0762 H   0  0  0  0  0  0  0  0  0  0  0  0
   36.3397   31.8978   33.0715 H   0  0  0  0  0  0  0  0  0  0  0  0
   36.8794   30.9710   31.6305 H   0  0  0  0  0  0  0  0  0  0  0  0
   35.2741   31.7769   31.6305 H   0  0  0  0  0  0  0  0  0  0  0  0
  1  6  2  0
  2  1  1  0
  2  3  2  0
  3  4  1  0
  4  5  2  0
  5  7  1  0
  6  5  1  0
  7 16  1  0
  8  7  2  0
  8  9  1  0
  9 10  2  0
 10 11  1  0
 11 12  2  0
 12 13  1  0
 14 13  2  0
 15 14  1  0
 16 15  2  0
 16 11  1  0
 17  3  1  0
 17 21  1  0
 18 19  2  0
 18 17  1  0
 19 20  1  0
 20 21  2  0
 20 22  1  0
 22 23  1  0
 24 22  1  0
 25 22  1  0
  1 26  1  0
  2 27  1  0
  8 28  1  0
  9 29  1  0
 10 30  1  0
 12 31  1  0
 13 32  1  0
 14 33  1  0
 15 34  1  0
 18 35  1  0
 23 36  1  0
 23 37  1  0
 23 38  1  0
 24 39  1  0
 24 40  1  0
 24 41  1  0
 25 42  1  0
 25 43  1  0
 25 44  1  0
M  ISO  8  26  14  27  14  28  14  29  14  30  14  31  14  32  14  33  14
M  ISO  8  34  14  35  14  36   8  37   8  38   8  39   8  40   8  41   8
M  ISO  3  42   8  43   8  44   8
M  END
>  <minimizedAffinity>  (1) 
-6.14053679

>  <minimizedRMSD>  (1) 
0.634333074

$$$$
