
     RDKit          3D

 35 38  0  0  0  0  0  0  0  0999 V2000
   36.3990   22.9590   32.0010 C   0  0  0  0  0  0  0  0  0  0  0  0
   36.0290   24.2480   31.6420 C   0  0  0  0  0  0  0  0  0  0  0  0
   36.7320   25.2460   32.2900 C   0  0  0  0  0  0  0  0  0  0  0  0
   37.6650   24.9030   33.1690 N   0  0  0  0  0  0  0  0  0  0  0  0
   38.0190   23.6970   33.5120 C   0  0  0  0  0  0  0  0  0  0  0  0
   37.3570   22.7440   32.9010 N   0  0  0  0  0  0  0  0  0  0  0  0
   39.0150   23.1940   34.4500 C   0  0  0  0  0  0  0  0  0  0  0  0
   40.1720   22.5640   34.0180 C   0  0  0  0  0  0  0  0  0  0  0  0
   41.1420   22.0700   34.8600 C   0  0  0  0  0  0  0  0  0  0  0  0
   40.9870   22.1930   36.2220 C   0  0  0  0  0  0  0  0  0  0  0  0
   39.8770   22.7990   36.6960 C   0  0  0  0  0  0  0  0  0  0  0  0
   39.7310   22.9180   38.0690 C   0  0  0  0  0  0  0  0  0  0  0  0
   38.6440   23.5140   38.6260 C   0  0  0  0  0  0  0  0  0  0  0  0
   37.6670   24.0100   37.7610 C   0  0  0  0  0  0  0  0  0  0  0  0
   37.8420   23.8760   36.4050 C   0  0  0  0  0  0  0  0  0  0  0  0
   38.9280   23.2810   35.8280 C   0  0  0  0  0  0  0  0  0  0  0  0
   36.4670   26.6220   32.0300 N   0  0  0  0  0  0  0  0  0  0  0  0
   36.3750   27.2040   30.8300 C   0  0  0  0  0  0  0  0  0  0  0  0
   36.1190   28.5010   30.9570 N   0  0  0  0  0  0  0  0  0  0  0  0
   36.0490   28.7530   32.2620 C   0  0  0  0  0  0  0  0  0  0  0  0
   36.2650   27.5880   32.9030 N   0  0  0  0  0  0  0  0  0  0  0  0
   35.8030   29.9430   33.0690 C   0  0  0  0  0  0  0  0  0  0  0  0
   35.7920   31.1430   32.7030 O   0  0  0  0  0  0  0  0  0  0  0  0
   35.5340   29.8450   34.4460 O   0  0  0  0  0  0  0  0  0  0  0  0
   35.8926   22.1011   31.5345 H   0  0  0  0  0  0  0  0  0  0  0  0
   35.2416   24.4576   30.9031 H   0  0  0  0  0  0  0  0  0  0  0  0
   40.3242   22.4520   32.9344 H   0  0  0  0  0  0  0  0  0  0  0  0
   42.0359   21.5798   34.4469 H   0  0  0  0  0  0  0  0  0  0  0  0
   41.7520   21.8054   36.9109 H   0  0  0  0  0  0  0  0  0  0  0  0
   40.5172   22.5187   38.7266 H   0  0  0  0  0  0  0  0  0  0  0  0
   38.5380   23.6022   39.7173 H   0  0  0  0  0  0  0  0  0  0  0  0
   36.7679   24.5022   38.1603 H   0  0  0  0  0  0  0  0  0  0  0  0
   37.0587   24.2726   35.7424 H   0  0  0  0  0  0  0  0  0  0  0  0
   36.4948   26.6808   29.8698 H   0  0  0  0  0  0  0  0  0  0  0  0
   35.3695   30.6637   34.9777 H   0  0  0  0  0  0  0  0  0  0  0  0
  1  6  2  0
  2  1  1  0
  2  3  2  0
  3  4  1  0
  4  5  2  0
  5  7  1  0
  6  5  1  0
  7 16  1  0
  8  7  2  0
  8  9  1  0
  9 10  2  0
 10 11  1  0
 11 12  2  0
 12 13  1  0
 14 13  2  0
 15 14  1  0
 16 15  2  0
 16 11  1  0
 17  3  1  0
 17 21  1  0
 18 19  2  0
 18 17  1  0
 19 20  1  0
 20 21  2  0
 20 22  1  0
 22 24  1  0
 23 22  2  0
  1 25  1  0
  2 26  1  0
  8 27  1  0
  9 28  1  0
 10 29  1  0
 12 30  1  0
 13 31  1  0
 14 32  1  0
 15 33  1  0
 18 34  1  0
 24 35  1  0
M  ISO  8  25  14  26  14  27  14  28  14  29  14  30  14  31  14  32  14
M  ISO  3  33  14  34  14  35   3
M  END
>  <minimizedAffinity>  (1) 
-5.83646917

>  <minimizedRMSD>  (1) 
0.427885562

$$$$
