
     RDKit          3D

 48 51  0  0  1  0  0  0  0  0999 V2000
   39.3690   22.4150   35.0810 C   0  0  0  0  0  0  0  0  0  0  0  0
   38.2250   22.3500   35.8920 C   0  0  0  0  0  0  0  0  0  0  0  0
   37.2380   21.8720   35.0430 C   0  0  0  0  0  0  0  0  0  0  0  0
   37.7520   21.6640   33.8020 N   0  0  0  0  0  0  0  0  0  0  0  0
   39.0230   21.9980   33.8650 N   0  0  0  0  0  0  0  0  0  0  0  0
   37.5180   19.9080   32.2010 N   0  0  0  0  0  0  0  0  0  0  0  0
   36.5020   19.5250   31.2110 C   0  0  0  0  0  0  0  0  0  0  0  0
   35.1900   20.0970   31.7010 C   0  0  0  0  0  0  0  0  0  0  0  0
   35.5750   20.8430   32.9750 C   0  0  0  0  0  0  0  0  0  0  0  0
   37.0120   21.1740   32.6780 C   0  0  1  0  0  0  0  0  0  0  0  0
   37.0670   22.2330   31.5970 C   0  0  0  0  0  0  0  0  0  0  0  0
   38.4830   22.5540   31.1830 C   0  0  0  0  0  0  0  0  0  0  0  0
   36.4760   23.5030   32.1500 C   0  0  0  0  0  0  0  0  0  0  0  0
   41.2090   24.0560   35.0660 C   0  0  0  0  0  0  0  0  0  0  0  0
   40.6670   22.8590   35.5250 C   0  0  0  0  0  0  0  0  0  0  0  0
   41.3740   22.0830   36.4160 C   0  0  0  0  0  0  0  0  0  0  0  0
   42.6030   22.5560   36.8040 N   0  0  0  0  0  0  0  0  0  0  0  0
   43.1110   23.7240   36.3440 C   0  0  0  0  0  0  0  0  0  0  0  0
   42.4140   24.4510   35.4910 N   0  0  0  0  0  0  0  0  0  0  0  0
   44.4260   24.1590   36.8050 C   0  0  0  0  0  0  0  0  0  0  0  0
   45.5540   23.5000   36.3600 C   0  0  0  0  0  0  0  0  0  0  0  0
   46.8430   23.8260   36.7290 C   0  0  0  0  0  0  0  0  0  0  0  0
   46.9820   24.8960   37.6110 C   0  0  0  0  0  0  0  0  0  0  0  0
   45.8500   25.5670   38.0640 C   0  0  0  0  0  0  0  0  0  0  0  0
   44.5710   25.2180   37.6770 C   0  0  0  0  0  0  0  0  0  0  0  0
   38.1327   22.6166   36.9552 H   0  0  0  0  0  0  0  0  0  0  0  0
   36.1926   21.6882   35.3316 H   0  0  0  0  0  0  0  0  0  0  0  0
   38.4443   20.0162   31.7637 H   0  0  0  0  0  0  0  0  0  0  0  0
   36.4357   18.4294   31.1384 H   0  0  0  0  0  0  0  0  0  0  0  0
   36.7552   19.9082   30.2115 H   0  0  0  0  0  0  0  0  0  0  0  0
   34.7600   20.7850   30.9582 H   0  0  0  0  0  0  0  0  0  0  0  0
   34.4257   19.3248   31.8732 H   0  0  0  0  0  0  0  0  0  0  0  0
   34.9695   21.7510   33.1121 H   0  0  0  0  0  0  0  0  0  0  0  0
   35.4191   20.2738   33.9033 H   0  0  0  0  0  0  0  0  0  0  0  0
   36.5171   21.8479   30.7256 H   0  0  0  0  0  0  0  0  0  0  0  0
   39.1042   22.6948   32.0798 H   0  0  0  0  0  0  0  0  0  0  0  0
   38.8868   21.7246   30.5838 H   0  0  0  0  0  0  0  0  0  0  0  0
   38.4897   23.4764   30.5838 H   0  0  0  0  0  0  0  0  0  0  0  0
   36.4928   23.4669   33.2493 H   0  0  0  0  0  0  0  0  0  0  0  0
   37.0661   24.3638   31.8023 H   0  0  0  0  0  0  0  0  0  0  0  0
   35.4375   23.6059   31.8023 H   0  0  0  0  0  0  0  0  0  0  0  0
   40.6462   24.6772   34.3536 H   0  0  0  0  0  0  0  0  0  0  0  0
   40.9742   21.1320   36.7977 H   0  0  0  0  0  0  0  0  0  0  0  0
   45.4163   22.6587   35.6648 H   0  0  0  0  0  0  0  0  0  0  0  0
   47.7133   23.2716   36.3478 H   0  0  0  0  0  0  0  0  0  0  0  0
   47.9815   25.2087   37.9475 H   0  0  0  0  0  0  0  0  0  0  0  0
   45.9793   26.4099   38.7588 H   0  0  0  0  0  0  0  0  0  0  0  0
   43.6951   25.7674   38.0525 H   0  0  0  0  0  0  0  0  0  0  0  0
  1 15  1  0
  1  2  1  0
  3  2  2  0
  4  5  1  0
  4  3  1  0
  5  1  2  0
  6 10  1  0
  7  8  1  0
  7  6  1  0
  8  9  1  0
 10 11  1  6
 10  9  1  0
 10  4  1  0
 11 13  1  0
 12 11  1  0
 14 19  2  0
 14 15  1  0
 15 16  2  0
 16 17  1  0
 18 17  2  0
 18 20  1  0
 19 18  1  0
 20 25  2  0
 21 22  2  0
 21 20  1  0
 22 23  1  0
 23 24  2  0
 25 24  1  0
  2 26  1  0
  3 27  1  0
  6 28  1  0
  7 29  1  0
  7 30  1  0
  8 31  1  0
  8 32  1  0
  9 33  1  0
  9 34  1  0
 11 35  1  0
 12 36  1  0
 12 37  1  0
 12 38  1  0
 13 39  1  0
 13 40  1  0
 13 41  1  0
 14 42  1  0
 16 43  1  0
 21 44  1  0
 22 45  1  0
 23 46  1  0
 24 47  1  0
 25 48  1  0
M  ISO  8  26  14  27  14  28   5  29  13  30  13  31  13  32  13  33  13
M  ISO  8  34  13  35   8  36   8  37   8  38   8  39   8  40   8  41   8
M  ISO  7  42  14  43  14  44  14  45  14  46  14  47  14  48  14
M  END
>  <minimizedAffinity>  (1) 
-5.57068062

>  <minimizedRMSD>  (1) 
9.62986755

$$$$
