
     RDKit          3D

 51 54  0  0  1  0  0  0  0  0999 V2000
   40.2090   23.8380   33.9530 C   0  0  0  0  0  0  0  0  0  0  0  0
   40.7910   23.1280   32.9090 C   0  0  0  0  0  0  0  0  0  0  0  0
   41.6420   22.2250   33.5570 C   0  0  0  0  0  0  0  0  0  0  0  0
   41.5720   22.3860   34.9090 N   0  0  0  0  0  0  0  0  0  0  0  0
   40.6990   23.3670   35.1150 N   0  0  0  0  0  0  0  0  0  0  0  0
   37.9200   24.6350   33.4600 C   0  0  0  0  0  0  0  0  0  0  0  0
   39.2410   24.9010   33.8050 C   0  0  0  0  0  0  0  0  0  0  0  0
   39.6300   26.2080   34.0090 C   0  0  0  0  0  0  0  0  0  0  0  0
   38.6760   27.1870   33.8590 N   0  0  0  0  0  0  0  0  0  0  0  0
   37.3990   26.8880   33.5220 C   0  0  0  0  0  0  0  0  0  0  0  0
   37.0380   25.6230   33.3280 N   0  0  0  0  0  0  0  0  0  0  0  0
   36.4900   27.9850   33.3920 N   0  0  0  0  0  0  0  0  0  0  0  0
   36.4620   28.8290   34.4420 C   0  0  0  0  0  0  0  0  0  0  0  0
   35.5940   29.9260   34.3780 C   0  0  0  0  0  0  0  0  0  0  0  0
   35.5960   30.8380   35.5690 C   0  0  0  0  0  0  0  0  0  0  0  0
   34.8210   30.0770   33.2480 C   0  0  0  0  0  0  0  0  0  0  0  0
   34.0500   31.0940   33.2530 O   0  0  0  0  0  0  0  0  0  0  0  0
   34.9070   29.1990   32.2570 N   0  0  0  0  0  0  0  0  0  0  0  0
   35.7310   28.1380   32.2900 C   0  0  0  0  0  0  0  0  0  0  0  0
   35.8100   27.3090   31.3470 O   0  0  0  0  0  0  0  0  0  0  0  0
   41.5140   21.2950   37.0270 N   0  0  0  0  0  0  0  0  0  0  0  0
   42.4060   20.3770   37.7490 C   0  0  0  0  0  0  0  0  0  0  0  0
   43.2120   19.6520   36.6920 C   0  0  0  0  0  0  0  0  0  0  0  0
   42.7390   20.2730   35.3910 C   0  0  0  0  0  0  0  0  0  0  0  0
   42.3090   21.6280   35.8660 C   0  0  1  0  0  0  0  0  0  0  0  0
   43.5390   22.4320   36.2410 C   0  0  0  0  0  0  0  0  0  0  0  0
   43.1870   23.8680   36.5940 C   0  0  0  0  0  0  0  0  0  0  0  0
   44.4560   22.4910   35.0480 C   0  0  0  0  0  0  0  0  0  0  0  0
   40.6225   23.2476   31.8286 H   0  0  0  0  0  0  0  0  0  0  0  0
   42.2789   21.4878   33.0462 H   0  0  0  0  0  0  0  0  0  0  0  0
   37.6004   23.5956   33.2943 H   0  0  0  0  0  0  0  0  0  0  0  0
   40.6658   26.4585   34.2818 H   0  0  0  0  0  0  0  0  0  0  0  0
   37.1008   28.6616   35.3217 H   0  0  0  0  0  0  0  0  0  0  0  0
   35.5947   30.2375   36.4906 H   0  0  0  0  0  0  0  0  0  0  0  0
   36.4955   31.4707   35.5449 H   0  0  0  0  0  0  0  0  0  0  0  0
   34.6992   31.4746   35.5449 H   0  0  0  0  0  0  0  0  0  0  0  0
   34.3156   29.3368   31.4250 H   0  0  0  0  0  0  0  0  0  0  0  0
   40.6349   20.8302   36.7588 H   0  0  0  0  0  0  0  0  0  0  0  0
   43.0734   20.9408   38.4173 H   0  0  0  0  0  0  0  0  0  0  0  0
   41.8362   19.6719   38.3721 H   0  0  0  0  0  0  0  0  0  0  0  0
   44.2895   19.8186   36.8373 H   0  0  0  0  0  0  0  0  0  0  0  0
   43.0699   18.5616   36.7206 H   0  0  0  0  0  0  0  0  0  0  0  0
   41.8992   19.7112   34.9562 H   0  0  0  0  0  0  0  0  0  0  0  0
   43.4957   20.2894   34.5928 H   0  0  0  0  0  0  0  0  0  0  0  0
   44.0055   21.9439   37.1094 H   0  0  0  0  0  0  0  0  0  0  0  0
   43.1594   23.9805   37.6879 H   0  0  0  0  0  0  0  0  0  0  0  0
   43.9457   24.5452   36.1748 H   0  0  0  0  0  0  0  0  0  0  0  0
   42.2011   24.1175   36.1748 H   0  0  0  0  0  0  0  0  0  0  0  0
   45.4992   22.5581   35.3904 H   0  0  0  0  0  0  0  0  0  0  0  0
   44.3270   21.5827   34.4411 H   0  0  0  0  0  0  0  0  0  0  0  0
   44.2117   23.3753   34.4411 H   0  0  0  0  0  0  0  0  0  0  0  0
  1  5  2  0
  2  3  2  0
  2  1  1  0
  3  4  1  0
  4  5  1  0
  4 25  1  0
  6  7  2  0
  7  1  1  0
  7  8  1  0
  9  8  2  0
 10  9  1  0
 11  6  1  0
 11 10  2  0
 12 10  1  0
 12 13  1  0
 14 13  2  0
 14 15  1  0
 16 17  2  0
 16 14  1  0
 18 19  1  0
 18 16  1  0
 19 12  1  0
 20 19  2  0
 21 22  1  0
 23 22  1  0
 24 25  1  0
 24 23  1  0
 25 26  1  1
 25 21  1  0
 26 27  1  0
 28 26  1  0
  2 29  1  0
  3 30  1  0
  6 31  1  0
  8 32  1  0
 13 33  1  0
 15 34  1  0
 15 35  1  0
 15 36  1  0
 18 37  1  0
 21 38  1  0
 22 39  1  0
 22 40  1  0
 23 41  1  0
 23 42  1  0
 24 43  1  0
 24 44  1  0
 26 45  1  0
 27 46  1  0
 27 47  1  0
 27 48  1  0
 28 49  1  0
 28 50  1  0
 28 51  1  0
M  ISO  8  29  14  30  14  31  14  32  14  33  14  34   8  35   8  36   8
M  ISO  8  37   9  38   5  39  13  40  13  41  13  42  13  43  13  44  13
M  ISO  7  45   8  46   8  47   8  48   8  49   8  50   8  51   8
M  END
>  <minimizedAffinity>  (1) 
-5.10876799

>  <minimizedRMSD>  (1) 
4.17503834

$$$$
