
     RDKit          3D

 41 43  0  0  1  0  0  0  0  0999 V2000
   40.9880   23.4900   35.8040 N   0  0  0  0  0  0  0  0  0  0  0  0
   41.4980   22.4010   36.6390 C   0  0  0  0  0  0  0  0  0  0  0  0
   40.5130   22.2290   37.7730 C   0  0  0  0  0  0  0  0  0  0  0  0
   39.4520   23.2620   37.4710 C   0  0  0  0  0  0  0  0  0  0  0  0
   39.5560   23.3640   35.9760 C   0  0  1  0  0  0  0  0  0  0  0  0
   38.0840   25.9690   34.0030 C   0  0  0  0  0  0  0  0  0  0  0  0
   37.4160   26.1930   35.1940 C   0  0  0  0  0  0  0  0  0  0  0  0
   37.9220   25.2140   36.0540 C   0  0  0  0  0  0  0  0  0  0  0  0
   38.8340   24.4600   35.4030 N   0  0  0  0  0  0  0  0  0  0  0  0
   38.9120   24.9340   34.1780 N   0  0  0  0  0  0  0  0  0  0  0  0
   38.9980   27.1650   32.0400 C   0  0  0  0  0  0  0  0  0  0  0  0
   37.9020   26.7350   32.7960 C   0  0  0  0  0  0  0  0  0  0  0  0
   36.6310   27.0550   32.3690 C   0  0  0  0  0  0  0  0  0  0  0  0
   36.4940   27.7850   31.2160 N   0  0  0  0  0  0  0  0  0  0  0  0
   37.5970   28.1860   30.5070 C   0  0  0  0  0  0  0  0  0  0  0  0
   38.8120   27.8760   30.9210 N   0  0  0  0  0  0  0  0  0  0  0  0
   37.3790   28.9590   29.2910 C   0  0  0  0  0  0  0  0  0  0  0  0
   36.9200   30.1280   29.2960 O   0  0  0  0  0  0  0  0  0  0  0  0
   37.6660   28.4530   28.0380 O   0  0  0  0  0  0  0  0  0  0  0  0
   39.0380   22.0860   35.3670 C   0  0  0  0  0  0  0  0  0  0  0  0
   39.2390   22.0790   33.8610 C   0  0  0  0  0  0  0  0  0  0  0  0
   37.5520   22.0030   35.6090 C   0  0  0  0  0  0  0  0  0  0  0  0
   41.2582   23.3625   34.8183 H   0  0  0  0  0  0  0  0  0  0  0  0
   41.5671   21.4731   36.0522 H   0  0  0  0  0  0  0  0  0  0  0  0
   42.5045   22.6302   37.0190 H   0  0  0  0  0  0  0  0  0  0  0  0
   40.0867   21.2150   37.7744 H   0  0  0  0  0  0  0  0  0  0  0  0
   40.9709   22.3592   38.7646 H   0  0  0  0  0  0  0  0  0  0  0  0
   38.4548   22.9177   37.7825 H   0  0  0  0  0  0  0  0  0  0  0  0
   39.5912   24.2174   37.9980 H   0  0  0  0  0  0  0  0  0  0  0  0
   36.6616   26.9630   35.4132 H   0  0  0  0  0  0  0  0  0  0  0  0
   37.6223   25.0781   37.1036 H   0  0  0  0  0  0  0  0  0  0  0  0
   40.0186   26.9174   32.3671 H   0  0  0  0  0  0  0  0  0  0  0  0
   35.7475   26.7325   32.9395 H   0  0  0  0  0  0  0  0  0  0  0  0
   38.0317   27.5376   27.9457 H   0  0  0  0  0  0  0  0  0  0  0  0
   39.5817   21.2451   35.8223 H   0  0  0  0  0  0  0  0  0  0  0  0
   40.3148   22.0415   33.6348 H   0  0  0  0  0  0  0  0  0  0  0  0
   38.7426   21.1976   33.4289 H   0  0  0  0  0  0  0  0  0  0  0  0
   38.8051   22.9928   33.4289 H   0  0  0  0  0  0  0  0  0  0  0  0
   37.3568   21.9921   36.6915 H   0  0  0  0  0  0  0  0  0  0  0  0
   37.0575   22.8749   35.1560 H   0  0  0  0  0  0  0  0  0  0  0  0
   37.1576   21.0814   35.1560 H   0  0  0  0  0  0  0  0  0  0  0  0
  1  5  1  0
  1  2  1  0
  2  3  1  0
  4  3  1  0
  5 20  1  6
  5  4  1  0
  6 10  2  0
  6  7  1  0
  7  8  2  0
  9  5  1  0
  9  8  1  0
 10  9  1  0
 11 12  2  0
 12  6  1  0
 13 12  1  0
 14 13  2  0
 15 16  2  0
 15 14  1  0
 16 11  1  0
 17 18  2  0
 17 15  1  0
 19 17  1  0
 20 22  1  0
 21 20  1  0
  1 23  1  0
  2 24  1  0
  2 25  1  0
  3 26  1  0
  3 27  1  0
  4 28  1  0
  4 29  1  0
  7 30  1  0
  8 31  1  0
 11 32  1  0
 13 33  1  0
 19 34  1  0
 20 35  1  0
 21 36  1  0
 21 37  1  0
 21 38  1  0
 22 39  1  0
 22 40  1  0
 22 41  1  0
M  ISO  8  23   5  24  13  25  13  26  13  27  13  28  13  29  13  30  14
M  ISO  8  31  14  32  14  33  14  34   3  35   8  36   8  37   8  38   8
M  ISO  3  39   8  40   8  41   8
M  END
>  <minimizedAffinity>  (1) 
-5.01587391

>  <minimizedRMSD>  (1) 
4.03428936

$$$$
