
     RDKit          3D

 45 48  0  0  1  0  0  0  0  0999 V2000
   37.9870   25.2420   33.0060 C   0  0  0  0  0  0  0  0  0  0  0  0
   37.8020   23.8850   32.7560 C   0  0  0  0  0  0  0  0  0  0  0  0
   37.9310   23.2910   34.0040 C   0  0  0  0  0  0  0  0  0  0  0  0
   38.1790   24.2250   34.9480 N   0  0  0  0  0  0  0  0  0  0  0  0
   38.2080   25.3870   34.3230 N   0  0  0  0  0  0  0  0  0  0  0  0
   38.0960   25.1260   37.1670 N   0  0  0  0  0  0  0  0  0  0  0  0
   38.1430   24.5620   38.5180 C   0  0  0  0  0  0  0  0  0  0  0  0
   37.6630   23.1340   38.4120 C   0  0  0  0  0  0  0  0  0  0  0  0
   37.4070   22.9620   36.9190 C   0  0  0  0  0  0  0  0  0  0  0  0
   38.3680   23.9650   36.3450 C   0  0  1  0  0  0  0  0  0  0  0  0
   39.7820   23.4720   36.5390 C   0  0  0  0  0  0  0  0  0  0  0  0
   40.7670   24.2450   35.6960 C   0  0  0  0  0  0  0  0  0  0  0  0
   39.8500   22.0420   36.0970 C   0  0  0  0  0  0  0  0  0  0  0  0
   37.2720   27.4890   32.2670 C   0  0  0  0  0  0  0  0  0  0  0  0
   37.9450   26.2850   32.0130 C   0  0  0  0  0  0  0  0  0  0  0  0
   38.5730   26.0960   30.8010 C   0  0  0  0  0  0  0  0  0  0  0  0
   38.5080   27.1150   29.8800 N   0  0  0  0  0  0  0  0  0  0  0  0
   37.8480   28.2710   30.1580 C   0  0  0  0  0  0  0  0  0  0  0  0
   37.2450   28.4480   31.3290 N   0  0  0  0  0  0  0  0  0  0  0  0
   37.7740   29.3580   29.1900 C   0  0  0  0  0  0  0  0  0  0  0  0
   37.1960   30.6270   29.2290 C   0  0  0  0  0  0  0  0  0  0  0  0
   37.4630   31.1960   27.9960 C   0  0  0  0  0  0  0  0  0  0  0  0
   38.1730   30.3060   27.2460 N   0  0  0  0  0  0  0  0  0  0  0  0
   38.3610   29.1950   27.9700 N   0  0  0  0  0  0  0  0  0  0  0  0
   37.6001   23.3961   31.7916 H   0  0  0  0  0  0  0  0  0  0  0  0
   37.8436   22.2116   34.1971 H   0  0  0  0  0  0  0  0  0  0  0  0
   37.1683   25.5224   36.9592 H   0  0  0  0  0  0  0  0  0  0  0  0
   39.1730   24.5876   38.9034 H   0  0  0  0  0  0  0  0  0  0  0  0
   37.5120   25.1401   39.2091 H   0  0  0  0  0  0  0  0  0  0  0  0
   38.4334   22.4319   38.7635 H   0  0  0  0  0  0  0  0  0  0  0  0
   36.7746   22.9309   39.0280 H   0  0  0  0  0  0  0  0  0  0  0  0
   37.6413   21.9407   36.5841 H   0  0  0  0  0  0  0  0  0  0  0  0
   36.3599   23.1142   36.6183 H   0  0  0  0  0  0  0  0  0  0  0  0
   40.0399   23.5973   37.6010 H   0  0  0  0  0  0  0  0  0  0  0  0
   41.4619   24.7903   36.3515 H   0  0  0  0  0  0  0  0  0  0  0  0
   41.3329   23.5474   35.0611 H   0  0  0  0  0  0  0  0  0  0  0  0
   40.2240   24.9605   35.0611 H   0  0  0  0  0  0  0  0  0  0  0  0
   39.8812   21.3865   36.9798 H   0  0  0  0  0  0  0  0  0  0  0  0
   38.9622   21.8022   35.4934 H   0  0  0  0  0  0  0  0  0  0  0  0
   40.7565   21.8875   35.4934 H   0  0  0  0  0  0  0  0  0  0  0  0
   36.7680   27.6465   33.2320 H   0  0  0  0  0  0  0  0  0  0  0  0
   39.1083   25.1613   30.5778 H   0  0  0  0  0  0  0  0  0  0  0  0
   36.6435   31.0806   30.0650 H   0  0  0  0  0  0  0  0  0  0  0  0
   37.1533   32.2012   27.6740 H   0  0  0  0  0  0  0  0  0  0  0  0
   38.5083   30.4618   26.2846 H   0  0  0  0  0  0  0  0  0  0  0  0
  1  5  2  0
  2  1  1  0
  2  3  2  0
  3  4  1  0
  4 10  1  0
  5  4  1  0
  6  7  1  0
  8  7  1  0
  9  8  1  0
 10 11  1  6
 10  9  1  0
 10  6  1  0
 12 11  1  0
 13 11  1  0
 15 14  2  0
 15  1  1  0
 16 15  1  0
 17 18  1  0
 17 16  2  0
 18 19  2  0
 19 14  1  0
 20 21  1  0
 20 18  1  0
 22 21  2  0
 23 24  1  0
 23 22  1  0
 24 20  2  0
  2 25  1  0
  3 26  1  0
  6 27  1  0
  7 28  1  0
  7 29  1  0
  8 30  1  0
  8 31  1  0
  9 32  1  0
  9 33  1  0
 11 34  1  0
 12 35  1  0
 12 36  1  0
 12 37  1  0
 13 38  1  0
 13 39  1  0
 13 40  1  0
 14 41  1  0
 16 42  1  0
 21 43  1  0
 22 44  1  0
 23 45  1  0
M  ISO  8  25  14  26  14  27   5  28  13  29  13  30  13  31  13  32  13
M  ISO  8  33  13  34   8  35   8  36   8  37   8  38   8  39   8  40   8
M  ISO  5  41  14  42  14  43  14  44  14  45   9
M  END
>  <minimizedAffinity>  (1) 
-4.9300766

>  <minimizedRMSD>  (1) 
4.6233573

$$$$
