
     RDKit          3D

 45 48  0  0  1  0  0  0  0  0999 V2000
   44.7620   26.1730   35.7720 N   0  0  0  0  0  0  0  0  0  0  0  0
   46.1210   26.4670   36.2380 C   0  0  0  0  0  0  0  0  0  0  0  0
   46.3590   25.5770   37.4440 C   0  0  0  0  0  0  0  0  0  0  0  0
   45.0570   24.7940   37.5720 C   0  0  0  0  0  0  0  0  0  0  0  0
   44.5960   24.7870   36.1430 C   0  0  1  0  0  0  0  0  0  0  0  0
   41.2120   24.0780   35.1730 C   0  0  0  0  0  0  0  0  0  0  0  0
   41.3560   23.1490   36.2060 C   0  0  0  0  0  0  0  0  0  0  0  0
   42.6680   23.3440   36.6630 C   0  0  0  0  0  0  0  0  0  0  0  0
   43.2540   24.3270   35.9430 N   0  0  0  0  0  0  0  0  0  0  0  0
   42.3650   24.7460   35.0620 N   0  0  0  0  0  0  0  0  0  0  0  0
   39.0340   23.2520   34.3570 C   0  0  0  0  0  0  0  0  0  0  0  0
   40.0200   24.2500   34.3960 C   0  0  0  0  0  0  0  0  0  0  0  0
   39.8410   25.4180   33.6750 C   0  0  0  0  0  0  0  0  0  0  0  0
   38.6760   25.5300   32.9460 N   0  0  0  0  0  0  0  0  0  0  0  0
   37.7390   24.5280   32.9360 C   0  0  0  0  0  0  0  0  0  0  0  0
   37.9290   23.4220   33.6320 N   0  0  0  0  0  0  0  0  0  0  0  0
   36.5840   24.8460   32.1030 C   0  0  0  0  0  0  0  0  0  0  0  0
   35.5930   24.1710   31.4620 C   0  0  0  0  0  0  0  0  0  0  0  0
   34.8160   25.1480   30.8420 C   0  0  0  0  0  0  0  0  0  0  0  0
   35.3870   26.3850   31.1450 C   0  0  0  0  0  0  0  0  0  0  0  0
   36.4350   26.1540   31.8970 O   0  0  0  0  0  0  0  0  0  0  0  0
   45.5060   23.8980   35.3290 C   0  0  0  0  0  0  0  0  0  0  0  0
   45.1080   23.8320   33.8770 C   0  0  0  0  0  0  0  0  0  0  0  0
   45.4000   22.4890   35.8710 C   0  0  0  0  0  0  0  0  0  0  0  0
   44.6833   26.2972   34.7526 H   0  0  0  0  0  0  0  0  0  0  0  0
   46.8520   26.2411   35.4476 H   0  0  0  0  0  0  0  0  0  0  0  0
   46.2339   27.5301   36.4969 H   0  0  0  0  0  0  0  0  0  0  0  0
   47.2091   24.9006   37.2716 H   0  0  0  0  0  0  0  0  0  0  0  0
   46.6082   26.1448   38.3526 H   0  0  0  0  0  0  0  0  0  0  0  0
   45.2320   23.7747   37.9466 H   0  0  0  0  0  0  0  0  0  0  0  0
   44.3347   25.2214   38.2831 H   0  0  0  0  0  0  0  0  0  0  0  0
   40.6112   22.4292   36.5764 H   0  0  0  0  0  0  0  0  0  0  0  0
   43.1459   22.7840   37.4803 H   0  0  0  0  0  0  0  0  0  0  0  0
   39.1744   22.3229   34.9289 H   0  0  0  0  0  0  0  0  0  0  0  0
   40.5937   26.2201   33.6832 H   0  0  0  0  0  0  0  0  0  0  0  0
   35.4372   23.0824   31.4378 H   0  0  0  0  0  0  0  0  0  0  0  0
   33.9196   24.9761   30.2281 H   0  0  0  0  0  0  0  0  0  0  0  0
   35.0250   27.3697   30.8144 H   0  0  0  0  0  0  0  0  0  0  0  0
   46.5208   24.3164   35.4009 H   0  0  0  0  0  0  0  0  0  0  0  0
   44.0254   23.6525   33.8014 H   0  0  0  0  0  0  0  0  0  0  0  0
   45.3571   24.7837   33.3849 H   0  0  0  0  0  0  0  0  0  0  0  0
   45.6510   23.0116   33.3849 H   0  0  0  0  0  0  0  0  0  0  0  0
   45.4022   22.5180   36.9706 H   0  0  0  0  0  0  0  0  0  0  0  0
   44.4648   22.0298   35.5182 H   0  0  0  0  0  0  0  0  0  0  0  0
   46.2560   21.8951   35.5182 H   0  0  0  0  0  0  0  0  0  0  0  0
  1  5  1  0
  1  2  1  0
  2  3  1  0
  3  4  1  0
  5 22  1  6
  5  4  1  0
  6  7  1  0
  7  8  2  0
  9  5  1  0
  9  8  1  0
 10  6  2  0
 10  9  1  0
 11 12  2  0
 12  6  1  0
 13 12  1  0
 14 13  2  0
 15 14  1  0
 15 16  2  0
 16 11  1  0
 17 15  1  0
 18 17  2  0
 19 20  2  0
 19 18  1  0
 20 21  1  0
 21 17  1  0
 22 24  1  0
 23 22  1  0
  1 25  1  0
  2 26  1  0
  2 27  1  0
  3 28  1  0
  3 29  1  0
  4 30  1  0
  4 31  1  0
  7 32  1  0
  8 33  1  0
 11 34  1  0
 13 35  1  0
 18 36  1  0
 19 37  1  0
 20 38  1  0
 22 39  1  0
 23 40  1  0
 23 41  1  0
 23 42  1  0
 24 43  1  0
 24 44  1  0
 24 45  1  0
M  ISO  8  25   5  26  13  27  13  28  13  29  13  30  13  31  13  32  14
M  ISO  8  33  14  34  14  35  14  36  14  37  14  38  14  39   8  40   8
M  ISO  5  41   8  42   8  43   8  44   8  45   8
M  END
>  <minimizedAffinity>  (1) 
-4.84567785

>  <minimizedRMSD>  (1) 
4.20456791

$$$$
