
     RDKit          3D

 44 47  0  0  1  0  0  0  0  0999 V2000
   44.8210   26.1980   35.7740 N   0  0  0  0  0  0  0  0  0  0  0  0
   46.1870   26.4840   36.2280 C   0  0  0  0  0  0  0  0  0  0  0  0
   46.4340   25.6020   37.4240 C   0  0  0  0  0  0  0  0  0  0  0  0
   45.1520   24.7940   37.5570 C   0  0  0  0  0  0  0  0  0  0  0  0
   44.6720   24.8040   36.1370 C   0  0  1  0  0  0  0  0  0  0  0  0
   41.2820   24.0970   35.2040 C   0  0  0  0  0  0  0  0  0  0  0  0
   41.4400   23.1530   36.2320 C   0  0  0  0  0  0  0  0  0  0  0  0
   42.7450   23.3520   36.6650 C   0  0  0  0  0  0  0  0  0  0  0  0
   43.3370   24.3390   35.9570 N   0  0  0  0  0  0  0  0  0  0  0  0
   42.4320   24.7690   35.0840 N   0  0  0  0  0  0  0  0  0  0  0  0
   38.8570   23.7860   34.8970 C   0  0  0  0  0  0  0  0  0  0  0  0
   40.0710   24.2750   34.4380 C   0  0  0  0  0  0  0  0  0  0  0  0
   40.1230   24.9400   33.2320 C   0  0  0  0  0  0  0  0  0  0  0  0
   38.9510   25.0850   32.5430 N   0  0  0  0  0  0  0  0  0  0  0  0
   37.7730   24.5960   33.0170 C   0  0  0  0  0  0  0  0  0  0  0  0
   37.7370   23.9550   34.1820 N   0  0  0  0  0  0  0  0  0  0  0  0
   36.6600   24.8420   32.1620 N   0  0  0  0  0  0  0  0  0  0  0  0
   35.7540   24.1100   31.4880 C   0  0  0  0  0  0  0  0  0  0  0  0
   34.9140   24.9310   30.8290 N   0  0  0  0  0  0  0  0  0  0  0  0
   35.3290   26.1840   31.1170 C   0  0  0  0  0  0  0  0  0  0  0  0
   36.4120   26.1420   31.9440 N   0  0  0  0  0  0  0  0  0  0  0  0
   45.5790   23.9150   35.3160 C   0  0  0  0  0  0  0  0  0  0  0  0
   45.1420   23.8420   33.8630 C   0  0  0  0  0  0  0  0  0  0  0  0
   45.5130   22.5160   35.8520 C   0  0  0  0  0  0  0  0  0  0  0  0
   44.7283   26.3324   34.7570 H   0  0  0  0  0  0  0  0  0  0  0  0
   46.9086   26.2535   35.4304 H   0  0  0  0  0  0  0  0  0  0  0  0
   46.3060   27.5466   36.4862 H   0  0  0  0  0  0  0  0  0  0  0  0
   47.2963   24.9413   37.2511 H   0  0  0  0  0  0  0  0  0  0  0  0
   46.6683   26.1765   38.3323 H   0  0  0  0  0  0  0  0  0  0  0  0
   45.3515   23.7717   37.9107 H   0  0  0  0  0  0  0  0  0  0  0  0
   44.4323   25.1943   38.2862 H   0  0  0  0  0  0  0  0  0  0  0  0
   40.7035   22.4267   36.6063 H   0  0  0  0  0  0  0  0  0  0  0  0
   43.2296   22.7843   37.4730 H   0  0  0  0  0  0  0  0  0  0  0  0
   38.8135   23.2536   35.8586 H   0  0  0  0  0  0  0  0  0  0  0  0
   41.0701   25.3384   32.8392 H   0  0  0  0  0  0  0  0  0  0  0  0
   35.7068   23.0111   31.4770 H   0  0  0  0  0  0  0  0  0  0  0  0
   34.8608   27.1048   30.7389 H   0  0  0  0  0  0  0  0  0  0  0  0
   46.5909   24.3421   35.3771 H   0  0  0  0  0  0  0  0  0  0  0  0
   44.0581   23.6609   33.8148 H   0  0  0  0  0  0  0  0  0  0  0  0
   45.3778   24.7920   33.3610 H   0  0  0  0  0  0  0  0  0  0  0  0
   45.6737   23.0202   33.3610 H   0  0  0  0  0  0  0  0  0  0  0  0
   45.5143   22.5442   36.9516 H   0  0  0  0  0  0  0  0  0  0  0  0
   44.5910   22.0311   35.4988 H   0  0  0  0  0  0  0  0  0  0  0  0
   46.3853   21.9465   35.4988 H   0  0  0  0  0  0  0  0  0  0  0  0
  1  5  1  0
  1  2  1  0
  2  3  1  0
  3  4  1  0
  5 22  1  6
  5  4  1  0
  6  7  1  0
  7  8  2  0
  9  5  1  0
  9  8  1  0
 10  6  2  0
 10  9  1  0
 12 11  2  0
 12  6  1  0
 13 12  1  0
 14 15  1  0
 14 13  2  0
 15 16  2  0
 16 11  1  0
 17 15  1  0
 18 17  1  0
 19 20  1  0
 19 18  2  0
 20 21  2  0
 21 17  1  0
 22 24  1  0
 23 22  1  0
  1 25  1  0
  2 26  1  0
  2 27  1  0
  3 28  1  0
  3 29  1  0
  4 30  1  0
  4 31  1  0
  7 32  1  0
  8 33  1  0
 11 34  1  0
 13 35  1  0
 18 36  1  0
 20 37  1  0
 22 38  1  0
 23 39  1  0
 23 40  1  0
 23 41  1  0
 24 42  1  0
 24 43  1  0
 24 44  1  0
M  ISO  8  25   5  26  13  27  13  28  13  29  13  30  13  31  13  32  14
M  ISO  8  33  14  34  14  35  14  36  14  37  14  38   8  39   8  40   8
M  ISO  4  41   8  42   8  43   8  44   8
M  END
>  <minimizedAffinity>  (1) 
-4.8384428

>  <minimizedRMSD>  (1) 
4.27714443

$$$$
