
     RDKit          3D

 49 52  0  0  1  0  0  0  0  0999 V2000
   40.6380   23.8200   33.4720 C   0  0  0  0  0  0  0  0  0  0  0  0
   41.2410   22.9110   32.5990 C   0  0  0  0  0  0  0  0  0  0  0  0
   41.9440   22.0510   33.4440 C   0  0  0  0  0  0  0  0  0  0  0  0
   41.7780   22.4110   34.7280 N   0  0  0  0  0  0  0  0  0  0  0  0
   40.9900   23.4740   34.7130 N   0  0  0  0  0  0  0  0  0  0  0  0
   38.8320   24.7600   32.0700 C   0  0  0  0  0  0  0  0  0  0  0  0
   39.7930   24.9190   33.0710 C   0  0  0  0  0  0  0  0  0  0  0  0
   39.9380   26.1420   33.6850 C   0  0  0  0  0  0  0  0  0  0  0  0
   39.1160   27.1600   33.2740 N   0  0  0  0  0  0  0  0  0  0  0  0
   38.1890   26.9770   32.2970 C   0  0  0  0  0  0  0  0  0  0  0  0
   38.0610   25.7830   31.7110 N   0  0  0  0  0  0  0  0  0  0  0  0
   37.3350   28.0270   31.8680 N   0  0  0  0  0  0  0  0  0  0  0  0
   37.4860   28.5090   30.6130 C   0  0  0  0  0  0  0  0  0  0  0  0
   36.6130   29.5390   30.2610 C   0  0  0  0  0  0  0  0  0  0  0  0
   35.6650   30.0270   31.1360 C   0  0  0  0  0  0  0  0  0  0  0  0
   34.7620   31.0790   30.7990 N   0  0  0  0  0  0  0  0  0  0  0  0
   35.5830   29.4850   32.3760 N   0  0  0  0  0  0  0  0  0  0  0  0
   36.4210   28.4810   32.7450 C   0  0  0  0  0  0  0  0  0  0  0  0
   36.3000   28.0150   33.9080 O   0  0  0  0  0  0  0  0  0  0  0  0
   41.4050   21.5880   36.9470 N   0  0  0  0  0  0  0  0  0  0  0  0
   42.1470   20.7090   37.8640 C   0  0  0  0  0  0  0  0  0  0  0  0
   43.0610   19.8560   37.0120 C   0  0  0  0  0  0  0  0  0  0  0  0
   42.7740   20.3310   35.5950 C   0  0  0  0  0  0  0  0  0  0  0  0
   42.3530   21.7540   35.8630 C   0  0  1  0  0  0  0  0  0  0  0  0
   43.5500   22.5480   36.3090 C   0  0  0  0  0  0  0  0  0  0  0  0
   43.2170   24.0120   36.5120 C   0  0  0  0  0  0  0  0  0  0  0  0
   44.5930   22.4990   35.2050 C   0  0  0  0  0  0  0  0  0  0  0  0
   41.1767   22.8803   31.5013 H   0  0  0  0  0  0  0  0  0  0  0  0
   42.5497   21.1973   33.1060 H   0  0  0  0  0  0  0  0  0  0  0  0
   38.7121   23.7844   31.5762 H   0  0  0  0  0  0  0  0  0  0  0  0
   40.6859   26.2974   34.4765 H   0  0  0  0  0  0  0  0  0  0  0  0
   38.2437   28.1165   29.9189 H   0  0  0  0  0  0  0  0  0  0  0  0
   36.6830   29.9756   29.2538 H   0  0  0  0  0  0  0  0  0  0  0  0
   34.0722   31.4068   31.4901 H   0  0  0  0  0  0  0  0  0  0  0  0
   34.7999   31.5107   29.8646 H   0  0  0  0  0  0  0  0  0  0  0  0
   40.5362   21.1414   36.6203 H   0  0  0  0  0  0  0  0  0  0  0  0
   42.7396   21.3111   38.5685 H   0  0  0  0  0  0  0  0  0  0  0  0
   41.4595   20.0832   38.4520 H   0  0  0  0  0  0  0  0  0  0  0  0
   44.1153   20.0243   37.2768 H   0  0  0  0  0  0  0  0  0  0  0  0
   42.8874   18.7780   37.1453 H   0  0  0  0  0  0  0  0  0  0  0  0
   41.9658   19.7494   35.1275 H   0  0  0  0  0  0  0  0  0  0  0  0
   43.6172   20.2259   34.8964 H   0  0  0  0  0  0  0  0  0  0  0  0
   43.9012   22.1148   37.2572 H   0  0  0  0  0  0  0  0  0  0  0  0
   43.1672   24.2308   37.5889 H   0  0  0  0  0  0  0  0  0  0  0  0
   43.9968   24.6333   36.0473 H   0  0  0  0  0  0  0  0  0  0  0  0
   42.2452   24.2349   36.0473 H   0  0  0  0  0  0  0  0  0  0  0  0
   45.5973   22.4518   35.6512 H   0  0  0  0  0  0  0  0  0  0  0  0
   44.4262   21.6077   34.5823 H   0  0  0  0  0  0  0  0  0  0  0  0
   44.5105   23.4020   34.5823 H   0  0  0  0  0  0  0  0  0  0  0  0
  1  5  2  0
  2  3  2  0
  2  1  1  0
  3  4  1  0
  4 24  1  0
  5  4  1  0
  6  7  2  0
  7  1  1  0
  7  8  1  0
  9  8  2  0
 10  9  1  0
 11  6  1  0
 11 10  2  0
 12 10  1  0
 12 18  1  0
 13 12  1  0
 14 13  2  0
 14 15  1  0
 15 17  2  0
 16 15  1  0
 17 18  1  0
 18 19  2  0
 20 21  1  0
 22 21  1  0
 23 24  1  0
 23 22  1  0
 24 25  1  1
 24 20  1  0
 25 26  1  0
 27 25  1  0
  2 28  1  0
  3 29  1  0
  6 30  1  0
  8 31  1  0
 13 32  1  0
 14 33  1  0
 16 34  1  0
 16 35  1  0
 20 36  1  0
 21 37  1  0
 21 38  1  0
 22 39  1  0
 22 40  1  0
 23 41  1  0
 23 42  1  0
 25 43  1  0
 26 44  1  0
 26 45  1  0
 26 46  1  0
 27 47  1  0
 27 48  1  0
 27 49  1  0
M  ISO  8  28  14  29  14  30  14  31  14  32  14  33  14  36   5  37  13
M  ISO  8  38  13  39  13  40  13  41  13  42  13  43   8  44   8  45   8
M  ISO  4  46   8  47   8  48   8  49   8
M  END
>  <minimizedAffinity>  (1) 
-4.81735373

>  <minimizedRMSD>  (1) 
4.03053856

$$$$
