
     RDKit          3D

 45 48  0  0  1  0  0  0  0  0999 V2000
   42.2370   20.6340   37.3320 N   0  0  0  0  0  0  0  0  0  0  0  0
   43.3450   19.7030   37.0750 C   0  0  0  0  0  0  0  0  0  0  0  0
   43.4480   19.5630   35.5800 C   0  0  0  0  0  0  0  0  0  0  0  0
   42.3800   20.5120   35.0540 C   0  0  0  0  0  0  0  0  0  0  0  0
   42.3040   21.4980   36.1780 C   0  0  1  0  0  0  0  0  0  0  0  0
   39.7760   23.9440   35.4480 C   0  0  0  0  0  0  0  0  0  0  0  0
   39.2940   23.4840   36.6730 C   0  0  0  0  0  0  0  0  0  0  0  0
   40.2270   22.5100   37.0470 C   0  0  0  0  0  0  0  0  0  0  0  0
   41.1970   22.3990   36.1090 N   0  0  0  0  0  0  0  0  0  0  0  0
   40.9050   23.2700   35.1590 N   0  0  0  0  0  0  0  0  0  0  0  0
   39.7210   26.2410   34.5360 C   0  0  0  0  0  0  0  0  0  0  0  0
   39.1520   24.9730   34.6410 C   0  0  0  0  0  0  0  0  0  0  0  0
   37.9760   24.6790   33.9690 C   0  0  0  0  0  0  0  0  0  0  0  0
   37.4280   25.6830   33.2230 N   0  0  0  0  0  0  0  0  0  0  0  0
   38.0010   26.9110   33.1360 C   0  0  0  0  0  0  0  0  0  0  0  0
   39.1210   27.1720   33.7820 N   0  0  0  0  0  0  0  0  0  0  0  0
   37.2980   27.8860   32.2960 C   0  0  0  0  0  0  0  0  0  0  0  0
   36.2210   28.6060   32.6140 C   0  0  0  0  0  0  0  0  0  0  0  0
   35.6800   29.4810   31.7070 C   0  0  0  0  0  0  0  0  0  0  0  0
   36.3530   29.5400   30.4500 C   0  0  0  0  0  0  0  0  0  0  0  0
   37.7400   28.3050   30.6800 S   0  0  0  0  0  0  0  0  0  0  0  0
   43.5800   22.3300   36.1910 C   0  0  0  0  0  0  0  0  0  0  0  0
   43.3990   23.6340   36.9130 C   0  0  0  0  0  0  0  0  0  0  0  0
   43.9190   22.6860   34.7540 C   0  0  0  0  0  0  0  0  0  0  0  0
   41.3347   20.1395   37.3784 H   0  0  0  0  0  0  0  0  0  0  0  0
   44.2829   20.1064   37.4843 H   0  0  0  0  0  0  0  0  0  0  0  0
   43.1654   18.7292   37.5541 H   0  0  0  0  0  0  0  0  0  0  0  0
   44.4460   19.8607   35.2260 H   0  0  0  0  0  0  0  0  0  0  0  0
   43.3039   18.5275   35.2380 H   0  0  0  0  0  0  0  0  0  0  0  0
   42.6918   20.9920   34.1146 H   0  0  0  0  0  0  0  0  0  0  0  0
   41.4233   20.0291   34.8059 H   0  0  0  0  0  0  0  0  0  0  0  0
   38.3945   23.8093   37.2162 H   0  0  0  0  0  0  0  0  0  0  0  0
   40.1789   21.9180   37.9728 H   0  0  0  0  0  0  0  0  0  0  0  0
   40.6549   26.4755   35.0678 H   0  0  0  0  0  0  0  0  0  0  0  0
   37.5072   23.6860   34.0334 H   0  0  0  0  0  0  0  0  0  0  0  0
   35.7644   28.4974   33.6089 H   0  0  0  0  0  0  0  0  0  0  0  0
   34.7933   30.0919   31.9317 H   0  0  0  0  0  0  0  0  0  0  0  0
   36.1165   30.1553   29.5694 H   0  0  0  0  0  0  0  0  0  0  0  0
   44.3599   21.7393   36.6938 H   0  0  0  0  0  0  0  0  0  0  0  0
   43.4234   23.4585   37.9986 H   0  0  0  0  0  0  0  0  0  0  0  0
   44.2101   24.3229   36.6347 H   0  0  0  0  0  0  0  0  0  0  0  0
   42.4309   24.0759   36.6347 H   0  0  0  0  0  0  0  0  0  0  0  0
   44.6775   23.4826   34.7428 H   0  0  0  0  0  0  0  0  0  0  0  0
   44.3129   21.7973   34.2392 H   0  0  0  0  0  0  0  0  0  0  0  0
   43.0121   23.0360   34.2392 H   0  0  0  0  0  0  0  0  0  0  0  0
  2  1  1  0
  3  2  1  0
  4  3  1  0
  4  5  1  0
  5 22  1  1
  5  1  1  0
  6  7  1  0
  7  8  2  0
  9  5  1  0
  9  8  1  0
 10  6  2  0
 10  9  1  0
 11 12  2  0
 12  6  1  0
 13 12  1  0
 14 13  2  0
 15 14  1  0
 15 16  2  0
 16 11  1  0
 17 18  2  0
 17 15  1  0
 19 18  1  0
 20 21  1  0
 20 19  2  0
 21 17  1  0
 22 23  1  0
 24 22  1  0
  1 25  1  0
  2 26  1  0
  2 27  1  0
  3 28  1  0
  3 29  1  0
  4 30  1  0
  4 31  1  0
  7 32  1  0
  8 33  1  0
 11 34  1  0
 13 35  1  0
 18 36  1  0
 19 37  1  0
 20 38  1  0
 22 39  1  0
 23 40  1  0
 23 41  1  0
 23 42  1  0
 24 43  1  0
 24 44  1  0
 24 45  1  0
M  ISO  8  25   5  26  13  27  13  28  13  29  13  30  13  31  13  32  14
M  ISO  8  33  14  34  14  35  14  36  14  37  14  38  14  39   8  40   8
M  ISO  5  41   8  42   8  43   8  44   8  45   8
M  END
>  <minimizedAffinity>  (1) 
-4.67627573

>  <minimizedRMSD>  (1) 
4.32981777

$$$$
