
     RDKit          3D

 44 47  0  0  1  0  0  0  0  0999 V2000
   43.3210   23.6970   36.0410 N   0  0  0  0  0  0  0  0  0  0  0  0
   44.5020   22.8270   35.9790 C   0  0  0  0  0  0  0  0  0  0  0  0
   44.0070   21.4210   36.2700 C   0  0  0  0  0  0  0  0  0  0  0  0
   42.5150   21.6150   36.4700 C   0  0  0  0  0  0  0  0  0  0  0  0
   42.2650   22.8150   35.6150 C   0  0  1  0  0  0  0  0  0  0  0  0
   39.2310   24.7440   35.6130 C   0  0  0  0  0  0  0  0  0  0  0  0
   38.8560   23.7220   36.5020 C   0  0  0  0  0  0  0  0  0  0  0  0
   39.9900   22.9130   36.5650 C   0  0  0  0  0  0  0  0  0  0  0  0
   40.9710   23.4080   35.7760 N   0  0  0  0  0  0  0  0  0  0  0  0
   40.4880   24.4990   35.2220 N   0  0  0  0  0  0  0  0  0  0  0  0
   38.3650   27.0210   35.9550 C   0  0  0  0  0  0  0  0  0  0  0  0
   38.3840   25.8430   35.2160 C   0  0  0  0  0  0  0  0  0  0  0  0
   37.5970   25.7120   34.0960 C   0  0  0  0  0  0  0  0  0  0  0  0
   36.8080   26.7730   33.7490 N   0  0  0  0  0  0  0  0  0  0  0  0
   36.8030   27.9280   34.4930 C   0  0  0  0  0  0  0  0  0  0  0  0
   37.5770   28.0300   35.5750 N   0  0  0  0  0  0  0  0  0  0  0  0
   35.9030   28.9980   34.0050 C   0  0  0  0  0  0  0  0  0  0  0  0
   35.6170   30.2120   34.7660 C   0  0  0  0  0  0  0  0  0  0  0  0
   34.4500   31.0090   33.5140 S   0  0  0  0  0  0  0  0  0  0  0  0
   34.6060   29.5700   32.2810 C   0  0  0  0  0  0  0  0  0  0  0  0
   35.3740   28.7610   32.8060 N   0  0  0  0  0  0  0  0  0  0  0  0
   42.4190   22.4310   34.1610 C   0  0  0  0  0  0  0  0  0  0  0  0
   42.2990   23.6320   33.2410 C   0  0  0  0  0  0  0  0  0  0  0  0
   41.3040   21.4940   33.7940 C   0  0  0  0  0  0  0  0  0  0  0  0
   43.1586   24.0371   36.9996 H   0  0  0  0  0  0  0  0  0  0  0  0
   44.9568   22.8719   34.9784 H   0  0  0  0  0  0  0  0  0  0  0  0
   45.2693   23.1400   36.7023 H   0  0  0  0  0  0  0  0  0  0  0  0
   44.2076   20.7486   35.4228 H   0  0  0  0  0  0  0  0  0  0  0  0
   44.5027   20.9591   37.1366 H   0  0  0  0  0  0  0  0  0  0  0  0
   41.9438   20.7430   36.1188 H   0  0  0  0  0  0  0  0  0  0  0  0
   42.2107   21.7357   37.5202 H   0  0  0  0  0  0  0  0  0  0  0  0
   37.8965   23.5914   37.0238 H   0  0  0  0  0  0  0  0  0  0  0  0
   40.0750   21.9995   37.1718 H   0  0  0  0  0  0  0  0  0  0  0  0
   38.9970   27.1213   36.8497 H   0  0  0  0  0  0  0  0  0  0  0  0
   37.6022   24.7869   33.5008 H   0  0  0  0  0  0  0  0  0  0  0  0
   35.9685   30.5522   35.7513 H   0  0  0  0  0  0  0  0  0  0  0  0
   34.1130   29.4783   31.3019 H   0  0  0  0  0  0  0  0  0  0  0  0
   43.4137   21.9769   34.0411 H   0  0  0  0  0  0  0  0  0  0  0  0
   42.2075   24.5477   33.8435 H   0  0  0  0  0  0  0  0  0  0  0  0
   43.1950   23.6987   32.6063 H   0  0  0  0  0  0  0  0  0  0  0  0
   41.4076   23.5201   32.6063 H   0  0  0  0  0  0  0  0  0  0  0  0
   40.8378   21.1022   34.7101 H   0  0  0  0  0  0  0  0  0  0  0  0
   40.5510   22.0344   33.2016 H   0  0  0  0  0  0  0  0  0  0  0  0
   41.7066   20.6592   33.2016 H   0  0  0  0  0  0  0  0  0  0  0  0
  2  1  1  0
  2  3  1  0
  3  4  1  0
  5 22  1  6
  5  9  1  0
  5  1  1  0
  5  4  1  0
  6  7  1  0
  7  8  2  0
  9  8  1  0
 10  6  2  0
 10  9  1  0
 12  6  1  0
 12 11  2  0
 13 12  1  0
 14 13  2  0
 14 15  1  0
 15 16  2  0
 16 11  1  0
 17 15  1  0
 17 18  2  0
 19 18  1  0
 20 21  2  0
 20 19  1  0
 21 17  1  0
 23 22  1  0
 24 22  1  0
  1 25  1  0
  2 26  1  0
  2 27  1  0
  3 28  1  0
  3 29  1  0
  4 30  1  0
  4 31  1  0
  7 32  1  0
  8 33  1  0
 11 34  1  0
 13 35  1  0
 18 36  1  0
 20 37  1  0
 22 38  1  0
 23 39  1  0
 23 40  1  0
 23 41  1  0
 24 42  1  0
 24 43  1  0
 24 44  1  0
M  ISO  8  25   5  26  13  27  13  28  13  29  13  30  13  31  13  32  14
M  ISO  8  33  14  34  14  35  14  36  14  37  14  38   8  39   8  40   8
M  ISO  4  41   8  42   8  43   8  44   8
M  END
>  <minimizedAffinity>  (1) 
-4.47764969

>  <minimizedRMSD>  (1) 
4.30528212

$$$$
