
     RDKit          3D

 47 49  0  0  1  0  0  0  0  0999 V2000
   40.3170   23.4780   36.4560 N   0  0  0  0  0  0  0  0  0  0  0  0
   41.4300   22.6540   36.9230 C   0  0  0  0  0  0  0  0  0  0  0  0
   41.6990   21.6400   35.8220 C   0  0  0  0  0  0  0  0  0  0  0  0
   40.6920   22.0080   34.7450 C   0  0  0  0  0  0  0  0  0  0  0  0
   40.5120   23.4760   35.0300 C   0  0  1  0  0  0  0  0  0  0  0  0
   37.8830   25.5060   33.6510 C   0  0  0  0  0  0  0  0  0  0  0  0
   37.7110   24.3510   32.8760 C   0  0  0  0  0  0  0  0  0  0  0  0
   38.6940   23.4860   33.3350 C   0  0  0  0  0  0  0  0  0  0  0  0
   39.4130   24.0790   34.3240 N   0  0  0  0  0  0  0  0  0  0  0  0
   38.9030   25.2870   34.4880 N   0  0  0  0  0  0  0  0  0  0  0  0
   36.9200   27.5570   34.6370 C   0  0  0  0  0  0  0  0  0  0  0  0
   37.0850   26.7020   33.5390 C   0  0  0  0  0  0  0  0  0  0  0  0
   36.4830   26.9990   32.3350 C   0  0  0  0  0  0  0  0  0  0  0  0
   35.7340   28.1430   32.2660 N   0  0  0  0  0  0  0  0  0  0  0  0
   35.5880   28.9590   33.3520 C   0  0  0  0  0  0  0  0  0  0  0  0
   36.1740   28.6620   34.5080 N   0  0  0  0  0  0  0  0  0  0  0  0
   34.7820   30.2010   33.3000 C   0  0  0  0  0  0  0  0  0  0  0  0
   33.4350   29.9440   33.9180 C   0  0  0  0  0  0  0  0  0  0  0  0
   35.4550   31.3030   34.0960 C   0  0  0  0  0  0  0  0  0  0  0  0
   41.7720   24.2030   34.6260 C   0  0  0  0  0  0  0  0  0  0  0  0
   41.6720   25.6950   34.8950 C   0  0  0  0  0  0  0  0  0  0  0  0
   41.9760   24.0510   33.1450 C   0  0  0  0  0  0  0  0  0  0  0  0
   39.4107   23.0592   36.7093 H   0  0  0  0  0  0  0  0  0  0  0  0
   42.3204   23.2770   37.0933 H   0  0  0  0  0  0  0  0  0  0  0  0
   41.1893   22.1577   37.8747 H   0  0  0  0  0  0  0  0  0  0  0  0
   42.7284   21.7325   35.4455 H   0  0  0  0  0  0  0  0  0  0  0  0
   41.5981   20.5996   36.1646 H   0  0  0  0  0  0  0  0  0  0  0  0
   39.7498   21.4527   34.8628 H   0  0  0  0  0  0  0  0  0  0  0  0
   41.0121   21.7755   33.7186 H   0  0  0  0  0  0  0  0  0  0  0  0
   36.9675   24.1715   32.0854 H   0  0  0  0  0  0  0  0  0  0  0  0
   38.8662   22.4686   32.9539 H   0  0  0  0  0  0  0  0  0  0  0  0
   37.4000   27.3222   35.5985 H   0  0  0  0  0  0  0  0  0  0  0  0
   36.6001   26.3408   31.4615 H   0  0  0  0  0  0  0  0  0  0  0  0
   34.6821   30.5073   32.2482 H   0  0  0  0  0  0  0  0  0  0  0  0
   33.5252   29.9612   35.0142 H   0  0  0  0  0  0  0  0  0  0  0  0
   32.7290   30.7237   33.5959 H   0  0  0  0  0  0  0  0  0  0  0  0
   33.0657   28.9592   33.5959 H   0  0  0  0  0  0  0  0  0  0  0  0
   35.3340   31.1049   35.1712 H   0  0  0  0  0  0  0  0  0  0  0  0
   36.5260   31.3335   33.8470 H   0  0  0  0  0  0  0  0  0  0  0  0
   34.9930   32.2697   33.8470 H   0  0  0  0  0  0  0  0  0  0  0  0
   42.5981   23.7716   35.2104 H   0  0  0  0  0  0  0  0  0  0  0  0
   41.6601   25.8719   35.9806 H   0  0  0  0  0  0  0  0  0  0  0  0
   42.5379   26.2067   34.4496 H   0  0  0  0  0  0  0  0  0  0  0  0
   40.7456   26.0866   34.4496 H   0  0  0  0  0  0  0  0  0  0  0  0
   42.8454   23.4032   32.9592 H   0  0  0  0  0  0  0  0  0  0  0  0
   41.0793   23.5991   32.6958 H   0  0  0  0  0  0  0  0  0  0  0  0
   42.1526   25.0395   32.6958 H   0  0  0  0  0  0  0  0  0  0  0  0
  1  2  1  0
  3  2  1  0
  4  5  1  0
  4  3  1  0
  5 20  1  1
  5  1  1  0
  6 10  2  0
  7  8  2  0
  7  6  1  0
  8  9  1  0
  9 10  1  0
  9  5  1  0
 12  6  1  0
 12 11  2  0
 13 12  1  0
 14 13  2  0
 14 15  1  0
 15 16  2  0
 16 11  1  0
 17 15  1  0
 17 18  1  0
 17 19  1  0
 20 21  1  0
 22 20  1  0
  1 23  1  0
  2 24  1  0
  2 25  1  0
  3 26  1  0
  3 27  1  0
  4 28  1  0
  4 29  1  0
  7 30  1  0
  8 31  1  0
 11 32  1  0
 13 33  1  0
 17 34  1  0
 18 35  1  0
 18 36  1  0
 18 37  1  0
 19 38  1  0
 19 39  1  0
 19 40  1  0
 20 41  1  0
 21 42  1  0
 21 43  1  0
 21 44  1  0
 22 45  1  0
 22 46  1  0
 22 47  1  0
M  ISO  8  23   5  24  13  25  13  26  13  27  13  28  13  29  13  30  14
M  ISO  8  31  14  32  14  33  14  34   8  35   8  36   8  37   8  38   8
M  ISO  8  39   8  40   8  41   8  42   8  43   8  44   8  45   8  46   8
M  ISO  1  47   8
M  END
>  <minimizedAffinity>  (1) 
-4.0598259

>  <minimizedRMSD>  (1) 
3.4563787

$$$$
