
     RDKit          3D

 39 41  0  0  1  0  0  0  0  0999 V2000
   40.5900   23.3110   35.8260 N   0  0  0  0  0  0  0  0  0  0  0  0
   41.6190   23.0840   36.8370 C   0  0  0  0  0  0  0  0  0  0  0  0
   42.8850   22.7420   36.0790 C   0  0  0  0  0  0  0  0  0  0  0  0
   42.4790   22.8560   34.6320 C   0  0  0  0  0  0  0  0  0  0  0  0
   41.3570   23.8390   34.7210 C   0  0  1  0  0  0  0  0  0  0  0  0
   38.9120   24.3240   32.1250 C   0  0  0  0  0  0  0  0  0  0  0  0
   40.0040   23.9610   31.3440 C   0  0  0  0  0  0  0  0  0  0  0  0
   41.0200   23.7480   32.2810 C   0  0  0  0  0  0  0  0  0  0  0  0
   40.5730   23.9680   33.5380 N   0  0  0  0  0  0  0  0  0  0  0  0
   39.3120   24.3090   33.4040 N   0  0  0  0  0  0  0  0  0  0  0  0
   36.6490   23.6700   31.4030 C   0  0  0  0  0  0  0  0  0  0  0  0
   37.6040   24.6500   31.6220 C   0  0  0  0  0  0  0  0  0  0  0  0
   37.2960   25.9640   31.3530 C   0  0  0  0  0  0  0  0  0  0  0  0
   36.0330   26.2370   30.8720 N   0  0  0  0  0  0  0  0  0  0  0  0
   35.1160   25.2390   30.6690 C   0  0  0  0  0  0  0  0  0  0  0  0
   35.4430   23.9730   30.9390 N   0  0  0  0  0  0  0  0  0  0  0  0
   33.8600   25.5350   30.1880 O   0  0  0  0  0  0  0  0  0  0  0  0
   41.9120   25.2070   35.0560 C   0  0  0  0  0  0  0  0  0  0  0  0
   40.8750   26.2950   34.9130 C   0  0  0  0  0  0  0  0  0  0  0  0
   43.0140   25.5190   34.0730 C   0  0  0  0  0  0  0  0  0  0  0  0
   40.1201   22.4316   35.5677 H   0  0  0  0  0  0  0  0  0  0  0  0
   41.7686   23.9918   37.4399 H   0  0  0  0  0  0  0  0  0  0  0  0
   41.3332   22.2762   37.5268 H   0  0  0  0  0  0  0  0  0  0  0  0
   43.6891   23.4536   36.3177 H   0  0  0  0  0  0  0  0  0  0  0  0
   43.2778   21.7466   36.3337 H   0  0  0  0  0  0  0  0  0  0  0  0
   42.1375   21.8899   34.2320 H   0  0  0  0  0  0  0  0  0  0  0  0
   43.2930   23.1604   33.9577 H   0  0  0  0  0  0  0  0  0  0  0  0
   40.0561   23.8644   30.2495 H   0  0  0  0  0  0  0  0  0  0  0  0
   42.0462   23.4422   32.0290 H   0  0  0  0  0  0  0  0  0  0  0  0
   36.8954   22.6198   31.6181 H   0  0  0  0  0  0  0  0  0  0  0  0
   38.0302   26.7668   31.5157 H   0  0  0  0  0  0  0  0  0  0  0  0
   33.2018   24.8098   30.0434 H   0  0  0  0  0  0  0  0  0  0  0  0
   42.2606   25.1815   36.0990 H   0  0  0  0  0  0  0  0  0  0  0  0
   40.5554   26.6303   35.9107 H   0  0  0  0  0  0  0  0  0  0  0  0
   41.3072   27.1433   34.3621 H   0  0  0  0  0  0  0  0  0  0  0  0
   40.0069   25.9040   34.3621 H   0  0  0  0  0  0  0  0  0  0  0  0
   43.9316   25.7788   34.6212 H   0  0  0  0  0  0  0  0  0  0  0  0
   43.2014   24.6386   33.4407 H   0  0  0  0  0  0  0  0  0  0  0  0
   42.7121   26.3670   33.4407 H   0  0  0  0  0  0  0  0  0  0  0  0
  1  2  1  0
  3  2  1  0
  4  5  1  0
  4  3  1  0
  5 18  1  1
  5  1  1  0
  6 10  2  0
  7  6  1  0
  7  8  2  0
  8  9  1  0
  9  5  1  0
 10  9  1  0
 11 12  2  0
 12  6  1  0
 13 12  1  0
 14 13  2  0
 15 14  1  0
 15 16  2  0
 16 11  1  0
 17 15  1  0
 19 18  1  0
 20 18  1  0
  1 21  1  0
  2 22  1  0
  2 23  1  0
  3 24  1  0
  3 25  1  0
  4 26  1  0
  4 27  1  0
  7 28  1  0
  8 29  1  0
 11 30  1  0
 13 31  1  0
 17 32  1  0
 18 33  1  0
 19 34  1  0
 19 35  1  0
 19 36  1  0
 20 37  1  0
 20 38  1  0
 20 39  1  0
M  ISO  8  21   5  22  13  23  13  24  13  25  13  26  13  27  13  28  14
M  ISO  8  29  14  30  14  31  14  32   3  33   8  34   8  35   8  36   8
M  ISO  3  37   8  38   8  39   8
M  END
>  <minimizedAffinity>  (1) 
-3.55317473

>  <minimizedRMSD>  (1) 
0.30101943

$$$$
