
     RDKit          3D

 40 42  0  0  1  0  0  0  0  0999 V2000
   40.7710   23.3150   35.8020 N   0  0  0  0  0  0  0  0  0  0  0  0
   41.8210   23.1150   36.8080 C   0  0  0  0  0  0  0  0  0  0  0  0
   43.0950   22.8240   36.0360 C   0  0  0  0  0  0  0  0  0  0  0  0
   42.6570   22.9120   34.5870 C   0  0  0  0  0  0  0  0  0  0  0  0
   41.4960   23.8580   34.6880 C   0  0  1  0  0  0  0  0  0  0  0  0
   39.0240   24.2800   32.1170 C   0  0  0  0  0  0  0  0  0  0  0  0
   40.1030   23.9150   31.3280 C   0  0  0  0  0  0  0  0  0  0  0  0
   41.1360   23.7250   32.2500 C   0  0  0  0  0  0  0  0  0  0  0  0
   40.7000   23.9600   33.5040 N   0  0  0  0  0  0  0  0  0  0  0  0
   39.4260   24.2930   33.3990 N   0  0  0  0  0  0  0  0  0  0  0  0
   36.7490   23.5750   31.4390 C   0  0  0  0  0  0  0  0  0  0  0  0
   37.6990   24.5910   31.6360 C   0  0  0  0  0  0  0  0  0  0  0  0
   37.3690   25.9140   31.3660 C   0  0  0  0  0  0  0  0  0  0  0  0
   36.0880   26.1450   30.9080 N   0  0  0  0  0  0  0  0  0  0  0  0
   35.1940   25.1430   30.7280 C   0  0  0  0  0  0  0  0  0  0  0  0
   35.5310   23.8930   30.9920 N   0  0  0  0  0  0  0  0  0  0  0  0
   33.9050   25.5310   30.2490 N   0  0  0  0  0  0  0  0  0  0  0  0
   42.0310   25.2420   35.0140 C   0  0  0  0  0  0  0  0  0  0  0  0
   40.9500   26.2990   34.8960 C   0  0  0  0  0  0  0  0  0  0  0  0
   43.0900   25.5960   34.0050 C   0  0  0  0  0  0  0  0  0  0  0  0
   40.3216   22.4224   35.5525 H   0  0  0  0  0  0  0  0  0  0  0  0
   41.9431   24.0224   37.4177 H   0  0  0  0  0  0  0  0  0  0  0  0
   41.5695   22.2916   37.4926 H   0  0  0  0  0  0  0  0  0  0  0  0
   43.8698   23.5724   36.2590 H   0  0  0  0  0  0  0  0  0  0  0  0
   43.5387   21.8505   36.2917 H   0  0  0  0  0  0  0  0  0  0  0  0
   42.3445   21.9307   34.2004 H   0  0  0  0  0  0  0  0  0  0  0  0
   43.4475   23.2409   33.8965 H   0  0  0  0  0  0  0  0  0  0  0  0
   40.1382   23.8016   30.2344 H   0  0  0  0  0  0  0  0  0  0  0  0
   42.1617   23.4255   31.9890 H   0  0  0  0  0  0  0  0  0  0  0  0
   37.0059   22.5266   31.6510 H   0  0  0  0  0  0  0  0  0  0  0  0
   38.0899   26.7324   31.5096 H   0  0  0  0  0  0  0  0  0  0  0  0
   33.1785   24.8183   30.0906 H   0  0  0  0  0  0  0  0  0  0  0  0
   33.7023   26.5234   30.0621 H   0  0  0  0  0  0  0  0  0  0  0  0
   42.4174   25.2193   36.0437 H   0  0  0  0  0  0  0  0  0  0  0  0
   40.6309   26.6110   35.9014 H   0  0  0  0  0  0  0  0  0  0  0  0
   41.3454   27.1685   34.3505 H   0  0  0  0  0  0  0  0  0  0  0  0
   40.0896   25.8842   34.3505 H   0  0  0  0  0  0  0  0  0  0  0  0
   44.0075   25.9027   34.5286 H   0  0  0  0  0  0  0  0  0  0  0  0
   43.3030   24.7202   33.3744 H   0  0  0  0  0  0  0  0  0  0  0  0
   42.7335   26.4238   33.3744 H   0  0  0  0  0  0  0  0  0  0  0  0
  1  2  1  0
  3  2  1  0
  4  5  1  0
  4  3  1  0
  5 18  1  1
  5  1  1  0
  6 10  2  0
  7  6  1  0
  7  8  2  0
  8  9  1  0
  9  5  1  0
 10  9  1  0
 11 12  2  0
 12  6  1  0
 13 12  1  0
 14 13  2  0
 15 14  1  0
 15 16  2  0
 16 11  1  0
 17 15  1  0
 19 18  1  0
 20 18  1  0
  1 21  1  0
  2 22  1  0
  2 23  1  0
  3 24  1  0
  3 25  1  0
  4 26  1  0
  4 27  1  0
  7 28  1  0
  8 29  1  0
 11 30  1  0
 13 31  1  0
 17 32  1  0
 17 33  1  0
 18 34  1  0
 19 35  1  0
 19 36  1  0
 19 37  1  0
 20 38  1  0
 20 39  1  0
 20 40  1  0
M  ISO  8  21   5  22  13  23  13  24  13  25  13  26  13  27  13  28  14
M  ISO  8  29  14  30  14  31  14  34   8  35   8  36   8  37   8  38   8
M  ISO  2  39   8  40   8
M  END
>  <minimizedAffinity>  (1) 
-3.43559766

>  <minimizedRMSD>  (1) 
0.375272155

$$$$
