
     RDKit          3D

 41 43  0  0  1  0  0  0  0  0999 V2000
   41.6240   23.3010   35.8870 N   0  0  0  0  0  0  0  0  0  0  0  0
   42.8100   23.2580   36.7530 C   0  0  0  0  0  0  0  0  0  0  0  0
   43.9860   22.8960   35.8730 C   0  0  0  0  0  0  0  0  0  0  0  0
   43.3750   22.8110   34.4890 C   0  0  0  0  0  0  0  0  0  0  0  0
   42.1970   23.7280   34.6260 C   0  0  1  0  0  0  0  0  0  0  0  0
   39.4550   23.8860   32.3230 C   0  0  0  0  0  0  0  0  0  0  0  0
   40.3770   23.1830   31.5320 C   0  0  0  0  0  0  0  0  0  0  0  0
   41.4960   23.0690   32.3530 C   0  0  0  0  0  0  0  0  0  0  0  0
   41.2680   23.6580   33.5480 N   0  0  0  0  0  0  0  0  0  0  0  0
   40.0320   24.1410   33.5040 N   0  0  0  0  0  0  0  0  0  0  0  0
   37.0840   23.3260   31.9650 C   0  0  0  0  0  0  0  0  0  0  0  0
   38.1280   24.2490   31.9010 C   0  0  0  0  0  0  0  0  0  0  0  0
   37.9020   25.5330   31.4300 C   0  0  0  0  0  0  0  0  0  0  0  0
   36.6140   25.8240   31.0400 N   0  0  0  0  0  0  0  0  0  0  0  0
   35.6070   24.9050   31.1120 C   0  0  0  0  0  0  0  0  0  0  0  0
   35.8560   23.6770   31.5700 N   0  0  0  0  0  0  0  0  0  0  0  0
   34.2500   25.3530   30.6550 C   0  0  0  0  0  0  0  0  0  0  0  0
   42.7070   25.1590   34.7150 C   0  0  0  0  0  0  0  0  0  0  0  0
   41.5720   26.1540   34.7700 C   0  0  0  0  0  0  0  0  0  0  0  0
   43.4880   25.4610   33.4550 C   0  0  0  0  0  0  0  0  0  0  0  0
   41.1851   22.3728   35.8049 H   0  0  0  0  0  0  0  0  0  0  0  0
   42.9744   24.2413   37.2179 H   0  0  0  0  0  0  0  0  0  0  0  0
   42.6812   22.5212   37.5595 H   0  0  0  0  0  0  0  0  0  0  0  0
   44.7624   23.6742   35.9135 H   0  0  0  0  0  0  0  0  0  0  0  0
   44.4827   21.9643   36.1814 H   0  0  0  0  0  0  0  0  0  0  0  0
   43.0596   21.7843   34.2513 H   0  0  0  0  0  0  0  0  0  0  0  0
   44.0644   23.0845   33.6766 H   0  0  0  0  0  0  0  0  0  0  0  0
   40.2464   22.8100   30.5054 H   0  0  0  0  0  0  0  0  0  0  0  0
   42.4340   22.5696   32.0688 H   0  0  0  0  0  0  0  0  0  0  0  0
   37.2712   22.3092   32.3405 H   0  0  0  0  0  0  0  0  0  0  0  0
   38.7081   26.2791   31.3710 H   0  0  0  0  0  0  0  0  0  0  0  0
   33.6184   25.5615   31.5311 H   0  0  0  0  0  0  0  0  0  0  0  0
   34.3499   26.2658   30.0494 H   0  0  0  0  0  0  0  0  0  0  0  0
   33.7868   24.5601   30.0494 H   0  0  0  0  0  0  0  0  0  0  0  0
   43.3155   25.2464   35.6272 H   0  0  0  0  0  0  0  0  0  0  0  0
   41.3249   26.3707   35.8198 H   0  0  0  0  0  0  0  0  0  0  0  0
   41.8743   27.0834   34.2652 H   0  0  0  0  0  0  0  0  0  0  0  0
   40.6902   25.7326   34.2652 H   0  0  0  0  0  0  0  0  0  0  0  0
   44.4829   25.8457   33.7236 H   0  0  0  0  0  0  0  0  0  0  0  0
   43.5984   24.5407   32.8626 H   0  0  0  0  0  0  0  0  0  0  0  0
   42.9506   26.2161   32.8626 H   0  0  0  0  0  0  0  0  0  0  0  0
  1  2  1  0
  3  2  1  0
  4  5  1  0
  4  3  1  0
  5 18  1  1
  5  1  1  0
  6 10  2  0
  7  6  1  0
  7  8  2  0
  8  9  1  0
  9  5  1  0
 10  9  1  0
 12 11  2  0
 12  6  1  0
 13 12  1  0
 14 15  1  0
 14 13  2  0
 15 16  2  0
 16 11  1  0
 17 15  1  0
 18 19  1  0
 20 18  1  0
  1 21  1  0
  2 22  1  0
  2 23  1  0
  3 24  1  0
  3 25  1  0
  4 26  1  0
  4 27  1  0
  7 28  1  0
  8 29  1  0
 11 30  1  0
 13 31  1  0
 17 32  1  0
 17 33  1  0
 17 34  1  0
 18 35  1  0
 19 36  1  0
 19 37  1  0
 19 38  1  0
 20 39  1  0
 20 40  1  0
 20 41  1  0
M  ISO  8  21   5  22  13  23  13  24  13  25  13  26  13  27  13  28  14
M  ISO  8  29  14  30  14  31  14  32   8  33   8  34   8  35   8  36   8
M  ISO  5  37   8  38   8  39   8  40   8  41   8
M  END
>  <minimizedAffinity>  (1) 
-3.27252293

>  <minimizedRMSD>  (1) 
1.00347018

$$$$
