
     RDKit          3D

 33 36  0  0  0  0  0  0  0  0999 V2000
   39.0110   23.2220   34.4340 C   0  0  0  0  0  0  0  0  0  0  0  0
   40.1730   22.6030   33.9960 C   0  0  0  0  0  0  0  0  0  0  0  0
   41.1380   22.1140   34.8510 C   0  0  0  0  0  0  0  0  0  0  0  0
   40.9850   22.2240   36.2070 C   0  0  0  0  0  0  0  0  0  0  0  0
   39.8650   22.8220   36.6860 C   0  0  0  0  0  0  0  0  0  0  0  0
   39.7160   22.9310   38.0520 C   0  0  0  0  0  0  0  0  0  0  0  0
   38.6180   23.5190   38.6150 C   0  0  0  0  0  0  0  0  0  0  0  0
   37.6470   24.0090   37.7440 C   0  0  0  0  0  0  0  0  0  0  0  0
   37.8280   23.8850   36.3890 C   0  0  0  0  0  0  0  0  0  0  0  0
   38.9100   23.3050   35.8070 C   0  0  0  0  0  0  0  0  0  0  0  0
   36.3760   22.9700   32.0030 C   0  0  0  0  0  0  0  0  0  0  0  0
   36.0170   24.2610   31.6350 C   0  0  0  0  0  0  0  0  0  0  0  0
   36.7260   25.2570   32.2630 C   0  0  0  0  0  0  0  0  0  0  0  0
   37.6650   24.9230   33.1410 N   0  0  0  0  0  0  0  0  0  0  0  0
   38.0240   23.7200   33.5070 C   0  0  0  0  0  0  0  0  0  0  0  0
   37.3400   22.7620   32.9010 N   0  0  0  0  0  0  0  0  0  0  0  0
   36.4790   26.6360   31.9960 N   0  0  0  0  0  0  0  0  0  0  0  0
   36.4660   27.2190   30.7740 C   0  0  0  0  0  0  0  0  0  0  0  0
   36.2040   28.5110   30.8770 N   0  0  0  0  0  0  0  0  0  0  0  0
   36.0470   28.7680   32.1830 C   0  0  0  0  0  0  0  0  0  0  0  0
   36.2190   27.6110   32.8410 N   0  0  0  0  0  0  0  0  0  0  0  0
   35.6740   30.3960   32.8710 S   0  0  0  0  0  0  0  0  0  0  0  0
   40.3323   22.4971   32.9128 H   0  0  0  0  0  0  0  0  0  0  0  0
   42.0375   21.6319   34.4405 H   0  0  0  0  0  0  0  0  0  0  0  0
   41.7527   21.8363   36.8928 H   0  0  0  0  0  0  0  0  0  0  0  0
   40.5039   22.5331   38.7083 H   0  0  0  0  0  0  0  0  0  0  0  0
   38.5060   23.6016   39.7062 H   0  0  0  0  0  0  0  0  0  0  0  0
   36.7414   24.4920   38.1397 H   0  0  0  0  0  0  0  0  0  0  0  0
   37.0430   24.2826   35.7289 H   0  0  0  0  0  0  0  0  0  0  0  0
   35.8600   22.1110   31.5492 H   0  0  0  0  0  0  0  0  0  0  0  0
   35.2270   24.4696   30.8985 H   0  0  0  0  0  0  0  0  0  0  0  0
   36.6482   26.6908   29.8265 H   0  0  0  0  0  0  0  0  0  0  0  0
   35.6896   30.3280   34.2392 H   0  0  0  0  0  0  0  0  0  0  0  0
  1 10  1  0
  2  1  2  0
  2  3  1  0
  3  4  2  0
  4  5  1  0
  5  6  2  0
  6  7  1  0
  8  7  2  0
  9  8  1  0
 10  9  2  0
 10  5  1  0
 11 16  2  0
 12 11  1  0
 12 13  2  0
 13 14  1  0
 14 15  2  0
 15  1  1  0
 16 15  1  0
 17 13  1  0
 17 21  1  0
 18 19  2  0
 18 17  1  0
 19 20  1  0
 20 21  2  0
 20 22  1  0
  2 23  1  0
  3 24  1  0
  4 25  1  0
  6 26  1  0
  7 27  1  0
  8 28  1  0
  9 29  1  0
 11 30  1  0
 12 31  1  0
 18 32  1  0
 22 33  1  0
M  ISO  8  23  14  24  14  25  14  26  14  27  14  28  14  29  14  30  14
M  ISO  3  31  14  32  14  33  11
M  END
>  <minimizedAffinity>  (1) 
-5.73456621

>  <minimizedRMSD>  (1) 
0.279602557

$$$$
