
     RDKit          3D

 57 61  0  0  1  0  0  0  0  0999 V2000
   37.3490   24.8710   36.2170 N   0  0  0  0  0  0  0  0  0  0  0  0
   37.9840   23.9050   37.1250 C   0  0  0  0  0  0  0  0  0  0  0  0
   38.6480   22.8670   36.2620 C   0  0  0  0  0  0  0  0  0  0  0  0
   38.3790   23.3670   34.8560 C   0  0  0  0  0  0  0  0  0  0  0  0
   38.2620   24.8230   35.0750 C   0  0  1  0  0  0  0  0  0  0  0  0
   36.7910   27.1090   32.7300 C   0  0  0  0  0  0  0  0  0  0  0  0
   37.2580   26.1190   31.8400 C   0  0  0  0  0  0  0  0  0  0  0  0
   37.8500   25.1790   32.6680 C   0  0  0  0  0  0  0  0  0  0  0  0
   37.7520   25.5630   33.9660 N   0  0  0  0  0  0  0  0  0  0  0  0
   37.1070   26.7330   33.9690 N   0  0  0  0  0  0  0  0  0  0  0  0
   35.1500   28.8960   33.1500 C   0  0  0  0  0  0  0  0  0  0  0  0
   36.0970   28.3010   32.3270 C   0  0  0  0  0  0  0  0  0  0  0  0
   36.3930   28.8530   31.0890 C   0  0  0  0  0  0  0  0  0  0  0  0
   35.6950   29.9980   30.7520 N   0  0  0  0  0  0  0  0  0  0  0  0
   34.7770   30.5520   31.5780 C   0  0  0  0  0  0  0  0  0  0  0  0
   34.5160   30.0030   32.7550 N   0  0  0  0  0  0  0  0  0  0  0  0
   34.0830   31.8000   31.0950 C   0  0  0  0  0  0  0  0  0  0  0  0
   39.5920   25.4400   35.4390 C   0  0  2  0  0  0  0  0  0  0  0  0
   39.6070   26.9310   35.3220 C   0  0  0  0  0  0  0  0  0  0  0  0
   40.6390   24.8910   34.5120 C   0  0  0  0  0  0  0  0  0  0  0  0
   41.9570   24.6540   35.1290 C   0  0  0  0  0  0  0  0  0  0  0  0
   42.1120   23.5450   35.9890 C   0  0  0  0  0  0  0  0  0  0  0  0
   43.2480   23.1550   36.6360 C   0  0  0  0  0  0  0  0  0  0  0  0
   44.3780   23.9230   36.4350 C   0  0  0  0  0  0  0  0  0  0  0  0
   44.3130   25.0260   35.6090 C   0  0  0  0  0  0  0  0  0  0  0  0
   45.4240   25.8150   35.3930 C   0  0  0  0  0  0  0  0  0  0  0  0
   45.3390   26.9120   34.5740 C   0  0  0  0  0  0  0  0  0  0  0  0
   44.1620   27.2630   33.9430 C   0  0  0  0  0  0  0  0  0  0  0  0
   43.0660   26.4600   34.1720 C   0  0  0  0  0  0  0  0  0  0  0  0
   43.1280   25.3560   34.9890 C   0  0  0  0  0  0  0  0  0  0  0  0
   36.3984   24.5744   35.9539 H   0  0  0  0  0  0  0  0  0  0  0  0
   38.7327   24.4109   37.7523 H   0  0  0  0  0  0  0  0  0  0  0  0
   37.2412   23.4453   37.7935 H   0  0  0  0  0  0  0  0  0  0  0  0
   39.7282   22.8176   36.4638 H   0  0  0  0  0  0  0  0  0  0  0  0
   38.2690   21.8497   36.4395 H   0  0  0  0  0  0  0  0  0  0  0  0
   37.4466   22.9458   34.4519 H   0  0  0  0  0  0  0  0  0  0  0  0
   39.1519   23.0853   34.1257 H   0  0  0  0  0  0  0  0  0  0  0  0
   37.1721   26.0982   30.7436 H   0  0  0  0  0  0  0  0  0  0  0  0
   38.3314   24.2524   32.3222 H   0  0  0  0  0  0  0  0  0  0  0  0
   34.9212   28.4539   34.1309 H   0  0  0  0  0  0  0  0  0  0  0  0
   37.1390   28.4061   30.4153 H   0  0  0  0  0  0  0  0  0  0  0  0
   33.7527   32.3940   31.9599 H   0  0  0  0  0  0  0  0  0  0  0  0
   34.7799   32.3949   30.4863 H   0  0  0  0  0  0  0  0  0  0  0  0
   33.2100   31.5219   30.4863 H   0  0  0  0  0  0  0  0  0  0  0  0
   39.7871   25.1891   36.4921 H   0  0  0  0  0  0  0  0  0  0  0  0
   39.6115   27.3776   36.3272 H   0  0  0  0  0  0  0  0  0  0  0  0
   40.5084   27.2469   34.7764 H   0  0  0  0  0  0  0  0  0  0  0  0
   38.7122   27.2650   34.7764 H   0  0  0  0  0  0  0  0  0  0  0  0
   40.7725   25.6059   33.6867 H   0  0  0  0  0  0  0  0  0  0  0  0
   40.2726   23.9072   34.1836 H   0  0  0  0  0  0  0  0  0  0  0  0
   41.2175   22.9269   36.1559 H   0  0  0  0  0  0  0  0  0  0  0  0
   43.2632   22.2692   37.2880 H   0  0  0  0  0  0  0  0  0  0  0  0
   45.3235   23.6570   36.9302 H   0  0  0  0  0  0  0  0  0  0  0  0
   46.3789   25.5641   35.8781 H   0  0  0  0  0  0  0  0  0  0  0  0
   46.2348   27.5303   34.4152 H   0  0  0  0  0  0  0  0  0  0  0  0
   44.1021   28.1440   33.2871 H   0  0  0  0  0  0  0  0  0  0  0  0
   42.1115   26.7101   33.6859 H   0  0  0  0  0  0  0  0  0  0  0  0
  1  2  1  0
  3  2  1  0
  4  5  1  0
  4  3  1  0
  5 18  1  0
  5  1  1  0
  6 10  2  0
  7  8  2  0
  7  6  1  0
  8  9  1  0
  9 10  1  0
  5  9  1  6
 12  6  1  0
 12 11  2  0
 13 12  1  0
 14 13  2  0
 14 15  1  0
 15 16  2  0
 16 11  1  0
 17 15  1  0
 19 18  1  0
 20 21  1  0
 20 18  1  0
 21 22  2  0
 22 23  1  0
 24 23  2  0
 25 24  1  0
 26 25  2  0
 27 26  1  0
 28 29  1  0
 28 27  2  0
 29 30  2  0
 30 21  1  0
 30 25  1  0
  1 31  1  0
  2 32  1  0
  2 33  1  0
  3 34  1  0
  3 35  1  0
  4 36  1  0
  4 37  1  0
  7 38  1  0
  8 39  1  0
 11 40  1  0
 13 41  1  0
 17 42  1  0
 17 43  1  0
 17 44  1  0
 18 45  1  1
 19 46  1  0
 19 47  1  0
 19 48  1  0
 20 49  1  0
 20 50  1  0
 22 51  1  0
 23 52  1  0
 24 53  1  0
 26 54  1  0
 27 55  1  0
 28 56  1  0
 29 57  1  0
M  ISO  8  31   5  32  13  33  13  34  13  35  13  36  13  37  13  38  14
M  ISO  8  39  14  40  14  41  14  42   8  43   8  44   8  45   8  46   8
M  ISO  8  47   8  48   8  49   8  50   8  51  14  52  14  53  14  54  14
M  ISO  3  55  14  56  14  57  14
M  END
>  <minimizedAffinity>  (1) 
-5.94241333

>  <minimizedRMSD>  (1) 
4.72710752

$$$$
