
     RDKit          3D

 51 54  0  0  1  0  0  0  0  0999 V2000
   37.3820   24.8780   36.3040 N   0  0  0  0  0  0  0  0  0  0  0  0
   38.0050   23.9190   37.2160 C   0  0  0  0  0  0  0  0  0  0  0  0
   38.6490   22.8320   36.3660 C   0  0  0  0  0  0  0  0  0  0  0  0
   38.3310   23.3070   34.9540 C   0  0  0  0  0  0  0  0  0  0  0  0
   38.2640   24.7780   35.1430 C   0  0  1  0  0  0  0  0  0  0  0  0
   36.8070   27.0260   32.7500 C   0  0  0  0  0  0  0  0  0  0  0  0
   37.2000   25.9990   31.8900 C   0  0  0  0  0  0  0  0  0  0  0  0
   37.7860   25.0610   32.7320 C   0  0  0  0  0  0  0  0  0  0  0  0
   37.7490   25.4940   34.0150 N   0  0  0  0  0  0  0  0  0  0  0  0
   37.1540   26.6760   33.9820 N   0  0  0  0  0  0  0  0  0  0  0  0
   35.2730   28.9020   33.1860 C   0  0  0  0  0  0  0  0  0  0  0  0
   36.1460   28.2370   32.3380 C   0  0  0  0  0  0  0  0  0  0  0  0
   36.3950   28.7360   31.0670 C   0  0  0  0  0  0  0  0  0  0  0  0
   35.7410   29.8920   30.7190 N   0  0  0  0  0  0  0  0  0  0  0  0
   34.8810   30.5310   31.5810 C   0  0  0  0  0  0  0  0  0  0  0  0
   34.6650   30.0250   32.7920 N   0  0  0  0  0  0  0  0  0  0  0  0
   34.2320   31.7840   31.0810 C   0  0  0  0  0  0  0  0  0  0  0  0
   39.6360   25.3370   35.4460 C   0  0  2  0  0  0  0  0  0  0  0  0
   39.6740   26.8440   35.3270 C   0  0  0  0  0  0  0  0  0  0  0  0
   40.6110   24.7710   34.4570 C   0  0  0  0  0  0  0  0  0  0  0  0
   41.8900   24.4770   35.1830 C   0  0  0  0  0  0  0  0  0  0  0  0
   42.1450   23.3420   35.9120 C   0  0  0  0  0  0  0  0  0  0  0  0
   43.3400   23.1270   36.5540 C   0  0  0  0  0  0  0  0  0  0  0  0
   44.3480   24.0530   36.4950 C   0  0  0  0  0  0  0  0  0  0  0  0
   44.1620   25.2140   35.7830 C   0  0  0  0  0  0  0  0  0  0  0  0
   42.9460   25.3840   35.1550 C   0  0  0  0  0  0  0  0  0  0  0  0
   36.4170   24.6044   36.0698 H   0  0  0  0  0  0  0  0  0  0  0  0
   38.7702   24.4224   37.8251 H   0  0  0  0  0  0  0  0  0  0  0  0
   37.2556   23.4869   37.8954 H   0  0  0  0  0  0  0  0  0  0  0  0
   39.7346   22.7817   36.5362 H   0  0  0  0  0  0  0  0  0  0  0  0
   38.2818   21.8190   36.5873 H   0  0  0  0  0  0  0  0  0  0  0  0
   37.3705   22.9033   34.6013 H   0  0  0  0  0  0  0  0  0  0  0  0
   39.0624   22.9854   34.1979 H   0  0  0  0  0  0  0  0  0  0  0  0
   37.0749   25.9446   30.7985 H   0  0  0  0  0  0  0  0  0  0  0  0
   38.2179   24.1042   32.4035 H   0  0  0  0  0  0  0  0  0  0  0  0
   35.0793   28.5015   34.1920 H   0  0  0  0  0  0  0  0  0  0  0  0
   37.0823   28.2303   30.3728 H   0  0  0  0  0  0  0  0  0  0  0  0
   33.9137   32.3985   31.9361 H   0  0  0  0  0  0  0  0  0  0  0  0
   34.9502   32.3502   30.4698 H   0  0  0  0  0  0  0  0  0  0  0  0
   33.3552   31.5240   30.4698 H   0  0  0  0  0  0  0  0  0  0  0  0
   39.8916   25.0621   36.4800 H   0  0  0  0  0  0  0  0  0  0  0  0
   39.6853   27.2910   36.3320 H   0  0  0  0  0  0  0  0  0  0  0  0
   40.5800   27.1460   34.7812 H   0  0  0  0  0  0  0  0  0  0  0  0
   38.7843   27.1913   34.7812 H   0  0  0  0  0  0  0  0  0  0  0  0
   40.7961   25.5013   33.6555 H   0  0  0  0  0  0  0  0  0  0  0  0
   40.2078   23.8523   34.0060 H   0  0  0  0  0  0  0  0  0  0  0  0
   41.3609   22.5740   35.9849 H   0  0  0  0  0  0  0  0  0  0  0  0
   43.4899   22.1980   37.1237 H   0  0  0  0  0  0  0  0  0  0  0  0
   45.3001   23.8686   37.0141 H   0  0  0  0  0  0  0  0  0  0  0  0
   44.9515   25.9770   35.7168 H   0  0  0  0  0  0  0  0  0  0  0  0
   42.7982   26.3130   34.5848 H   0  0  0  0  0  0  0  0  0  0  0  0
  1  2  1  0
  3  2  1  0
  4  5  1  0
  4  3  1  0
  5 18  1  0
  5  1  1  0
  6 10  2  0
  7  8  2  0
  7  6  1  0
  8  9  1  0
  5  9  1  6
 10  9  1  0
 12  6  1  0
 12 11  2  0
 13 12  1  0
 14 13  2  0
 14 15  1  0
 15 16  2  0
 16 11  1  0
 17 15  1  0
 19 18  1  0
 20 21  1  0
 20 18  1  0
 21 22  2  0
 22 23  1  0
 24 23  2  0
 25 24  1  0
 26 21  1  0
 26 25  2  0
  1 27  1  0
  2 28  1  0
  2 29  1  0
  3 30  1  0
  3 31  1  0
  4 32  1  0
  4 33  1  0
  7 34  1  0
  8 35  1  0
 11 36  1  0
 13 37  1  0
 17 38  1  0
 17 39  1  0
 17 40  1  0
 18 41  1  1
 19 42  1  0
 19 43  1  0
 19 44  1  0
 20 45  1  0
 20 46  1  0
 22 47  1  0
 23 48  1  0
 24 49  1  0
 25 50  1  0
 26 51  1  0
M  ISO  8  27   5  28  13  29  13  30  13  31  13  32  13  33  13  34  14
M  ISO  8  35  14  36  14  37  14  38   8  39   8  40   8  41   8  42   8
M  ISO  8  43   8  44   8  45   8  46   8  47  14  48  14  49  14  50  14
M  ISO  1  51  14
M  END
>  <minimizedAffinity>  (1) 
-5.42068863

>  <minimizedRMSD>  (1) 
4.72105265

$$$$
