
     RDKit          3D

 54 57  0  0  1  0  0  0  0  0999 V2000
   40.4230   21.9670   36.6110 N   0  0  0  0  0  0  0  0  0  0  0  0
   41.4500   21.6700   37.6200 C   0  0  0  0  0  0  0  0  0  0  0  0
   42.6600   21.1280   36.8920 C   0  0  0  0  0  0  0  0  0  0  0  0
   42.2090   21.1730   35.4380 C   0  0  0  0  0  0  0  0  0  0  0  0
   41.2520   22.3110   35.4590 C   0  0  1  0  0  0  0  0  0  0  0  0
   38.9110   23.0220   32.8330 C   0  0  0  0  0  0  0  0  0  0  0  0
   39.8230   22.2300   32.1170 C   0  0  0  0  0  0  0  0  0  0  0  0
   40.7870   21.8980   33.0630 C   0  0  0  0  0  0  0  0  0  0  0  0
   40.4820   22.4450   34.2590 N   0  0  0  0  0  0  0  0  0  0  0  0
   39.3460   23.1150   34.0850 N   0  0  0  0  0  0  0  0  0  0  0  0
   36.8170   22.8390   31.5470 C   0  0  0  0  0  0  0  0  0  0  0  0
   37.7240   23.6100   32.2670 C   0  0  0  0  0  0  0  0  0  0  0  0
   37.5020   24.9750   32.4570 C   0  0  0  0  0  0  0  0  0  0  0  0
   36.3560   25.4880   31.8970 N   0  0  0  0  0  0  0  0  0  0  0  0
   35.4830   24.7100   31.1960 C   0  0  0  0  0  0  0  0  0  0  0  0
   35.7200   23.4010   31.0280 N   0  0  0  0  0  0  0  0  0  0  0  0
   34.2590   25.3820   30.6270 C   0  0  0  0  0  0  0  0  0  0  0  0
   41.9840   23.6140   35.6780 C   0  0  2  0  0  0  0  0  0  0  0  0
   41.1830   24.8020   35.2090 C   0  0  0  0  0  0  0  0  0  0  0  0
   43.2670   23.5800   34.9000 C   0  0  0  0  0  0  0  0  0  0  0  0
   44.3400   24.2870   35.6070 N   0  0  0  0  0  0  0  0  0  0  0  0
   44.2300   24.7330   36.8690 C   0  0  0  0  0  0  0  0  0  0  0  0
   45.2280   25.3980   37.5380 C   0  0  0  0  0  0  0  0  0  0  0  0
   45.0600   25.8750   38.9390 C   0  0  0  0  0  0  0  0  0  0  0  0
   46.4260   25.6340   36.8950 C   0  0  0  0  0  0  0  0  0  0  0  0
   47.3970   26.2360   37.4290 O   0  0  0  0  0  0  0  0  0  0  0  0
   46.5460   25.1910   35.6310 N   0  0  0  0  0  0  0  0  0  0  0  0
   45.5330   24.5450   35.0260 C   0  0  0  0  0  0  0  0  0  0  0  0
   45.7500   24.1690   33.8360 O   0  0  0  0  0  0  0  0  0  0  0  0
   39.8324   21.1451   36.4196 H   0  0  0  0  0  0  0  0  0  0  0  0
   41.7188   22.5877   38.1636 H   0  0  0  0  0  0  0  0  0  0  0  0
   41.0758   20.9361   38.3490 H   0  0  0  0  0  0  0  0  0  0  0  0
   43.5420   21.7647   37.0557 H   0  0  0  0  0  0  0  0  0  0  0  0
   42.9650   20.1261   37.2284 H   0  0  0  0  0  0  0  0  0  0  0  0
   41.7133   20.2367   35.1420 H   0  0  0  0  0  0  0  0  0  0  0  0
   43.0313   21.2920   34.7171 H   0  0  0  0  0  0  0  0  0  0  0  0
   39.7841   21.9401   31.0566 H   0  0  0  0  0  0  0  0  0  0  0  0
   41.6731   21.2772   32.8646 H   0  0  0  0  0  0  0  0  0  0  0  0
   37.0026   21.7642   31.4042 H   0  0  0  0  0  0  0  0  0  0  0  0
   38.2044   25.6047   33.0229 H   0  0  0  0  0  0  0  0  0  0  0  0
   33.6183   25.7338   31.4490 H   0  0  0  0  0  0  0  0  0  0  0  0
   34.5651   26.2385   30.0084 H   0  0  0  0  0  0  0  0  0  0  0  0
   33.7006   24.6639   30.0084 H   0  0  0  0  0  0  0  0  0  0  0  0
   42.1625   23.7218   36.7580 H   0  0  0  0  0  0  0  0  0  0  0  0
   40.8078   25.3584   36.0806 H   0  0  0  0  0  0  0  0  0  0  0  0
   41.8231   25.4593   34.6021 H   0  0  0  0  0  0  0  0  0  0  0  0
   40.3337   24.4551   34.6021 H   0  0  0  0  0  0  0  0  0  0  0  0
   43.1059   24.0589   33.9229 H   0  0  0  0  0  0  0  0  0  0  0  0
   43.5683   22.5295   34.7747 H   0  0  0  0  0  0  0  0  0  0  0  0
   43.2828   24.5548   37.3991 H   0  0  0  0  0  0  0  0  0  0  0  0
   45.3427   25.0723   39.6360 H   0  0  0  0  0  0  0  0  0  0  0  0
   45.7038   26.7508   39.1078 H   0  0  0  0  0  0  0  0  0  0  0  0
   44.0095   26.1541   39.1078 H   0  0  0  0  0  0  0  0  0  0  0  0
   47.4257   25.3485   35.1190 H   0  0  0  0  0  0  0  0  0  0  0  0
  1  2  1  0
  3  2  1  0
  4  5  1  0
  4  3  1  0
  5 18  1  0
  5  1  1  0
  6 10  2  0
  7  6  1  0
  7  8  2  0
  8  9  1  0
  5  9  1  6
 10  9  1  0
 11 12  2  0
 12 13  1  0
 12  6  1  0
 14 13  2  0
 15 14  1  0
 16 15  2  0
 16 11  1  0
 17 15  1  0
 19 18  1  0
 20 21  1  0
 20 18  1  0
 21 22  1  0
 22 23  2  0
 23 24  1  0
 25 26  2  0
 25 23  1  0
 27 25  1  0
 28 21  1  0
 28 27  1  0
 29 28  2  0
  1 30  1  0
  2 31  1  0
  2 32  1  0
  3 33  1  0
  3 34  1  0
  4 35  1  0
  4 36  1  0
  7 37  1  0
  8 38  1  0
 11 39  1  0
 13 40  1  0
 17 41  1  0
 17 42  1  0
 17 43  1  0
 18 44  1  1
 19 45  1  0
 19 46  1  0
 19 47  1  0
 20 48  1  0
 20 49  1  0
 22 50  1  0
 24 51  1  0
 24 52  1  0
 24 53  1  0
 27 54  1  0
M  ISO  8  30   5  31  13  32  13  33  13  34  13  35  13  36  13  37  14
M  ISO  8  38  14  39  14  40  14  41   8  42   8  43   8  44   8  45   8
M  ISO  8  46   8  47   8  48   8  49   8  50  14  51   8  52   8  53   8
M  ISO  1  54   9
M  END
>  <minimizedAffinity>  (1) 
-5.36888695

>  <minimizedRMSD>  (1) 
2.99040222

$$$$
