
     RDKit          3D

 54 58  0  0  1  0  0  0  0  0999 V2000
   37.4090   24.9560   36.3140 N   0  0  0  0  0  0  0  0  0  0  0  0
   38.1000   24.0340   37.2140 C   0  0  0  0  0  0  0  0  0  0  0  0
   38.6850   22.9140   36.3610 C   0  0  0  0  0  0  0  0  0  0  0  0
   38.2680   23.3380   34.9670 C   0  0  0  0  0  0  0  0  0  0  0  0
   38.2050   24.8210   35.1050 C   0  0  1  0  0  0  0  0  0  0  0  0
   36.6400   26.9870   32.7030 C   0  0  0  0  0  0  0  0  0  0  0  0
   36.8100   25.8510   31.9070 C   0  0  0  0  0  0  0  0  0  0  0  0
   37.4190   24.9350   32.7560 C   0  0  0  0  0  0  0  0  0  0  0  0
   37.6050   25.4780   33.9810 N   0  0  0  0  0  0  0  0  0  0  0  0
   37.1290   26.7170   33.9240 N   0  0  0  0  0  0  0  0  0  0  0  0
   35.0860   28.8700   33.0320 C   0  0  0  0  0  0  0  0  0  0  0  0
   36.0420   28.2210   32.2580 C   0  0  0  0  0  0  0  0  0  0  0  0
   36.4360   28.7520   31.0390 C   0  0  0  0  0  0  0  0  0  0  0  0
   35.8300   29.9300   30.6710 N   0  0  0  0  0  0  0  0  0  0  0  0
   34.8940   30.5510   31.4470 C   0  0  0  0  0  0  0  0  0  0  0  0
   34.5370   30.0140   32.6080 N   0  0  0  0  0  0  0  0  0  0  0  0
   34.3150   31.8270   30.9230 C   0  0  0  0  0  0  0  0  0  0  0  0
   39.5920   25.3900   35.2810 C   0  0  2  0  0  0  0  0  0  0  0  0
   39.5740   26.9040   35.3730 C   0  0  0  0  0  0  0  0  0  0  0  0
   40.4180   25.0270   34.0790 C   0  0  0  0  0  0  0  0  0  0  0  0
   41.8010   24.8770   34.5440 N   0  0  0  0  0  0  0  0  0  0  0  0
   42.7270   25.8600   34.5340 C   0  0  0  0  0  0  0  0  0  0  0  0
   43.8900   25.3470   35.0350 N   0  0  0  0  0  0  0  0  0  0  0  0
   43.6700   24.0660   35.3450 C   0  0  0  0  0  0  0  0  0  0  0  0
   44.3940   23.0230   35.8690 C   0  0  0  0  0  0  0  0  0  0  0  0
   43.8970   21.7810   36.0850 N   0  0  0  0  0  0  0  0  0  0  0  0
   42.6040   21.5010   35.7780 C   0  0  0  0  0  0  0  0  0  0  0  0
   41.8930   22.5100   35.2670 N   0  0  0  0  0  0  0  0  0  0  0  0
   42.3670   23.7400   35.0480 C   0  0  0  0  0  0  0  0  0  0  0  0
   45.7470   23.1980   36.2260 N   0  0  0  0  0  0  0  0  0  0  0  0
   36.4324   24.6690   36.1568 H   0  0  0  0  0  0  0  0  0  0  0  0
   38.9058   24.5612   37.7457 H   0  0  0  0  0  0  0  0  0  0  0  0
   37.4036   23.6279   37.9624 H   0  0  0  0  0  0  0  0  0  0  0  0
   39.7800   22.8686   36.4553 H   0  0  0  0  0  0  0  0  0  0  0  0
   38.3376   21.9095   36.6444 H   0  0  0  0  0  0  0  0  0  0  0  0
   37.2873   22.9189   34.6975 H   0  0  0  0  0  0  0  0  0  0  0  0
   38.9483   22.9930   34.1744 H   0  0  0  0  0  0  0  0  0  0  0  0
   36.5273   25.7138   30.8528 H   0  0  0  0  0  0  0  0  0  0  0  0
   37.7090   23.9126   32.4721 H   0  0  0  0  0  0  0  0  0  0  0  0
   34.7798   28.4407   33.9974 H   0  0  0  0  0  0  0  0  0  0  0  0
   37.1882   28.2603   30.4046 H   0  0  0  0  0  0  0  0  0  0  0  0
   34.0230   32.4705   31.7660 H   0  0  0  0  0  0  0  0  0  0  0  0
   35.0660   32.3455   30.3089 H   0  0  0  0  0  0  0  0  0  0  0  0
   33.4303   31.6032   30.3089 H   0  0  0  0  0  0  0  0  0  0  0  0
   40.0068   24.9769   36.2123 H   0  0  0  0  0  0  0  0  0  0  0  0
   39.5704   27.2071   36.4304 H   0  0  0  0  0  0  0  0  0  0  0  0
   40.4674   27.3121   34.8776 H   0  0  0  0  0  0  0  0  0  0  0  0
   38.6712   27.2907   34.8776 H   0  0  0  0  0  0  0  0  0  0  0  0
   40.3571   25.8238   33.3231 H   0  0  0  0  0  0  0  0  0  0  0  0
   40.0543   24.0975   33.6166 H   0  0  0  0  0  0  0  0  0  0  0  0
   42.5723   26.8914   34.1843 H   0  0  0  0  0  0  0  0  0  0  0  0
   42.1686   20.5039   35.9403 H   0  0  0  0  0  0  0  0  0  0  0  0
   46.2822   22.4102   36.6183 H   0  0  0  0  0  0  0  0  0  0  0  0
   46.2000   24.1136   36.0945 H   0  0  0  0  0  0  0  0  0  0  0  0
  1  2  1  0
  3  2  1  0
  4  5  1  0
  4  3  1  0
  5 18  1  0
  5  1  1  0
  6 10  2  0
  7  6  1  0
  7  8  2  0
  8  9  1  0
  5  9  1  6
 10  9  1  0
 12  6  1  0
 12 11  2  0
 13 12  1  0
 14 13  2  0
 14 15  1  0
 15 16  2  0
 16 11  1  0
 17 15  1  0
 18 19  1  0
 20 21  1  0
 20 18  1  0
 21 29  1  0
 22 21  1  0
 22 23  2  0
 23 24  1  0
 24 25  2  0
 25 26  1  0
 25 30  1  0
 27 26  2  0
 28 27  1  0
 29 28  2  0
 29 24  1  0
  1 31  1  0
  2 32  1  0
  2 33  1  0
  3 34  1  0
  3 35  1  0
  4 36  1  0
  4 37  1  0
  7 38  1  0
  8 39  1  0
 11 40  1  0
 13 41  1  0
 17 42  1  0
 17 43  1  0
 17 44  1  0
 18 45  1  1
 19 46  1  0
 19 47  1  0
 19 48  1  0
 20 49  1  0
 20 50  1  0
 22 51  1  0
 27 52  1  0
 30 53  1  0
 30 54  1  0
M  ISO  8  31   5  32  13  33  13  34  13  35  13  36  13  37  13  38  14
M  ISO  8  39  14  40  14  41  14  42   8  43   8  44   8  45   8  46   8
M  ISO  6  47   8  48   8  49   8  50   8  51  14  52  14
M  END
>  <minimizedAffinity>  (1) 
-5.28397512

>  <minimizedRMSD>  (1) 
5.33722258

$$$$
