
     RDKit          3D

 51 54  0  0  1  0  0  0  0  0999 V2000
   37.6250   24.9020   36.4580 N   0  0  0  0  0  0  0  0  0  0  0  0
   38.2280   23.9260   37.3710 C   0  0  0  0  0  0  0  0  0  0  0  0
   38.6300   22.7180   36.5500 C   0  0  0  0  0  0  0  0  0  0  0  0
   38.1900   23.1230   35.1470 C   0  0  0  0  0  0  0  0  0  0  0  0
   38.3220   24.6000   35.2100 C   0  0  1  0  0  0  0  0  0  0  0  0
   36.8910   26.8650   32.8240 C   0  0  0  0  0  0  0  0  0  0  0  0
   36.9190   25.6880   32.0410 C   0  0  0  0  0  0  0  0  0  0  0  0
   37.4690   24.7380   32.8980 C   0  0  0  0  0  0  0  0  0  0  0  0
   37.7470   25.2910   34.0930 N   0  0  0  0  0  0  0  0  0  0  0  0
   37.3900   26.5670   34.0170 N   0  0  0  0  0  0  0  0  0  0  0  0
   35.8790   29.0680   33.2410 C   0  0  0  0  0  0  0  0  0  0  0  0
   36.4000   28.1320   32.3580 C   0  0  0  0  0  0  0  0  0  0  0  0
   36.4550   28.4030   30.9910 C   0  0  0  0  0  0  0  0  0  0  0  0
   35.9720   29.6240   30.5870 N   0  0  0  0  0  0  0  0  0  0  0  0
   35.4650   30.5230   31.4780 C   0  0  0  0  0  0  0  0  0  0  0  0
   35.4240   30.2400   32.7810 N   0  0  0  0  0  0  0  0  0  0  0  0
   34.9530   31.8260   30.9230 C   0  0  0  0  0  0  0  0  0  0  0  0
   39.7750   24.9960   35.2980 C   0  0  2  0  0  0  0  0  0  0  0  0
   39.9800   26.4840   35.0920 C   0  0  0  0  0  0  0  0  0  0  0  0
   40.5350   24.2820   34.2170 C   0  0  0  0  0  0  0  0  0  0  0  0
   41.8740   23.8650   34.7610 C   0  0  0  0  0  0  0  0  0  0  0  0
   42.9790   23.7640   33.9160 C   0  0  0  0  0  0  0  0  0  0  0  0
   44.2350   23.3930   34.3260 C   0  0  0  0  0  0  0  0  0  0  0  0
   44.4260   23.1000   35.6580 C   0  0  0  0  0  0  0  0  0  0  0  0
   43.3520   23.1880   36.5380 C   0  0  0  0  0  0  0  0  0  0  0  0
   42.1230   23.5610   36.0790 C   0  0  0  0  0  0  0  0  0  0  0  0
   36.6095   24.7553   36.3672 H   0  0  0  0  0  0  0  0  0  0  0  0
   39.1143   24.3626   37.8547 H   0  0  0  0  0  0  0  0  0  0  0  0
   37.5133   23.6388   38.1563 H   0  0  0  0  0  0  0  0  0  0  0  0
   39.7160   22.5488   36.5944 H   0  0  0  0  0  0  0  0  0  0  0  0
   38.1812   21.7766   36.8996 H   0  0  0  0  0  0  0  0  0  0  0  0
   37.1511   22.8206   34.9487 H   0  0  0  0  0  0  0  0  0  0  0  0
   38.7742   22.6546   34.3412 H   0  0  0  0  0  0  0  0  0  0  0  0
   36.5854   25.5544   31.0014 H   0  0  0  0  0  0  0  0  0  0  0  0
   37.6504   23.6853   32.6355 H   0  0  0  0  0  0  0  0  0  0  0  0
   35.8401   28.8468   34.3178 H   0  0  0  0  0  0  0  0  0  0  0  0
   36.8640   27.6766   30.2734 H   0  0  0  0  0  0  0  0  0  0  0  0
   34.6886   32.4990   31.7520 H   0  0  0  0  0  0  0  0  0  0  0  0
   35.7342   32.2939   30.3058 H   0  0  0  0  0  0  0  0  0  0  0  0
   34.0623   31.6369   30.3058 H   0  0  0  0  0  0  0  0  0  0  0  0
   40.1295   24.7278   36.3042 H   0  0  0  0  0  0  0  0  0  0  0  0
   40.0488   26.9835   36.0697 H   0  0  0  0  0  0  0  0  0  0  0  0
   40.9097   26.6515   34.5284 H   0  0  0  0  0  0  0  0  0  0  0  0
   39.1302   26.8967   34.5284 H   0  0  0  0  0  0  0  0  0  0  0  0
   40.6779   24.9553   33.3589 H   0  0  0  0  0  0  0  0  0  0  0  0
   39.9728   23.3958   33.8875 H   0  0  0  0  0  0  0  0  0  0  0  0
   42.8342   23.9971   32.8508 H   0  0  0  0  0  0  0  0  0  0  0  0
   45.0674   23.3313   33.6095 H   0  0  0  0  0  0  0  0  0  0  0  0
   45.4191   22.7990   36.0230 H   0  0  0  0  0  0  0  0  0  0  0  0
   43.4940   22.9567   37.6040 H   0  0  0  0  0  0  0  0  0  0  0  0
   41.2917   23.6215   36.7968 H   0  0  0  0  0  0  0  0  0  0  0  0
  1  2  1  0
  3  2  1  0
  4  5  1  0
  4  3  1  0
  5 18  1  0
  5  1  1  0
  6 10  2  0
  7  6  1  0
  7  8  2  0
  8  9  1  0
  5  9  1  6
 10  9  1  0
 12  6  1  0
 12 11  2  0
 13 12  1  0
 14 13  2  0
 14 15  1  0
 15 16  2  0
 16 11  1  0
 17 15  1  0
 19 18  1  0
 20 21  1  0
 20 18  1  0
 21 26  2  0
 22 23  2  0
 22 21  1  0
 23 24  1  0
 24 25  2  0
 26 25  1  0
  1 27  1  0
  2 28  1  0
  2 29  1  0
  3 30  1  0
  3 31  1  0
  4 32  1  0
  4 33  1  0
  7 34  1  0
  8 35  1  0
 11 36  1  0
 13 37  1  0
 17 38  1  0
 17 39  1  0
 17 40  1  0
 18 41  1  1
 19 42  1  0
 19 43  1  0
 19 44  1  0
 20 45  1  0
 20 46  1  0
 22 47  1  0
 23 48  1  0
 24 49  1  0
 25 50  1  0
 26 51  1  0
M  ISO  8  27   5  28  13  29  13  30  13  31  13  32  13  33  13  34  14
M  ISO  8  35  14  36  14  37  14  38   8  39   8  40   8  41   8  42   8
M  ISO  8  43   8  44   8  45   8  46   8  47  14  48  14  49  14  50  14
M  ISO  1  51  14
M  END
>  <minimizedAffinity>  (1) 
-5.08928108

>  <minimizedRMSD>  (1) 
4.76175976

$$$$
