
     RDKit          3D

 47 50  0  0  1  0  0  0  0  0999 V2000
   37.3690   24.8830   36.3110 N   0  0  0  0  0  0  0  0  0  0  0  0
   38.0520   23.9560   37.2160 C   0  0  0  0  0  0  0  0  0  0  0  0
   38.7560   22.9140   36.3580 C   0  0  0  0  0  0  0  0  0  0  0  0
   38.3610   23.3460   34.9510 C   0  0  0  0  0  0  0  0  0  0  0  0
   38.2140   24.8100   35.1200 C   0  0  1  0  0  0  0  0  0  0  0  0
   36.6630   26.9980   32.7350 C   0  0  0  0  0  0  0  0  0  0  0  0
   36.8640   25.8700   31.9240 C   0  0  0  0  0  0  0  0  0  0  0  0
   37.4700   24.9530   32.7720 C   0  0  0  0  0  0  0  0  0  0  0  0
   37.6230   25.4860   34.0050 N   0  0  0  0  0  0  0  0  0  0  0  0
   37.1290   26.7140   33.9500 N   0  0  0  0  0  0  0  0  0  0  0  0
   35.1000   28.8750   33.0610 C   0  0  0  0  0  0  0  0  0  0  0  0
   36.0550   28.2240   32.2890 C   0  0  0  0  0  0  0  0  0  0  0  0
   36.4450   28.7470   31.0570 C   0  0  0  0  0  0  0  0  0  0  0  0
   35.8320   29.9190   30.6780 N   0  0  0  0  0  0  0  0  0  0  0  0
   34.9030   30.5380   31.4470 C   0  0  0  0  0  0  0  0  0  0  0  0
   34.5450   30.0130   32.6280 N   0  0  0  0  0  0  0  0  0  0  0  0
   34.3030   31.8140   30.9280 C   0  0  0  0  0  0  0  0  0  0  0  0
   39.5480   25.4630   35.3930 C   0  0  2  0  0  0  0  0  0  0  0  0
   39.4780   26.9680   35.4080 C   0  0  0  0  0  0  0  0  0  0  0  0
   40.5000   25.0790   34.2960 C   0  0  0  0  0  0  0  0  0  0  0  0
   41.9150   24.9610   34.8570 C   0  0  0  0  0  0  0  0  0  0  0  0
   42.2050   23.8670   35.7060 C   0  0  0  0  0  0  0  0  0  0  0  0
   43.9290   24.0940   36.1420 S   0  0  0  0  0  0  0  0  0  0  0  0
   44.0200   25.6820   35.0860 C   0  0  0  0  0  0  0  0  0  0  0  0
   42.8590   25.8300   34.5870 N   0  0  0  0  0  0  0  0  0  0  0  0
   36.4081   24.5716   36.1094 H   0  0  0  0  0  0  0  0  0  0  0  0
   38.7884   24.5003   37.8255 H   0  0  0  0  0  0  0  0  0  0  0  0
   37.3318   23.4762   37.8950 H   0  0  0  0  0  0  0  0  0  0  0  0
   39.8465   22.9521   36.4968 H   0  0  0  0  0  0  0  0  0  0  0  0
   38.4772   21.8777   36.5994 H   0  0  0  0  0  0  0  0  0  0  0  0
   37.4143   22.8808   34.6391 H   0  0  0  0  0  0  0  0  0  0  0  0
   39.0833   23.0552   34.1740 H   0  0  0  0  0  0  0  0  0  0  0  0
   36.6022   25.7424   30.8633 H   0  0  0  0  0  0  0  0  0  0  0  0
   37.7810   23.9384   32.4823 H   0  0  0  0  0  0  0  0  0  0  0  0
   34.7993   28.4532   34.0314 H   0  0  0  0  0  0  0  0  0  0  0  0
   37.1978   28.2523   30.4257 H   0  0  0  0  0  0  0  0  0  0  0  0
   34.0041   32.4496   31.7746 H   0  0  0  0  0  0  0  0  0  0  0  0
   35.0456   32.3455   30.3147 H   0  0  0  0  0  0  0  0  0  0  0  0
   33.4200   31.5811   30.3147 H   0  0  0  0  0  0  0  0  0  0  0  0
   39.8744   25.1204   36.3860 H   0  0  0  0  0  0  0  0  0  0  0  0
   39.4614   27.3239   36.4487 H   0  0  0  0  0  0  0  0  0  0  0  0
   40.3579   27.3811   34.8931 H   0  0  0  0  0  0  0  0  0  0  0  0
   38.5635   27.2977   34.8931 H   0  0  0  0  0  0  0  0  0  0  0  0
   40.4816   25.8488   33.5105 H   0  0  0  0  0  0  0  0  0  0  0  0
   40.1951   24.1104   33.8730 H   0  0  0  0  0  0  0  0  0  0  0  0
   41.5276   23.0614   36.0255 H   0  0  0  0  0  0  0  0  0  0  0  0
   44.8942   26.3334   34.9395 H   0  0  0  0  0  0  0  0  0  0  0  0
  1  2  1  0
  3  2  1  0
  4  5  1  0
  4  3  1  0
  5 18  1  0
  5  1  1  0
  6 10  2  0
  7  6  1  0
  7  8  2  0
  8  9  1  0
  5  9  1  6
 10  9  1  0
 12  6  1  0
 12 11  2  0
 13 12  1  0
 14 13  2  0
 14 15  1  0
 15 16  2  0
 16 11  1  0
 17 15  1  0
 18 19  1  0
 20 21  1  0
 20 18  1  0
 21 22  2  0
 22 23  1  0
 24 23  1  0
 25 21  1  0
 25 24  2  0
  1 26  1  0
  2 27  1  0
  2 28  1  0
  3 29  1  0
  3 30  1  0
  4 31  1  0
  4 32  1  0
  7 33  1  0
  8 34  1  0
 11 35  1  0
 13 36  1  0
 17 37  1  0
 17 38  1  0
 17 39  1  0
 18 40  1  1
 19 41  1  0
 19 42  1  0
 19 43  1  0
 20 44  1  0
 20 45  1  0
 22 46  1  0
 24 47  1  0
M  ISO  8  26   5  27  13  28  13  29  13  30  13  31  13  32  13  33  14
M  ISO  8  34  14  35  14  36  14  37   8  38   8  39   8  40   8  41   8
M  ISO  6  42   8  43   8  44   8  45   8  46  14  47  14
M  END
>  <minimizedAffinity>  (1) 
-4.84860992

>  <minimizedRMSD>  (1) 
4.54668808

$$$$
