
     RDKit          3D

 48 50  0  0  1  0  0  0  0  0999 V2000
   37.7980   25.0100   36.5170 N   0  0  0  0  0  0  0  0  0  0  0  0
   38.4610   23.9380   37.2650 C   0  0  0  0  0  0  0  0  0  0  0  0
   38.7350   22.8060   36.3000 C   0  0  0  0  0  0  0  0  0  0  0  0
   38.1710   23.3500   34.9930 C   0  0  0  0  0  0  0  0  0  0  0  0
   38.3490   24.8140   35.1800 C   0  0  1  0  0  0  0  0  0  0  0  0
   36.6500   27.2850   33.2080 C   0  0  0  0  0  0  0  0  0  0  0  0
   36.7760   26.2580   32.2450 C   0  0  0  0  0  0  0  0  0  0  0  0
   37.4320   25.2430   32.9270 C   0  0  0  0  0  0  0  0  0  0  0  0
   37.6860   25.6170   34.1980 N   0  0  0  0  0  0  0  0  0  0  0  0
   37.2050   26.8550   34.3470 N   0  0  0  0  0  0  0  0  0  0  0  0
   35.6390   29.3810   34.0060 C   0  0  0  0  0  0  0  0  0  0  0  0
   36.0270   28.5540   32.9610 C   0  0  0  0  0  0  0  0  0  0  0  0
   35.8180   28.9440   31.6460 C   0  0  0  0  0  0  0  0  0  0  0  0
   35.2170   30.1680   31.4460 N   0  0  0  0  0  0  0  0  0  0  0  0
   34.8480   30.9550   32.4960 C   0  0  0  0  0  0  0  0  0  0  0  0
   35.0620   30.5570   33.7490 N   0  0  0  0  0  0  0  0  0  0  0  0
   34.1950   32.2740   32.1880 C   0  0  0  0  0  0  0  0  0  0  0  0
   39.8150   25.1740   35.1530 C   0  0  2  0  0  0  0  0  0  0  0  0
   40.0400   26.6710   35.1140 C   0  0  0  0  0  0  0  0  0  0  0  0
   40.4240   24.6020   33.9050 C   0  0  0  0  0  0  0  0  0  0  0  0
   41.8700   24.5070   34.1790 N   0  0  0  0  0  0  0  0  0  0  0  0
   42.3600   23.2420   34.6720 C   0  0  0  0  0  0  0  0  0  0  0  0
   41.7310   22.1230   34.4160 N   0  0  0  0  0  0  0  0  0  0  0  0
   43.5430   23.0410   35.4700 N   0  0  0  0  0  0  0  0  0  0  0  0
   40.8680   22.0590   33.8620 H   0  0  0  0  0  0  0  0  0  0  0  0
   36.7744   24.8957   36.5228 H   0  0  0  0  0  0  0  0  0  0  0  0
   39.4069   24.3064   37.6888 H   0  0  0  0  0  0  0  0  0  0  0  0
   37.8229   23.5935   38.0921 H   0  0  0  0  0  0  0  0  0  0  0  0
   39.8135   22.6063   36.2160 H   0  0  0  0  0  0  0  0  0  0  0  0
   38.2900   21.8480   36.6069 H   0  0  0  0  0  0  0  0  0  0  0  0
   37.1099   23.0864   34.8727 H   0  0  0  0  0  0  0  0  0  0  0  0
   38.6602   22.9501   34.0925 H   0  0  0  0  0  0  0  0  0  0  0  0
   36.4340   26.2623   31.1995 H   0  0  0  0  0  0  0  0  0  0  0  0
   37.7063   24.2704   32.4924 H   0  0  0  0  0  0  0  0  0  0  0  0
   35.8071   29.0671   35.0468 H   0  0  0  0  0  0  0  0  0  0  0  0
   36.1182   28.3057   30.8019 H   0  0  0  0  0  0  0  0  0  0  0  0
   33.9415   32.7860   33.1280 H   0  0  0  0  0  0  0  0  0  0  0  0
   34.8878   32.8989   31.6053 H   0  0  0  0  0  0  0  0  0  0  0  0
   33.2780   32.1020   31.6053 H   0  0  0  0  0  0  0  0  0  0  0  0
   40.2705   24.7706   36.0694 H   0  0  0  0  0  0  0  0  0  0  0  0
   40.0984   27.0599   36.1413 H   0  0  0  0  0  0  0  0  0  0  0  0
   40.9807   26.8868   34.5862 H   0  0  0  0  0  0  0  0  0  0  0  0
   39.2043   27.1538   34.5862 H   0  0  0  0  0  0  0  0  0  0  0  0
   40.2381   25.2656   33.0477 H   0  0  0  0  0  0  0  0  0  0  0  0
   39.9917   23.6226   33.6522 H   0  0  0  0  0  0  0  0  0  0  0  0
   42.5011   25.3064   34.0256 H   0  0  0  0  0  0  0  0  0  0  0  0
   43.8057   22.0918   35.7715 H   0  0  0  0  0  0  0  0  0  0  0  0
   44.1259   23.8465   35.7388 H   0  0  0  0  0  0  0  0  0  0  0  0
  1  2  1  0
  3  2  1  0
  4  5  1  0
  4  3  1  0
  5 18  1  0
  5  1  1  0
  6 10  2  0
  7  8  2  0
  7  6  1  0
  8  9  1  0
  9 10  1  0
  5  9  1  6
 12  6  1  0
 12 11  2  0
 13 12  1  0
 14 13  2  0
 14 15  1  0
 15 16  2  0
 16 11  1  0
 17 15  1  0
 19 18  1  0
 20 21  1  0
 20 18  1  0
 21 22  1  0
 22 24  1  0
 23 22  2  0
 25 23  1  0
  1 26  1  0
  2 27  1  0
  2 28  1  0
  3 29  1  0
  3 30  1  0
  4 31  1  0
  4 32  1  0
  7 33  1  0
  8 34  1  0
 11 35  1  0
 13 36  1  0
 17 37  1  0
 17 38  1  0
 17 39  1  0
 18 40  1  1
 19 41  1  0
 19 42  1  0
 19 43  1  0
 20 44  1  0
 20 45  1  0
 21 46  1  0
 24 47  1  0
 24 48  1  0
M  ISO  8  26   5  27  13  28  13  29  13  30  13  31  13  32  13  33  14
M  ISO  8  34  14  35  14  36  14  37   8  38   8  39   8  40   8  41   8
M  ISO  4  42   8  43   8  44   8  45   8
M  END
>  <minimizedAffinity>  (1) 
-4.45167494

>  <minimizedRMSD>  (1) 
4.85775757

$$$$
