
     RDKit          3D

 46 49  0  0  1  0  0  0  0  0999 V2000
   42.7230   23.1970   34.2300 N   0  0  0  0  0  0  0  0  0  0  0  0
   43.5180   23.7900   35.3120 C   0  0  0  0  0  0  0  0  0  0  0  0
   43.0970   25.2380   35.4490 C   0  0  0  0  0  0  0  0  0  0  0  0
   42.0290   25.3660   34.3680 C   0  0  0  0  0  0  0  0  0  0  0  0
   41.4950   23.9820   34.3120 C   0  0  1  0  0  0  0  0  0  0  0  0
   39.3650   22.7050   31.7190 C   0  0  0  0  0  0  0  0  0  0  0  0
   39.2800   24.0880   31.4390 C   0  0  0  0  0  0  0  0  0  0  0  0
   40.0870   24.6730   32.4090 C   0  0  0  0  0  0  0  0  0  0  0  0
   40.6180   23.7270   33.2100 N   0  0  0  0  0  0  0  0  0  0  0  0
   40.1660   22.5550   32.7720 N   0  0  0  0  0  0  0  0  0  0  0  0
   39.2720   21.1170   29.8410 C   0  0  0  0  0  0  0  0  0  0  0  0
   38.6900   21.6790   30.9730 C   0  0  0  0  0  0  0  0  0  0  0  0
   37.4330   21.2560   31.4090 C   0  0  0  0  0  0  0  0  0  0  0  0
   36.8310   20.2730   30.6580 N   0  0  0  0  0  0  0  0  0  0  0  0
   37.4220   19.7430   29.5580 C   0  0  0  0  0  0  0  0  0  0  0  0
   38.6280   20.1640   29.1590 N   0  0  0  0  0  0  0  0  0  0  0  0
   36.6730   18.6740   28.8090 C   0  0  0  0  0  0  0  0  0  0  0  0
   40.7450   23.6530   35.5810 C   0  0  2  0  0  0  0  0  0  0  0  0
   40.4210   22.1820   35.6990 C   0  0  0  0  0  0  0  0  0  0  0  0
   39.4310   24.3820   35.5620 C   0  0  0  0  0  0  0  0  0  0  0  0
   38.6280   23.8250   36.7090 C   0  0  0  0  0  0  0  0  0  0  0  0
   37.4900   23.1210   36.5770 N   0  0  0  0  0  0  0  0  0  0  0  0
   37.0430   22.7850   37.7480 O   0  0  0  0  0  0  0  0  0  0  0  0
   37.8760   23.2590   38.6480 C   0  0  0  0  0  0  0  0  0  0  0  0
   38.8720   23.9120   38.0110 N   0  0  0  0  0  0  0  0  0  0  0  0
   42.5430   22.1970   34.3991 H   0  0  0  0  0  0  0  0  0  0  0  0
   43.3289   23.2537   36.2536 H   0  0  0  0  0  0  0  0  0  0  0  0
   44.5921   23.7198   35.0852 H   0  0  0  0  0  0  0  0  0  0  0  0
   42.6807   25.4397   36.4470 H   0  0  0  0  0  0  0  0  0  0  0  0
   43.9265   25.9517   35.3372 H   0  0  0  0  0  0  0  0  0  0  0  0
   41.2492   26.0859   34.6572 H   0  0  0  0  0  0  0  0  0  0  0  0
   42.4086   25.7389   33.4053 H   0  0  0  0  0  0  0  0  0  0  0  0
   38.7092   24.5851   30.6408 H   0  0  0  0  0  0  0  0  0  0  0  0
   40.2666   25.7537   32.5086 H   0  0  0  0  0  0  0  0  0  0  0  0
   40.2632   21.4571   29.5066 H   0  0  0  0  0  0  0  0  0  0  0  0
   36.9520   21.6837   32.3010 H   0  0  0  0  0  0  0  0  0  0  0  0
   36.1943   17.9908   29.5260 H   0  0  0  0  0  0  0  0  0  0  0  0
   35.9030   19.1403   28.1767 H   0  0  0  0  0  0  0  0  0  0  0  0
   37.3742   18.1095   28.1767 H   0  0  0  0  0  0  0  0  0  0  0  0
   41.3887   23.9472   36.4231 H   0  0  0  0  0  0  0  0  0  0  0  0
   40.3598   21.9041   36.7616 H   0  0  0  0  0  0  0  0  0  0  0  0
   39.4565   21.9787   35.2107 H   0  0  0  0  0  0  0  0  0  0  0  0
   41.2108   21.5923   35.2107 H   0  0  0  0  0  0  0  0  0  0  0  0
   39.5914   25.4618   35.6970 H   0  0  0  0  0  0  0  0  0  0  0  0
   38.9097   24.2462   34.6029 H   0  0  0  0  0  0  0  0  0  0  0  0
   37.7781   23.1431   39.7375 H   0  0  0  0  0  0  0  0  0  0  0  0
  1  5  1  0
  1  2  1  0
  2  3  1  0
  4  3  1  0
  5  4  1  0
  5 18  1  0
  6 10  2  0
  7  6  1  0
  7  8  2  0
  8  9  1  0
  5  9  1  6
 10  9  1  0
 11 12  2  0
 12 13  1  0
 12  6  1  0
 14 13  2  0
 15 14  1  0
 16 15  2  0
 16 11  1  0
 17 15  1  0
 18 19  1  0
 20 18  1  0
 20 21  1  0
 21 25  1  0
 22 21  2  0
 22 23  1  0
 23 24  1  0
 25 24  2  0
  1 26  1  0
  2 27  1  0
  2 28  1  0
  3 29  1  0
  3 30  1  0
  4 31  1  0
  4 32  1  0
  7 33  1  0
  8 34  1  0
 11 35  1  0
 13 36  1  0
 17 37  1  0
 17 38  1  0
 17 39  1  0
 18 40  1  1
 19 41  1  0
 19 42  1  0
 19 43  1  0
 20 44  1  0
 20 45  1  0
 24 46  1  0
M  ISO  8  26   5  27  13  28  13  29  13  30  13  31  13  32  13  33  14
M  ISO  8  34  14  35  14  36  14  37   8  38   8  39   8  40   8  41   8
M  ISO  5  42   8  43   8  44   8  45   8  46  14
M  END
>  <minimizedAffinity>  (1) 
-3.7769587

>  <minimizedRMSD>  (1) 
5.12735271

$$$$
