
     RDKit          3D

 48 51  0  0  1  0  0  0  0  0999 V2000
   41.8960   23.5160   35.8950 N   0  0  0  0  0  0  0  0  0  0  0  0
   43.1290   23.6150   36.6840 C   0  0  0  0  0  0  0  0  0  0  0  0
   44.2950   23.3870   35.7470 C   0  0  0  0  0  0  0  0  0  0  0  0
   43.5930   23.1550   34.4130 C   0  0  0  0  0  0  0  0  0  0  0  0
   42.3590   23.9610   34.5830 C   0  0  1  0  0  0  0  0  0  0  0  0
   39.5180   23.8650   32.3900 C   0  0  0  0  0  0  0  0  0  0  0  0
   40.3820   22.9910   31.6970 C   0  0  0  0  0  0  0  0  0  0  0  0
   41.5300   22.9660   32.4850 C   0  0  0  0  0  0  0  0  0  0  0  0
   41.3720   23.7590   33.5670 N   0  0  0  0  0  0  0  0  0  0  0  0
   40.1510   24.2930   33.4920 N   0  0  0  0  0  0  0  0  0  0  0  0
   37.1470   23.3030   32.0450 C   0  0  0  0  0  0  0  0  0  0  0  0
   38.1940   24.2120   31.9580 C   0  0  0  0  0  0  0  0  0  0  0  0
   37.9700   25.4880   31.4460 C   0  0  0  0  0  0  0  0  0  0  0  0
   36.6830   25.7660   31.0470 N   0  0  0  0  0  0  0  0  0  0  0  0
   35.6840   24.8540   31.1450 C   0  0  0  0  0  0  0  0  0  0  0  0
   35.9210   23.6460   31.6380 N   0  0  0  0  0  0  0  0  0  0  0  0
   34.3180   25.2760   30.6740 C   0  0  0  0  0  0  0  0  0  0  0  0
   42.6850   25.4350   34.6170 C   0  0  2  0  0  0  0  0  0  0  0  0
   41.4570   26.2990   34.7830 C   0  0  0  0  0  0  0  0  0  0  0  0
   43.3070   25.8170   33.3050 C   0  0  0  0  0  0  0  0  0  0  0  0
   44.3470   26.8420   33.5020 N   0  0  0  0  0  0  0  0  0  0  0  0
   45.0900   26.9510   34.5990 C   0  0  0  0  0  0  0  0  0  0  0  0
   45.9520   28.0160   34.4340 C   0  0  0  0  0  0  0  0  0  0  0  0
   45.7030   28.5450   33.2040 N   0  0  0  0  0  0  0  0  0  0  0  0
   44.7230   27.8130   32.6590 C   0  0  0  0  0  0  0  0  0  0  0  0
   41.5457   22.5479   35.8628 H   0  0  0  0  0  0  0  0  0  0  0  0
   43.2036   24.6139   37.1386 H   0  0  0  0  0  0  0  0  0  0  0  0
   43.1312   22.8669   37.4905 H   0  0  0  0  0  0  0  0  0  0  0  0
   44.9514   24.2687   35.7046 H   0  0  0  0  0  0  0  0  0  0  0  0
   44.9516   22.5586   36.0513 H   0  0  0  0  0  0  0  0  0  0  0  0
   43.3599   22.0907   34.2615 H   0  0  0  0  0  0  0  0  0  0  0  0
   44.1941   23.4355   33.5355 H   0  0  0  0  0  0  0  0  0  0  0  0
   40.1931   22.4550   30.7552 H   0  0  0  0  0  0  0  0  0  0  0  0
   42.4355   22.3839   32.2587 H   0  0  0  0  0  0  0  0  0  0  0  0
   37.3278   22.2966   32.4506 H   0  0  0  0  0  0  0  0  0  0  0  0
   38.7767   26.2315   31.3653 H   0  0  0  0  0  0  0  0  0  0  0  0
   33.6752   25.4746   31.5443 H   0  0  0  0  0  0  0  0  0  0  0  0
   34.4054   26.1890   30.0668 H   0  0  0  0  0  0  0  0  0  0  0  0
   33.8752   24.4728   30.0668 H   0  0  0  0  0  0  0  0  0  0  0  0
   43.3548   25.5982   35.4742 H   0  0  0  0  0  0  0  0  0  0  0  0
   41.2521   26.4431   35.8541 H   0  0  0  0  0  0  0  0  0  0  0  0
   41.6291   27.2761   34.3079 H   0  0  0  0  0  0  0  0  0  0  0  0
   40.5955   25.8070   34.3079 H   0  0  0  0  0  0  0  0  0  0  0  0
   42.5282   26.2159   32.6384 H   0  0  0  0  0  0  0  0  0  0  0  0
   43.7696   24.9242   32.8590 H   0  0  0  0  0  0  0  0  0  0  0  0
   45.0283   26.3034   35.4860 H   0  0  0  0  0  0  0  0  0  0  0  0
   46.6992   28.3707   35.1591 H   0  0  0  0  0  0  0  0  0  0  0  0
   44.2892   27.9843   31.6628 H   0  0  0  0  0  0  0  0  0  0  0  0
  1  2  1  0
  3  2  1  0
  4  5  1  0
  4  3  1  0
  5 18  1  0
  5  1  1  0
  6 10  2  0
  7  6  1  0
  7  8  2  0
  8  9  1  0
  5  9  1  6
 10  9  1  0
 12 11  2  0
 12  6  1  0
 13 12  1  0
 14 15  1  0
 14 13  2  0
 15 16  2  0
 16 11  1  0
 17 15  1  0
 18 19  1  0
 20 21  1  0
 20 18  1  0
 21 22  1  0
 23 22  2  0
 24 23  1  0
 25 24  2  0
 25 21  1  0
  1 26  1  0
  2 27  1  0
  2 28  1  0
  3 29  1  0
  3 30  1  0
  4 31  1  0
  4 32  1  0
  7 33  1  0
  8 34  1  0
 11 35  1  0
 13 36  1  0
 17 37  1  0
 17 38  1  0
 17 39  1  0
 18 40  1  1
 19 41  1  0
 19 42  1  0
 19 43  1  0
 20 44  1  0
 20 45  1  0
 22 46  1  0
 23 47  1  0
 25 48  1  0
M  ISO  8  26   5  27  13  28  13  29  13  30  13  31  13  32  13  33  14
M  ISO  8  34  14  35  14  36  14  37   8  38   8  39   8  40   8  41   8
M  ISO  7  42   8  43   8  44   8  45   8  46  14  47  14  48  14
M  END
>  <minimizedAffinity>  (1) 
-3.67320776

>  <minimizedRMSD>  (1) 
0.506502867

$$$$
