
     RDKit          3D

 25 26  0  0  1  0  0  0  0  0999 V2000
   37.9260   24.2290   38.5320 C   0  0  0  0  0  0  0  0  0  0  0  0
   37.8830   25.0110   37.3640 C   0  0  0  0  0  0  0  0  0  0  0  0
   38.7480   24.6640   36.3100 C   0  0  0  0  0  0  0  0  0  0  0  0
   39.5710   23.6060   36.4680 N   0  0  0  0  0  0  0  0  0  0  0  0
   39.5830   22.8720   37.6170 C   0  0  0  0  0  0  0  0  0  0  0  0
   38.7650   23.1860   38.6360 N   0  0  0  0  0  0  0  0  0  0  0  0
   38.7280   25.4670   35.0650 C   0  0  1  0  0  0  0  0  0  0  0  0
   37.4510   26.2730   34.9080 C   0  0  0  0  0  0  0  0  0  0  0  0
   37.4090   26.7260   33.4890 C   0  0  0  0  0  0  0  0  0  0  0  0
   38.6860   27.0950   32.8560 C   0  0  0  0  0  0  0  0  0  0  0  0
   39.9260   27.0740   33.6520 C   0  0  0  0  0  0  0  0  0  0  0  0
   39.8170   26.5180   35.0400 C   0  0  0  0  0  0  0  0  0  0  0  0
   40.4070   21.7830   37.8230 O   0  0  0  0  0  0  0  0  0  0  0  0
   37.2619   24.4757   39.3735 H   0  0  0  0  0  0  0  0  0  0  0  0
   37.1959   25.8656   37.2773 H   0  0  0  0  0  0  0  0  0  0  0  0
   38.8471   24.7145   34.2716 H   0  0  0  0  0  0  0  0  0  0  0  0
   36.5757   25.6459   35.1329 H   0  0  0  0  0  0  0  0  0  0  0  0
   37.4326   27.1282   35.5995 H   0  0  0  0  0  0  0  0  0  0  0  0
   36.4601   26.7825   32.9356 H   0  0  0  0  0  0  0  0  0  0  0  0
   38.7143   27.3846   31.7952 H   0  0  0  0  0  0  0  0  0  0  0  0
   40.6642   26.4685   33.1058 H   0  0  0  0  0  0  0  0  0  0  0  0
   40.2087   28.1292   33.7810 H   0  0  0  0  0  0  0  0  0  0  0  0
   40.7753   26.0634   35.3316 H   0  0  0  0  0  0  0  0  0  0  0  0
   39.5712   27.3252   35.7457 H   0  0  0  0  0  0  0  0  0  0  0  0
   40.3697   21.2892   38.6803 H   0  0  0  0  0  0  0  0  0  0  0  0
  1  6  2  0
  2  1  1  0
  3  4  1  0
  3  2  2  0
  4  5  2  0
  5 13  1  0
  5  6  1  0
  7  3  1  0
  8  7  1  0
  9  8  1  0
 10  9  2  0
 10 11  1  0
 11 12  1  0
 12  7  1  0
  1 14  1  0
  2 15  1  0
  7 16  1  6
  8 17  1  0
  8 18  1  0
  9 19  1  0
 10 20  1  0
 11 21  1  0
 11 22  1  0
 12 23  1  0
 12 24  1  0
 13 25  1  0
M  ISO  8  14  14  15  14  16  13  17  13  18  13  19  13  20  13  21  13
M  ISO  4  22  13  23  13  24  13  25   3
M  END
>  <minimizedAffinity>  (1) 
-4.79305506

>  <minimizedRMSD>  (1) 
5.05990505

$$$$
