
     RDKit          3D

 21 22  0  0  0  0  0  0  0  0999 V2000
   38.1030   24.0050   38.1130 C   0  0  0  0  0  0  0  0  0  0  0  0
   37.7010   24.1220   36.7530 C   0  0  0  0  0  0  0  0  0  0  0  0
   38.3780   23.3670   35.7930 C   0  0  0  0  0  0  0  0  0  0  0  0
   39.3840   22.5600   36.2110 N   0  0  0  0  0  0  0  0  0  0  0  0
   39.7460   22.4650   37.5050 C   0  0  0  0  0  0  0  0  0  0  0  0
   39.1100   23.1810   38.4440 N   0  0  0  0  0  0  0  0  0  0  0  0
   38.0180   23.4450   34.4130 N   0  0  0  0  0  0  0  0  0  0  0  0
   37.3830   22.4150   33.8530 C   0  0  0  0  0  0  0  0  0  0  0  0
   37.0530   22.5380   32.4990 C   0  0  0  0  0  0  0  0  0  0  0  0
   37.4170   23.7100   31.8830 C   0  0  0  0  0  0  0  0  0  0  0  0
   37.1200   23.8300   30.6560 O   0  0  0  0  0  0  0  0  0  0  0  0
   38.0550   24.7310   32.4740 N   0  0  0  0  0  0  0  0  0  0  0  0
   38.3620   24.5830   33.7850 C   0  0  0  0  0  0  0  0  0  0  0  0
   38.9620   25.5410   34.3420 O   0  0  0  0  0  0  0  0  0  0  0  0
   40.7620   21.6580   37.9750 O   0  0  0  0  0  0  0  0  0  0  0  0
   37.5898   24.5885   38.8915 H   0  0  0  0  0  0  0  0  0  0  0  0
   36.8768   24.7911   36.4649 H   0  0  0  0  0  0  0  0  0  0  0  0
   37.1307   21.5118   34.4280 H   0  0  0  0  0  0  0  0  0  0  0  0
   36.5292   21.7375   31.9561 H   0  0  0  0  0  0  0  0  0  0  0  0
   38.2998   25.5868   31.9558 H   0  0  0  0  0  0  0  0  0  0  0  0
   40.9723   21.6396   38.9422 H   0  0  0  0  0  0  0  0  0  0  0  0
  1  6  2  0
  2  1  1  0
  3  4  1  0
  3  2  2  0
  4  5  2  0
  5 15  1  0
  5  6  1  0
  7  3  1  0
  8  7  1  0
  9  8  2  0
 10 12  1  0
 10  9  1  0
 11 10  2  0
 12 13  1  0
 13 14  2  0
 13  7  1  0
  1 16  1  0
  2 17  1  0
  8 18  1  0
  9 19  1  0
 12 20  1  0
 15 21  1  0
M  ISO  6  16  14  17  14  18  14  19  14  20   9  21   3
M  END
>  <minimizedAffinity>  (1) 
-4.67129564

>  <minimizedRMSD>  (1) 
5.60337639

$$$$
