
     RDKit          3D

 24 25  0  0  0  0  0  0  0  0999 V2000
   44.2420   22.4260   36.0830 C   0  0  0  0  0  0  0  0  0  0  0  0
   42.8780   22.0460   35.9250 C   0  0  0  0  0  0  0  0  0  0  0  0
   41.9400   23.0700   35.8090 C   0  0  0  0  0  0  0  0  0  0  0  0
   42.3580   24.3510   35.8500 N   0  0  0  0  0  0  0  0  0  0  0  0
   43.6620   24.6730   36.0010 C   0  0  0  0  0  0  0  0  0  0  0  0
   44.5940   23.7080   36.1160 N   0  0  0  0  0  0  0  0  0  0  0  0
   40.5880   22.6800   35.6530 N   0  0  0  0  0  0  0  0  0  0  0  0
   39.9830   22.4550   34.4760 C   0  0  0  0  0  0  0  0  0  0  0  0
   38.6690   22.0790   34.4000 C   0  0  0  0  0  0  0  0  0  0  0  0
   38.0730   21.8490   33.0560 C   0  0  0  0  0  0  0  0  0  0  0  0
   37.9900   21.9420   35.5970 C   0  0  0  0  0  0  0  0  0  0  0  0
   36.7660   21.5930   35.5400 O   0  0  0  0  0  0  0  0  0  0  0  0
   38.6120   22.1710   36.7680 N   0  0  0  0  0  0  0  0  0  0  0  0
   39.9210   22.5450   36.8250 C   0  0  0  0  0  0  0  0  0  0  0  0
   40.4560   22.7480   37.9540 O   0  0  0  0  0  0  0  0  0  0  0  0
   44.1140   25.9770   36.0460 O   0  0  0  0  0  0  0  0  0  0  0  0
   45.0143   21.6486   36.1790 H   0  0  0  0  0  0  0  0  0  0  0  0
   42.5778   20.9882   35.8958 H   0  0  0  0  0  0  0  0  0  0  0  0
   40.5591   22.5761   33.5468 H   0  0  0  0  0  0  0  0  0  0  0  0
   37.0523   21.4551   33.1701 H   0  0  0  0  0  0  0  0  0  0  0  0
   38.0397   22.7989   32.5022 H   0  0  0  0  0  0  0  0  0  0  0  0
   38.6864   21.1230   32.5022 H   0  0  0  0  0  0  0  0  0  0  0  0
   38.0841   22.0605   37.6455 H   0  0  0  0  0  0  0  0  0  0  0  0
   45.0800   26.1625   36.1582 H   0  0  0  0  0  0  0  0  0  0  0  0
  1  6  2  0
  2  1  1  0
  3  4  1  0
  3  2  2  0
  4  5  2  0
  5 16  1  0
  5  6  1  0
  7  3  1  0
  7 14  1  0
  8  7  1  0
  9  8  2  0
  9 11  1  0
 10  9  1  0
 11 13  1  0
 12 11  2  0
 13 14  1  0
 14 15  2  0
  1 17  1  0
  2 18  1  0
  8 19  1  0
 10 20  1  0
 10 21  1  0
 10 22  1  0
 13 23  1  0
 16 24  1  0
M  ISO  8  17  14  18  14  19  14  20   8  21   8  22   8  23   9  24   3
M  END
>  <minimizedAffinity>  (1) 
-4.24634552

>  <minimizedRMSD>  (1) 
6.07474756

$$$$
