
     RDKit          3D

 19 20  0  0  0  0  0  0  0  0999 V2000
   38.4670   23.6660   38.3920 C   0  0  0  0  0  0  0  0  0  0  0  0
   37.9060   24.4730   37.3810 C   0  0  0  0  0  0  0  0  0  0  0  0
   38.5150   24.4170   36.1280 C   0  0  0  0  0  0  0  0  0  0  0  0
   39.5810   23.6150   35.9530 N   0  0  0  0  0  0  0  0  0  0  0  0
   40.0890   22.8570   36.9480 C   0  0  0  0  0  0  0  0  0  0  0  0
   39.5220   22.8920   38.1600 N   0  0  0  0  0  0  0  0  0  0  0  0
   37.9580   25.2410   35.0600 C   0  0  0  0  0  0  0  0  0  0  0  0
   37.9450   24.7550   33.7610 C   0  0  0  0  0  0  0  0  0  0  0  0
   37.3950   25.6290   32.8580 C   0  0  0  0  0  0  0  0  0  0  0  0
   36.9130   26.8250   33.1480 N   0  0  0  0  0  0  0  0  0  0  0  0
   36.9510   27.2540   34.4410 C   0  0  0  0  0  0  0  0  0  0  0  0
   37.4790   26.4410   35.3730 N   0  0  0  0  0  0  0  0  0  0  0  0
   41.1790   22.0240   36.8030 O   0  0  0  0  0  0  0  0  0  0  0  0
   38.0205   23.6774   39.3972 H   0  0  0  0  0  0  0  0  0  0  0  0
   37.0325   25.1140   37.5711 H   0  0  0  0  0  0  0  0  0  0  0  0
   38.3372   23.7658   33.4822 H   0  0  0  0  0  0  0  0  0  0  0  0
   37.3516   25.3082   31.8067 H   0  0  0  0  0  0  0  0  0  0  0  0
   36.5582   28.2439   34.7163 H   0  0  0  0  0  0  0  0  0  0  0  0
   41.5026   21.4935   37.5737 H   0  0  0  0  0  0  0  0  0  0  0  0
  2  1  2  0
  3  2  1  0
  4  3  2  0
  4  5  1  0
  5  6  2  0
  6  1  1  0
  7 12  1  0
  7  3  1  0
  8  7  2  0
  9 10  2  0
  9  8  1  0
 10 11  1  0
 11 12  2  0
 13  5  1  0
  1 14  1  0
  2 15  1  0
  8 16  1  0
  9 17  1  0
 11 18  1  0
 13 19  1  0
M  ISO  6  14  14  15  14  16  14  17  14  18  14  19   3
M  END
>  <minimizedAffinity>  (1) 
-3.87140584

>  <minimizedRMSD>  (1) 
4.51219606

$$$$
