
     RDKit          3D

 18 19  0  0  0  0  0  0  0  0999 V2000
   38.2830   23.9560   38.5300 C   0  0  0  0  0  0  0  0  0  0  0  0
   37.8310   24.8670   37.5460 C   0  0  0  0  0  0  0  0  0  0  0  0
   38.3310   24.7320   36.2500 C   0  0  0  0  0  0  0  0  0  0  0  0
   39.2140   23.7440   36.0060 N   0  0  0  0  0  0  0  0  0  0  0  0
   39.6280   22.8810   36.9800 C   0  0  0  0  0  0  0  0  0  0  0  0
   39.1570   23.0000   38.2230 N   0  0  0  0  0  0  0  0  0  0  0  0
   37.8820   25.6580   35.2170 C   0  0  0  0  0  0  0  0  0  0  0  0
   37.6410   26.9900   35.3360 C   0  0  0  0  0  0  0  0  0  0  0  0
   37.2450   27.3530   34.0560 C   0  0  0  0  0  0  0  0  0  0  0  0
   37.2500   26.2990   33.2230 N   0  0  0  0  0  0  0  0  0  0  0  0
   37.6450   25.2810   33.9690 N   0  0  0  0  0  0  0  0  0  0  0  0
   40.5270   21.8640   36.7600 O   0  0  0  0  0  0  0  0  0  0  0  0
   37.9077   24.0388   39.5607 H   0  0  0  0  0  0  0  0  0  0  0  0
   37.1076   25.6574   37.7950 H   0  0  0  0  0  0  0  0  0  0  0  0
   37.7364   27.6255   36.2288 H   0  0  0  0  0  0  0  0  0  0  0  0
   36.9628   28.3745   33.7611 H   0  0  0  0  0  0  0  0  0  0  0  0
   37.0011   26.2865   32.2236 H   0  0  0  0  0  0  0  0  0  0  0  0
   40.7916   21.2676   37.5045 H   0  0  0  0  0  0  0  0  0  0  0  0
  2  1  2  0
  3  2  1  0
  4  3  2  0
  4  5  1  0
  5  6  2  0
  6  1  1  0
  7  8  1  0
  7  3  1  0
  9  8  2  0
 10 11  1  0
 10  9  1  0
 11  7  2  0
 12  5  1  0
  1 13  1  0
  2 14  1  0
  8 15  1  0
  9 16  1  0
 10 17  1  0
 12 18  1  0
M  ISO  6  13  14  14  14  15  14  16  14  17   9  18   3
M  END
>  <minimizedAffinity>  (1) 
-3.71308255

>  <minimizedRMSD>  (1) 
4.18453455

$$$$
