
     RDKit          3D

 18 19  0  0  0  0  0  0  0  0999 V2000
   38.0190   24.1970   38.3180 C   0  0  0  0  0  0  0  0  0  0  0  0
   37.8980   24.7240   37.0000 C   0  0  0  0  0  0  0  0  0  0  0  0
   38.7350   24.1900   36.0190 C   0  0  0  0  0  0  0  0  0  0  0  0
   39.6000   23.2180   36.3670 N   0  0  0  0  0  0  0  0  0  0  0  0
   39.6950   22.7350   37.6270 C   0  0  0  0  0  0  0  0  0  0  0  0
   38.9020   23.2300   38.5910 N   0  0  0  0  0  0  0  0  0  0  0  0
   38.6460   24.7050   34.6390 C   0  0  0  0  0  0  0  0  0  0  0  0
   39.3800   24.1240   33.5150 C   0  0  0  0  0  0  0  0  0  0  0  0
   37.9630   23.7330   33.6940 C   0  0  0  0  0  0  0  0  0  0  0  0
   40.5730   21.7380   38.0180 O   0  0  0  0  0  0  0  0  0  0  0  0
   37.3784   24.5901   39.1211 H   0  0  0  0  0  0  0  0  0  0  0  0
   37.1748   25.5189   36.7652 H   0  0  0  0  0  0  0  0  0  0  0  0
   38.5617   25.7469   34.9815 H   0  0  0  0  0  0  0  0  0  0  0  0
   40.1756   23.3889   33.7064 H   0  0  0  0  0  0  0  0  0  0  0  0
   39.9581   24.5447   32.6791 H   0  0  0  0  0  0  0  0  0  0  0  0
   37.1963   24.0898   32.9906 H   0  0  0  0  0  0  0  0  0  0  0  0
   37.4153   22.7850   33.8004 H   0  0  0  0  0  0  0  0  0  0  0  0
   40.5880   21.4329   38.9597 H   0  0  0  0  0  0  0  0  0  0  0  0
  1  6  2  0
  2  1  1  0
  3  4  1  0
  3  2  2  0
  4  5  2  0
  5 10  1  0
  5  6  1  0
  7  3  1  0
  8  9  1  0
  8  7  1  0
  9  7  1  0
  1 11  1  0
  2 12  1  0
  7 13  1  0
  8 14  1  0
  8 15  1  0
  9 16  1  0
  9 17  1  0
 10 18  1  0
M  ISO  8  11  14  12  14  13  13  14  13  15  13  16  13  17  13  18   3
M  END
>  <minimizedAffinity>  (1) 
-3.6279707

>  <minimizedRMSD>  (1) 
4.11381674

$$$$
