
     RDKit          3D

 21 22  0  0  0  0  0  0  0  0999 V2000
   40.9290   21.7800   37.4330 C   0  0  0  0  0  0  0  0  0  0  0  0
   40.2040   22.9640   37.1960 C   0  0  0  0  0  0  0  0  0  0  0  0
   40.3500   23.5680   35.9490 C   0  0  0  0  0  0  0  0  0  0  0  0
   41.1620   23.0110   35.0330 N   0  0  0  0  0  0  0  0  0  0  0  0
   41.8490   21.8630   35.2980 C   0  0  0  0  0  0  0  0  0  0  0  0
   41.7190   21.2700   36.4940 N   0  0  0  0  0  0  0  0  0  0  0  0
   39.6560   24.7940   35.5770 C   0  0  0  0  0  0  0  0  0  0  0  0
   38.3140   24.8890   35.8630 C   0  0  0  0  0  0  0  0  0  0  0  0
   37.6010   26.0360   35.5300 C   0  0  0  0  0  0  0  0  0  0  0  0
   38.2220   27.1070   34.9050 C   0  0  0  0  0  0  0  0  0  0  0  0
   39.5560   27.0190   34.6170 C   0  0  0  0  0  0  0  0  0  0  0  0
   40.2440   25.8750   34.9550 C   0  0  0  0  0  0  0  0  0  0  0  0
   42.6920   21.2600   34.3870 O   0  0  0  0  0  0  0  0  0  0  0  0
   40.8404   21.2725   38.4049 H   0  0  0  0  0  0  0  0  0  0  0  0
   39.5475   23.3954   37.9660 H   0  0  0  0  0  0  0  0  0  0  0  0
   37.8008   24.0518   36.3587 H   0  0  0  0  0  0  0  0  0  0  0  0
   36.5282   26.0945   35.7660 H   0  0  0  0  0  0  0  0  0  0  0  0
   37.6517   28.0111   34.6455 H   0  0  0  0  0  0  0  0  0  0  0  0
   40.0738   27.8530   34.1207 H   0  0  0  0  0  0  0  0  0  0  0  0
   41.3165   25.8209   34.7168 H   0  0  0  0  0  0  0  0  0  0  0  0
   43.1679   20.4264   34.6294 H   0  0  0  0  0  0  0  0  0  0  0  0
  2  1  2  0
  3  2  1  0
  4  5  1  0
  4  3  2  0
  5  6  2  0
  6  1  1  0
  7  8  2  0
  7  3  1  0
  9  8  1  0
 10  9  2  0
 11 10  1  0
 11 12  2  0
 12  7  1  0
 13  5  1  0
  1 14  1  0
  2 15  1  0
  8 16  1  0
  9 17  1  0
 10 18  1  0
 11 19  1  0
 12 20  1  0
 13 21  1  0
M  ISO  8  14  14  15  14  16  14  17  14  18  14  19  14  20  14  21   3
M  END
>  <minimizedAffinity>  (1) 
-3.60130358

>  <minimizedRMSD>  (1) 
4.52949953

$$$$
