
     RDKit          3D

 14 14  0  0  0  0  0  0  0  0999 V2000
   41.3330   22.1190   36.4210 C   0  0  0  0  0  0  0  0  0  0  0  0
   40.5150   22.3790   37.5560 C   0  0  0  0  0  0  0  0  0  0  0  0
   39.3560   23.1250   37.3570 C   0  0  0  0  0  0  0  0  0  0  0  0
   39.0550   23.5660   36.1200 N   0  0  0  0  0  0  0  0  0  0  0  0
   39.8570   23.2980   35.0570 C   0  0  0  0  0  0  0  0  0  0  0  0
   40.9740   22.5880   35.2090 N   0  0  0  0  0  0  0  0  0  0  0  0
   39.5790   23.7340   33.7750 O   0  0  0  0  0  0  0  0  0  0  0  0
   38.4900   23.4180   38.4880 C   0  0  0  0  0  0  0  0  0  0  0  0
   38.0200   24.5780   38.6130 O   0  0  0  0  0  0  0  0  0  0  0  0
   38.2040   22.4120   39.3980 O   0  0  0  0  0  0  0  0  0  0  0  0
   42.2586   21.5352   36.5325 H   0  0  0  0  0  0  0  0  0  0  0  0
   40.7880   22.0046   38.5536 H   0  0  0  0  0  0  0  0  0  0  0  0
   38.7629   24.2662   33.5992 H   0  0  0  0  0  0  0  0  0  0  0  0
   37.6159   22.5976   40.1725 H   0  0  0  0  0  0  0  0  0  0  0  0
  1  2  2  0
  3  2  1  0
  3  8  1  0
  4  3  2  0
  5  6  2  0
  5  4  1  0
  6  1  1  0
  7  5  1  0
  8  9  2  0
  8 10  1  0
  1 11  1  0
  2 12  1  0
  7 13  1  0
 10 14  1  0
M  ISO  4  11  14  12  14  13   3  14   3
M  END
>  <minimizedAffinity>  (1) 
-3.47036076

>  <minimizedRMSD>  (1) 
1.99129617

$$$$
