
     RDKit          3D

 23 23  0  0  0  0  0  0  0  0999 V2000
   41.7190   21.8250   37.1070 C   0  0  0  0  0  0  0  0  0  0  0  0
   40.4160   22.1830   37.5050 C   0  0  0  0  0  0  0  0  0  0  0  0
   39.7870   23.2010   36.7880 C   0  0  0  0  0  0  0  0  0  0  0  0
   40.4560   23.7820   35.7600 N   0  0  0  0  0  0  0  0  0  0  0  0
   41.7080   23.4100   35.4080 C   0  0  0  0  0  0  0  0  0  0  0  0
   42.3310   22.4350   36.0830 N   0  0  0  0  0  0  0  0  0  0  0  0
   38.4060   23.6490   37.1360 C   0  0  0  0  0  0  0  0  0  0  0  0
   38.3270   23.7050   38.6440 C   0  0  0  0  0  0  0  0  0  0  0  0
   37.4100   22.6890   36.5690 C   0  0  0  0  0  0  0  0  0  0  0  0
   38.1470   25.0240   36.5610 C   0  0  0  0  0  0  0  0  0  0  0  0
   42.4070   23.9920   34.3620 O   0  0  0  0  0  0  0  0  0  0  0  0
   42.2462   21.0263   37.6494 H   0  0  0  0  0  0  0  0  0  0  0  0
   39.9154   21.6808   38.3460 H   0  0  0  0  0  0  0  0  0  0  0  0
   39.1522   23.1201   39.0764 H   0  0  0  0  0  0  0  0  0  0  0  0
   38.4051   24.7506   38.9767 H   0  0  0  0  0  0  0  0  0  0  0  0
   37.3663   23.2851   38.9767 H   0  0  0  0  0  0  0  0  0  0  0  0
   36.8825   22.1806   37.3896 H   0  0  0  0  0  0  0  0  0  0  0  0
   36.6840   23.2367   35.9501 H   0  0  0  0  0  0  0  0  0  0  0  0
   37.9306   21.9434   35.9501 H   0  0  0  0  0  0  0  0  0  0  0  0
   38.0113   25.7447   37.3809 H   0  0  0  0  0  0  0  0  0  0  0  0
   39.0033   25.3298   35.9420 H   0  0  0  0  0  0  0  0  0  0  0  0
   37.2381   24.9973   35.9420 H   0  0  0  0  0  0  0  0  0  0  0  0
   43.3220   23.6824   34.1453 H   0  0  0  0  0  0  0  0  0  0  0  0
  1  2  2  0
  3  7  1  0
  3  2  1  0
  4  3  2  0
  5  4  1  0
  5  6  2  0
  6  1  1  0
  7  8  1  0
  9  7  1  0
 10  7  1  0
 11  5  1  0
  1 12  1  0
  2 13  1  0
  8 14  1  0
  8 15  1  0
  8 16  1  0
  9 17  1  0
  9 18  1  0
  9 19  1  0
 10 20  1  0
 10 21  1  0
 10 22  1  0
 11 23  1  0
M  ISO  8  12  14  13  14  14   8  15   8  16   8  17   8  18   8  19   8
M  ISO  4  20   8  21   8  22   8  23   3
M  END
>  <minimizedAffinity>  (1) 
-3.34015012

>  <minimizedRMSD>  (1) 
3.00034761

$$$$
