
     RDKit          3D

 17 17  0  0  0  0  0  0  0  0999 V2000
   40.9920   22.0780   36.2490 C   0  0  0  0  0  0  0  0  0  0  0  0
   40.6310   22.5830   37.5140 C   0  0  0  0  0  0  0  0  0  0  0  0
   39.2940   22.9940   37.6750 C   0  0  0  0  0  0  0  0  0  0  0  0
   38.4460   22.8870   36.6320 N   0  0  0  0  0  0  0  0  0  0  0  0
   38.8480   22.3950   35.4400 C   0  0  0  0  0  0  0  0  0  0  0  0
   40.1020   21.9940   35.2420 N   0  0  0  0  0  0  0  0  0  0  0  0
   38.0130   22.2610   34.3270 O   0  0  0  0  0  0  0  0  0  0  0  0
   38.7520   23.5450   38.9310 C   0  0  0  0  0  0  0  0  0  0  0  0
   37.8610   24.7380   38.6620 C   0  0  0  0  0  0  0  0  0  0  0  0
   42.0264   21.7442   36.0799 H   0  0  0  0  0  0  0  0  0  0  0  0
   41.3586   22.6528   38.3360 H   0  0  0  0  0  0  0  0  0  0  0  0
   38.3712   21.8922   33.4810 H   0  0  0  0  0  0  0  0  0  0  0  0
   38.1659   22.7666   39.4415 H   0  0  0  0  0  0  0  0  0  0  0  0
   39.5925   23.8714   39.5611 H   0  0  0  0  0  0  0  0  0  0  0  0
   37.5348   25.1748   39.6174 H   0  0  0  0  0  0  0  0  0  0  0  0
   38.4198   25.4907   38.0865 H   0  0  0  0  0  0  0  0  0  0  0  0
   36.9806   24.4158   38.0865 H   0  0  0  0  0  0  0  0  0  0  0  0
  1  2  2  0
  2  3  1  0
  3  8  1  0
  4  3  2  0
  5  4  1  0
  6  5  2  0
  6  1  1  0
  7  5  1  0
  9  8  1  0
  1 10  1  0
  2 11  1  0
  7 12  1  0
  8 13  1  0
  8 14  1  0
  9 15  1  0
  9 16  1  0
  9 17  1  0
M  ISO  8  10  14  11  14  12   3  13   8  14   8  15   8  16   8  17   8
M  END
>  <minimizedAffinity>  (1) 
-3.01107812

>  <minimizedRMSD>  (1) 
1.55050993

$$$$
