
     RDKit          3D

 30 31  0  0  0  0  0  0  0  0999 V2000
   37.7080   23.4930   37.6210 C   0  0  0  0  0  0  0  0  0  0  0  0
   37.9720   24.8560   37.4410 C   0  0  0  0  0  0  0  0  0  0  0  0
   38.3080   25.2990   36.1570 C   0  0  0  0  0  0  0  0  0  0  0  0
   38.3630   24.3810   35.1360 N   0  0  0  0  0  0  0  0  0  0  0  0
   38.0980   23.0730   35.3650 C   0  0  0  0  0  0  0  0  0  0  0  0
   37.7730   22.6240   36.5950 N   0  0  0  0  0  0  0  0  0  0  0  0
   38.5820   26.7060   35.8440 C   0  0  0  0  0  0  0  0  0  0  0  0
   37.4650   27.4120   35.1430 C   0  0  0  0  0  0  0  0  0  0  0  0
   39.8700   26.8600   35.0350 C   0  0  0  0  0  0  0  0  0  0  0  0
   38.1440   22.1270   34.3530 O   0  0  0  0  0  0  0  0  0  0  0  0
   37.1380   21.9040   33.4650 C   0  0  0  0  0  0  0  0  0  0  0  0
   36.3040   20.8520   33.7980 C   0  0  0  0  0  0  0  0  0  0  0  0
   35.2330   20.5080   32.9860 C   0  0  0  0  0  0  0  0  0  0  0  0
   34.9910   21.2130   31.8380 C   0  0  0  0  0  0  0  0  0  0  0  0
   35.7990   22.2590   31.4810 C   0  0  0  0  0  0  0  0  0  0  0  0
   36.8710   22.6060   32.2920 C   0  0  0  0  0  0  0  0  0  0  0  0
   37.4417   23.1242   38.6225 H   0  0  0  0  0  0  0  0  0  0  0  0
   37.9168   25.5590   38.2853 H   0  0  0  0  0  0  0  0  0  0  0  0
   38.6958   27.1893   36.8256 H   0  0  0  0  0  0  0  0  0  0  0  0
   36.7804   27.8447   35.8873 H   0  0  0  0  0  0  0  0  0  0  0  0
   37.8765   28.2144   34.5131 H   0  0  0  0  0  0  0  0  0  0  0  0
   36.9168   26.6960   34.5131 H   0  0  0  0  0  0  0  0  0  0  0  0
   40.7238   26.9621   35.7209 H   0  0  0  0  0  0  0  0  0  0  0  0
   40.0131   25.9726   34.4010 H   0  0  0  0  0  0  0  0  0  0  0  0
   39.7998   27.7562   34.4010 H   0  0  0  0  0  0  0  0  0  0  0  0
   36.4924   20.2806   34.7188 H   0  0  0  0  0  0  0  0  0  0  0  0
   34.5785   19.6690   33.2647 H   0  0  0  0  0  0  0  0  0  0  0  0
   34.1406   20.9370   31.1972 H   0  0  0  0  0  0  0  0  0  0  0  0
   35.5999   22.8213   30.5568 H   0  0  0  0  0  0  0  0  0  0  0  0
   37.5187   23.4472   32.0042 H   0  0  0  0  0  0  0  0  0  0  0  0
  2  1  2  0
  3  2  1  0
  4  5  1  0
  4  3  2  0
  5  6  2  0
  6  1  1  0
  7  3  1  0
  8  7  1  0
  9  7  1  0
 10  5  1  0
 11 12  2  0
 11 10  1  0
 13 12  1  0
 14 13  2  0
 15 14  1  0
 15 16  2  0
 16 11  1  0
  1 17  1  0
  2 18  1  0
  7 19  1  0
  8 20  1  0
  8 21  1  0
  8 22  1  0
  9 23  1  0
  9 24  1  0
  9 25  1  0
 12 26  1  0
 13 27  1  0
 14 28  1  0
 15 29  1  0
 16 30  1  0
M  ISO  8  17  14  18  14  19   8  20   8  21   8  22   8  23   8  24   8
M  ISO  6  25   8  26  14  27  14  28  14  29  14  30  14
M  END
>  <minimizedAffinity>  (1) 
-4.92302418

>  <minimizedRMSD>  (1) 
5.43078041

$$$$
