
     RDKit          3D

 36 38  0  0  0  0  0  0  0  0999 V2000
   39.0030   23.0520   37.4580 C   0  0  0  0  0  0  0  0  0  0  0  0
   38.1410   24.0710   37.0310 C   0  0  0  0  0  0  0  0  0  0  0  0
   38.5810   24.9160   36.0070 C   0  0  0  0  0  0  0  0  0  0  0  0
   39.8250   24.7180   35.4650 N   0  0  0  0  0  0  0  0  0  0  0  0
   40.6220   23.7170   35.9110 C   0  0  0  0  0  0  0  0  0  0  0  0
   40.2070   22.8950   36.9000 N   0  0  0  0  0  0  0  0  0  0  0  0
   37.7310   26.0060   35.4740 C   0  0  0  0  0  0  0  0  0  0  0  0
   37.4890   25.9100   34.0000 C   0  0  0  0  0  0  0  0  0  0  0  0
   38.2980   27.3820   35.8190 C   0  0  0  0  0  0  0  0  0  0  0  0
   41.8700   23.4970   35.3810 O   0  0  0  0  0  0  0  0  0  0  0  0
   42.6950   24.3330   34.7070 C   0  0  0  0  0  0  0  0  0  0  0  0
   42.7400   24.8030   33.4150 C   0  0  0  0  0  0  0  0  0  0  0  0
   43.6820   25.6670   32.9100 C   0  0  0  0  0  0  0  0  0  0  0  0
   44.6470   26.0850   33.7830 C   0  0  0  0  0  0  0  0  0  0  0  0
   44.6970   25.6830   35.0800 C   0  0  0  0  0  0  0  0  0  0  0  0
   45.7130   26.1770   35.8360 C   0  0  0  0  0  0  0  0  0  0  0  0
   45.8040   25.7980   37.1590 C   0  0  0  0  0  0  0  0  0  0  0  0
   44.8760   24.9370   37.6830 C   0  0  0  0  0  0  0  0  0  0  0  0
   43.8700   24.4640   36.8860 C   0  0  0  0  0  0  0  0  0  0  0  0
   43.7150   24.8010   35.5470 C   0  0  0  0  0  0  0  0  0  0  0  0
   38.6845   22.3729   38.2626 H   0  0  0  0  0  0  0  0  0  0  0  0
   37.1487   24.2023   37.4872 H   0  0  0  0  0  0  0  0  0  0  0  0
   36.7573   25.8807   35.9702 H   0  0  0  0  0  0  0  0  0  0  0  0
   36.4804   25.5099   33.8193 H   0  0  0  0  0  0  0  0  0  0  0  0
   37.5732   26.9096   33.5487 H   0  0  0  0  0  0  0  0  0  0  0  0
   38.2356   25.2399   33.5487 H   0  0  0  0  0  0  0  0  0  0  0  0
   38.3449   27.4957   36.9121 H   0  0  0  0  0  0  0  0  0  0  0  0
   39.3091   27.4783   35.3967 H   0  0  0  0  0  0  0  0  0  0  0  0
   37.6483   28.1627   35.3967 H   0  0  0  0  0  0  0  0  0  0  0  0
   41.9545   24.4576   32.7268 H   0  0  0  0  0  0  0  0  0  0  0  0
   43.6605   26.0030   31.8628 H   0  0  0  0  0  0  0  0  0  0  0  0
   45.4189   26.7789   33.4188 H   0  0  0  0  0  0  0  0  0  0  0  0
   46.4501   26.8673   35.4000 H   0  0  0  0  0  0  0  0  0  0  0  0
   46.6175   26.1850   37.7902 H   0  0  0  0  0  0  0  0  0  0  0  0
   44.9395   24.6284   38.7369 H   0  0  0  0  0  0  0  0  0  0  0  0
   43.1386   23.7743   37.3326 H   0  0  0  0  0  0  0  0  0  0  0  0
  2  1  2  0
  3  2  1  0
  4  5  1  0
  4  3  2  0
  5  6  2  0
  6  1  1  0
  7  9  1  0
  7  3  1  0
  8  7  1  0
 10  5  1  0
 11 10  1  0
 11 20  1  0
 12 11  2  0
 13 12  1  0
 13 14  2  0
 14 15  1  0
 15 20  2  0
 15 16  1  0
 16 17  2  0
 17 18  1  0
 19 18  2  0
 20 19  1  0
  1 21  1  0
  2 22  1  0
  7 23  1  0
  8 24  1  0
  8 25  1  0
  8 26  1  0
  9 27  1  0
  9 28  1  0
  9 29  1  0
 12 30  1  0
 13 31  1  0
 14 32  1  0
 16 33  1  0
 17 34  1  0
 18 35  1  0
 19 36  1  0
M  ISO  8  21  14  22  14  23   8  24   8  25   8  26   8  27   8  28   8
M  ISO  8  29   8  30  14  31  14  32  14  33  14  34  14  35  14  36  14
M  END
>  <minimizedAffinity>  (1) 
-4.78702736

>  <minimizedRMSD>  (1) 
3.67959285

$$$$
