
     RDKit          3D

 36 37  0  0  0  0  0  0  0  0999 V2000
   38.5290   23.5310   38.5420 C   0  0  0  0  0  0  0  0  0  0  0  0
   37.9250   24.5790   37.8280 C   0  0  0  0  0  0  0  0  0  0  0  0
   38.3210   24.7770   36.5010 C   0  0  0  0  0  0  0  0  0  0  0  0
   39.2710   23.9490   35.9580 N   0  0  0  0  0  0  0  0  0  0  0  0
   39.8090   22.9600   36.7050 C   0  0  0  0  0  0  0  0  0  0  0  0
   39.4520   22.7460   37.9750 N   0  0  0  0  0  0  0  0  0  0  0  0
   37.7390   25.8290   35.6340 C   0  0  0  0  0  0  0  0  0  0  0  0
   37.7750   25.4960   34.1740 C   0  0  0  0  0  0  0  0  0  0  0  0
   38.4090   27.1790   35.8770 C   0  0  0  0  0  0  0  0  0  0  0  0
   40.7710   22.0890   36.2020 O   0  0  0  0  0  0  0  0  0  0  0  0
   41.9670   21.9760   36.9640 C   0  0  0  0  0  0  0  0  0  0  0  0
   42.6310   20.6390   36.7700 C   0  0  0  0  0  0  0  0  0  0  0  0
   43.9700   20.7930   36.0930 C   0  0  0  0  0  0  0  0  0  0  0  0
   43.8540   21.6290   34.8380 C   0  0  0  0  0  0  0  0  0  0  0  0
   43.2710   22.9770   35.1570 C   0  0  0  0  0  0  0  0  0  0  0  0
   42.9450   23.0740   36.6290 C   0  0  0  0  0  0  0  0  0  0  0  0
   38.2375   23.3523   39.5875 H   0  0  0  0  0  0  0  0  0  0  0  0
   37.1659   25.2226   38.2967 H   0  0  0  0  0  0  0  0  0  0  0  0
   36.6784   25.8881   35.9198 H   0  0  0  0  0  0  0  0  0  0  0  0
   37.8925   24.4095   34.0485 H   0  0  0  0  0  0  0  0  0  0  0  0
   36.8365   25.8204   33.7007 H   0  0  0  0  0  0  0  0  0  0  0  0
   38.6224   26.0135   33.7007 H   0  0  0  0  0  0  0  0  0  0  0  0
   38.4965   27.3554   36.9592 H   0  0  0  0  0  0  0  0  0  0  0  0
   39.4111   27.1779   35.4234 H   0  0  0  0  0  0  0  0  0  0  0  0
   37.8021   27.9765   35.4234 H   0  0  0  0  0  0  0  0  0  0  0  0
   41.6708   22.0720   38.0190 H   0  0  0  0  0  0  0  0  0  0  0  0
   42.7768   20.1641   37.7514 H   0  0  0  0  0  0  0  0  0  0  0  0
   41.9857   20.0167   36.1325 H   0  0  0  0  0  0  0  0  0  0  0  0
   44.6691   21.2824   36.7871 H   0  0  0  0  0  0  0  0  0  0  0  0
   44.3369   19.7942   35.8141 H   0  0  0  0  0  0  0  0  0  0  0  0
   43.2014   21.1132   34.1182 H   0  0  0  0  0  0  0  0  0  0  0  0
   44.8570   21.7673   34.4081 H   0  0  0  0  0  0  0  0  0  0  0  0
   43.9995   23.7584   34.8947 H   0  0  0  0  0  0  0  0  0  0  0  0
   42.3464   23.1126   34.5767 H   0  0  0  0  0  0  0  0  0  0  0  0
   43.8624   22.9507   37.2233 H   0  0  0  0  0  0  0  0  0  0  0  0
   42.5088   24.0572   36.8594 H   0  0  0  0  0  0  0  0  0  0  0  0
  2  1  2  0
  3  2  1  0
  4  3  2  0
  4  5  1  0
  5  6  2  0
  6  1  1  0
  7  9  1  0
  7  3  1  0
  8  7  1  0
 10  5  1  0
 10 11  1  0
 12 11  1  0
 13 12  1  0
 14 15  1  0
 14 13  1  0
 15 16  1  0
 16 11  1  0
  1 17  1  0
  2 18  1  0
  7 19  1  0
  8 20  1  0
  8 21  1  0
  8 22  1  0
  9 23  1  0
  9 24  1  0
  9 25  1  0
 11 26  1  0
 12 27  1  0
 12 28  1  0
 13 29  1  0
 13 30  1  0
 14 31  1  0
 14 32  1  0
 15 33  1  0
 15 34  1  0
 16 35  1  0
 16 36  1  0
M  ISO  8  17  14  18  14  19   8  20   8  21   8  22   8  23   8  24   8
M  ISO  8  25   8  26  13  27  13  28  13  29  13  30  13  31  13  32  13
M  ISO  4  33  13  34  13  35  13  36  13
M  END
>  <minimizedAffinity>  (1) 
-4.35990286

>  <minimizedRMSD>  (1) 
2.46525455

$$$$
