
     RDKit          3D

 33 34  0  0  0  0  0  0  0  0999 V2000
   38.7740   23.3900   38.2170 C   0  0  0  0  0  0  0  0  0  0  0  0
   38.0580   24.4500   37.6560 C   0  0  0  0  0  0  0  0  0  0  0  0
   38.3620   24.8290   36.3390 C   0  0  0  0  0  0  0  0  0  0  0  0
   39.3320   24.1470   35.6860 N   0  0  0  0  0  0  0  0  0  0  0  0
   40.0050   23.1240   36.2610 C   0  0  0  0  0  0  0  0  0  0  0  0
   39.7240   22.7490   37.5280 N   0  0  0  0  0  0  0  0  0  0  0  0
   37.6570   25.9190   35.6460 C   0  0  0  0  0  0  0  0  0  0  0  0
   37.5450   25.7230   34.1690 C   0  0  0  0  0  0  0  0  0  0  0  0
   38.3090   27.2720   35.9370 C   0  0  0  0  0  0  0  0  0  0  0  0
   41.0040   22.4030   35.6140 O   0  0  0  0  0  0  0  0  0  0  0  0
   42.2940   22.9510   35.3800 C   0  0  0  0  0  0  0  0  0  0  0  0
   43.2240   22.7490   36.5330 C   0  0  0  0  0  0  0  0  0  0  0  0
   43.8730   24.0990   36.8270 C   0  0  0  0  0  0  0  0  0  0  0  0
   43.5320   24.9520   35.6290 C   0  0  0  0  0  0  0  0  0  0  0  0
   42.1550   24.4630   35.2860 C   0  0  0  0  0  0  0  0  0  0  0  0
   38.5517   23.0758   39.2475 H   0  0  0  0  0  0  0  0  0  0  0  0
   37.2784   24.9727   38.2296 H   0  0  0  0  0  0  0  0  0  0  0  0
   36.6338   25.9036   36.0494 H   0  0  0  0  0  0  0  0  0  0  0  0
   37.0089   24.7848   33.9632 H   0  0  0  0  0  0  0  0  0  0  0  0
   36.9920   26.5656   33.7282 H   0  0  0  0  0  0  0  0  0  0  0  0
   38.5516   25.6744   33.7282 H   0  0  0  0  0  0  0  0  0  0  0  0
   38.3796   27.4186   37.0249 H   0  0  0  0  0  0  0  0  0  0  0  0
   39.3172   27.2952   35.4977 H   0  0  0  0  0  0  0  0  0  0  0  0
   37.6990   28.0750   35.4977 H   0  0  0  0  0  0  0  0  0  0  0  0
   42.6842   22.4614   34.4755 H   0  0  0  0  0  0  0  0  0  0  0  0
   42.6639   22.3998   37.4130 H   0  0  0  0  0  0  0  0  0  0  0  0
   43.9854   21.9919   36.2943 H   0  0  0  0  0  0  0  0  0  0  0  0
   43.4587   24.5374   37.7469 H   0  0  0  0  0  0  0  0  0  0  0  0
   44.9583   24.0154   36.9853 H   0  0  0  0  0  0  0  0  0  0  0  0
   43.5245   26.0211   35.8876 H   0  0  0  0  0  0  0  0  0  0  0  0
   44.2532   24.8682   34.8027 H   0  0  0  0  0  0  0  0  0  0  0  0
   41.8681   24.7710   34.2697 H   0  0  0  0  0  0  0  0  0  0  0  0
   41.3746   24.8680   35.9471 H   0  0  0  0  0  0  0  0  0  0  0  0
  2  1  2  0
  3  2  1  0
  4  5  1  0
  4  3  2  0
  5  6  2  0
  6  1  1  0
  7  9  1  0
  7  3  1  0
  8  7  1  0
 10  5  1  0
 11 10  1  0
 11 12  1  0
 12 13  1  0
 14 13  1  0
 15 11  1  0
 15 14  1  0
  1 16  1  0
  2 17  1  0
  7 18  1  0
  8 19  1  0
  8 20  1  0
  8 21  1  0
  9 22  1  0
  9 23  1  0
  9 24  1  0
 11 25  1  0
 12 26  1  0
 12 27  1  0
 13 28  1  0
 13 29  1  0
 14 30  1  0
 14 31  1  0
 15 32  1  0
 15 33  1  0
M  ISO  8  16  14  17  14  18   8  19   8  20   8  21   8  22   8  23   8
M  ISO  8  24   8  25  13  26  13  27  13  28  13  29  13  30  13  31  13
M  ISO  2  32  13  33  13
M  END
>  <minimizedAffinity>  (1) 
-4.33450699

>  <minimizedRMSD>  (1) 
1.81649113

$$$$
