
     RDKit          3D

 26 27  0  0  0  0  0  0  0  0999 V2000
   38.6910   23.4340   38.5390 C   0  0  0  0  0  0  0  0  0  0  0  0
   38.0350   24.4530   37.8390 C   0  0  0  0  0  0  0  0  0  0  0  0
   38.4370   24.6970   36.5170 C   0  0  0  0  0  0  0  0  0  0  0  0
   39.4420   23.9330   35.9750 N   0  0  0  0  0  0  0  0  0  0  0  0
   40.0300   22.9690   36.7050 C   0  0  0  0  0  0  0  0  0  0  0  0
   39.6630   22.7160   37.9770 N   0  0  0  0  0  0  0  0  0  0  0  0
   37.8030   25.7310   35.6810 C   0  0  0  0  0  0  0  0  0  0  0  0
   37.8270   25.4290   34.2150 C   0  0  0  0  0  0  0  0  0  0  0  0
   38.4310   27.1030   35.9390 C   0  0  0  0  0  0  0  0  0  0  0  0
   41.0530   22.1630   36.2040 O   0  0  0  0  0  0  0  0  0  0  0  0
   42.3810   22.5630   36.1780 C   0  0  0  0  0  0  0  0  0  0  0  0
   43.2720   21.6830   35.5560 C   0  0  0  0  0  0  0  0  0  0  0  0
   44.8840   22.6080   35.7570 S   0  0  0  0  0  0  0  0  0  0  0  0
   43.9920   24.0220   36.6610 C   0  0  0  0  0  0  0  0  0  0  0  0
   42.9220   23.6800   36.6700 N   0  0  0  0  0  0  0  0  0  0  0  0
   38.3974   23.2207   39.5774 H   0  0  0  0  0  0  0  0  0  0  0  0
   37.2330   25.0416   38.3084 H   0  0  0  0  0  0  0  0  0  0  0  0
   36.7449   25.7401   35.9815 H   0  0  0  0  0  0  0  0  0  0  0  0
   37.9133   24.3426   34.0658 H   0  0  0  0  0  0  0  0  0  0  0  0
   36.8973   25.7901   33.7510 H   0  0  0  0  0  0  0  0  0  0  0  0
   38.6880   25.9324   33.7510 H   0  0  0  0  0  0  0  0  0  0  0  0
   38.5087   27.2727   37.0231 H   0  0  0  0  0  0  0  0  0  0  0  0
   39.4345   27.1373   35.4897 H   0  0  0  0  0  0  0  0  0  0  0  0
   37.8011   27.8849   35.4897 H   0  0  0  0  0  0  0  0  0  0  0  0
   43.0774   20.7113   35.0786 H   0  0  0  0  0  0  0  0  0  0  0  0
   44.4187   24.9479   37.0740 H   0  0  0  0  0  0  0  0  0  0  0  0
  2  1  2  0
  3  2  1  0
  4  3  2  0
  4  5  1  0
  5  6  2  0
  6  1  1  0
  7  9  1  0
  7  3  1  0
  8  7  1  0
 10  5  1  0
 11 10  1  0
 11 15  1  0
 12 13  1  0
 12 11  2  0
 13 14  1  0
 14 15  2  0
  1 16  1  0
  2 17  1  0
  7 18  1  0
  8 19  1  0
  8 20  1  0
  8 21  1  0
  9 22  1  0
  9 23  1  0
  9 24  1  0
 12 25  1  0
 14 26  1  0
M  ISO  8  16  14  17  14  18   8  19   8  20   8  21   8  22   8  23   8
M  ISO  3  24   8  25  14  26  14
M  END
>  <minimizedAffinity>  (1) 
-4.01959133

>  <minimizedRMSD>  (1) 
1.99274409

$$$$
