
     RDKit          3D

 26 26  0  0  0  0  0  0  0  0999 V2000
   38.5700   23.5340   38.5620 C   0  0  0  0  0  0  0  0  0  0  0  0
   37.9660   24.5850   37.8430 C   0  0  0  0  0  0  0  0  0  0  0  0
   38.3360   24.7410   36.5040 C   0  0  0  0  0  0  0  0  0  0  0  0
   39.2540   23.8840   35.9500 N   0  0  0  0  0  0  0  0  0  0  0  0
   39.8020   22.8900   36.6930 C   0  0  0  0  0  0  0  0  0  0  0  0
   39.4710   22.7080   37.9830 N   0  0  0  0  0  0  0  0  0  0  0  0
   37.7500   25.7940   35.6520 C   0  0  0  0  0  0  0  0  0  0  0  0
   37.7920   25.4910   34.1900 C   0  0  0  0  0  0  0  0  0  0  0  0
   38.4260   27.1490   35.8950 C   0  0  0  0  0  0  0  0  0  0  0  0
   40.7290   22.0010   36.1750 O   0  0  0  0  0  0  0  0  0  0  0  0
   41.9220   21.6570   36.8530 C   0  0  0  0  0  0  0  0  0  0  0  0
   43.0110   22.6410   36.5410 C   0  0  0  0  0  0  0  0  0  0  0  0
   38.3025   23.3820   39.6181 H   0  0  0  0  0  0  0  0  0  0  0  0
   37.2333   25.2552   38.3162 H   0  0  0  0  0  0  0  0  0  0  0  0
   36.6916   25.8341   35.9491 H   0  0  0  0  0  0  0  0  0  0  0  0
   37.9417   24.4111   34.0435 H   0  0  0  0  0  0  0  0  0  0  0  0
   36.8430   25.7961   33.7249 H   0  0  0  0  0  0  0  0  0  0  0  0
   38.6223   26.0427   33.7249 H   0  0  0  0  0  0  0  0  0  0  0  0
   38.5143   27.3259   36.9771 H   0  0  0  0  0  0  0  0  0  0  0  0
   39.4280   27.1455   35.4411 H   0  0  0  0  0  0  0  0  0  0  0  0
   37.8206   27.9474   35.4411 H   0  0  0  0  0  0  0  0  0  0  0  0
   41.7345   21.6574   37.9369 H   0  0  0  0  0  0  0  0  0  0  0  0
   42.2420   20.6580   36.5218 H   0  0  0  0  0  0  0  0  0  0  0  0
   43.4371   23.0260   37.4792 H   0  0  0  0  0  0  0  0  0  0  0  0
   43.7993   22.1428   35.9575 H   0  0  0  0  0  0  0  0  0  0  0  0
   42.5950   23.4756   35.9575 H   0  0  0  0  0  0  0  0  0  0  0  0
  2  1  2  0
  3  2  1  0
  4  3  2  0
  4  5  1  0
  5  6  2  0
  6  1  1  0
  7  9  1  0
  7  3  1  0
  8  7  1  0
 10  5  1  0
 10 11  1  0
 12 11  1  0
  1 13  1  0
  2 14  1  0
  7 15  1  0
  8 16  1  0
  8 17  1  0
  8 18  1  0
  9 19  1  0
  9 20  1  0
  9 21  1  0
 11 22  1  0
 11 23  1  0
 12 24  1  0
 12 25  1  0
 12 26  1  0
M  ISO  8  13  14  14  14  15   8  16   8  17   8  18   8  19   8  20   8
M  ISO  6  21   8  22   8  23   8  24   8  25   8  26   8
M  END
>  <minimizedAffinity>  (1) 
-3.66689515

>  <minimizedRMSD>  (1) 
1.13000417

$$$$
