
     RDKit          3D

 22 22  0  0  0  0  0  0  0  0999 V2000
   38.7040   23.3860   38.4630 C   0  0  0  0  0  0  0  0  0  0  0  0
   38.0110   24.4080   37.7870 C   0  0  0  0  0  0  0  0  0  0  0  0
   38.4280   24.7240   36.4910 C   0  0  0  0  0  0  0  0  0  0  0  0
   39.4810   24.0300   35.9460 N   0  0  0  0  0  0  0  0  0  0  0  0
   40.1080   23.0580   36.6400 C   0  0  0  0  0  0  0  0  0  0  0  0
   39.7360   22.7300   37.8820 N   0  0  0  0  0  0  0  0  0  0  0  0
   37.7710   25.7560   35.6740 C   0  0  0  0  0  0  0  0  0  0  0  0
   37.7810   25.4710   34.2040 C   0  0  0  0  0  0  0  0  0  0  0  0
   38.3740   27.1400   35.9250 C   0  0  0  0  0  0  0  0  0  0  0  0
   41.1760   22.3320   36.1190 O   0  0  0  0  0  0  0  0  0  0  0  0
   42.4640   22.5020   36.6010 C   0  0  0  0  0  0  0  0  0  0  0  0
   42.9790   23.6430   36.6780 O   0  0  0  0  0  0  0  0  0  0  0  0
   38.4006   23.1147   39.4849 H   0  0  0  0  0  0  0  0  0  0  0  0
   37.1721   24.9384   38.2613 H   0  0  0  0  0  0  0  0  0  0  0  0
   36.7203   25.7405   35.9993 H   0  0  0  0  0  0  0  0  0  0  0  0
   37.8191   24.3837   34.0416 H   0  0  0  0  0  0  0  0  0  0  0  0
   36.8680   25.8785   33.7453 H   0  0  0  0  0  0  0  0  0  0  0  0
   38.6632   25.9414   33.7453 H   0  0  0  0  0  0  0  0  0  0  0  0
   38.4505   27.3157   37.0082 H   0  0  0  0  0  0  0  0  0  0  0  0
   39.3758   27.1908   35.4736 H   0  0  0  0  0  0  0  0  0  0  0  0
   37.7291   27.9083   35.4736 H   0  0  0  0  0  0  0  0  0  0  0  0
   43.0433   21.6233   36.9208 H   0  0  0  0  0  0  0  0  0  0  0  0
  2  1  2  0
  3  2  1  0
  4  3  2  0
  4  5  1  0
  5  6  2  0
  6  1  1  0
  7  9  1  0
  7  3  1  0
  8  7  1  0
 10 11  1  0
 10  5  1  0
 11 12  2  0
  1 13  1  0
  2 14  1  0
  7 15  1  0
  8 16  1  0
  8 17  1  0
  8 18  1  0
  9 19  1  0
  9 20  1  0
  9 21  1  0
 11 22  1  0
M  ISO  8  13  14  14  14  15   8  16   8  17   8  18   8  19   8  20   8
M  ISO  2  21   8  22   6
M  END
>  <minimizedAffinity>  (1) 
-3.58876061

>  <minimizedRMSD>  (1) 
0.153558329

$$$$
