
     RDKit          3D

 27 28  0  0  0  0  0  0  0  0999 V2000
   38.7220   23.3940   38.4780 C   0  0  0  0  0  0  0  0  0  0  0  0
   38.0380   24.4210   37.7950 C   0  0  0  0  0  0  0  0  0  0  0  0
   38.4560   24.7080   36.4840 C   0  0  0  0  0  0  0  0  0  0  0  0
   39.4930   23.9900   35.9330 N   0  0  0  0  0  0  0  0  0  0  0  0
   40.0930   23.0270   36.6480 C   0  0  0  0  0  0  0  0  0  0  0  0
   39.7220   22.7230   37.9030 N   0  0  0  0  0  0  0  0  0  0  0  0
   37.7920   25.7480   35.6710 C   0  0  0  0  0  0  0  0  0  0  0  0
   37.7980   25.4590   34.2040 C   0  0  0  0  0  0  0  0  0  0  0  0
   38.3950   27.1300   35.9230 C   0  0  0  0  0  0  0  0  0  0  0  0
   41.1470   22.2810   36.1120 O   0  0  0  0  0  0  0  0  0  0  0  0
   42.4090   22.6550   36.1590 C   0  0  0  0  0  0  0  0  0  0  0  0
   43.0610   23.7960   36.5990 C   0  0  0  0  0  0  0  0  0  0  0  0
   44.4080   23.8470   36.4960 C   0  0  0  0  0  0  0  0  0  0  0  0
   45.1070   22.7290   35.9390 C   0  0  0  0  0  0  0  0  0  0  0  0
   43.7110   21.5080   35.5340 S   0  0  0  0  0  0  0  0  0  0  0  0
   38.4249   23.1407   39.5064 H   0  0  0  0  0  0  0  0  0  0  0  0
   37.2128   24.9737   38.2679 H   0  0  0  0  0  0  0  0  0  0  0  0
   36.7425   25.7394   36.0004 H   0  0  0  0  0  0  0  0  0  0  0  0
   37.8206   24.3708   34.0448 H   0  0  0  0  0  0  0  0  0  0  0  0
   36.8910   25.8781   33.7440 H   0  0  0  0  0  0  0  0  0  0  0  0
   38.6869   25.9154   33.7440 H   0  0  0  0  0  0  0  0  0  0  0  0
   38.4713   27.3048   37.0063 H   0  0  0  0  0  0  0  0  0  0  0  0
   39.3970   27.1806   35.4720 H   0  0  0  0  0  0  0  0  0  0  0  0
   37.7506   27.8990   35.4720 H   0  0  0  0  0  0  0  0  0  0  0  0
   42.4961   24.6398   37.0219 H   0  0  0  0  0  0  0  0  0  0  0  0
   44.9596   24.7360   36.8358 H   0  0  0  0  0  0  0  0  0  0  0  0
   46.1891   22.6071   35.7835 H   0  0  0  0  0  0  0  0  0  0  0  0
  2  1  2  0
  3  2  1  0
  4  3  2  0
  4  5  1  0
  5  6  2  0
  6  1  1  0
  7  9  1  0
  7  3  1  0
  8  7  1  0
 10 11  1  0
 10  5  1  0
 11 12  2  0
 13 12  1  0
 14 13  2  0
 15 14  1  0
 15 11  1  0
  1 16  1  0
  2 17  1  0
  7 18  1  0
  8 19  1  0
  8 20  1  0
  8 21  1  0
  9 22  1  0
  9 23  1  0
  9 24  1  0
 12 25  1  0
 13 26  1  0
 14 27  1  0
M  ISO  8  16  14  17  14  18   8  19   8  20   8  21   8  22   8  23   8
M  ISO  4  24   8  25  14  26  14  27  14
M  END
>  <minimizedAffinity>  (1) 
-4.18530512

>  <minimizedRMSD>  (1) 
2.10059857

$$$$
