
     RDKit          3D

 40 43  0  0  0  0  0  0  0  0999 V2000
   41.2990   23.3110   35.1910 O   0  0  0  0  0  0  0  0  0  0  0  0
   38.4350   23.2110   37.3170 C   0  0  0  0  0  0  0  0  0  0  0  0
   37.6740   24.3170   36.8900 C   0  0  0  0  0  0  0  0  0  0  0  0
   38.1890   25.0890   35.8490 C   0  0  0  0  0  0  0  0  0  0  0  0
   39.4050   24.7510   35.2820 N   0  0  0  0  0  0  0  0  0  0  0  0
   40.0650   23.6760   35.7520 C   0  0  0  0  0  0  0  0  0  0  0  0
   39.6060   22.9130   36.7470 N   0  0  0  0  0  0  0  0  0  0  0  0
   37.4690   26.2580   35.2960 C   0  0  0  0  0  0  0  0  0  0  0  0
   37.2770   26.2110   33.8300 C   0  0  0  0  0  0  0  0  0  0  0  0
   38.1620   27.5810   35.6920 C   0  0  0  0  0  0  0  0  0  0  0  0
   42.4610   23.7470   35.6120 C   0  0  0  0  0  0  0  0  0  0  0  0
   43.1800   23.5690   36.7710 C   0  0  0  0  0  0  0  0  0  0  0  0
   44.3850   24.1790   36.8900 C   0  0  0  0  0  0  0  0  0  0  0  0
   44.8570   24.9730   35.8230 C   0  0  0  0  0  0  0  0  0  0  0  0
   43.4850   24.8460   34.5490 S   0  0  0  0  0  0  0  0  0  0  0  0
   46.0670   25.6920   35.7300 N   0  0  0  0  0  0  0  0  0  0  0  0
   47.2050   25.2210   36.2820 C   0  0  0  0  0  0  0  0  0  0  0  0
   48.1590   26.1380   36.0150 N   0  0  0  0  0  0  0  0  0  0  0  0
   47.5950   27.1540   35.3080 C   0  0  0  0  0  0  0  0  0  0  0  0
   48.1470   28.3170   34.8030 C   0  0  0  0  0  0  0  0  0  0  0  0
   47.3140   29.1400   34.1340 N   0  0  0  0  0  0  0  0  0  0  0  0
   45.9990   28.8570   33.9570 C   0  0  0  0  0  0  0  0  0  0  0  0
   45.4550   27.7240   34.4480 N   0  0  0  0  0  0  0  0  0  0  0  0
   46.2620   26.8770   35.1220 C   0  0  0  0  0  0  0  0  0  0  0  0
   49.5180   28.5780   35.0070 N   0  0  0  0  0  0  0  0  0  0  0  0
   38.0577   22.5805   38.1356 H   0  0  0  0  0  0  0  0  0  0  0  0
   36.7101   24.5624   37.3599 H   0  0  0  0  0  0  0  0  0  0  0  0
   36.4661   26.2148   35.7458 H   0  0  0  0  0  0  0  0  0  0  0  0
   36.2311   25.9550   33.6052 H   0  0  0  0  0  0  0  0  0  0  0  0
   37.5150   27.1939   33.3973 H   0  0  0  0  0  0  0  0  0  0  0  0
   37.9421   25.4492   33.3973 H   0  0  0  0  0  0  0  0  0  0  0  0
   38.2031   27.6595   36.7884 H   0  0  0  0  0  0  0  0  0  0  0  0
   39.1837   27.5959   35.2847 H   0  0  0  0  0  0  0  0  0  0  0  0
   37.5925   28.4294   35.2847 H   0  0  0  0  0  0  0  0  0  0  0  0
   42.7851   22.9439   37.5855 H   0  0  0  0  0  0  0  0  0  0  0  0
   44.9852   24.0570   37.8037 H   0  0  0  0  0  0  0  0  0  0  0  0
   47.3299   24.2798   36.8374 H   0  0  0  0  0  0  0  0  0  0  0  0
   45.3645   29.5644   33.4029 H   0  0  0  0  0  0  0  0  0  0  0  0
   49.9388   29.4413   34.6349 H   0  0  0  0  0  0  0  0  0  0  0  0
   50.0984   27.9053   35.5280 H   0  0  0  0  0  0  0  0  0  0  0  0
  1 11  1  0
  1  6  1  0
  3  2  2  0
  4  3  1  0
  5  6  1  0
  5  4  2  0
  6  7  2  0
  7  2  1  0
  8 10  1  0
  8  4  1  0
  9  8  1  0
 11 12  2  0
 12 13  1  0
 14 13  2  0
 15 11  1  0
 15 14  1  0
 16 14  1  0
 16 17  1  0
 18 17  2  0
 19 18  1  0
 20 25  1  0
 20 19  2  0
 21 20  1  0
 22 21  2  0
 22 23  1  0
 23 24  2  0
 24 19  1  0
 24 16  1  0
  2 26  1  0
  3 27  1  0
  8 28  1  0
  9 29  1  0
  9 30  1  0
  9 31  1  0
 10 32  1  0
 10 33  1  0
 10 34  1  0
 12 35  1  0
 13 36  1  0
 17 37  1  0
 22 38  1  0
 25 39  1  0
 25 40  1  0
M  ISO  8  26  14  27  14  28   8  29   8  30   8  31   8  32   8  33   8
M  ISO  5  34   8  35  14  36  14  37  14  38  14
M  END
>  <minimizedAffinity>  (1) 
-5.20799112

>  <minimizedRMSD>  (1) 
4.21870375

$$$$
