
     RDKit          3D

 41 44  0  0  0  0  0  0  0  0999 V2000
   38.7790   23.2270   38.2610 C   0  0  0  0  0  0  0  0  0  0  0  0
   38.0250   24.2400   37.6310 C   0  0  0  0  0  0  0  0  0  0  0  0
   38.4910   24.7060   36.3940 C   0  0  0  0  0  0  0  0  0  0  0  0
   39.6460   24.1700   35.8490 N   0  0  0  0  0  0  0  0  0  0  0  0
   40.2980   23.2100   36.5150 C   0  0  0  0  0  0  0  0  0  0  0  0
   39.8880   22.7320   37.7050 N   0  0  0  0  0  0  0  0  0  0  0  0
   37.7720   25.7440   35.6340 C   0  0  0  0  0  0  0  0  0  0  0  0
   37.7370   25.5060   34.1720 C   0  0  0  0  0  0  0  0  0  0  0  0
   38.3630   27.1470   35.8880 C   0  0  0  0  0  0  0  0  0  0  0  0
   41.4700   22.6510   35.9790 O   0  0  0  0  0  0  0  0  0  0  0  0
   42.6730   23.1400   36.1840 C   0  0  0  0  0  0  0  0  0  0  0  0
   43.1610   24.3670   36.5630 C   0  0  0  0  0  0  0  0  0  0  0  0
   44.5000   24.5210   36.6820 C   0  0  0  0  0  0  0  0  0  0  0  0
   45.3460   23.4300   36.4110 C   0  0  0  0  0  0  0  0  0  0  0  0
   44.1440   22.0540   35.9490 S   0  0  0  0  0  0  0  0  0  0  0  0
   46.7730   23.3550   36.4660 C   0  0  0  0  0  0  0  0  0  0  0  0
   47.5400   22.2480   36.2860 C   0  0  0  0  0  0  0  0  0  0  0  0
   48.8090   22.6640   36.4300 N   0  0  0  0  0  0  0  0  0  0  0  0
   48.8770   23.9800   36.6920 C   0  0  0  0  0  0  0  0  0  0  0  0
   49.9780   24.7800   36.9020 C   0  0  0  0  0  0  0  0  0  0  0  0
   49.7830   26.1240   37.1560 C   0  0  0  0  0  0  0  0  0  0  0  0
   48.5040   26.6410   37.1950 C   0  0  0  0  0  0  0  0  0  0  0  0
   47.4390   25.7970   36.9780 C   0  0  0  0  0  0  0  0  0  0  0  0
   47.5760   24.4470   36.7190 C   0  0  0  0  0  0  0  0  0  0  0  0
   38.4454   22.8356   39.2334 H   0  0  0  0  0  0  0  0  0  0  0  0
   37.1118   24.6460   38.0905 H   0  0  0  0  0  0  0  0  0  0  0  0
   36.7388   25.6903   36.0078 H   0  0  0  0  0  0  0  0  0  0  0  0
   37.5795   24.4347   33.9786 H   0  0  0  0  0  0  0  0  0  0  0  0
   36.9142   26.0840   33.7260 H   0  0  0  0  0  0  0  0  0  0  0  0
   38.6914   25.8226   33.7260 H   0  0  0  0  0  0  0  0  0  0  0  0
   38.4371   27.3230   36.9713 H   0  0  0  0  0  0  0  0  0  0  0  0
   39.3642   27.2103   35.4369 H   0  0  0  0  0  0  0  0  0  0  0  0
   37.7088   27.9076   35.4369 H   0  0  0  0  0  0  0  0  0  0  0  0
   42.4784   25.2056   36.7652 H   0  0  0  0  0  0  0  0  0  0  0  0
   44.9229   25.4894   36.9875 H   0  0  0  0  0  0  0  0  0  0  0  0
   47.1946   21.2266   36.0683 H   0  0  0  0  0  0  0  0  0  0  0  0
   49.6308   22.0484   36.3493 H   0  0  0  0  0  0  0  0  0  0  0  0
   50.9930   24.3572   36.8682 H   0  0  0  0  0  0  0  0  0  0  0  0
   50.6475   26.7822   37.3272 H   0  0  0  0  0  0  0  0  0  0  0  0
   48.3387   27.7097   37.3962 H   0  0  0  0  0  0  0  0  0  0  0  0
   46.4242   26.2200   37.0126 H   0  0  0  0  0  0  0  0  0  0  0  0
  2  1  2  0
  3  2  1  0
  4  3  2  0
  4  5  1  0
  5  6  2  0
  6  1  1  0
  7  9  1  0
  7  3  1  0
  8  7  1  0
 10 11  1  0
 10  5  1  0
 11 12  2  0
 12 13  1  0
 14 16  1  0
 14 13  2  0
 15 11  1  0
 15 14  1  0
 16 24  1  0
 17 18  1  0
 17 16  2  0
 18 19  1  0
 19 24  2  0
 19 20  1  0
 20 21  2  0
 21 22  1  0
 23 22  2  0
 24 23  1  0
  1 25  1  0
  2 26  1  0
  7 27  1  0
  8 28  1  0
  8 29  1  0
  8 30  1  0
  9 31  1  0
  9 32  1  0
  9 33  1  0
 12 34  1  0
 13 35  1  0
 17 36  1  0
 18 37  1  0
 20 38  1  0
 21 39  1  0
 22 40  1  0
 23 41  1  0
M  ISO  8  25  14  26  14  27   8  28   8  29   8  30   8  31   8  32   8
M  ISO  8  33   8  34  14  35  14  36  14  37   9  38  14  39  14  40  14
M  ISO  1  41  14
M  END
>  <minimizedAffinity>  (1) 
-5.19954491

>  <minimizedRMSD>  (1) 
0.954420447

$$$$
