
     RDKit          3D

 41 44  0  0  0  0  0  0  0  0999 V2000
   42.6470   23.0970   35.9790 C   0  0  0  0  0  0  0  0  0  0  0  0
   43.2270   24.2890   36.3410 C   0  0  0  0  0  0  0  0  0  0  0  0
   44.5670   24.3490   36.5160 C   0  0  0  0  0  0  0  0  0  0  0  0
   45.3230   23.1730   36.3170 C   0  0  0  0  0  0  0  0  0  0  0  0
   44.0340   21.9030   35.8510 S   0  0  0  0  0  0  0  0  0  0  0  0
   46.6920   22.9670   36.4300 N   0  0  0  0  0  0  0  0  0  0  0  0
   47.3800   21.7970   36.3400 C   0  0  0  0  0  0  0  0  0  0  0  0
   48.6880   22.0610   36.5120 N   0  0  0  0  0  0  0  0  0  0  0  0
   48.8530   23.3910   36.7130 C   0  0  0  0  0  0  0  0  0  0  0  0
   49.9900   24.1400   36.9330 C   0  0  0  0  0  0  0  0  0  0  0  0
   51.1290   23.6080   36.9780 O   0  0  0  0  0  0  0  0  0  0  0  0
   49.9110   25.4810   37.1110 N   0  0  0  0  0  0  0  0  0  0  0  0
   48.6730   26.0010   37.0540 C   0  0  0  0  0  0  0  0  0  0  0  0
   48.5830   27.4100   37.2390 N   0  0  0  0  0  0  0  0  0  0  0  0
   47.5350   25.3050   36.8410 N   0  0  0  0  0  0  0  0  0  0  0  0
   47.5740   23.9540   36.6580 C   0  0  0  0  0  0  0  0  0  0  0  0
   41.4150   22.7260   35.7420 O   0  0  0  0  0  0  0  0  0  0  0  0
   38.8270   23.2940   38.1130 C   0  0  0  0  0  0  0  0  0  0  0  0
   38.0760   24.3470   37.5430 C   0  0  0  0  0  0  0  0  0  0  0  0
   38.5100   24.8390   36.3130 C   0  0  0  0  0  0  0  0  0  0  0  0
   39.6320   24.3000   35.7020 N   0  0  0  0  0  0  0  0  0  0  0  0
   40.2820   23.3010   36.3200 C   0  0  0  0  0  0  0  0  0  0  0  0
   39.9030   22.7960   37.5020 N   0  0  0  0  0  0  0  0  0  0  0  0
   37.7940   25.9230   35.5940 C   0  0  0  0  0  0  0  0  0  0  0  0
   37.6250   25.6830   34.1450 C   0  0  0  0  0  0  0  0  0  0  0  0
   38.4680   27.2900   35.8370 C   0  0  0  0  0  0  0  0  0  0  0  0
   42.6074   25.1861   36.4871 H   0  0  0  0  0  0  0  0  0  0  0  0
   45.0558   25.2907   36.8062 H   0  0  0  0  0  0  0  0  0  0  0  0
   46.9418   20.8046   36.1577 H   0  0  0  0  0  0  0  0  0  0  0  0
   50.7441   26.0629   37.2788 H   0  0  0  0  0  0  0  0  0  0  0  0
   47.6649   27.8759   37.2078 H   0  0  0  0  0  0  0  0  0  0  0  0
   49.4360   27.9633   37.4040 H   0  0  0  0  0  0  0  0  0  0  0  0
   38.5172   22.8759   39.0821 H   0  0  0  0  0  0  0  0  0  0  0  0
   37.1895   24.7595   38.0470 H   0  0  0  0  0  0  0  0  0  0  0  0
   36.7801   25.9314   36.0205 H   0  0  0  0  0  0  0  0  0  0  0  0
   36.9979   24.7924   33.9915 H   0  0  0  0  0  0  0  0  0  0  0  0
   37.1413   26.5561   33.6827 H   0  0  0  0  0  0  0  0  0  0  0  0
   38.6100   25.5219   33.6827 H   0  0  0  0  0  0  0  0  0  0  0  0
   38.5559   27.4683   36.9189 H   0  0  0  0  0  0  0  0  0  0  0  0
   39.4698   27.2908   35.3827 H   0  0  0  0  0  0  0  0  0  0  0  0
   37.8587   28.0852   35.3827 H   0  0  0  0  0  0  0  0  0  0  0  0
  1  2  2  0
  2  3  1  0
  4  6  1  0
  4  3  2  0
  5  1  1  0
  5  4  1  0
  6 16  1  0
  7  6  1  0
  7  8  2  0
  8  9  1  0
  9 10  1  0
 10 11  2  0
 10 12  1  0
 13 12  1  0
 13 14  1  0
 15 13  2  0
 16  9  2  0
 16 15  1  0
 17  1  1  0
 17 22  1  0
 19 18  2  0
 20 19  1  0
 21 20  2  0
 21 22  1  0
 22 23  2  0
 23 18  1  0
 24 26  1  0
 24 20  1  0
 25 24  1  0
  2 27  1  0
  3 28  1  0
  7 29  1  0
 12 30  1  0
 14 31  1  0
 14 32  1  0
 18 33  1  0
 19 34  1  0
 24 35  1  0
 25 36  1  0
 25 37  1  0
 25 38  1  0
 26 39  1  0
 26 40  1  0
 26 41  1  0
M  ISO  8  27  14  28  14  29  14  30   9  33  14  34  14  35   8  36   8
M  ISO  5  37   8  38   8  39   8  40   8  41   8
M  END
>  <minimizedAffinity>  (1) 
-5.13057232

>  <minimizedRMSD>  (1) 
0.802408934

$$$$
