
     RDKit          3D

 41 43  0  0  0  0  0  0  0  0999 V2000
   38.7300   23.3170   38.4390 C   0  0  0  0  0  0  0  0  0  0  0  0
   38.0210   24.3250   37.7530 C   0  0  0  0  0  0  0  0  0  0  0  0
   38.4820   24.6790   36.4860 C   0  0  0  0  0  0  0  0  0  0  0  0
   39.5910   24.0480   35.9540 N   0  0  0  0  0  0  0  0  0  0  0  0
   40.2070   23.0930   36.6810 C   0  0  0  0  0  0  0  0  0  0  0  0
   39.7980   22.7260   37.8960 N   0  0  0  0  0  0  0  0  0  0  0  0
   37.8040   25.7030   35.6580 C   0  0  0  0  0  0  0  0  0  0  0  0
   37.8190   25.4220   34.2070 C   0  0  0  0  0  0  0  0  0  0  0  0
   38.3950   27.1080   35.9150 C   0  0  0  0  0  0  0  0  0  0  0  0
   41.3340   22.4370   36.1600 O   0  0  0  0  0  0  0  0  0  0  0  0
   42.5570   22.8920   36.2380 C   0  0  0  0  0  0  0  0  0  0  0  0
   43.1000   24.0970   36.6190 C   0  0  0  0  0  0  0  0  0  0  0  0
   44.4470   24.2510   36.5880 C   0  0  0  0  0  0  0  0  0  0  0  0
   45.2440   23.1740   36.1660 C   0  0  0  0  0  0  0  0  0  0  0  0
   43.9890   21.8370   35.7840 S   0  0  0  0  0  0  0  0  0  0  0  0
   46.6220   22.9670   36.0080 N   0  0  0  0  0  0  0  0  0  0  0  0
   47.4240   24.0980   35.6090 C   0  0  0  0  0  0  0  0  0  0  0  0
   48.4260   24.3510   36.7300 C   0  0  0  0  0  0  0  0  0  0  0  0
   48.5220   23.2070   37.5830 N   0  0  0  0  0  0  0  0  0  0  0  0
   48.5630   21.9340   36.8530 C   0  0  0  0  0  0  0  0  0  0  0  0
   47.1810   21.6550   36.2450 C   0  0  0  0  0  0  0  0  0  0  0  0
   38.3967   23.0112   39.4417 H   0  0  0  0  0  0  0  0  0  0  0  0
   37.1411   24.8115   38.1992 H   0  0  0  0  0  0  0  0  0  0  0  0
   36.7514   25.6690   35.9755 H   0  0  0  0  0  0  0  0  0  0  0  0
   37.8770   24.3356   34.0445 H   0  0  0  0  0  0  0  0  0  0  0  0
   36.8987   25.8128   33.7483 H   0  0  0  0  0  0  0  0  0  0  0  0
   38.6925   25.9085   33.7483 H   0  0  0  0  0  0  0  0  0  0  0  0
   38.4683   27.2823   36.9986 H   0  0  0  0  0  0  0  0  0  0  0  0
   39.3965   27.1725   35.4646 H   0  0  0  0  0  0  0  0  0  0  0  0
   37.7407   27.8690   35.4646 H   0  0  0  0  0  0  0  0  0  0  0  0
   42.4511   24.9236   36.9441 H   0  0  0  0  0  0  0  0  0  0  0  0
   44.9079   25.2036   36.8884 H   0  0  0  0  0  0  0  0  0  0  0  0
   47.9543   23.8733   34.6718 H   0  0  0  0  0  0  0  0  0  0  0  0
   46.7953   24.9841   35.4368 H   0  0  0  0  0  0  0  0  0  0  0  0
   49.4134   24.5604   36.2927 H   0  0  0  0  0  0  0  0  0  0  0  0
   48.0849   25.2110   37.3250 H   0  0  0  0  0  0  0  0  0  0  0  0
   49.3824   23.2894   38.1433 H   0  0  0  0  0  0  0  0  0  0  0  0
   49.3126   21.9944   36.0502 H   0  0  0  0  0  0  0  0  0  0  0  0
   48.8337   21.1212   37.5430 H   0  0  0  0  0  0  0  0  0  0  0  0
   46.5543   21.0858   36.9473 H   0  0  0  0  0  0  0  0  0  0  0  0
   47.2404   21.0520   35.3269 H   0  0  0  0  0  0  0  0  0  0  0  0
  2  1  2  0
  3  2  1  0
  4  3  2  0
  4  5  1  0
  5  6  2  0
  6  1  1  0
  7  9  1  0
  7  3  1  0
  8  7  1  0
 10 11  1  0
 10  5  1  0
 11 12  2  0
 13 12  1  0
 14 13  2  0
 15 14  1  0
 15 11  1  0
 16 14  1  0
 16 21  1  0
 17 16  1  0
 17 18  1  0
 18 19  1  0
 20 19  1  0
 21 20  1  0
  1 22  1  0
  2 23  1  0
  7 24  1  0
  8 25  1  0
  8 26  1  0
  8 27  1  0
  9 28  1  0
  9 29  1  0
  9 30  1  0
 12 31  1  0
 13 32  1  0
 17 33  1  0
 17 34  1  0
 18 35  1  0
 18 36  1  0
 19 37  1  0
 20 38  1  0
 20 39  1  0
 21 40  1  0
 21 41  1  0
M  ISO  8  22  14  23  14  24   8  25   8  26   8  27   8  28   8  29   8
M  ISO  8  30   8  31  14  32  14  33  13  34  13  35  13  36  13  37   5
M  ISO  4  38  13  39  13  40  13  41  13
M  END
>  <minimizedAffinity>  (1) 
-4.57145166

>  <minimizedRMSD>  (1) 
0.615797818

$$$$
