
     RDKit          3D

 39 41  0  0  0  0  0  0  0  0999 V2000
   38.7010   23.3610   38.4050 C   0  0  0  0  0  0  0  0  0  0  0  0
   37.9890   24.3820   37.7440 C   0  0  0  0  0  0  0  0  0  0  0  0
   38.4140   24.7240   36.4600 C   0  0  0  0  0  0  0  0  0  0  0  0
   39.4880   24.0670   35.8940 N   0  0  0  0  0  0  0  0  0  0  0  0
   40.1100   23.1050   36.5950 C   0  0  0  0  0  0  0  0  0  0  0  0
   39.7380   22.7460   37.8280 N   0  0  0  0  0  0  0  0  0  0  0  0
   37.7340   25.7630   35.6490 C   0  0  0  0  0  0  0  0  0  0  0  0
   37.7320   25.4960   34.1940 C   0  0  0  0  0  0  0  0  0  0  0  0
   38.3260   27.1610   35.9170 C   0  0  0  0  0  0  0  0  0  0  0  0
   41.1980   22.4180   36.0580 O   0  0  0  0  0  0  0  0  0  0  0  0
   42.4490   22.8050   36.1750 C   0  0  0  0  0  0  0  0  0  0  0  0
   43.0540   24.0130   36.4390 C   0  0  0  0  0  0  0  0  0  0  0  0
   44.4070   24.0600   36.4920 C   0  0  0  0  0  0  0  0  0  0  0  0
   45.1460   22.8800   36.2760 C   0  0  0  0  0  0  0  0  0  0  0  0
   43.8240   21.5870   35.9720 S   0  0  0  0  0  0  0  0  0  0  0  0
   46.4840   22.6070   36.2610 N   0  0  0  0  0  0  0  0  0  0  0  0
   46.9630   21.2530   36.1300 C   0  0  0  0  0  0  0  0  0  0  0  0
   48.4440   21.4130   36.4280 C   0  0  0  0  0  0  0  0  0  0  0  0
   48.6110   22.7710   37.0730 C   0  0  0  0  0  0  0  0  0  0  0  0
   47.5460   23.5880   36.3720 C   0  0  0  0  0  0  0  0  0  0  0  0
   38.3962   23.0634   39.4192 H   0  0  0  0  0  0  0  0  0  0  0  0
   37.1355   24.8872   38.2197 H   0  0  0  0  0  0  0  0  0  0  0  0
   36.6845   25.7308   35.9770 H   0  0  0  0  0  0  0  0  0  0  0  0
   37.7239   24.4098   34.0206 H   0  0  0  0  0  0  0  0  0  0  0  0
   36.8372   25.9466   33.7398 H   0  0  0  0  0  0  0  0  0  0  0  0
   38.6334   25.9331   33.7398 H   0  0  0  0  0  0  0  0  0  0  0  0
   38.3965   27.3275   37.0020 H   0  0  0  0  0  0  0  0  0  0  0  0
   39.3290   27.2263   35.4701 H   0  0  0  0  0  0  0  0  0  0  0  0
   37.6749   27.9267   35.4701 H   0  0  0  0  0  0  0  0  0  0  0  0
   42.4527   24.9194   36.6032 H   0  0  0  0  0  0  0  0  0  0  0  0
   44.9228   25.0088   36.7013 H   0  0  0  0  0  0  0  0  0  0  0  0
   46.4785   20.5853   36.8576 H   0  0  0  0  0  0  0  0  0  0  0  0
   46.7538   20.8010   35.1492 H   0  0  0  0  0  0  0  0  0  0  0  0
   48.7804   20.6226   37.1151 H   0  0  0  0  0  0  0  0  0  0  0  0
   49.0442   21.3336   35.5096 H   0  0  0  0  0  0  0  0  0  0  0  0
   48.4289   22.7234   38.1568 H   0  0  0  0  0  0  0  0  0  0  0  0
   49.6246   23.1866   36.9737 H   0  0  0  0  0  0  0  0  0  0  0  0
   47.8845   23.9324   35.3837 H   0  0  0  0  0  0  0  0  0  0  0  0
   47.2609   24.5121   36.8961 H   0  0  0  0  0  0  0  0  0  0  0  0
  2  1  2  0
  3  2  1  0
  4  3  2  0
  4  5  1  0
  5  6  2  0
  6  1  1  0
  7  9  1  0
  7  3  1  0
  8  7  1  0
 10 11  1  0
 10  5  1  0
 11 12  2  0
 12 13  1  0
 14 13  2  0
 15 11  1  0
 15 14  1  0
 16 14  1  0
 16 20  1  0
 17 16  1  0
 17 18  1  0
 18 19  1  0
 20 19  1  0
  1 21  1  0
  2 22  1  0
  7 23  1  0
  8 24  1  0
  8 25  1  0
  8 26  1  0
  9 27  1  0
  9 28  1  0
  9 29  1  0
 12 30  1  0
 13 31  1  0
 17 32  1  0
 17 33  1  0
 18 34  1  0
 18 35  1  0
 19 36  1  0
 19 37  1  0
 20 38  1  0
 20 39  1  0
M  ISO  8  21  14  22  14  23   8  24   8  25   8  26   8  27   8  28   8
M  ISO  8  29   8  30  14  31  14  32  13  33  13  34  13  35  13  36  13
M  ISO  3  37  13  38  13  39  13
M  END
>  <minimizedAffinity>  (1) 
-4.49250221

>  <minimizedRMSD>  (1) 
0.43097201

$$$$
