
     RDKit          3D

 40 44  0  0  0  0  0  0  0  0999 V2000
   36.6720   24.3180   31.9580 C   0  0  0  0  0  0  0  0  0  0  0  0
   36.2330   25.6390   31.9930 C   0  0  0  0  0  0  0  0  0  0  0  0
   36.8360   26.4360   32.9580 C   0  0  0  0  0  0  0  0  0  0  0  0
   37.7480   25.8880   33.7380 N   0  0  0  0  0  0  0  0  0  0  0  0
   38.1760   24.6330   33.7180 C   0  0  0  0  0  0  0  0  0  0  0  0
   37.6030   23.8910   32.8060 N   0  0  0  0  0  0  0  0  0  0  0  0
   36.4910   27.8040   33.1140 N   0  0  0  0  0  0  0  0  0  0  0  0
   36.5150   28.7520   32.1650 C   0  0  0  0  0  0  0  0  0  0  0  0
   36.1330   29.9170   32.6540 N   0  0  0  0  0  0  0  0  0  0  0  0
   35.8570   29.7130   33.9550 C   0  0  0  0  0  0  0  0  0  0  0  0
   36.0850   28.4130   34.2090 N   0  0  0  0  0  0  0  0  0  0  0  0
   39.1620   23.9240   34.5150 C   0  0  0  0  0  0  0  0  0  0  0  0
   40.2990   23.3810   33.9310 C   0  0  0  0  0  0  0  0  0  0  0  0
   41.2690   22.6980   34.6380 C   0  0  0  0  0  0  0  0  0  0  0  0
   41.1370   22.5220   36.0070 C   0  0  0  0  0  0  0  0  0  0  0  0
   40.0370   23.0400   36.6110 C   0  0  0  0  0  0  0  0  0  0  0  0
   39.8880   22.8750   37.9750 C   0  0  0  0  0  0  0  0  0  0  0  0
   38.8240   23.3560   38.6660 C   0  0  0  0  0  0  0  0  0  0  0  0
   37.8540   24.0440   37.9370 C   0  0  0  0  0  0  0  0  0  0  0  0
   38.0320   24.1920   36.5770 C   0  0  0  0  0  0  0  0  0  0  0  0
   39.0850   23.7180   35.8770 C   0  0  0  0  0  0  0  0  0  0  0  0
   35.3950   30.5810   35.0400 C   0  0  0  0  0  0  0  0  0  0  0  0
   35.9860   31.4640   35.8680 N   0  0  0  0  0  0  0  0  0  0  0  0
   35.0990   31.9740   36.6650 O   0  0  0  0  0  0  0  0  0  0  0  0
   33.9130   31.4360   36.3740 C   0  0  0  0  0  0  0  0  0  0  0  0
   34.0680   30.5610   35.3620 N   0  0  0  0  0  0  0  0  0  0  0  0
   32.6330   31.7150   37.0170 C   0  0  0  0  0  0  0  0  0  0  0  0
   32.1980   32.9090   37.1500 O   0  0  0  0  0  0  0  0  0  0  0  0
   31.8350   30.6920   37.5110 O   0  0  0  0  0  0  0  0  0  0  0  0
   36.2446   23.6212   31.2220 H   0  0  0  0  0  0  0  0  0  0  0  0
   35.4645   26.0236   31.3064 H   0  0  0  0  0  0  0  0  0  0  0  0
   36.8129   28.5814   31.1200 H   0  0  0  0  0  0  0  0  0  0  0  0
   40.4344   23.5015   32.8460 H   0  0  0  0  0  0  0  0  0  0  0  0
   42.1475   22.2931   34.1144 H   0  0  0  0  0  0  0  0  0  0  0  0
   41.8995   21.9798   36.5854 H   0  0  0  0  0  0  0  0  0  0  0  0
   40.6678   22.3286   38.5258 H   0  0  0  0  0  0  0  0  0  0  0  0
   38.7305   23.2100   39.7523 H   0  0  0  0  0  0  0  0  0  0  0  0
   36.9661   24.4597   38.4359 H   0  0  0  0  0  0  0  0  0  0  0  0
   37.2565   24.7381   36.0200 H   0  0  0  0  0  0  0  0  0  0  0  0
   30.9701   30.9038   37.9437 H   0  0  0  0  0  0  0  0  0  0  0  0
  1  2  2  0
  1  6  1  0
  2  3  1  0
  3  7  1  0
  3  4  2  0
  5  4  1  0
  5 12  1  0
  6  5  2  0
  7 11  1  0
  8  9  2  0
  8  7  1  0
  9 10  1  0
 10 11  2  0
 10 22  1  0
 12 21  1  0
 13 12  2  0
 13 14  1  0
 14 15  2  0
 15 16  1  0
 16 17  2  0
 17 18  1  0
 19 18  2  0
 20 19  1  0
 21 20  2  0
 21 16  1  0
 22 26  1  0
 22 23  2  0
 23 24  1  0
 25 24  1  0
 25 27  1  0
 26 25  2  0
 27 28  2  0
 27 29  1  0
  1 30  1  0
  2 31  1  0
  8 32  1  0
 13 33  1  0
 14 34  1  0
 15 35  1  0
 17 36  1  0
 18 37  1  0
 19 38  1  0
 20 39  1  0
 29 40  1  0
M  ISO  8  30  14  31  14  32  14  33  14  34  14  35  14  36  14  37  14
M  ISO  3  38  14  39  14  40   3
M  END
>  <minimizedAffinity>  (1) 
-7.26252556

>  <minimizedRMSD>  (1) 
1.58157766

$$$$
