
     RDKit          3D

 35 37  0  0  0  0  0  0  0  0999 V2000
   38.7270   23.3420   38.4170 C   0  0  0  0  0  0  0  0  0  0  0  0
   38.0130   24.3570   37.7510 C   0  0  0  0  0  0  0  0  0  0  0  0
   38.4580   24.7060   36.4580 C   0  0  0  0  0  0  0  0  0  0  0  0
   39.5400   24.0600   35.9140 N   0  0  0  0  0  0  0  0  0  0  0  0
   40.1590   23.1010   36.6250 C   0  0  0  0  0  0  0  0  0  0  0  0
   39.7690   22.7410   37.8560 N   0  0  0  0  0  0  0  0  0  0  0  0
   37.7670   25.7380   35.6510 C   0  0  0  0  0  0  0  0  0  0  0  0
   37.7750   25.4630   34.1970 C   0  0  0  0  0  0  0  0  0  0  0  0
   38.3510   27.1420   35.9270 C   0  0  0  0  0  0  0  0  0  0  0  0
   41.2660   22.4100   36.1180 O   0  0  0  0  0  0  0  0  0  0  0  0
   42.5090   22.8190   36.2180 C   0  0  0  0  0  0  0  0  0  0  0  0
   43.0940   24.0180   36.5420 C   0  0  0  0  0  0  0  0  0  0  0  0
   44.4370   24.1240   36.5540 C   0  0  0  0  0  0  0  0  0  0  0  0
   45.1920   22.9760   36.2240 C   0  0  0  0  0  0  0  0  0  0  0  0
   43.9020   21.6750   35.8820 S   0  0  0  0  0  0  0  0  0  0  0  0
   46.6750   22.8160   36.1580 C   0  0  0  0  0  0  0  0  0  0  0  0
   47.2410   22.0180   35.2320 C   0  0  0  0  0  0  0  0  0  0  0  0
   48.6180   21.9700   35.2920 C   0  0  0  0  0  0  0  0  0  0  0  0
   49.2930   22.6800   36.2200 N   0  0  0  0  0  0  0  0  0  0  0  0
   48.6550   23.4570   37.1140 C   0  0  0  0  0  0  0  0  0  0  0  0
   47.3050   23.5310   37.0880 N   0  0  0  0  0  0  0  0  0  0  0  0
   38.4133   23.0399   39.4271 H   0  0  0  0  0  0  0  0  0  0  0  0
   37.1493   24.8542   38.2166 H   0  0  0  0  0  0  0  0  0  0  0  0
   36.7153   25.7060   35.9717 H   0  0  0  0  0  0  0  0  0  0  0  0
   37.8066   24.3763   34.0295 H   0  0  0  0  0  0  0  0  0  0  0  0
   36.8644   25.8780   33.7403 H   0  0  0  0  0  0  0  0  0  0  0  0
   38.6599   25.9303   33.7403 H   0  0  0  0  0  0  0  0  0  0  0  0
   38.4184   27.3041   37.0129 H   0  0  0  0  0  0  0  0  0  0  0  0
   39.3544   27.2157   35.4823 H   0  0  0  0  0  0  0  0  0  0  0  0
   37.6959   27.9055   35.4823 H   0  0  0  0  0  0  0  0  0  0  0  0
   42.4689   24.8883   36.7907 H   0  0  0  0  0  0  0  0  0  0  0  0
   44.9296   25.0730   36.8122 H   0  0  0  0  0  0  0  0  0  0  0  0
   46.6553   21.4533   34.4917 H   0  0  0  0  0  0  0  0  0  0  0  0
   49.1722   21.3460   34.5754 H   0  0  0  0  0  0  0  0  0  0  0  0
   49.2271   24.0277   37.8603 H   0  0  0  0  0  0  0  0  0  0  0  0
  2  1  2  0
  3  2  1  0
  4  3  2  0
  4  5  1  0
  5  6  2  0
  6  1  1  0
  7  9  1  0
  7  3  1  0
  8  7  1  0
 10 11  1  0
 10  5  1  0
 11 12  2  0
 12 13  1  0
 14 13  2  0
 15 11  1  0
 15 14  1  0
 16 14  1  0
 16 21  2  0
 17 18  2  0
 17 16  1  0
 18 19  1  0
 19 20  2  0
 21 20  1  0
  1 22  1  0
  2 23  1  0
  7 24  1  0
  8 25  1  0
  8 26  1  0
  8 27  1  0
  9 28  1  0
  9 29  1  0
  9 30  1  0
 12 31  1  0
 13 32  1  0
 17 33  1  0
 18 34  1  0
 20 35  1  0
M  ISO  8  22  14  23  14  24   8  25   8  26   8  27   8  28   8  29   8
M  ISO  6  30   8  31  14  32  14  33  14  34  14  35  14
M  END
>  <minimizedAffinity>  (1) 
-4.47779083

>  <minimizedRMSD>  (1) 
0.400305361

$$$$
