
     RDKit          3D

 40 42  0  0  0  0  0  0  0  0999 V2000
   38.7260   23.3750   38.4240 C   0  0  0  0  0  0  0  0  0  0  0  0
   38.0200   24.3970   37.7580 C   0  0  0  0  0  0  0  0  0  0  0  0
   38.4340   24.7150   36.4610 C   0  0  0  0  0  0  0  0  0  0  0  0
   39.4920   24.0380   35.8880 N   0  0  0  0  0  0  0  0  0  0  0  0
   40.1040   23.0760   36.6030 C   0  0  0  0  0  0  0  0  0  0  0  0
   39.7450   22.7340   37.8500 N   0  0  0  0  0  0  0  0  0  0  0  0
   37.7540   25.7580   35.6540 C   0  0  0  0  0  0  0  0  0  0  0  0
   37.7440   25.4940   34.2010 C   0  0  0  0  0  0  0  0  0  0  0  0
   38.3610   27.1530   35.9230 C   0  0  0  0  0  0  0  0  0  0  0  0
   41.1810   22.3740   36.0410 O   0  0  0  0  0  0  0  0  0  0  0  0
   42.4430   22.7530   36.1610 C   0  0  0  0  0  0  0  0  0  0  0  0
   43.0670   23.9430   36.4370 C   0  0  0  0  0  0  0  0  0  0  0  0
   44.4200   23.9620   36.4800 C   0  0  0  0  0  0  0  0  0  0  0  0
   45.1430   22.7710   36.2420 C   0  0  0  0  0  0  0  0  0  0  0  0
   43.7850   21.5080   35.9280 S   0  0  0  0  0  0  0  0  0  0  0  0
   46.4380   22.3120   36.1870 N   0  0  0  0  0  0  0  0  0  0  0  0
   46.9120   20.9440   36.0830 C   0  0  0  0  0  0  0  0  0  0  0  0
   48.3310   20.9880   35.5770 C   0  0  0  0  0  0  0  0  0  0  0  0
   49.1520   21.5630   36.5190 O   0  0  0  0  0  0  0  0  0  0  0  0
   48.5830   22.6750   37.1310 C   0  0  0  0  0  0  0  0  0  0  0  0
   47.5080   23.2990   36.2580 C   0  0  0  0  0  0  0  0  0  0  0  0
   38.4281   23.0982   39.4461 H   0  0  0  0  0  0  0  0  0  0  0  0
   37.1803   24.9213   38.2375 H   0  0  0  0  0  0  0  0  0  0  0  0
   36.7051   25.7316   35.9842 H   0  0  0  0  0  0  0  0  0  0  0  0
   37.7029   24.4088   34.0258 H   0  0  0  0  0  0  0  0  0  0  0  0
   36.8633   25.9723   33.7475 H   0  0  0  0  0  0  0  0  0  0  0  0
   38.6583   25.9043   33.7475 H   0  0  0  0  0  0  0  0  0  0  0  0
   38.4330   27.3185   37.0081 H   0  0  0  0  0  0  0  0  0  0  0  0
   39.3646   27.2085   35.4762 H   0  0  0  0  0  0  0  0  0  0  0  0
   37.7175   27.9252   35.4762 H   0  0  0  0  0  0  0  0  0  0  0  0
   42.4835   24.8576   36.6186 H   0  0  0  0  0  0  0  0  0  0  0  0
   44.9535   24.8987   36.6989 H   0  0  0  0  0  0  0  0  0  0  0  0
   46.8813   20.4607   37.0707 H   0  0  0  0  0  0  0  0  0  0  0  0
   46.2757   20.3669   35.3959 H   0  0  0  0  0  0  0  0  0  0  0  0
   48.6755   19.9639   35.3709 H   0  0  0  0  0  0  0  0  0  0  0  0
   48.3658   21.5877   34.6555 H   0  0  0  0  0  0  0  0  0  0  0  0
   48.1337   22.3668   38.0866 H   0  0  0  0  0  0  0  0  0  0  0  0
   49.3733   23.4225   37.2942 H   0  0  0  0  0  0  0  0  0  0  0  0
   47.9036   23.5093   35.2533 H   0  0  0  0  0  0  0  0  0  0  0  0
   47.1529   24.2548   36.6707 H   0  0  0  0  0  0  0  0  0  0  0  0
  2  1  2  0
  3  2  1  0
  4  3  2  0
  4  5  1  0
  5  6  2  0
  6  1  1  0
  7  9  1  0
  7  3  1  0
  8  7  1  0
 10 11  1  0
 10  5  1  0
 11 12  2  0
 12 13  1  0
 14 13  2  0
 15 11  1  0
 15 14  1  0
 16 14  1  0
 16 21  1  0
 17 16  1  0
 18 17  1  0
 18 19  1  0
 19 20  1  0
 21 20  1  0
  1 22  1  0
  2 23  1  0
  7 24  1  0
  8 25  1  0
  8 26  1  0
  8 27  1  0
  9 28  1  0
  9 29  1  0
  9 30  1  0
 12 31  1  0
 13 32  1  0
 17 33  1  0
 17 34  1  0
 18 35  1  0
 18 36  1  0
 20 37  1  0
 20 38  1  0
 21 39  1  0
 21 40  1  0
M  ISO  8  22  14  23  14  24   8  25   8  26   8  27   8  28   8  29   8
M  ISO  8  30   8  31  14  32  14  33  13  34  13  35  13  36  13  37  13
M  ISO  3  38  13  39  13  40  13
M  END
>  <minimizedAffinity>  (1) 
-4.43481874

>  <minimizedRMSD>  (1) 
0.450780094

$$$$
