
     RDKit          3D

 34 36  0  0  0  0  0  0  0  0999 V2000
   38.7130   23.3210   38.3630 C   0  0  0  0  0  0  0  0  0  0  0  0
   37.9840   24.3340   37.7110 C   0  0  0  0  0  0  0  0  0  0  0  0
   38.4310   24.7210   36.4470 C   0  0  0  0  0  0  0  0  0  0  0  0
   39.5470   24.1040   35.9010 N   0  0  0  0  0  0  0  0  0  0  0  0
   40.1810   23.1510   36.5830 C   0  0  0  0  0  0  0  0  0  0  0  0
   39.7820   22.7530   37.8000 N   0  0  0  0  0  0  0  0  0  0  0  0
   37.7420   25.7570   35.6380 C   0  0  0  0  0  0  0  0  0  0  0  0
   37.7270   25.4900   34.1830 C   0  0  0  0  0  0  0  0  0  0  0  0
   38.3390   27.1570   35.9040 C   0  0  0  0  0  0  0  0  0  0  0  0
   41.3030   22.5040   36.0740 O   0  0  0  0  0  0  0  0  0  0  0  0
   42.5310   22.9760   36.1790 C   0  0  0  0  0  0  0  0  0  0  0  0
   43.0680   24.2140   36.4430 C   0  0  0  0  0  0  0  0  0  0  0  0
   44.4170   24.3500   36.4780 C   0  0  0  0  0  0  0  0  0  0  0  0
   45.2210   23.2230   36.2420 C   0  0  0  0  0  0  0  0  0  0  0  0
   43.9790   21.8480   35.9480 S   0  0  0  0  0  0  0  0  0  0  0  0
   46.6060   23.0130   36.2020 C   0  0  0  0  0  0  0  0  0  0  0  0
   47.2590   21.8180   36.2760 C   0  0  0  0  0  0  0  0  0  0  0  0
   48.6240   22.1210   36.1930 C   0  0  0  0  0  0  0  0  0  0  0  0
   48.6740   23.5140   36.0740 C   0  0  0  0  0  0  0  0  0  0  0  0
   47.4380   24.0140   36.0820 O   0  0  0  0  0  0  0  0  0  0  0  0
   38.3935   22.9891   39.3619 H   0  0  0  0  0  0  0  0  0  0  0  0
   37.1026   24.7990   38.1767 H   0  0  0  0  0  0  0  0  0  0  0  0
   36.6939   25.7226   35.9700 H   0  0  0  0  0  0  0  0  0  0  0  0
   37.6661   24.4054   34.0098 H   0  0  0  0  0  0  0  0  0  0  0  0
   36.8552   25.9834   33.7286 H   0  0  0  0  0  0  0  0  0  0  0  0
   38.6486   25.8826   33.7286 H   0  0  0  0  0  0  0  0  0  0  0  0
   38.4106   27.3250   36.9887 H   0  0  0  0  0  0  0  0  0  0  0  0
   39.3419   27.2191   35.4563 H   0  0  0  0  0  0  0  0  0  0  0  0
   37.6895   27.9237   35.4563 H   0  0  0  0  0  0  0  0  0  0  0  0
   42.4141   25.0801   36.6229 H   0  0  0  0  0  0  0  0  0  0  0  0
   44.8744   25.3281   36.6880 H   0  0  0  0  0  0  0  0  0  0  0  0
   46.8065   20.8207   36.3796 H   0  0  0  0  0  0  0  0  0  0  0  0
   49.4701   21.4185   36.2163 H   0  0  0  0  0  0  0  0  0  0  0  0
   49.5956   24.1082   35.9868 H   0  0  0  0  0  0  0  0  0  0  0  0
  2  1  2  0
  3  2  1  0
  4  3  2  0
  4  5  1  0
  5  6  2  0
  6  1  1  0
  7  9  1  0
  7  3  1  0
  8  7  1  0
 10 11  1  0
 10  5  1  0
 11 12  2  0
 12 13  1  0
 14 13  2  0
 15 11  1  0
 15 14  1  0
 16 14  1  0
 16 17  2  0
 18 17  1  0
 19 20  1  0
 19 18  2  0
 20 16  1  0
  1 21  1  0
  2 22  1  0
  7 23  1  0
  8 24  1  0
  8 25  1  0
  8 26  1  0
  9 27  1  0
  9 28  1  0
  9 29  1  0
 12 30  1  0
 13 31  1  0
 17 32  1  0
 18 33  1  0
 19 34  1  0
M  ISO  8  21  14  22  14  23   8  24   8  25   8  26   8  27   8  28   8
M  ISO  6  29   8  30  14  31  14  32  14  33  14  34  14
M  END
>  <minimizedAffinity>  (1) 
-4.42012072

>  <minimizedRMSD>  (1) 
0.570523024

$$$$
