
     RDKit          3D

 34 36  0  0  0  0  0  0  0  0999 V2000
   38.7340   23.3390   38.4610 C   0  0  0  0  0  0  0  0  0  0  0  0
   38.0290   24.3490   37.7730 C   0  0  0  0  0  0  0  0  0  0  0  0
   38.4860   24.6820   36.4860 C   0  0  0  0  0  0  0  0  0  0  0  0
   39.5840   24.0230   35.9550 N   0  0  0  0  0  0  0  0  0  0  0  0
   40.1840   23.0780   36.6870 C   0  0  0  0  0  0  0  0  0  0  0  0
   39.7840   22.7250   37.9210 N   0  0  0  0  0  0  0  0  0  0  0  0
   37.8080   25.7010   35.6620 C   0  0  0  0  0  0  0  0  0  0  0  0
   37.8410   25.4190   34.2100 C   0  0  0  0  0  0  0  0  0  0  0  0
   38.3920   27.1070   35.9190 C   0  0  0  0  0  0  0  0  0  0  0  0
   41.2960   22.3960   36.1640 O   0  0  0  0  0  0  0  0  0  0  0  0
   42.5270   22.8470   36.2100 C   0  0  0  0  0  0  0  0  0  0  0  0
   43.0930   24.0220   36.6420 C   0  0  0  0  0  0  0  0  0  0  0  0
   44.4370   24.1740   36.5490 C   0  0  0  0  0  0  0  0  0  0  0  0
   45.2040   23.1250   36.0110 C   0  0  0  0  0  0  0  0  0  0  0  0
   43.9200   21.8050   35.6020 S   0  0  0  0  0  0  0  0  0  0  0  0
   46.6280   22.9370   35.7590 C   0  0  0  0  0  0  0  0  0  0  0  0
   47.2480   21.7290   36.3090 C   0  0  0  0  0  0  0  0  0  0  0  0
   47.5830   23.1490   36.8630 C   0  0  0  0  0  0  0  0  0  0  0  0
   38.4069   23.0513   39.4711 H   0  0  0  0  0  0  0  0  0  0  0  0
   37.1611   24.8530   38.2232 H   0  0  0  0  0  0  0  0  0  0  0  0
   36.7544   25.6650   35.9762 H   0  0  0  0  0  0  0  0  0  0  0  0
   37.9675   24.3382   34.0492 H   0  0  0  0  0  0  0  0  0  0  0  0
   36.8980   25.7502   33.7506 H   0  0  0  0  0  0  0  0  0  0  0  0
   38.6821   25.9590   33.7506 H   0  0  0  0  0  0  0  0  0  0  0  0
   38.4645   27.2815   37.0027 H   0  0  0  0  0  0  0  0  0  0  0  0
   39.3932   27.1761   35.4687 H   0  0  0  0  0  0  0  0  0  0  0  0
   37.7344   27.8651   35.4687 H   0  0  0  0  0  0  0  0  0  0  0  0
   42.4664   24.8256   37.0562 H   0  0  0  0  0  0  0  0  0  0  0  0
   44.9196   25.1023   36.8887 H   0  0  0  0  0  0  0  0  0  0  0  0
   46.5547   23.3669   34.7491 H   0  0  0  0  0  0  0  0  0  0  0  0
   46.6539   21.0249   36.9101 H   0  0  0  0  0  0  0  0  0  0  0  0
   47.8253   20.8851   35.9034 H   0  0  0  0  0  0  0  0  0  0  0  0
   48.5654   23.6044   36.6692 H   0  0  0  0  0  0  0  0  0  0  0  0
   47.5592   23.6407   37.8467 H   0  0  0  0  0  0  0  0  0  0  0  0
  2  1  2  0
  3  2  1  0
  4  3  2  0
  4  5  1  0
  5  6  2  0
  6  1  1  0
  7  9  1  0
  7  3  1  0
  8  7  1  0
 10 11  1  0
 10  5  1  0
 11 12  2  0
 13 12  1  0
 14 13  2  0
 15 14  1  0
 15 11  1  0
 16 14  1  0
 16 17  1  0
 16 18  1  0
 17 18  1  0
  1 19  1  0
  2 20  1  0
  7 21  1  0
  8 22  1  0
  8 23  1  0
  8 24  1  0
  9 25  1  0
  9 26  1  0
  9 27  1  0
 12 28  1  0
 13 29  1  0
 16 30  1  0
 17 31  1  0
 17 32  1  0
 18 33  1  0
 18 34  1  0
M  ISO  8  19  14  20  14  21   8  22   8  23   8  24   8  25   8  26   8
M  ISO  8  27   8  28  14  29  14  30  13  31  13  32  13  33  13  34  13
M  END
>  <minimizedAffinity>  (1) 
-4.41843653

>  <minimizedRMSD>  (1) 
0.354349792

$$$$
