
     RDKit          3D

 38 42  0  0  0  0  0  0  0  0999 V2000
   37.1240   24.4590   31.7190 C   0  0  0  0  0  0  0  0  0  0  0  0
   36.5480   25.7320   31.7450 C   0  0  0  0  0  0  0  0  0  0  0  0
   36.9540   26.5360   32.8010 C   0  0  0  0  0  0  0  0  0  0  0  0
   37.8280   26.0450   33.6700 N   0  0  0  0  0  0  0  0  0  0  0  0
   38.3830   24.8430   33.6600 C   0  0  0  0  0  0  0  0  0  0  0  0
   37.9900   24.0900   32.6530 N   0  0  0  0  0  0  0  0  0  0  0  0
   36.4550   27.8580   32.9610 N   0  0  0  0  0  0  0  0  0  0  0  0
   36.4910   28.8400   32.0530 C   0  0  0  0  0  0  0  0  0  0  0  0
   35.9380   29.9290   32.5390 N   0  0  0  0  0  0  0  0  0  0  0  0
   35.5330   29.6560   33.7840 C   0  0  0  0  0  0  0  0  0  0  0  0
   35.8660   28.3630   34.0190 N   0  0  0  0  0  0  0  0  0  0  0  0
   39.3350   24.1970   34.5360 C   0  0  0  0  0  0  0  0  0  0  0  0
   40.5860   23.8160   34.0900 C   0  0  0  0  0  0  0  0  0  0  0  0
   41.5370   23.1980   34.8780 C   0  0  0  0  0  0  0  0  0  0  0  0
   41.2530   22.9280   36.2030 C   0  0  0  0  0  0  0  0  0  0  0  0
   40.0410   23.2850   36.6780 C   0  0  0  0  0  0  0  0  0  0  0  0
   39.7510   23.0160   38.0030 C   0  0  0  0  0  0  0  0  0  0  0  0
   38.5540   23.3390   38.5710 C   0  0  0  0  0  0  0  0  0  0  0  0
   37.6110   23.9620   37.7570 C   0  0  0  0  0  0  0  0  0  0  0  0
   37.9360   24.2090   36.4600 C   0  0  0  0  0  0  0  0  0  0  0  0
   39.1190   23.8960   35.8720 C   0  0  0  0  0  0  0  0  0  0  0  0
   34.8660   30.4150   34.8290 C   0  0  0  0  0  0  0  0  0  0  0  0
   33.5970   30.6390   35.1900 N   0  0  0  0  0  0  0  0  0  0  0  0
   33.5410   31.4210   36.2350 O   0  0  0  0  0  0  0  0  0  0  0  0
   34.7890   31.7210   36.5750 C   0  0  0  0  0  0  0  0  0  0  0  0
   35.6290   31.1080   35.7180 N   0  0  0  0  0  0  0  0  0  0  0  0
   35.0270   32.5380   37.6540 O   0  0  0  0  0  0  0  0  0  0  0  0
   36.8565   23.7563   30.9161 H   0  0  0  0  0  0  0  0  0  0  0  0
   35.8275   26.0711   30.9861 H   0  0  0  0  0  0  0  0  0  0  0  0
   36.9214   28.7491   31.0448 H   0  0  0  0  0  0  0  0  0  0  0  0
   40.8410   24.0180   33.0392 H   0  0  0  0  0  0  0  0  0  0  0  0
   42.5138   22.9226   34.4537 H   0  0  0  0  0  0  0  0  0  0  0  0
   41.9929   22.4365   36.8518 H   0  0  0  0  0  0  0  0  0  0  0  0
   40.5147   22.5228   38.6223 H   0  0  0  0  0  0  0  0  0  0  0  0
   38.3422   23.1169   39.6273 H   0  0  0  0  0  0  0  0  0  0  0  0
   36.6258   24.2477   38.1543 H   0  0  0  0  0  0  0  0  0  0  0  0
   37.1775   24.7034   35.8353 H   0  0  0  0  0  0  0  0  0  0  0  0
   35.9568   32.7628   37.9091 H   0  0  0  0  0  0  0  0  0  0  0  0
  1  2  2  0
  1  6  1  0
  2  3  1  0
  3  7  1  0
  3  4  2  0
  5  4  1  0
  5 12  1  0
  6  5  2  0
  7 11  1  0
  8  9  2  0
  8  7  1  0
  9 10  1  0
 10 11  2  0
 10 22  1  0
 12 21  1  0
 13 12  2  0
 13 14  1  0
 14 15  2  0
 15 16  1  0
 16 17  2  0
 17 18  1  0
 19 18  2  0
 20 19  1  0
 21 20  2  0
 21 16  1  0
 22 23  2  0
 22 26  1  0
 23 24  1  0
 24 25  1  0
 25 27  1  0
 26 25  2  0
  1 28  1  0
  2 29  1  0
  8 30  1  0
 13 31  1  0
 14 32  1  0
 15 33  1  0
 17 34  1  0
 18 35  1  0
 19 36  1  0
 20 37  1  0
 27 38  1  0
M  ISO  8  28  14  29  14  30  14  31  14  32  14  33  14  34  14  35  14
M  ISO  3  36  14  37  14  38   3
M  END
>  <minimizedAffinity>  (1) 
-7.18393612

>  <minimizedRMSD>  (1) 
0.28180185

$$$$
