
     RDKit          3D

 40 42  0  0  0  0  0  0  0  0999 V2000
   38.7190   23.3170   38.3340 C   0  0  0  0  0  0  0  0  0  0  0  0
   37.9900   24.3380   37.6900 C   0  0  0  0  0  0  0  0  0  0  0  0
   38.4350   24.7370   36.4300 C   0  0  0  0  0  0  0  0  0  0  0  0
   39.5480   24.1340   35.8650 N   0  0  0  0  0  0  0  0  0  0  0  0
   40.1800   23.1660   36.5550 C   0  0  0  0  0  0  0  0  0  0  0  0
   39.7850   22.7570   37.7660 N   0  0  0  0  0  0  0  0  0  0  0  0
   37.7430   25.7810   35.6390 C   0  0  0  0  0  0  0  0  0  0  0  0
   37.7090   25.5210   34.1840 C   0  0  0  0  0  0  0  0  0  0  0  0
   38.3530   27.1760   35.8970 C   0  0  0  0  0  0  0  0  0  0  0  0
   41.3030   22.5360   36.0160 O   0  0  0  0  0  0  0  0  0  0  0  0
   42.5290   22.9700   36.1430 C   0  0  0  0  0  0  0  0  0  0  0  0
   43.0880   24.1950   36.4070 C   0  0  0  0  0  0  0  0  0  0  0  0
   44.4260   24.3240   36.4770 C   0  0  0  0  0  0  0  0  0  0  0  0
   45.2260   23.1850   36.2770 C   0  0  0  0  0  0  0  0  0  0  0  0
   43.9700   21.8410   35.9650 S   0  0  0  0  0  0  0  0  0  0  0  0
   49.3120   22.5840   36.3760 C   0  0  0  0  0  0  0  0  0  0  0  0
   48.5370   21.8530   35.4980 C   0  0  0  0  0  0  0  0  0  0  0  0
   47.1470   22.0040   35.4090 C   0  0  0  0  0  0  0  0  0  0  0  0
   46.6310   22.9440   36.2750 C   0  0  0  0  0  0  0  0  0  0  0  0
   47.3550   23.6950   37.1660 C   0  0  0  0  0  0  0  0  0  0  0  0
   48.7250   23.5130   37.2200 C   0  0  0  0  0  0  0  0  0  0  0  0
   51.0480   22.3180   36.4080 S   0  0  0  0  0  0  0  0  0  0  0  0
   51.7240   23.2200   35.4460 O   0  0  0  0  0  0  0  0  0  0  0  0
   51.4070   20.8990   36.1140 O   0  0  0  0  0  0  0  0  0  0  0  0
   38.3993   22.9751   39.3294 H   0  0  0  0  0  0  0  0  0  0  0  0
   37.1093   24.7993   38.1607 H   0  0  0  0  0  0  0  0  0  0  0  0
   36.7011   25.7528   35.9905 H   0  0  0  0  0  0  0  0  0  0  0  0
   37.5682   24.4445   34.0071 H   0  0  0  0  0  0  0  0  0  0  0  0
   36.8762   26.0790   33.7312 H   0  0  0  0  0  0  0  0  0  0  0  0
   38.6573   25.8461   33.7312 H   0  0  0  0  0  0  0  0  0  0  0  0
   38.4284   27.3485   36.9808 H   0  0  0  0  0  0  0  0  0  0  0  0
   39.3555   27.2268   35.4470 H   0  0  0  0  0  0  0  0  0  0  0  0
   37.7096   27.9464   35.4470 H   0  0  0  0  0  0  0  0  0  0  0  0
   42.4423   25.0721   36.5615 H   0  0  0  0  0  0  0  0  0  0  0  0
   44.8848   25.3015   36.6866 H   0  0  0  0  0  0  0  0  0  0  0  0
   49.0312   21.1219   34.8413 H   0  0  0  0  0  0  0  0  0  0  0  0
   46.5240   21.4250   34.7114 H   0  0  0  0  0  0  0  0  0  0  0  0
   46.8577   24.4247   37.8220 H   0  0  0  0  0  0  0  0  0  0  0  0
   49.3389   24.0965   37.9219 H   0  0  0  0  0  0  0  0  0  0  0  0
   51.4768   22.5979   37.6787 H   0  0  0  0  0  0  0  0  0  0  0  0
  2  1  2  0
  3  2  1  0
  4  3  2  0
  4  5  1  0
  5  6  2  0
  6  1  1  0
  7  9  1  0
  7  3  1  0
  8  7  1  0
 10 11  1  0
 10  5  1  0
 11 12  2  0
 12 13  1  0
 14 13  2  0
 15 11  1  0
 15 14  1  0
 16 22  1  0
 16 21  2  0
 17 16  1  0
 18 17  2  0
 18 19  1  0
 19 14  1  0
 19 20  2  0
 20 21  1  0
 23 22  2  0
 24 22  2  0
  1 25  1  0
  2 26  1  0
  7 27  1  0
  8 28  1  0
  8 29  1  0
  8 30  1  0
  9 31  1  0
  9 32  1  0
  9 33  1  0
 12 34  1  0
 13 35  1  0
 17 36  1  0
 18 37  1  0
 20 38  1  0
 21 39  1  0
 22 40  1  0
M  ISO  8  25  14  26  14  27   8  28   8  29   8  30   8  31   8  32   8
M  ISO  8  33   8  34  14  35  14  36  14  37  14  38  14  39  14  40  11
M  END
>  <minimizedAffinity>  (1) 
-4.41457558

>  <minimizedRMSD>  (1) 
0.79138732

$$$$
