
     RDKit          3D

 34 36  0  0  0  0  0  0  0  0999 V2000
   38.7250   23.3260   38.4200 C   0  0  0  0  0  0  0  0  0  0  0  0
   38.0220   24.3360   37.7420 C   0  0  0  0  0  0  0  0  0  0  0  0
   38.4730   24.6940   36.4720 C   0  0  0  0  0  0  0  0  0  0  0  0
   39.5760   24.0590   35.9290 N   0  0  0  0  0  0  0  0  0  0  0  0
   40.1920   23.1010   36.6470 C   0  0  0  0  0  0  0  0  0  0  0  0
   39.7850   22.7330   37.8680 N   0  0  0  0  0  0  0  0  0  0  0  0
   37.7970   25.7260   35.6480 C   0  0  0  0  0  0  0  0  0  0  0  0
   37.7880   25.4430   34.2000 C   0  0  0  0  0  0  0  0  0  0  0  0
   38.3970   27.1220   35.9220 C   0  0  0  0  0  0  0  0  0  0  0  0
   41.3050   22.4360   36.1360 O   0  0  0  0  0  0  0  0  0  0  0  0
   42.5390   22.8710   36.2290 C   0  0  0  0  0  0  0  0  0  0  0  0
   43.1080   24.0780   36.5570 C   0  0  0  0  0  0  0  0  0  0  0  0
   44.4500   24.2040   36.5610 C   0  0  0  0  0  0  0  0  0  0  0  0
   45.2210   23.0740   36.2220 C   0  0  0  0  0  0  0  0  0  0  0  0
   43.9520   21.7570   35.8780 S   0  0  0  0  0  0  0  0  0  0  0  0
   46.6410   22.7920   36.1090 C   0  0  0  0  0  0  0  0  0  0  0  0
   47.5740   23.1980   36.9090 C   0  0  0  0  0  0  0  0  0  0  0  0
   48.8800   22.8520   36.6790 C   0  0  0  0  0  0  0  0  0  0  0  0
   49.1140   22.0530   35.5480 C   0  0  0  0  0  0  0  0  0  0  0  0
   47.3600   21.8400   34.8540 S   0  0  0  0  0  0  0  0  0  0  0  0
   38.3956   23.0188   39.4236 H   0  0  0  0  0  0  0  0  0  0  0  0
   37.1482   24.8262   38.1962 H   0  0  0  0  0  0  0  0  0  0  0  0
   36.7426   25.7050   35.9607 H   0  0  0  0  0  0  0  0  0  0  0  0
   37.7534   24.3554   34.0392 H   0  0  0  0  0  0  0  0  0  0  0  0
   36.9042   25.9099   33.7406 H   0  0  0  0  0  0  0  0  0  0  0  0
   38.6996   25.8528   33.7406 H   0  0  0  0  0  0  0  0  0  0  0  0
   38.4668   27.2844   37.0077 H   0  0  0  0  0  0  0  0  0  0  0  0
   39.4010   27.1834   35.4768 H   0  0  0  0  0  0  0  0  0  0  0  0
   37.7507   27.8927   35.4768 H   0  0  0  0  0  0  0  0  0  0  0  0
   42.4714   24.9372   36.8150 H   0  0  0  0  0  0  0  0  0  0  0  0
   44.9288   25.1596   36.8209 H   0  0  0  0  0  0  0  0  0  0  0  0
   47.3177   23.8232   37.7770 H   0  0  0  0  0  0  0  0  0  0  0  0
   49.6955   23.1802   37.3402 H   0  0  0  0  0  0  0  0  0  0  0  0
   50.0650   21.6547   35.1646 H   0  0  0  0  0  0  0  0  0  0  0  0
  2  1  2  0
  3  2  1  0
  4  3  2  0
  4  5  1  0
  5  6  2  0
  6  1  1  0
  7  9  1  0
  7  3  1  0
  8  7  1  0
 10 11  1  0
 10  5  1  0
 11 12  2  0
 12 13  1  0
 14 13  2  0
 15 14  1  0
 15 11  1  0
 16 14  1  0
 16 17  2  0
 18 17  1  0
 19 18  2  0
 20 19  1  0
 20 16  1  0
  1 21  1  0
  2 22  1  0
  7 23  1  0
  8 24  1  0
  8 25  1  0
  8 26  1  0
  9 27  1  0
  9 28  1  0
  9 29  1  0
 12 30  1  0
 13 31  1  0
 17 32  1  0
 18 33  1  0
 19 34  1  0
M  ISO  8  21  14  22  14  23   8  24   8  25   8  26   8  27   8  28   8
M  ISO  6  29   8  30  14  31  14  32  14  33  14  34  14
M  END
>  <minimizedAffinity>  (1) 
-4.40828991

>  <minimizedRMSD>  (1) 
0.544220865

$$$$
