
     RDKit          3D

 33 35  0  0  0  0  0  0  0  0999 V2000
   38.7230   23.3310   38.4310 C   0  0  0  0  0  0  0  0  0  0  0  0
   38.0160   24.3450   37.7510 C   0  0  0  0  0  0  0  0  0  0  0  0
   38.4710   24.6940   36.4740 C   0  0  0  0  0  0  0  0  0  0  0  0
   39.5630   24.0530   35.9390 N   0  0  0  0  0  0  0  0  0  0  0  0
   40.1790   23.0970   36.6550 C   0  0  0  0  0  0  0  0  0  0  0  0
   39.7750   22.7330   37.8820 N   0  0  0  0  0  0  0  0  0  0  0  0
   37.7910   25.7270   35.6530 C   0  0  0  0  0  0  0  0  0  0  0  0
   37.7940   25.4370   34.2030 C   0  0  0  0  0  0  0  0  0  0  0  0
   38.3860   27.1280   35.9150 C   0  0  0  0  0  0  0  0  0  0  0  0
   41.2870   22.4220   36.1470 O   0  0  0  0  0  0  0  0  0  0  0  0
   42.5240   22.8490   36.2310 C   0  0  0  0  0  0  0  0  0  0  0  0
   43.1050   24.0460   36.5730 C   0  0  0  0  0  0  0  0  0  0  0  0
   44.4440   24.1680   36.5620 C   0  0  0  0  0  0  0  0  0  0  0  0
   45.2030   23.0460   36.1930 C   0  0  0  0  0  0  0  0  0  0  0  0
   43.9370   21.7370   35.8410 S   0  0  0  0  0  0  0  0  0  0  0  0
   46.6300   22.8110   36.0710 C   0  0  0  0  0  0  0  0  0  0  0  0
   47.1410   22.1800   34.9650 C   0  0  0  0  0  0  0  0  0  0  0  0
   48.9930   22.1570   35.3520 S   0  0  0  0  0  0  0  0  0  0  0  0
   48.6230   23.0420   36.9870 C   0  0  0  0  0  0  0  0  0  0  0  0
   47.4990   23.1760   36.9830 N   0  0  0  0  0  0  0  0  0  0  0  0
   38.3964   23.0290   39.4371 H   0  0  0  0  0  0  0  0  0  0  0  0
   37.1448   24.8400   38.2047 H   0  0  0  0  0  0  0  0  0  0  0  0
   36.7390   25.7082   35.9739 H   0  0  0  0  0  0  0  0  0  0  0  0
   37.8053   24.3482   34.0469 H   0  0  0  0  0  0  0  0  0  0  0  0
   36.8914   25.8642   33.7418 H   0  0  0  0  0  0  0  0  0  0  0  0
   38.6876   25.8828   33.7418 H   0  0  0  0  0  0  0  0  0  0  0  0
   38.4585   27.2987   36.9993 H   0  0  0  0  0  0  0  0  0  0  0  0
   39.3883   27.1905   35.4662 H   0  0  0  0  0  0  0  0  0  0  0  0
   37.7350   27.8927   35.4662 H   0  0  0  0  0  0  0  0  0  0  0  0
   42.4759   24.9031   36.8553 H   0  0  0  0  0  0  0  0  0  0  0  0
   44.9295   25.1170   36.8336 H   0  0  0  0  0  0  0  0  0  0  0  0
   46.6120   21.7893   34.0832 H   0  0  0  0  0  0  0  0  0  0  0  0
   49.3376   23.3542   37.7628 H   0  0  0  0  0  0  0  0  0  0  0  0
  2  1  2  0
  3  2  1  0
  4  3  2  0
  4  5  1  0
  5  6  2  0
  6  1  1  0
  7  9  1  0
  7  3  1  0
  8  7  1  0
 10 11  1  0
 10  5  1  0
 11 12  2  0
 13 12  1  0
 14 13  2  0
 15 14  1  0
 15 11  1  0
 16 14  1  0
 16 20  1  0
 17 18  1  0
 17 16  2  0
 18 19  1  0
 20 19  2  0
  1 21  1  0
  2 22  1  0
  7 23  1  0
  8 24  1  0
  8 25  1  0
  8 26  1  0
  9 27  1  0
  9 28  1  0
  9 29  1  0
 12 30  1  0
 13 31  1  0
 17 32  1  0
 19 33  1  0
M  ISO  8  21  14  22  14  23   8  24   8  25   8  26   8  27   8  28   8
M  ISO  5  29   8  30  14  31  14  32  14  33  14
M  END
>  <minimizedAffinity>  (1) 
-4.4072957

>  <minimizedRMSD>  (1) 
0.423280954

$$$$
