
     RDKit          3D

 34 36  0  0  0  0  0  0  0  0999 V2000
   38.7250   23.3310   38.4390 C   0  0  0  0  0  0  0  0  0  0  0  0
   38.0180   24.3440   37.7580 C   0  0  0  0  0  0  0  0  0  0  0  0
   38.4710   24.6890   36.4840 C   0  0  0  0  0  0  0  0  0  0  0  0
   39.5700   24.0430   35.9390 N   0  0  0  0  0  0  0  0  0  0  0  0
   40.1830   23.0870   36.6570 C   0  0  0  0  0  0  0  0  0  0  0  0
   39.7760   22.7300   37.8880 N   0  0  0  0  0  0  0  0  0  0  0  0
   37.7970   25.7170   35.6660 C   0  0  0  0  0  0  0  0  0  0  0  0
   37.8020   25.4430   34.2120 C   0  0  0  0  0  0  0  0  0  0  0  0
   38.4040   27.1170   35.9070 C   0  0  0  0  0  0  0  0  0  0  0  0
   41.2960   22.4180   36.1260 O   0  0  0  0  0  0  0  0  0  0  0  0
   42.5270   22.8470   36.2210 C   0  0  0  0  0  0  0  0  0  0  0  0
   43.0940   24.0520   36.5660 C   0  0  0  0  0  0  0  0  0  0  0  0
   44.4420   24.1760   36.5680 C   0  0  0  0  0  0  0  0  0  0  0  0
   45.2200   23.0570   36.2130 C   0  0  0  0  0  0  0  0  0  0  0  0
   43.9450   21.7400   35.8530 S   0  0  0  0  0  0  0  0  0  0  0  0
   46.6400   22.8270   36.1070 C   0  0  0  0  0  0  0  0  0  0  0  0
   47.2450   22.1530   35.0900 C   0  0  0  0  0  0  0  0  0  0  0  0
   48.5680   22.1970   35.4270 N   0  0  0  0  0  0  0  0  0  0  0  0
   48.7120   22.8740   36.5960 C   0  0  0  0  0  0  0  0  0  0  0  0
   47.4780   23.2740   37.0260 N   0  0  0  0  0  0  0  0  0  0  0  0
   38.4005   23.0319   39.4466 H   0  0  0  0  0  0  0  0  0  0  0  0
   37.1474   24.8404   38.2115 H   0  0  0  0  0  0  0  0  0  0  0  0
   36.7497   25.6865   36.0009 H   0  0  0  0  0  0  0  0  0  0  0  0
   37.8218   24.3561   34.0438 H   0  0  0  0  0  0  0  0  0  0  0  0
   36.8959   25.8682   33.7556 H   0  0  0  0  0  0  0  0  0  0  0  0
   38.6919   25.9010   33.7556 H   0  0  0  0  0  0  0  0  0  0  0  0
   38.4837   27.3008   36.9886 H   0  0  0  0  0  0  0  0  0  0  0  0
   39.4043   27.1662   35.4520 H   0  0  0  0  0  0  0  0  0  0  0  0
   37.7562   27.8808   35.4520 H   0  0  0  0  0  0  0  0  0  0  0  0
   42.4577   24.9071   36.8378 H   0  0  0  0  0  0  0  0  0  0  0  0
   44.9188   25.1290   36.8407 H   0  0  0  0  0  0  0  0  0  0  0  0
   46.7802   21.6857   34.2093 H   0  0  0  0  0  0  0  0  0  0  0  0
   49.6643   23.0681   37.1112 H   0  0  0  0  0  0  0  0  0  0  0  0
   47.2512   23.8063   37.8781 H   0  0  0  0  0  0  0  0  0  0  0  0
  2  1  2  0
  3  2  1  0
  4  3  2  0
  4  5  1  0
  5  6  2  0
  6  1  1  0
  7  9  1  0
  7  3  1  0
  8  7  1  0
 10 11  1  0
 10  5  1  0
 11 12  2  0
 12 13  1  0
 14 13  2  0
 15 14  1  0
 15 11  1  0
 16 14  1  0
 16 20  1  0
 17 18  1  0
 17 16  2  0
 18 19  2  0
 19 20  1  0
  1 21  1  0
  2 22  1  0
  7 23  1  0
  8 24  1  0
  8 25  1  0
  8 26  1  0
  9 27  1  0
  9 28  1  0
  9 29  1  0
 12 30  1  0
 13 31  1  0
 17 32  1  0
 19 33  1  0
 20 34  1  0
M  ISO  8  21  14  22  14  23   8  24   8  25   8  26   8  27   8  28   8
M  ISO  6  29   8  30  14  31  14  32  14  33  14  34   9
M  END
>  <minimizedAffinity>  (1) 
-4.38576794

>  <minimizedRMSD>  (1) 
0.419503123

$$$$
