
     RDKit          3D

 28 29  0  0  0  0  0  0  0  0999 V2000
   38.7290   23.3780   38.4610 C   0  0  0  0  0  0  0  0  0  0  0  0
   38.0320   24.4010   37.7900 C   0  0  0  0  0  0  0  0  0  0  0  0
   38.4500   24.7010   36.4930 C   0  0  0  0  0  0  0  0  0  0  0  0
   39.5040   24.0000   35.9270 N   0  0  0  0  0  0  0  0  0  0  0  0
   40.1070   23.0450   36.6360 C   0  0  0  0  0  0  0  0  0  0  0  0
   39.7400   22.7250   37.8830 N   0  0  0  0  0  0  0  0  0  0  0  0
   37.7790   25.7380   35.6740 C   0  0  0  0  0  0  0  0  0  0  0  0
   37.7860   25.4730   34.2190 C   0  0  0  0  0  0  0  0  0  0  0  0
   38.3850   27.1350   35.9260 C   0  0  0  0  0  0  0  0  0  0  0  0
   41.1780   22.3220   36.0770 O   0  0  0  0  0  0  0  0  0  0  0  0
   42.4330   22.7080   36.1610 C   0  0  0  0  0  0  0  0  0  0  0  0
   43.0600   23.8860   36.5560 C   0  0  0  0  0  0  0  0  0  0  0  0
   44.4150   23.9230   36.5100 C   0  0  0  0  0  0  0  0  0  0  0  0
   45.1260   22.7890   36.0700 C   0  0  0  0  0  0  0  0  0  0  0  0
   43.7810   21.5430   35.6820 S   0  0  0  0  0  0  0  0  0  0  0  0
   46.9880   22.8130   35.9930 S   0  0  0  0  0  0  0  0  0  0  0  0
   38.4334   23.1103   39.4862 H   0  0  0  0  0  0  0  0  0  0  0  0
   37.1980   24.9379   38.2655 H   0  0  0  0  0  0  0  0  0  0  0  0
   36.7303   25.7057   36.0045 H   0  0  0  0  0  0  0  0  0  0  0  0
   37.8147   24.3874   34.0442 H   0  0  0  0  0  0  0  0  0  0  0  0
   36.8764   25.8936   33.7653 H   0  0  0  0  0  0  0  0  0  0  0  0
   38.6721   25.9410   33.7653 H   0  0  0  0  0  0  0  0  0  0  0  0
   38.4616   27.3115   37.0090 H   0  0  0  0  0  0  0  0  0  0  0  0
   39.3866   27.1871   35.4743 H   0  0  0  0  0  0  0  0  0  0  0  0
   37.7387   27.9020   35.4743 H   0  0  0  0  0  0  0  0  0  0  0  0
   42.4775   24.7559   36.8934 H   0  0  0  0  0  0  0  0  0  0  0  0
   44.9550   24.8318   36.8140 H   0  0  0  0  0  0  0  0  0  0  0  0
   47.4976   22.8196   37.2647 H   0  0  0  0  0  0  0  0  0  0  0  0
  2  1  2  0
  3  2  1  0
  4  3  2  0
  4  5  1  0
  5  6  2  0
  6  1  1  0
  7  9  1  0
  7  3  1  0
  8  7  1  0
 10 11  1  0
 10  5  1  0
 11 12  2  0
 13 12  1  0
 14 13  2  0
 15 14  1  0
 15 11  1  0
 16 14  1  0
  1 17  1  0
  2 18  1  0
  7 19  1  0
  8 20  1  0
  8 21  1  0
  8 22  1  0
  9 23  1  0
  9 24  1  0
  9 25  1  0
 12 26  1  0
 13 27  1  0
 16 28  1  0
M  ISO  8  17  14  18  14  19   8  20   8  21   8  22   8  23   8  24   8
M  ISO  4  25   8  26  14  27  14  28  11
M  END
>  <minimizedAffinity>  (1) 
-4.29254627

>  <minimizedRMSD>  (1) 
0.0888606235

$$$$
