
     RDKit          3D

 46 50  0  0  0  0  0  0  0  0999 V2000
   36.5470   24.0020   31.8840 C   0  0  0  0  0  0  0  0  0  0  0  0
   36.1780   25.3430   31.8690 C   0  0  0  0  0  0  0  0  0  0  0  0
   36.8080   26.1280   32.8190 C   0  0  0  0  0  0  0  0  0  0  0  0
   37.6780   25.5560   33.6350 N   0  0  0  0  0  0  0  0  0  0  0  0
   38.0450   24.2930   33.6700 C   0  0  0  0  0  0  0  0  0  0  0  0
   37.4400   23.5510   32.7610 N   0  0  0  0  0  0  0  0  0  0  0  0
   36.5360   27.5180   32.9300 N   0  0  0  0  0  0  0  0  0  0  0  0
   36.6330   28.4390   31.9690 C   0  0  0  0  0  0  0  0  0  0  0  0
   36.3030   29.6360   32.4240 N   0  0  0  0  0  0  0  0  0  0  0  0
   35.9860   29.4890   33.7150 C   0  0  0  0  0  0  0  0  0  0  0  0
   36.1380   28.1780   33.9990 N   0  0  0  0  0  0  0  0  0  0  0  0
   38.9700   23.5490   34.4950 C   0  0  0  0  0  0  0  0  0  0  0  0
   39.9890   22.7840   33.9400 C   0  0  0  0  0  0  0  0  0  0  0  0
   40.8880   22.0620   34.6820 C   0  0  0  0  0  0  0  0  0  0  0  0
   40.8140   22.0660   36.0690 C   0  0  0  0  0  0  0  0  0  0  0  0
   39.8340   22.8020   36.6430 C   0  0  0  0  0  0  0  0  0  0  0  0
   39.7520   22.8120   38.0270 C   0  0  0  0  0  0  0  0  0  0  0  0
   38.8030   23.5190   38.7030 C   0  0  0  0  0  0  0  0  0  0  0  0
   37.8980   24.2450   37.9330 C   0  0  0  0  0  0  0  0  0  0  0  0
   38.0070   24.2130   36.5680 C   0  0  0  0  0  0  0  0  0  0  0  0
   38.9450   23.5150   35.8870 C   0  0  0  0  0  0  0  0  0  0  0  0
   35.5490   30.4030   34.7640 C   0  0  0  0  0  0  0  0  0  0  0  0
   36.1520   31.1200   35.7140 N   0  0  0  0  0  0  0  0  0  0  0  0
   35.2730   31.7860   36.4030 O   0  0  0  0  0  0  0  0  0  0  0  0
   34.0780   31.5160   35.9170 C   0  0  0  0  0  0  0  0  0  0  0  0
   34.2200   30.6530   34.8900 N   0  0  0  0  0  0  0  0  0  0  0  0
   32.7520   32.0470   36.3830 C   0  0  0  0  0  0  0  0  0  0  0  0
   32.8880   33.2160   37.3000 C   0  0  0  0  0  0  0  0  0  0  0  0
   31.9490   30.9330   37.0540 C   0  0  0  0  0  0  0  0  0  0  0  0
   36.0950   23.3060   31.1620 H   0  0  0  0  0  0  0  0  0  0  0  0
   35.4430   25.7479   31.1578 H   0  0  0  0  0  0  0  0  0  0  0  0
   36.9460   28.2301   30.9354 H   0  0  0  0  0  0  0  0  0  0  0  0
   40.0793   22.7562   32.8441 H   0  0  0  0  0  0  0  0  0  0  0  0
   41.6709   21.4773   34.1768 H   0  0  0  0  0  0  0  0  0  0  0  0
   41.5265   21.4915   36.6791 H   0  0  0  0  0  0  0  0  0  0  0  0
   40.4828   22.2253   38.6030 H   0  0  0  0  0  0  0  0  0  0  0  0
   38.7544   23.5163   39.8019 H   0  0  0  0  0  0  0  0  0  0  0  0
   37.1057   24.8367   38.4148 H   0  0  0  0  0  0  0  0  0  0  0  0
   37.2801   24.7964   35.9837 H   0  0  0  0  0  0  0  0  0  0  0  0
   32.2149   32.4049   35.4923 H   0  0  0  0  0  0  0  0  0  0  0  0
   32.8478   32.8701   38.3434 H   0  0  0  0  0  0  0  0  0  0  0  0
   33.8504   33.7161   37.1163 H   0  0  0  0  0  0  0  0  0  0  0  0
   32.0661   33.9237   37.1163 H   0  0  0  0  0  0  0  0  0  0  0  0
   32.0226   31.0351   38.1468 H   0  0  0  0  0  0  0  0  0  0  0  0
   30.8947   31.0063   36.7491 H   0  0  0  0  0  0  0  0  0  0  0  0
   32.3518   29.9559   36.7491 H   0  0  0  0  0  0  0  0  0  0  0  0
  1  6  2  0
  2  1  1  0
  2  3  2  0
  3  7  1  0
  3  4  1  0
  4  5  2  0
  5 12  1  0
  6  5  1  0
  7 11  1  0
  8  9  2  0
  8  7  1  0
  9 10  1  0
 10 11  2  0
 10 22  1  0
 12 21  1  0
 13 12  2  0
 13 14  1  0
 14 15  2  0
 15 16  1  0
 16 17  2  0
 17 18  1  0
 19 18  2  0
 20 19  1  0
 21 20  2  0
 21 16  1  0
 22 26  1  0
 22 23  2  0
 23 24  1  0
 25 27  1  0
 25 24  1  0
 26 25  2  0
 27 29  1  0
 27 28  1  0
  1 30  1  0
  2 31  1  0
  8 32  1  0
 13 33  1  0
 14 34  1  0
 15 35  1  0
 17 36  1  0
 18 37  1  0
 19 38  1  0
 20 39  1  0
 27 40  1  0
 28 41  1  0
 28 42  1  0
 28 43  1  0
 29 44  1  0
 29 45  1  0
 29 46  1  0
M  ISO  8  30  14  31  14  32  14  33  14  34  14  35  14  36  14  37  14
M  ISO  8  38  14  39  14  40   8  41   8  42   8  43   8  44   8  45   8
M  ISO  1  46   8
M  END
>  <minimizedAffinity>  (1) 
-7.15373659

>  <minimizedRMSD>  (1) 
1.52107489

$$$$
