
     RDKit          3D

 44 49  0  0  0  0  0  0  0  0999 V2000
   36.7030   24.4220   31.9830 C   0  0  0  0  0  0  0  0  0  0  0  0
   36.2390   25.7220   32.0210 C   0  0  0  0  0  0  0  0  0  0  0  0
   36.8260   26.5210   32.9940 C   0  0  0  0  0  0  0  0  0  0  0  0
   37.7480   25.9820   33.7740 N   0  0  0  0  0  0  0  0  0  0  0  0
   38.2030   24.7410   33.7510 C   0  0  0  0  0  0  0  0  0  0  0  0
   37.6380   23.9970   32.8240 N   0  0  0  0  0  0  0  0  0  0  0  0
   36.4610   27.8800   33.1650 N   0  0  0  0  0  0  0  0  0  0  0  0
   36.4750   28.8400   32.2200 C   0  0  0  0  0  0  0  0  0  0  0  0
   36.0740   29.9910   32.7250 N   0  0  0  0  0  0  0  0  0  0  0  0
   35.7920   29.7790   34.0280 C   0  0  0  0  0  0  0  0  0  0  0  0
   36.0430   28.4690   34.2580 N   0  0  0  0  0  0  0  0  0  0  0  0
   39.1940   24.0350   34.5360 C   0  0  0  0  0  0  0  0  0  0  0  0
   40.3540   23.5360   33.9640 C   0  0  0  0  0  0  0  0  0  0  0  0
   41.3200   22.8600   34.6740 C   0  0  0  0  0  0  0  0  0  0  0  0
   41.1650   22.6460   36.0360 C   0  0  0  0  0  0  0  0  0  0  0  0
   40.0470   23.1180   36.6280 C   0  0  0  0  0  0  0  0  0  0  0  0
   39.8900   22.9070   37.9810 C   0  0  0  0  0  0  0  0  0  0  0  0
   38.7930   23.3470   38.6700 C   0  0  0  0  0  0  0  0  0  0  0  0
   37.8230   24.0290   37.9370 C   0  0  0  0  0  0  0  0  0  0  0  0
   38.0100   24.2210   36.6020 C   0  0  0  0  0  0  0  0  0  0  0  0
   39.1030   23.7870   35.9000 C   0  0  0  0  0  0  0  0  0  0  0  0
   35.3160   30.6250   35.1080 C   0  0  0  0  0  0  0  0  0  0  0  0
   35.8740   31.4890   35.9610 N   0  0  0  0  0  0  0  0  0  0  0  0
   34.9780   31.9910   36.7500 O   0  0  0  0  0  0  0  0  0  0  0  0
   33.7970   31.4590   36.4280 C   0  0  0  0  0  0  0  0  0  0  0  0
   33.9860   30.5980   35.3980 N   0  0  0  0  0  0  0  0  0  0  0  0
   32.5100   31.7820   37.1070 C   0  0  0  0  0  0  0  0  0  0  0  0
   31.9830   33.1500   37.0170 C   0  0  0  0  0  0  0  0  0  0  0  0
   31.3020   32.0770   36.2410 C   0  0  0  0  0  0  0  0  0  0  0  0
   36.2892   23.7240   31.2403 H   0  0  0  0  0  0  0  0  0  0  0  0
   35.4650   26.0957   31.3345 H   0  0  0  0  0  0  0  0  0  0  0  0
   36.7783   28.6858   31.1739 H   0  0  0  0  0  0  0  0  0  0  0  0
   40.5106   23.6884   32.8859 H   0  0  0  0  0  0  0  0  0  0  0  0
   42.2184   22.4880   34.1596 H   0  0  0  0  0  0  0  0  0  0  0  0
   41.9296   22.1082   36.6159 H   0  0  0  0  0  0  0  0  0  0  0  0
   40.6759   22.3647   38.5271 H   0  0  0  0  0  0  0  0  0  0  0  0
   38.6818   23.1711   39.7501 H   0  0  0  0  0  0  0  0  0  0  0  0
   36.9165   24.4079   38.4316 H   0  0  0  0  0  0  0  0  0  0  0  0
   37.2286   24.7625   36.0487 H   0  0  0  0  0  0  0  0  0  0  0  0
   32.7322   31.0912   37.9337 H   0  0  0  0  0  0  0  0  0  0  0  0
   31.4789   33.5986   37.8857 H   0  0  0  0  0  0  0  0  0  0  0  0
   32.4197   34.1259   36.7583 H   0  0  0  0  0  0  0  0  0  0  0  0
   30.3048   31.7233   36.5420 H   0  0  0  0  0  0  0  0  0  0  0  0
   31.0333   31.9192   35.1861 H   0  0  0  0  0  0  0  0  0  0  0  0
  1  2  2  0
  1  6  1  0
  2  3  1  0
  3  7  1  0
  3  4  2  0
  5  4  1  0
  5 12  1  0
  6  5  2  0
  7 11  1  0
  8  9  2  0
  8  7  1  0
  9 10  1  0
 10 11  2  0
 10 22  1  0
 12 21  1  0
 13 12  2  0
 13 14  1  0
 14 15  2  0
 15 16  1  0
 16 17  2  0
 17 18  1  0
 19 18  2  0
 20 19  1  0
 21 20  2  0
 21 16  1  0
 22 26  1  0
 22 23  2  0
 23 24  1  0
 25 24  1  0
 25 27  1  0
 26 25  2  0
 28 27  1  0
 29 28  1  0
 29 27  1  0
  1 30  1  0
  2 31  1  0
  8 32  1  0
 13 33  1  0
 14 34  1  0
 15 35  1  0
 17 36  1  0
 18 37  1  0
 19 38  1  0
 20 39  1  0
 27 40  1  0
 28 41  1  0
 28 42  1  0
 29 43  1  0
 29 44  1  0
M  ISO  8  30  14  31  14  32  14  33  14  34  14  35  14  36  14  37  14
M  ISO  7  38  14  39  14  40  13  41  13  42  13  43  13  44  13
M  END
>  <minimizedAffinity>  (1) 
-7.14667273

>  <minimizedRMSD>  (1) 
1.42377877

$$$$
