
     RDKit          3D

 44 47  0  0  0  0  0  0  0  0999 V2000
   41.9960   22.4490   35.3090 C   0  0  0  0  0  0  0  0  0  0  0  0
   42.7180   23.1200   34.3630 C   0  0  0  0  0  0  0  0  0  0  0  0
   44.0460   23.2240   34.4800 C   0  0  0  0  0  0  0  0  0  0  0  0
   44.6560   22.6080   35.6250 C   0  0  0  0  0  0  0  0  0  0  0  0
   43.2350   21.8690   36.5280 S   0  0  0  0  0  0  0  0  0  0  0  0
   46.0630   22.5580   35.9900 C   0  0  0  0  0  0  0  0  0  0  0  0
   46.8630   21.5630   35.5070 C   0  0  0  0  0  0  0  0  0  0  0  0
   48.1920   21.6420   35.8600 C   0  0  0  0  0  0  0  0  0  0  0  0
   48.6550   22.6740   36.6530 C   0  0  0  0  0  0  0  0  0  0  0  0
   47.8240   23.6570   37.1250 C   0  0  0  0  0  0  0  0  0  0  0  0
   46.4920   23.5710   36.7690 C   0  0  0  0  0  0  0  0  0  0  0  0
   45.7620   24.6980   37.3890 C   0  0  0  0  0  0  0  0  0  0  0  0
   46.1490   25.0730   38.6840 C   0  0  0  0  0  0  0  0  0  0  0  0
   45.3270   26.1430   39.0120 C   0  0  0  0  0  0  0  0  0  0  0  0
   44.5050   26.3750   37.9550 N   0  0  0  0  0  0  0  0  0  0  0  0
   44.7660   25.5100   36.9880 N   0  0  0  0  0  0  0  0  0  0  0  0
   40.7220   22.1810   35.4730 O   0  0  0  0  0  0  0  0  0  0  0  0
   38.7310   23.3830   38.1830 C   0  0  0  0  0  0  0  0  0  0  0  0
   38.0940   24.5130   37.6390 C   0  0  0  0  0  0  0  0  0  0  0  0
   38.3760   24.8410   36.3180 C   0  0  0  0  0  0  0  0  0  0  0  0
   39.2620   24.0580   35.5840 N   0  0  0  0  0  0  0  0  0  0  0  0
   39.8300   22.9870   36.1870 C   0  0  0  0  0  0  0  0  0  0  0  0
   39.5760   22.6490   37.4570 N   0  0  0  0  0  0  0  0  0  0  0  0
   37.7500   25.9950   35.6180 C   0  0  0  0  0  0  0  0  0  0  0  0
   37.5750   25.7950   34.1780 C   0  0  0  0  0  0  0  0  0  0  0  0
   38.5330   27.3110   35.9010 C   0  0  0  0  0  0  0  0  0  0  0  0
   42.2056   23.5758   33.5029 H   0  0  0  0  0  0  0  0  0  0  0  0
   44.6466   23.7594   33.7300 H   0  0  0  0  0  0  0  0  0  0  0  0
   46.4717   20.7508   34.8768 H   0  0  0  0  0  0  0  0  0  0  0  0
   48.8942   20.8730   35.5057 H   0  0  0  0  0  0  0  0  0  0  0  0
   49.7231   22.7081   36.9137 H   0  0  0  0  0  0  0  0  0  0  0  0
   48.1999   24.4751   37.7570 H   0  0  0  0  0  0  0  0  0  0  0  0
   46.9341   24.6178   39.3055 H   0  0  0  0  0  0  0  0  0  0  0  0
   45.3391   26.7030   39.9587 H   0  0  0  0  0  0  0  0  0  0  0  0
   43.7873   27.1126   37.9128 H   0  0  0  0  0  0  0  0  0  0  0  0
   38.5287   23.0993   39.2263 H   0  0  0  0  0  0  0  0  0  0  0  0
   37.3965   25.1165   38.2385 H   0  0  0  0  0  0  0  0  0  0  0  0
   36.7359   26.0797   36.0357 H   0  0  0  0  0  0  0  0  0  0  0  0
   36.8596   24.9774   34.0056 H   0  0  0  0  0  0  0  0  0  0  0  0
   37.1911   26.7201   33.7233 H   0  0  0  0  0  0  0  0  0  0  0  0
   38.5429   25.5373   33.7233 H   0  0  0  0  0  0  0  0  0  0  0  0
   38.6210   27.4589   36.9875 H   0  0  0  0  0  0  0  0  0  0  0  0
   39.5374   27.2426   35.4577 H   0  0  0  0  0  0  0  0  0  0  0  0
   37.9937   28.1611   35.4577 H   0  0  0  0  0  0  0  0  0  0  0  0
  1 17  1  0
  1  5  1  0
  2  3  1  0
  2  1  2  0
  3  4  2  0
  4  6  1  0
  4  5  1  0
  6 11  2  0
  7  8  2  0
  7  6  1  0
  8  9  1  0
  9 10  2  0
 11 10  1  0
 11 12  1  0
 12 13  1  0
 13 14  2  0
 15 14  1  0
 16 12  2  0
 16 15  1  0
 17 22  1  0
 19 18  2  0
 20 19  1  0
 21 22  1  0
 21 20  2  0
 22 23  2  0
 23 18  1  0
 24 26  1  0
 24 20  1  0
 25 24  1  0
  2 27  1  0
  3 28  1  0
  7 29  1  0
  8 30  1  0
  9 31  1  0
 10 32  1  0
 13 33  1  0
 14 34  1  0
 15 35  1  0
 18 36  1  0
 19 37  1  0
 24 38  1  0
 25 39  1  0
 25 40  1  0
 25 41  1  0
 26 42  1  0
 26 43  1  0
 26 44  1  0
M  ISO  8  27  14  28  14  29  14  30  14  31  14  32  14  33  14  34  14
M  ISO  8  35   9  36  14  37  14  38   8  39   8  40   8  41   8  42   8
M  ISO  2  43   8  44   8
M  END
>  <minimizedAffinity>  (1) 
-5.57615232

>  <minimizedRMSD>  (1) 
1.17857742

$$$$
