
     RDKit          3D

 44 47  0  0  0  0  0  0  0  0999 V2000
   42.3270   23.2000   35.2150 C   0  0  0  0  0  0  0  0  0  0  0  0
   43.0920   24.1140   34.5500 C   0  0  0  0  0  0  0  0  0  0  0  0
   44.3880   24.2820   34.8750 C   0  0  0  0  0  0  0  0  0  0  0  0
   44.9040   23.4620   35.9370 C   0  0  0  0  0  0  0  0  0  0  0  0
   43.4510   22.4430   36.4430 S   0  0  0  0  0  0  0  0  0  0  0  0
   46.2480   23.4290   36.4930 C   0  0  0  0  0  0  0  0  0  0  0  0
   47.0460   22.3450   36.2810 C   0  0  0  0  0  0  0  0  0  0  0  0
   48.3250   22.4350   36.7890 C   0  0  0  0  0  0  0  0  0  0  0  0
   48.7560   23.5480   37.4630 C   0  0  0  0  0  0  0  0  0  0  0  0
   47.9100   24.6380   37.6610 C   0  0  0  0  0  0  0  0  0  0  0  0
   46.6290   24.5450   37.1530 C   0  0  0  0  0  0  0  0  0  0  0  0
   45.8520   25.7680   37.5540 C   0  0  0  0  0  0  0  0  0  0  0  0
   45.8050   25.9440   39.1070 C   0  0  0  0  0  0  0  0  0  0  0  0
   44.6010   25.5890   38.3430 C   0  0  0  0  0  0  0  0  0  0  0  0
   41.0810   22.8300   35.1200 O   0  0  0  0  0  0  0  0  0  0  0  0
   38.6700   23.3190   37.6790 C   0  0  0  0  0  0  0  0  0  0  0  0
   37.9440   24.4380   37.2430 C   0  0  0  0  0  0  0  0  0  0  0  0
   38.3160   25.0210   36.0330 C   0  0  0  0  0  0  0  0  0  0  0  0
   39.3750   24.4880   35.3050 N   0  0  0  0  0  0  0  0  0  0  0  0
   40.0180   23.4070   35.8020 C   0  0  0  0  0  0  0  0  0  0  0  0
   39.6790   22.8290   36.9620 N   0  0  0  0  0  0  0  0  0  0  0  0
   37.6130   26.1940   35.4520 C   0  0  0  0  0  0  0  0  0  0  0  0
   37.3510   26.0840   34.0170 C   0  0  0  0  0  0  0  0  0  0  0  0
   38.3770   27.5150   35.7670 C   0  0  0  0  0  0  0  0  0  0  0  0
   42.6475   24.7166   33.7442 H   0  0  0  0  0  0  0  0  0  0  0  0
   45.0224   25.0128   34.3521 H   0  0  0  0  0  0  0  0  0  0  0  0
   46.6927   21.4552   35.7394 H   0  0  0  0  0  0  0  0  0  0  0  0
   49.0173   21.5916   36.6497 H   0  0  0  0  0  0  0  0  0  0  0  0
   49.7839   23.5815   37.8531 H   0  0  0  0  0  0  0  0  0  0  0  0
   48.2487   25.5353   38.1997 H   0  0  0  0  0  0  0  0  0  0  0  0
   46.1038   26.3539   36.6577 H   0  0  0  0  0  0  0  0  0  0  0  0
   46.2832   25.2016   39.7629 H   0  0  0  0  0  0  0  0  0  0  0  0
   46.0790   26.7394   39.8157 H   0  0  0  0  0  0  0  0  0  0  0  0
   43.7899   26.3251   38.2421 H   0  0  0  0  0  0  0  0  0  0  0  0
   43.8698   24.7711   38.4235 H   0  0  0  0  0  0  0  0  0  0  0  0
   38.4004   22.8379   38.6308 H   0  0  0  0  0  0  0  0  0  0  0  0
   37.1098   24.8412   37.8360 H   0  0  0  0  0  0  0  0  0  0  0  0
   36.6271   26.2152   35.9394 H   0  0  0  0  0  0  0  0  0  0  0  0
   36.3473   25.6626   33.8588 H   0  0  0  0  0  0  0  0  0  0  0  0
   37.4067   27.0815   33.5566 H   0  0  0  0  0  0  0  0  0  0  0  0
   38.1020   25.4252   33.5566 H   0  0  0  0  0  0  0  0  0  0  0  0
   38.4518   27.6444   36.8568 H   0  0  0  0  0  0  0  0  0  0  0  0
   39.3867   27.4669   35.3333 H   0  0  0  0  0  0  0  0  0  0  0  0
   37.8318   28.3663   35.3333 H   0  0  0  0  0  0  0  0  0  0  0  0
  1  5  1  0
  2  3  1  0
  2  1  2  0
  3  4  2  0
  4  5  1  0
  4  6  1  0
  6 11  1  0
  7  6  2  0
  7  8  1  0
  8  9  2  0
  9 10  1  0
 11 12  1  0
 11 10  2  0
 12 14  1  0
 12 13  1  0
 14 13  1  0
 15  1  1  0
 15 20  1  0
 17 16  2  0
 18 17  1  0
 19 20  1  0
 19 18  2  0
 20 21  2  0
 21 16  1  0
 22 24  1  0
 22 18  1  0
 23 22  1  0
  2 25  1  0
  3 26  1  0
  7 27  1  0
  8 28  1  0
  9 29  1  0
 10 30  1  0
 12 31  1  0
 13 32  1  0
 13 33  1  0
 14 34  1  0
 14 35  1  0
 16 36  1  0
 17 37  1  0
 22 38  1  0
 23 39  1  0
 23 40  1  0
 23 41  1  0
 24 42  1  0
 24 43  1  0
 24 44  1  0
M  ISO  8  25  14  26  14  27  14  28  14  29  14  30  14  31  13  32  13
M  ISO  8  33  13  34  13  35  13  36  14  37  14  38   8  39   8  40   8
M  ISO  4  41   8  42   8  43   8  44   8
M  END
>  <minimizedAffinity>  (1) 
-5.44349289

>  <minimizedRMSD>  (1) 
1.24824715

$$$$
