
     RDKit          3D

 49 52  0  0  0  0  0  0  0  0999 V2000
   41.9430   22.4200   35.5990 C   0  0  0  0  0  0  0  0  0  0  0  0
   42.4910   23.1950   34.6230 C   0  0  0  0  0  0  0  0  0  0  0  0
   43.8230   23.3570   34.5140 C   0  0  0  0  0  0  0  0  0  0  0  0
   44.6260   22.6800   35.4740 C   0  0  0  0  0  0  0  0  0  0  0  0
   43.3740   21.7950   36.5360 S   0  0  0  0  0  0  0  0  0  0  0  0
   46.0600   22.6460   35.6490 C   0  0  0  0  0  0  0  0  0  0  0  0
   46.8540   21.8020   34.9760 C   0  0  0  0  0  0  0  0  0  0  0  0
   48.2020   21.8360   35.1940 C   0  0  0  0  0  0  0  0  0  0  0  0
   48.7230   22.7280   36.0930 C   0  0  0  0  0  0  0  0  0  0  0  0
   47.8980   23.6050   36.7920 C   0  0  0  0  0  0  0  0  0  0  0  0
   46.5340   23.5550   36.5580 C   0  0  0  0  0  0  0  0  0  0  0  0
   45.9310   24.5140   37.4440 N   0  0  0  0  0  0  0  0  0  0  0  0
   44.7180   25.2760   37.2740 C   0  0  0  0  0  0  0  0  0  0  0  0
   44.5800   26.0350   38.5790 C   0  0  0  0  0  0  0  0  0  0  0  0
   45.9920   26.1230   39.1130 C   0  0  0  0  0  0  0  0  0  0  0  0
   46.5670   24.7840   38.7450 C   0  0  0  0  0  0  0  0  0  0  0  0
   40.7230   22.1040   35.9140 O   0  0  0  0  0  0  0  0  0  0  0  0
   38.6390   23.4510   38.4510 C   0  0  0  0  0  0  0  0  0  0  0  0
   38.0050   24.5380   37.8230 C   0  0  0  0  0  0  0  0  0  0  0  0
   38.3250   24.7880   36.4930 C   0  0  0  0  0  0  0  0  0  0  0  0
   39.2400   23.9770   35.8350 N   0  0  0  0  0  0  0  0  0  0  0  0
   39.8000   22.9540   36.5190 C   0  0  0  0  0  0  0  0  0  0  0  0
   39.5130   22.6900   37.7970 N   0  0  0  0  0  0  0  0  0  0  0  0
   37.7070   25.8890   35.7150 C   0  0  0  0  0  0  0  0  0  0  0  0
   37.6190   25.6350   34.2770 C   0  0  0  0  0  0  0  0  0  0  0  0
   38.4450   27.2370   35.9690 C   0  0  0  0  0  0  0  0  0  0  0  0
   41.8288   23.7015   33.9055 H   0  0  0  0  0  0  0  0  0  0  0  0
   44.2674   23.9802   33.7240 H   0  0  0  0  0  0  0  0  0  0  0  0
   46.4250   21.0897   34.2559 H   0  0  0  0  0  0  0  0  0  0  0  0
   48.8667   21.1493   34.6494 H   0  0  0  0  0  0  0  0  0  0  0  0
   49.8091   22.7519   36.2654 H   0  0  0  0  0  0  0  0  0  0  0  0
   48.3197   24.3207   37.5131 H   0  0  0  0  0  0  0  0  0  0  0  0
   44.8071   25.9698   36.4250 H   0  0  0  0  0  0  0  0  0  0  0  0
   43.8454   24.6425   37.0567 H   0  0  0  0  0  0  0  0  0  0  0  0
   44.1667   27.0392   38.4036 H   0  0  0  0  0  0  0  0  0  0  0  0
   43.8954   25.5388   39.2827 H   0  0  0  0  0  0  0  0  0  0  0  0
   46.5485   26.9401   38.6306 H   0  0  0  0  0  0  0  0  0  0  0  0
   46.0390   26.3375   40.1908 H   0  0  0  0  0  0  0  0  0  0  0  0
   46.2973   24.0176   39.4866 H   0  0  0  0  0  0  0  0  0  0  0  0
   47.6663   24.7727   38.7078 H   0  0  0  0  0  0  0  0  0  0  0  0
   38.4080   23.2256   39.5026 H   0  0  0  0  0  0  0  0  0  0  0  0
   37.2827   25.1671   38.3638 H   0  0  0  0  0  0  0  0  0  0  0  0
   36.6723   25.9521   36.0830 H   0  0  0  0  0  0  0  0  0  0  0  0
   37.2632   24.6081   34.1071 H   0  0  0  0  0  0  0  0  0  0  0  0
   36.9152   26.3470   33.8213 H   0  0  0  0  0  0  0  0  0  0  0  0
   38.6125   25.7589   33.8213 H   0  0  0  0  0  0  0  0  0  0  0  0
   38.5375   27.4060   37.0520 H   0  0  0  0  0  0  0  0  0  0  0  0
   39.4471   27.1972   35.5172 H   0  0  0  0  0  0  0  0  0  0  0  0
   37.8715   28.0598   35.5172 H   0  0  0  0  0  0  0  0  0  0  0  0
  1 17  1  0
  1  5  1  0
  2  1  2  0
  3  2  1  0
  3  4  2  0
  4  6  1  0
  4  5  1  0
  6 11  2  0
  7  8  2  0
  7  6  1  0
  8  9  1  0
  9 10  2  0
 11 10  1  0
 11 12  1  0
 12 16  1  0
 13 12  1  0
 13 14  1  0
 14 15  1  0
 16 15  1  0
 17 22  1  0
 19 18  2  0
 20 19  1  0
 21 20  2  0
 21 22  1  0
 22 23  2  0
 23 18  1  0
 24 26  1  0
 24 20  1  0
 25 24  1  0
  2 27  1  0
  3 28  1  0
  7 29  1  0
  8 30  1  0
  9 31  1  0
 10 32  1  0
 13 33  1  0
 13 34  1  0
 14 35  1  0
 14 36  1  0
 15 37  1  0
 15 38  1  0
 16 39  1  0
 16 40  1  0
 18 41  1  0
 19 42  1  0
 24 43  1  0
 25 44  1  0
 25 45  1  0
 25 46  1  0
 26 47  1  0
 26 48  1  0
 26 49  1  0
M  ISO  8  27  14  28  14  29  14  30  14  31  14  32  14  33  13  34  13
M  ISO  8  35  13  36  13  37  13  38  13  39  13  40  13  41  14  42  14
M  ISO  7  43   8  44   8  45   8  46   8  47   8  48   8  49   8
M  END
>  <minimizedAffinity>  (1) 
-5.30204105

>  <minimizedRMSD>  (1) 
0.980421364

$$$$
