
     RDKit          3D

 38 40  0  0  0  0  0  0  0  0999 V2000
   41.0310   23.3490   34.8520 O   0  0  0  0  0  0  0  0  0  0  0  0
   38.1840   23.1800   36.9660 C   0  0  0  0  0  0  0  0  0  0  0  0
   37.4680   24.3480   36.6550 C   0  0  0  0  0  0  0  0  0  0  0  0
   38.0010   25.1940   35.6930 C   0  0  0  0  0  0  0  0  0  0  0  0
   39.2100   24.8710   35.0720 N   0  0  0  0  0  0  0  0  0  0  0  0
   39.8260   23.7190   35.4410 C   0  0  0  0  0  0  0  0  0  0  0  0
   39.3360   22.8920   36.3600 N   0  0  0  0  0  0  0  0  0  0  0  0
   37.3320   26.4420   35.2600 C   0  0  0  0  0  0  0  0  0  0  0  0
   37.0900   26.5330   33.8200 C   0  0  0  0  0  0  0  0  0  0  0  0
   38.1210   27.7000   35.7370 C   0  0  0  0  0  0  0  0  0  0  0  0
   42.2030   23.8310   35.1760 C   0  0  0  0  0  0  0  0  0  0  0  0
   42.9520   24.8820   34.7360 C   0  0  0  0  0  0  0  0  0  0  0  0
   44.1590   25.1510   35.2670 C   0  0  0  0  0  0  0  0  0  0  0  0
   44.6080   24.2850   36.3070 C   0  0  0  0  0  0  0  0  0  0  0  0
   43.2100   23.0640   36.4820 S   0  0  0  0  0  0  0  0  0  0  0  0
   45.8290   24.2890   37.0850 C   0  0  0  0  0  0  0  0  0  0  0  0
   46.9260   23.6090   36.7200 C   0  0  0  0  0  0  0  0  0  0  0  0
   48.0310   23.6930   37.5410 C   0  0  0  0  0  0  0  0  0  0  0  0
   47.9910   24.4520   38.6880 C   0  0  0  0  0  0  0  0  0  0  0  0
   46.8480   25.1550   39.0580 C   0  0  0  0  0  0  0  0  0  0  0  0
   45.7560   25.0530   38.2200 C   0  0  0  0  0  0  0  0  0  0  0  0
   44.6910   25.8050   38.7200 O   0  0  0  0  0  0  0  0  0  0  0  0
   37.7863   22.4896   37.7244 H   0  0  0  0  0  0  0  0  0  0  0  0
   36.5179   24.5837   37.1567 H   0  0  0  0  0  0  0  0  0  0  0  0
   36.3436   26.4096   35.7416 H   0  0  0  0  0  0  0  0  0  0  0  0
   36.0739   26.9151   33.6424 H   0  0  0  0  0  0  0  0  0  0  0  0
   37.8232   27.2168   33.3675 H   0  0  0  0  0  0  0  0  0  0  0  0
   37.1910   25.5355   33.3675 H   0  0  0  0  0  0  0  0  0  0  0  0
   38.1380   27.7270   36.8365 H   0  0  0  0  0  0  0  0  0  0  0  0
   39.1516   27.6529   35.3554 H   0  0  0  0  0  0  0  0  0  0  0  0
   37.6299   28.6073   35.3554 H   0  0  0  0  0  0  0  0  0  0  0  0
   42.5620   25.5226   33.9313 H   0  0  0  0  0  0  0  0  0  0  0  0
   44.7687   25.9967   34.9162 H   0  0  0  0  0  0  0  0  0  0  0  0
   46.9437   23.0066   35.7998 H   0  0  0  0  0  0  0  0  0  0  0  0
   48.9503   23.1497   37.2771 H   0  0  0  0  0  0  0  0  0  0  0  0
   48.8840   24.5045   39.3281 H   0  0  0  0  0  0  0  0  0  0  0  0
   46.8165   25.7627   39.9743 H   0  0  0  0  0  0  0  0  0  0  0  0
   44.7954   26.3100   39.5651 H   0  0  0  0  0  0  0  0  0  0  0  0
  1 11  1  0
  1  6  1  0
  3  2  2  0
  4  3  1  0
  5  6  1  0
  5  4  2  0
  6  7  2  0
  7  2  1  0
  8  4  1  0
  8 10  1  0
  9  8  1  0
 11 15  1  0
 12 11  2  0
 12 13  1  0
 13 14  2  0
 14 15  1  0
 14 16  1  0
 16 21  1  0
 17 16  2  0
 17 18  1  0
 18 19  2  0
 19 20  1  0
 21 22  1  0
 21 20  2  0
  2 23  1  0
  3 24  1  0
  8 25  1  0
  9 26  1  0
  9 27  1  0
  9 28  1  0
 10 29  1  0
 10 30  1  0
 10 31  1  0
 12 32  1  0
 13 33  1  0
 17 34  1  0
 18 35  1  0
 19 36  1  0
 20 37  1  0
 22 38  1  0
M  ISO  8  23  14  24  14  25   8  26   8  27   8  28   8  29   8  30   8
M  ISO  8  31   8  32  14  33  14  34  14  35  14  36  14  37  14  38   3
M  END
>  <minimizedAffinity>  (1) 
-5.24051762

>  <minimizedRMSD>  (1) 
1.90790176

$$$$
