
     RDKit          3D

 49 51  0  0  0  0  0  0  0  0999 V2000
   41.9550   22.6240   35.1430 C   0  0  0  0  0  0  0  0  0  0  0  0
   42.7810   23.2310   34.2420 C   0  0  0  0  0  0  0  0  0  0  0  0
   44.0960   23.3200   34.4830 C   0  0  0  0  0  0  0  0  0  0  0  0
   44.5900   22.7770   35.6780 C   0  0  0  0  0  0  0  0  0  0  0  0
   43.0660   22.1000   36.4910 S   0  0  0  0  0  0  0  0  0  0  0  0
   45.9590   22.7320   36.1610 C   0  0  0  0  0  0  0  0  0  0  0  0
   46.7250   21.6170   35.9220 C   0  0  0  0  0  0  0  0  0  0  0  0
   48.0330   21.6320   36.3160 C   0  0  0  0  0  0  0  0  0  0  0  0
   48.4980   22.7620   36.9290 C   0  0  0  0  0  0  0  0  0  0  0  0
   47.7130   23.8600   37.1610 C   0  0  0  0  0  0  0  0  0  0  0  0
   46.4090   23.8700   36.7790 C   0  0  0  0  0  0  0  0  0  0  0  0
   45.8560   25.2170   37.0390 C   0  0  0  0  0  0  0  0  0  0  0  0
   44.4230   25.1440   37.6690 C   0  0  0  0  0  0  0  0  0  0  0  0
   45.6890   26.1190   35.8850 C   0  0  0  0  0  0  0  0  0  0  0  0
   46.5800   25.8440   38.2640 C   0  0  0  0  0  0  0  0  0  0  0  0
   40.6650   22.3890   35.1850 O   0  0  0  0  0  0  0  0  0  0  0  0
   38.5900   23.4000   37.8890 C   0  0  0  0  0  0  0  0  0  0  0  0
   37.9520   24.5540   37.4200 C   0  0  0  0  0  0  0  0  0  0  0  0
   38.2700   24.9710   36.1280 C   0  0  0  0  0  0  0  0  0  0  0  0
   39.1850   24.2580   35.3520 N   0  0  0  0  0  0  0  0  0  0  0  0
   39.7480   23.1490   35.9050 C   0  0  0  0  0  0  0  0  0  0  0  0
   39.4640   22.7280   37.1330 N   0  0  0  0  0  0  0  0  0  0  0  0
   37.6450   26.1710   35.4920 C   0  0  0  0  0  0  0  0  0  0  0  0
   37.4200   26.0420   34.0510 C   0  0  0  0  0  0  0  0  0  0  0  0
   38.4710   27.4510   35.8120 C   0  0  0  0  0  0  0  0  0  0  0  0
   42.3652   23.6492   33.3135 H   0  0  0  0  0  0  0  0  0  0  0  0
   44.7703   23.8061   33.7626 H   0  0  0  0  0  0  0  0  0  0  0  0
   46.2959   20.7341   35.4257 H   0  0  0  0  0  0  0  0  0  0  0  0
   48.6889   20.7654   36.1460 H   0  0  0  0  0  0  0  0  0  0  0  0
   49.5497   22.7906   37.2503 H   0  0  0  0  0  0  0  0  0  0  0  0
   48.1417   24.7412   37.6608 H   0  0  0  0  0  0  0  0  0  0  0  0
   44.5041   25.1481   38.7660 H   0  0  0  0  0  0  0  0  0  0  0  0
   43.8338   26.0133   37.3416 H   0  0  0  0  0  0  0  0  0  0  0  0
   43.9252   24.2193   37.3416 H   0  0  0  0  0  0  0  0  0  0  0  0
   45.4997   27.1416   36.2433 H   0  0  0  0  0  0  0  0  0  0  0  0
   46.6045   26.1077   35.2753 H   0  0  0  0  0  0  0  0  0  0  0  0
   44.8382   25.7807   35.2753 H   0  0  0  0  0  0  0  0  0  0  0  0
   46.1331   25.4570   39.1916 H   0  0  0  0  0  0  0  0  0  0  0  0
   47.6475   25.5803   38.2335 H   0  0  0  0  0  0  0  0  0  0  0  0
   46.4716   26.9382   38.2335 H   0  0  0  0  0  0  0  0  0  0  0  0
   38.3671   23.0375   38.9033 H   0  0  0  0  0  0  0  0  0  0  0  0
   37.2326   25.1067   38.0421 H   0  0  0  0  0  0  0  0  0  0  0  0
   36.6428   26.2573   35.9372 H   0  0  0  0  0  0  0  0  0  0  0  0
   36.4782   25.5020   33.8738 H   0  0  0  0  0  0  0  0  0  0  0  0
   37.3597   27.0427   33.5983 H   0  0  0  0  0  0  0  0  0  0  0  0
   38.2531   25.4844   33.5983 H   0  0  0  0  0  0  0  0  0  0  0  0
   38.5500   27.5734   36.9023 H   0  0  0  0  0  0  0  0  0  0  0  0
   39.4780   27.3551   35.3799 H   0  0  0  0  0  0  0  0  0  0  0  0
   37.9687   28.3291   35.3799 H   0  0  0  0  0  0  0  0  0  0  0  0
  1 16  1  0
  1  5  1  0
  2  3  1  0
  2  1  2  0
  3  4  2  0
  4  6  1  0
  4  5  1  0
  6 11  1  0
  7  6  2  0
  7  8  1  0
  8  9  2  0
  9 10  1  0
 11 12  1  0
 11 10  2  0
 12 13  1  0
 12 15  1  0
 14 12  1  0
 16 21  1  0
 18 17  2  0
 19 18  1  0
 20 21  1  0
 20 19  2  0
 21 22  2  0
 22 17  1  0
 23 25  1  0
 23 19  1  0
 24 23  1  0
  2 26  1  0
  3 27  1  0
  7 28  1  0
  8 29  1  0
  9 30  1  0
 10 31  1  0
 13 32  1  0
 13 33  1  0
 13 34  1  0
 14 35  1  0
 14 36  1  0
 14 37  1  0
 15 38  1  0
 15 39  1  0
 15 40  1  0
 17 41  1  0
 18 42  1  0
 23 43  1  0
 24 44  1  0
 24 45  1  0
 24 46  1  0
 25 47  1  0
 25 48  1  0
 25 49  1  0
M  ISO  8  26  14  27  14  28  14  29  14  30  14  31  14  32   8  33   8
M  ISO  8  34   8  35   8  36   8  37   8  38   8  39   8  40   8  41  14
M  ISO  8  42  14  43   8  44   8  45   8  46   8  47   8  48   8  49   8
M  END
>  <minimizedAffinity>  (1) 
-5.22127819

>  <minimizedRMSD>  (1) 
1.2578181

$$$$
