
     RDKit          3D

 43 48  0  0  0  0  0  0  0  0999 V2000
   38.3240   24.3350   31.3500 C   0  0  0  0  0  0  0  0  0  0  0  0
   37.6120   25.5220   31.3050 C   0  0  0  0  0  0  0  0  0  0  0  0
   37.6690   26.2850   32.4650 C   0  0  0  0  0  0  0  0  0  0  0  0
   38.3830   25.8150   33.4820 N   0  0  0  0  0  0  0  0  0  0  0  0
   39.0630   24.6860   33.5350 C   0  0  0  0  0  0  0  0  0  0  0  0
   38.9960   23.9850   32.4340 N   0  0  0  0  0  0  0  0  0  0  0  0
   36.9960   27.5260   32.5810 N   0  0  0  0  0  0  0  0  0  0  0  0
   37.1130   28.5760   31.7530 C   0  0  0  0  0  0  0  0  0  0  0  0
   36.3480   29.5770   32.1480 N   0  0  0  0  0  0  0  0  0  0  0  0
   35.7220   29.1660   33.2560 C   0  0  0  0  0  0  0  0  0  0  0  0
   36.1390   27.9060   33.4990 N   0  0  0  0  0  0  0  0  0  0  0  0
   39.8680   24.0760   34.5730 C   0  0  0  0  0  0  0  0  0  0  0  0
   41.1810   23.7030   34.3530 C   0  0  0  0  0  0  0  0  0  0  0  0
   41.9970   23.1220   35.2900 C   0  0  0  0  0  0  0  0  0  0  0  0
   41.5110   22.8770   36.5520 C   0  0  0  0  0  0  0  0  0  0  0  0
   40.2300   23.2230   36.8240 C   0  0  0  0  0  0  0  0  0  0  0  0
   39.7230   22.9810   38.0990 C   0  0  0  0  0  0  0  0  0  0  0  0
   38.4510   23.2960   38.4550 C   0  0  0  0  0  0  0  0  0  0  0  0
   37.6520   23.8820   37.4870 C   0  0  0  0  0  0  0  0  0  0  0  0
   38.1720   24.1110   36.2400 C   0  0  0  0  0  0  0  0  0  0  0  0
   39.4410   23.8040   35.8620 C   0  0  0  0  0  0  0  0  0  0  0  0
   34.7550   29.7760   34.1740 C   0  0  0  0  0  0  0  0  0  0  0  0
   33.6060   29.3800   34.7350 N   0  0  0  0  0  0  0  0  0  0  0  0
   33.1340   30.3370   35.4940 O   0  0  0  0  0  0  0  0  0  0  0  0
   33.9630   31.3570   35.4330 C   0  0  0  0  0  0  0  0  0  0  0  0
   34.9890   31.0360   34.6140 N   0  0  0  0  0  0  0  0  0  0  0  0
   33.7600   32.5760   36.1390 N   0  0  0  0  0  0  0  0  0  0  0  0
   34.5610   32.7590   37.2280 C   0  0  0  0  0  0  0  0  0  0  0  0
   34.2850   33.9370   37.8160 N   0  0  0  0  0  0  0  0  0  0  0  0
   33.2890   34.4910   37.0720 C   0  0  0  0  0  0  0  0  0  0  0  0
   32.9780   33.6540   36.0540 N   0  0  0  0  0  0  0  0  0  0  0  0
   38.3307   23.6735   30.4711 H   0  0  0  0  0  0  0  0  0  0  0  0
   37.0438   25.8373   30.4174 H   0  0  0  0  0  0  0  0  0  0  0  0
   37.7601   28.5994   30.8638 H   0  0  0  0  0  0  0  0  0  0  0  0
   41.6021   23.8855   33.3533 H   0  0  0  0  0  0  0  0  0  0  0  0
   43.0326   22.8542   35.0333 H   0  0  0  0  0  0  0  0  0  0  0  0
   42.1456   22.4122   37.3209 H   0  0  0  0  0  0  0  0  0  0  0  0
   40.3803   22.5155   38.8482 H   0  0  0  0  0  0  0  0  0  0  0  0
   38.0717   23.0946   39.4677 H   0  0  0  0  0  0  0  0  0  0  0  0
   36.6128   24.1601   37.7165 H   0  0  0  0  0  0  0  0  0  0  0  0
   37.5150   24.5769   35.4908 H   0  0  0  0  0  0  0  0  0  0  0  0
   35.3230   32.0458   37.5754 H   0  0  0  0  0  0  0  0  0  0  0  0
   32.8128   35.4633   37.2666 H   0  0  0  0  0  0  0  0  0  0  0  0
  1  6  2  0
  2  1  1  0
  2  3  2  0
  3  7  1  0
  3  4  1  0
  4  5  2  0
  5 12  1  0
  6  5  1  0
  7 11  1  0
  8  9  2  0
  8  7  1  0
  9 10  1  0
 10 11  2  0
 10 22  1  0
 12 21  1  0
 13 12  2  0
 13 14  1  0
 14 15  2  0
 15 16  1  0
 16 17  2  0
 17 18  1  0
 19 18  2  0
 20 19  1  0
 21 20  2  0
 21 16  1  0
 22 26  1  0
 22 23  2  0
 23 24  1  0
 25 24  1  0
 25 27  1  0
 26 25  2  0
 27 28  1  0
 28 29  2  0
 30 29  1  0
 31 27  1  0
 31 30  2  0
  1 32  1  0
  2 33  1  0
  8 34  1  0
 13 35  1  0
 14 36  1  0
 15 37  1  0
 17 38  1  0
 18 39  1  0
 19 40  1  0
 20 41  1  0
 28 42  1  0
 30 43  1  0
M  ISO  8  32  14  33  14  34  14  35  14  36  14  37  14  38  14  39  14
M  ISO  4  40  14  41  14  42  14  43  14
M  END
>  <minimizedAffinity>  (1) 
-6.95909452

>  <minimizedRMSD>  (1) 
1.55725479

$$$$
