
     RDKit          3D

 44 46  0  0  0  0  0  0  0  0999 V2000
   42.2760   22.5200   36.1010 C   0  0  0  0  0  0  0  0  0  0  0  0
   42.9980   23.6340   36.3970 C   0  0  0  0  0  0  0  0  0  0  0  0
   44.3440   23.6170   36.4280 C   0  0  0  0  0  0  0  0  0  0  0  0
   44.9630   22.3630   36.1400 C   0  0  0  0  0  0  0  0  0  0  0  0
   43.5270   21.2190   35.8140 S   0  0  0  0  0  0  0  0  0  0  0  0
   46.3800   22.0290   36.1290 C   0  0  0  0  0  0  0  0  0  0  0  0
   46.7700   20.7200   36.0500 C   0  0  0  0  0  0  0  0  0  0  0  0
   48.1080   20.4350   36.0190 C   0  0  0  0  0  0  0  0  0  0  0  0
   49.0040   21.4700   36.0670 C   0  0  0  0  0  0  0  0  0  0  0  0
   48.5830   22.7680   36.1450 C   0  0  0  0  0  0  0  0  0  0  0  0
   47.2330   23.0720   36.1810 C   0  0  0  0  0  0  0  0  0  0  0  0
   46.9660   24.4480   36.3950 N   0  0  0  0  0  0  0  0  0  0  0  0
   47.3320   25.2450   37.5100 C   0  0  0  0  0  0  0  0  0  0  0  0
   47.0720   24.7060   38.6540 N   0  0  0  0  0  0  0  0  0  0  0  0
   47.9290   26.5320   37.4020 N   0  0  0  0  0  0  0  0  0  0  0  0
   47.2430   25.0820   39.5790 H   0  0  0  0  0  0  0  0  0  0  0  0
   40.9980   22.2720   36.0010 O   0  0  0  0  0  0  0  0  0  0  0  0
   38.6740   23.4220   38.4140 C   0  0  0  0  0  0  0  0  0  0  0  0
   38.0060   24.4720   37.7640 C   0  0  0  0  0  0  0  0  0  0  0  0
   38.3830   24.7700   36.4680 C   0  0  0  0  0  0  0  0  0  0  0  0
   39.3920   24.0320   35.8700 N   0  0  0  0  0  0  0  0  0  0  0  0
   39.9860   23.0420   36.5540 C   0  0  0  0  0  0  0  0  0  0  0  0
   39.6400   22.7370   37.8010 N   0  0  0  0  0  0  0  0  0  0  0  0
   37.7410   25.8460   35.6610 C   0  0  0  0  0  0  0  0  0  0  0  0
   37.6670   25.5620   34.2270 C   0  0  0  0  0  0  0  0  0  0  0  0
   38.4310   27.2170   35.9270 C   0  0  0  0  0  0  0  0  0  0  0  0
   42.4687   24.5729   36.6167 H   0  0  0  0  0  0  0  0  0  0  0  0
   44.9323   24.5166   36.6616 H   0  0  0  0  0  0  0  0  0  0  0  0
   46.0233   19.9132   36.0122 H   0  0  0  0  0  0  0  0  0  0  0  0
   48.4576   19.3939   35.9567 H   0  0  0  0  0  0  0  0  0  0  0  0
   50.0820   21.2525   36.0423 H   0  0  0  0  0  0  0  0  0  0  0  0
   49.3247   23.5796   36.1795 H   0  0  0  0  0  0  0  0  0  0  0  0
   46.4419   24.9278   35.6493 H   0  0  0  0  0  0  0  0  0  0  0  0
   48.1713   27.0603   38.2523 H   0  0  0  0  0  0  0  0  0  0  0  0
   48.1189   26.9353   36.4735 H   0  0  0  0  0  0  0  0  0  0  0  0
   38.3960   23.1602   39.4456 H   0  0  0  0  0  0  0  0  0  0  0  0
   37.2096   25.0383   38.2690 H   0  0  0  0  0  0  0  0  0  0  0  0
   36.6957   25.8915   36.0006 H   0  0  0  0  0  0  0  0  0  0  0  0
   37.3923   24.5077   34.0757 H   0  0  0  0  0  0  0  0  0  0  0  0
   36.9074   26.2089   33.7638 H   0  0  0  0  0  0  0  0  0  0  0  0
   38.6457   25.7560   33.7638 H   0  0  0  0  0  0  0  0  0  0  0  0
   38.5138   27.3815   37.0115 H   0  0  0  0  0  0  0  0  0  0  0  0
   39.4355   27.2150   35.4787 H   0  0  0  0  0  0  0  0  0  0  0  0
   37.8310   28.0226   35.4787 H   0  0  0  0  0  0  0  0  0  0  0  0
  1  2  2  0
  2  3  1  0
  4  3  2  0
  5  1  1  0
  5  4  1  0
  6  4  1  0
  6 11  1  0
  7  6  2  0
  8  7  1  0
  8  9  2  0
  9 10  1  0
 10 11  2  0
 11 12  1  0
 12 13  1  0
 13 14  2  0
 14 16  1  0
 15 13  1  0
 17  1  1  0
 17 22  1  0
 19 18  2  0
 20 19  1  0
 21 20  2  0
 21 22  1  0
 22 23  2  0
 23 18  1  0
 24 26  1  0
 24 20  1  0
 25 24  1  0
  2 27  1  0
  3 28  1  0
  7 29  1  0
  8 30  1  0
  9 31  1  0
 10 32  1  0
 12 33  1  0
 15 34  1  0
 15 35  1  0
 18 36  1  0
 19 37  1  0
 24 38  1  0
 25 39  1  0
 25 40  1  0
 25 41  1  0
 26 42  1  0
 26 43  1  0
 26 44  1  0
M  ISO  8  27  14  28  14  29  14  30  14  31  14  32  14  36  14  37  14
M  ISO  7  38   8  39   8  40   8  41   8  42   8  43   8  44   8
M  END
>  <minimizedAffinity>  (1) 
-4.96198511

>  <minimizedRMSD>  (1) 
0.918999672

$$$$
