
     RDKit          3D

 43 46  0  0  0  0  0  0  0  0999 V2000
   42.1640   22.3620   36.0380 C   0  0  0  0  0  0  0  0  0  0  0  0
   42.9250   23.5090   36.0950 C   0  0  0  0  0  0  0  0  0  0  0  0
   44.2430   23.3890   36.1200 C   0  0  0  0  0  0  0  0  0  0  0  0
   44.8420   22.1140   36.0860 C   0  0  0  0  0  0  0  0  0  0  0  0
   43.3700   21.0020   36.0150 S   0  0  0  0  0  0  0  0  0  0  0  0
   46.2360   21.7270   36.0930 C   0  0  0  0  0  0  0  0  0  0  0  0
   46.6080   20.4440   35.8030 C   0  0  0  0  0  0  0  0  0  0  0  0
   47.9390   20.1290   35.8570 C   0  0  0  0  0  0  0  0  0  0  0  0
   48.8400   21.1000   36.1950 C   0  0  0  0  0  0  0  0  0  0  0  0
   48.4490   22.3980   36.4850 C   0  0  0  0  0  0  0  0  0  0  0  0
   47.1010   22.7040   36.4280 C   0  0  0  0  0  0  0  0  0  0  0  0
   46.9840   24.0720   36.8040 N   0  0  0  0  0  0  0  0  0  0  0  0
   46.7860   24.5960   38.0580 C   0  0  0  0  0  0  0  0  0  0  0  0
   46.7030   25.9400   37.9030 N   0  0  0  0  0  0  0  0  0  0  0  0
   46.8530   26.1670   36.5660 C   0  0  0  0  0  0  0  0  0  0  0  0
   47.0310   25.0220   35.8440 N   0  0  0  0  0  0  0  0  0  0  0  0
   40.8680   22.1170   36.0030 O   0  0  0  0  0  0  0  0  0  0  0  0
   38.6770   23.4520   38.4890 C   0  0  0  0  0  0  0  0  0  0  0  0
   38.0250   24.5090   37.8130 C   0  0  0  0  0  0  0  0  0  0  0  0
   38.3770   24.7280   36.4910 C   0  0  0  0  0  0  0  0  0  0  0  0
   39.3370   23.9250   35.8750 N   0  0  0  0  0  0  0  0  0  0  0  0
   39.9070   22.9360   36.6010 C   0  0  0  0  0  0  0  0  0  0  0  0
   39.5920   22.6970   37.8790 N   0  0  0  0  0  0  0  0  0  0  0  0
   37.7530   25.7920   35.6610 C   0  0  0  0  0  0  0  0  0  0  0  0
   37.7300   25.5020   34.2260 C   0  0  0  0  0  0  0  0  0  0  0  0
   38.4350   27.1710   35.9200 C   0  0  0  0  0  0  0  0  0  0  0  0
   42.4490   24.5004   36.1191 H   0  0  0  0  0  0  0  0  0  0  0  0
   44.8737   24.2890   36.1675 H   0  0  0  0  0  0  0  0  0  0  0  0
   45.8583   19.6855   35.5336 H   0  0  0  0  0  0  0  0  0  0  0  0
   48.2793   19.1076   35.6313 H   0  0  0  0  0  0  0  0  0  0  0  0
   49.9088   20.8433   36.2382 H   0  0  0  0  0  0  0  0  0  0  0  0
   49.1910   23.1644   36.7534 H   0  0  0  0  0  0  0  0  0  0  0  0
   46.7098   24.0358   39.0016 H   0  0  0  0  0  0  0  0  0  0  0  0
   46.8326   27.1704   36.1157 H   0  0  0  0  0  0  0  0  0  0  0  0
   38.4244   23.2480   39.5400 H   0  0  0  0  0  0  0  0  0  0  0  0
   37.2700   25.1313   38.3156 H   0  0  0  0  0  0  0  0  0  0  0  0
   36.7012   25.8293   35.9808 H   0  0  0  0  0  0  0  0  0  0  0  0
   37.6439   24.4161   34.0727 H   0  0  0  0  0  0  0  0  0  0  0  0
   36.8691   26.0070   33.7636 H   0  0  0  0  0  0  0  0  0  0  0  0
   38.6598   25.8650   33.7636 H   0  0  0  0  0  0  0  0  0  0  0  0
   38.5190   27.3408   37.0036 H   0  0  0  0  0  0  0  0  0  0  0  0
   39.4385   27.1741   35.4695 H   0  0  0  0  0  0  0  0  0  0  0  0
   37.8284   27.9704   35.4695 H   0  0  0  0  0  0  0  0  0  0  0  0
  1  2  2  0
  2  3  1  0
  4  6  1  0
  4  3  2  0
  5  1  1  0
  5  4  1  0
  6 11  2  0
  7  8  2  0
  7  6  1  0
  8  9  1  0
  9 10  2  0
 11 10  1  0
 11 12  1  0
 12 13  1  0
 14 13  2  0
 15 14  1  0
 16 15  2  0
 16 12  1  0
 17  1  1  0
 17 22  1  0
 19 18  2  0
 20 19  1  0
 21 20  2  0
 21 22  1  0
 22 23  2  0
 23 18  1  0
 24 26  1  0
 24 20  1  0
 25 24  1  0
  2 27  1  0
  3 28  1  0
  7 29  1  0
  8 30  1  0
  9 31  1  0
 10 32  1  0
 13 33  1  0
 15 34  1  0
 18 35  1  0
 19 36  1  0
 24 37  1  0
 25 38  1  0
 25 39  1  0
 25 40  1  0
 26 41  1  0
 26 42  1  0
 26 43  1  0
M  ISO  8  27  14  28  14  29  14  30  14  31  14  32  14  33  14  34  14
M  ISO  8  35  14  36  14  37   8  38   8  39   8  40   8  41   8  42   8
M  ISO  1  43   8
M  END
>  <minimizedAffinity>  (1) 
-4.95791483

>  <minimizedRMSD>  (1) 
0.955945015

$$$$
