
     RDKit          3D

 44 49  0  0  0  0  0  0  0  0999 V2000
   37.6400   24.4640   31.5650 C   0  0  0  0  0  0  0  0  0  0  0  0
   37.0080   25.6960   31.5530 C   0  0  0  0  0  0  0  0  0  0  0  0
   37.2680   26.4960   32.6470 C   0  0  0  0  0  0  0  0  0  0  0  0
   38.0810   26.0240   33.5880 N   0  0  0  0  0  0  0  0  0  0  0  0
   38.6860   24.8630   33.6140 C   0  0  0  0  0  0  0  0  0  0  0  0
   38.4340   24.1100   32.5730 N   0  0  0  0  0  0  0  0  0  0  0  0
   36.6970   27.7900   32.7880 N   0  0  0  0  0  0  0  0  0  0  0  0
   36.7690   28.7980   31.8990 C   0  0  0  0  0  0  0  0  0  0  0  0
   36.1300   29.8520   32.3510 N   0  0  0  0  0  0  0  0  0  0  0  0
   35.6320   29.5360   33.5460 C   0  0  0  0  0  0  0  0  0  0  0  0
   35.9940   28.2570   33.7980 N   0  0  0  0  0  0  0  0  0  0  0  0
   39.5830   24.2430   34.5690 C   0  0  0  0  0  0  0  0  0  0  0  0
   40.8890   23.9060   34.2380 C   0  0  0  0  0  0  0  0  0  0  0  0
   41.7720   23.3210   35.1000 C   0  0  0  0  0  0  0  0  0  0  0  0
   41.4030   23.0220   36.3880 C   0  0  0  0  0  0  0  0  0  0  0  0
   40.1250   23.3350   36.7600 C   0  0  0  0  0  0  0  0  0  0  0  0
   39.7300   23.0420   38.0550 C   0  0  0  0  0  0  0  0  0  0  0  0
   38.4850   23.3130   38.5190 C   0  0  0  0  0  0  0  0  0  0  0  0
   37.5990   23.9080   37.6310 C   0  0  0  0  0  0  0  0  0  0  0  0
   38.0160   24.1870   36.3580 C   0  0  0  0  0  0  0  0  0  0  0  0
   39.2550   23.9230   35.8790 C   0  0  0  0  0  0  0  0  0  0  0  0
   34.8420   30.2540   34.5380 C   0  0  0  0  0  0  0  0  0  0  0  0
   33.6780   30.0210   35.1800 N   0  0  0  0  0  0  0  0  0  0  0  0
   33.4200   31.0200   35.9880 O   0  0  0  0  0  0  0  0  0  0  0  0
   34.3900   31.9010   35.8870 C   0  0  0  0  0  0  0  0  0  0  0  0
   35.3040   31.4640   34.9900 N   0  0  0  0  0  0  0  0  0  0  0  0
   34.4300   33.1460   36.6480 C   0  0  0  0  0  0  0  0  0  0  0  0
   35.0070   34.3460   36.2890 C   0  0  0  0  0  0  0  0  0  0  0  0
   34.8400   35.2690   37.2520 N   0  0  0  0  0  0  0  0  0  0  0  0
   34.1430   34.6670   38.2570 C   0  0  0  0  0  0  0  0  0  0  0  0
   33.9140   33.3990   37.8650 N   0  0  0  0  0  0  0  0  0  0  0  0
   37.4835   23.7670   30.7285 H   0  0  0  0  0  0  0  0  0  0  0  0
   36.3478   26.0134   30.7324 H   0  0  0  0  0  0  0  0  0  0  0  0
   37.2893   28.7461   30.9312 H   0  0  0  0  0  0  0  0  0  0  0  0
   41.2341   24.1242   33.2166 H   0  0  0  0  0  0  0  0  0  0  0  0
   42.7909   23.0866   34.7582 H   0  0  0  0  0  0  0  0  0  0  0  0
   42.1056   22.5506   37.0910 H   0  0  0  0  0  0  0  0  0  0  0  0
   40.4555   22.5705   38.7343 H   0  0  0  0  0  0  0  0  0  0  0  0
   38.1906   23.0725   39.5512 H   0  0  0  0  0  0  0  0  0  0  0  0
   36.5741   24.1522   37.9470 H   0  0  0  0  0  0  0  0  0  0  0  0
   37.2939   24.6590   35.6755 H   0  0  0  0  0  0  0  0  0  0  0  0
   35.5342   34.5243   35.3402 H   0  0  0  0  0  0  0  0  0  0  0  0
   33.8284   35.1278   39.2050 H   0  0  0  0  0  0  0  0  0  0  0  0
   33.4042   32.7048   38.4299 H   0  0  0  0  0  0  0  0  0  0  0  0
  1  6  2  0
  2  1  1  0
  2  3  2  0
  3  7  1  0
  3  4  1  0
  4  5  2  0
  5 12  1  0
  6  5  1  0
  7 11  1  0
  8  9  2  0
  8  7  1  0
  9 10  1  0
 10 11  2  0
 10 22  1  0
 12 21  1  0
 13 12  2  0
 13 14  1  0
 14 15  2  0
 15 16  1  0
 16 17  2  0
 17 18  1  0
 19 18  2  0
 20 19  1  0
 21 20  2  0
 21 16  1  0
 22 26  1  0
 22 23  2  0
 23 24  1  0
 25 24  1  0
 25 27  1  0
 26 25  2  0
 27 31  1  0
 28 27  2  0
 28 29  1  0
 29 30  2  0
 31 30  1  0
  1 32  1  0
  2 33  1  0
  8 34  1  0
 13 35  1  0
 14 36  1  0
 15 37  1  0
 17 38  1  0
 18 39  1  0
 19 40  1  0
 20 41  1  0
 28 42  1  0
 30 43  1  0
 31 44  1  0
M  ISO  8  32  14  33  14  34  14  35  14  36  14  37  14  38  14  39  14
M  ISO  5  40  14  41  14  42  14  43  14  44   9
M  END
>  <minimizedAffinity>  (1) 
-6.95889664

>  <minimizedRMSD>  (1) 
1.03552556

$$$$
