
     RDKit          3D

 51 56  0  0  0  0  0  0  0  0999 V2000
   36.6270   23.7020   31.9560 C   0  0  0  0  0  0  0  0  0  0  0  0
   36.1780   25.0020   31.7610 C   0  0  0  0  0  0  0  0  0  0  0  0
   36.7910   25.9610   32.5530 C   0  0  0  0  0  0  0  0  0  0  0  0
   37.7250   25.5590   33.4030 N   0  0  0  0  0  0  0  0  0  0  0  0
   38.1670   24.3320   33.6040 C   0  0  0  0  0  0  0  0  0  0  0  0
   37.5750   23.4280   32.8430 N   0  0  0  0  0  0  0  0  0  0  0  0
   36.4400   27.3300   32.4680 N   0  0  0  0  0  0  0  0  0  0  0  0
   36.4370   28.0990   31.3770 C   0  0  0  0  0  0  0  0  0  0  0  0
   36.0550   29.3220   31.6640 N   0  0  0  0  0  0  0  0  0  0  0  0
   35.8000   29.3580   32.9750 C   0  0  0  0  0  0  0  0  0  0  0  0
   36.0450   28.1240   33.4400 N   0  0  0  0  0  0  0  0  0  0  0  0
   39.1700   23.7770   34.4910 C   0  0  0  0  0  0  0  0  0  0  0  0
   40.3910   23.3220   34.0180 C   0  0  0  0  0  0  0  0  0  0  0  0
   41.3740   22.7900   34.8080 C   0  0  0  0  0  0  0  0  0  0  0  0
   41.1730   22.6830   36.1760 C   0  0  0  0  0  0  0  0  0  0  0  0
   39.9950   23.1160   36.6790 C   0  0  0  0  0  0  0  0  0  0  0  0
   39.7890   23.0110   38.0440 C   0  0  0  0  0  0  0  0  0  0  0  0
   38.6420   23.4180   38.6420 C   0  0  0  0  0  0  0  0  0  0  0  0
   37.6490   23.9580   37.8210 C   0  0  0  0  0  0  0  0  0  0  0  0
   37.8900   24.0450   36.4770 C   0  0  0  0  0  0  0  0  0  0  0  0
   39.0290   23.6440   35.8630 C   0  0  0  0  0  0  0  0  0  0  0  0
   35.3480   30.4000   33.8970 C   0  0  0  0  0  0  0  0  0  0  0  0
   34.6060   30.4360   35.0060 N   0  0  0  0  0  0  0  0  0  0  0  0
   34.5100   31.6670   35.4470 O   0  0  0  0  0  0  0  0  0  0  0  0
   35.1890   32.4420   34.6310 C   0  0  0  0  0  0  0  0  0  0  0  0
   35.7250   31.6900   33.6530 N   0  0  0  0  0  0  0  0  0  0  0  0
   35.3280   33.8530   34.7670 N   0  0  0  0  0  0  0  0  0  0  0  0
   35.9390   34.4070   35.9590 C   0  0  0  0  0  0  0  0  0  0  0  0
   36.4570   35.7740   35.6060 C   0  0  0  0  0  0  0  0  0  0  0  0
   35.4650   36.6580   35.0710 N   0  0  0  0  0  0  0  0  0  0  0  0
   34.4140   36.0250   34.3370 C   0  0  0  0  0  0  0  0  0  0  0  0
   34.8590   34.7350   33.7160 C   0  0  0  0  0  0  0  0  0  0  0  0
   36.1887   22.8848   31.3643 H   0  0  0  0  0  0  0  0  0  0  0  0
   35.3935   25.2524   31.0316 H   0  0  0  0  0  0  0  0  0  0  0  0
   36.7174   27.7539   30.3709 H   0  0  0  0  0  0  0  0  0  0  0  0
   40.5824   23.3931   32.9371 H   0  0  0  0  0  0  0  0  0  0  0  0
   42.3189   22.4489   34.3600 H   0  0  0  0  0  0  0  0  0  0  0  0
   41.9479   22.2590   36.8315 H   0  0  0  0  0  0  0  0  0  0  0  0
   40.5866   22.5808   38.6676 H   0  0  0  0  0  0  0  0  0  0  0  0
   38.4993   23.3267   39.7289 H   0  0  0  0  0  0  0  0  0  0  0  0
   36.6954   24.3052   38.2453 H   0  0  0  0  0  0  0  0  0  0  0  0
   37.0974   24.4738   35.8461 H   0  0  0  0  0  0  0  0  0  0  0  0
   35.1922   34.4841   36.7630 H   0  0  0  0  0  0  0  0  0  0  0  0
   36.7567   33.7613   36.3118 H   0  0  0  0  0  0  0  0  0  0  0  0
   36.8716   36.2314   36.5164 H   0  0  0  0  0  0  0  0  0  0  0  0
   37.2117   35.6322   34.8184 H   0  0  0  0  0  0  0  0  0  0  0  0
   35.0400   37.1718   35.8561 H   0  0  0  0  0  0  0  0  0  0  0  0
   33.5773   35.8196   35.0209 H   0  0  0  0  0  0  0  0  0  0  0  0
   34.1092   36.7040   33.5270 H   0  0  0  0  0  0  0  0  0  0  0  0
   34.0147   34.2669   33.1887 H   0  0  0  0  0  0  0  0  0  0  0  0
   35.6683   34.9244   32.9954 H   0  0  0  0  0  0  0  0  0  0  0  0
  1  6  2  0
  2  1  1  0
  2  3  2  0
  3  4  1  0
  4  5  2  0
  5 12  1  0
  6  5  1  0
  7  3  1  0
  7 11  1  0
  8  9  2  0
  8  7  1  0
  9 10  1  0
 10 11  2  0
 10 22  1  0
 12 21  1  0
 13 12  2  0
 13 14  1  0
 14 15  2  0
 15 16  1  0
 16 17  2  0
 17 18  1  0
 19 18  2  0
 20 19  1  0
 21 20  2  0
 21 16  1  0
 22 23  2  0
 23 24  1  0
 25 27  1  0
 25 24  1  0
 26 22  1  0
 26 25  2  0
 27 28  1  0
 29 28  1  0
 30 29  1  0
 31 30  1  0
 32 31  1  0
 32 27  1  0
  1 33  1  0
  2 34  1  0
  8 35  1  0
 13 36  1  0
 14 37  1  0
 15 38  1  0
 17 39  1  0
 18 40  1  0
 19 41  1  0
 20 42  1  0
 28 43  1  0
 28 44  1  0
 29 45  1  0
 29 46  1  0
 30 47  1  0
 31 48  1  0
 31 49  1  0
 32 50  1  0
 32 51  1  0
M  ISO  8  33  14  34  14  35  14  36  14  37  14  38  14  39  14  40  14
M  ISO  8  41  14  42  14  43  13  44  13  45  13  46  13  47   5  48  13
M  ISO  3  49  13  50  13  51  13
M  END
>  <minimizedAffinity>  (1) 
-6.8732338

>  <minimizedRMSD>  (1) 
2.06875896

$$$$
