
     RDKit          3D

 36 40  0  0  0  0  0  0  0  0999 V2000
   41.9120   24.2860   35.1250 C   0  0  0  0  0  0  0  0  0  0  0  0
   40.8780   23.7690   35.9620 C   0  0  0  0  0  0  0  0  0  0  0  0
   39.5990   23.6430   35.3930 C   0  0  0  0  0  0  0  0  0  0  0  0
   39.4150   24.0110   34.1090 N   0  0  0  0  0  0  0  0  0  0  0  0
   40.4260   24.5010   33.3410 C   0  0  0  0  0  0  0  0  0  0  0  0
   41.6680   24.6310   33.8680 N   0  0  0  0  0  0  0  0  0  0  0  0
   38.5190   23.1290   36.1840 N   0  0  0  0  0  0  0  0  0  0  0  0
   38.1570   23.2860   37.4790 C   0  0  0  0  0  0  0  0  0  0  0  0
   37.0420   22.5630   37.6910 N   0  0  0  0  0  0  0  0  0  0  0  0
   36.7070   21.9540   36.5320 C   0  0  0  0  0  0  0  0  0  0  0  0
   35.6300   21.1150   36.2950 C   0  0  0  0  0  0  0  0  0  0  0  0
   35.5470   20.6520   35.0280 N   0  0  0  0  0  0  0  0  0  0  0  0
   36.4200   20.9660   34.0750 C   0  0  0  0  0  0  0  0  0  0  0  0
   37.4570   21.7830   34.3290 N   0  0  0  0  0  0  0  0  0  0  0  0
   37.6250   22.3000   35.5700 C   0  0  0  0  0  0  0  0  0  0  0  0
   43.2310   24.4410   35.6300 N   0  0  0  0  0  0  0  0  0  0  0  0
   43.8520   23.6110   36.5090 C   0  0  0  0  0  0  0  0  0  0  0  0
   45.0950   24.1260   36.7250 N   0  0  0  0  0  0  0  0  0  0  0  0
   45.2180   25.2320   36.0000 C   0  0  0  0  0  0  0  0  0  0  0  0
   46.2100   26.1780   35.7950 C   0  0  0  0  0  0  0  0  0  0  0  0
   46.0480   27.2550   34.9580 N   0  0  0  0  0  0  0  0  0  0  0  0
   44.8710   27.4130   34.2980 C   0  0  0  0  0  0  0  0  0  0  0  0
   43.8620   26.5180   34.4580 N   0  0  0  0  0  0  0  0  0  0  0  0
   44.0560   25.4690   35.2910 C   0  0  0  0  0  0  0  0  0  0  0  0
   47.4490   26.0510   36.4650 N   0  0  0  0  0  0  0  0  0  0  0  0
   34.6770   20.7580   37.2910 N   0  0  0  0  0  0  0  0  0  0  0  0
   41.0733   23.4820   37.0058 H   0  0  0  0  0  0  0  0  0  0  0  0
   40.2360   24.7904   32.2969 H   0  0  0  0  0  0  0  0  0  0  0  0
   38.6824   23.8977   38.2272 H   0  0  0  0  0  0  0  0  0  0  0  0
   36.2917   20.5512   33.0643 H   0  0  0  0  0  0  0  0  0  0  0  0
   43.4322   22.6994   36.9592 H   0  0  0  0  0  0  0  0  0  0  0  0
   44.7339   28.2742   33.6275 H   0  0  0  0  0  0  0  0  0  0  0  0
   48.1893   26.7515   36.3159 H   0  0  0  0  0  0  0  0  0  0  0  0
   47.6111   25.2580   37.1021 H   0  0  0  0  0  0  0  0  0  0  0  0
   33.8962   20.1292   37.0548 H   0  0  0  0  0  0  0  0  0  0  0  0
   34.7685   21.1286   38.2476 H   0  0  0  0  0  0  0  0  0  0  0  0
  1 16  1  0
  1  2  2  0
  3  2  1  0
  3  7  1  0
  4  3  2  0
  5  6  2  0
  5  4  1  0
  6  1  1  0
  7  8  1  0
  8  9  2  0
 10  9  1  0
 11 10  2  0
 11 26  1  0
 12 11  1  0
 13 14  1  0
 13 12  2  0
 14 15  2  0
 15  7  1  0
 15 10  1  0
 16 17  1  0
 17 18  2  0
 19 18  1  0
 20 19  2  0
 20 25  1  0
 21 20  1  0
 22 23  1  0
 22 21  2  0
 23 24  2  0
 24 16  1  0
 24 19  1  0
  2 27  1  0
  5 28  1  0
  8 29  1  0
 13 30  1  0
 17 31  1  0
 22 32  1  0
 25 33  1  0
 25 34  1  0
 26 35  1  0
 26 36  1  0
M  ISO  6  27  14  28  14  29  14  30  14  31  14  32  14
M  END
>  <minimizedAffinity>  (1) 
-6.26030779

>  <minimizedRMSD>  (1) 
3.95509768

$$$$
