
     RDKit          3D

 39 42  0  0  0  0  0  0  0  0999 V2000
   41.1250   23.3870   36.0020 N   0  0  0  0  0  0  0  0  0  0  0  0
   42.1150   22.7250   36.6540 C   0  0  0  0  0  0  0  0  0  0  0  0
   43.2660   23.4100   36.4190 N   0  0  0  0  0  0  0  0  0  0  0  0
   42.9740   24.4610   35.6440 C   0  0  0  0  0  0  0  0  0  0  0  0
   43.6980   25.4980   35.0830 C   0  0  0  0  0  0  0  0  0  0  0  0
   43.1150   26.4590   34.3100 N   0  0  0  0  0  0  0  0  0  0  0  0
   41.7790   26.4070   34.0750 C   0  0  0  0  0  0  0  0  0  0  0  0
   41.0380   25.4100   34.6050 N   0  0  0  0  0  0  0  0  0  0  0  0
   41.6320   24.4740   35.3640 C   0  0  0  0  0  0  0  0  0  0  0  0
   39.7540   23.0230   35.9740 C   0  0  0  0  0  0  0  0  0  0  0  0
   39.1900   22.3690   34.8660 C   0  0  0  0  0  0  0  0  0  0  0  0
   37.8300   22.0390   34.9030 C   0  0  0  0  0  0  0  0  0  0  0  0
   37.1270   22.3650   36.0050 N   0  0  0  0  0  0  0  0  0  0  0  0
   37.6880   22.9990   37.0710 C   0  0  0  0  0  0  0  0  0  0  0  0
   39.0030   23.3260   37.0510 N   0  0  0  0  0  0  0  0  0  0  0  0
   37.1550   21.3510   33.7850 C   0  0  0  0  0  0  0  0  0  0  0  0
   35.8300   20.7510   34.2150 C   0  0  0  0  0  0  0  0  0  0  0  0
   35.2850   20.0240   33.0300 C   0  0  0  0  0  0  0  0  0  0  0  0
   35.0710   20.8430   31.8120 C   0  0  0  0  0  0  0  0  0  0  0  0
   36.1260   21.8650   31.5340 C   0  0  0  0  0  0  0  0  0  0  0  0
   36.8320   22.3860   32.7400 C   0  0  0  0  0  0  0  0  0  0  0  0
   45.0990   25.5800   35.3120 N   0  0  0  0  0  0  0  0  0  0  0  0
   42.0069   21.8109   37.2562 H   0  0  0  0  0  0  0  0  0  0  0  0
   41.2998   27.1771   33.4527 H   0  0  0  0  0  0  0  0  0  0  0  0
   39.8042   22.1214   33.9877 H   0  0  0  0  0  0  0  0  0  0  0  0
   37.0735   23.2461   37.9493 H   0  0  0  0  0  0  0  0  0  0  0  0
   37.8188   20.5535   33.4199 H   0  0  0  0  0  0  0  0  0  0  0  0
   35.9833   20.0527   35.0510 H   0  0  0  0  0  0  0  0  0  0  0  0
   35.1337   21.5314   34.5558 H   0  0  0  0  0  0  0  0  0  0  0  0
   35.9891   19.2182   32.7753 H   0  0  0  0  0  0  0  0  0  0  0  0
   34.2880   19.6691   33.3301 H   0  0  0  0  0  0  0  0  0  0  0  0
   35.0221   20.1622   30.9494 H   0  0  0  0  0  0  0  0  0  0  0  0
   34.1414   21.4055   31.9840 H   0  0  0  0  0  0  0  0  0  0  0  0
   36.8755   21.4098   30.8699 H   0  0  0  0  0  0  0  0  0  0  0  0
   35.6094   22.7258   31.0843 H   0  0  0  0  0  0  0  0  0  0  0  0
   37.7760   22.8450   32.4111 H   0  0  0  0  0  0  0  0  0  0  0  0
   36.1424   23.0987   33.2160 H   0  0  0  0  0  0  0  0  0  0  0  0
   45.6444   26.3492   34.8976 H   0  0  0  0  0  0  0  0  0  0  0  0
   45.5684   24.8702   35.8923 H   0  0  0  0  0  0  0  0  0  0  0  0
  1  2  1  0
  3  2  2  0
  4  3  1  0
  5 22  1  0
  5  4  2  0
  6  5  1  0
  7  6  2  0
  7  8  1  0
  8  9  2  0
  9  4  1  0
  9  1  1  0
 10  1  1  0
 10 15  2  0
 11 12  2  0
 11 10  1  0
 12 13  1  0
 13 14  2  0
 15 14  1  0
 16 17  1  0
 16 12  1  0
 18 17  1  0
 19 18  1  0
 20 19  1  0
 20 21  1  0
 21 16  1  0
  2 23  1  0
  7 24  1  0
 11 25  1  0
 14 26  1  0
 16 27  1  0
 17 28  1  0
 17 29  1  0
 18 30  1  0
 18 31  1  0
 19 32  1  0
 19 33  1  0
 20 34  1  0
 20 35  1  0
 21 36  1  0
 21 37  1  0
 22 38  1  0
 22 39  1  0
M  ISO  8  23  14  24  14  25  14  26  14  27  13  28  13  29  13  30  13
M  ISO  7  31  13  32  13  33  13  34  13  35  13  36  13  37  13
M  END
>  <minimizedAffinity>  (1) 
-5.2986083

>  <minimizedRMSD>  (1) 
4.20085573

$$$$
