
     RDKit          3D

 30 32  0  0  0  0  0  0  0  0999 V2000
   43.4440   22.6960   35.8740 C   0  0  0  0  0  0  0  0  0  0  0  0
   42.5050   22.4980   36.9010 C   0  0  0  0  0  0  0  0  0  0  0  0
   41.1920   22.1640   36.5940 C   0  0  0  0  0  0  0  0  0  0  0  0
   40.8820   22.0450   35.2920 N   0  0  0  0  0  0  0  0  0  0  0  0
   41.7930   22.2370   34.2900 C   0  0  0  0  0  0  0  0  0  0  0  0
   43.0800   22.5640   34.5820 N   0  0  0  0  0  0  0  0  0  0  0  0
   40.2820   21.9780   37.6450 N   0  0  0  0  0  0  0  0  0  0  0  0
   39.3190   22.9620   37.9090 C   0  0  0  0  0  0  0  0  0  0  0  0
   38.7530   23.6140   36.9710 N   0  0  0  0  0  0  0  0  0  0  0  0
   38.9210   23.2780   39.2600 N   0  0  0  0  0  0  0  0  0  0  0  0
   38.8920   23.5400   35.9580 H   0  0  0  0  0  0  0  0  0  0  0  0
   44.8000   23.0390   36.1410 N   0  0  0  0  0  0  0  0  0  0  0  0
   45.8880   22.3930   35.6650 C   0  0  0  0  0  0  0  0  0  0  0  0
   46.9730   23.0490   36.1600 N   0  0  0  0  0  0  0  0  0  0  0  0
   46.5440   24.0610   36.9150 C   0  0  0  0  0  0  0  0  0  0  0  0
   47.1340   25.0600   37.6630 C   0  0  0  0  0  0  0  0  0  0  0  0
   46.4190   25.9960   38.3570 N   0  0  0  0  0  0  0  0  0  0  0  0
   45.0540   25.9550   38.3200 C   0  0  0  0  0  0  0  0  0  0  0  0
   44.4260   24.9960   37.6010 N   0  0  0  0  0  0  0  0  0  0  0  0
   45.1630   24.0860   36.9260 C   0  0  0  0  0  0  0  0  0  0  0  0
   48.5470   25.1460   37.7260 N   0  0  0  0  0  0  0  0  0  0  0  0
   42.8110   22.6079   37.9518 H   0  0  0  0  0  0  0  0  0  0  0  0
   41.4823   22.1261   33.2407 H   0  0  0  0  0  0  0  0  0  0  0  0
   40.3210   21.1238   38.2192 H   0  0  0  0  0  0  0  0  0  0  0  0
   38.2115   24.0047   39.4312 H   0  0  0  0  0  0  0  0  0  0  0  0
   39.3465   22.7768   40.0528 H   0  0  0  0  0  0  0  0  0  0  0  0
   45.8950   21.5112   35.0074 H   0  0  0  0  0  0  0  0  0  0  0  0
   44.4658   26.7011   38.8744 H   0  0  0  0  0  0  0  0  0  0  0  0
   48.9934   25.8890   38.2823 H   0  0  0  0  0  0  0  0  0  0  0  0
   49.1276   24.4655   37.2155 H   0  0  0  0  0  0  0  0  0  0  0  0
  1 12  1  0
  1  2  2  0
  3  2  1  0
  3  7  1  0
  4  3  2  0
  5  6  2  0
  5  4  1  0
  6  1  1  0
  7  8  1  0
  8 10  1  0
  9  8  2  0
 11  9  1  0
 12 20  1  0
 13 12  1  0
 13 14  2  0
 14 15  1  0
 15 20  2  0
 15 16  1  0
 16 21  1  0
 16 17  2  0
 18 17  1  0
 19 18  2  0
 20 19  1  0
  2 22  1  0
  5 23  1  0
  7 24  1  0
 10 25  1  0
 10 26  1  0
 13 27  1  0
 18 28  1  0
 21 29  1  0
 21 30  1  0
M  ISO  4  22  14  23  14  27  14  28  14
M  END
>  <minimizedAffinity>  (1) 
-5.14480162

>  <minimizedRMSD>  (1) 
4.22854471

$$$$
