
     RDKit          3D

 35 37  0  0  0  0  0  0  0  0999 V2000
   42.7360   24.1250   35.4920 N   0  0  0  0  0  0  0  0  0  0  0  0
   42.3570   24.9680   34.4900 C   0  0  0  0  0  0  0  0  0  0  0  0
   40.9970   24.9260   34.4520 N   0  0  0  0  0  0  0  0  0  0  0  0
   40.5800   24.0890   35.3960 C   0  0  0  0  0  0  0  0  0  0  0  0
   39.3500   23.6250   35.8520 C   0  0  0  0  0  0  0  0  0  0  0  0
   39.2250   22.7340   36.8770 N   0  0  0  0  0  0  0  0  0  0  0  0
   40.3470   22.2640   37.4980 C   0  0  0  0  0  0  0  0  0  0  0  0
   41.5720   22.6800   37.0950 N   0  0  0  0  0  0  0  0  0  0  0  0
   41.6580   23.5600   36.0800 C   0  0  0  0  0  0  0  0  0  0  0  0
   44.0920   23.8550   35.8760 C   0  0  0  0  0  0  0  0  0  0  0  0
   44.7750   24.6750   36.7920 C   0  0  0  0  0  0  0  0  0  0  0  0
   46.1000   24.3110   37.0910 C   0  0  0  0  0  0  0  0  0  0  0  0
   46.6410   23.2210   36.5020 N   0  0  0  0  0  0  0  0  0  0  0  0
   45.9540   22.4530   35.6220 C   0  0  0  0  0  0  0  0  0  0  0  0
   44.6790   22.7800   35.3180 N   0  0  0  0  0  0  0  0  0  0  0  0
   46.8660   25.1460   38.0540 C   0  0  0  0  0  0  0  0  0  0  0  0
   45.8990   25.7270   39.0630 C   0  0  0  0  0  0  0  0  0  0  0  0
   47.5830   26.2660   37.3650 C   0  0  0  0  0  0  0  0  0  0  0  0
   47.8370   24.2810   38.8630 C   0  0  0  0  0  0  0  0  0  0  0  0
   38.1730   24.0900   35.2070 N   0  0  0  0  0  0  0  0  0  0  0  0
   43.0177   25.5628   33.8422 H   0  0  0  0  0  0  0  0  0  0  0  0
   40.2560   21.5465   38.3268 H   0  0  0  0  0  0  0  0  0  0  0  0
   44.2982   25.5541   37.2501 H   0  0  0  0  0  0  0  0  0  0  0  0
   46.4286   21.5743   35.1609 H   0  0  0  0  0  0  0  0  0  0  0  0
   46.2574   25.5117   40.0804 H   0  0  0  0  0  0  0  0  0  0  0  0
   45.8310   26.8157   38.9209 H   0  0  0  0  0  0  0  0  0  0  0  0
   44.9059   25.2759   38.9209 H   0  0  0  0  0  0  0  0  0  0  0  0
   48.0158   26.9420   38.1172 H   0  0  0  0  0  0  0  0  0  0  0  0
   48.3863   25.8550   36.7359 H   0  0  0  0  0  0  0  0  0  0  0  0
   46.8735   26.8235   36.7359 H   0  0  0  0  0  0  0  0  0  0  0  0
   47.6604   24.4383   39.9373 H   0  0  0  0  0  0  0  0  0  0  0  0
   47.6766   23.2211   38.6164 H   0  0  0  0  0  0  0  0  0  0  0  0
   48.8714   24.5623   38.6164 H   0  0  0  0  0  0  0  0  0  0  0  0
   37.2489   23.7633   35.5236 H   0  0  0  0  0  0  0  0  0  0  0  0
   38.2436   24.7539   34.4227 H   0  0  0  0  0  0  0  0  0  0  0  0
  1 10  1  0
  1  9  1  0
  2  1  1  0
  3  2  2  0
  3  4  1  0
  4  5  2  0
  4  9  1  0
  5  6  1  0
  6  7  2  0
  8  7  1  0
  9  8  2  0
 10 11  2  0
 11 12  1  0
 12 16  1  0
 13 12  2  0
 14 13  1  0
 15 14  2  0
 15 10  1  0
 16 19  1  0
 16 17  1  0
 18 16  1  0
 20  5  1  0
  2 21  1  0
  7 22  1  0
 11 23  1  0
 14 24  1  0
 17 25  1  0
 17 26  1  0
 17 27  1  0
 18 28  1  0
 18 29  1  0
 18 30  1  0
 19 31  1  0
 19 32  1  0
 19 33  1  0
 20 34  1  0
 20 35  1  0
M  ISO  8  21  14  22  14  23  14  24  14  25   8  26   8  27   8  28   8
M  ISO  5  29   8  30   8  31   8  32   8  33   8
M  END
>  <minimizedAffinity>  (1) 
-4.95242929

>  <minimizedRMSD>  (1) 
6.90817213

$$$$
