
     RDKit          3D

 31 34  0  0  0  0  0  0  0  0999 V2000
   39.3100   23.1410   35.3130 C   0  0  0  0  0  0  0  0  0  0  0  0
   40.7180   23.1490   35.1890 C   0  0  0  0  0  0  0  0  0  0  0  0
   41.4620   22.9940   36.3530 C   0  0  0  0  0  0  0  0  0  0  0  0
   40.8240   22.8450   37.5310 N   0  0  0  0  0  0  0  0  0  0  0  0
   39.4610   22.8420   37.6210 C   0  0  0  0  0  0  0  0  0  0  0  0
   38.7280   22.9920   36.5010 N   0  0  0  0  0  0  0  0  0  0  0  0
   38.4640   23.2950   34.1660 N   0  0  0  0  0  0  0  0  0  0  0  0
   38.0270   22.2840   33.3660 C   0  0  0  0  0  0  0  0  0  0  0  0
   37.2570   22.8600   32.4040 N   0  0  0  0  0  0  0  0  0  0  0  0
   37.2320   24.1650   32.6140 C   0  0  0  0  0  0  0  0  0  0  0  0
   36.6480   25.2640   32.0070 C   0  0  0  0  0  0  0  0  0  0  0  0
   36.8030   26.5430   32.4630 N   0  0  0  0  0  0  0  0  0  0  0  0
   37.5690   26.7650   33.5710 C   0  0  0  0  0  0  0  0  0  0  0  0
   38.1630   25.7350   34.2040 N   0  0  0  0  0  0  0  0  0  0  0  0
   37.9890   24.4940   33.7300 C   0  0  0  0  0  0  0  0  0  0  0  0
   35.8450   25.0770   30.8550 N   0  0  0  0  0  0  0  0  0  0  0  0
   42.9190   22.9950   36.2810 C   0  0  0  0  0  0  0  0  0  0  0  0
   43.6120   24.1270   36.6580 C   0  0  0  0  0  0  0  0  0  0  0  0
   44.9930   23.9930   36.5410 C   0  0  0  0  0  0  0  0  0  0  0  0
   45.6530   22.9010   36.1130 N   0  0  0  0  0  0  0  0  0  0  0  0
   44.9050   21.8370   35.7640 C   0  0  0  0  0  0  0  0  0  0  0  0
   43.5430   21.8830   35.8480 N   0  0  0  0  0  0  0  0  0  0  0  0
   41.2054   23.2729   34.2107 H   0  0  0  0  0  0  0  0  0  0  0  0
   38.9679   22.7186   38.5965 H   0  0  0  0  0  0  0  0  0  0  0  0
   38.2521   21.2129   33.4758 H   0  0  0  0  0  0  0  0  0  0  0  0
   37.7017   27.7896   33.9486 H   0  0  0  0  0  0  0  0  0  0  0  0
   35.7005   24.1302   30.4761 H   0  0  0  0  0  0  0  0  0  0  0  0
   35.4056   25.8878   30.3963 H   0  0  0  0  0  0  0  0  0  0  0  0
   43.1220   25.0446   37.0156 H   0  0  0  0  0  0  0  0  0  0  0  0
   45.6030   24.8630   36.8257 H   0  0  0  0  0  0  0  0  0  0  0  0
   45.3970   20.9202   35.4071 H   0  0  0  0  0  0  0  0  0  0  0  0
  1  6  1  0
  2  1  2  0
  2  3  1  0
  3  4  2  0
  4  5  1  0
  6  5  2  0
  7  1  1  0
  8  7  1  0
  9 10  1  0
  9  8  2  0
 10 15  2  0
 11 12  2  0
 11 10  1  0
 12 13  1  0
 13 14  2  0
 15  7  1  0
 15 14  1  0
 16 11  1  0
 17  3  1  0
 17 18  2  0
 19 18  1  0
 20 19  2  0
 21 22  2  0
 21 20  1  0
 22 17  1  0
  2 23  1  0
  5 24  1  0
  8 25  1  0
 13 26  1  0
 16 27  1  0
 16 28  1  0
 18 29  1  0
 19 30  1  0
 21 31  1  0
M  ISO  7  23  14  24  14  25  14  26  14  29  14  30  14  31  14
M  END
>  <minimizedAffinity>  (1) 
-4.83029604

>  <minimizedRMSD>  (1) 
6.50619221

$$$$
