
     RDKit          3D

 30 33  0  0  0  0  0  0  0  0999 V2000
   40.7220   23.3530   34.9760 N   0  0  0  0  0  0  0  0  0  0  0  0
   40.5870   22.2250   34.2550 C   0  0  0  0  0  0  0  0  0  0  0  0
   39.3830   21.6810   34.5830 N   0  0  0  0  0  0  0  0  0  0  0  0
   38.8010   22.4700   35.4900 C   0  0  0  0  0  0  0  0  0  0  0  0
   37.6140   22.4530   36.1800 C   0  0  0  0  0  0  0  0  0  0  0  0
   37.2780   23.4280   37.0730 N   0  0  0  0  0  0  0  0  0  0  0  0
   38.1390   24.4610   37.2960 C   0  0  0  0  0  0  0  0  0  0  0  0
   39.3160   24.5300   36.6470 N   0  0  0  0  0  0  0  0  0  0  0  0
   39.6230   23.5480   35.7680 C   0  0  0  0  0  0  0  0  0  0  0  0
   41.8320   24.2480   34.9550 C   0  0  0  0  0  0  0  0  0  0  0  0
   42.7320   24.3200   36.0600 C   0  0  0  0  0  0  0  0  0  0  0  0
   43.7900   25.2170   35.9630 C   0  0  0  0  0  0  0  0  0  0  0  0
   43.9100   25.9750   34.8300 N   0  0  0  0  0  0  0  0  0  0  0  0
   43.0350   25.8760   33.8070 C   0  0  0  0  0  0  0  0  0  0  0  0
   41.9960   25.0070   33.8780 N   0  0  0  0  0  0  0  0  0  0  0  0
   44.7280   25.3130   37.0780 C   0  0  0  0  0  0  0  0  0  0  0  0
   45.8970   24.5820   37.2030 C   0  0  0  0  0  0  0  0  0  0  0  0
   46.5000   24.9340   38.3510 N   0  0  0  0  0  0  0  0  0  0  0  0
   45.7250   25.8660   38.9350 C   0  0  0  0  0  0  0  0  0  0  0  0
   44.6370   26.1060   38.1630 N   0  0  0  0  0  0  0  0  0  0  0  0
   36.6860   21.4010   35.9860 N   0  0  0  0  0  0  0  0  0  0  0  0
   41.3132   21.8187   33.5356 H   0  0  0  0  0  0  0  0  0  0  0  0
   37.8684   25.2480   38.0153 H   0  0  0  0  0  0  0  0  0  0  0  0
   42.5944   23.6915   36.9522 H   0  0  0  0  0  0  0  0  0  0  0  0
   43.1651   26.5025   32.9123 H   0  0  0  0  0  0  0  0  0  0  0  0
   46.2696   23.8381   36.4835 H   0  0  0  0  0  0  0  0  0  0  0  0
   45.9416   26.3589   39.8942 H   0  0  0  0  0  0  0  0  0  0  0  0
   43.8793   26.7728   38.3685 H   0  0  0  0  0  0  0  0  0  0  0  0
   35.7977   21.3952   36.5073 H   0  0  0  0  0  0  0  0  0  0  0  0
   36.8994   20.6416   35.3236 H   0  0  0  0  0  0  0  0  0  0  0  0
  1  9  1  0
  2  3  2  0
  2  1  1  0
  3  4  1  0
  4  9  2  0
  4  5  1  0
  5  6  2  0
  6  7  1  0
  8  7  2  0
  9  8  1  0
 10  1  1  0
 10 11  2  0
 12 11  1  0
 12 16  1  0
 13 12  2  0
 14 15  2  0
 14 13  1  0
 15 10  1  0
 16 17  2  0
 16 20  1  0
 17 18  1  0
 18 19  2  0
 20 19  1  0
 21  5  1  0
  2 22  1  0
  7 23  1  0
 11 24  1  0
 14 25  1  0
 17 26  1  0
 19 27  1  0
 20 28  1  0
 21 29  1  0
 21 30  1  0
M  ISO  7  22  14  23  14  24  14  25  14  26  14  27  14  28   9
M  END
>  <minimizedAffinity>  (1) 
-4.73626041

>  <minimizedRMSD>  (1) 
6.59849024

$$$$
