
     RDKit          3D

 33 36  0  0  0  0  0  0  0  0999 V2000
   40.0930   22.9230   35.9530 C   0  0  0  0  0  0  0  0  0  0  0  0
   39.2920   22.3970   34.9240 C   0  0  0  0  0  0  0  0  0  0  0  0
   37.9270   22.2330   35.1340 C   0  0  0  0  0  0  0  0  0  0  0  0
   37.4210   22.5870   36.3300 N   0  0  0  0  0  0  0  0  0  0  0  0
   38.2110   23.0980   37.3250 C   0  0  0  0  0  0  0  0  0  0  0  0
   39.5440   23.2640   37.1370 N   0  0  0  0  0  0  0  0  0  0  0  0
   41.4900   23.1150   35.8010 N   0  0  0  0  0  0  0  0  0  0  0  0
   42.1040   24.2780   35.4660 C   0  0  0  0  0  0  0  0  0  0  0  0
   43.4390   24.0220   35.4370 N   0  0  0  0  0  0  0  0  0  0  0  0
   43.6250   22.7500   35.7420 C   0  0  0  0  0  0  0  0  0  0  0  0
   44.7190   21.9070   35.8770 C   0  0  0  0  0  0  0  0  0  0  0  0
   44.6110   20.5980   36.2140 N   0  0  0  0  0  0  0  0  0  0  0  0
   43.3650   20.0600   36.4360 C   0  0  0  0  0  0  0  0  0  0  0  0
   42.2730   20.8410   36.3170 N   0  0  0  0  0  0  0  0  0  0  0  0
   42.4110   22.1340   35.9830 C   0  0  0  0  0  0  0  0  0  0  0  0
   46.0220   22.4360   35.6590 N   0  0  0  0  0  0  0  0  0  0  0  0
   37.0270   21.6980   34.1230 C   0  0  0  0  0  0  0  0  0  0  0  0
   37.1760   22.1880   32.8420 C   0  0  0  0  0  0  0  0  0  0  0  0
   36.3750   21.7550   31.7800 C   0  0  0  0  0  0  0  0  0  0  0  0
   35.3890   20.7930   32.0290 C   0  0  0  0  0  0  0  0  0  0  0  0
   35.2920   20.3460   33.3260 C   0  0  0  0  0  0  0  0  0  0  0  0
   36.0620   20.7550   34.3690 C   0  0  0  0  0  0  0  0  0  0  0  0
   39.7417   22.1172   33.9599 H   0  0  0  0  0  0  0  0  0  0  0  0
   37.7591   23.3772   38.2883 H   0  0  0  0  0  0  0  0  0  0  0  0
   41.6159   25.2416   35.2581 H   0  0  0  0  0  0  0  0  0  0  0  0
   43.2603   18.9995   36.7088 H   0  0  0  0  0  0  0  0  0  0  0  0
   46.8475   21.8274   35.7541 H   0  0  0  0  0  0  0  0  0  0  0  0
   46.1396   23.4275   35.4061 H   0  0  0  0  0  0  0  0  0  0  0  0
   37.9508   22.9447   32.6492 H   0  0  0  0  0  0  0  0  0  0  0  0
   36.5173   22.1628   30.7683 H   0  0  0  0  0  0  0  0  0  0  0  0
   34.7297   20.4163   31.2331 H   0  0  0  0  0  0  0  0  0  0  0  0
   34.5222   19.5896   33.5385 H   0  0  0  0  0  0  0  0  0  0  0  0
   35.9157   20.3427   35.3783 H   0  0  0  0  0  0  0  0  0  0  0  0
  1  6  2  0
  2  3  2  0
  2  1  1  0
  3  4  1  0
  4  5  2  0
  6  5  1  0
  7  1  1  0
  7 15  1  0
  8  7  1  0
  9  8  2  0
  9 10  1  0
 10 11  2  0
 10 15  1  0
 11 12  1  0
 12 13  2  0
 14 13  1  0
 15 14  2  0
 16 11  1  0
 17 22  1  0
 17  3  1  0
 18 17  2  0
 19 20  2  0
 19 18  1  0
 20 21  1  0
 21 22  2  0
  2 23  1  0
  5 24  1  0
  8 25  1  0
 13 26  1  0
 16 27  1  0
 16 28  1  0
 18 29  1  0
 19 30  1  0
 20 31  1  0
 21 32  1  0
 22 33  1  0
M  ISO  8  23  14  24  14  25  14  26  14  29  14  30  14  31  14  32  14
M  ISO  1  33  14
M  END
>  <minimizedAffinity>  (1) 
-4.7242384

>  <minimizedRMSD>  (1) 
4.93026257

$$$$
