
     RDKit          3D

 26 28  0  0  0  0  0  0  0  0999 V2000
   42.2930   22.4390   36.0550 N   0  0  0  0  0  0  0  0  0  0  0  0
   42.7440   21.1560   36.0460 C   0  0  0  0  0  0  0  0  0  0  0  0
   44.1010   21.2240   36.0670 N   0  0  0  0  0  0  0  0  0  0  0  0
   44.4560   22.5040   36.0890 C   0  0  0  0  0  0  0  0  0  0  0  0
   45.6490   23.2050   36.1170 C   0  0  0  0  0  0  0  0  0  0  0  0
   45.7120   24.5740   36.1350 N   0  0  0  0  0  0  0  0  0  0  0  0
   44.5510   25.2800   36.1260 C   0  0  0  0  0  0  0  0  0  0  0  0
   43.3500   24.6570   36.1010 N   0  0  0  0  0  0  0  0  0  0  0  0
   43.3320   23.3030   36.0830 C   0  0  0  0  0  0  0  0  0  0  0  0
   40.9210   22.8380   36.0400 C   0  0  0  0  0  0  0  0  0  0  0  0
   40.1800   22.9830   37.2260 C   0  0  0  0  0  0  0  0  0  0  0  0
   38.8460   23.3770   37.1030 C   0  0  0  0  0  0  0  0  0  0  0  0
   38.3280   23.5990   35.8800 N   0  0  0  0  0  0  0  0  0  0  0  0
   39.0720   23.4500   34.7420 C   0  0  0  0  0  0  0  0  0  0  0  0
   40.3690   23.0680   34.8330 N   0  0  0  0  0  0  0  0  0  0  0  0
   38.0210   23.5470   38.2940 C   0  0  0  0  0  0  0  0  0  0  0  0
   37.9640   24.6610   38.8750 O   0  0  0  0  0  0  0  0  0  0  0  0
   37.2970   22.4690   38.7830 O   0  0  0  0  0  0  0  0  0  0  0  0
   46.8780   22.4840   36.1260 N   0  0  0  0  0  0  0  0  0  0  0  0
   42.1309   20.2429   36.0257 H   0  0  0  0  0  0  0  0  0  0  0  0
   44.5882   26.3793   36.1393 H   0  0  0  0  0  0  0  0  0  0  0  0
   40.6326   22.7938   38.2106 H   0  0  0  0  0  0  0  0  0  0  0  0
   38.6196   23.6394   33.7574 H   0  0  0  0  0  0  0  0  0  0  0  0
   36.7347   22.5759   39.5907 H   0  0  0  0  0  0  0  0  0  0  0  0
   47.7734   22.9927   36.1468 H   0  0  0  0  0  0  0  0  0  0  0  0
   46.8710   21.4541   36.1117 H   0  0  0  0  0  0  0  0  0  0  0  0
  1  9  1  0
  2  1  1  0
  2  3  2  0
  3  4  1  0
  4  5  2  0
  5 19  1  0
  5  6  1  0
  7  6  2  0
  8  7  1  0
  9  4  1  0
  9  8  2  0
 10  1  1  0
 10 11  2  0
 12 11  1  0
 12 16  1  0
 13 12  2  0
 14 15  2  0
 14 13  1  0
 15 10  1  0
 16 18  1  0
 16 17  2  0
  2 20  1  0
  7 21  1  0
 11 22  1  0
 14 23  1  0
 18 24  1  0
 19 25  1  0
 19 26  1  0
M  ISO  5  20  14  21  14  22  14  23  14  24   3
M  END
>  <minimizedAffinity>  (1) 
-4.44532204

>  <minimizedRMSD>  (1) 
2.3537333

$$$$
