
     RDKit          3D

 30 33  0  0  0  0  0  0  0  0999 V2000
   42.1840   22.8480   35.7550 N   0  0  0  0  0  0  0  0  0  0  0  0
   42.5930   21.5600   35.9120 C   0  0  0  0  0  0  0  0  0  0  0  0
   43.9340   21.5780   36.0980 N   0  0  0  0  0  0  0  0  0  0  0  0
   44.3340   22.8500   36.0560 C   0  0  0  0  0  0  0  0  0  0  0  0
   45.5420   23.5250   36.1730 C   0  0  0  0  0  0  0  0  0  0  0  0
   45.6490   24.8740   36.0840 N   0  0  0  0  0  0  0  0  0  0  0  0
   44.5290   25.6230   35.8700 C   0  0  0  0  0  0  0  0  0  0  0  0
   43.3300   25.0220   35.7480 N   0  0  0  0  0  0  0  0  0  0  0  0
   43.2560   23.6720   35.8420 C   0  0  0  0  0  0  0  0  0  0  0  0
   40.8500   23.2790   35.5360 C   0  0  0  0  0  0  0  0  0  0  0  0
   39.7700   22.3790   35.5290 C   0  0  0  0  0  0  0  0  0  0  0  0
   38.4830   22.8870   35.3040 C   0  0  0  0  0  0  0  0  0  0  0  0
   38.3460   24.2120   35.1070 N   0  0  0  0  0  0  0  0  0  0  0  0
   39.4010   25.0690   35.1170 C   0  0  0  0  0  0  0  0  0  0  0  0
   40.6500   24.5940   35.3320 N   0  0  0  0  0  0  0  0  0  0  0  0
   37.3240   22.0010   35.2860 C   0  0  0  0  0  0  0  0  0  0  0  0
   36.8280   21.3850   34.1550 C   0  0  0  0  0  0  0  0  0  0  0  0
   35.7430   20.6640   34.6500 C   0  0  0  0  0  0  0  0  0  0  0  0
   35.6350   20.8700   36.0120 C   0  0  0  0  0  0  0  0  0  0  0  0
   36.6090   21.6780   36.3350 O   0  0  0  0  0  0  0  0  0  0  0  0
   46.7300   22.7670   36.3980 N   0  0  0  0  0  0  0  0  0  0  0  0
   41.9512   20.6668   35.8916 H   0  0  0  0  0  0  0  0  0  0  0  0
   44.6053   26.7179   35.7971 H   0  0  0  0  0  0  0  0  0  0  0  0
   39.9308   21.3037   35.6958 H   0  0  0  0  0  0  0  0  0  0  0  0
   39.2403   26.1445   34.9510 H   0  0  0  0  0  0  0  0  0  0  0  0
   37.1971   21.4475   33.1207 H   0  0  0  0  0  0  0  0  0  0  0  0
   35.0755   20.0289   34.0491 H   0  0  0  0  0  0  0  0  0  0  0  0
   34.8810   20.4403   36.6878 H   0  0  0  0  0  0  0  0  0  0  0  0
   47.6373   23.2462   36.4880 H   0  0  0  0  0  0  0  0  0  0  0  0
   46.6801   21.7408   36.4704 H   0  0  0  0  0  0  0  0  0  0  0  0
  1  9  1  0
  1  2  1  0
  2  3  2  0
  4  3  1  0
  4  5  2  0
  5 21  1  0
  6  5  1  0
  7  6  2  0
  8  9  2  0
  8  7  1  0
  9  4  1  0
 10  1  1  0
 11 10  2  0
 12 11  1  0
 13 14  1  0
 13 12  2  0
 14 15  2  0
 15 10  1  0
 16 12  1  0
 16 20  1  0
 17 18  1  0
 17 16  2  0
 18 19  2  0
 19 20  1  0
  2 22  1  0
  7 23  1  0
 11 24  1  0
 14 25  1  0
 17 26  1  0
 18 27  1  0
 19 28  1  0
 21 29  1  0
 21 30  1  0
M  ISO  7  22  14  23  14  24  14  25  14  26  14  27  14  28  14
M  END
>  <minimizedAffinity>  (1) 
-4.37152004

>  <minimizedRMSD>  (1) 
3.58324552

$$$$
