
     RDKit          3D

 30 33  0  0  0  0  0  0  0  0999 V2000
   41.7050   24.0330   35.2830 N   0  0  0  0  0  0  0  0  0  0  0  0
   42.1170   23.2300   36.2850 C   0  0  0  0  0  0  0  0  0  0  0  0
   43.3410   23.6840   36.6690 N   0  0  0  0  0  0  0  0  0  0  0  0
   43.6470   24.7330   35.9090 C   0  0  0  0  0  0  0  0  0  0  0  0
   44.7250   25.6000   35.8180 C   0  0  0  0  0  0  0  0  0  0  0  0
   44.7680   26.6250   34.9100 N   0  0  0  0  0  0  0  0  0  0  0  0
   43.7220   26.8090   34.0610 C   0  0  0  0  0  0  0  0  0  0  0  0
   42.6500   25.9900   34.1100 N   0  0  0  0  0  0  0  0  0  0  0  0
   42.6320   24.9960   35.0070 C   0  0  0  0  0  0  0  0  0  0  0  0
   40.4640   23.9240   34.5740 C   0  0  0  0  0  0  0  0  0  0  0  0
   39.4670   22.9960   34.9920 C   0  0  0  0  0  0  0  0  0  0  0  0
   38.2880   22.9660   34.2320 C   0  0  0  0  0  0  0  0  0  0  0  0
   38.1590   23.7920   33.1750 N   0  0  0  0  0  0  0  0  0  0  0  0
   39.1240   24.6640   32.8030 C   0  0  0  0  0  0  0  0  0  0  0  0
   40.2720   24.7100   33.5220 N   0  0  0  0  0  0  0  0  0  0  0  0
   37.2710   22.0480   34.6250 N   0  0  0  0  0  0  0  0  0  0  0  0
   36.9100   21.8310   35.9010 C   0  0  0  0  0  0  0  0  0  0  0  0
   35.9080   20.8820   35.8300 C   0  0  0  0  0  0  0  0  0  0  0  0
   35.6700   20.5330   34.5450 N   0  0  0  0  0  0  0  0  0  0  0  0
   36.5350   21.2760   33.7980 C   0  0  0  0  0  0  0  0  0  0  0  0
   45.8360   25.4510   36.6780 N   0  0  0  0  0  0  0  0  0  0  0  0
   41.5703   22.3749   36.7092 H   0  0  0  0  0  0  0  0  0  0  0  0
   43.7495   27.6303   33.3297 H   0  0  0  0  0  0  0  0  0  0  0  0
   39.6135   22.3394   35.8623 H   0  0  0  0  0  0  0  0  0  0  0  0
   38.9798   25.3228   31.9340 H   0  0  0  0  0  0  0  0  0  0  0  0
   37.3218   22.3049   36.8042 H   0  0  0  0  0  0  0  0  0  0  0  0
   35.3767   20.4672   36.6993 H   0  0  0  0  0  0  0  0  0  0  0  0
   36.6193   21.2505   32.7015 H   0  0  0  0  0  0  0  0  0  0  0  0
   46.6339   26.0983   36.6055 H   0  0  0  0  0  0  0  0  0  0  0  0
   45.8481   24.6950   37.3775 H   0  0  0  0  0  0  0  0  0  0  0  0
  1  2  1  0
  2  3  2  0
  4  3  1  0
  5  4  2  0
  5 21  1  0
  6  5  1  0
  7  8  1  0
  7  6  2  0
  8  9  2  0
  9  1  1  0
  9  4  1  0
 10 11  2  0
 10  1  1  0
 12 16  1  0
 12 11  1  0
 13 12  2  0
 14 13  1  0
 14 15  2  0
 15 10  1  0
 16 17  1  0
 18 17  2  0
 19 18  1  0
 20 19  2  0
 20 16  1  0
  2 22  1  0
  7 23  1  0
 11 24  1  0
 14 25  1  0
 17 26  1  0
 18 27  1  0
 20 28  1  0
 21 29  1  0
 21 30  1  0
M  ISO  7  22  14  23  14  24  14  25  14  26  14  27  14  28  14
M  END
>  <minimizedAffinity>  (1) 
-4.32130384

>  <minimizedRMSD>  (1) 
3.56641865

$$$$
