
     RDKit          3D

 39 43  0  0  0  0  0  0  0  0999 V2000
   37.4310   24.1860   31.5790 C   0  0  0  0  0  0  0  0  0  0  0  0
   36.8480   25.4530   31.5750 C   0  0  0  0  0  0  0  0  0  0  0  0
   37.1830   26.2510   32.6500 C   0  0  0  0  0  0  0  0  0  0  0  0
   38.0010   25.7640   33.5610 N   0  0  0  0  0  0  0  0  0  0  0  0
   38.5630   24.5750   33.5880 C   0  0  0  0  0  0  0  0  0  0  0  0
   38.2420   23.8170   32.5620 N   0  0  0  0  0  0  0  0  0  0  0  0
   36.6700   27.5640   32.7850 N   0  0  0  0  0  0  0  0  0  0  0  0
   36.7490   28.5550   31.8860 C   0  0  0  0  0  0  0  0  0  0  0  0
   36.1650   29.6450   32.3380 N   0  0  0  0  0  0  0  0  0  0  0  0
   35.6930   29.3690   33.5570 C   0  0  0  0  0  0  0  0  0  0  0  0
   36.0180   28.0790   33.8080 N   0  0  0  0  0  0  0  0  0  0  0  0
   39.4650   23.9290   34.5160 C   0  0  0  0  0  0  0  0  0  0  0  0
   40.7020   23.4380   34.1170 C   0  0  0  0  0  0  0  0  0  0  0  0
   41.5880   22.8210   34.9560 C   0  0  0  0  0  0  0  0  0  0  0  0
   41.2850   22.6510   36.2880 C   0  0  0  0  0  0  0  0  0  0  0  0
   40.0900   23.1130   36.7300 C   0  0  0  0  0  0  0  0  0  0  0  0
   39.7760   22.9480   38.0630 C   0  0  0  0  0  0  0  0  0  0  0  0
   38.5890   23.3820   38.6040 C   0  0  0  0  0  0  0  0  0  0  0  0
   37.7050   24.0050   37.7310 C   0  0  0  0  0  0  0  0  0  0  0  0
   38.0450   24.1540   36.4160 C   0  0  0  0  0  0  0  0  0  0  0  0
   39.2150   23.7300   35.8710 C   0  0  0  0  0  0  0  0  0  0  0  0
   34.9630   30.1260   34.5670 C   0  0  0  0  0  0  0  0  0  0  0  0
   33.7030   30.1010   35.0540 N   0  0  0  0  0  0  0  0  0  0  0  0
   33.5750   31.0130   35.9670 O   0  0  0  0  0  0  0  0  0  0  0  0
   34.7220   31.6440   36.0960 C   0  0  0  0  0  0  0  0  0  0  0  0
   35.6140   31.1160   35.2370 N   0  0  0  0  0  0  0  0  0  0  0  0
   34.9220   32.7320   37.0420 C   0  0  0  0  0  0  0  0  0  0  0  0
   33.9140   33.2230   37.6120 O   0  0  0  0  0  0  0  0  0  0  0  0
   37.2162   23.4854   30.7586 H   0  0  0  0  0  0  0  0  0  0  0  0
   36.1722   25.7907   30.7754 H   0  0  0  0  0  0  0  0  0  0  0  0
   37.2359   28.4692   30.9034 H   0  0  0  0  0  0  0  0  0  0  0  0
   40.9862   23.5528   33.0606 H   0  0  0  0  0  0  0  0  0  0  0  0
   42.5495   22.4580   34.5639 H   0  0  0  0  0  0  0  0  0  0  0  0
   41.9902   22.1560   36.9718 H   0  0  0  0  0  0  0  0  0  0  0  0
   40.5044   22.4493   38.7193 H   0  0  0  0  0  0  0  0  0  0  0  0
   38.3519   23.2438   39.6692 H   0  0  0  0  0  0  0  0  0  0  0  0
   36.7364   24.3763   38.0969 H   0  0  0  0  0  0  0  0  0  0  0  0
   37.3217   24.6514   35.7531 H   0  0  0  0  0  0  0  0  0  0  0  0
   35.9310   33.1158   37.2534 H   0  0  0  0  0  0  0  0  0  0  0  0
  1  6  2  0
  2  1  1  0
  2  3  2  0
  3  7  1  0
  3  4  1  0
  4  5  2  0
  5 12  1  0
  6  5  1  0
  7 11  1  0
  8  9  2  0
  8  7  1  0
  9 10  1  0
 10 11  2  0
 10 22  1  0
 12 21  1  0
 13 12  2  0
 13 14  1  0
 14 15  2  0
 15 16  1  0
 16 17  2  0
 17 18  1  0
 19 18  2  0
 20 19  1  0
 21 20  2  0
 21 16  1  0
 22 23  2  0
 22 26  1  0
 23 24  1  0
 24 25  1  0
 25 27  1  0
 26 25  2  0
 27 28  2  0
  1 29  1  0
  2 30  1  0
  8 31  1  0
 13 32  1  0
 14 33  1  0
 15 34  1  0
 17 35  1  0
 18 36  1  0
 19 37  1  0
 20 38  1  0
 27 39  1  0
M  ISO  8  29  14  30  14  31  14  32  14  33  14  34  14  35  14  36  14
M  ISO  3  37  14  38  14  39   6
M  END
>  <minimizedAffinity>  (1) 
-6.51219273

>  <minimizedRMSD>  (1) 
0.766979754

$$$$
