
     RDKit          3D

 24 26  0  0  0  0  0  0  0  0999 V2000
   41.5750   23.4740   35.9620 N   0  0  0  0  0  0  0  0  0  0  0  0
   42.6280   22.7630   36.4270 C   0  0  0  0  0  0  0  0  0  0  0  0
   43.7570   23.4280   36.0650 N   0  0  0  0  0  0  0  0  0  0  0  0
   43.3920   24.5220   35.3920 C   0  0  0  0  0  0  0  0  0  0  0  0
   44.0430   25.5730   34.7820 C   0  0  0  0  0  0  0  0  0  0  0  0
   43.3880   26.5880   34.1470 N   0  0  0  0  0  0  0  0  0  0  0  0
   42.0280   26.5800   34.1030 C   0  0  0  0  0  0  0  0  0  0  0  0
   41.3370   25.5670   34.6900 N   0  0  0  0  0  0  0  0  0  0  0  0
   42.0190   24.5850   35.3070 C   0  0  0  0  0  0  0  0  0  0  0  0
   40.2030   23.1390   36.1160 C   0  0  0  0  0  0  0  0  0  0  0  0
   39.4970   23.4370   37.3060 C   0  0  0  0  0  0  0  0  0  0  0  0
   38.1450   23.0640   37.3550 C   0  0  0  0  0  0  0  0  0  0  0  0
   37.5930   22.4510   36.2880 N   0  0  0  0  0  0  0  0  0  0  0  0
   38.2900   22.1760   35.1600 C   0  0  0  0  0  0  0  0  0  0  0  0
   39.5870   22.5320   35.1060 N   0  0  0  0  0  0  0  0  0  0  0  0
   37.4140   23.3420   38.5150 O   0  0  0  0  0  0  0  0  0  0  0  0
   45.4720   25.6180   34.8050 N   0  0  0  0  0  0  0  0  0  0  0  0
   42.5795   21.8212   36.9932 H   0  0  0  0  0  0  0  0  0  0  0  0
   41.4886   27.3919   33.5933 H   0  0  0  0  0  0  0  0  0  0  0  0
   39.9860   23.9384   38.1542 H   0  0  0  0  0  0  0  0  0  0  0  0
   37.8079   21.6738   34.3083 H   0  0  0  0  0  0  0  0  0  0  0  0
   36.4589   23.0876   38.5711 H   0  0  0  0  0  0  0  0  0  0  0  0
   45.9700   26.3980   34.3528 H   0  0  0  0  0  0  0  0  0  0  0  0
   46.0033   24.8704   35.2738 H   0  0  0  0  0  0  0  0  0  0  0  0
  1 10  1  0
  1  2  1  0
  3  2  2  0
  4  3  1  0
  5 17  1  0
  5  4  2  0
  6  5  1  0
  7  6  2  0
  7  8  1  0
  8  9  2  0
  9  4  1  0
  9  1  1  0
 10 11  2  0
 11 12  1  0
 12 16  1  0
 13 12  2  0
 14 13  1  0
 15 14  2  0
 15 10  1  0
  2 18  1  0
  7 19  1  0
 11 20  1  0
 14 21  1  0
 16 22  1  0
 17 23  1  0
 17 24  1  0
M  ISO  5  18  14  19  14  20  14  21  14  22   3
M  END
>  <minimizedAffinity>  (1) 
-3.74996662

>  <minimizedRMSD>  (1) 
0.669813633

$$$$
