
     RDKit          3D

 38 42  0  0  0  0  0  0  0  0999 V2000
   41.1740   22.8420   36.2640 C   0  0  0  0  0  0  0  0  0  0  0  0
   40.5890   22.6060   37.5190 C   0  0  0  0  0  0  0  0  0  0  0  0
   39.2530   23.0270   37.6950 C   0  0  0  0  0  0  0  0  0  0  0  0
   38.6330   23.6210   36.6640 N   0  0  0  0  0  0  0  0  0  0  0  0
   39.2140   23.8380   35.4680 C   0  0  0  0  0  0  0  0  0  0  0  0
   40.4950   23.4460   35.2660 N   0  0  0  0  0  0  0  0  0  0  0  0
   38.6190   22.8100   38.9450 N   0  0  0  0  0  0  0  0  0  0  0  0
   38.5620   24.4680   34.3700 N   0  0  0  0  0  0  0  0  0  0  0  0
   38.6460   25.7670   34.0740 C   0  0  0  0  0  0  0  0  0  0  0  0
   37.8940   25.9680   32.9730 N   0  0  0  0  0  0  0  0  0  0  0  0
   37.3700   24.8010   32.6190 C   0  0  0  0  0  0  0  0  0  0  0  0
   36.5310   24.4230   31.5840 C   0  0  0  0  0  0  0  0  0  0  0  0
   36.1430   23.1270   31.4590 N   0  0  0  0  0  0  0  0  0  0  0  0
   36.5470   22.1680   32.3200 C   0  0  0  0  0  0  0  0  0  0  0  0
   37.3610   22.5290   33.3290 N   0  0  0  0  0  0  0  0  0  0  0  0
   37.7710   23.7920   33.4940 C   0  0  0  0  0  0  0  0  0  0  0  0
   42.5190   22.4560   35.9810 N   0  0  0  0  0  0  0  0  0  0  0  0
   42.9090   21.3310   35.3430 C   0  0  0  0  0  0  0  0  0  0  0  0
   44.2650   21.3640   35.2890 N   0  0  0  0  0  0  0  0  0  0  0  0
   44.6830   22.4670   35.8720 C   0  0  0  0  0  0  0  0  0  0  0  0
   45.9150   23.0460   36.1240 C   0  0  0  0  0  0  0  0  0  0  0  0
   46.0440   24.2440   36.7750 N   0  0  0  0  0  0  0  0  0  0  0  0
   44.9350   24.8990   37.1950 C   0  0  0  0  0  0  0  0  0  0  0  0
   43.7110   24.3900   36.9790 N   0  0  0  0  0  0  0  0  0  0  0  0
   43.6040   23.2020   36.3330 C   0  0  0  0  0  0  0  0  0  0  0  0
   47.1030   22.3950   35.7030 N   0  0  0  0  0  0  0  0  0  0  0  0
   36.0650   25.3770   30.6380 N   0  0  0  0  0  0  0  0  0  0  0  0
   41.1475   22.1146   38.3293 H   0  0  0  0  0  0  0  0  0  0  0  0
   37.6446   23.1120   39.0876 H   0  0  0  0  0  0  0  0  0  0  0  0
   39.1329   22.3504   39.7102 H   0  0  0  0  0  0  0  0  0  0  0  0
   39.2193   26.5282   34.6235 H   0  0  0  0  0  0  0  0  0  0  0  0
   36.2208   21.1243   32.2002 H   0  0  0  0  0  0  0  0  0  0  0  0
   42.2548   20.5415   34.9446 H   0  0  0  0  0  0  0  0  0  0  0  0
   45.0383   25.8602   37.7198 H   0  0  0  0  0  0  0  0  0  0  0  0
   48.0200   22.8251   35.8901 H   0  0  0  0  0  0  0  0  0  0  0  0
   47.0486   21.4922   35.2102 H   0  0  0  0  0  0  0  0  0  0  0  0
   35.4414   25.0817   29.8733 H   0  0  0  0  0  0  0  0  0  0  0  0
   36.3511   26.3633   30.7175 H   0  0  0  0  0  0  0  0  0  0  0  0
  1  2  2  0
  2  3  1  0
  3  7  1  0
  4  3  2  0
  5  4  1  0
  6  5  2  0
  6  1  1  0
  8  5  1  0
  9  8  1  0
 10  9  2  0
 11 10  1  0
 11 16  2  0
 12 11  1  0
 13 12  2  0
 13 14  1  0
 14 15  2  0
 15 16  1  0
 16  8  1  0
 17  1  1  0
 17 25  1  0
 18 17  1  0
 19 18  2  0
 19 20  1  0
 20 21  2  0
 20 25  1  0
 21 22  1  0
 22 23  2  0
 24 23  1  0
 25 24  2  0
 26 21  1  0
 27 12  1  0
  2 28  1  0
  7 29  1  0
  7 30  1  0
  9 31  1  0
 14 32  1  0
 18 33  1  0
 23 34  1  0
 26 35  1  0
 26 36  1  0
 27 37  1  0
 27 38  1  0
M  ISO  5  28  14  31  14  32  14  33  14  34  14
M  END
>  <minimizedAffinity>  (1) 
-6.68266296

>  <minimizedRMSD>  (1) 
3.34016109

$$$$
