
     RDKit          3D

 41 45  0  0  0  0  0  0  0  0999 V2000
   40.2880   23.3240   36.0680 C   0  0  0  0  0  0  0  0  0  0  0  0
   39.6740   23.1220   37.3020 C   0  0  0  0  0  0  0  0  0  0  0  0
   38.2840   22.9070   37.3000 C   0  0  0  0  0  0  0  0  0  0  0  0
   37.6400   22.9090   36.1300 N   0  0  0  0  0  0  0  0  0  0  0  0
   38.2240   23.1020   34.9450 C   0  0  0  0  0  0  0  0  0  0  0  0
   39.5640   23.3110   34.9290 N   0  0  0  0  0  0  0  0  0  0  0  0
   37.6110   22.6980   38.5410 N   0  0  0  0  0  0  0  0  0  0  0  0
   41.6960   23.5530   35.9430 N   0  0  0  0  0  0  0  0  0  0  0  0
   42.6740   22.7740   36.4110 C   0  0  0  0  0  0  0  0  0  0  0  0
   43.8510   23.3550   36.0790 N   0  0  0  0  0  0  0  0  0  0  0  0
   43.5830   24.4800   35.4110 C   0  0  0  0  0  0  0  0  0  0  0  0
   44.3400   25.4690   34.8340 C   0  0  0  0  0  0  0  0  0  0  0  0
   43.7760   26.5360   34.1990 N   0  0  0  0  0  0  0  0  0  0  0  0
   42.4140   26.6390   34.1250 C   0  0  0  0  0  0  0  0  0  0  0  0
   41.6390   25.6850   34.6820 N   0  0  0  0  0  0  0  0  0  0  0  0
   42.2210   24.6420   35.3030 C   0  0  0  0  0  0  0  0  0  0  0  0
   45.7430   25.4290   34.8690 N   0  0  0  0  0  0  0  0  0  0  0  0
   37.6300   23.1220   33.6170 C   0  0  0  0  0  0  0  0  0  0  0  0
   37.9150   24.1520   32.7460 C   0  0  0  0  0  0  0  0  0  0  0  0
   37.3930   24.2420   31.4730 C   0  0  0  0  0  0  0  0  0  0  0  0
   36.5340   23.2770   30.9960 C   0  0  0  0  0  0  0  0  0  0  0  0
   36.2180   22.2250   31.8300 C   0  0  0  0  0  0  0  0  0  0  0  0
   35.3590   21.2440   31.3790 C   0  0  0  0  0  0  0  0  0  0  0  0
   35.0040   20.1700   32.1670 C   0  0  0  0  0  0  0  0  0  0  0  0
   35.5650   20.1330   33.4480 C   0  0  0  0  0  0  0  0  0  0  0  0
   36.4170   21.1360   33.8510 C   0  0  0  0  0  0  0  0  0  0  0  0
   36.7730   22.1950   33.0870 C   0  0  0  0  0  0  0  0  0  0  0  0
   40.2516   23.1303   38.2381 H   0  0  0  0  0  0  0  0  0  0  0  0
   36.5934   22.5393   38.5547 H   0  0  0  0  0  0  0  0  0  0  0  0
   38.1429   22.7058   39.4230 H   0  0  0  0  0  0  0  0  0  0  0  0
   42.5468   21.8323   36.9651 H   0  0  0  0  0  0  0  0  0  0  0  0
   41.9522   27.4963   33.6134 H   0  0  0  0  0  0  0  0  0  0  0  0
   46.2908   26.1823   34.4293 H   0  0  0  0  0  0  0  0  0  0  0  0
   46.2244   24.6464   35.3344 H   0  0  0  0  0  0  0  0  0  0  0  0
   38.5965   24.9459   33.0854 H   0  0  0  0  0  0  0  0  0  0  0  0
   37.6655   25.0933   30.8318 H   0  0  0  0  0  0  0  0  0  0  0  0
   36.1132   23.3432   29.9818 H   0  0  0  0  0  0  0  0  0  0  0  0
   34.9459   21.3210   30.3624 H   0  0  0  0  0  0  0  0  0  0  0  0
   34.3191   19.3872   31.8091 H   0  0  0  0  0  0  0  0  0  0  0  0
   35.3259   19.3047   34.1312 H   0  0  0  0  0  0  0  0  0  0  0  0
   36.8382   21.0725   34.8652 H   0  0  0  0  0  0  0  0  0  0  0  0
  1  2  2  0
  3  2  1  0
  3  7  1  0
  4  3  2  0
  5  4  1  0
  6  5  2  0
  6  1  1  0
  8  1  1  0
  8  9  1  0
 10  9  2  0
 11 10  1  0
 12 17  1  0
 12 11  2  0
 13 12  1  0
 14 13  2  0
 14 15  1  0
 15 16  2  0
 16 11  1  0
 16  8  1  0
 18  5  1  0
 19 18  2  0
 20 19  1  0
 21 20  2  0
 21 22  1  0
 22 27  2  0
 23 22  1  0
 23 24  2  0
 24 25  1  0
 25 26  2  0
 27 18  1  0
 27 26  1  0
  2 28  1  0
  7 29  1  0
  7 30  1  0
  9 31  1  0
 14 32  1  0
 17 33  1  0
 17 34  1  0
 19 35  1  0
 20 36  1  0
 21 37  1  0
 23 38  1  0
 24 39  1  0
 25 40  1  0
 26 41  1  0
M  ISO  8  28  14  31  14  32  14  35  14  36  14  37  14  38  14  39  14
M  ISO  2  40  14  41  14
M  END
>  <minimizedAffinity>  (1) 
-6.57000875

>  <minimizedRMSD>  (1) 
1.07371998

$$$$
