
     RDKit          3D

 39 43  0  0  0  0  0  0  0  0999 V2000
   40.3090   23.5160   35.8230 C   0  0  0  0  0  0  0  0  0  0  0  0
   39.6830   23.3480   37.0620 C   0  0  0  0  0  0  0  0  0  0  0  0
   38.3210   23.0170   37.0730 C   0  0  0  0  0  0  0  0  0  0  0  0
   37.6970   22.8820   35.8940 N   0  0  0  0  0  0  0  0  0  0  0  0
   38.3060   23.0450   34.7110 C   0  0  0  0  0  0  0  0  0  0  0  0
   39.6230   23.3650   34.6800 N   0  0  0  0  0  0  0  0  0  0  0  0
   37.6430   22.8360   38.3240 N   0  0  0  0  0  0  0  0  0  0  0  0
   41.6940   23.8530   35.7290 N   0  0  0  0  0  0  0  0  0  0  0  0
   42.7260   23.1630   36.2170 C   0  0  0  0  0  0  0  0  0  0  0  0
   43.8560   23.8440   35.8990 N   0  0  0  0  0  0  0  0  0  0  0  0
   43.5050   24.9340   35.2260 C   0  0  0  0  0  0  0  0  0  0  0  0
   44.1860   25.9900   34.6510 C   0  0  0  0  0  0  0  0  0  0  0  0
   43.5420   27.0040   34.0000 N   0  0  0  0  0  0  0  0  0  0  0  0
   42.1890   26.9830   33.9100 C   0  0  0  0  0  0  0  0  0  0  0  0
   41.4840   25.9730   34.4550 N   0  0  0  0  0  0  0  0  0  0  0  0
   42.1440   24.9790   35.0950 C   0  0  0  0  0  0  0  0  0  0  0  0
   45.5920   26.0490   34.7230 N   0  0  0  0  0  0  0  0  0  0  0  0
   37.5890   22.8880   33.4500 C   0  0  0  0  0  0  0  0  0  0  0  0
   37.6720   23.7260   32.3720 C   0  0  0  0  0  0  0  0  0  0  0  0
   36.8640   23.2620   31.3750 N   0  0  0  0  0  0  0  0  0  0  0  0
   36.2990   22.1390   31.8780 C   0  0  0  0  0  0  0  0  0  0  0  0
   35.3900   21.2440   31.3180 C   0  0  0  0  0  0  0  0  0  0  0  0
   34.8990   20.1230   31.9700 C   0  0  0  0  0  0  0  0  0  0  0  0
   35.3390   19.8770   33.2550 C   0  0  0  0  0  0  0  0  0  0  0  0
   36.2380   20.7500   33.8240 C   0  0  0  0  0  0  0  0  0  0  0  0
   36.7100   21.8620   33.1510 C   0  0  0  0  0  0  0  0  0  0  0  0
   40.2430   23.4720   38.0006 H   0  0  0  0  0  0  0  0  0  0  0  0
   36.6422   22.5927   38.3369 H   0  0  0  0  0  0  0  0  0  0  0  0
   38.1569   22.9493   39.2094 H   0  0  0  0  0  0  0  0  0  0  0  0
   42.6712   22.2163   36.7745 H   0  0  0  0  0  0  0  0  0  0  0  0
   41.6637   27.7965   33.3883 H   0  0  0  0  0  0  0  0  0  0  0  0
   46.0970   26.8373   34.2935 H   0  0  0  0  0  0  0  0  0  0  0  0
   46.1147   25.3038   35.2051 H   0  0  0  0  0  0  0  0  0  0  0  0
   38.2930   24.6323   32.3173 H   0  0  0  0  0  0  0  0  0  0  0  0
   36.7162   23.6757   30.4434 H   0  0  0  0  0  0  0  0  0  0  0  0
   35.0396   21.4390   30.2937 H   0  0  0  0  0  0  0  0  0  0  0  0
   34.1808   19.4504   31.4782 H   0  0  0  0  0  0  0  0  0  0  0  0
   34.9782   19.0005   33.8132 H   0  0  0  0  0  0  0  0  0  0  0  0
   36.5926   20.5570   34.8472 H   0  0  0  0  0  0  0  0  0  0  0  0
  1  2  2  0
  2  3  1  0
  3  7  1  0
  4  3  2  0
  5  4  1  0
  6  5  2  0
  6  1  1  0
  8  1  1  0
  8  9  1  0
 10  9  2  0
 11 10  1  0
 12 17  1  0
 12 11  2  0
 13 12  1  0
 14 13  2  0
 14 15  1  0
 15 16  2  0
 16 11  1  0
 16  8  1  0
 18  5  1  0
 19 18  2  0
 20 21  1  0
 20 19  1  0
 21 26  2  0
 22 21  1  0
 22 23  2  0
 23 24  1  0
 24 25  2  0
 26 18  1  0
 26 25  1  0
  2 27  1  0
  7 28  1  0
  7 29  1  0
  9 30  1  0
 14 31  1  0
 17 32  1  0
 17 33  1  0
 19 34  1  0
 20 35  1  0
 22 36  1  0
 23 37  1  0
 24 38  1  0
 25 39  1  0
M  ISO  8  27  14  30  14  31  14  34  14  35   9  36  14  37  14  38  14
M  ISO  1  39  14
M  END
>  <minimizedAffinity>  (1) 
-6.22957897

>  <minimizedRMSD>  (1) 
0.804071963

$$$$
