
     RDKit          3D

 38 41  0  0  0  0  0  0  0  0999 V2000
   39.8390   23.3860   35.7330 C   0  0  0  0  0  0  0  0  0  0  0  0
   39.3180   23.3550   37.0280 C   0  0  0  0  0  0  0  0  0  0  0  0
   38.0150   22.8330   37.1870 C   0  0  0  0  0  0  0  0  0  0  0  0
   37.3590   22.4010   36.0920 N   0  0  0  0  0  0  0  0  0  0  0  0
   37.8770   22.4400   34.8580 C   0  0  0  0  0  0  0  0  0  0  0  0
   39.1220   22.9330   34.6720 N   0  0  0  0  0  0  0  0  0  0  0  0
   37.4460   22.7840   38.4900 N   0  0  0  0  0  0  0  0  0  0  0  0
   37.1530   21.9770   33.7490 N   0  0  0  0  0  0  0  0  0  0  0  0
   37.3350   22.5350   32.4220 C   0  0  0  0  0  0  0  0  0  0  0  0
   35.9190   22.6890   31.8720 C   0  0  0  0  0  0  0  0  0  0  0  0
   35.3790   21.4530   31.6330 O   0  0  0  0  0  0  0  0  0  0  0  0
   35.7160   20.4540   32.5030 C   0  0  0  0  0  0  0  0  0  0  0  0
   36.1770   20.9120   33.8650 C   0  0  0  0  0  0  0  0  0  0  0  0
   41.1400   23.8880   35.4560 N   0  0  0  0  0  0  0  0  0  0  0  0
   42.3110   23.2750   35.7360 C   0  0  0  0  0  0  0  0  0  0  0  0
   43.3090   24.0840   35.3110 N   0  0  0  0  0  0  0  0  0  0  0  0
   42.7660   25.1650   34.7830 C   0  0  0  0  0  0  0  0  0  0  0  0
   43.2260   26.3250   34.1930 C   0  0  0  0  0  0  0  0  0  0  0  0
   42.3990   27.3030   33.7220 N   0  0  0  0  0  0  0  0  0  0  0  0
   41.0480   27.1440   33.8300 C   0  0  0  0  0  0  0  0  0  0  0  0
   40.5330   26.0310   34.3990 N   0  0  0  0  0  0  0  0  0  0  0  0
   41.3840   25.0800   34.8560 C   0  0  0  0  0  0  0  0  0  0  0  0
   44.6060   26.5400   34.0450 N   0  0  0  0  0  0  0  0  0  0  0  0
   39.8976   23.7215   37.8880 H   0  0  0  0  0  0  0  0  0  0  0  0
   36.4971   22.4064   38.6237 H   0  0  0  0  0  0  0  0  0  0  0  0
   37.9830   23.1261   39.2997 H   0  0  0  0  0  0  0  0  0  0  0  0
   37.8387   23.5114   32.4769 H   0  0  0  0  0  0  0  0  0  0  0  0
   37.9636   21.8969   31.7835 H   0  0  0  0  0  0  0  0  0  0  0  0
   35.2979   23.2236   32.6059 H   0  0  0  0  0  0  0  0  0  0  0  0
   35.9536   23.2591   30.9319 H   0  0  0  0  0  0  0  0  0  0  0  0
   34.8336   19.8120   32.6412 H   0  0  0  0  0  0  0  0  0  0  0  0
   36.5735   19.9340   32.0510 H   0  0  0  0  0  0  0  0  0  0  0  0
   36.6319   20.0627   34.3957 H   0  0  0  0  0  0  0  0  0  0  0  0
   35.3072   21.2912   34.4215 H   0  0  0  0  0  0  0  0  0  0  0  0
   42.4314   22.2954   36.2217 H   0  0  0  0  0  0  0  0  0  0  0  0
   40.3737   27.9264   33.4517 H   0  0  0  0  0  0  0  0  0  0  0  0
   44.9480   27.4060   33.6046 H   0  0  0  0  0  0  0  0  0  0  0  0
   45.2761   25.8317   34.3769 H   0  0  0  0  0  0  0  0  0  0  0  0
  1  2  2  0
  2  3  1  0
  3  7  1  0
  4  3  2  0
  5  4  1  0
  6  5  2  0
  6  1  1  0
  8 13  1  0
  8  5  1  0
  9  8  1  0
 10  9  1  0
 11 10  1  0
 11 12  1  0
 12 13  1  0
 14  1  1  0
 14 15  1  0
 16 15  2  0
 17 22  2  0
 17 16  1  0
 18 17  1  0
 19 20  1  0
 19 18  2  0
 20 21  2  0
 21 22  1  0
 22 14  1  0
 23 18  1  0
  2 24  1  0
  7 25  1  0
  7 26  1  0
  9 27  1  0
  9 28  1  0
 10 29  1  0
 10 30  1  0
 12 31  1  0
 12 32  1  0
 13 33  1  0
 13 34  1  0
 15 35  1  0
 20 36  1  0
 23 37  1  0
 23 38  1  0
M  ISO  8  24  14  27  13  28  13  29  13  30  13  31  13  32  13  33  13
M  ISO  3  34  13  35  14  36  14
M  END
>  <minimizedAffinity>  (1) 
-5.39054108

>  <minimizedRMSD>  (1) 
1.02806211

$$$$
