
     RDKit          3D

 32 35  0  0  0  0  0  0  0  0999 V2000
   39.5140   23.4980   35.7550 C   0  0  0  0  0  0  0  0  0  0  0  0
   39.0270   23.4750   37.0620 C   0  0  0  0  0  0  0  0  0  0  0  0
   37.8450   22.7710   37.3270 C   0  0  0  0  0  0  0  0  0  0  0  0
   37.2380   22.1490   36.2890 N   0  0  0  0  0  0  0  0  0  0  0  0
   37.7200   22.1780   35.0210 C   0  0  0  0  0  0  0  0  0  0  0  0
   38.8590   22.8590   34.7760 N   0  0  0  0  0  0  0  0  0  0  0  0
   37.3250   22.7280   38.6430 N   0  0  0  0  0  0  0  0  0  0  0  0
   37.0260   21.4990   33.9690 N   0  0  0  0  0  0  0  0  0  0  0  0
   37.5880   21.4560   32.7520 N   0  0  0  0  0  0  0  0  0  0  0  0
   36.8010   20.7810   31.8970 C   0  0  0  0  0  0  0  0  0  0  0  0
   35.6710   20.3680   32.6090 C   0  0  0  0  0  0  0  0  0  0  0  0
   35.8570   20.8420   33.9050 C   0  0  0  0  0  0  0  0  0  0  0  0
   40.7070   24.1900   35.4040 N   0  0  0  0  0  0  0  0  0  0  0  0
   41.9630   23.8270   35.7090 C   0  0  0  0  0  0  0  0  0  0  0  0
   42.7990   24.7610   35.1850 N   0  0  0  0  0  0  0  0  0  0  0  0
   42.0570   25.6790   34.5690 C   0  0  0  0  0  0  0  0  0  0  0  0
   42.3020   26.8390   33.8670 C   0  0  0  0  0  0  0  0  0  0  0  0
   41.3100   27.5970   33.3340 N   0  0  0  0  0  0  0  0  0  0  0  0
   40.0060   27.2170   33.4840 C   0  0  0  0  0  0  0  0  0  0  0  0
   39.7120   26.0900   34.1630 N   0  0  0  0  0  0  0  0  0  0  0  0
   40.7220   25.3450   34.6900 C   0  0  0  0  0  0  0  0  0  0  0  0
   43.6360   27.2790   33.6810 N   0  0  0  0  0  0  0  0  0  0  0  0
   39.5604   23.9992   37.8686 H   0  0  0  0  0  0  0  0  0  0  0  0
   36.4560   22.2102   38.8367 H   0  0  0  0  0  0  0  0  0  0  0  0
   37.8157   23.2146   39.4068 H   0  0  0  0  0  0  0  0  0  0  0  0
   37.0077   20.5890   30.8338 H   0  0  0  0  0  0  0  0  0  0  0  0
   34.8162   19.7909   32.2265 H   0  0  0  0  0  0  0  0  0  0  0  0
   35.1579   20.7007   34.7424 H   0  0  0  0  0  0  0  0  0  0  0  0
   42.2612   22.9351   36.2797 H   0  0  0  0  0  0  0  0  0  0  0  0
   39.1995   27.8281   33.0525 H   0  0  0  0  0  0  0  0  0  0  0  0
   43.8241   28.1455   33.1569 H   0  0  0  0  0  0  0  0  0  0  0  0
   44.4176   26.7323   34.0699 H   0  0  0  0  0  0  0  0  0  0  0  0
  1  2  2  0
  2  3  1  0
  3  7  1  0
  4  3  2  0
  5  4  1  0
  6  5  2  0
  6  1  1  0
  8  5  1  0
  9  8  1  0
 10 11  1  0
 10  9  2  0
 11 12  2  0
 12  8  1  0
 13 14  1  0
 13  1  1  0
 15 14  2  0
 16 21  2  0
 16 15  1  0
 17 16  1  0
 18 19  1  0
 18 17  2  0
 19 20  2  0
 20 21  1  0
 21 13  1  0
 22 17  1  0
  2 23  1  0
  7 24  1  0
  7 25  1  0
 10 26  1  0
 11 27  1  0
 12 28  1  0
 14 29  1  0
 19 30  1  0
 22 31  1  0
 22 32  1  0
M  ISO  6  23  14  26  14  27  14  28  14  29  14  30  14
M  END
>  <minimizedAffinity>  (1) 
-5.36226177

>  <minimizedRMSD>  (1) 
1.61910725

$$$$
