
     RDKit          3D

 32 35  0  0  0  0  0  0  0  0999 V2000
   39.6010   23.5320   35.7200 C   0  0  0  0  0  0  0  0  0  0  0  0
   39.1270   23.4630   37.0310 C   0  0  0  0  0  0  0  0  0  0  0  0
   37.9280   22.7440   37.2340 C   0  0  0  0  0  0  0  0  0  0  0  0
   37.3160   22.1750   36.1880 N   0  0  0  0  0  0  0  0  0  0  0  0
   37.7880   22.2510   34.9270 C   0  0  0  0  0  0  0  0  0  0  0  0
   38.9360   22.9350   34.7040 N   0  0  0  0  0  0  0  0  0  0  0  0
   37.4100   22.6520   38.5680 N   0  0  0  0  0  0  0  0  0  0  0  0
   40.8010   24.2280   35.3790 N   0  0  0  0  0  0  0  0  0  0  0  0
   42.0530   23.8470   35.7130 C   0  0  0  0  0  0  0  0  0  0  0  0
   42.8930   24.7800   35.1960 N   0  0  0  0  0  0  0  0  0  0  0  0
   42.1660   25.6910   34.5720 C   0  0  0  0  0  0  0  0  0  0  0  0
   42.4310   26.8540   33.8690 C   0  0  0  0  0  0  0  0  0  0  0  0
   41.4440   27.6220   33.3150 N   0  0  0  0  0  0  0  0  0  0  0  0
   40.1470   27.2440   33.4510 C   0  0  0  0  0  0  0  0  0  0  0  0
   39.8410   26.1150   34.1300 N   0  0  0  0  0  0  0  0  0  0  0  0
   40.8300   25.3760   34.6670 C   0  0  0  0  0  0  0  0  0  0  0  0
   43.7590   27.2980   33.6960 N   0  0  0  0  0  0  0  0  0  0  0  0
   37.1210   21.6300   33.7860 C   0  0  0  0  0  0  0  0  0  0  0  0
   35.9740   20.8560   33.6440 C   0  0  0  0  0  0  0  0  0  0  0  0
   35.8320   20.5480   32.3040 C   0  0  0  0  0  0  0  0  0  0  0  0
   36.8820   21.1340   31.6710 N   0  0  0  0  0  0  0  0  0  0  0  0
   37.6430   21.7720   32.5420 N   0  0  0  0  0  0  0  0  0  0  0  0
   39.6602   23.9442   37.8642 H   0  0  0  0  0  0  0  0  0  0  0  0
   36.5377   22.1344   38.7472 H   0  0  0  0  0  0  0  0  0  0  0  0
   37.9102   23.1035   39.3470 H   0  0  0  0  0  0  0  0  0  0  0  0
   42.3367   22.9551   36.2909 H   0  0  0  0  0  0  0  0  0  0  0  0
   39.3461   27.8552   33.0095 H   0  0  0  0  0  0  0  0  0  0  0  0
   43.9483   28.1642   33.1718 H   0  0  0  0  0  0  0  0  0  0  0  0
   44.5392   26.7559   34.0939 H   0  0  0  0  0  0  0  0  0  0  0  0
   35.2992   20.5441   34.4548 H   0  0  0  0  0  0  0  0  0  0  0  0
   35.0317   19.9501   31.8436 H   0  0  0  0  0  0  0  0  0  0  0  0
   37.0591   21.0874   30.6574 H   0  0  0  0  0  0  0  0  0  0  0  0
  1  2  2  0
  2  3  1  0
  3  7  1  0
  4  3  2  0
  5  4  1  0
  6  5  2  0
  6  1  1  0
  8  9  1  0
  8  1  1  0
 10  9  2  0
 11 16  2  0
 11 10  1  0
 12 11  1  0
 13 14  1  0
 13 12  2  0
 14 15  2  0
 15 16  1  0
 16  8  1  0
 17 12  1  0
 18  5  1  0
 19 18  1  0
 20 19  2  0
 21 20  1  0
 21 22  1  0
 22 18  2  0
  2 23  1  0
  7 24  1  0
  7 25  1  0
  9 26  1  0
 14 27  1  0
 17 28  1  0
 17 29  1  0
 19 30  1  0
 20 31  1  0
 21 32  1  0
M  ISO  6  23  14  26  14  27  14  30  14  31  14  32   9
M  END
>  <minimizedAffinity>  (1) 
-5.08191872

>  <minimizedRMSD>  (1) 
1.55783343

$$$$
