
     RDKit          3D

 30 33  0  0  0  0  0  0  0  0999 V2000
   39.6370   23.5430   35.7410 C   0  0  0  0  0  0  0  0  0  0  0  0
   39.1480   23.5120   37.0480 C   0  0  0  0  0  0  0  0  0  0  0  0
   37.9510   22.8090   37.2770 C   0  0  0  0  0  0  0  0  0  0  0  0
   37.3460   22.2100   36.2440 N   0  0  0  0  0  0  0  0  0  0  0  0
   37.8380   22.2500   34.9770 C   0  0  0  0  0  0  0  0  0  0  0  0
   38.9860   22.9200   34.7390 N   0  0  0  0  0  0  0  0  0  0  0  0
   37.4160   22.7520   38.5940 N   0  0  0  0  0  0  0  0  0  0  0  0
   40.8460   24.2310   35.4000 N   0  0  0  0  0  0  0  0  0  0  0  0
   42.0890   23.8590   35.7270 C   0  0  0  0  0  0  0  0  0  0  0  0
   42.9260   24.7900   35.2050 N   0  0  0  0  0  0  0  0  0  0  0  0
   42.1950   25.7060   34.5730 C   0  0  0  0  0  0  0  0  0  0  0  0
   42.4760   26.8610   33.8660 C   0  0  0  0  0  0  0  0  0  0  0  0
   41.4850   27.6230   33.3110 N   0  0  0  0  0  0  0  0  0  0  0  0
   40.1860   27.2440   33.4520 C   0  0  0  0  0  0  0  0  0  0  0  0
   39.8640   26.1290   34.1300 N   0  0  0  0  0  0  0  0  0  0  0  0
   40.8660   25.3820   34.6770 C   0  0  0  0  0  0  0  0  0  0  0  0
   43.7990   27.2960   33.6920 N   0  0  0  0  0  0  0  0  0  0  0  0
   37.1630   21.5890   33.8630 C   0  0  0  0  0  0  0  0  0  0  0  0
   37.4230   21.4640   32.5490 N   0  0  0  0  0  0  0  0  0  0  0  0
   36.4910   20.7620   31.9750 O   0  0  0  0  0  0  0  0  0  0  0  0
   35.5960   20.3990   32.8660 C   0  0  0  0  0  0  0  0  0  0  0  0
   35.9960   20.9100   34.0680 N   0  0  0  0  0  0  0  0  0  0  0  0
   39.6785   24.0181   37.8680 H   0  0  0  0  0  0  0  0  0  0  0  0
   36.5403   22.2400   38.7724 H   0  0  0  0  0  0  0  0  0  0  0  0
   37.9044   23.2227   39.3691 H   0  0  0  0  0  0  0  0  0  0  0  0
   42.3766   22.9698   36.3072 H   0  0  0  0  0  0  0  0  0  0  0  0
   39.3895   27.8576   33.0057 H   0  0  0  0  0  0  0  0  0  0  0  0
   43.9922   28.1583   33.1629 H   0  0  0  0  0  0  0  0  0  0  0  0
   44.5767   26.7529   34.0934 H   0  0  0  0  0  0  0  0  0  0  0  0
   34.6945   19.7970   32.6791 H   0  0  0  0  0  0  0  0  0  0  0  0
  1  2  2  0
  2  3  1  0
  3  7  1  0
  4  3  2  0
  5  4  1  0
  6  5  2  0
  6  1  1  0
  8  9  1  0
  8  1  1  0
 10  9  2  0
 11 16  2  0
 11 10  1  0
 12 11  1  0
 13 14  1  0
 13 12  2  0
 14 15  2  0
 15 16  1  0
 16  8  1  0
 17 12  1  0
 18 22  1  0
 18  5  1  0
 19 18  2  0
 20 19  1  0
 20 21  1  0
 21 22  2  0
  2 23  1  0
  7 24  1  0
  7 25  1  0
  9 26  1  0
 14 27  1  0
 17 28  1  0
 17 29  1  0
 21 30  1  0
M  ISO  4  23  14  26  14  27  14  30  14
M  END
>  <minimizedAffinity>  (1) 
-5.04153442

>  <minimizedRMSD>  (1) 
1.51577437

$$$$
