
     RDKit          3D

 28 30  0  0  0  0  0  0  0  0999 V2000
   40.7830   24.1980   35.4560 N   0  0  0  0  0  0  0  0  0  0  0  0
   42.0120   23.8510   35.8420 C   0  0  0  0  0  0  0  0  0  0  0  0
   42.8650   24.8070   35.3770 N   0  0  0  0  0  0  0  0  0  0  0  0
   42.1550   25.7100   34.7240 C   0  0  0  0  0  0  0  0  0  0  0  0
   42.4320   26.8760   34.0510 C   0  0  0  0  0  0  0  0  0  0  0  0
   41.4640   27.6300   33.4550 N   0  0  0  0  0  0  0  0  0  0  0  0
   40.1590   27.2330   33.5130 C   0  0  0  0  0  0  0  0  0  0  0  0
   39.8290   26.0960   34.1610 N   0  0  0  0  0  0  0  0  0  0  0  0
   40.8160   25.3660   34.7460 C   0  0  0  0  0  0  0  0  0  0  0  0
   39.5680   23.4880   35.7190 C   0  0  0  0  0  0  0  0  0  0  0  0
   39.0320   23.4150   37.0270 C   0  0  0  0  0  0  0  0  0  0  0  0
   37.8400   22.7000   37.1880 C   0  0  0  0  0  0  0  0  0  0  0  0
   37.2740   22.1270   36.1030 N   0  0  0  0  0  0  0  0  0  0  0  0
   37.8030   22.2130   34.8760 C   0  0  0  0  0  0  0  0  0  0  0  0
   38.9560   22.8980   34.6880 N   0  0  0  0  0  0  0  0  0  0  0  0
   37.2590   22.5980   38.4970 N   0  0  0  0  0  0  0  0  0  0  0  0
   37.1480   21.5650   33.6930 C   0  0  0  0  0  0  0  0  0  0  0  0
   36.1360   20.6980   34.1060 F   0  0  0  0  0  0  0  0  0  0  0  0
   38.0570   20.7490   33.0250 F   0  0  0  0  0  0  0  0  0  0  0  0
   36.5970   22.5010   32.8370 F   0  0  0  0  0  0  0  0  0  0  0  0
   43.7490   27.3560   33.9410 N   0  0  0  0  0  0  0  0  0  0  0  0
   42.2857   22.9601   36.4262 H   0  0  0  0  0  0  0  0  0  0  0  0
   39.3773   27.8393   33.0320 H   0  0  0  0  0  0  0  0  0  0  0  0
   39.5307   23.8991   37.8796 H   0  0  0  0  0  0  0  0  0  0  0  0
   36.3819   22.0751   38.6318 H   0  0  0  0  0  0  0  0  0  0  0  0
   37.7193   23.0477   39.3012 H   0  0  0  0  0  0  0  0  0  0  0  0
   43.9371   28.2319   33.4327 H   0  0  0  0  0  0  0  0  0  0  0  0
   44.5256   26.8318   34.3687 H   0  0  0  0  0  0  0  0  0  0  0  0
  1 10  1  0
  1  2  1  0
  3  2  2  0
  4  9  2  0
  4  3  1  0
  5  4  1  0
  6  7  1  0
  6  5  2  0
  7  8  2  0
  8  9  1  0
  9  1  1  0
 10 11  2  0
 11 12  1  0
 12 16  1  0
 13 12  2  0
 14 13  1  0
 15 14  2  0
 15 10  1  0
 17 18  1  0
 17 14  1  0
 19 17  1  0
 20 17  1  0
 21  5  1  0
  2 22  1  0
  7 23  1  0
 11 24  1  0
 16 25  1  0
 16 26  1  0
 21 27  1  0
 21 28  1  0
M  ISO  3  22  14  23  14  24  14
M  END
>  <minimizedAffinity>  (1) 
-4.95024681

>  <minimizedRMSD>  (1) 
1.57504416

$$$$
