
     RDKit          3D

 26 28  0  0  0  0  0  0  0  0999 V2000
   41.7800   23.5430   35.9620 N   0  0  0  0  0  0  0  0  0  0  0  0
   42.8260   22.8910   36.5160 C   0  0  0  0  0  0  0  0  0  0  0  0
   43.9400   23.6130   36.2080 N   0  0  0  0  0  0  0  0  0  0  0  0
   43.5730   24.6650   35.4910 C   0  0  0  0  0  0  0  0  0  0  0  0
   44.2360   25.7250   34.9070 C   0  0  0  0  0  0  0  0  0  0  0  0
   43.5820   26.6960   34.2030 N   0  0  0  0  0  0  0  0  0  0  0  0
   42.2300   26.6240   34.0650 C   0  0  0  0  0  0  0  0  0  0  0  0
   41.5440   25.6050   34.6200 N   0  0  0  0  0  0  0  0  0  0  0  0
   42.2120   24.6560   35.3130 C   0  0  0  0  0  0  0  0  0  0  0  0
   40.4090   23.1500   36.0260 C   0  0  0  0  0  0  0  0  0  0  0  0
   39.6750   23.2300   37.2210 C   0  0  0  0  0  0  0  0  0  0  0  0
   38.3330   22.8140   37.1620 C   0  0  0  0  0  0  0  0  0  0  0  0
   37.8290   22.3730   35.9930 N   0  0  0  0  0  0  0  0  0  0  0  0
   38.5580   22.3080   34.8620 C   0  0  0  0  0  0  0  0  0  0  0  0
   39.8430   22.6970   34.8850 N   0  0  0  0  0  0  0  0  0  0  0  0
   37.5420   22.8760   38.3580 N   0  0  0  0  0  0  0  0  0  0  0  0
   37.8130   21.7110   33.3620 S   0  0  0  0  0  0  0  0  0  0  0  0
   45.6430   25.8320   35.0290 N   0  0  0  0  0  0  0  0  0  0  0  0
   42.7861   21.9602   37.1008 H   0  0  0  0  0  0  0  0  0  0  0  0
   41.6950   27.4003   33.4984 H   0  0  0  0  0  0  0  0  0  0  0  0
   40.1263   23.5987   38.1540 H   0  0  0  0  0  0  0  0  0  0  0  0
   36.5566   22.5768   38.3398 H   0  0  0  0  0  0  0  0  0  0  0  0
   37.9598   23.2197   39.2345 H   0  0  0  0  0  0  0  0  0  0  0  0
   36.7713   20.8763   33.6703 H   0  0  0  0  0  0  0  0  0  0  0  0
   46.1390   26.6227   34.5936 H   0  0  0  0  0  0  0  0  0  0  0  0
   46.1702   25.1191   35.5532 H   0  0  0  0  0  0  0  0  0  0  0  0
  1 10  1  0
  1  2  1  0
  3  2  2  0
  4  3  1  0
  5 18  1  0
  5  4  2  0
  6  5  1  0
  7  6  2  0
  7  8  1  0
  8  9  2  0
  9  4  1  0
  9  1  1  0
 10 11  2  0
 12 11  1  0
 12 16  1  0
 13 12  2  0
 14 15  2  0
 14 13  1  0
 15 10  1  0
 17 14  1  0
  2 19  1  0
  7 20  1  0
 11 21  1  0
 16 22  1  0
 16 23  1  0
 17 24  1  0
 18 25  1  0
 18 26  1  0
M  ISO  4  19  14  20  14  21  14  24  11
M  END
>  <minimizedAffinity>  (1) 
-4.17307758

>  <minimizedRMSD>  (1) 
0.0193255246

$$$$
