
     RDKit          3D

 26 28  0  0  0  0  0  0  0  0999 V2000
   41.7500   23.4990   35.9600 N   0  0  0  0  0  0  0  0  0  0  0  0
   42.8040   22.8550   36.5010 C   0  0  0  0  0  0  0  0  0  0  0  0
   43.9080   23.5730   36.1860 N   0  0  0  0  0  0  0  0  0  0  0  0
   43.5350   24.6310   35.4710 C   0  0  0  0  0  0  0  0  0  0  0  0
   44.1790   25.7000   34.8780 C   0  0  0  0  0  0  0  0  0  0  0  0
   43.5100   26.6630   34.1850 N   0  0  0  0  0  0  0  0  0  0  0  0
   42.1600   26.5830   34.0650 C   0  0  0  0  0  0  0  0  0  0  0  0
   41.4810   25.5670   34.6200 N   0  0  0  0  0  0  0  0  0  0  0  0
   42.1650   24.6110   35.3100 C   0  0  0  0  0  0  0  0  0  0  0  0
   40.3780   23.1030   36.0370 C   0  0  0  0  0  0  0  0  0  0  0  0
   39.6530   23.2310   37.2440 C   0  0  0  0  0  0  0  0  0  0  0  0
   38.3040   22.8130   37.2240 C   0  0  0  0  0  0  0  0  0  0  0  0
   37.7990   22.3280   36.0790 N   0  0  0  0  0  0  0  0  0  0  0  0
   38.5180   22.2170   34.9390 C   0  0  0  0  0  0  0  0  0  0  0  0
   39.8150   22.6090   34.9260 N   0  0  0  0  0  0  0  0  0  0  0  0
   37.5330   22.9230   38.4140 N   0  0  0  0  0  0  0  0  0  0  0  0
   37.8640   21.7030   33.8520 O   0  0  0  0  0  0  0  0  0  0  0  0
   45.5900   25.8070   34.9920 N   0  0  0  0  0  0  0  0  0  0  0  0
   42.7729   21.9242   37.0864 H   0  0  0  0  0  0  0  0  0  0  0  0
   41.6167   27.3596   33.5067 H   0  0  0  0  0  0  0  0  0  0  0  0
   40.1173   23.6367   38.1550 H   0  0  0  0  0  0  0  0  0  0  0  0
   36.5476   22.6233   38.4187 H   0  0  0  0  0  0  0  0  0  0  0  0
   37.9600   23.3024   39.2711 H   0  0  0  0  0  0  0  0  0  0  0  0
   38.3411   21.5990   32.9908 H   0  0  0  0  0  0  0  0  0  0  0  0
   46.0834   26.5985   34.5551 H   0  0  0  0  0  0  0  0  0  0  0  0
   46.1203   25.0931   35.5117 H   0  0  0  0  0  0  0  0  0  0  0  0
  1 10  1  0
  1  2  1  0
  3  2  2  0
  4  3  1  0
  5 18  1  0
  5  4  2  0
  6  5  1  0
  7  6  2  0
  7  8  1  0
  8  9  2  0
  9  4  1  0
  9  1  1  0
 10 11  2  0
 12 11  1  0
 12 16  1  0
 13 12  2  0
 14 13  1  0
 15 14  2  0
 15 10  1  0
 17 14  1  0
  2 19  1  0
  7 20  1  0
 11 21  1  0
 16 22  1  0
 16 23  1  0
 17 24  1  0
 18 25  1  0
 18 26  1  0
M  ISO  4  19  14  20  14  21  14  24   3
M  END
>  <minimizedAffinity>  (1) 
-4.15628576

>  <minimizedRMSD>  (1) 
0.0980843306

$$$$
