
     RDKit          3D

 37 40  0  0  0  0  0  0  0  0999 V2000
   37.9480   24.9920   31.0020 C   0  0  0  0  0  0  0  0  0  0  0  0
   38.7610   23.9220   31.2650 C   0  0  0  0  0  0  0  0  0  0  0  0
   38.1850   22.6750   31.5040 C   0  0  0  0  0  0  0  0  0  0  0  0
   36.8200   22.4900   31.4830 C   0  0  0  0  0  0  0  0  0  0  0  0
   35.9620   23.5750   31.2140 C   0  0  0  0  0  0  0  0  0  0  0  0
   36.5770   24.7800   30.9860 C   0  0  0  0  0  0  0  0  0  0  0  0
   37.0980   19.9960   31.8560 C   0  0  0  0  0  0  0  0  0  0  0  0
   36.2910   21.1500   31.7420 C   0  0  0  0  0  0  0  0  0  0  0  0
   34.9080   21.0040   31.8850 C   0  0  0  0  0  0  0  0  0  0  0  0
   34.4140   19.7550   32.1250 N   0  0  0  0  0  0  0  0  0  0  0  0
   35.2090   18.6740   32.2280 C   0  0  0  0  0  0  0  0  0  0  0  0
   36.5540   18.7950   32.0920 N   0  0  0  0  0  0  0  0  0  0  0  0
   38.7030   26.5370   30.7150 S   0  0  0  0  0  0  0  0  0  0  0  0
   39.8230   26.7540   31.7030 O   0  0  0  0  0  0  0  0  0  0  0  0
   39.2060   26.5940   29.3130 O   0  0  0  0  0  0  0  0  0  0  0  0
   37.4710   27.7750   30.8930 C   0  0  0  0  0  0  0  0  0  0  0  0
   36.8930   28.5580   29.9010 C   0  0  0  0  0  0  0  0  0  0  0  0
   35.9880   29.4030   30.3790 N   0  0  0  0  0  0  0  0  0  0  0  0
   35.9480   29.1940   31.7140 C   0  0  0  0  0  0  0  0  0  0  0  0
   35.1930   29.7850   32.7240 C   0  0  0  0  0  0  0  0  0  0  0  0
   35.3530   29.3740   34.0340 C   0  0  0  0  0  0  0  0  0  0  0  0
   36.2570   28.3790   34.3570 C   0  0  0  0  0  0  0  0  0  0  0  0
   37.0250   27.7730   33.3610 C   0  0  0  0  0  0  0  0  0  0  0  0
   36.8450   28.2040   32.0590 C   0  0  0  0  0  0  0  0  0  0  0  0
   39.8539   24.0446   31.2874 H   0  0  0  0  0  0  0  0  0  0  0  0
   38.8382   21.8155   31.7151 H   0  0  0  0  0  0  0  0  0  0  0  0
   34.8680   23.4629   31.1884 H   0  0  0  0  0  0  0  0  0  0  0  0
   35.9326   25.6459   30.7739 H   0  0  0  0  0  0  0  0  0  0  0  0
   38.1892   20.0851   31.7494 H   0  0  0  0  0  0  0  0  0  0  0  0
   34.2368   21.8719   31.8062 H   0  0  0  0  0  0  0  0  0  0  0  0
   34.7660   17.6863   32.4236 H   0  0  0  0  0  0  0  0  0  0  0  0
   37.1568   28.4854   28.8356 H   0  0  0  0  0  0  0  0  0  0  0  0
   35.4291   30.0810   29.8415 H   0  0  0  0  0  0  0  0  0  0  0  0
   34.4705   30.5776   32.4797 H   0  0  0  0  0  0  0  0  0  0  0  0
   34.7544   29.8438   34.8284 H   0  0  0  0  0  0  0  0  0  0  0  0
   36.3717   28.0631   35.4044 H   0  0  0  0  0  0  0  0  0  0  0  0
   37.7482   26.9803   33.6032 H   0  0  0  0  0  0  0  0  0  0  0  0
  1  2  2  0
  2  3  1  0
  4  3  2  0
  4  8  1  0
  5  4  1  0
  6  1  1  0
  6  5  2  0
  7 12  2  0
  8  7  1  0
  8  9  2  0
  9 10  1  0
 10 11  2  0
 12 11  1  0
 13 16  1  0
 13  1  1  0
 13 14  2  0
 15 13  2  0
 16 24  1  0
 17 18  1  0
 17 16  2  0
 18 19  1  0
 19 24  2  0
 19 20  1  0
 20 21  2  0
 21 22  1  0
 23 22  2  0
 24 23  1  0
  2 25  1  0
  3 26  1  0
  5 27  1  0
  6 28  1  0
  7 29  1  0
  9 30  1  0
 11 31  1  0
 17 32  1  0
 18 33  1  0
 20 34  1  0
 21 35  1  0
 22 36  1  0
 23 37  1  0
M  ISO  8  25  14  26  14  27  14  28  14  29  14  30  14  31  14  32  14
M  ISO  5  33   9  34  14  35  14  36  14  37  14
M  END
>  <minimizedAffinity>  (1) 
-5.66692829

>  <minimizedRMSD>  (1) 
2.60903072

$$$$
