
     RDKit          3D

 36 38  0  0  0  0  0  0  0  0999 V2000
   36.6070   25.8120   31.5310 C   0  0  0  0  0  0  0  0  0  0  0  0
   37.5060   25.0240   32.2060 C   0  0  0  0  0  0  0  0  0  0  0  0
   37.2570   23.6640   32.3540 C   0  0  0  0  0  0  0  0  0  0  0  0
   36.1250   23.0750   31.8410 C   0  0  0  0  0  0  0  0  0  0  0  0
   35.1820   23.8570   31.1440 C   0  0  0  0  0  0  0  0  0  0  0  0
   35.4730   25.1920   31.0250 C   0  0  0  0  0  0  0  0  0  0  0  0
   35.9370   20.7080   30.9740 C   0  0  0  0  0  0  0  0  0  0  0  0
   35.9240   21.6490   32.0280 C   0  0  0  0  0  0  0  0  0  0  0  0
   35.7000   21.1550   33.3120 C   0  0  0  0  0  0  0  0  0  0  0  0
   35.5080   19.8270   33.4950 N   0  0  0  0  0  0  0  0  0  0  0  0
   35.5290   18.9530   32.4470 C   0  0  0  0  0  0  0  0  0  0  0  0
   35.7460   19.4040   31.1760 N   0  0  0  0  0  0  0  0  0  0  0  0
   36.9620   27.5040   31.3760 S   0  0  0  0  0  0  0  0  0  0  0  0
   38.3930   27.7730   31.7880 O   0  0  0  0  0  0  0  0  0  0  0  0
   36.7020   27.9340   29.9690 O   0  0  0  0  0  0  0  0  0  0  0  0
   35.9330   28.4420   32.4480 C   0  0  0  0  0  0  0  0  0  0  0  0
   36.0480   29.9310   32.2120 C   0  0  0  0  0  0  0  0  0  0  0  0
   35.4330   30.5080   33.4900 C   0  0  0  0  0  0  0  0  0  0  0  0
   35.3240   29.3570   34.4680 C   0  0  0  0  0  0  0  0  0  0  0  0
   36.3490   28.3680   33.8940 C   0  0  0  0  0  0  0  0  0  0  0  0
   38.4201   25.4669   32.6283 H   0  0  0  0  0  0  0  0  0  0  0  0
   37.9850   23.0425   32.8960 H   0  0  0  0  0  0  0  0  0  0  0  0
   34.2652   23.4216   30.7198 H   0  0  0  0  0  0  0  0  0  0  0  0
   34.7500   25.8215   30.4855 H   0  0  0  0  0  0  0  0  0  0  0  0
   36.1113   21.0647   29.9481 H   0  0  0  0  0  0  0  0  0  0  0  0
   35.6793   21.8403   34.1722 H   0  0  0  0  0  0  0  0  0  0  0  0
   35.3703   17.8795   32.6268 H   0  0  0  0  0  0  0  0  0  0  0  0
   34.9397   28.0163   32.2428 H   0  0  0  0  0  0  0  0  0  0  0  0
   37.0986   30.2375   32.1011 H   0  0  0  0  0  0  0  0  0  0  0  0
   35.5536   30.2721   31.2904 H   0  0  0  0  0  0  0  0  0  0  0  0
   36.0799   31.2969   33.9012 H   0  0  0  0  0  0  0  0  0  0  0  0
   34.4490   30.9580   33.2917 H   0  0  0  0  0  0  0  0  0  0  0  0
   35.5944   29.6692   35.4875 H   0  0  0  0  0  0  0  0  0  0  0  0
   34.3086   28.9449   34.5636 H   0  0  0  0  0  0  0  0  0  0  0  0
   36.2291   27.3567   34.3099 H   0  0  0  0  0  0  0  0  0  0  0  0
   37.4049   28.5949   34.1026 H   0  0  0  0  0  0  0  0  0  0  0  0
  1  2  2  0
  2  3  1  0
  4  8  1  0
  4  3  2  0
  5  4  1  0
  6  5  2  0
  6  1  1  0
  7 12  2  0
  7  8  1  0
  8  9  2  0
  9 10  1  0
 11 10  2  0
 12 11  1  0
 13  1  1  0
 13 14  2  0
 13 16  1  0
 15 13  2  0
 16 20  1  0
 17 16  1  0
 17 18  1  0
 18 19  1  0
 20 19  1  0
  2 21  1  0
  3 22  1  0
  5 23  1  0
  6 24  1  0
  7 25  1  0
  9 26  1  0
 11 27  1  0
 16 28  1  0
 17 29  1  0
 17 30  1  0
 18 31  1  0
 18 32  1  0
 19 33  1  0
 19 34  1  0
 20 35  1  0
 20 36  1  0
M  ISO  8  21  14  22  14  23  14  24  14  25  14  26  14  27  14  28  13
M  ISO  8  29  13  30  13  31  13  32  13  33  13  34  13  35  13  36  13
M  END
>  <minimizedAffinity>  (1) 
-5.13559437

>  <minimizedRMSD>  (1) 
1.28101373

$$$$
