
     RDKit          3D

 30 32  0  0  0  0  0  0  0  0999 V2000
   36.8670   25.9880   31.1510 C   0  0  0  0  0  0  0  0  0  0  0  0
   37.8740   25.0660   31.2150 C   0  0  0  0  0  0  0  0  0  0  0  0
   37.5590   23.7110   31.3250 C   0  0  0  0  0  0  0  0  0  0  0  0
   36.2520   23.2760   31.3690 C   0  0  0  0  0  0  0  0  0  0  0  0
   35.1920   24.2040   31.3050 C   0  0  0  0  0  0  0  0  0  0  0  0
   35.5610   25.5200   31.1980 C   0  0  0  0  0  0  0  0  0  0  0  0
   36.6320   20.8660   30.6920 C   0  0  0  0  0  0  0  0  0  0  0  0
   35.9920   21.8440   31.4830 C   0  0  0  0  0  0  0  0  0  0  0  0
   35.0580   21.4060   32.4220 C   0  0  0  0  0  0  0  0  0  0  0  0
   34.8140   20.0700   32.5270 N   0  0  0  0  0  0  0  0  0  0  0  0
   35.4430   19.1630   31.7560 C   0  0  0  0  0  0  0  0  0  0  0  0
   36.3640   19.5640   30.8270 N   0  0  0  0  0  0  0  0  0  0  0  0
   37.2860   27.6670   31.0220 S   0  0  0  0  0  0  0  0  0  0  0  0
   38.7860   27.8290   31.0810 O   0  0  0  0  0  0  0  0  0  0  0  0
   36.7400   28.2280   29.7520 O   0  0  0  0  0  0  0  0  0  0  0  0
   36.5380   28.4980   32.3720 C   0  0  0  0  0  0  0  0  0  0  0  0
   36.4930   28.1440   33.7050 C   0  0  0  0  0  0  0  0  0  0  0  0
   35.7890   29.1200   34.3820 C   0  0  0  0  0  0  0  0  0  0  0  0
   35.4440   30.0240   33.4010 C   0  0  0  0  0  0  0  0  0  0  0  0
   35.8960   29.6340   32.2380 O   0  0  0  0  0  0  0  0  0  0  0  0
   38.9247   25.3896   31.1801 H   0  0  0  0  0  0  0  0  0  0  0  0
   38.3729   22.9729   31.3778 H   0  0  0  0  0  0  0  0  0  0  0  0
   34.1377   23.8922   31.3387 H   0  0  0  0  0  0  0  0  0  0  0  0
   34.7553   26.2670   31.1450 H   0  0  0  0  0  0  0  0  0  0  0  0
   37.3723   21.1846   29.9433 H   0  0  0  0  0  0  0  0  0  0  0  0
   34.5291   22.1251   33.0648 H   0  0  0  0  0  0  0  0  0  0  0  0
   35.2151   18.0933   31.8736 H   0  0  0  0  0  0  0  0  0  0  0  0
   36.9395   27.2426   34.1501 H   0  0  0  0  0  0  0  0  0  0  0  0
   35.5571   29.1654   35.4563 H   0  0  0  0  0  0  0  0  0  0  0  0
   34.8684   30.9455   33.5726 H   0  0  0  0  0  0  0  0  0  0  0  0
  1  6  1  0
  1  2  2  0
  2  3  1  0
  3  4  2  0
  4  8  1  0
  5  4  1  0
  6  5  2  0
  7 12  2  0
  7  8  1  0
  8  9  2  0
  9 10  1  0
 11 10  2  0
 12 11  1  0
 13 14  2  0
 13  1  1  0
 13 16  1  0
 15 13  2  0
 16 17  2  0
 17 18  1  0
 19 18  2  0
 20 16  1  0
 20 19  1  0
  2 21  1  0
  3 22  1  0
  5 23  1  0
  6 24  1  0
  7 25  1  0
  9 26  1  0
 11 27  1  0
 17 28  1  0
 18 29  1  0
 19 30  1  0
M  ISO  8  21  14  22  14  23  14  24  14  25  14  26  14  27  14  28  14
M  ISO  2  29  14  30  14
M  END
>  <minimizedAffinity>  (1) 
-5.00676203

>  <minimizedRMSD>  (1) 
1.18049634

$$$$
