
     RDKit          3D

 30 32  0  0  0  0  0  0  0  0999 V2000
   36.8170   25.9480   31.2010 C   0  0  0  0  0  0  0  0  0  0  0  0
   37.8380   25.0380   31.2440 C   0  0  0  0  0  0  0  0  0  0  0  0
   37.5440   23.6760   31.3120 C   0  0  0  0  0  0  0  0  0  0  0  0
   36.2240   23.2230   31.3370 C   0  0  0  0  0  0  0  0  0  0  0  0
   35.1720   24.1340   31.2930 C   0  0  0  0  0  0  0  0  0  0  0  0
   35.5200   25.4590   31.2270 C   0  0  0  0  0  0  0  0  0  0  0  0
   36.7640   20.8280   30.7010 C   0  0  0  0  0  0  0  0  0  0  0  0
   36.0050   21.7860   31.4060 C   0  0  0  0  0  0  0  0  0  0  0  0
   34.9790   21.3160   32.2260 C   0  0  0  0  0  0  0  0  0  0  0  0
   34.7800   19.9630   32.2880 N   0  0  0  0  0  0  0  0  0  0  0  0
   35.5290   19.0770   31.5960 C   0  0  0  0  0  0  0  0  0  0  0  0
   36.5400   19.5200   30.7890 N   0  0  0  0  0  0  0  0  0  0  0  0
   37.2290   27.6360   31.1200 S   0  0  0  0  0  0  0  0  0  0  0  0
   38.7350   27.8010   31.1490 O   0  0  0  0  0  0  0  0  0  0  0  0
   36.6670   28.2190   29.8660 O   0  0  0  0  0  0  0  0  0  0  0  0
   35.5890   30.2580   33.3290 N   0  0  0  0  0  0  0  0  0  0  0  0
   36.0800   29.7080   32.2080 N   0  0  0  0  0  0  0  0  0  0  0  0
   36.5520   28.4860   32.4890 C   0  0  0  0  0  0  0  0  0  0  0  0
   36.3670   28.2390   33.8110 C   0  0  0  0  0  0  0  0  0  0  0  0
   35.7570   29.3630   34.3340 C   0  0  0  0  0  0  0  0  0  0  0  0
   38.8839   25.3782   31.2251 H   0  0  0  0  0  0  0  0  0  0  0  0
   38.3666   22.9465   31.3465 H   0  0  0  0  0  0  0  0  0  0  0  0
   34.1211   23.8094   31.3102 H   0  0  0  0  0  0  0  0  0  0  0  0
   34.7026   26.1943   31.1918 H   0  0  0  0  0  0  0  0  0  0  0  0
   37.5777   21.1788   30.0492 H   0  0  0  0  0  0  0  0  0  0  0  0
   34.3506   22.0097   32.8038 H   0  0  0  0  0  0  0  0  0  0  0  0
   35.3256   17.9994   31.6817 H   0  0  0  0  0  0  0  0  0  0  0  0
   35.1616   31.1915   33.4114 H   0  0  0  0  0  0  0  0  0  0  0  0
   36.6469   27.3260   34.3570 H   0  0  0  0  0  0  0  0  0  0  0  0
   35.4594   29.5069   35.3831 H   0  0  0  0  0  0  0  0  0  0  0  0
  1  6  1  0
  1  2  2  0
  2  3  1  0
  3  4  2  0
  4  8  1  0
  5  4  1  0
  6  5  2  0
  7 12  2  0
  7  8  1  0
  8  9  2  0
  9 10  1  0
 11 10  2  0
 12 11  1  0
 13 14  2  0
 13  1  1  0
 13 18  1  0
 15 13  2  0
 16 20  1  0
 17 18  2  0
 17 16  1  0
 18 19  1  0
 19 20  2  0
  2 21  1  0
  3 22  1  0
  5 23  1  0
  6 24  1  0
  7 25  1  0
  9 26  1  0
 11 27  1  0
 16 28  1  0
 19 29  1  0
 20 30  1  0
M  ISO  8  21  14  22  14  23  14  24  14  25  14  26  14  27  14  28   9
M  ISO  2  29  14  30  14
M  END
>  <minimizedAffinity>  (1) 
-4.90561962

>  <minimizedRMSD>  (1) 
1.10798657

$$$$
