
     RDKit          3D

 30 32  0  0  0  0  0  0  0  0999 V2000
   36.8340   25.9870   31.1580 C   0  0  0  0  0  0  0  0  0  0  0  0
   37.8540   25.0740   31.2190 C   0  0  0  0  0  0  0  0  0  0  0  0
   37.5570   23.7140   31.3270 C   0  0  0  0  0  0  0  0  0  0  0  0
   36.2600   23.2590   31.3750 C   0  0  0  0  0  0  0  0  0  0  0  0
   35.1860   24.1700   31.3150 C   0  0  0  0  0  0  0  0  0  0  0  0
   35.5370   25.4990   31.2090 C   0  0  0  0  0  0  0  0  0  0  0  0
   36.7000   20.8560   30.7270 C   0  0  0  0  0  0  0  0  0  0  0  0
   36.0190   21.8270   31.4850 C   0  0  0  0  0  0  0  0  0  0  0  0
   35.0580   21.3740   32.3900 C   0  0  0  0  0  0  0  0  0  0  0  0
   34.8260   20.0460   32.4980 N   0  0  0  0  0  0  0  0  0  0  0  0
   35.5100   19.1350   31.7430 C   0  0  0  0  0  0  0  0  0  0  0  0
   36.4560   19.5490   30.8490 N   0  0  0  0  0  0  0  0  0  0  0  0
   37.2480   27.6650   31.0250 S   0  0  0  0  0  0  0  0  0  0  0  0
   38.7460   27.8390   31.1250 O   0  0  0  0  0  0  0  0  0  0  0  0
   36.7390   28.2130   29.7320 O   0  0  0  0  0  0  0  0  0  0  0  0
   36.4520   28.5100   32.3610 C   0  0  0  0  0  0  0  0  0  0  0  0
   36.4680   28.1800   33.7130 C   0  0  0  0  0  0  0  0  0  0  0  0
   35.7050   29.1350   34.3550 C   0  0  0  0  0  0  0  0  0  0  0  0
   35.2440   30.0050   33.4410 N   0  0  0  0  0  0  0  0  0  0  0  0
   35.6950   29.6230   32.2560 N   0  0  0  0  0  0  0  0  0  0  0  0
   38.9006   25.4106   31.1831 H   0  0  0  0  0  0  0  0  0  0  0  0
   38.3817   22.9877   31.3749 H   0  0  0  0  0  0  0  0  0  0  0  0
   34.1366   23.8420   31.3504 H   0  0  0  0  0  0  0  0  0  0  0  0
   34.7198   26.2338   31.1609 H   0  0  0  0  0  0  0  0  0  0  0  0
   37.4625   21.1867   30.0064 H   0  0  0  0  0  0  0  0  0  0  0  0
   34.4956   22.0890   33.0085 H   0  0  0  0  0  0  0  0  0  0  0  0
   35.2973   18.0617   31.8560 H   0  0  0  0  0  0  0  0  0  0  0  0
   36.9856   27.3278   34.1777 H   0  0  0  0  0  0  0  0  0  0  0  0
   35.5072   29.1766   35.4363 H   0  0  0  0  0  0  0  0  0  0  0  0
   34.6466   30.8229   33.6284 H   0  0  0  0  0  0  0  0  0  0  0  0
  1  6  1  0
  1  2  2  0
  2  3  1  0
  3  4  2  0
  4  8  1  0
  5  4  1  0
  6  5  2  0
  7 12  2  0
  7  8  1  0
  8  9  2  0
  9 10  1  0
 11 10  2  0
 12 11  1  0
 13 14  2  0
 13  1  1  0
 13 16  1  0
 15 13  2  0
 16 17  1  0
 17 18  2  0
 19 18  1  0
 20 16  2  0
 20 19  1  0
  2 21  1  0
  3 22  1  0
  5 23  1  0
  6 24  1  0
  7 25  1  0
  9 26  1  0
 11 27  1  0
 17 28  1  0
 18 29  1  0
 19 30  1  0
M  ISO  8  21  14  22  14  23  14  24  14  25  14  26  14  27  14  28  14
M  ISO  2  29  14  30   9
M  END
>  <minimizedAffinity>  (1) 
-4.89720917

>  <minimizedRMSD>  (1) 
1.16313303

$$$$
