
     RDKit          3D

 35 37  0  0  1  0  0  0  0  0999 V2000
   36.9500   25.4680   31.0580 C   0  0  0  0  0  0  0  0  0  0  0  0
   37.9250   24.5220   30.8060 C   0  0  0  0  0  0  0  0  0  0  0  0
   37.5990   23.1740   30.9070 C   0  0  0  0  0  0  0  0  0  0  0  0
   36.3360   22.7480   31.2480 C   0  0  0  0  0  0  0  0  0  0  0  0
   35.3350   23.7040   31.5070 C   0  0  0  0  0  0  0  0  0  0  0  0
   35.6810   25.0200   31.4020 C   0  0  0  0  0  0  0  0  0  0  0  0
   36.8180   20.3420   30.6430 C   0  0  0  0  0  0  0  0  0  0  0  0
   36.0620   21.3200   31.3300 C   0  0  0  0  0  0  0  0  0  0  0  0
   34.9990   20.8840   32.1230 C   0  0  0  0  0  0  0  0  0  0  0  0
   34.7440   19.5500   32.1960 N   0  0  0  0  0  0  0  0  0  0  0  0
   35.4940   18.6390   31.5210 C   0  0  0  0  0  0  0  0  0  0  0  0
   36.5400   19.0400   30.7380 N   0  0  0  0  0  0  0  0  0  0  0  0
   37.4000   27.1480   30.9150 S   0  0  0  0  0  0  0  0  0  0  0  0
   38.7970   27.2600   30.3380 O   0  0  0  0  0  0  0  0  0  0  0  0
   36.4160   27.8330   30.0200 O   0  0  0  0  0  0  0  0  0  0  0  0
   36.1010   28.3360   32.9300 N   0  0  0  0  0  0  0  0  0  0  0  0
   36.2850   28.3870   34.3890 C   0  0  0  0  0  0  0  0  0  0  0  0
   37.0850   27.1370   34.6580 C   0  0  0  0  0  0  0  0  0  0  0  0
   38.0540   27.1200   33.4870 C   0  0  0  0  0  0  0  0  0  0  0  0
   37.4270   28.0000   32.4540 C   0  0  1  0  0  0  0  0  0  0  0  0
   38.9440   24.8306   30.5296 H   0  0  0  0  0  0  0  0  0  0  0  0
   38.3773   22.4227   30.7075 H   0  0  0  0  0  0  0  0  0  0  0  0
   34.3140   23.4019   31.7832 H   0  0  0  0  0  0  0  0  0  0  0  0
   34.9055   25.7739   31.6026 H   0  0  0  0  0  0  0  0  0  0  0  0
   37.6596   20.6637   30.0120 H   0  0  0  0  0  0  0  0  0  0  0  0
   34.3802   21.6048   32.6776 H   0  0  0  0  0  0  0  0  0  0  0  0
   35.2566   17.5683   31.6059 H   0  0  0  0  0  0  0  0  0  0  0  0
   35.4173   27.6120   32.6669 H   0  0  0  0  0  0  0  0  0  0  0  0
   36.8409   29.2876   34.6888 H   0  0  0  0  0  0  0  0  0  0  0  0
   35.3399   28.4334   34.9500 H   0  0  0  0  0  0  0  0  0  0  0  0
   37.6192   27.2037   35.6172 H   0  0  0  0  0  0  0  0  0  0  0  0
   36.4712   26.2276   34.7374 H   0  0  0  0  0  0  0  0  0  0  0  0
   39.0340   27.5172   33.7902 H   0  0  0  0  0  0  0  0  0  0  0  0
   38.2300   26.1014   33.1108 H   0  0  0  0  0  0  0  0  0  0  0  0
   37.9925   28.9298   32.2938 H   0  0  0  0  0  0  0  0  0  0  0  0
  1  6  2  0
  2  3  2  0
  2  1  1  0
  3  4  1  0
  4  8  1  0
  4  5  2  0
  6  5  1  0
  7 12  2  0
  7  8  1  0
  8  9  2  0
  9 10  1  0
 11 10  2  0
 12 11  1  0
 13  1  1  0
 14 13  2  0
 15 13  2  0
 16 17  1  0
 17 18  1  0
 19 18  1  0
 20 13  1  0
 20 16  1  0
 20 19  1  0
  2 21  1  0
  3 22  1  0
  5 23  1  0
  6 24  1  0
  7 25  1  0
  9 26  1  0
 11 27  1  0
 16 28  1  0
 17 29  1  0
 17 30  1  0
 18 31  1  0
 18 32  1  0
 19 33  1  0
 19 34  1  0
 20 35  1  6
M  ISO  8  21  14  22  14  23  14  24  14  25  14  26  14  27  14  28   5
M  ISO  7  29  13  30  13  31  13  32  13  33  13  34  13  35  13
M  END
>  <minimizedAffinity>  (1) 
-4.85174036

>  <minimizedRMSD>  (1) 
1.4204427

$$$$
