
     RDKit          3D

 30 32  0  0  0  0  0  0  0  0999 V2000
   36.8440   25.9610   31.1420 C   0  0  0  0  0  0  0  0  0  0  0  0
   37.8500   25.0340   31.1860 C   0  0  0  0  0  0  0  0  0  0  0  0
   37.5230   23.6810   31.2840 C   0  0  0  0  0  0  0  0  0  0  0  0
   36.1940   23.2500   31.3390 C   0  0  0  0  0  0  0  0  0  0  0  0
   35.1690   24.1870   31.2950 C   0  0  0  0  0  0  0  0  0  0  0  0
   35.5360   25.5000   31.1980 C   0  0  0  0  0  0  0  0  0  0  0  0
   36.5530   20.8350   30.6610 C   0  0  0  0  0  0  0  0  0  0  0  0
   35.9650   21.8200   31.4500 C   0  0  0  0  0  0  0  0  0  0  0  0
   35.0670   21.3910   32.4560 C   0  0  0  0  0  0  0  0  0  0  0  0
   34.8560   20.0460   32.5650 N   0  0  0  0  0  0  0  0  0  0  0  0
   35.4470   19.1270   31.7800 C   0  0  0  0  0  0  0  0  0  0  0  0
   36.3140   19.5390   30.8080 N   0  0  0  0  0  0  0  0  0  0  0  0
   37.2760   27.6420   31.0340 S   0  0  0  0  0  0  0  0  0  0  0  0
   38.7760   27.7900   31.1100 O   0  0  0  0  0  0  0  0  0  0  0  0
   36.7460   28.2130   29.7620 O   0  0  0  0  0  0  0  0  0  0  0  0
   36.5170   28.4700   32.3980 C   0  0  0  0  0  0  0  0  0  0  0  0
   35.8240   29.6540   32.2470 C   0  0  0  0  0  0  0  0  0  0  0  0
   35.3920   29.9860   33.4800 N   0  0  0  0  0  0  0  0  0  0  0  0
   35.8070   29.0390   34.3420 C   0  0  0  0  0  0  0  0  0  0  0  0
   36.5120   28.0800   33.7000 N   0  0  0  0  0  0  0  0  0  0  0  0
   38.9024   25.3514   31.1447 H   0  0  0  0  0  0  0  0  0  0  0  0
   38.3307   22.9351   31.3188 H   0  0  0  0  0  0  0  0  0  0  0  0
   34.1117   23.8862   31.3363 H   0  0  0  0  0  0  0  0  0  0  0  0
   34.7320   26.2499   31.1615 H   0  0  0  0  0  0  0  0  0  0  0  0
   37.2536   21.1488   29.8732 H   0  0  0  0  0  0  0  0  0  0  0  0
   34.5619   22.1080   33.1199 H   0  0  0  0  0  0  0  0  0  0  0  0
   35.2346   18.0567   31.9192 H   0  0  0  0  0  0  0  0  0  0  0  0
   35.6584   30.2116   31.3133 H   0  0  0  0  0  0  0  0  0  0  0  0
   35.6006   29.0445   35.4224 H   0  0  0  0  0  0  0  0  0  0  0  0
   36.9483   27.2405   34.1072 H   0  0  0  0  0  0  0  0  0  0  0  0
  1  2  2  0
  1  6  1  0
  2  3  1  0
  3  4  2  0
  4  8  1  0
  5  4  1  0
  6  5  2  0
  7 12  2  0
  7  8  1  0
  8  9  2  0
  9 10  1  0
 11 10  2  0
 12 11  1  0
 13 14  2  0
 13  1  1  0
 13 16  1  0
 15 13  2  0
 16 20  1  0
 17 16  2  0
 17 18  1  0
 18 19  2  0
 20 19  1  0
  2 21  1  0
  3 22  1  0
  5 23  1  0
  6 24  1  0
  7 25  1  0
  9 26  1  0
 11 27  1  0
 17 28  1  0
 19 29  1  0
 20 30  1  0
M  ISO  8  21  14  22  14  23  14  24  14  25  14  26  14  27  14  28  14
M  ISO  2  29  14  30   9
M  END
>  <minimizedAffinity>  (1) 
-4.84658575

>  <minimizedRMSD>  (1) 
1.36832929

$$$$
