
     RDKit          3D

 32 33  0  0  0  0  0  0  0  0999 V2000
   37.0540   25.4590   32.5300 C   0  0  0  0  0  0  0  0  0  0  0  0
   37.7920   24.5130   33.1830 C   0  0  0  0  0  0  0  0  0  0  0  0
   37.4890   23.1610   33.0040 C   0  0  0  0  0  0  0  0  0  0  0  0
   36.4590   22.7530   32.1790 C   0  0  0  0  0  0  0  0  0  0  0  0
   35.6800   23.7040   31.4920 C   0  0  0  0  0  0  0  0  0  0  0  0
   36.0260   25.0160   31.7090 C   0  0  0  0  0  0  0  0  0  0  0  0
   37.1990   20.3500   31.8670 C   0  0  0  0  0  0  0  0  0  0  0  0
   36.2140   21.3230   32.0510 C   0  0  0  0  0  0  0  0  0  0  0  0
   34.8840   20.8790   32.1170 C   0  0  0  0  0  0  0  0  0  0  0  0
   34.6340   19.5440   31.9970 N   0  0  0  0  0  0  0  0  0  0  0  0
   35.6160   18.6420   31.8210 C   0  0  0  0  0  0  0  0  0  0  0  0
   36.8990   19.0510   31.7560 N   0  0  0  0  0  0  0  0  0  0  0  0
   37.4370   27.1290   32.7810 S   0  0  0  0  0  0  0  0  0  0  0  0
   38.9310   27.3310   32.6990 O   0  0  0  0  0  0  0  0  0  0  0  0
   36.7280   27.9700   31.7760 O   0  0  0  0  0  0  0  0  0  0  0  0
   36.8250   27.5660   34.3920 C   0  0  0  0  0  0  0  0  0  0  0  0
   37.9200   27.5600   35.4120 C   0  0  0  0  0  0  0  0  0  0  0  0
   36.0050   28.8180   34.3690 C   0  0  0  0  0  0  0  0  0  0  0  0
   38.6181   24.8133   33.8444 H   0  0  0  0  0  0  0  0  0  0  0  0
   38.0852   22.4029   33.5330 H   0  0  0  0  0  0  0  0  0  0  0  0
   34.8518   23.4164   30.8276 H   0  0  0  0  0  0  0  0  0  0  0  0
   35.4362   25.7831   31.1859 H   0  0  0  0  0  0  0  0  0  0  0  0
   38.2527   20.6610   31.8117 H   0  0  0  0  0  0  0  0  0  0  0  0
   34.0603   21.5934   32.2625 H   0  0  0  0  0  0  0  0  0  0  0  0
   35.3729   17.5730   31.7303 H   0  0  0  0  0  0  0  0  0  0  0  0
   36.1208   26.7838   34.7119 H   0  0  0  0  0  0  0  0  0  0  0  0
   37.4814   27.5624   36.4208 H   0  0  0  0  0  0  0  0  0  0  0  0
   38.5368   26.6585   35.2825 H   0  0  0  0  0  0  0  0  0  0  0  0
   38.5467   28.4547   35.2825 H   0  0  0  0  0  0  0  0  0  0  0  0
   35.7954   29.1380   35.4003 H   0  0  0  0  0  0  0  0  0  0  0  0
   36.5598   29.6101   33.8449 H   0  0  0  0  0  0  0  0  0  0  0  0
   35.0572   28.6259   33.8449 H   0  0  0  0  0  0  0  0  0  0  0  0
  1 13  1  0
  1  2  2  0
  3  2  1  0
  4  3  2  0
  5  6  2  0
  5  4  1  0
  6  1  1  0
  7  8  2  0
  8  9  1  0
  8  4  1  0
 10  9  2  0
 11 10  1  0
 12 11  2  0
 12  7  1  0
 13 16  1  0
 14 13  2  0
 15 13  2  0
 16 17  1  0
 18 16  1  0
  2 19  1  0
  3 20  1  0
  5 21  1  0
  6 22  1  0
  7 23  1  0
  9 24  1  0
 11 25  1  0
 16 26  1  0
 17 27  1  0
 17 28  1  0
 17 29  1  0
 18 30  1  0
 18 31  1  0
 18 32  1  0
M  ISO  8  19  14  20  14  21  14  22  14  23  14  24  14  25  14  26   8
M  ISO  6  27   8  28   8  29   8  30   8  31   8  32   8
M  END
>  <minimizedAffinity>  (1) 
-4.66588497

>  <minimizedRMSD>  (1) 
0.893066645

$$$$
