
     RDKit          3D

 50 53  0  0  0  0  0  0  0  0999 V2000
   38.1140   29.1570   43.1040 C   0  0  0  0  0  0  0  0  0  0  0  0
   39.0340   28.2260   42.6380 C   0  0  0  0  0  0  0  0  0  0  0  0
   38.8730   27.7020   41.3380 C   0  0  0  0  0  0  0  0  0  0  0  0
   37.7790   28.1860   40.6360 N   0  0  0  0  0  0  0  0  0  0  0  0
   36.9290   29.0790   41.1350 C   0  0  0  0  0  0  0  0  0  0  0  0
   37.0910   29.5630   42.3590 N   0  0  0  0  0  0  0  0  0  0  0  0
   40.1740   27.7200   43.3700 C   0  0  0  0  0  0  0  0  0  0  0  0
   40.3350   26.6330   44.1000 N   0  0  0  0  0  0  0  0  0  0  0  0
   41.5290   26.5620   44.5760 O   0  0  0  0  0  0  0  0  0  0  0  0
   42.2270   27.5980   44.1890 C   0  0  0  0  0  0  0  0  0  0  0  0
   41.3870   28.3410   43.4260 N   0  0  0  0  0  0  0  0  0  0  0  0
   43.5600   28.0360   44.4010 N   0  0  0  0  0  0  0  0  0  0  0  0
   44.0480   28.8980   43.4940 C   0  0  0  0  0  0  0  0  0  0  0  0
   45.3320   29.3800   43.6230 C   0  0  0  0  0  0  0  0  0  0  0  0
   46.0370   28.9030   44.7360 C   0  0  0  0  0  0  0  0  0  0  0  0
   47.2150   29.3190   44.8910 O   0  0  0  0  0  0  0  0  0  0  0  0
   45.5180   28.0290   45.6400 N   0  0  0  0  0  0  0  0  0  0  0  0
   44.2700   27.5950   45.4660 C   0  0  0  0  0  0  0  0  0  0  0  0
   43.7650   26.8000   46.2680 O   0  0  0  0  0  0  0  0  0  0  0  0
   35.8080   29.4920   40.2650 C   0  0  0  0  0  0  0  0  0  0  0  0
   35.6340   30.8520   40.3350 F   0  0  0  0  0  0  0  0  0  0  0  0
   36.0300   29.1170   38.9790 F   0  0  0  0  0  0  0  0  0  0  0  0
   34.6150   28.9150   40.7180 F   0  0  0  0  0  0  0  0  0  0  0  0
   39.7320   26.7000   40.6450 C   0  0  0  0  0  0  0  0  0  0  0  0
   41.1560   27.1580   40.4480 C   0  0  0  0  0  0  0  0  0  0  0  0
   39.2090   26.6260   39.1680 C   0  0  0  0  0  0  0  0  0  0  0  0
   39.5910   25.3180   41.1480 C   0  0  0  0  0  0  0  0  0  0  0  0
   38.3940   24.6070   40.7190 N   0  0  0  0  0  0  0  0  0  0  0  0
   38.4790   23.8670   39.5750 C   0  0  0  0  0  0  0  0  0  0  0  0
   37.4340   23.1320   39.0570 C   0  0  0  0  0  0  0  0  0  0  0  0
   36.2220   23.1260   39.7120 C   0  0  0  0  0  0  0  0  0  0  0  0
   35.1990   22.4960   39.3380 O   0  0  0  0  0  0  0  0  0  0  0  0
   36.1560   23.8600   40.8340 N   0  0  0  0  0  0  0  0  0  0  0  0
   37.1950   24.5640   41.3090 C   0  0  0  0  0  0  0  0  0  0  0  0
   37.0320   25.2140   42.3550 O   0  0  0  0  0  0  0  0  0  0  0  0
   38.2355   29.5691   44.1166 H   0  0  0  0  0  0  0  0  0  0  0  0
   43.4224   29.2191   42.6481 H   0  0  0  0  0  0  0  0  0  0  0  0
   45.7717   30.0876   42.9047 H   0  0  0  0  0  0  0  0  0  0  0  0
   46.0783   27.7091   46.4429 H   0  0  0  0  0  0  0  0  0  0  0  0
   41.6310   27.3108   41.4283 H   0  0  0  0  0  0  0  0  0  0  0  0
   41.7126   26.3936   39.8860 H   0  0  0  0  0  0  0  0  0  0  0  0
   41.1626   28.1036   39.8860 H   0  0  0  0  0  0  0  0  0  0  0  0
   38.1199   26.4719   39.1720 H   0  0  0  0  0  0  0  0  0  0  0  0
   39.4444   27.5664   38.6481 H   0  0  0  0  0  0  0  0  0  0  0  0
   39.6960   25.7878   38.6481 H   0  0  0  0  0  0  0  0  0  0  0  0
   40.4652   24.7438   40.8072 H   0  0  0  0  0  0  0  0  0  0  0  0
   39.5117   25.4044   42.2417 H   0  0  0  0  0  0  0  0  0  0  0  0
   39.4373   23.8566   39.0350 H   0  0  0  0  0  0  0  0  0  0  0  0
   37.5667   22.5558   38.1294 H   0  0  0  0  0  0  0  0  0  0  0  0
   35.2673   23.8839   41.3541 H   0  0  0  0  0  0  0  0  0  0  0  0
  2  1  2  0
  2  7  1  0
  3  2  1  0
  4  5  1  0
  4  3  2  0
  5  6  2  0
  6  1  1  0
  7 11  1  0
  7  8  2  0
  8  9  1  0
 10 12  1  0
 10  9  1  0
 11 10  2  0
 12 18  1  0
 13 14  2  0
 13 12  1  0
 14 15  1  0
 15 16  2  0
 15 17  1  0
 18 17  1  0
 18 19  2  0
 20 21  1  0
 20 23  1  0
 20  5  1  0
 22 20  1  0
 24 27  1  0
 24  3  1  0
 25 24  1  0
 26 24  1  0
 28 27  1  0
 28 34  1  0
 29 28  1  0
 30 29  2  0
 30 31  1  0
 31 33  1  0
 32 31  2  0
 33 34  1  0
 34 35  2  0
  1 36  1  0
 13 37  1  0
 14 38  1  0
 17 39  1  0
 25 40  1  0
 25 41  1  0
 25 42  1  0
 26 43  1  0
 26 44  1  0
 26 45  1  0
 27 46  1  0
 27 47  1  0
 29 48  1  0
 30 49  1  0
 33 50  1  0
M  ISO  8  36  14  37  14  38  14  39   9  40   8  41   8  42   8  43   8
M  ISO  7  44   8  45   8  46   8  47   8  48  14  49  14  50   9
M  END
>  <minimizedAffinity>  (1) 
-6.02331018

>  <minimizedRMSD>  (1) 
1.91735923

$$$$
