
     RDKit          3D

 45 48  0  0  0  0  0  0  0  0999 V2000
   38.9760   27.7750   43.4040 C   0  0  0  0  0  0  0  0  0  0  0  0
   38.4100   26.4840   43.2980 C   0  0  0  0  0  0  0  0  0  0  0  0
   37.7790   26.1900   42.0980 C   0  0  0  0  0  0  0  0  0  0  0  0
   37.7330   27.1090   41.1210 N   0  0  0  0  0  0  0  0  0  0  0  0
   38.2770   28.3250   41.2480 C   0  0  0  0  0  0  0  0  0  0  0  0
   38.9010   28.6640   42.3890 N   0  0  0  0  0  0  0  0  0  0  0  0
   37.1750   24.9480   41.8540 N   0  0  0  0  0  0  0  0  0  0  0  0
   38.2440   29.3220   40.2330 N   0  0  0  0  0  0  0  0  0  0  0  0
   37.7590   28.9320   39.0290 C   0  0  0  0  0  0  0  0  0  0  0  0
   37.6440   29.7550   37.9110 C   0  0  0  0  0  0  0  0  0  0  0  0
   38.0630   31.0490   38.0860 C   0  0  0  0  0  0  0  0  0  0  0  0
   37.9910   31.8560   37.1260 O   0  0  0  0  0  0  0  0  0  0  0  0
   38.5390   31.4190   39.2850 N   0  0  0  0  0  0  0  0  0  0  0  0
   38.6330   30.5940   40.3370 C   0  0  0  0  0  0  0  0  0  0  0  0
   39.0800   30.9370   41.4580 O   0  0  0  0  0  0  0  0  0  0  0  0
   38.9870   32.7550   39.5130 C   0  0  0  0  0  0  0  0  0  0  0  0
   38.0780   33.6790   39.9890 C   0  0  0  0  0  0  0  0  0  0  0  0
   38.5250   34.9700   40.2050 C   0  0  0  0  0  0  0  0  0  0  0  0
   39.8480   35.2660   39.9360 C   0  0  0  0  0  0  0  0  0  0  0  0
   40.7450   34.3570   39.4660 C   0  0  0  0  0  0  0  0  0  0  0  0
   40.3240   33.0500   39.2400 C   0  0  0  0  0  0  0  0  0  0  0  0
   37.1150   29.2260   36.6420 C   0  0  0  0  0  0  0  0  0  0  0  0
   35.6920   29.1940   36.5340 N   0  0  0  0  0  0  0  0  0  0  0  0
   34.7710   29.0680   37.5040 C   0  0  0  0  0  0  0  0  0  0  0  0
   33.4120   29.0530   37.2990 C   0  0  0  0  0  0  0  0  0  0  0  0
   32.9460   29.1750   36.0090 C   0  0  0  0  0  0  0  0  0  0  0  0
   31.7140   29.1700   35.7500 O   0  0  0  0  0  0  0  0  0  0  0  0
   33.8590   29.3040   35.0140 N   0  0  0  0  0  0  0  0  0  0  0  0
   35.1650   29.3110   35.2790 C   0  0  0  0  0  0  0  0  0  0  0  0
   35.9160   29.4390   34.2600 O   0  0  0  0  0  0  0  0  0  0  0  0
   39.4890   28.0624   44.3336 H   0  0  0  0  0  0  0  0  0  0  0  0
   38.4666   25.7547   44.1195 H   0  0  0  0  0  0  0  0  0  0  0  0
   36.7160   24.7673   40.9498 H   0  0  0  0  0  0  0  0  0  0  0  0
   37.1904   24.2165   42.5790 H   0  0  0  0  0  0  0  0  0  0  0  0
   37.4315   27.8868   38.9270 H   0  0  0  0  0  0  0  0  0  0  0  0
   37.0336   33.3979   40.1896 H   0  0  0  0  0  0  0  0  0  0  0  0
   37.8419   35.7449   40.5830 H   0  0  0  0  0  0  0  0  0  0  0  0
   40.1956   36.2947   40.1118 H   0  0  0  0  0  0  0  0  0  0  0  0
   41.7864   34.6507   39.2679 H   0  0  0  0  0  0  0  0  0  0  0  0
   41.0152   32.2821   38.8624 H   0  0  0  0  0  0  0  0  0  0  0  0
   37.5026   29.8533   35.8258 H   0  0  0  0  0  0  0  0  0  0  0  0
   37.4449   28.1778   36.5914 H   0  0  0  0  0  0  0  0  0  0  0  0
   35.1312   28.9696   38.5387 H   0  0  0  0  0  0  0  0  0  0  0  0
   32.7149   28.9463   38.1432 H   0  0  0  0  0  0  0  0  0  0  0  0
   33.5382   29.3979   34.0397 H   0  0  0  0  0  0  0  0  0  0  0  0
  2  1  2  0
  3  2  1  0
  4  5  1  0
  4  3  2  0
  5  6  2  0
  6  1  1  0
  7  3  1  0
  8 14  1  0
  8  5  1  0
  9  8  1  0
 10 11  1  0
 10  9  2  0
 11 13  1  0
 12 11  2  0
 13 16  1  0
 13 14  1  0
 14 15  2  0
 16 17  2  0
 17 18  1  0
 19 18  2  0
 20 19  1  0
 21 20  2  0
 21 16  1  0
 22 10  1  0
 23 22  1  0
 23 24  1  0
 25 24  2  0
 26 25  1  0
 27 26  2  0
 28 29  1  0
 28 26  1  0
 29 23  1  0
 30 29  2  0
  1 31  1  0
  2 32  1  0
  7 33  1  0
  7 34  1  0
  9 35  1  0
 17 36  1  0
 18 37  1  0
 19 38  1  0
 20 39  1  0
 21 40  1  0
 22 41  1  0
 22 42  1  0
 24 43  1  0
 25 44  1  0
 28 45  1  0
M  ISO  8  31  14  32  14  35  14  36  14  37  14  38  14  39  14  40  14
M  ISO  5  41   8  42   8  43  14  44  14  45   9
M  END
>  <minimizedAffinity>  (1) 
-6.5903616

>  <minimizedRMSD>  (1) 
1.22561121

$$$$
