
     RDKit          3D

 33 35  0  0  1  0  0  0  0  0999 V2000
   36.6440   28.6360   41.8230 C   0  0  0  0  0  0  0  0  0  0  0  0
   35.8830   28.4070   40.6700 C   0  0  0  0  0  0  0  0  0  0  0  0
   36.2080   29.9900   39.7840 S   0  0  0  0  0  0  0  0  0  0  0  0
   37.3440   30.6620   41.1990 C   0  0  0  0  0  0  0  0  0  0  0  0
   37.2450   29.7830   41.8370 N   0  0  0  0  0  0  0  0  0  0  0  0
   36.6640   27.3280   43.0880 S   0  0  0  0  0  0  0  0  0  0  0  0
   38.4020   25.2840   42.2870 C   0  0  0  0  0  0  0  0  0  0  0  0
   38.1900   26.4620   43.0460 C   0  0  0  0  0  0  0  0  0  0  0  0
   39.2730   26.9100   43.7720 C   0  0  0  0  0  0  0  0  0  0  0  0
   40.4570   26.2290   43.7320 N   0  0  0  0  0  0  0  0  0  0  0  0
   40.5960   25.0960   42.9770 C   0  0  0  0  0  0  0  0  0  0  0  0
   39.5780   24.6460   42.2750 N   0  0  0  0  0  0  0  0  0  0  0  0
   37.9530   31.9080   41.1430 O   0  0  0  0  0  0  0  0  0  0  0  0
   39.3210   32.0390   40.6820 C   0  0  1  0  0  0  0  0  0  0  0  0
   39.3320   32.6380   39.2650 C   0  0  0  0  0  0  0  0  0  0  0  0
   39.8350   33.4190   40.5030 C   0  0  1  0  0  0  0  0  0  0  0  0
   39.0400   34.5270   40.9680 N   0  0  0  0  0  0  0  0  0  0  0  0
   39.8930   35.9730   40.5590 S   0  0  0  0  0  0  0  0  0  0  0  0
   41.2150   35.5670   39.4350 C   0  0  0  0  0  0  0  0  0  0  0  0
   40.5390   36.5440   41.7870 O   0  0  0  0  0  0  0  0  0  0  0  0
   38.9680   36.9710   39.9230 O   0  0  0  0  0  0  0  0  0  0  0  0
   35.2723   27.5395   40.3793 H   0  0  0  0  0  0  0  0  0  0  0  0
   37.5722   24.8809   41.6879 H   0  0  0  0  0  0  0  0  0  0  0  0
   39.1837   27.8187   44.3855 H   0  0  0  0  0  0  0  0  0  0  0  0
   41.5576   24.5621   42.9570 H   0  0  0  0  0  0  0  0  0  0  0  0
   39.7415   31.1631   41.1977 H   0  0  0  0  0  0  0  0  0  0  0  0
   38.3899   32.9213   38.7728 H   0  0  0  0  0  0  0  0  0  0  0  0
   39.7457   32.3517   38.2868 H   0  0  0  0  0  0  0  0  0  0  0  0
   40.7710   33.9285   40.7757 H   0  0  0  0  0  0  0  0  0  0  0  0
   38.1186   34.5183   40.5076 H   0  0  0  0  0  0  0  0  0  0  0  0
   42.1123   35.2914   40.0085 H   0  0  0  0  0  0  0  0  0  0  0  0
   40.9107   34.7209   38.8013 H   0  0  0  0  0  0  0  0  0  0  0  0
   41.4380   36.4380   38.8013 H   0  0  0  0  0  0  0  0  0  0  0  0
  1  5  1  0
  1  6  1  0
  2  1  2  0
  3  2  1  0
  3  4  1  0
  4  5  2  0
  7  8  2  0
  8  6  1  0
  8  9  1  0
 10  9  2  0
 11 10  1  0
 12  7  1  0
 12 11  2  0
 13  4  1  0
 14 13  1  0
 15 16  1  0
 15 14  1  0
 16 14  1  0
 16 17  1  0
 18 17  1  0
 18 20  2  0
 19 18  1  0
 21 18  2  0
  2 22  1  0
  7 23  1  0
  9 24  1  0
 11 25  1  0
 14 26  1  6
 15 27  1  0
 15 28  1  0
 16 29  1  6
 17 30  1  0
 19 31  1  0
 19 32  1  0
 19 33  1  0
M  ISO  8  22  14  23  14  24  14  25  14  26  13  27  13  28  13  29  13
M  ISO  4  30   5  31   8  32   8  33   8
M  END
>  <minimizedAffinity>  (1) 
-4.94194174

>  <minimizedRMSD>  (1) 
3.54893398

$$$$
