
     RDKit          3D

 45 48  0  0  1  0  0  0  0  0999 V2000
   39.0770   35.4900   40.2860 C   0  0  0  0  0  0  0  0  0  0  0  0
   40.3560   35.7610   39.7870 C   0  0  0  0  0  0  0  0  0  0  0  0
   41.0990   34.6470   39.3710 C   0  0  0  0  0  0  0  0  0  0  0  0
   40.5120   33.4620   39.4950 N   0  0  0  0  0  0  0  0  0  0  0  0
   39.3100   33.1750   39.9610 C   0  0  0  0  0  0  0  0  0  0  0  0
   38.6260   34.2510   40.3490 N   0  0  0  0  0  0  0  0  0  0  0  0
   38.5670   31.9440   40.1460 C   0  0  0  0  0  0  0  0  0  0  0  0
   38.4140   31.3360   41.3370 N   0  0  0  0  0  0  0  0  0  0  0  0
   37.7420   30.2100   41.5460 C   0  0  0  0  0  0  0  0  0  0  0  0
   37.1510   29.5870   40.5550 N   0  0  0  0  0  0  0  0  0  0  0  0
   37.2270   30.0920   39.3060 C   0  0  0  0  0  0  0  0  0  0  0  0
   36.6000   29.4330   38.2580 C   0  0  0  0  0  0  0  0  0  0  0  0
   36.6650   29.9300   36.9890 C   0  0  0  0  0  0  0  0  0  0  0  0
   37.3750   31.1200   36.7640 C   0  0  0  0  0  0  0  0  0  0  0  0
   37.9720   31.7190   37.8570 C   0  0  0  0  0  0  0  0  0  0  0  0
   37.9350   31.2610   39.1340 C   0  0  0  0  0  0  0  0  0  0  0  0
   42.3310   34.7170   38.8700 O   0  0  0  0  0  0  0  0  0  0  0  0
   43.3990   33.8480   39.2110 C   0  0  2  0  0  0  0  0  0  0  0  0
   43.7900   34.1610   40.6770 C   0  0  0  0  0  0  0  0  0  0  0  0
   44.5790   34.0920   38.3170 C   0  0  0  0  0  0  0  0  0  0  0  0
   44.8410   33.0330   37.4000 N   0  0  0  0  0  0  0  0  0  0  0  0
   43.8850   32.0820   37.3060 C   0  0  0  0  0  0  0  0  0  0  0  0
   44.0890   31.0290   36.4300 C   0  0  0  0  0  0  0  0  0  0  0  0
   45.2720   31.0490   35.7190 C   0  0  0  0  0  0  0  0  0  0  0  0
   45.5260   29.9970   34.8130 N   0  0  0  0  0  0  0  0  0  0  0  0
   46.2250   32.0190   35.8280 N   0  0  0  0  0  0  0  0  0  0  0  0
   45.9900   33.0360   36.6990 C   0  0  0  0  0  0  0  0  0  0  0  0
   46.8530   33.9390   36.8160 O   0  0  0  0  0  0  0  0  0  0  0  0
   38.4404   36.3187   40.6296 H   0  0  0  0  0  0  0  0  0  0  0  0
   40.7539   36.7846   39.7249 H   0  0  0  0  0  0  0  0  0  0  0  0
   37.6803   29.7948   42.5628 H   0  0  0  0  0  0  0  0  0  0  0  0
   36.0462   28.5026   38.4519 H   0  0  0  0  0  0  0  0  0  0  0  0
   36.1699   29.4076   36.1571 H   0  0  0  0  0  0  0  0  0  0  0  0
   37.4530   31.5581   35.7580 H   0  0  0  0  0  0  0  0  0  0  0  0
   38.5273   32.6511   37.6756 H   0  0  0  0  0  0  0  0  0  0  0  0
   43.0919   32.7984   39.0928 H   0  0  0  0  0  0  0  0  0  0  0  0
   43.1164   33.6218   41.3593 H   0  0  0  0  0  0  0  0  0  0  0  0
   44.8269   33.8406   40.8563 H   0  0  0  0  0  0  0  0  0  0  0  0
   43.7043   35.2429   40.8563 H   0  0  0  0  0  0  0  0  0  0  0  0
   44.3922   35.0101   37.7407 H   0  0  0  0  0  0  0  0  0  0  0  0
   45.4609   34.1731   38.9695 H   0  0  0  0  0  0  0  0  0  0  0  0
   42.9679   32.1430   37.9103 H   0  0  0  0  0  0  0  0  0  0  0  0
   43.3506   30.2229   36.3078 H   0  0  0  0  0  0  0  0  0  0  0  0
   44.8365   29.2409   34.6954 H   0  0  0  0  0  0  0  0  0  0  0  0
   46.4008   29.9854   34.2695 H   0  0  0  0  0  0  0  0  0  0  0  0
  1  6  2  0
  2  1  1  0
  3  4  1  0
  3  2  2  0
  4  5  2  0
  5  7  1  0
  5  6  1  0
  7  8  2  0
  8  9  1  0
 10  9  2  0
 11 10  1  0
 12 11  2  0
 13 12  1  0
 14 13  2  0
 14 15  1  0
 15 16  2  0
 16 11  1  0
 16  7  1  0
 17 18  1  0
 17  3  1  0
 18 19  1  0
 20 18  1  0
 21 20  1  0
 22 21  1  0
 23 22  2  0
 24 26  2  0
 24 23  1  0
 25 24  1  0
 26 27  1  0
 27 28  2  0
 27 21  1  0
  1 29  1  0
  2 30  1  0
  9 31  1  0
 12 32  1  0
 13 33  1  0
 14 34  1  0
 15 35  1  0
 18 36  1  1
 19 37  1  0
 19 38  1  0
 19 39  1  0
 20 40  1  0
 20 41  1  0
 22 42  1  0
 23 43  1  0
 25 44  1  0
 25 45  1  0
M  ISO  8  29  14  30  14  31  14  32  14  33  14  34  14  35  14  36   8
M  ISO  7  37   8  38   8  39   8  40   8  41   8  42  14  43  14
M  END
>  <minimizedAffinity>  (1) 
-6.27907372

>  <minimizedRMSD>  (1) 
2.35836005

$$$$
