
     RDKit          3D

 36 38  0  0  1  0  0  0  0  0999 V2000
   38.6670   28.3100   42.7970 C   0  0  2  0  0  0  0  0  0  0  0  0
   38.2380   27.1500   43.5460 C   0  0  0  0  0  0  0  0  0  0  0  0
   36.6980   27.1900   43.5050 C   0  0  0  0  0  0  0  0  0  0  0  0
   36.3690   28.0130   42.2850 C   0  0  0  0  0  0  0  0  0  0  0  0
   37.6630   28.2820   41.5690 C   0  0  1  0  0  0  0  0  0  0  0  0
   40.6680   27.0580   41.7940 C   0  0  0  0  0  0  0  0  0  0  0  0
   40.0350   28.2800   42.2730 C   0  0  0  0  0  0  0  0  0  0  0  0
   40.7080   29.4980   42.3030 C   0  0  0  0  0  0  0  0  0  0  0  0
   41.9920   29.4820   41.8440 N   0  0  0  0  0  0  0  0  0  0  0  0
   42.6140   28.2970   41.3740 C   0  0  0  0  0  0  0  0  0  0  0  0
   41.9250   27.0760   41.3600 N   0  0  0  0  0  0  0  0  0  0  0  0
   43.9670   28.3800   40.9000 N   0  0  0  0  0  0  0  0  0  0  0  0
   40.4390   30.8360   42.6780 C   0  0  0  0  0  0  0  0  0  0  0  0
   41.5890   31.4540   43.3350 F   0  0  0  0  0  0  0  0  0  0  0  0
   39.4680   31.3280   43.3680 F   0  0  0  0  0  0  0  0  0  0  0  0
   40.6380   31.6050   41.4850 F   0  0  0  0  0  0  0  0  0  0  0  0
   37.4370   29.6360   40.9970 C   0  0  0  0  0  0  0  0  0  0  0  0
   36.5110   30.4940   41.5190 N   0  0  0  0  0  0  0  0  0  0  0  0
   36.5510   31.5960   40.8090 O   0  0  0  0  0  0  0  0  0  0  0  0
   37.4490   31.4610   39.8820 C   0  0  0  0  0  0  0  0  0  0  0  0
   38.0270   30.2460   39.9640 N   0  0  0  0  0  0  0  0  0  0  0  0
   37.7390   32.5560   38.9030 C   0  0  0  0  0  0  0  0  0  0  0  0
   36.9270   33.6390   39.1830 F   0  0  0  0  0  0  0  0  0  0  0  0
   39.0650   32.9650   39.0110 F   0  0  0  0  0  0  0  0  0  0  0  0
   37.4810   32.1400   37.6170 F   0  0  0  0  0  0  0  0  0  0  0  0
   38.6627   29.1984   43.4457 H   0  0  0  0  0  0  0  0  0  0  0  0
   38.6126   26.2280   43.0774 H   0  0  0  0  0  0  0  0  0  0  0  0
   38.6224   27.1606   44.5766 H   0  0  0  0  0  0  0  0  0  0  0  0
   36.2859   26.1745   43.4106 H   0  0  0  0  0  0  0  0  0  0  0  0
   36.2681   27.6166   44.4232 H   0  0  0  0  0  0  0  0  0  0  0  0
   35.6835   27.4568   41.6287 H   0  0  0  0  0  0  0  0  0  0  0  0
   35.8770   28.9547   42.5699 H   0  0  0  0  0  0  0  0  0  0  0  0
   38.0095   27.5989   40.7795 H   0  0  0  0  0  0  0  0  0  0  0  0
   40.1025   26.1145   41.7914 H   0  0  0  0  0  0  0  0  0  0  0  0
   44.4438   27.5356   40.5529 H   0  0  0  0  0  0  0  0  0  0  0  0
   44.4606   29.2840   40.9071 H   0  0  0  0  0  0  0  0  0  0  0  0
  1  2  1  0
  3  2  1  0
  4  3  1  0
  5  4  1  0
  5  1  1  0
  6  7  2  0
  7  8  1  0
  7  1  1  0
  8 13  1  0
  9  8  2  0
 10  9  1  0
 11 10  2  0
 11  6  1  0
 12 10  1  0
 13 14  1  0
 13 15  1  0
 16 13  1  0
 17 18  2  0
 17  5  1  0
 19 18  1  0
 20 21  2  0
 20 19  1  0
 21 17  1  0
 22 24  1  0
 22 23  1  0
 22 20  1  0
 25 22  1  0
  1 26  1  1
  2 27  1  0
  2 28  1  0
  3 29  1  0
  3 30  1  0
  4 31  1  0
  4 32  1  0
  5 33  1  6
  6 34  1  0
 12 35  1  0
 12 36  1  0
M  ISO  8  26  13  27  13  28  13  29  13  30  13  31  13  32  13  33  13
M  ISO  1  34  14
M  END
>  <minimizedAffinity>  (1) 
-5.68326235

>  <minimizedRMSD>  (1) 
6.25573206

$$$$
