
     RDKit          3D

 20 21  0  0  0  0  0  0  0  0999 V2000
   38.8330   28.6040   43.1440 C   0  0  0  0  0  0  0  0  0  0  0  0
   38.3260   27.3110   43.3880 C   0  0  0  0  0  0  0  0  0  0  0  0
   37.0480   27.0410   42.8750 C   0  0  0  0  0  0  0  0  0  0  0  0
   36.3910   28.0150   42.1910 N   0  0  0  0  0  0  0  0  0  0  0  0
   36.9220   29.2330   41.9870 C   0  0  0  0  0  0  0  0  0  0  0  0
   38.1570   29.5530   42.4610 N   0  0  0  0  0  0  0  0  0  0  0  0
   36.0540   30.0330   41.2660 O   0  0  0  0  0  0  0  0  0  0  0  0
   36.5460   30.7120   40.1600 C   0  0  0  0  0  0  0  0  0  0  0  0
   36.6590   30.0520   38.9320 C   0  0  0  0  0  0  0  0  0  0  0  0
   37.1400   30.6620   37.7840 C   0  0  0  0  0  0  0  0  0  0  0  0
   37.5300   31.9770   37.8360 C   0  0  0  0  0  0  0  0  0  0  0  0
   37.4120   32.6050   39.0470 C   0  0  0  0  0  0  0  0  0  0  0  0
   36.9450   31.9920   40.1320 N   0  0  0  0  0  0  0  0  0  0  0  0
   39.8323   28.8530   43.5305 H   0  0  0  0  0  0  0  0  0  0  0  0
   38.8992   26.5575   43.9481 H   0  0  0  0  0  0  0  0  0  0  0  0
   36.5842   26.0548   43.0243 H   0  0  0  0  0  0  0  0  0  0  0  0
   36.3512   28.9975   38.8745 H   0  0  0  0  0  0  0  0  0  0  0  0
   37.2084   30.0985   36.8418 H   0  0  0  0  0  0  0  0  0  0  0  0
   37.9178   32.5000   36.9494 H   0  0  0  0  0  0  0  0  0  0  0  0
   37.7156   33.6593   39.1263 H   0  0  0  0  0  0  0  0  0  0  0  0
  1  2  2  0
  3  2  1  0
  4  3  2  0
  5  4  1  0
  5  6  2  0
  6  1  1  0
  7  5  1  0
  8  7  1  0
  9  8  2  0
 10 11  2  0
 10  9  1  0
 11 12  1  0
 12 13  2  0
 13  8  1  0
  1 14  1  0
  2 15  1  0
  3 16  1  0
  9 17  1  0
 10 18  1  0
 11 19  1  0
 12 20  1  0
M  ISO  7  14  14  15  14  16  14  17  14  18  14  19  14  20  14
M  END
>  <minimizedAffinity>  (1) 
-4.07508278

>  <minimizedRMSD>  (1) 
1.1993643

$$$$
