
     RDKit          3D

 42 45  0  0  0  0  0  0  0  0999 V2000
   39.0370   27.9580   43.3680 C   0  0  0  0  0  0  0  0  0  0  0  0
   38.4280   26.6830   43.2640 C   0  0  0  0  0  0  0  0  0  0  0  0
   37.7520   26.4140   42.0780 C   0  0  0  0  0  0  0  0  0  0  0  0
   37.7050   27.3440   41.1130 N   0  0  0  0  0  0  0  0  0  0  0  0
   38.2900   28.5470   41.2360 C   0  0  0  0  0  0  0  0  0  0  0  0
   38.9530   28.8490   42.3620 N   0  0  0  0  0  0  0  0  0  0  0  0
   37.1010   25.1910   41.8360 N   0  0  0  0  0  0  0  0  0  0  0  0
   38.2550   29.5510   40.2250 N   0  0  0  0  0  0  0  0  0  0  0  0
   37.6970   29.2030   39.0420 C   0  0  0  0  0  0  0  0  0  0  0  0
   37.5740   30.0390   37.9500 C   0  0  0  0  0  0  0  0  0  0  0  0
   38.0640   31.3100   38.1090 C   0  0  0  0  0  0  0  0  0  0  0  0
   37.9880   32.1340   37.1570 O   0  0  0  0  0  0  0  0  0  0  0  0
   38.6110   31.6370   39.2820 N   0  0  0  0  0  0  0  0  0  0  0  0
   38.7200   30.8090   40.3300 C   0  0  0  0  0  0  0  0  0  0  0  0
   39.2290   31.1060   41.4280 O   0  0  0  0  0  0  0  0  0  0  0  0
   39.1340   32.9400   39.5010 C   0  0  0  0  0  0  0  0  0  0  0  0
   38.3110   33.9050   40.0610 C   0  0  0  0  0  0  0  0  0  0  0  0
   38.7870   35.1710   40.2840 C   0  0  0  0  0  0  0  0  0  0  0  0
   40.0990   35.4240   39.9290 C   0  0  0  0  0  0  0  0  0  0  0  0
   40.9330   34.4970   39.3780 C   0  0  0  0  0  0  0  0  0  0  0  0
   40.4570   33.2060   39.1470 C   0  0  0  0  0  0  0  0  0  0  0  0
   36.9460   29.5490   36.7080 C   0  0  0  0  0  0  0  0  0  0  0  0
   35.8000   28.7380   36.9680 N   0  0  0  0  0  0  0  0  0  0  0  0
   35.6140   27.3990   36.7710 C   0  0  0  0  0  0  0  0  0  0  0  0
   34.3370   27.0700   37.1730 C   0  0  0  0  0  0  0  0  0  0  0  0
   33.7160   28.1840   37.6200 N   0  0  0  0  0  0  0  0  0  0  0  0
   34.6150   29.1750   37.4870 C   0  0  0  0  0  0  0  0  0  0  0  0
   39.5861   28.2237   44.2834 H   0  0  0  0  0  0  0  0  0  0  0  0
   38.4865   25.9450   44.0776 H   0  0  0  0  0  0  0  0  0  0  0  0
   36.6125   25.0355   40.9426 H   0  0  0  0  0  0  0  0  0  0  0  0
   37.1127   24.4508   42.5521 H   0  0  0  0  0  0  0  0  0  0  0  0
   37.3126   28.1771   38.9431 H   0  0  0  0  0  0  0  0  0  0  0  0
   37.2735   33.6541   40.3270 H   0  0  0  0  0  0  0  0  0  0  0  0
   38.1520   35.9525   40.7267 H   0  0  0  0  0  0  0  0  0  0  0  0
   40.4944   36.4358   40.1018 H   0  0  0  0  0  0  0  0  0  0  0  0
   41.9683   34.7635   39.1188 H   0  0  0  0  0  0  0  0  0  0  0  0
   41.0984   32.4299   38.7040 H   0  0  0  0  0  0  0  0  0  0  0  0
   37.6828   28.9529   36.1495 H   0  0  0  0  0  0  0  0  0  0  0  0
   36.6168   30.4235   36.1276 H   0  0  0  0  0  0  0  0  0  0  0  0
   36.3582   26.7006   36.3605 H   0  0  0  0  0  0  0  0  0  0  0  0
   33.8950   26.0634   37.1359 H   0  0  0  0  0  0  0  0  0  0  0  0
   34.4179   30.2208   37.7652 H   0  0  0  0  0  0  0  0  0  0  0  0
  2  1  2  0
  3  2  1  0
  4  5  1  0
  4  3  2  0
  5  6  2  0
  6  1  1  0
  7  3  1  0
  8 14  1  0
  8  5  1  0
  9  8  1  0
 10 11  1  0
 10  9  2  0
 11 13  1  0
 12 11  2  0
 13 16  1  0
 13 14  1  0
 14 15  2  0
 16 17  2  0
 17 18  1  0
 19 18  2  0
 20 19  1  0
 21 20  2  0
 21 16  1  0
 22 23  1  0
 22 10  1  0
 23 27  1  0
 24 23  1  0
 24 25  2  0
 25 26  1  0
 27 26  2  0
  1 28  1  0
  2 29  1  0
  7 30  1  0
  7 31  1  0
  9 32  1  0
 17 33  1  0
 18 34  1  0
 19 35  1  0
 20 36  1  0
 21 37  1  0
 22 38  1  0
 22 39  1  0
 24 40  1  0
 25 41  1  0
 27 42  1  0
M  ISO  8  28  14  29  14  32  14  33  14  34  14  35  14  36  14  37  14
M  ISO  5  38   8  39   8  40  14  41  14  42  14
M  END
>  <minimizedAffinity>  (1) 
-6.02416229

>  <minimizedRMSD>  (1) 
1.98354697

$$$$
