
     RDKit          3D

 34 37  0  0  1  0  0  0  0  0999 V2000
   35.6430   30.1110   40.5970 C   0  0  0  0  0  0  0  0  0  0  0  0
   36.2020   28.9670   41.2060 C   0  0  0  0  0  0  0  0  0  0  0  0
   37.5380   29.0190   41.6310 C   0  0  0  0  0  0  0  0  0  0  0  0
   38.1740   30.1900   41.4090 N   0  0  0  0  0  0  0  0  0  0  0  0
   37.6450   31.2700   40.8330 C   0  0  0  0  0  0  0  0  0  0  0  0
   36.3570   31.2300   40.4190 N   0  0  0  0  0  0  0  0  0  0  0  0
   38.1170   27.8520   42.2470 C   0  0  0  0  0  0  0  0  0  0  0  0
   38.9490   27.7920   43.3410 C   0  0  0  0  0  0  0  0  0  0  0  0
   39.2600   26.5100   43.5920 N   0  0  0  0  0  0  0  0  0  0  0  0
   38.6620   25.6980   42.7000 C   0  0  0  0  0  0  0  0  0  0  0  0
   38.6330   24.3270   42.4930 C   0  0  0  0  0  0  0  0  0  0  0  0
   37.8970   23.7520   41.4480 C   0  0  0  0  0  0  0  0  0  0  0  0
   37.2080   24.6200   40.6420 C   0  0  0  0  0  0  0  0  0  0  0  0
   37.2250   25.9720   40.8340 C   0  0  0  0  0  0  0  0  0  0  0  0
   37.9540   26.5390   41.8690 C   0  0  0  0  0  0  0  0  0  0  0  0
   38.4600   32.5050   40.6620 C   0  0  1  0  0  0  0  0  0  0  0  0
   39.9700   32.3440   40.5010 C   0  0  0  0  0  0  0  0  0  0  0  0
   39.1120   32.7970   39.3580 C   0  0  1  0  0  0  0  0  0  0  0  0
   39.0880   31.8870   38.1760 C   0  0  0  0  0  0  0  0  0  0  0  0
   39.5380   30.6250   38.6290 F   0  0  0  0  0  0  0  0  0  0  0  0
   37.7970   31.6800   37.7330 F   0  0  0  0  0  0  0  0  0  0  0  0
   39.9520   32.2550   37.1550 F   0  0  0  0  0  0  0  0  0  0  0  0
   34.5961   30.0828   40.2606 H   0  0  0  0  0  0  0  0  0  0  0  0
   35.6033   28.0547   41.3444 H   0  0  0  0  0  0  0  0  0  0  0  0
   39.3037   28.6580   43.9192 H   0  0  0  0  0  0  0  0  0  0  0  0
   39.8700   26.1926   44.3588 H   0  0  0  0  0  0  0  0  0  0  0  0
   39.2038   23.6724   43.1680 H   0  0  0  0  0  0  0  0  0  0  0  0
   37.8737   22.6645   41.2840 H   0  0  0  0  0  0  0  0  0  0  0  0
   36.6183   24.2119   39.8079 H   0  0  0  0  0  0  0  0  0  0  0  0
   36.6513   26.6219   40.1569 H   0  0  0  0  0  0  0  0  0  0  0  0
   37.7874   33.0690   41.3250 H   0  0  0  0  0  0  0  0  0  0  0  0
   40.6569   33.0499   40.9907 H   0  0  0  0  0  0  0  0  0  0  0  0
   40.6943   31.5325   40.6647 H   0  0  0  0  0  0  0  0  0  0  0  0
   39.0195   33.6679   38.6924 H   0  0  0  0  0  0  0  0  0  0  0  0
  1  2  2  0
  2  3  1  0
  3  7  1  0
  4  3  2  0
  5  4  1  0
  6  1  1  0
  6  5  2  0
  7  8  2  0
  8  9  1  0
 10  9  1  0
 11 10  2  0
 12 11  1  0
 13 14  1  0
 13 12  2  0
 14 15  2  0
 15  7  1  0
 15 10  1  0
 16  5  1  0
 17 16  1  0
 18 17  1  0
 18 16  1  0
 19 20  1  0
 19 18  1  0
 21 19  1  0
 22 19  1  0
  1 23  1  0
  2 24  1  0
  8 25  1  0
  9 26  1  0
 11 27  1  0
 12 28  1  0
 13 29  1  0
 14 30  1  0
 16 31  1  1
 17 32  1  0
 17 33  1  0
 18 34  1  6
M  ISO  8  23  14  24  14  25  14  26   9  27  14  28  14  29  14  30  14
M  ISO  4  31  13  32  13  33  13  34  13
M  END
>  <minimizedAffinity>  (1) 
-5.60793734

>  <minimizedRMSD>  (1) 
2.23133516

$$$$
