
     RDKit          3D

 29 30  0  0  0  0  0  0  0  0999 V2000
   36.6280   27.0500   42.9320 C   0  0  0  0  0  0  0  0  0  0  0  0
   39.3250   29.7010   42.6620 C   0  0  0  0  0  0  0  0  0  0  0  0
   38.6600   28.5090   43.0360 C   0  0  0  0  0  0  0  0  0  0  0  0
   37.3850   28.2800   42.5770 C   0  0  0  0  0  0  0  0  0  0  0  0
   36.8320   29.2390   41.7730 N   0  0  0  0  0  0  0  0  0  0  0  0
   37.4840   30.3710   41.4270 C   0  0  0  0  0  0  0  0  0  0  0  0
   38.7120   30.5870   41.8710 N   0  0  0  0  0  0  0  0  0  0  0  0
   37.1130   25.9190   42.1380 C   0  0  0  0  0  0  0  0  0  0  0  0
   37.4450   24.6350   42.3820 C   0  0  0  0  0  0  0  0  0  0  0  0
   37.8770   23.7860   41.4340 C   0  0  0  0  0  0  0  0  0  0  0  0
   37.9400   24.4230   40.1240 C   0  0  0  0  0  0  0  0  0  0  0  0
   37.4040   26.0730   40.3880 S   0  0  0  0  0  0  0  0  0  0  0  0
   38.3600   23.8470   38.8200 C   0  0  0  0  0  0  0  0  0  0  0  0
   39.8200   24.0070   38.5500 C   0  0  0  0  0  0  0  0  0  0  0  0
   38.0430   22.3500   38.7700 C   0  0  0  0  0  0  0  0  0  0  0  0
   36.7678   26.8316   44.0010 H   0  0  0  0  0  0  0  0  0  0  0  0
   35.5601   27.2087   42.7212 H   0  0  0  0  0  0  0  0  0  0  0  0
   40.3456   29.8981   43.0220 H   0  0  0  0  0  0  0  0  0  0  0  0
   39.1577   27.7746   43.6863 H   0  0  0  0  0  0  0  0  0  0  0  0
   36.9949   31.1118   40.7774 H   0  0  0  0  0  0  0  0  0  0  0  0
   37.3575   24.2622   43.4132 H   0  0  0  0  0  0  0  0  0  0  0  0
   38.1500   22.7374   41.6235 H   0  0  0  0  0  0  0  0  0  0  0  0
   37.7980   24.4033   38.0553 H   0  0  0  0  0  0  0  0  0  0  0  0
   40.3649   24.0667   39.5037 H   0  0  0  0  0  0  0  0  0  0  0  0
   40.1831   23.1433   37.9737 H   0  0  0  0  0  0  0  0  0  0  0  0
   39.9874   24.9289   37.9737 H   0  0  0  0  0  0  0  0  0  0  0  0
   37.9601   21.9583   39.7946 H   0  0  0  0  0  0  0  0  0  0  0  0
   37.0919   22.1941   38.2398 H   0  0  0  0  0  0  0  0  0  0  0  0
   38.8492   21.8220   38.2398 H   0  0  0  0  0  0  0  0  0  0  0  0
  2  3  2  0
  4  1  1  0
  4  3  1  0
  5  4  2  0
  6  5  1  0
  6  7  2  0
  7  2  1  0
  8  9  2  0
  8  1  1  0
 10  9  1  0
 11 12  1  0
 11 10  2  0
 12  8  1  0
 13 11  1  0
 14 13  1  0
 15 13  1  0
  1 16  1  0
  1 17  1  0
  2 18  1  0
  3 19  1  0
  6 20  1  0
  9 21  1  0
 10 22  1  0
 13 23  1  0
 14 24  1  0
 14 25  1  0
 14 26  1  0
 15 27  1  0
 15 28  1  0
 15 29  1  0
M  ISO  8  16   8  17   8  18  14  19  14  20  14  21  14  22  14  23   8
M  ISO  6  24   8  25   8  26   8  27   8  28   8  29   8
M  END
>  <minimizedAffinity>  (1) 
-3.72773981

>  <minimizedRMSD>  (1) 
0.405901104

$$$$
