
     RDKit          3D

 39 41  0  0  1  0  0  0  0  0999 V2000
   35.8660   29.5690   40.8040 C   0  0  1  0  0  0  0  0  0  0  0  0
   36.0990   31.0210   40.9530 C   0  0  0  0  0  0  0  0  0  0  0  0
   36.5700   30.4020   39.7100 C   0  0  1  0  0  0  0  0  0  0  0  0
   37.9250   30.1860   39.3550 N   0  0  0  0  0  0  0  0  0  0  0  0
   37.9250   29.5160   38.0150 C   0  0  0  0  0  0  0  0  0  0  0  0
   39.2500   28.9310   37.6780 C   0  0  0  0  0  0  0  0  0  0  0  0
   40.2890   29.7530   38.0920 O   0  0  0  0  0  0  0  0  0  0  0  0
   39.7750   31.0400   38.0910 C   0  0  0  0  0  0  0  0  0  0  0  0
   38.7810   31.2700   39.2560 C   0  0  2  0  0  0  0  0  0  0  0  0
   39.6140   31.8260   40.3140 C   0  0  0  0  0  0  0  0  0  0  0  0
   40.9540   32.3420   39.7720 C   0  0  0  0  0  0  0  0  0  0  0  0
   38.9280   33.0370   40.9240 C   0  0  0  0  0  0  0  0  0  0  0  0
   37.6210   26.5810   42.0320 C   0  0  0  0  0  0  0  0  0  0  0  0
   38.3640   27.0750   43.1260 C   0  0  0  0  0  0  0  0  0  0  0  0
   38.2350   28.4460   43.4270 C   0  0  0  0  0  0  0  0  0  0  0  0
   37.3990   29.2410   42.6480 N   0  0  0  0  0  0  0  0  0  0  0  0
   36.7270   28.6920   41.6240 C   0  0  0  0  0  0  0  0  0  0  0  0
   36.8370   27.3910   41.3240 N   0  0  0  0  0  0  0  0  0  0  0  0
   34.9974   28.8951   40.8420 H   0  0  0  0  0  0  0  0  0  0  0  0
   35.2435   31.7118   40.9226 H   0  0  0  0  0  0  0  0  0  0  0  0
   36.5849   31.6354   41.7253 H   0  0  0  0  0  0  0  0  0  0  0  0
   36.4235   30.6224   38.6423 H   0  0  0  0  0  0  0  0  0  0  0  0
   37.1743   28.7120   38.0212 H   0  0  0  0  0  0  0  0  0  0  0  0
   37.6903   30.2779   37.2571 H   0  0  0  0  0  0  0  0  0  0  0  0
   39.3467   27.9547   38.1755 H   0  0  0  0  0  0  0  0  0  0  0  0
   39.3111   28.8214   36.5852 H   0  0  0  0  0  0  0  0  0  0  0  0
   40.6061   31.7541   38.1874 H   0  0  0  0  0  0  0  0  0  0  0  0
   39.2306   31.1871   37.1466 H   0  0  0  0  0  0  0  0  0  0  0  0
   37.9740   32.0149   39.1944 H   0  0  0  0  0  0  0  0  0  0  0  0
   39.7754   31.0181   41.0429 H   0  0  0  0  0  0  0  0  0  0  0  0
   41.6159   32.5969   40.6128 H   0  0  0  0  0  0  0  0  0  0  0  0
   41.4260   31.5613   39.1574 H   0  0  0  0  0  0  0  0  0  0  0  0
   40.7805   33.2376   39.1574 H   0  0  0  0  0  0  0  0  0  0  0  0
   38.9677   32.9670   42.0211 H   0  0  0  0  0  0  0  0  0  0  0  0
   39.4413   33.9530   40.5963 H   0  0  0  0  0  0  0  0  0  0  0  0
   37.8784   33.0676   40.5963 H   0  0  0  0  0  0  0  0  0  0  0  0
   37.6905   25.5169   41.7621 H   0  0  0  0  0  0  0  0  0  0  0  0
   39.0166   26.4173   43.7190 H   0  0  0  0  0  0  0  0  0  0  0  0
   38.7899   28.8837   44.2699 H   0  0  0  0  0  0  0  0  0  0  0  0
  1  2  1  0
  1 17  1  0
  3  1  1  0
  3  2  1  0
  4  5  1  0
  4  3  1  0
  6  5  1  0
  6  7  1  0
  8  7  1  0
  8  9  1  0
  9  4  1  0
  9 10  1  0
 10 12  1  0
 11 10  1  0
 13 14  2  0
 14 15  1  0
 16 15  2  0
 17 16  1  0
 18 17  2  0
 18 13  1  0
  1 19  1  6
  2 20  1  0
  2 21  1  0
  3 22  1  6
  5 23  1  0
  5 24  1  0
  6 25  1  0
  6 26  1  0
  8 27  1  0
  8 28  1  0
  9 29  1  6
 10 30  1  0
 11 31  1  0
 11 32  1  0
 11 33  1  0
 12 34  1  0
 12 35  1  0
 12 36  1  0
 13 37  1  0
 14 38  1  0
 15 39  1  0
M  ISO  8  19  13  20  13  21  13  22  13  23  13  24  13  25  13  26  13
M  ISO  8  27  13  28  13  29  13  30   8  31   8  32   8  33   8  34   8
M  ISO  5  35   8  36   8  37  14  38  14  39  14
M  END
>  <minimizedAffinity>  (1) 
-4.29112768

>  <minimizedRMSD>  (1) 
1.5962553

$$$$
