
     RDKit          3D

 49 52  0  0  1  0  0  0  0  0999 V2000
   39.0040   35.5890   40.1810 C   0  0  0  0  0  0  0  0  0  0  0  0
   40.3460   35.9540   40.3430 C   0  0  0  0  0  0  0  0  0  0  0  0
   41.2560   34.9080   40.6100 C   0  0  0  0  0  0  0  0  0  0  0  0
   40.7430   33.6950   40.6760 N   0  0  0  0  0  0  0  0  0  0  0  0
   39.4980   33.3060   40.5310 C   0  0  0  0  0  0  0  0  0  0  0  0
   38.6540   34.3100   40.2810 N   0  0  0  0  0  0  0  0  0  0  0  0
   38.8300   32.0160   40.5860 C   0  0  0  0  0  0  0  0  0  0  0  0
   38.7320   31.2740   41.7100 N   0  0  0  0  0  0  0  0  0  0  0  0
   38.1310   30.0980   41.7930 C   0  0  0  0  0  0  0  0  0  0  0  0
   37.5650   29.5490   40.7380 N   0  0  0  0  0  0  0  0  0  0  0  0
   37.5940   30.1900   39.5460 C   0  0  0  0  0  0  0  0  0  0  0  0
   37.0010   29.6200   38.4330 C   0  0  0  0  0  0  0  0  0  0  0  0
   37.0170   30.2470   37.2300 C   0  0  0  0  0  0  0  0  0  0  0  0
   37.6600   31.5090   37.1360 C   0  0  0  0  0  0  0  0  0  0  0  0
   38.2230   32.0060   38.2850 C   0  0  0  0  0  0  0  0  0  0  0  0
   38.2280   31.4130   39.5010 C   0  0  0  0  0  0  0  0  0  0  0  0
   42.5410   35.1480   40.7810 O   0  0  0  0  0  0  0  0  0  0  0  0
   43.2510   34.9730   41.9970 C   0  0  2  0  0  0  0  0  0  0  0  0
   43.0330   36.3370   42.7590 C   0  0  0  0  0  0  0  0  0  0  0  0
   44.7060   34.7890   41.7690 C   0  0  0  0  0  0  0  0  0  0  0  0
   45.2730   34.2670   43.0060 N   0  0  0  0  0  0  0  0  0  0  0  0
   46.5580   34.4940   43.4160 C   0  0  0  0  0  0  0  0  0  0  0  0
   46.7720   33.8780   44.5940 N   0  0  0  0  0  0  0  0  0  0  0  0
   45.5960   33.2630   44.9120 C   0  0  0  0  0  0  0  0  0  0  0  0
   44.6960   33.5170   43.9220 N   0  0  0  0  0  0  0  0  0  0  0  0
   45.2040   32.4300   46.0850 C   0  0  0  0  0  0  0  0  0  0  0  0
   44.4600   31.1970   45.6220 C   0  0  0  0  0  0  0  0  0  0  0  0
   46.4110   31.9870   46.8990 C   0  0  0  0  0  0  0  0  0  0  0  0
   38.2435   36.3559   39.9722 H   0  0  0  0  0  0  0  0  0  0  0  0
   40.6742   37.0011   40.2663 H   0  0  0  0  0  0  0  0  0  0  0  0
   38.1037   29.5708   42.7580 H   0  0  0  0  0  0  0  0  0  0  0  0
   36.5079   28.6411   38.5254 H   0  0  0  0  0  0  0  0  0  0  0  0
   36.5434   29.7888   36.3492 H   0  0  0  0  0  0  0  0  0  0  0  0
   37.7050   32.0628   36.1867 H   0  0  0  0  0  0  0  0  0  0  0  0
   38.7199   32.9845   38.2095 H   0  0  0  0  0  0  0  0  0  0  0  0
   42.8992   34.0835   42.5401 H   0  0  0  0  0  0  0  0  0  0  0  0
   43.0614   36.1594   43.8442 H   0  0  0  0  0  0  0  0  0  0  0  0
   43.8297   37.0431   42.4821 H   0  0  0  0  0  0  0  0  0  0  0  0
   42.0559   36.7596   42.4821 H   0  0  0  0  0  0  0  0  0  0  0  0
   44.8717   34.0759   40.9480 H   0  0  0  0  0  0  0  0  0  0  0  0
   45.1817   35.7416   41.4927 H   0  0  0  0  0  0  0  0  0  0  0  0
   47.3028   35.0890   42.8672 H   0  0  0  0  0  0  0  0  0  0  0  0
   44.5602   33.0548   46.7215 H   0  0  0  0  0  0  0  0  0  0  0  0
   44.1157   30.6263   46.4971 H   0  0  0  0  0  0  0  0  0  0  0  0
   43.5927   31.4980   45.0161 H   0  0  0  0  0  0  0  0  0  0  0  0
   45.1307   30.5700   45.0161 H   0  0  0  0  0  0  0  0  0  0  0  0
   46.1810   32.0714   47.9714 H   0  0  0  0  0  0  0  0  0  0  0  0
   46.6528   30.9415   46.6570 H   0  0  0  0  0  0  0  0  0  0  0  0
   47.2717   32.6278   46.6570 H   0  0  0  0  0  0  0  0  0  0  0  0
  1  6  2  0
  1  2  1  0
  2  3  2  0
  3  4  1  0
  3 17  1  0
  5  7  1  0
  5  4  2  0
  6  5  1  0
  7  8  2  0
  8  9  1  0
 10  9  2  0
 11 10  1  0
 12 11  2  0
 13 12  1  0
 14 13  2  0
 14 15  1  0
 15 16  2  0
 16 11  1  0
 16  7  1  0
 17 18  1  0
 18 19  1  0
 20 18  1  0
 20 21  1  0
 21 22  1  0
 21 25  1  0
 22 23  2  0
 23 24  1  0
 24 26  1  0
 25 24  2  0
 26 28  1  0
 27 26  1  0
  1 29  1  0
  2 30  1  0
  9 31  1  0
 12 32  1  0
 13 33  1  0
 14 34  1  0
 15 35  1  0
 18 36  1  1
 19 37  1  0
 19 38  1  0
 19 39  1  0
 20 40  1  0
 20 41  1  0
 22 42  1  0
 26 43  1  0
 27 44  1  0
 27 45  1  0
 27 46  1  0
 28 47  1  0
 28 48  1  0
 28 49  1  0
M  ISO  8  29  14  30  14  31  14  32  14  33  14  34  14  35  14  36   8
M  ISO  8  37   8  38   8  39   8  40   8  41   8  42  14  43   8  44   8
M  ISO  5  45   8  46   8  47   8  48   8  49   8
M  END
>  <minimizedAffinity>  (1) 
-6.24314404

>  <minimizedRMSD>  (1) 
0.471522927

$$$$
