
     RDKit          3D

 28 29  0  0  0  0  0  0  0  0999 V2000
   37.1800   30.2400   40.3800 C   0  0  0  0  0  0  0  0  0  0  0  0
   37.2060   31.6120   40.5600 C   0  0  0  0  0  0  0  0  0  0  0  0
   37.2000   32.4330   39.4510 C   0  0  0  0  0  0  0  0  0  0  0  0
   37.1670   31.8200   38.1970 C   0  0  0  0  0  0  0  0  0  0  0  0
   37.1410   30.4580   38.0310 C   0  0  0  0  0  0  0  0  0  0  0  0
   37.1490   29.7010   39.1440 N   0  0  0  0  0  0  0  0  0  0  0  0
   38.0450   28.8720   43.6700 C   0  0  0  0  0  0  0  0  0  0  0  0
   37.2010   27.7530   43.7860 C   0  0  0  0  0  0  0  0  0  0  0  0
   36.3250   27.4730   42.7110 C   0  0  0  0  0  0  0  0  0  0  0  0
   36.3610   28.3060   41.6420 N   0  0  0  0  0  0  0  0  0  0  0  0
   37.1860   29.3740   41.5640 C   0  0  0  0  0  0  0  0  0  0  0  0
   38.0110   29.6370   42.5760 N   0  0  0  0  0  0  0  0  0  0  0  0
   37.1050   29.8360   36.6740 C   0  0  0  0  0  0  0  0  0  0  0  0
   35.7420   29.3020   36.3100 C   0  0  0  0  0  0  0  0  0  0  0  0
   38.0760   28.6740   36.6620 C   0  0  0  0  0  0  0  0  0  0  0  0
   37.2311   32.0417   41.5723 H   0  0  0  0  0  0  0  0  0  0  0  0
   37.2204   33.5283   39.5510 H   0  0  0  0  0  0  0  0  0  0  0  0
   37.1616   32.4580   37.3010 H   0  0  0  0  0  0  0  0  0  0  0  0
   38.7388   29.1191   44.4871 H   0  0  0  0  0  0  0  0  0  0  0  0
   37.2213   27.1165   44.6829 H   0  0  0  0  0  0  0  0  0  0  0  0
   35.6408   26.6122   42.7414 H   0  0  0  0  0  0  0  0  0  0  0  0
   37.3686   30.6158   35.9443 H   0  0  0  0  0  0  0  0  0  0  0  0
   35.1777   29.0809   37.2280 H   0  0  0  0  0  0  0  0  0  0  0  0
   35.1996   30.0541   35.7183 H   0  0  0  0  0  0  0  0  0  0  0  0
   35.8548   28.3816   35.7183 H   0  0  0  0  0  0  0  0  0  0  0  0
   38.3164   28.3863   37.6962 H   0  0  0  0  0  0  0  0  0  0  0  0
   37.6193   27.8199   36.1406 H   0  0  0  0  0  0  0  0  0  0  0  0
   38.9977   28.9717   36.1406 H   0  0  0  0  0  0  0  0  0  0  0  0
  1  2  2  0
  1 11  1  0
  3  2  1  0
  4  3  2  0
  5  4  1  0
  5  6  2  0
  6  1  1  0
  7  8  2  0
  9  8  1  0
 10  9  2  0
 11 10  1  0
 11 12  2  0
 12  7  1  0
 13  5  1  0
 14 13  1  0
 15 13  1  0
  2 16  1  0
  3 17  1  0
  4 18  1  0
  7 19  1  0
  8 20  1  0
  9 21  1  0
 13 22  1  0
 14 23  1  0
 14 24  1  0
 14 25  1  0
 15 26  1  0
 15 27  1  0
 15 28  1  0
M  ISO  8  16  14  17  14  18  14  19  14  20  14  21  14  22   8  23   8
M  ISO  5  24   8  25   8  26   8  27   8  28   8
M  END
>  <minimizedAffinity>  (1) 
-4.28141308

>  <minimizedRMSD>  (1) 
0.727192461

$$$$
