
     RDKit          3D

 43 46  0  0  0  0  0  0  0  0999 V2000
   37.5960   28.1950   41.2980 C   0  0  0  0  0  0  0  0  0  0  0  0
   36.3990   27.9160   40.6600 C   0  0  0  0  0  0  0  0  0  0  0  0
   35.9530   29.0690   40.1210 N   0  0  0  0  0  0  0  0  0  0  0  0
   36.7870   30.0810   40.3690 C   0  0  0  0  0  0  0  0  0  0  0  0
   36.6840   31.3990   39.9930 C   0  0  0  0  0  0  0  0  0  0  0  0
   37.7220   32.2540   40.3990 C   0  0  0  0  0  0  0  0  0  0  0  0
   38.7910   31.7620   41.1460 C   0  0  0  0  0  0  0  0  0  0  0  0
   38.8750   30.4390   41.5130 C   0  0  0  0  0  0  0  0  0  0  0  0
   37.8490   29.5740   41.1160 C   0  0  0  0  0  0  0  0  0  0  0  0
   39.4930   26.6960   44.0370 C   0  0  0  0  0  0  0  0  0  0  0  0
   40.0810   25.5440   43.4170 C   0  0  0  0  0  0  0  0  0  0  0  0
   39.7990   25.3220   42.0640 C   0  0  0  0  0  0  0  0  0  0  0  0
   38.9980   26.1940   41.4200 N   0  0  0  0  0  0  0  0  0  0  0  0
   38.4570   27.2720   42.0260 C   0  0  0  0  0  0  0  0  0  0  0  0
   38.6990   27.5350   43.3380 N   0  0  0  0  0  0  0  0  0  0  0  0
   34.7100   29.0750   39.3880 C   0  0  0  0  0  0  0  0  0  0  0  0
   34.7150   28.1490   38.1910 C   0  0  0  0  0  0  0  0  0  0  0  0
   33.8670   28.7660   37.1690 N   0  0  0  0  0  0  0  0  0  0  0  0
   32.6510   29.2520   37.4810 C   0  0  0  0  0  0  0  0  0  0  0  0
   31.8560   29.8320   36.5140 C   0  0  0  0  0  0  0  0  0  0  0  0
   30.5080   30.3920   36.7670 C   0  0  0  0  0  0  0  0  0  0  0  0
   32.3580   29.8920   35.2280 C   0  0  0  0  0  0  0  0  0  0  0  0
   31.7520   30.3900   34.2440 O   0  0  0  0  0  0  0  0  0  0  0  0
   33.5750   29.4040   34.9240 N   0  0  0  0  0  0  0  0  0  0  0  0
   34.3310   28.8420   35.8870 C   0  0  0  0  0  0  0  0  0  0  0  0
   35.4800   28.3660   35.6670 O   0  0  0  0  0  0  0  0  0  0  0  0
   35.9037   26.9355   40.6033 H   0  0  0  0  0  0  0  0  0  0  0  0
   35.8310   31.7661   39.4034 H   0  0  0  0  0  0  0  0  0  0  0  0
   37.6910   33.3190   40.1256 H   0  0  0  0  0  0  0  0  0  0  0  0
   39.5913   32.4523   41.4511 H   0  0  0  0  0  0  0  0  0  0  0  0
   39.7268   30.0704   42.1034 H   0  0  0  0  0  0  0  0  0  0  0  0
   39.6922   26.8993   45.0995 H   0  0  0  0  0  0  0  0  0  0  0  0
   40.7297   24.8601   43.9839 H   0  0  0  0  0  0  0  0  0  0  0  0
   40.2223   24.4540   41.5373 H   0  0  0  0  0  0  0  0  0  0  0  0
   33.9029   28.7629   40.0672 H   0  0  0  0  0  0  0  0  0  0  0  0
   34.5613   30.0966   39.0083 H   0  0  0  0  0  0  0  0  0  0  0  0
   35.7400   28.0298   37.8099 H   0  0  0  0  0  0  0  0  0  0  0  0
   34.3385   27.1522   38.4642 H   0  0  0  0  0  0  0  0  0  0  0  0
   32.2876   29.1860   38.5172 H   0  0  0  0  0  0  0  0  0  0  0  0
   30.3379   30.4627   37.8515 H   0  0  0  0  0  0  0  0  0  0  0  0
   30.4371   31.3940   36.3187 H   0  0  0  0  0  0  0  0  0  0  0  0
   29.7480   29.7352   36.3187 H   0  0  0  0  0  0  0  0  0  0  0  0
   33.9273   29.4601   33.9577 H   0  0  0  0  0  0  0  0  0  0  0  0
  1 14  1  0
  2  1  2  0
  3  4  1  0
  3  2  1  0
  4  9  2  0
  5  4  1  0
  5  6  2  0
  6  7  1  0
  7  8  2  0
  9  1  1  0
  9  8  1  0
 11 10  2  0
 12 11  1  0
 13 14  1  0
 13 12  2  0
 14 15  2  0
 15 10  1  0
 16  3  1  0
 17 16  1  0
 18 19  1  0
 18 17  1  0
 20 21  1  0
 20 19  2  0
 22 20  1  0
 23 22  2  0
 24 22  1  0
 24 25  1  0
 25 18  1  0
 26 25  2  0
  2 27  1  0
  5 28  1  0
  6 29  1  0
  7 30  1  0
  8 31  1  0
 10 32  1  0
 11 33  1  0
 12 34  1  0
 16 35  1  0
 16 36  1  0
 17 37  1  0
 17 38  1  0
 19 39  1  0
 21 40  1  0
 21 41  1  0
 21 42  1  0
 24 43  1  0
M  ISO  8  27  14  28  14  29  14  30  14  31  14  32  14  33  14  34  14
M  ISO  8  35   8  36   8  37   8  38   8  39  14  40   8  41   8  42   8
M  ISO  1  43   9
M  END
>  <minimizedAffinity>  (1) 
-5.3279624

>  <minimizedRMSD>  (1) 
1.63811767

$$$$
