
     RDKit          3D

 48 51  0  0  1  0  0  0  0  0999 V2000
   39.0570   30.7300   41.8420 C   0  0  0  0  0  0  0  0  0  0  0  0
   38.6480   29.5890   42.5130 C   0  0  0  0  0  0  0  0  0  0  0  0
   37.3810   29.0220   42.4640 C   0  0  0  0  0  0  0  0  0  0  0  0
   36.5360   29.7060   41.6680 N   0  0  0  0  0  0  0  0  0  0  0  0
   36.8700   30.8010   41.0030 C   0  0  0  0  0  0  0  0  0  0  0  0
   38.0990   31.2830   41.1010 N   0  0  0  0  0  0  0  0  0  0  0  0
   40.3330   31.3680   41.8620 C   0  0  0  0  0  0  0  0  0  0  0  0
   41.2800   30.9290   42.7960 C   0  0  0  0  0  0  0  0  0  0  0  0
   42.5300   31.4800   42.9560 C   0  0  0  0  0  0  0  0  0  0  0  0
   42.8960   32.5290   42.1640 C   0  0  0  0  0  0  0  0  0  0  0  0
   42.0080   33.0170   41.2140 C   0  0  0  0  0  0  0  0  0  0  0  0
   42.3620   34.0600   40.4050 C   0  0  0  0  0  0  0  0  0  0  0  0
   41.5250   34.5760   39.4390 C   0  0  0  0  0  0  0  0  0  0  0  0
   40.2940   33.9530   39.3490 C   0  0  0  0  0  0  0  0  0  0  0  0
   39.9810   32.9160   40.1760 C   0  0  0  0  0  0  0  0  0  0  0  0
   40.8050   32.4100   41.1300 C   0  0  0  0  0  0  0  0  0  0  0  0
   37.0570   27.8210   43.2640 C   0  0  2  0  0  0  0  0  0  0  0  0
   36.8120   28.1310   44.7180 C   0  0  0  0  0  0  0  0  0  0  0  0
   38.1670   26.8030   43.0790 C   0  0  0  0  0  0  0  0  0  0  0  0
   37.8620   25.6760   42.2910 N   0  0  0  0  0  0  0  0  0  0  0  0
   36.9930   25.3010   41.3530 C   0  0  0  0  0  0  0  0  0  0  0  0
   36.9090   24.1090   40.6840 C   0  0  0  0  0  0  0  0  0  0  0  0
   35.8480   23.9050   39.6680 C   0  0  0  0  0  0  0  0  0  0  0  0
   37.8240   23.1250   40.9800 C   0  0  0  0  0  0  0  0  0  0  0  0
   37.7590   22.0290   40.3760 O   0  0  0  0  0  0  0  0  0  0  0  0
   38.7390   23.4200   41.9160 N   0  0  0  0  0  0  0  0  0  0  0  0
   38.7280   24.6260   42.5110 C   0  0  0  0  0  0  0  0  0  0  0  0
   39.6800   24.6970   43.3670 O   0  0  0  0  0  0  0  0  0  0  0  0
   39.3960   29.0854   43.1430 H   0  0  0  0  0  0  0  0  0  0  0  0
   36.1276   31.3093   40.3702 H   0  0  0  0  0  0  0  0  0  0  0  0
   41.0051   30.0855   43.4463 H   0  0  0  0  0  0  0  0  0  0  0  0
   43.2238   31.0812   43.7107 H   0  0  0  0  0  0  0  0  0  0  0  0
   43.8900   32.9862   42.2774 H   0  0  0  0  0  0  0  0  0  0  0  0
   43.3590   34.5075   40.5303 H   0  0  0  0  0  0  0  0  0  0  0  0
   41.8136   35.4168   38.7911 H   0  0  0  0  0  0  0  0  0  0  0  0
   39.5615   34.2971   38.6040 H   0  0  0  0  0  0  0  0  0  0  0  0
   38.9887   32.4551   40.0627 H   0  0  0  0  0  0  0  0  0  0  0  0
   36.1071   27.4028   42.8997 H   0  0  0  0  0  0  0  0  0  0  0  0
   37.3729   27.4213   45.3438 H   0  0  0  0  0  0  0  0  0  0  0  0
   37.1468   29.1559   44.9359 H   0  0  0  0  0  0  0  0  0  0  0  0
   35.7375   28.0421   44.9359 H   0  0  0  0  0  0  0  0  0  0  0  0
   39.0181   27.3183   42.6098 H   0  0  0  0  0  0  0  0  0  0  0  0
   38.3700   26.4079   44.0853 H   0  0  0  0  0  0  0  0  0  0  0  0
   36.2387   26.0529   41.0780 H   0  0  0  0  0  0  0  0  0  0  0  0
   34.8880   23.7204   40.1723 H   0  0  0  0  0  0  0  0  0  0  0  0
   35.7649   24.8036   39.0391 H   0  0  0  0  0  0  0  0  0  0  0  0
   36.1041   23.0396   39.0391 H   0  0  0  0  0  0  0  0  0  0  0  0
   39.4500   22.7226   42.1789 H   0  0  0  0  0  0  0  0  0  0  0  0
  1  7  1  0
  1  2  2  0
  3  2  1  0
  3 17  1  0
  4  3  2  0
  5  6  2  0
  5  4  1  0
  6  1  1  0
  7  8  2  0
  8  9  1  0
 10  9  2  0
 11 10  1  0
 12 11  2  0
 13 12  1  0
 14 13  2  0
 14 15  1  0
 15 16  2  0
 16 11  1  0
 16  7  1  0
 17 18  1  0
 19 17  1  0
 20 27  1  0
 20 19  1  0
 21 20  1  0
 22 24  1  0
 22 21  2  0
 23 22  1  0
 24 26  1  0
 25 24  2  0
 26 27  1  0
 27 28  2  0
  2 29  1  0
  5 30  1  0
  8 31  1  0
  9 32  1  0
 10 33  1  0
 12 34  1  0
 13 35  1  0
 14 36  1  0
 15 37  1  0
 17 38  1  6
 18 39  1  0
 18 40  1  0
 18 41  1  0
 19 42  1  0
 19 43  1  0
 21 44  1  0
 23 45  1  0
 23 46  1  0
 23 47  1  0
 26 48  1  0
M  END
>  <minimizedAffinity>  (1) 
-7.20270586

>  <minimizedRMSD>  (1) 
1.85065973

$$$$
