
     RDKit          3D

 42 44  0  0  1  0  0  0  0  0999 V2000
   37.0250   25.3840   41.3160 C   0  0  2  0  0  0  0  0  0  0  0  0
   36.6970   23.9960   41.1240 C   0  0  0  0  0  0  0  0  0  0  0  0
   35.8820   23.9500   39.8210 C   0  0  0  0  0  0  0  0  0  0  0  0
   36.2560   25.2110   39.0820 C   0  0  0  0  0  0  0  0  0  0  0  0
   37.3960   25.8400   39.8480 C   0  0  1  0  0  0  0  0  0  0  0  0
   39.3300   24.8200   42.2960 C   0  0  0  0  0  0  0  0  0  0  0  0
   38.1660   25.6740   42.1910 C   0  0  0  0  0  0  0  0  0  0  0  0
   38.0450   26.8100   42.9740 C   0  0  0  0  0  0  0  0  0  0  0  0
   39.0670   27.0930   43.8400 N   0  0  0  0  0  0  0  0  0  0  0  0
   40.1950   26.2610   43.9350 C   0  0  0  0  0  0  0  0  0  0  0  0
   40.3100   25.1110   43.1460 N   0  0  0  0  0  0  0  0  0  0  0  0
   41.2420   26.6070   44.8460 N   0  0  0  0  0  0  0  0  0  0  0  0
   37.0710   27.8470   43.1870 C   0  0  0  0  0  0  0  0  0  0  0  0
   37.6800   29.2130   42.8940 C   0  0  0  0  0  0  0  0  0  0  0  0
   36.7420   27.9150   44.7080 C   0  0  0  0  0  0  0  0  0  0  0  0
   37.1530   27.2930   39.6310 C   0  0  0  0  0  0  0  0  0  0  0  0
   35.9140   27.8450   39.7040 N   0  0  0  0  0  0  0  0  0  0  0  0
   36.0350   29.1290   39.4680 O   0  0  0  0  0  0  0  0  0  0  0  0
   37.2880   29.3940   39.2540 C   0  0  0  0  0  0  0  0  0  0  0  0
   38.0020   28.2770   39.3490 N   0  0  0  0  0  0  0  0  0  0  0  0
   37.7500   30.7910   38.9530 C   0  0  0  0  0  0  0  0  0  0  0  0
   37.5610   31.5820   40.0550 F   0  0  0  0  0  0  0  0  0  0  0  0
   39.0940   30.7900   38.6120 F   0  0  0  0  0  0  0  0  0  0  0  0
   37.0190   31.3210   37.9010 F   0  0  0  0  0  0  0  0  0  0  0  0
   36.1871   25.8950   41.8129 H   0  0  0  0  0  0  0  0  0  0  0  0
   37.6121   23.3932   41.0279 H   0  0  0  0  0  0  0  0  0  0  0  0
   36.1342   23.5853   41.9753 H   0  0  0  0  0  0  0  0  0  0  0  0
   36.1484   23.0617   39.2294 H   0  0  0  0  0  0  0  0  0  0  0  0
   34.8005   23.8883   40.0120 H   0  0  0  0  0  0  0  0  0  0  0  0
   36.5751   24.9696   38.0573 H   0  0  0  0  0  0  0  0  0  0  0  0
   35.3995   25.8977   39.0117 H   0  0  0  0  0  0  0  0  0  0  0  0
   38.4389   25.5947   39.5987 H   0  0  0  0  0  0  0  0  0  0  0  0
   39.4045   23.9212   41.6662 H   0  0  0  0  0  0  0  0  0  0  0  0
   42.0747   26.0060   44.9258 H   0  0  0  0  0  0  0  0  0  0  0  0
   41.1633   27.4571   45.4222 H   0  0  0  0  0  0  0  0  0  0  0  0
   36.2026   27.6272   42.5487 H   0  0  0  0  0  0  0  0  0  0  0  0
   37.9077   29.7237   43.8413 H   0  0  0  0  0  0  0  0  0  0  0  0
   38.6062   29.0849   42.3146 H   0  0  0  0  0  0  0  0  0  0  0  0
   36.9656   29.8163   42.3146 H   0  0  0  0  0  0  0  0  0  0  0  0
   37.6563   27.7260   45.2897 H   0  0  0  0  0  0  0  0  0  0  0  0
   36.3505   28.9130   44.9542 H   0  0  0  0  0  0  0  0  0  0  0  0
   35.9869   27.1539   44.9542 H   0  0  0  0  0  0  0  0  0  0  0  0
  1  7  1  0
  2  1  1  0
  3  2  1  0
  4  3  1  0
  4  5  1  0
  5  1  1  0
  6 11  2  0
  7  6  1  0
  7  8  2  0
  8 13  1  0
  8  9  1  0
  9 10  2  0
 10 12  1  0
 11 10  1  0
 13 15  1  0
 14 13  1  0
 16 17  2  0
 16  5  1  0
 18 17  1  0
 19 20  2  0
 19 18  1  0
 20 16  1  0
 21 19  1  0
 21 22  1  0
 23 21  1  0
 24 21  1  0
  1 25  1  1
  2 26  1  0
  2 27  1  0
  3 28  1  0
  3 29  1  0
  4 30  1  0
  4 31  1  0
  5 32  1  6
  6 33  1  0
 12 34  1  0
 12 35  1  0
 13 36  1  0
 14 37  1  0
 14 38  1  0
 14 39  1  0
 15 40  1  0
 15 41  1  0
 15 42  1  0
M  ISO  8  25  13  26  13  27  13  28  13  29  13  30  13  31  13  32  13
M  ISO  8  33  14  36   8  37   8  38   8  39   8  40   8  41   8  42   8
M  END
>  <minimizedAffinity>  (1) 
-6.25119925

>  <minimizedRMSD>  (1) 
5.1531167

$$$$
