
     RDKit          3D

 43 46  0  0  1  0  0  0  0  0999 V2000
   35.9940   30.6600   40.8940 C   0  0  0  0  0  0  0  0  0  0  0  0
   36.6920   29.6080   41.5070 C   0  0  0  0  0  0  0  0  0  0  0  0
   38.0830   29.6390   41.5110 C   0  0  0  0  0  0  0  0  0  0  0  0
   38.6740   30.7000   40.9160 N   0  0  0  0  0  0  0  0  0  0  0  0
   37.9930   31.7040   40.3310 C   0  0  0  0  0  0  0  0  0  0  0  0
   36.6410   31.6790   40.3230 N   0  0  0  0  0  0  0  0  0  0  0  0
   38.8170   28.5530   42.1340 C   0  0  0  0  0  0  0  0  0  0  0  0
   39.9820   28.6210   42.8680 C   0  0  0  0  0  0  0  0  0  0  0  0
   40.3240   27.3690   43.2620 N   0  0  0  0  0  0  0  0  0  0  0  0
   39.4250   26.4770   42.8130 C   0  0  0  0  0  0  0  0  0  0  0  0
   39.2910   25.1030   42.9190 C   0  0  0  0  0  0  0  0  0  0  0  0
   38.2320   24.4170   42.3390 C   0  0  0  0  0  0  0  0  0  0  0  0
   37.3140   25.1760   41.6450 C   0  0  0  0  0  0  0  0  0  0  0  0
   37.4330   26.5390   41.5320 C   0  0  0  0  0  0  0  0  0  0  0  0
   38.4830   27.2150   42.1080 C   0  0  0  0  0  0  0  0  0  0  0  0
   38.7290   32.8500   39.6990 C   0  0  1  0  0  0  0  0  0  0  0  0
   38.3840   34.2510   40.1950 C   0  0  0  0  0  0  0  0  0  0  0  0
   39.6900   33.6180   40.5440 C   0  0  2  0  0  0  0  0  0  0  0  0
   40.9460   34.1860   39.9840 C   0  0  0  0  0  0  0  0  0  0  0  0
   40.7150   35.6770   39.7790 C   0  0  0  0  0  0  0  0  0  0  0  0
   42.1760   33.9600   40.8200 C   0  0  0  0  0  0  0  0  0  0  0  0
   41.2130   33.5500   38.6360 C   0  0  0  0  0  0  0  0  0  0  0  0
   34.8942   30.6448   40.8837 H   0  0  0  0  0  0  0  0  0  0  0  0
   36.1492   28.7740   41.9758 H   0  0  0  0  0  0  0  0  0  0  0  0
   40.5422   29.5397   43.0966 H   0  0  0  0  0  0  0  0  0  0  0  0
   41.1543   27.1354   43.8250 H   0  0  0  0  0  0  0  0  0  0  0  0
   40.0480   24.5363   43.4809 H   0  0  0  0  0  0  0  0  0  0  0  0
   38.1310   23.3253   42.4286 H   0  0  0  0  0  0  0  0  0  0  0  0
   36.4598   24.6740   41.1670 H   0  0  0  0  0  0  0  0  0  0  0  0
   36.6733   27.1016   40.9695 H   0  0  0  0  0  0  0  0  0  0  0  0
   38.7830   32.3506   38.7204 H   0  0  0  0  0  0  0  0  0  0  0  0
   38.3502   35.0938   39.4890 H   0  0  0  0  0  0  0  0  0  0  0  0
   37.5546   34.6974   40.7631 H   0  0  0  0  0  0  0  0  0  0  0  0
   40.2251   33.3870   41.4769 H   0  0  0  0  0  0  0  0  0  0  0  0
   40.6380   36.1740   40.7573 H   0  0  0  0  0  0  0  0  0  0  0  0
   41.5576   36.1046   39.2158 H   0  0  0  0  0  0  0  0  0  0  0  0
   39.7825   35.8295   39.2158 H   0  0  0  0  0  0  0  0  0  0  0  0
   41.9089   34.0091   41.8860 H   0  0  0  0  0  0  0  0  0  0  0  0
   42.5969   32.9695   40.5927 H   0  0  0  0  0  0  0  0  0  0  0  0
   42.9216   34.7362   40.5927 H   0  0  0  0  0  0  0  0  0  0  0  0
   41.6350   32.5447   38.7820 H   0  0  0  0  0  0  0  0  0  0  0  0
   40.2708   33.4740   38.0734 H   0  0  0  0  0  0  0  0  0  0  0  0
   41.9271   34.1693   38.0734 H   0  0  0  0  0  0  0  0  0  0  0  0
  1  2  2  0
  2  3  1  0
  3  7  1  0
  4  3  2  0
  5  4  1  0
  6  5  2  0
  6  1  1  0
  7  8  2  0
  8  9  1  0
 10 11  2  0
 10  9  1  0
 12 11  1  0
 13 12  2  0
 14 13  1  0
 14 15  2  0
 15  7  1  0
 15 10  1  0
 16 17  1  0
 16  5  1  0
 16 18  1  0
 17 18  1  0
 19 18  1  0
 19 21  1  0
 20 19  1  0
 22 19  1  0
  1 23  1  0
  2 24  1  0
  8 25  1  0
  9 26  1  0
 11 27  1  0
 12 28  1  0
 13 29  1  0
 14 30  1  0
 16 31  1  6
 17 32  1  0
 17 33  1  0
 18 34  1  1
 20 35  1  0
 20 36  1  0
 20 37  1  0
 21 38  1  0
 21 39  1  0
 21 40  1  0
 22 41  1  0
 22 42  1  0
 22 43  1  0
M  ISO  8  23  14  24  14  25  14  26   9  27  14  28  14  29  14  30  14
M  ISO  8  31  13  32  13  33  13  34  13  35   8  36   8  37   8  38   8
M  ISO  5  39   8  40   8  41   8  42   8  43   8
M  END
>  <minimizedAffinity>  (1) 
-5.84712744

>  <minimizedRMSD>  (1) 
1.10984969

$$$$
