
     RDKit          3D

 39 42  0  0  0  0  0  0  0  0999 V2000
   36.6020   29.0810   38.5510 C   0  0  0  0  0  0  0  0  0  0  0  0
   37.6160   29.7280   39.3280 C   0  0  0  0  0  0  0  0  0  0  0  0
   38.2970   30.7850   38.8040 C   0  0  0  0  0  0  0  0  0  0  0  0
   37.9600   31.1710   37.5340 N   0  0  0  0  0  0  0  0  0  0  0  0
   36.9960   30.5480   36.8120 C   0  0  0  0  0  0  0  0  0  0  0  0
   36.3140   29.5010   37.3180 N   0  0  0  0  0  0  0  0  0  0  0  0
   39.3450   31.5370   39.4870 C   0  0  0  0  0  0  0  0  0  0  0  0
   40.4610   31.4170   40.1460 N   0  0  0  0  0  0  0  0  0  0  0  0
   40.9330   32.5470   40.5180 O   0  0  0  0  0  0  0  0  0  0  0  0
   40.1780   33.5170   40.1420 C   0  0  0  0  0  0  0  0  0  0  0  0
   39.2100   32.8930   39.5130 N   0  0  0  0  0  0  0  0  0  0  0  0
   40.2670   34.9310   40.3070 N   0  0  0  0  0  0  0  0  0  0  0  0
   41.2560   35.5900   40.9160 C   0  0  0  0  0  0  0  0  0  0  0  0
   41.0120   36.9100   40.8860 N   0  0  0  0  0  0  0  0  0  0  0  0
   39.8330   37.0800   40.2390 C   0  0  0  0  0  0  0  0  0  0  0  0
   39.3750   35.8450   39.8810 N   0  0  0  0  0  0  0  0  0  0  0  0
   37.8420   29.1740   40.6510 C   0  0  0  0  0  0  0  0  0  0  0  0
   37.2620   29.8700   41.7770 C   0  0  0  0  0  0  0  0  0  0  0  0
   37.7790   28.8530   43.2360 S   0  0  0  0  0  0  0  0  0  0  0  0
   38.6980   27.6570   42.0280 C   0  0  0  0  0  0  0  0  0  0  0  0
   38.5040   28.1100   41.0320 N   0  0  0  0  0  0  0  0  0  0  0  0
   39.4350   26.4540   42.5780 C   0  0  0  0  0  0  0  0  0  0  0  0
   40.6180   26.2940   41.6910 C   0  0  0  0  0  0  0  0  0  0  0  0
   39.7800   26.6570   44.0210 C   0  0  0  0  0  0  0  0  0  0  0  0
   38.5960   25.2030   42.4220 C   0  0  0  0  0  0  0  0  0  0  0  0
   36.0539   28.2272   38.9760 H   0  0  0  0  0  0  0  0  0  0  0  0
   36.7666   30.9029   35.7964 H   0  0  0  0  0  0  0  0  0  0  0  0
   42.1393   35.1211   41.3741 H   0  0  0  0  0  0  0  0  0  0  0  0
   39.3351   38.0402   40.0386 H   0  0  0  0  0  0  0  0  0  0  0  0
   36.6560   30.7880   41.7693 H   0  0  0  0  0  0  0  0  0  0  0  0
   41.5226   26.1717   42.3048 H   0  0  0  0  0  0  0  0  0  0  0  0
   40.4828   25.4060   41.0561 H   0  0  0  0  0  0  0  0  0  0  0  0
   40.7236   27.1860   41.0561 H   0  0  0  0  0  0  0  0  0  0  0  0
   39.0032   26.1999   44.6515 H   0  0  0  0  0  0  0  0  0  0  0  0
   40.7506   26.1860   44.2357 H   0  0  0  0  0  0  0  0  0  0  0  0
   39.8397   27.7342   44.2357 H   0  0  0  0  0  0  0  0  0  0  0  0
   38.3333   24.8114   43.4158 H   0  0  0  0  0  0  0  0  0  0  0  0
   37.6767   25.4447   41.8684 H   0  0  0  0  0  0  0  0  0  0  0  0
   39.1685   24.4442   41.8684 H   0  0  0  0  0  0  0  0  0  0  0  0
  1  2  2  0
  2 17  1  0
  3  2  1  0
  3  7  1  0
  4  3  2  0
  5  6  2  0
  5  4  1  0
  6  1  1  0
  7 11  1  0
  7  8  2  0
  8  9  1  0
 10 12  1  0
 10  9  1  0
 11 10  2  0
 12 13  1  0
 14 13  2  0
 15 14  1  0
 16 15  2  0
 16 12  1  0
 17 21  1  0
 17 18  2  0
 18 19  1  0
 20 22  1  0
 20 19  1  0
 21 20  2  0
 22 24  1  0
 23 22  1  0
 25 22  1  0
  1 26  1  0
  5 27  1  0
 13 28  1  0
 15 29  1  0
 18 30  1  0
 23 31  1  0
 23 32  1  0
 23 33  1  0
 24 34  1  0
 24 35  1  0
 24 36  1  0
 25 37  1  0
 25 38  1  0
 25 39  1  0
M  ISO  8  26  14  27  14  28  14  29  14  30  14  31   8  32   8  33   8
M  ISO  6  34   8  35   8  36   8  37   8  38   8  39   8
M  END
>  <minimizedAffinity>  (1) 
-6.02365255

>  <minimizedRMSD>  (1) 
3.07528114

$$$$
