
     RDKit          3D

 39 41  0  0  1  0  0  0  0  0999 V2000
   38.3800   29.1970   41.9640 C   0  0  1  0  0  0  0  0  0  0  0  0
   37.5880   28.8520   43.1700 C   0  0  0  0  0  0  0  0  0  0  0  0
   37.1720   28.3540   41.8480 C   0  0  2  0  0  0  0  0  0  0  0  0
   37.1150   26.9730   41.5330 C   0  0  0  0  0  0  0  0  0  0  0  0
   37.1640   26.0600   42.5390 C   0  0  0  0  0  0  0  0  0  0  0  0
   36.9170   24.7400   42.2830 C   0  0  0  0  0  0  0  0  0  0  0  0
   36.6250   24.4070   40.9770 C   0  0  0  0  0  0  0  0  0  0  0  0
   36.5850   25.3320   39.9930 C   0  0  0  0  0  0  0  0  0  0  0  0
   36.8270   26.6400   40.2390 C   0  0  0  0  0  0  0  0  0  0  0  0
   36.6350   27.4100   38.9820 C   0  0  0  0  0  0  0  0  0  0  0  0
   36.2390   26.4000   37.8540 C   0  0  0  0  0  0  0  0  0  0  0  0
   37.8770   27.9720   38.3660 C   0  0  0  0  0  0  0  0  0  0  0  0
   35.3770   28.2170   38.8870 C   0  0  0  0  0  0  0  0  0  0  0  0
   38.2760   30.5800   41.4220 C   0  0  0  0  0  0  0  0  0  0  0  0
   37.1420   30.8920   40.6950 C   0  0  0  0  0  0  0  0  0  0  0  0
   36.9550   32.1540   40.1270 C   0  0  0  0  0  0  0  0  0  0  0  0
   37.9800   33.0580   40.3500 N   0  0  0  0  0  0  0  0  0  0  0  0
   39.0860   32.7180   41.0740 C   0  0  0  0  0  0  0  0  0  0  0  0
   39.2310   31.4470   41.6210 N   0  0  0  0  0  0  0  0  0  0  0  0
   39.4406   29.1032   41.6876 H   0  0  0  0  0  0  0  0  0  0  0  0
   37.9976   28.1554   43.9163 H   0  0  0  0  0  0  0  0  0  0  0  0
   37.1029   29.4267   43.9728 H   0  0  0  0  0  0  0  0  0  0  0  0
   36.2768   28.4093   41.2111 H   0  0  0  0  0  0  0  0  0  0  0  0
   37.4032   26.3844   43.5625 H   0  0  0  0  0  0  0  0  0  0  0  0
   36.9495   23.9814   43.0789 H   0  0  0  0  0  0  0  0  0  0  0  0
   36.4182   23.3555   40.7287 H   0  0  0  0  0  0  0  0  0  0  0  0
   36.3499   25.0137   38.9667 H   0  0  0  0  0  0  0  0  0  0  0  0
   35.8734   25.4675   38.3086 H   0  0  0  0  0  0  0  0  0  0  0  0
   35.4465   26.8392   37.2303 H   0  0  0  0  0  0  0  0  0  0  0  0
   37.1188   26.1835   37.2303 H   0  0  0  0  0  0  0  0  0  0  0  0
   38.5705   28.2858   39.1601 H   0  0  0  0  0  0  0  0  0  0  0  0
   38.3572   27.2035   37.7425 H   0  0  0  0  0  0  0  0  0  0  0  0
   37.6166   28.8400   37.7425 H   0  0  0  0  0  0  0  0  0  0  0  0
   35.0136   28.4501   39.8987 H   0  0  0  0  0  0  0  0  0  0  0  0
   35.5816   29.1528   38.3462 H   0  0  0  0  0  0  0  0  0  0  0  0
   34.6117   27.6409   38.3462 H   0  0  0  0  0  0  0  0  0  0  0  0
   36.3654   30.1247   40.5603 H   0  0  0  0  0  0  0  0  0  0  0  0
   36.0581   32.4114   39.5444 H   0  0  0  0  0  0  0  0  0  0  0  0
   39.8792   33.4644   41.2282 H   0  0  0  0  0  0  0  0  0  0  0  0
  1  2  1  0
  3  1  1  0
  3  2  1  0
  4  3  1  0
  4  5  2  0
  6  5  1  0
  7  6  2  0
  8  9  2  0
  8  7  1  0
  9  4  1  0
 10  9  1  0
 11 10  1  0
 12 10  1  0
 13 10  1  0
 14 19  1  0
 14  1  1  0
 15 14  2  0
 16 17  2  0
 16 15  1  0
 17 18  1  0
 18 19  2  0
  1 20  1  1
  2 21  1  0
  2 22  1  0
  3 23  1  6
  5 24  1  0
  6 25  1  0
  7 26  1  0
  8 27  1  0
 11 28  1  0
 11 29  1  0
 11 30  1  0
 12 31  1  0
 12 32  1  0
 12 33  1  0
 13 34  1  0
 13 35  1  0
 13 36  1  0
 15 37  1  0
 16 38  1  0
 18 39  1  0
M  ISO  8  20  13  21  13  22  13  23  13  24  14  25  14  26  14  27  14
M  ISO  8  28   8  29   8  30   8  31   8  32   8  33   8  34   8  35   8
M  ISO  4  36   8  37  14  38  14  39  14
M  END
>  <minimizedAffinity>  (1) 
-5.23454714

>  <minimizedRMSD>  (1) 
0.897962093

$$$$
