
     RDKit          3D

 43 46  0  0  1  0  0  0  0  0999 V2000
   36.9830   28.5750   41.4800 C   0  0  2  0  0  0  0  0  0  0  0  0
   37.3330   29.6080   42.4080 C   0  0  0  0  0  0  0  0  0  0  0  0
   37.7250   28.8690   43.7060 C   0  0  0  0  0  0  0  0  0  0  0  0
   38.0930   27.4630   43.2600 C   0  0  0  0  0  0  0  0  0  0  0  0
   38.0810   27.4720   41.7700 C   0  0  1  0  0  0  0  0  0  0  0  0
   35.9920   28.4270   39.1400 C   0  0  0  0  0  0  0  0  0  0  0  0
   37.0000   28.9200   40.0590 C   0  0  0  0  0  0  0  0  0  0  0  0
   38.0080   29.7220   39.5990 C   0  0  0  0  0  0  0  0  0  0  0  0
   37.9910   30.0090   38.2540 N   0  0  0  0  0  0  0  0  0  0  0  0
   37.0340   29.5410   37.3790 C   0  0  0  0  0  0  0  0  0  0  0  0
   36.0140   28.7300   37.8440 N   0  0  0  0  0  0  0  0  0  0  0  0
   37.1250   29.9010   35.9980 N   0  0  0  0  0  0  0  0  0  0  0  0
   39.1020   30.3050   40.3120 C   0  0  0  0  0  0  0  0  0  0  0  0
   39.2580   31.7470   40.1610 N   0  0  0  0  0  0  0  0  0  0  0  0
   40.1800   32.5370   39.6470 N   0  0  0  0  0  0  0  0  0  0  0  0
   39.8530   33.8330   39.7510 C   0  0  0  0  0  0  0  0  0  0  0  0
   38.6390   33.9380   40.3710 C   0  0  0  0  0  0  0  0  0  0  0  0
   38.2940   32.6060   40.6150 C   0  0  0  0  0  0  0  0  0  0  0  0
   37.6110   26.0970   41.4280 C   0  0  0  0  0  0  0  0  0  0  0  0
   36.8980   25.3430   42.3280 N   0  0  0  0  0  0  0  0  0  0  0  0
   36.6200   24.1990   41.7440 O   0  0  0  0  0  0  0  0  0  0  0  0
   37.1270   24.2250   40.5380 C   0  0  0  0  0  0  0  0  0  0  0  0
   37.7480   25.3920   40.3140 N   0  0  0  0  0  0  0  0  0  0  0  0
   36.9750   23.0480   39.6060 C   0  0  0  0  0  0  0  0  0  0  0  0
   37.4650   21.9300   40.2150 F   0  0  0  0  0  0  0  0  0  0  0  0
   35.6470   22.8550   39.2900 F   0  0  0  0  0  0  0  0  0  0  0  0
   37.7080   23.2630   38.4460 F   0  0  0  0  0  0  0  0  0  0  0  0
   35.9328   28.2869   41.6354 H   0  0  0  0  0  0  0  0  0  0  0  0
   38.1808   30.1970   42.0282 H   0  0  0  0  0  0  0  0  0  0  0  0
   36.5047   30.3134   42.5702 H   0  0  0  0  0  0  0  0  0  0  0  0
   38.5842   29.3599   44.1864 H   0  0  0  0  0  0  0  0  0  0  0  0
   36.9099   28.8690   44.4447 H   0  0  0  0  0  0  0  0  0  0  0  0
   39.0943   27.1974   43.6299 H   0  0  0  0  0  0  0  0  0  0  0  0
   37.3837   26.7223   43.6579 H   0  0  0  0  0  0  0  0  0  0  0  0
   39.0113   27.6863   41.2235 H   0  0  0  0  0  0  0  0  0  0  0  0
   35.1864   27.7844   39.5249 H   0  0  0  0  0  0  0  0  0  0  0  0
   37.8926   30.5060   35.6730 H   0  0  0  0  0  0  0  0  0  0  0  0
   36.4229   29.5553   35.3283 H   0  0  0  0  0  0  0  0  0  0  0  0
   38.9611   30.0904   41.3816 H   0  0  0  0  0  0  0  0  0  0  0  0
   40.0114   29.8583   39.8836 H   0  0  0  0  0  0  0  0  0  0  0  0
   40.4632   34.6761   39.3949 H   0  0  0  0  0  0  0  0  0  0  0  0
   38.0725   34.8481   40.6174 H   0  0  0  0  0  0  0  0  0  0  0  0
   37.3645   32.2879   41.1098 H   0  0  0  0  0  0  0  0  0  0  0  0
  1  5  1  0
  1  2  1  0
  2  3  1  0
  4  3  1  0
  5  4  1  0
  6  7  2  0
  7  1  1  0
  8  7  1  0
  8 13  1  0
  9  8  2  0
 10 11  2  0
 10  9  1  0
 11  6  1  0
 12 10  1  0
 14 13  1  0
 14 18  1  0
 15 16  2  0
 15 14  1  0
 16 17  1  0
 17 18  2  0
 19  5  1  0
 19 20  2  0
 21 20  1  0
 22 21  1  0
 23 22  2  0
 23 19  1  0
 24 25  1  0
 24 22  1  0
 26 24  1  0
 27 24  1  0
  1 28  1  1
  2 29  1  0
  2 30  1  0
  3 31  1  0
  3 32  1  0
  4 33  1  0
  4 34  1  0
  5 35  1  6
  6 36  1  0
 12 37  1  0
 12 38  1  0
 13 39  1  0
 13 40  1  0
 16 41  1  0
 17 42  1  0
 18 43  1  0
M  ISO  8  28  13  29  13  30  13  31  13  32  13  33  13  34  13  35  13
M  ISO  6  36  14  39   8  40   8  41  14  42  14  43  14
M  END
>  <minimizedAffinity>  (1) 
-5.56653404

>  <minimizedRMSD>  (1) 
4.6847949

$$$$
