
     RDKit          3D

 27 29  0  0  0  0  0  0  0  0999 V2000
   37.1680   30.1800   40.3720 C   0  0  0  0  0  0  0  0  0  0  0  0
   37.3720   31.5490   40.4900 C   0  0  0  0  0  0  0  0  0  0  0  0
   37.3320   32.3120   39.3330 C   0  0  0  0  0  0  0  0  0  0  0  0
   37.0930   31.6840   38.1300 C   0  0  0  0  0  0  0  0  0  0  0  0
   36.8960   30.3440   38.0340 C   0  0  0  0  0  0  0  0  0  0  0  0
   36.9350   29.5950   39.1630 N   0  0  0  0  0  0  0  0  0  0  0  0
   38.1350   28.9310   43.6740 C   0  0  0  0  0  0  0  0  0  0  0  0
   37.2910   27.8240   43.8540 C   0  0  0  0  0  0  0  0  0  0  0  0
   36.3780   27.5030   42.8240 C   0  0  0  0  0  0  0  0  0  0  0  0
   36.3860   28.3000   41.7260 N   0  0  0  0  0  0  0  0  0  0  0  0
   37.2060   29.3570   41.5800 C   0  0  0  0  0  0  0  0  0  0  0  0
   38.0660   29.6540   42.5560 N   0  0  0  0  0  0  0  0  0  0  0  0
   36.5870   29.5530   36.4530 S   0  0  0  0  0  0  0  0  0  0  0  0
   33.0550   27.9970   37.1730 N   0  0  0  0  0  0  0  0  0  0  0  0
   34.3100   28.2670   37.5250 N   0  0  0  0  0  0  0  0  0  0  0  0
   34.9070   28.9440   36.5160 C   0  0  0  0  0  0  0  0  0  0  0  0
   33.9850   29.1090   35.4800 C   0  0  0  0  0  0  0  0  0  0  0  0
   32.8420   28.4920   35.9550 C   0  0  0  0  0  0  0  0  0  0  0  0
   37.5592   32.0128   41.4697 H   0  0  0  0  0  0  0  0  0  0  0  0
   37.4884   33.4000   39.3747 H   0  0  0  0  0  0  0  0  0  0  0  0
   37.0606   32.2909   37.2132 H   0  0  0  0  0  0  0  0  0  0  0  0
   38.8563   29.2031   44.4586 H   0  0  0  0  0  0  0  0  0  0  0  0
   37.3389   27.2217   44.7732 H   0  0  0  0  0  0  0  0  0  0  0  0
   35.6927   26.6467   42.9086 H   0  0  0  0  0  0  0  0  0  0  0  0
   32.3649   27.4906   37.7460 H   0  0  0  0  0  0  0  0  0  0  0  0
   34.1332   29.6118   34.5129 H   0  0  0  0  0  0  0  0  0  0  0  0
   31.8921   28.4203   35.4050 H   0  0  0  0  0  0  0  0  0  0  0  0
  1  2  2  0
  1 11  1  0
  3  2  1  0
  4  3  2  0
  5  4  1  0
  5  6  2  0
  6  1  1  0
  7  8  2  0
  9  8  1  0
 10  9  2  0
 11 10  1  0
 11 12  2  0
 12  7  1  0
 13 16  1  0
 13  5  1  0
 14 15  1  0
 16 15  2  0
 17 18  2  0
 17 16  1  0
 18 14  1  0
  2 19  1  0
  3 20  1  0
  4 21  1  0
  7 22  1  0
  8 23  1  0
  9 24  1  0
 14 25  1  0
 17 26  1  0
 18 27  1  0
M  ISO  8  19  14  20  14  21  14  22  14  23  14  24  14  25   9  26  14
M  ISO  1  27  14
M  END
>  <minimizedAffinity>  (1) 
-4.48814726

>  <minimizedRMSD>  (1) 
0.921924174

$$$$
