
     RDKit          3D

 41 45  0  0  1  0  0  0  0  0999 V2000
   37.9620   27.3350   42.7510 C   0  0  2  0  0  0  0  0  0  0  0  0
   39.0400   27.6010   43.7090 C   0  0  0  0  0  0  0  0  0  0  0  0
   39.7440   26.2710   43.8860 C   0  0  0  0  0  0  0  0  0  0  0  0
   39.3090   25.4170   42.7350 C   0  0  0  0  0  0  0  0  0  0  0  0
   38.5760   26.3520   41.7700 C   0  0  1  0  0  0  0  0  0  0  0  0
   37.5780   25.4250   41.1560 C   0  0  0  0  0  0  0  0  0  0  0  0
   36.8560   24.5520   41.8670 N   0  0  0  0  0  0  0  0  0  0  0  0
   36.0860   23.9020   41.0200 O   0  0  0  0  0  0  0  0  0  0  0  0
   36.3220   24.3550   39.8050 C   0  0  0  0  0  0  0  0  0  0  0  0
   37.2480   25.3080   39.8470 N   0  0  0  0  0  0  0  0  0  0  0  0
   35.6650   23.8750   38.6420 N   0  0  0  0  0  0  0  0  0  0  0  0
   36.0660   24.0740   37.3580 C   0  0  0  0  0  0  0  0  0  0  0  0
   35.1810   23.4620   36.5460 N   0  0  0  0  0  0  0  0  0  0  0  0
   34.2450   22.8900   37.3070 C   0  0  0  0  0  0  0  0  0  0  0  0
   33.1080   22.1410   37.0960 C   0  0  0  0  0  0  0  0  0  0  0  0
   32.3020   21.6630   38.0670 N   0  0  0  0  0  0  0  0  0  0  0  0
   32.6170   21.9280   39.3650 C   0  0  0  0  0  0  0  0  0  0  0  0
   33.7210   22.6560   39.5970 N   0  0  0  0  0  0  0  0  0  0  0  0
   34.5250   23.1320   38.6330 C   0  0  0  0  0  0  0  0  0  0  0  0
   32.7230   21.8280   35.7640 N   0  0  0  0  0  0  0  0  0  0  0  0
   38.0530   29.7480   41.9620 C   0  0  0  0  0  0  0  0  0  0  0  0
   37.3910   28.4950   42.0840 C   0  0  0  0  0  0  0  0  0  0  0  0
   36.1260   28.3440   41.5300 C   0  0  0  0  0  0  0  0  0  0  0  0
   35.5700   29.4250   40.8840 N   0  0  0  0  0  0  0  0  0  0  0  0
   36.2340   30.6270   40.7800 C   0  0  0  0  0  0  0  0  0  0  0  0
   37.4810   30.7700   41.3280 N   0  0  0  0  0  0  0  0  0  0  0  0
   37.0818   26.9445   43.2828 H   0  0  0  0  0  0  0  0  0  0  0  0
   39.7339   28.3558   43.3105 H   0  0  0  0  0  0  0  0  0  0  0  0
   38.6580   27.9964   44.6617 H   0  0  0  0  0  0  0  0  0  0  0  0
   40.8349   26.4106   43.8674 H   0  0  0  0  0  0  0  0  0  0  0  0
   39.4909   25.8065   44.8505 H   0  0  0  0  0  0  0  0  0  0  0  0
   40.1828   24.9667   42.2414 H   0  0  0  0  0  0  0  0  0  0  0  0
   38.6614   24.5922   43.0671 H   0  0  0  0  0  0  0  0  0  0  0  0
   39.1195   26.8868   40.9772 H   0  0  0  0  0  0  0  0  0  0  0  0
   36.9561   24.6356   37.0382 H   0  0  0  0  0  0  0  0  0  0  0  0
   31.9912   21.5599   40.1914 H   0  0  0  0  0  0  0  0  0  0  0  0
   31.8755   21.2689   35.5908 H   0  0  0  0  0  0  0  0  0  0  0  0
   33.2916   22.1603   34.9720 H   0  0  0  0  0  0  0  0  0  0  0  0
   39.0545   29.8751   42.3988 H   0  0  0  0  0  0  0  0  0  0  0  0
   35.5849   27.3893   41.6053 H   0  0  0  0  0  0  0  0  0  0  0  0
   35.7629   31.4722   40.2568 H   0  0  0  0  0  0  0  0  0  0  0  0
  1  2  1  0
  2  3  1  0
  4  3  1  0
  5  4  1  0
  5  1  1  0
  6  5  1  0
  6  7  2  0
  8  7  1  0
  9 10  2  0
  9  8  1  0
 10  6  1  0
 11  9  1  0
 12 11  1  0
 13 14  1  0
 13 12  2  0
 14 19  2  0
 15 14  1  0
 15 16  2  0
 16 17  1  0
 17 18  2  0
 19 11  1  0
 19 18  1  0
 20 15  1  0
 21 22  2  0
 22  1  1  0
 23 22  1  0
 24 23  2  0
 25 24  1  0
 25 26  2  0
 26 21  1  0
  1 27  1  1
  2 28  1  0
  2 29  1  0
  3 30  1  0
  3 31  1  0
  4 32  1  0
  4 33  1  0
  5 34  1  6
 12 35  1  0
 17 36  1  0
 20 37  1  0
 20 38  1  0
 21 39  1  0
 23 40  1  0
 25 41  1  0
M  ISO  8  27  13  28  13  29  13  30  13  31  13  32  13  33  13  34  13
M  ISO  5  35  14  36  14  39  14  40  14  41  14
M  END
>  <minimizedAffinity>  (1) 
-5.56435728

>  <minimizedRMSD>  (1) 
0.491184622

$$$$
