
     RDKit          3D

 36 39  0  0  1  0  0  0  0  0999 V2000
   38.7710   27.6550   43.2030 C   0  0  2  0  0  0  0  0  0  0  0  0
   40.1920   28.0130   43.2310 C   0  0  0  0  0  0  0  0  0  0  0  0
   40.7490   26.8300   44.0350 C   0  0  0  0  0  0  0  0  0  0  0  0
   39.8060   25.6880   43.7810 C   0  0  0  0  0  0  0  0  0  0  0  0
   38.7730   26.2230   42.7870 C   0  0  2  0  0  0  0  0  0  0  0  0
   38.1930   29.8100   41.9840 C   0  0  0  0  0  0  0  0  0  0  0  0
   37.8780   28.4930   42.4100 C   0  0  0  0  0  0  0  0  0  0  0  0
   36.6280   27.9120   42.0530 C   0  0  0  0  0  0  0  0  0  0  0  0
   35.7950   28.6830   41.3040 N   0  0  0  0  0  0  0  0  0  0  0  0
   36.1140   29.9490   40.9020 C   0  0  0  0  0  0  0  0  0  0  0  0
   37.3200   30.4860   41.2560 N   0  0  0  0  0  0  0  0  0  0  0  0
   39.2120   25.9010   41.4800 N   0  0  0  0  0  0  0  0  0  0  0  0
   39.9830   26.4400   40.5390 C   0  0  0  0  0  0  0  0  0  0  0  0
   40.0670   25.6840   39.4350 N   0  0  0  0  0  0  0  0  0  0  0  0
   39.3040   24.6050   39.6990 C   0  0  0  0  0  0  0  0  0  0  0  0
   39.0920   23.5450   38.8360 C   0  0  0  0  0  0  0  0  0  0  0  0
   38.2900   22.5470   39.2720 N   0  0  0  0  0  0  0  0  0  0  0  0
   37.7660   22.6630   40.5050 C   0  0  0  0  0  0  0  0  0  0  0  0
   37.9520   23.6770   41.3650 N   0  0  0  0  0  0  0  0  0  0  0  0
   38.7520   24.7110   40.9770 C   0  0  0  0  0  0  0  0  0  0  0  0
   39.6710   23.4750   37.5460 N   0  0  0  0  0  0  0  0  0  0  0  0
   38.3282   27.8298   44.1946 H   0  0  0  0  0  0  0  0  0  0  0  0
   40.6218   28.0576   42.2194 H   0  0  0  0  0  0  0  0  0  0  0  0
   40.4118   29.0047   43.6533 H   0  0  0  0  0  0  0  0  0  0  0  0
   41.7621   26.5750   43.6907 H   0  0  0  0  0  0  0  0  0  0  0  0
   40.8230   27.0656   45.1069 H   0  0  0  0  0  0  0  0  0  0  0  0
   40.3463   24.8320   43.3504 H   0  0  0  0  0  0  0  0  0  0  0  0
   39.3336   25.3350   44.7096 H   0  0  0  0  0  0  0  0  0  0  0  0
   37.7480   25.8237   42.7813 H   0  0  0  0  0  0  0  0  0  0  0  0
   39.1564   30.2651   42.2575 H   0  0  0  0  0  0  0  0  0  0  0  0
   36.3511   26.8945   42.3661 H   0  0  0  0  0  0  0  0  0  0  0  0
   35.4046   30.5327   40.2970 H   0  0  0  0  0  0  0  0  0  0  0  0
   40.4978   27.4052   40.6548 H   0  0  0  0  0  0  0  0  0  0  0  0
   37.1176   21.8417   40.8442 H   0  0  0  0  0  0  0  0  0  0  0  0
   40.2818   24.2349   37.2137 H   0  0  0  0  0  0  0  0  0  0  0  0
   39.4815   22.6642   36.9397 H   0  0  0  0  0  0  0  0  0  0  0  0
  1  2  1  0
  2  3  1  0
  4  3  1  0
  5  1  1  0
  5  4  1  0
  6  7  2  0
  7  1  1  0
  8  7  1  0
  9  8  2  0
 10 11  2  0
 10  9  1  0
 11  6  1  0
 12  5  1  0
 13 12  1  0
 14 15  1  0
 14 13  2  0
 15 20  2  0
 16 17  2  0
 16 15  1  0
 17 18  1  0
 18 19  2  0
 20 19  1  0
 20 12  1  0
 21 16  1  0
  1 22  1  1
  2 23  1  0
  2 24  1  0
  3 25  1  0
  3 26  1  0
  4 27  1  0
  4 28  1  0
  5 29  1  1
  6 30  1  0
  8 31  1  0
 10 32  1  0
 13 33  1  0
 18 34  1  0
 21 35  1  0
 21 36  1  0
M  ISO  8  22  13  23  13  24  13  25  13  26  13  27  13  28  13  29  13
M  ISO  5  30  14  31  14  32  14  33  14  34  14
M  END
>  <minimizedAffinity>  (1) 
-5.03311729

>  <minimizedRMSD>  (1) 
1.79035747

$$$$
