
     RDKit          3D

 48 52  0  0  1  0  0  0  0  0999 V2000
   37.3070   28.8920   41.2740 C   0  0  0  0  0  0  0  0  0  0  0  0
   37.5410   29.3880   42.5810 C   0  0  0  0  0  0  0  0  0  0  0  0
   37.5470   28.5790   43.7310 C   0  0  0  0  0  0  0  0  0  0  0  0
   37.3200   27.2080   43.5840 C   0  0  0  0  0  0  0  0  0  0  0  0
   37.0930   26.6790   42.3220 C   0  0  0  0  0  0  0  0  0  0  0  0
   36.9200   25.3290   42.1450 C   0  0  0  0  0  0  0  0  0  0  0  0
   36.7370   24.7720   40.8750 C   0  0  0  0  0  0  0  0  0  0  0  0
   36.7380   25.6750   39.8040 C   0  0  0  0  0  0  0  0  0  0  0  0
   36.9160   27.0330   40.0330 C   0  0  0  0  0  0  0  0  0  0  0  0
   37.0990   27.5480   41.2700 C   0  0  0  0  0  0  0  0  0  0  0  0
   41.3390   28.5750   41.0330 C   0  0  0  0  0  0  0  0  0  0  0  0
   42.3120   28.7790   40.0290 C   0  0  0  0  0  0  0  0  0  0  0  0
   41.9510   29.5580   38.9330 C   0  0  0  0  0  0  0  0  0  0  0  0
   40.6740   30.0890   38.8790 N   0  0  0  0  0  0  0  0  0  0  0  0
   39.8010   29.8630   39.8560 C   0  0  0  0  0  0  0  0  0  0  0  0
   40.1340   29.1210   40.9050 N   0  0  0  0  0  0  0  0  0  0  0  0
   38.5330   30.3940   39.7570 N   0  0  0  0  0  0  0  0  0  0  0  0
   38.2230   31.6170   38.9960 C   0  0  0  0  0  0  0  0  0  0  0  0
   37.0400   32.1910   39.6890 C   0  0  0  0  0  0  0  0  0  0  0  0
   36.6650   31.2220   40.7750 C   0  0  0  0  0  0  0  0  0  0  0  0
   37.2470   29.9100   40.2970 C   0  0  2  0  0  0  0  0  0  0  0  0
   36.7120   27.6320   38.7740 N   0  0  0  0  0  0  0  0  0  0  0  0
   35.3530   27.9580   38.7660 C   0  0  0  0  0  0  0  0  0  0  0  0
   34.7760   28.5260   37.6170 C   0  0  0  0  0  0  0  0  0  0  0  0
   35.5520   28.7660   36.4860 C   0  0  0  0  0  0  0  0  0  0  0  0
   35.0950   29.2720   35.4280 O   0  0  0  0  0  0  0  0  0  0  0  0
   36.8490   28.4230   36.5700 N   0  0  0  0  0  0  0  0  0  0  0  0
   37.4140   27.8790   37.6590 C   0  0  0  0  0  0  0  0  0  0  0  0
   38.5870   27.5270   37.8170 O   0  0  0  0  0  0  0  0  0  0  0  0
   37.7282   30.4651   42.7023 H   0  0  0  0  0  0  0  0  0  0  0  0
   37.7264   29.0157   44.7245 H   0  0  0  0  0  0  0  0  0  0  0  0
   37.3213   26.5506   44.4660 H   0  0  0  0  0  0  0  0  0  0  0  0
   36.9254   24.6682   43.0243 H   0  0  0  0  0  0  0  0  0  0  0  0
   36.6006   23.6907   40.7263 H   0  0  0  0  0  0  0  0  0  0  0  0
   36.5972   25.3067   38.7771 H   0  0  0  0  0  0  0  0  0  0  0  0
   41.5780   27.9664   41.9176 H   0  0  0  0  0  0  0  0  0  0  0  0
   43.3169   28.3389   40.1102 H   0  0  0  0  0  0  0  0  0  0  0  0
   42.6697   29.7485   38.1224 H   0  0  0  0  0  0  0  0  0  0  0  0
   37.9825   31.3748   37.9503 H   0  0  0  0  0  0  0  0  0  0  0  0
   39.0708   32.3171   38.9622 H   0  0  0  0  0  0  0  0  0  0  0  0
   37.2929   33.1691   40.1241 H   0  0  0  0  0  0  0  0  0  0  0  0
   36.2057   32.3433   38.9885 H   0  0  0  0  0  0  0  0  0  0  0  0
   37.1066   31.5203   41.7373 H   0  0  0  0  0  0  0  0  0  0  0  0
   35.5797   31.1711   40.9466 H   0  0  0  0  0  0  0  0  0  0  0  0
   36.6395   29.3651   39.5594 H   0  0  0  0  0  0  0  0  0  0  0  0
   34.7361   27.7704   39.6572 H   0  0  0  0  0  0  0  0  0  0  0  0
   33.7063   28.7822   37.6112 H   0  0  0  0  0  0  0  0  0  0  0  0
   37.4464   28.5880   35.7473 H   0  0  0  0  0  0  0  0  0  0  0  0
  1  2  2  0
  2  3  1  0
  4  3  2  0
  5  4  1  0
  6  5  2  0
  7  6  1  0
  8  9  1  0
  8  7  2  0
  9 10  2  0
 10  1  1  0
 10  5  1  0
 12 11  2  0
 13 12  1  0
 14 13  2  0
 14 15  1  0
 15 16  2  0
 16 11  1  0
 17 15  1  0
 17 21  1  0
 18 19  1  0
 18 17  1  0
 19 20  1  0
 21 20  1  0
 21  1  1  0
 22  9  1  0
 23 22  1  0
 24 23  2  0
 25 27  1  0
 25 24  1  0
 26 25  2  0
 27 28  1  0
 28 29  2  0
 28 22  1  0
  2 30  1  0
  3 31  1  0
  4 32  1  0
  6 33  1  0
  7 34  1  0
  8 35  1  0
 11 36  1  0
 12 37  1  0
 13 38  1  0
 18 39  1  0
 18 40  1  0
 19 41  1  0
 19 42  1  0
 20 43  1  0
 20 44  1  0
 21 45  1  6
 23 46  1  0
 24 47  1  0
 27 48  1  0
M  ISO  8  30  14  31  14  32  14  33  14  34  14  35  14  36  14  37  14
M  ISO  8  38  14  39  13  40  13  41  13  42  13  43  13  44  13  45  13
M  ISO  3  46  14  47  14  48   9
M  END
>  <minimizedAffinity>  (1) 
-6.67093372

>  <minimizedRMSD>  (1) 
0.41982764

$$$$
