
     RDKit          3D

 38 41  0  0  1  0  0  0  0  0999 V2000
   37.9380   27.3560   42.7410 C   0  0  2  0  0  0  0  0  0  0  0  0
   39.0040   27.6360   43.7090 C   0  0  0  0  0  0  0  0  0  0  0  0
   39.7350   26.3180   43.8810 C   0  0  0  0  0  0  0  0  0  0  0  0
   39.2890   25.4480   42.7490 C   0  0  0  0  0  0  0  0  0  0  0  0
   38.5690   26.3760   41.7700 C   0  0  1  0  0  0  0  0  0  0  0  0
   37.5930   25.4450   41.1370 C   0  0  0  0  0  0  0  0  0  0  0  0
   36.9610   24.4760   41.8310 N   0  0  0  0  0  0  0  0  0  0  0  0
   36.1830   23.8420   40.9810 O   0  0  0  0  0  0  0  0  0  0  0  0
   36.3180   24.3930   39.7900 C   0  0  0  0  0  0  0  0  0  0  0  0
   37.1890   25.3960   39.8470 N   0  0  0  0  0  0  0  0  0  0  0  0
   35.6880   24.0620   38.5470 N   0  0  0  0  0  0  0  0  0  0  0  0
   36.1900   24.4960   37.3720 C   0  0  0  0  0  0  0  0  0  0  0  0
   35.5080   24.1240   36.2220 C   0  0  0  0  0  0  0  0  0  0  0  0
   34.3610   23.3400   36.2490 C   0  0  0  0  0  0  0  0  0  0  0  0
   33.7920   23.0390   35.1670 O   0  0  0  0  0  0  0  0  0  0  0  0
   33.9340   22.9550   37.4640 N   0  0  0  0  0  0  0  0  0  0  0  0
   34.5780   23.3020   38.6000 C   0  0  0  0  0  0  0  0  0  0  0  0
   34.1050   22.8950   39.6960 O   0  0  0  0  0  0  0  0  0  0  0  0
   38.0120   29.7650   41.9250 C   0  0  0  0  0  0  0  0  0  0  0  0
   37.3610   28.5080   42.0620 C   0  0  0  0  0  0  0  0  0  0  0  0
   36.1000   28.3480   41.5140 C   0  0  0  0  0  0  0  0  0  0  0  0
   35.5370   29.4240   40.8600 N   0  0  0  0  0  0  0  0  0  0  0  0
   36.1850   30.6270   40.7420 C   0  0  0  0  0  0  0  0  0  0  0  0
   37.4440   30.7870   41.2890 N   0  0  0  0  0  0  0  0  0  0  0  0
   37.0573   26.9597   43.2677 H   0  0  0  0  0  0  0  0  0  0  0  0
   39.6850   28.4080   43.3214 H   0  0  0  0  0  0  0  0  0  0  0  0
   38.6071   28.0155   44.6621 H   0  0  0  0  0  0  0  0  0  0  0  0
   40.8227   26.4756   43.8362 H   0  0  0  0  0  0  0  0  0  0  0  0
   39.5118   25.8578   44.8548 H   0  0  0  0  0  0  0  0  0  0  0  0
   40.1562   24.9769   42.2631 H   0  0  0  0  0  0  0  0  0  0  0  0
   38.6321   24.6368   43.0959 H   0  0  0  0  0  0  0  0  0  0  0  0
   39.1200   26.9139   40.9845 H   0  0  0  0  0  0  0  0  0  0  0  0
   37.0976   25.1159   37.3278 H   0  0  0  0  0  0  0  0  0  0  0  0
   35.8913   24.4639   35.2486 H   0  0  0  0  0  0  0  0  0  0  0  0
   33.0856   22.3748   37.5314 H   0  0  0  0  0  0  0  0  0  0  0  0
   39.0148   29.8965   42.3575 H   0  0  0  0  0  0  0  0  0  0  0  0
   35.5631   27.3916   41.5976 H   0  0  0  0  0  0  0  0  0  0  0  0
   35.7036   31.4628   40.2131 H   0  0  0  0  0  0  0  0  0  0  0  0
  1  2  1  0
  2  3  1  0
  4  3  1  0
  5  1  1  0
  5  4  1  0
  6  5  1  0
  6  7  2  0
  8  7  1  0
  9 10  2  0
  9  8  1  0
 10  6  1  0
 11 17  1  0
 11  9  1  0
 12 11  1  0
 13 14  1  0
 13 12  2  0
 14 16  1  0
 15 14  2  0
 16 17  1  0
 17 18  2  0
 19 20  2  0
 20  1  1  0
 21 20  1  0
 22 21  2  0
 23 22  1  0
 23 24  2  0
 24 19  1  0
  1 25  1  1
  2 26  1  0
  2 27  1  0
  3 28  1  0
  3 29  1  0
  4 30  1  0
  4 31  1  0
  5 32  1  6
 12 33  1  0
 13 34  1  0
 16 35  1  0
 19 36  1  0
 21 37  1  0
 23 38  1  0
M  ISO  8  25  13  26  13  27  13  28  13  29  13  30  13  31  13  32  13
M  ISO  6  33  14  34  14  35   9  36  14  37  14  38  14
M  END
>  <minimizedAffinity>  (1) 
-5.32255125

>  <minimizedRMSD>  (1) 
0.565773845

$$$$
