
     RDKit          3D

 28 30  0  0  0  0  0  0  0  0999 V2000
   37.1870   30.3800   40.3730 C   0  0  0  0  0  0  0  0  0  0  0  0
   37.2760   31.7450   40.5860 C   0  0  0  0  0  0  0  0  0  0  0  0
   37.2770   32.5610   39.4580 C   0  0  0  0  0  0  0  0  0  0  0  0
   37.1910   31.9790   38.2010 C   0  0  0  0  0  0  0  0  0  0  0  0
   37.1050   30.6290   38.0200 C   0  0  0  0  0  0  0  0  0  0  0  0
   37.1060   29.8550   39.1190 N   0  0  0  0  0  0  0  0  0  0  0  0
   38.0960   28.9200   43.6070 C   0  0  0  0  0  0  0  0  0  0  0  0
   37.2330   27.8180   43.7100 C   0  0  0  0  0  0  0  0  0  0  0  0
   36.3270   27.5720   42.6530 C   0  0  0  0  0  0  0  0  0  0  0  0
   36.3510   28.4300   41.5940 N   0  0  0  0  0  0  0  0  0  0  0  0
   37.1820   29.4680   41.5270 C   0  0  0  0  0  0  0  0  0  0  0  0
   38.0350   29.6900   42.5320 N   0  0  0  0  0  0  0  0  0  0  0  0
   36.9970   29.9370   36.3800 S   0  0  0  0  0  0  0  0  0  0  0  0
   37.7890   28.3360   36.3100 C   0  0  0  0  0  0  0  0  0  0  0  0
   39.0940   28.0230   36.6270 C   0  0  0  0  0  0  0  0  0  0  0  0
   39.5210   26.7160   36.5070 C   0  0  0  0  0  0  0  0  0  0  0  0
   38.6650   25.7700   36.0840 N   0  0  0  0  0  0  0  0  0  0  0  0
   37.3940   26.0820   35.7770 C   0  0  0  0  0  0  0  0  0  0  0  0
   36.9410   27.3580   35.8840 N   0  0  0  0  0  0  0  0  0  0  0  0
   37.3429   32.1657   41.6002 H   0  0  0  0  0  0  0  0  0  0  0  0
   37.3451   33.6540   39.5618 H   0  0  0  0  0  0  0  0  0  0  0  0
   37.1922   32.6316   37.3155 H   0  0  0  0  0  0  0  0  0  0  0  0
   38.8145   29.1412   44.4100 H   0  0  0  0  0  0  0  0  0  0  0  0
   37.2609   27.1614   44.5921 H   0  0  0  0  0  0  0  0  0  0  0  0
   35.6300   26.7216   42.6839 H   0  0  0  0  0  0  0  0  0  0  0  0
   39.7863   28.8054   36.9713 H   0  0  0  0  0  0  0  0  0  0  0  0
   40.5586   26.4494   36.7568 H   0  0  0  0  0  0  0  0  0  0  0  0
   36.7102   25.2917   35.4338 H   0  0  0  0  0  0  0  0  0  0  0  0
  1  2  2  0
  1 11  1  0
  3  2  1  0
  4  3  2  0
  5  4  1  0
  5  6  2  0
  6  1  1  0
  7  8  2  0
  9  8  1  0
 10  9  2  0
 11 10  1  0
 11 12  2  0
 12  7  1  0
 13  5  1  0
 14 13  1  0
 14 15  2  0
 16 15  1  0
 17 16  2  0
 18 19  2  0
 18 17  1  0
 19 14  1  0
  2 20  1  0
  3 21  1  0
  4 22  1  0
  7 23  1  0
  8 24  1  0
  9 25  1  0
 15 26  1  0
 16 27  1  0
 18 28  1  0
M  ISO  8  20  14  21  14  22  14  23  14  24  14  25  14  26  14  27  14
M  ISO  1  28  14
M  END
>  <minimizedAffinity>  (1) 
-4.5287447

>  <minimizedRMSD>  (1) 
3.20612192

$$$$
