
     RDKit          3D

 35 38  0  0  0  0  0  0  0  0999 V2000
   40.8310   33.4970   39.8480 C   0  0  0  0  0  0  0  0  0  0  0  0
   41.7890   32.9660   39.0290 C   0  0  0  0  0  0  0  0  0  0  0  0
   43.1060   33.2710   39.2480 C   0  0  0  0  0  0  0  0  0  0  0  0
   43.4720   34.0890   40.2630 N   0  0  0  0  0  0  0  0  0  0  0  0
   42.5320   34.6080   41.0660 C   0  0  0  0  0  0  0  0  0  0  0  0
   41.2170   34.3250   40.8730 N   0  0  0  0  0  0  0  0  0  0  0  0
   42.9900   35.4590   42.1110 N   0  0  0  0  0  0  0  0  0  0  0  0
   44.1080   35.0700   42.7770 C   0  0  0  0  0  0  0  0  0  0  0  0
   44.6700   35.7890   43.8110 C   0  0  0  0  0  0  0  0  0  0  0  0
   44.0490   36.9660   44.1750 C   0  0  0  0  0  0  0  0  0  0  0  0
   44.6080   37.7280   45.2390 N   0  0  0  0  0  0  0  0  0  0  0  0
   42.9440   37.3440   43.5110 N   0  0  0  0  0  0  0  0  0  0  0  0
   42.4270   36.6130   42.5060 C   0  0  0  0  0  0  0  0  0  0  0  0
   41.3860   36.9660   41.8780 O   0  0  0  0  0  0  0  0  0  0  0  0
   37.4420   32.2740   39.5930 N   0  0  0  0  0  0  0  0  0  0  0  0
   37.2220   33.5990   39.6710 C   0  0  0  0  0  0  0  0  0  0  0  0
   38.4090   34.2250   39.7730 N   0  0  0  0  0  0  0  0  0  0  0  0
   39.3690   33.2790   39.7580 C   0  0  0  0  0  0  0  0  0  0  0  0
   38.7480   32.0630   39.6460 N   0  0  0  0  0  0  0  0  0  0  0  0
   36.6880   31.0740   39.4750 C   0  0  0  0  0  0  0  0  0  0  0  0
   36.0350   30.4500   40.5540 C   0  0  0  0  0  0  0  0  0  0  0  0
   35.3340   29.2800   40.2860 C   0  0  0  0  0  0  0  0  0  0  0  0
   35.3170   28.8020   38.9980 N   0  0  0  0  0  0  0  0  0  0  0  0
   35.9520   29.4280   38.0030 C   0  0  0  0  0  0  0  0  0  0  0  0
   36.6410   30.5640   38.2250 N   0  0  0  0  0  0  0  0  0  0  0  0
   41.5041   32.2996   38.2015 H   0  0  0  0  0  0  0  0  0  0  0  0
   43.8777   32.8453   38.5898 H   0  0  0  0  0  0  0  0  0  0  0  0
   44.5919   34.1295   42.4749 H   0  0  0  0  0  0  0  0  0  0  0  0
   45.5771   35.4381   44.3249 H   0  0  0  0  0  0  0  0  0  0  0  0
   44.1631   38.6103   45.5297 H   0  0  0  0  0  0  0  0  0  0  0  0
   45.4575   37.3972   45.7184 H   0  0  0  0  0  0  0  0  0  0  0  0
   36.2371   34.0886   39.6542 H   0  0  0  0  0  0  0  0  0  0  0  0
   36.0776   30.8713   41.5692 H   0  0  0  0  0  0  0  0  0  0  0  0
   34.8035   28.7474   41.0891 H   0  0  0  0  0  0  0  0  0  0  0  0
   35.9115   29.0092   36.9867 H   0  0  0  0  0  0  0  0  0  0  0  0
  1  6  2  0
  2  3  2  0
  2  1  1  0
  3  4  1  0
  4  5  2  0
  5  7  1  0
  6  5  1  0
  7 13  1  0
  7  8  1  0
  8  9  2  0
  9 10  1  0
 10 11  1  0
 12 10  2  0
 13 12  1  0
 14 13  2  0
 15 19  1  0
 15 16  1  0
 16 17  2  0
 18 17  1  0
 18  1  1  0
 19 18  2  0
 20 15  1  0
 20 21  2  0
 22 21  1  0
 23 22  2  0
 24 25  2  0
 24 23  1  0
 25 20  1  0
  2 26  1  0
  3 27  1  0
  8 28  1  0
  9 29  1  0
 11 30  1  0
 11 31  1  0
 16 32  1  0
 21 33  1  0
 22 34  1  0
 24 35  1  0
M  END
>  <minimizedAffinity>  (1) 
-7.22710752

>  <minimizedRMSD>  (1) 
2.41208053

$$$$
