
     RDKit          3D

 51 55  0  0  0  0  0  0  0  0999 V2000
   39.2080   30.8980   41.5410 C   0  0  0  0  0  0  0  0  0  0  0  0
   39.2950   29.5170   41.4760 C   0  0  0  0  0  0  0  0  0  0  0  0
   38.6840   28.8450   40.3940 C   0  0  0  0  0  0  0  0  0  0  0  0
   38.0400   29.6570   39.4790 N   0  0  0  0  0  0  0  0  0  0  0  0
   37.9890   30.9910   39.5960 C   0  0  0  0  0  0  0  0  0  0  0  0
   38.5670   31.6060   40.6160 N   0  0  0  0  0  0  0  0  0  0  0  0
   39.9670   28.6620   42.4320 C   0  0  0  0  0  0  0  0  0  0  0  0
   39.5110   27.9390   43.4360 N   0  0  0  0  0  0  0  0  0  0  0  0
   40.4640   27.3180   44.0370 O   0  0  0  0  0  0  0  0  0  0  0  0
   41.6070   27.5920   43.4670 C   0  0  0  0  0  0  0  0  0  0  0  0
   41.3140   28.4360   42.4560 N   0  0  0  0  0  0  0  0  0  0  0  0
   42.9550   27.2070   43.6940 N   0  0  0  0  0  0  0  0  0  0  0  0
   43.7850   27.3260   42.6450 C   0  0  0  0  0  0  0  0  0  0  0  0
   45.1100   26.9800   42.7750 C   0  0  0  0  0  0  0  0  0  0  0  0
   45.4820   26.5150   44.0510 C   0  0  0  0  0  0  0  0  0  0  0  0
   46.6850   26.1890   44.2070 O   0  0  0  0  0  0  0  0  0  0  0  0
   44.6160   26.4040   45.0960 N   0  0  0  0  0  0  0  0  0  0  0  0
   43.3510   26.7550   44.9030 C   0  0  0  0  0  0  0  0  0  0  0  0
   42.5250   26.6710   45.8300 O   0  0  0  0  0  0  0  0  0  0  0  0
   37.2630   31.7260   38.5400 C   0  0  0  0  0  0  0  0  0  0  0  0
   36.7090   32.8720   39.0570 F   0  0  0  0  0  0  0  0  0  0  0  0
   38.0920   32.0460   37.5130 F   0  0  0  0  0  0  0  0  0  0  0  0
   36.1960   30.9380   38.0680 F   0  0  0  0  0  0  0  0  0  0  0  0
   38.6540   27.3840   40.1370 C   0  0  0  0  0  0  0  0  0  0  0  0
   40.0000   26.7500   40.0110 C   0  0  0  0  0  0  0  0  0  0  0  0
   38.0730   27.2140   38.6830 C   0  0  0  0  0  0  0  0  0  0  0  0
   37.7060   26.6260   40.9890 C   0  0  0  0  0  0  0  0  0  0  0  0
   37.8220   25.1620   40.8040 N   0  0  0  0  0  0  0  0  0  0  0  0
   38.7490   24.3130   41.3420 C   0  0  0  0  0  0  0  0  0  0  0  0
   38.5150   23.0510   40.9430 N   0  0  0  0  0  0  0  0  0  0  0  0
   37.4360   23.0550   40.1400 C   0  0  0  0  0  0  0  0  0  0  0  0
   36.7920   22.0290   39.4760 C   0  0  0  0  0  0  0  0  0  0  0  0
   35.7120   22.2960   38.7180 N   0  0  0  0  0  0  0  0  0  0  0  0
   35.3080   23.5930   38.6490 C   0  0  0  0  0  0  0  0  0  0  0  0
   35.9460   24.5720   39.3020 N   0  0  0  0  0  0  0  0  0  0  0  0
   37.0270   24.3640   40.0710 C   0  0  0  0  0  0  0  0  0  0  0  0
   39.6830   31.4241   42.3822 H   0  0  0  0  0  0  0  0  0  0  0  0
   43.4056   27.6999   41.6826 H   0  0  0  0  0  0  0  0  0  0  0  0
   45.8259   27.0606   41.9437 H   0  0  0  0  0  0  0  0  0  0  0  0
   44.9345   26.0568   46.0119 H   0  0  0  0  0  0  0  0  0  0  0  0
   40.4097   26.5570   41.0135 H   0  0  0  0  0  0  0  0  0  0  0  0
   39.9082   25.8004   39.4634 H   0  0  0  0  0  0  0  0  0  0  0  0
   40.6737   27.4255   39.4634 H   0  0  0  0  0  0  0  0  0  0  0  0
   37.0188   26.9056   38.7431 H   0  0  0  0  0  0  0  0  0  0  0  0
   38.1450   28.1709   38.1452 H   0  0  0  0  0  0  0  0  0  0  0  0
   38.6494   26.4469   38.1452 H   0  0  0  0  0  0  0  0  0  0  0  0
   37.9103   26.8655   42.0430 H   0  0  0  0  0  0  0  0  0  0  0  0
   36.6869   26.9196   40.6972 H   0  0  0  0  0  0  0  0  0  0  0  0
   39.5699   24.6194   42.0071 H   0  0  0  0  0  0  0  0  0  0  0  0
   37.1607   20.9966   39.5664 H   0  0  0  0  0  0  0  0  0  0  0  0
   34.4293   23.8454   38.0373 H   0  0  0  0  0  0  0  0  0  0  0  0
  2  1  2  0
  2  7  1  0
  3  2  1  0
  4  5  1  0
  4  3  2  0
  5  6  2  0
  6  1  1  0
  7 11  1  0
  7  8  2  0
  8  9  1  0
 10 12  1  0
 10  9  1  0
 11 10  2  0
 12 18  1  0
 13 14  2  0
 13 12  1  0
 14 15  1  0
 15 16  2  0
 15 17  1  0
 18 17  1  0
 18 19  2  0
 20 21  1  0
 20  5  1  0
 22 20  1  0
 23 20  1  0
 24  3  1  0
 24 27  1  0
 25 24  1  0
 26 24  1  0
 28 27  1  0
 28 29  1  0
 30 29  2  0
 31 30  1  0
 32 31  2  0
 33 32  1  0
 34 33  2  0
 34 35  1  0
 35 36  2  0
 36 31  1  0
 36 28  1  0
  1 37  1  0
 13 38  1  0
 14 39  1  0
 17 40  1  0
 25 41  1  0
 25 42  1  0
 25 43  1  0
 26 44  1  0
 26 45  1  0
 26 46  1  0
 27 47  1  0
 27 48  1  0
 29 49  1  0
 32 50  1  0
 34 51  1  0
M  ISO  8  37  14  38  14  39  14  40   9  41   8  42   8  43   8  44   8
M  ISO  7  45   8  46   8  47   8  48   8  49  14  50  14  51  14
M  END
>  <minimizedAffinity>  (1) 
-5.60399866

>  <minimizedRMSD>  (1) 
0.517924309

$$$$
