
     RDKit          3D

 53 56  0  0  0  0  0  0  0  0999 V2000
   36.7680   30.1600   41.7980 O   0  0  0  0  0  0  0  0  0  0  0  0
   37.3070   26.6360   41.0720 C   0  0  0  0  0  0  0  0  0  0  0  0
   38.3380   26.3420   41.9760 C   0  0  0  0  0  0  0  0  0  0  0  0
   38.8190   27.3590   42.8070 C   0  0  0  0  0  0  0  0  0  0  0  0
   38.2450   28.5990   42.6860 N   0  0  0  0  0  0  0  0  0  0  0  0
   37.2530   28.8640   41.8120 C   0  0  0  0  0  0  0  0  0  0  0  0
   36.7770   27.8810   40.9970 N   0  0  0  0  0  0  0  0  0  0  0  0
   39.8380   27.1170   43.7150 N   0  0  0  0  0  0  0  0  0  0  0  0
   36.7950   25.6700   40.2180 N   0  0  0  0  0  0  0  0  0  0  0  0
   38.8230   24.9640   41.9620 C   0  0  0  0  0  0  0  0  0  0  0  0
   37.6820   23.9590   41.7320 C   0  0  0  0  0  0  0  0  0  0  0  0
   39.5940   24.4980   43.1410 C   0  0  0  0  0  0  0  0  0  0  0  0
   39.7580   24.8460   40.7630 C   0  0  0  0  0  0  0  0  0  0  0  0
   37.0390   31.0600   40.7870 C   0  0  0  0  0  0  0  0  0  0  0  0
   36.6630   31.3390   39.5270 N   0  0  0  0  0  0  0  0  0  0  0  0
   37.3200   32.3640   39.0880 O   0  0  0  0  0  0  0  0  0  0  0  0
   38.1330   32.7940   40.0090 C   0  0  0  0  0  0  0  0  0  0  0  0
   37.9810   31.9920   41.0970 N   0  0  0  0  0  0  0  0  0  0  0  0
   39.0590   33.9380   39.9160 C   0  0  0  0  0  0  0  0  0  0  0  0
   38.7500   35.2130   40.3280 C   0  0  0  0  0  0  0  0  0  0  0  0
   39.6900   36.2400   40.2040 C   0  0  0  0  0  0  0  0  0  0  0  0
   40.9460   35.9860   39.6640 C   0  0  0  0  0  0  0  0  0  0  0  0
   41.2500   34.7080   39.2530 C   0  0  0  0  0  0  0  0  0  0  0  0
   40.3120   33.7140   39.3840 C   0  0  0  0  0  0  0  0  0  0  0  0
   40.7500   32.4380   38.9210 N   0  0  0  0  0  0  0  0  0  0  0  0
   40.6350   31.8850   37.7000 C   0  0  0  0  0  0  0  0  0  0  0  0
   41.1440   30.6220   37.4990 C   0  0  0  0  0  0  0  0  0  0  0  0
   41.7700   29.8900   38.4880 C   0  0  0  0  0  0  0  0  0  0  0  0
   42.2830   28.5860   38.2390 N   0  0  0  0  0  0  0  0  0  0  0  0
   41.8620   30.4920   39.7090 N   0  0  0  0  0  0  0  0  0  0  0  0
   41.3670   31.7250   39.9100 C   0  0  0  0  0  0  0  0  0  0  0  0
   41.5350   32.1410   41.1030 O   0  0  0  0  0  0  0  0  0  0  0  0
   40.1804   27.8774   44.3195 H   0  0  0  0  0  0  0  0  0  0  0  0
   40.2527   26.1768   43.7852 H   0  0  0  0  0  0  0  0  0  0  0  0
   36.0375   25.9110   39.5629 H   0  0  0  0  0  0  0  0  0  0  0  0
   37.1723   24.7118   40.2390 H   0  0  0  0  0  0  0  0  0  0  0  0
   37.2935   23.6168   42.7026 H   0  0  0  0  0  0  0  0  0  0  0  0
   36.8745   24.4446   41.1644 H   0  0  0  0  0  0  0  0  0  0  0  0
   38.0618   23.0967   41.1644 H   0  0  0  0  0  0  0  0  0  0  0  0
   39.0793   24.8091   44.0620 H   0  0  0  0  0  0  0  0  0  0  0  0
   39.6726   23.4011   43.1175 H   0  0  0  0  0  0  0  0  0  0  0  0
   40.6017   24.9384   43.1175 H   0  0  0  0  0  0  0  0  0  0  0  0
   40.7918   24.7155   41.1156 H   0  0  0  0  0  0  0  0  0  0  0  0
   39.4659   23.9776   40.1543 H   0  0  0  0  0  0  0  0  0  0  0  0
   39.6908   25.7598   40.1543 H   0  0  0  0  0  0  0  0  0  0  0  0
   37.7595   35.4255   40.7567 H   0  0  0  0  0  0  0  0  0  0  0  0
   39.4342   37.2570   40.5361 H   0  0  0  0  0  0  0  0  0  0  0  0
   41.6856   36.7944   39.5667 H   0  0  0  0  0  0  0  0  0  0  0  0
   42.2374   34.4847   38.8227 H   0  0  0  0  0  0  0  0  0  0  0  0
   40.1448   32.4303   36.8800 H   0  0  0  0  0  0  0  0  0  0  0  0
   41.0470   30.1731   36.4995 H   0  0  0  0  0  0  0  0  0  0  0  0
   42.7457   28.0616   38.9951 H   0  0  0  0  0  0  0  0  0  0  0  0
   42.1915   28.1667   37.3027 H   0  0  0  0  0  0  0  0  0  0  0  0
  1  6  1  0
  2  3  2  0
  3  4  1  0
  4  8  1  0
  5  4  2  0
  6  5  1  0
  7  2  1  0
  7  6  2  0
  9  2  1  0
 10  3  1  0
 10 12  1  0
 11 10  1  0
 13 10  1  0
 14 18  1  0
 14  1  1  0
 15 14  2  0
 16 15  1  0
 16 17  1  0
 17 18  2  0
 19 17  1  0
 19 20  2  0
 21 20  1  0
 22 21  2  0
 23 24  2  0
 23 22  1  0
 24 19  1  0
 25 24  1  0
 25 31  1  0
 26 25  1  0
 27 26  2  0
 27 28  1  0
 28 30  2  0
 29 28  1  0
 30 31  1  0
 31 32  2  0
  8 33  1  0
  8 34  1  0
  9 35  1  0
  9 36  1  0
 11 37  1  0
 11 38  1  0
 11 39  1  0
 12 40  1  0
 12 41  1  0
 12 42  1  0
 13 43  1  0
 13 44  1  0
 13 45  1  0
 20 46  1  0
 21 47  1  0
 22 48  1  0
 23 49  1  0
 26 50  1  0
 27 51  1  0
 29 52  1  0
 29 53  1  0
M  END
>  <minimizedAffinity>  (1) 
-7.19064665

>  <minimizedRMSD>  (1) 
0.234407514

$$$$
