
     RDKit          3D

 33 35  0  0  1  0  0  0  0  0999 V2000
   38.0220   27.5830   41.4200 N   0  0  0  0  0  0  0  0  0  0  0  0
   38.1020   26.4940   42.3720 C   0  0  0  0  0  0  0  0  0  0  0  0
   39.0810   26.9850   43.4260 C   0  0  0  0  0  0  0  0  0  0  0  0
   39.5980   28.3080   42.9280 C   0  0  0  0  0  0  0  0  0  0  0  0
   39.3230   28.1620   41.4400 C   0  0  2  0  0  0  0  0  0  0  0  0
   39.5230   29.3400   40.6800 N   0  0  0  0  0  0  0  0  0  0  0  0
   39.9900   29.4150   39.4150 C   0  0  0  0  0  0  0  0  0  0  0  0
   40.1640   30.5970   38.7260 C   0  0  0  0  0  0  0  0  0  0  0  0
   39.8300   31.7590   39.3960 C   0  0  0  0  0  0  0  0  0  0  0  0
   40.0170   32.9790   38.6660 N   0  0  0  0  0  0  0  0  0  0  0  0
   39.3690   31.6860   40.6430 N   0  0  0  0  0  0  0  0  0  0  0  0
   39.2130   30.5060   41.2860 C   0  0  0  0  0  0  0  0  0  0  0  0
   38.7690   30.6510   42.4490 O   0  0  0  0  0  0  0  0  0  0  0  0
   35.9190   28.8510   41.1030 C   0  0  0  0  0  0  0  0  0  0  0  0
   36.9170   27.9690   40.6620 C   0  0  0  0  0  0  0  0  0  0  0  0
   36.7600   27.4560   39.3590 C   0  0  0  0  0  0  0  0  0  0  0  0
   35.6830   27.8310   38.6180 N   0  0  0  0  0  0  0  0  0  0  0  0
   34.7590   28.6820   39.0960 C   0  0  0  0  0  0  0  0  0  0  0  0
   34.8770   29.1980   40.3510 N   0  0  0  0  0  0  0  0  0  0  0  0
   37.1168   26.2942   42.8187 H   0  0  0  0  0  0  0  0  0  0  0  0
   38.4256   25.5519   41.9054 H   0  0  0  0  0  0  0  0  0  0  0  0
   38.5703   27.1133   44.3918 H   0  0  0  0  0  0  0  0  0  0  0  0
   39.8987   26.2660   43.5824 H   0  0  0  0  0  0  0  0  0  0  0  0
   39.0435   29.1522   43.3638 H   0  0  0  0  0  0  0  0  0  0  0  0
   40.6465   28.5196   43.1847 H   0  0  0  0  0  0  0  0  0  0  0  0
   40.0481   27.5227   40.9151 H   0  0  0  0  0  0  0  0  0  0  0  0
   40.2473   28.4761   38.9030 H   0  0  0  0  0  0  0  0  0  0  0  0
   40.5490   30.6142   37.6957 H   0  0  0  0  0  0  0  0  0  0  0  0
   39.7880   33.8821   39.1051 H   0  0  0  0  0  0  0  0  0  0  0  0
   40.3803   32.9522   37.7026 H   0  0  0  0  0  0  0  0  0  0  0  0
   36.0013   29.2744   42.1149 H   0  0  0  0  0  0  0  0  0  0  0  0
   37.5024   26.7580   38.9446 H   0  0  0  0  0  0  0  0  0  0  0  0
   33.9006   28.9640   38.4686 H   0  0  0  0  0  0  0  0  0  0  0  0
  1  5  1  0
  1  2  1  0
  2  3  1  0
  4  3  1  0
  5  4  1  0
  6 12  1  0
  6  5  1  0
  7  6  1  0
  8  9  1  0
  8  7  2  0
  9 11  2  0
 10  9  1  0
 11 12  1  0
 12 13  2  0
 15 14  2  0
 15  1  1  0
 16 15  1  0
 17 18  1  0
 17 16  2  0
 18 19  2  0
 19 14  1  0
  2 20  1  0
  2 21  1  0
  3 22  1  0
  3 23  1  0
  4 24  1  0
  4 25  1  0
  5 26  1  6
  7 27  1  0
  8 28  1  0
 10 29  1  0
 10 30  1  0
 14 31  1  0
 16 32  1  0
 18 33  1  0
M  ISO  8  20  13  21  13  22  13  23  13  24  13  25  13  26  13  27  14
M  ISO  4  28  14  31  14  32  14  33  14
M  END
>  <minimizedAffinity>  (1) 
-4.343009

>  <minimizedRMSD>  (1) 
1.823277

$$$$
