
     RDKit          3D

 16 17  0  0  0  0  0  0  0  0999 V2000
   38.1160   29.0740   43.3490 C   0  0  0  0  0  0  0  0  0  0  0  0
   37.7740   27.7400   43.5970 C   0  0  0  0  0  0  0  0  0  0  0  0
   36.9080   27.0980   42.7020 C   0  0  0  0  0  0  0  0  0  0  0  0
   36.4480   27.8230   41.6340 N   0  0  0  0  0  0  0  0  0  0  0  0
   36.8000   29.1070   41.4270 C   0  0  0  0  0  0  0  0  0  0  0  0
   37.6250   29.7300   42.2740 N   0  0  0  0  0  0  0  0  0  0  0  0
   36.5760   25.7960   42.9470 O   0  0  0  0  0  0  0  0  0  0  0  0
   37.1410   24.8190   42.1220 C   0  0  0  0  0  0  0  0  0  0  0  0
   38.4180   24.3920   42.1820 N   0  0  0  0  0  0  0  0  0  0  0  0
   38.6280   23.4660   41.2670 O   0  0  0  0  0  0  0  0  0  0  0  0
   37.4950   23.2920   40.6150 C   0  0  0  0  0  0  0  0  0  0  0  0
   36.5520   24.1100   41.1150 N   0  0  0  0  0  0  0  0  0  0  0  0
   38.7946   29.5966   44.0392 H   0  0  0  0  0  0  0  0  0  0  0  0
   38.1750   27.2086   44.4727 H   0  0  0  0  0  0  0  0  0  0  0  0
   36.4051   29.6469   40.5537 H   0  0  0  0  0  0  0  0  0  0  0  0
   37.3440   22.5841   39.7867 H   0  0  0  0  0  0  0  0  0  0  0  0
  1  2  2  0
  3  7  1  0
  3  2  1  0
  4  3  2  0
  5  4  1  0
  5  6  2  0
  6  1  1  0
  8  9  2  0
  8  7  1  0
 10  9  1  0
 11 12  2  0
 11 10  1  0
 12  8  1  0
  1 13  1  0
  2 14  1  0
  5 15  1  0
 11 16  1  0
M  ISO  4  13  14  14  14  15  14  16  14
M  END
>  <minimizedAffinity>  (1) 
-3.48541117

>  <minimizedRMSD>  (1) 
1.92207909

$$$$
