
     RDKit          3D

 47 51  0  0  0  0  0  0  0  0999 V2000
   36.1060   30.0590   41.1010 C   0  0  0  0  0  0  0  0  0  0  0  0
   38.6040   28.1660   42.6920 C   0  0  0  0  0  0  0  0  0  0  0  0
   37.5300   27.3290   42.8080 C   0  0  0  0  0  0  0  0  0  0  0  0
   36.4500   27.9720   42.2050 C   0  0  0  0  0  0  0  0  0  0  0  0
   36.9580   29.1370   41.7750 N   0  0  0  0  0  0  0  0  0  0  0  0
   38.2120   29.2870   42.0410 N   0  0  0  0  0  0  0  0  0  0  0  0
   41.5470   26.5560   44.3290 C   0  0  0  0  0  0  0  0  0  0  0  0
   40.2350   26.7500   43.8740 C   0  0  0  0  0  0  0  0  0  0  0  0
   39.9500   27.9300   43.1740 C   0  0  0  0  0  0  0  0  0  0  0  0
   40.9270   28.8290   42.9610 N   0  0  0  0  0  0  0  0  0  0  0  0
   42.1890   28.5960   43.4220 C   0  0  0  0  0  0  0  0  0  0  0  0
   42.4900   27.4820   44.0920 N   0  0  0  0  0  0  0  0  0  0  0  0
   43.0830   29.6760   43.0910 N   0  0  0  0  0  0  0  0  0  0  0  0
   42.9850   30.8930   43.6440 C   0  0  0  0  0  0  0  0  0  0  0  0
   44.0120   31.6060   43.0600 C   0  0  0  0  0  0  0  0  0  0  0  0
   44.6910   30.8430   42.1970 N   0  0  0  0  0  0  0  0  0  0  0  0
   44.1090   29.6270   42.2150 C   0  0  0  0  0  0  0  0  0  0  0  0
   35.2300   29.4740   40.0380 C   0  0  0  0  0  0  0  0  0  0  0  0
   35.8580   29.4050   38.7030 C   0  0  0  0  0  0  0  0  0  0  0  0
   37.1820   29.5340   38.3900 C   0  0  0  0  0  0  0  0  0  0  0  0
   37.7170   29.5280   37.1350 C   0  0  0  0  0  0  0  0  0  0  0  0
   36.8750   29.3780   36.0440 C   0  0  0  0  0  0  0  0  0  0  0  0
   35.5150   29.2390   36.2930 C   0  0  0  0  0  0  0  0  0  0  0  0
   34.7510   29.0960   35.1650 C   0  0  0  0  0  0  0  0  0  0  0  0
   33.3940   28.9470   35.3020 C   0  0  0  0  0  0  0  0  0  0  0  0
   32.8390   28.9440   36.5640 C   0  0  0  0  0  0  0  0  0  0  0  0
   33.6680   29.0920   37.6350 C   0  0  0  0  0  0  0  0  0  0  0  0
   35.0150   29.2490   37.5840 C   0  0  0  0  0  0  0  0  0  0  0  0
   33.0440   29.0650   38.8770 O   0  0  0  0  0  0  0  0  0  0  0  0
   35.4563   30.5308   41.8529 H   0  0  0  0  0  0  0  0  0  0  0  0
   36.7747   30.7636   40.5849 H   0  0  0  0  0  0  0  0  0  0  0  0
   37.5197   26.3381   43.2855 H   0  0  0  0  0  0  0  0  0  0  0  0
   35.4170   27.6074   42.1046 H   0  0  0  0  0  0  0  0  0  0  0  0
   41.8049   25.6411   44.8826 H   0  0  0  0  0  0  0  0  0  0  0  0
   39.4534   25.9989   44.0608 H   0  0  0  0  0  0  0  0  0  0  0  0
   42.2557   31.2421   44.3898 H   0  0  0  0  0  0  0  0  0  0  0  0
   44.2412   32.6601   43.2754 H   0  0  0  0  0  0  0  0  0  0  0  0
   44.4151   28.7523   41.6225 H   0  0  0  0  0  0  0  0  0  0  0  0
   34.9540   28.4535   40.3420 H   0  0  0  0  0  0  0  0  0  0  0  0
   34.3609   30.1416   39.9432 H   0  0  0  0  0  0  0  0  0  0  0  0
   37.8827   29.6540   39.2294 H   0  0  0  0  0  0  0  0  0  0  0  0
   38.8017   29.6406   36.9908 H   0  0  0  0  0  0  0  0  0  0  0  0
   37.2696   29.3693   35.0173 H   0  0  0  0  0  0  0  0  0  0  0  0
   35.2166   29.1005   34.1684 H   0  0  0  0  0  0  0  0  0  0  0  0
   32.7553   28.8311   34.4139 H   0  0  0  0  0  0  0  0  0  0  0  0
   31.7543   28.8251   36.7027 H   0  0  0  0  0  0  0  0  0  0  0  0
   33.5805   29.1663   39.7028 H   0  0  0  0  0  0  0  0  0  0  0  0
  1  5  1  0
  2  3  1  0
  2  9  1  0
  4  3  2  0
  5  6  1  0
  5  4  1  0
  6  2  2  0
  8  7  2  0
  9  8  1  0
 10  9  2  0
 10 11  1  0
 11 12  2  0
 12  7  1  0
 13 11  1  0
 13 14  1  0
 15 14  2  0
 16 17  2  0
 16 15  1  0
 17 13  1  0
 18  1  1  0
 19 18  1  0
 20 19  2  0
 21 20  1  0
 22 23  1  0
 22 21  2  0
 23 28  2  0
 24 25  2  0
 24 23  1  0
 25 26  1  0
 26 27  2  0
 27 29  1  0
 28 27  1  0
 28 19  1  0
  1 30  1  0
  1 31  1  0
  3 32  1  0
  4 33  1  0
  7 34  1  0
  8 35  1  0
 14 36  1  0
 15 37  1  0
 17 38  1  0
 18 39  1  0
 18 40  1  0
 20 41  1  0
 21 42  1  0
 22 43  1  0
 24 44  1  0
 25 45  1  0
 26 46  1  0
 29 47  1  0
M  ISO  8  30   8  31   8  32  14  33  14  34  14  35  14  36  14  37  14
M  ISO  8  38  14  39   8  40   8  41  14  42  14  43  14  44  14  45  14
M  ISO  2  46  14  47   3
M  END
>  <minimizedAffinity>  (1) 
-6.20405388

>  <minimizedRMSD>  (1) 
0.15882577

$$$$
