
     RDKit          3D

 42 45  0  0  1  0  0  0  0  0999 V2000
   34.1610   25.8550   36.6760 N   0  0  0  0  0  0  0  0  0  0  0  0
   34.0240   27.1820   37.2360 C   0  0  0  0  0  0  0  0  0  0  0  0
   34.9110   28.1900   36.5590 C   0  0  0  0  0  0  0  0  0  0  0  0
   36.1560   27.5690   35.9860 C   0  0  2  0  0  0  0  0  0  0  0  0
   36.5700   26.3240   36.7480 C   0  0  0  0  0  0  0  0  0  0  0  0
   35.4960   25.3040   36.8210 C   0  0  1  0  0  0  0  0  0  0  0  0
   35.5310   24.6100   38.0940 N   0  0  0  0  0  0  0  0  0  0  0  0
   36.3280   24.8240   39.1560 C   0  0  0  0  0  0  0  0  0  0  0  0
   36.0660   23.9590   40.1950 C   0  0  0  0  0  0  0  0  0  0  0  0
   35.0590   23.1860   39.7300 N   0  0  0  0  0  0  0  0  0  0  0  0
   34.7360   23.5710   38.4790 C   0  0  0  0  0  0  0  0  0  0  0  0
   37.5170   28.7500   36.1690 S   0  0  0  0  0  0  0  0  0  0  0  0
   37.2600   29.7310   40.0660 C   0  0  0  0  0  0  0  0  0  0  0  0
   37.1380   31.0950   40.0710 C   0  0  0  0  0  0  0  0  0  0  0  0
   37.1300   31.7650   38.8600 C   0  0  0  0  0  0  0  0  0  0  0  0
   37.2480   31.0220   37.6950 C   0  0  0  0  0  0  0  0  0  0  0  0
   37.3710   29.6450   37.6980 C   0  0  0  0  0  0  0  0  0  0  0  0
   37.3730   29.0290   38.8940 N   0  0  0  0  0  0  0  0  0  0  0  0
   37.7200   28.9750   43.6150 C   0  0  0  0  0  0  0  0  0  0  0  0
   37.3300   27.6120   43.7050 C   0  0  0  0  0  0  0  0  0  0  0  0
   36.9140   26.9830   42.5260 C   0  0  0  0  0  0  0  0  0  0  0  0
   36.9080   27.6990   41.3910 N   0  0  0  0  0  0  0  0  0  0  0  0
   37.2730   28.9710   41.3180 C   0  0  0  0  0  0  0  0  0  0  0  0
   37.6740   29.5880   42.4350 N   0  0  0  0  0  0  0  0  0  0  0  0
   33.9329   25.8988   35.6725 H   0  0  0  0  0  0  0  0  0  0  0  0
   32.9778   27.5040   37.1271 H   0  0  0  0  0  0  0  0  0  0  0  0
   34.3248   27.1302   38.2928 H   0  0  0  0  0  0  0  0  0  0  0  0
   34.3464   28.6653   35.7434 H   0  0  0  0  0  0  0  0  0  0  0  0
   35.2220   28.9241   37.3169 H   0  0  0  0  0  0  0  0  0  0  0  0
   35.9464   27.3089   34.9380 H   0  0  0  0  0  0  0  0  0  0  0  0
   37.4417   25.8795   36.2456 H   0  0  0  0  0  0  0  0  0  0  0  0
   36.8017   26.6314   37.7784 H   0  0  0  0  0  0  0  0  0  0  0  0
   35.6939   24.6238   35.9795 H   0  0  0  0  0  0  0  0  0  0  0  0
   37.1032   25.6036   39.1908 H   0  0  0  0  0  0  0  0  0  0  0  0
   36.5613   23.9087   41.1759 H   0  0  0  0  0  0  0  0  0  0  0  0
   33.9486   23.1150   37.8609 H   0  0  0  0  0  0  0  0  0  0  0  0
   37.0482   31.6469   41.0183 H   0  0  0  0  0  0  0  0  0  0  0  0
   37.0324   32.8600   38.8225 H   0  0  0  0  0  0  0  0  0  0  0  0
   37.2436   31.5495   36.7297 H   0  0  0  0  0  0  0  0  0  0  0  0
   38.0563   29.5176   44.5108 H   0  0  0  0  0  0  0  0  0  0  0  0
   37.3540   27.0724   44.6633 H   0  0  0  0  0  0  0  0  0  0  0  0
   36.6000   25.9288   42.5296 H   0  0  0  0  0  0  0  0  0  0  0  0
  1  6  1  0
  1  2  1  0
  3  2  1  0
  4 12  1  0
  4  3  1  0
  4  5  1  0
  5  6  1  0
  6  7  1  0
  7 11  1  0
  7  8  1  0
  8  9  2  0
 10  9  1  0
 11 10  2  0
 12 17  1  0
 13 14  2  0
 13 23  1  0
 15 14  1  0
 16 17  1  0
 16 15  2  0
 17 18  2  0
 18 13  1  0
 19 20  2  0
 21 20  1  0
 22 21  2  0
 23 22  1  0
 23 24  2  0
 24 19  1  0
  1 25  1  0
  2 26  1  0
  2 27  1  0
  3 28  1  0
  3 29  1  0
  4 30  1  6
  5 31  1  0
  5 32  1  0
  6 33  1  6
  8 34  1  0
  9 35  1  0
 11 36  1  0
 14 37  1  0
 15 38  1  0
 16 39  1  0
 19 40  1  0
 20 41  1  0
 21 42  1  0
M  ISO  8  25   5  26  13  27  13  28  13  29  13  30  13  31  13  32  13
M  ISO  8  33  13  34  14  35  14  36  14  37  14  38  14  39  14  40  14
M  ISO  2  41  14  42  14
M  END
>  <minimizedAffinity>  (1) 
-4.64236069

>  <minimizedRMSD>  (1) 
1.17267561

$$$$
