
     RDKit          3D

 34 37  0  0  1  0  0  0  0  0999 V2000
   39.4530   30.6410   41.3330 C   0  0  1  0  0  0  0  0  0  0  0  0
   39.8610   30.6910   42.7530 C   0  0  0  0  0  0  0  0  0  0  0  0
   38.6030   29.9840   42.5140 C   0  0  2  0  0  0  0  0  0  0  0  0
   38.6230   28.5130   42.4970 C   0  0  0  0  0  0  0  0  0  0  0  0
   39.3940   27.7570   43.3500 C   0  0  0  0  0  0  0  0  0  0  0  0
   39.3570   26.4090   43.4540 C   0  0  0  0  0  0  0  0  0  0  0  0
   38.4790   25.7430   42.6380 C   0  0  0  0  0  0  0  0  0  0  0  0
   37.6940   26.4520   41.7750 C   0  0  0  0  0  0  0  0  0  0  0  0
   37.7740   27.8710   41.7100 C   0  0  0  0  0  0  0  0  0  0  0  0
   36.8160   28.2440   40.7360 N   0  0  0  0  0  0  0  0  0  0  0  0
   36.8350   28.0750   39.3760 C   0  0  0  0  0  0  0  0  0  0  0  0
   35.6230   28.6040   38.9360 C   0  0  0  0  0  0  0  0  0  0  0  0
   34.9170   29.0690   40.0010 N   0  0  0  0  0  0  0  0  0  0  0  0
   35.6510   28.8500   41.1260 C   0  0  0  0  0  0  0  0  0  0  0  0
   38.7790   31.8380   40.7170 C   0  0  0  0  0  0  0  0  0  0  0  0
   37.7770   31.5970   39.7810 C   0  0  0  0  0  0  0  0  0  0  0  0
   37.1430   32.6840   39.2430 C   0  0  0  0  0  0  0  0  0  0  0  0
   37.4950   33.9440   39.6230 N   0  0  0  0  0  0  0  0  0  0  0  0
   38.4720   34.1460   40.5350 C   0  0  0  0  0  0  0  0  0  0  0  0
   39.0840   33.0670   41.0530 N   0  0  0  0  0  0  0  0  0  0  0  0
   39.9596   30.3407   40.4040 H   0  0  0  0  0  0  0  0  0  0  0  0
   40.7424   30.1172   43.0752 H   0  0  0  0  0  0  0  0  0  0  0  0
   40.1294   31.5240   43.4194 H   0  0  0  0  0  0  0  0  0  0  0  0
   37.5905   30.0596   42.9373 H   0  0  0  0  0  0  0  0  0  0  0  0
   40.0992   28.2938   44.0016 H   0  0  0  0  0  0  0  0  0  0  0  0
   40.0033   25.8702   44.1625 H   0  0  0  0  0  0  0  0  0  0  0  0
   38.4078   24.6461   42.6785 H   0  0  0  0  0  0  0  0  0  0  0  0
   36.9893   25.9184   41.1203 H   0  0  0  0  0  0  0  0  0  0  0  0
   37.6308   27.6220   38.7666 H   0  0  0  0  0  0  0  0  0  0  0  0
   35.2890   28.6398   37.8885 H   0  0  0  0  0  0  0  0  0  0  0  0
   35.3629   29.1106   42.1551 H   0  0  0  0  0  0  0  0  0  0  0  0
   37.5055   30.5728   39.4854 H   0  0  0  0  0  0  0  0  0  0  0  0
   36.3450   32.5395   38.4998 H   0  0  0  0  0  0  0  0  0  0  0  0
   38.7576   35.1624   40.8439 H   0  0  0  0  0  0  0  0  0  0  0  0
  1  3  1  0
  1  2  1  0
  3  2  1  0
  4  3  1  0
  4  5  2  0
  5  6  1  0
  7  6  2  0
  8  7  1  0
  9  8  2  0
  9  4  1  0
 10 14  1  0
 10  9  1  0
 11 10  1  0
 12 11  2  0
 12 13  1  0
 13 14  2  0
 15 20  1  0
 15  1  1  0
 16 15  2  0
 17 18  2  0
 17 16  1  0
 18 19  1  0
 19 20  2  0
  1 21  1  6
  2 22  1  0
  2 23  1  0
  3 24  1  1
  5 25  1  0
  6 26  1  0
  7 27  1  0
  8 28  1  0
 11 29  1  0
 12 30  1  0
 14 31  1  0
 16 32  1  0
 17 33  1  0
 19 34  1  0
M  ISO  8  21  13  22  13  23  13  24  13  25  14  26  14  27  14  28  14
M  ISO  6  29  14  30  14  31  14  32  14  33  14  34  14
M  END
>  <minimizedAffinity>  (1) 
-5.28515148

>  <minimizedRMSD>  (1) 
1.64102745

$$$$
