
     RDKit          3D

 32 35  0  0  0  0  0  0  0  0999 V2000
   40.7830   29.2960   41.4520 C   0  0  0  0  0  0  0  0  0  0  0  0
   39.9440   28.2620   41.3170 N   0  0  0  0  0  0  0  0  0  0  0  0
   40.5540   27.1760   41.7130 O   0  0  0  0  0  0  0  0  0  0  0  0
   41.7730   27.4460   42.1090 C   0  0  0  0  0  0  0  0  0  0  0  0
   41.9290   28.7700   41.9510 N   0  0  0  0  0  0  0  0  0  0  0  0
   42.8160   26.6470   42.6140 N   0  0  0  0  0  0  0  0  0  0  0  0
   44.0560   27.1640   42.4530 C   0  0  0  0  0  0  0  0  0  0  0  0
   45.1560   26.4510   42.8910 C   0  0  0  0  0  0  0  0  0  0  0  0
   44.8650   25.2140   43.4790 C   0  0  0  0  0  0  0  0  0  0  0  0
   45.8120   24.5020   43.9010 O   0  0  0  0  0  0  0  0  0  0  0  0
   43.6190   24.7260   43.6250 N   0  0  0  0  0  0  0  0  0  0  0  0
   42.5760   25.4500   43.1880 C   0  0  0  0  0  0  0  0  0  0  0  0
   41.4000   25.0270   43.3060 O   0  0  0  0  0  0  0  0  0  0  0  0
   41.5930   31.6080   40.7630 C   0  0  0  0  0  0  0  0  0  0  0  0
   40.6100   30.7140   41.1510 C   0  0  0  0  0  0  0  0  0  0  0  0
   39.3070   31.1900   41.2730 C   0  0  0  0  0  0  0  0  0  0  0  0
   39.0580   32.5080   41.0060 N   0  0  0  0  0  0  0  0  0  0  0  0
   40.0600   33.3360   40.6290 C   0  0  0  0  0  0  0  0  0  0  0  0
   41.3160   32.8830   40.5100 N   0  0  0  0  0  0  0  0  0  0  0  0
   39.8730   34.7150   40.3360 N   0  0  0  0  0  0  0  0  0  0  0  0
   40.9740   35.4730   40.1910 C   0  0  0  0  0  0  0  0  0  0  0  0
   40.5660   36.7600   39.9140 C   0  0  0  0  0  0  0  0  0  0  0  0
   39.2250   36.7760   39.8930 N   0  0  0  0  0  0  0  0  0  0  0  0
   38.8070   35.5240   40.1520 C   0  0  0  0  0  0  0  0  0  0  0  0
   44.1879   28.1464   41.9761 H   0  0  0  0  0  0  0  0  0  0  0  0
   46.1842   26.8275   42.7855 H   0  0  0  0  0  0  0  0  0  0  0  0
   43.4674   23.8080   44.0668 H   0  0  0  0  0  0  0  0  0  0  0  0
   42.6296   31.2542   40.6615 H   0  0  0  0  0  0  0  0  0  0  0  0
   38.4920   30.5175   41.5789 H   0  0  0  0  0  0  0  0  0  0  0  0
   42.0147   35.1276   40.2779 H   0  0  0  0  0  0  0  0  0  0  0  0
   41.2251   37.6234   39.7404 H   0  0  0  0  0  0  0  0  0  0  0  0
   37.7552   35.2066   40.2059 H   0  0  0  0  0  0  0  0  0  0  0  0
  1  5  1  0
  2  1  2  0
  2  3  1  0
  3  4  1  0
  4  6  1  0
  5  4  2  0
  6 12  1  0
  7  6  1  0
  7  8  2  0
  8  9  1  0
  9 11  1  0
  9 10  2  0
 12 13  2  0
 12 11  1  0
 14 15  2  0
 15 16  1  0
 15  1  1  0
 17 16  2  0
 18 17  1  0
 19 18  2  0
 19 14  1  0
 20 18  1  0
 21 20  1  0
 22 21  2  0
 23 22  1  0
 23 24  2  0
 24 20  1  0
  7 25  1  0
  8 26  1  0
 11 27  1  0
 14 28  1  0
 16 29  1  0
 21 30  1  0
 22 31  1  0
 24 32  1  0
M  ISO  8  25  14  26  14  27   9  28  14  29  14  30  14  31  14  32  14
M  END
>  <minimizedAffinity>  (1) 
-5.74655962

>  <minimizedRMSD>  (1) 
2.74233651

$$$$
