
     RDKit          3D

 50 54  0  0  0  0  0  0  0  0999 V2000
   35.1520   29.1130   40.5700 C   0  0  0  0  0  0  0  0  0  0  0  0
   36.1730   28.2440   41.0020 C   0  0  0  0  0  0  0  0  0  0  0  0
   36.7280   27.3580   40.0380 C   0  0  0  0  0  0  0  0  0  0  0  0
   36.2570   27.3900   38.7690 N   0  0  0  0  0  0  0  0  0  0  0  0
   35.2510   28.2680   38.4030 C   0  0  0  0  0  0  0  0  0  0  0  0
   34.6940   29.1280   39.2900 N   0  0  0  0  0  0  0  0  0  0  0  0
   36.6430   28.2290   42.3170 N   0  0  0  0  0  0  0  0  0  0  0  0
   36.2370   27.4000   43.2920 C   0  0  0  0  0  0  0  0  0  0  0  0
   36.9780   27.7660   44.3910 C   0  0  0  0  0  0  0  0  0  0  0  0
   37.8130   28.7980   44.0760 N   0  0  0  0  0  0  0  0  0  0  0  0
   37.5860   29.0650   42.7920 C   0  0  0  0  0  0  0  0  0  0  0  0
   38.3610   30.1260   42.2410 N   0  0  0  0  0  0  0  0  0  0  0  0
   39.6750   30.3390   42.6020 C   0  0  0  0  0  0  0  0  0  0  0  0
   40.1890   31.4190   41.9260 N   0  0  0  0  0  0  0  0  0  0  0  0
   39.2170   31.8930   41.1440 C   0  0  0  0  0  0  0  0  0  0  0  0
   39.1710   32.9400   40.2680 C   0  0  0  0  0  0  0  0  0  0  0  0
   37.9850   33.1320   39.6280 N   0  0  0  0  0  0  0  0  0  0  0  0
   36.9030   32.3560   39.8230 C   0  0  0  0  0  0  0  0  0  0  0  0
   36.9400   31.3130   40.6930 N   0  0  0  0  0  0  0  0  0  0  0  0
   38.0940   31.1020   41.3340 C   0  0  0  0  0  0  0  0  0  0  0  0
   40.2740   33.7860   40.0220 N   0  0  0  0  0  0  0  0  0  0  0  0
   34.7200   28.3260   37.0360 C   0  0  0  0  0  0  0  0  0  0  0  0
   33.3510   28.9920   36.9930 C   0  0  0  0  0  0  0  0  0  0  0  0
   34.5360   26.9300   36.4820 C   0  0  0  0  0  0  0  0  0  0  0  0
   35.6430   29.0820   36.1020 C   0  0  0  0  0  0  0  0  0  0  0  0
   37.0380   29.1310   36.5170 C   0  0  0  0  0  0  0  0  0  0  0  0
   37.6280   30.1280   37.2700 C   0  0  0  0  0  0  0  0  0  0  0  0
   38.9530   30.1390   37.6340 C   0  0  0  0  0  0  0  0  0  0  0  0
   39.6960   29.0900   37.2070 N   0  0  0  0  0  0  0  0  0  0  0  0
   39.1230   28.1200   36.4730 C   0  0  0  0  0  0  0  0  0  0  0  0
   37.8440   28.1040   36.1200 N   0  0  0  0  0  0  0  0  0  0  0  0
   34.7072   29.8076   41.2978 H   0  0  0  0  0  0  0  0  0  0  0  0
   37.5279   26.6572   40.3191 H   0  0  0  0  0  0  0  0  0  0  0  0
   35.4799   26.6048   43.2263 H   0  0  0  0  0  0  0  0  0  0  0  0
   36.9076   27.2943   45.3822 H   0  0  0  0  0  0  0  0  0  0  0  0
   40.2328   29.7301   43.3287 H   0  0  0  0  0  0  0  0  0  0  0  0
   35.9760   32.5690   39.2705 H   0  0  0  0  0  0  0  0  0  0  0  0
   40.1878   34.5627   39.3510 H   0  0  0  0  0  0  0  0  0  0  0  0
   41.1650   33.6266   40.5135 H   0  0  0  0  0  0  0  0  0  0  0  0
   32.9951   29.1651   38.0193 H   0  0  0  0  0  0  0  0  0  0  0  0
   33.4275   29.9536   36.4643 H   0  0  0  0  0  0  0  0  0  0  0  0
   32.6417   28.3383   36.4643 H   0  0  0  0  0  0  0  0  0  0  0  0
   34.4418   26.2153   37.3128 H   0  0  0  0  0  0  0  0  0  0  0  0
   33.6258   26.8973   35.8652 H   0  0  0  0  0  0  0  0  0  0  0  0
   35.4067   26.6626   35.8652 H   0  0  0  0  0  0  0  0  0  0  0  0
   35.2749   30.1155   36.0221 H   0  0  0  0  0  0  0  0  0  0  0  0
   35.6267   28.5358   35.1474 H   0  0  0  0  0  0  0  0  0  0  0  0
   36.9967   30.9665   37.5991 H   0  0  0  0  0  0  0  0  0  0  0  0
   39.3848   30.9517   38.2366 H   0  0  0  0  0  0  0  0  0  0  0  0
   39.7569   27.2838   36.1431 H   0  0  0  0  0  0  0  0  0  0  0  0
  1  2  2  0
  2  7  1  0
  3  2  1  0
  4  3  2  0
  5  4  1  0
  5  6  2  0
  6  1  1  0
  7 11  1  0
  7  8  1  0
  8  9  2  0
 10  9  1  0
 11 10  2  0
 12 13  1  0
 12 11  1  0
 14 13  2  0
 15 20  2  0
 15 14  1  0
 16 15  1  0
 17 18  1  0
 17 16  2  0
 18 19  2  0
 19 20  1  0
 20 12  1  0
 21 16  1  0
 22  5  1  0
 23 22  1  0
 24 22  1  0
 25 26  1  0
 25 22  1  0
 26 27  2  0
 27 28  1  0
 29 28  2  0
 30 29  1  0
 31 30  2  0
 31 26  1  0
  1 32  1  0
  3 33  1  0
  8 34  1  0
  9 35  1  0
 13 36  1  0
 18 37  1  0
 21 38  1  0
 21 39  1  0
 23 40  1  0
 23 41  1  0
 23 42  1  0
 24 43  1  0
 24 44  1  0
 24 45  1  0
 25 46  1  0
 25 47  1  0
 27 48  1  0
 28 49  1  0
 30 50  1  0
M  ISO  8  32  14  33  14  34  14  35  14  36  14  37  14  40   8  41   8
M  ISO  8  42   8  43   8  44   8  45   8  46   8  47   8  48  14  49  14
M  ISO  1  50  14
M  END
>  <minimizedAffinity>  (1) 
-6.37606716

>  <minimizedRMSD>  (1) 
0.812106252

$$$$
