
     RDKit          3D

 43 46  0  0  0  0  0  0  0  0999 V2000
   36.7530   31.1410   40.4390 C   0  0  0  0  0  0  0  0  0  0  0  0
   36.6490   31.3700   39.0970 N   0  0  0  0  0  0  0  0  0  0  0  0
   37.5350   32.2820   38.7560 O   0  0  0  0  0  0  0  0  0  0  0  0
   38.1760   32.6190   39.8380 C   0  0  0  0  0  0  0  0  0  0  0  0
   37.7220   31.9370   40.8940 N   0  0  0  0  0  0  0  0  0  0  0  0
   39.2450   33.6090   39.8780 C   0  0  0  0  0  0  0  0  0  0  0  0
   39.1590   34.9490   40.1580 C   0  0  0  0  0  0  0  0  0  0  0  0
   40.3800   35.5510   40.0990 C   0  0  0  0  0  0  0  0  0  0  0  0
   41.2320   34.4990   39.7670 C   0  0  0  0  0  0  0  0  0  0  0  0
   40.5330   33.4350   39.6570 O   0  0  0  0  0  0  0  0  0  0  0  0
   42.6390   34.4320   39.5490 N   0  0  0  0  0  0  0  0  0  0  0  0
   43.4910   34.3510   40.6050 C   0  0  0  0  0  0  0  0  0  0  0  0
   44.8640   34.2810   40.4770 C   0  0  0  0  0  0  0  0  0  0  0  0
   45.6750   34.1970   41.7130 C   0  0  0  0  0  0  0  0  0  0  0  0
   45.3640   34.2990   39.1920 C   0  0  0  0  0  0  0  0  0  0  0  0
   46.5980   34.2370   39.0510 O   0  0  0  0  0  0  0  0  0  0  0  0
   44.4940   34.3790   38.1690 N   0  0  0  0  0  0  0  0  0  0  0  0
   43.1500   34.4460   38.3030 C   0  0  0  0  0  0  0  0  0  0  0  0
   42.4100   34.5200   37.2870 O   0  0  0  0  0  0  0  0  0  0  0  0
   36.0340   30.2650   41.2710 O   0  0  0  0  0  0  0  0  0  0  0  0
   37.9630   27.9940   43.3640 C   0  0  0  0  0  0  0  0  0  0  0  0
   37.7910   26.8170   42.5800 C   0  0  0  0  0  0  0  0  0  0  0  0
   37.0410   26.9010   41.4240 C   0  0  0  0  0  0  0  0  0  0  0  0
   36.5150   28.1020   41.1050 N   0  0  0  0  0  0  0  0  0  0  0  0
   36.6720   29.1950   41.8270 C   0  0  0  0  0  0  0  0  0  0  0  0
   37.4010   29.1570   42.9710 N   0  0  0  0  0  0  0  0  0  0  0  0
   36.9410   25.6370   40.7340 C   0  0  0  0  0  0  0  0  0  0  0  0
   37.0230   24.4230   41.5570 C   0  0  0  0  0  0  0  0  0  0  0  0
   37.8960   23.0730   40.6880 S   0  0  0  0  0  0  0  0  0  0  0  0
   38.2220   35.4720   40.3998 H   0  0  0  0  0  0  0  0  0  0  0  0
   40.6316   36.6079   40.2711 H   0  0  0  0  0  0  0  0  0  0  0  0
   43.0627   34.3406   41.6181 H   0  0  0  0  0  0  0  0  0  0  0  0
   45.0147   34.2654   42.5901 H   0  0  0  0  0  0  0  0  0  0  0  0
   46.2138   33.2382   41.7335 H   0  0  0  0  0  0  0  0  0  0  0  0
   46.3989   35.0250   41.7335 H   0  0  0  0  0  0  0  0  0  0  0  0
   44.8797   34.3900   37.2140 H   0  0  0  0  0  0  0  0  0  0  0  0
   38.5544   27.9552   44.2907 H   0  0  0  0  0  0  0  0  0  0  0  0
   38.2451   25.8638   42.8885 H   0  0  0  0  0  0  0  0  0  0  0  0
   35.9734   25.6194   40.2110 H   0  0  0  0  0  0  0  0  0  0  0  0
   37.8222   25.5983   40.0767 H   0  0  0  0  0  0  0  0  0  0  0  0
   37.5644   24.6578   42.4853 H   0  0  0  0  0  0  0  0  0  0  0  0
   35.9984   24.0854   41.7721 H   0  0  0  0  0  0  0  0  0  0  0  0
   38.4477   22.2199   41.6071 H   0  0  0  0  0  0  0  0  0  0  0  0
  1  5  1  0
  1 20  1  0
  2  1  2  0
  3  2  1  0
  3  4  1  0
  4  6  1  0
  4  5  2  0
  6  7  2  0
  8  7  1  0
  9  8  2  0
 10  9  1  0
 10  6  1  0
 11  9  1  0
 11 12  1  0
 13 12  2  0
 13 14  1  0
 15 13  1  0
 16 15  2  0
 17 18  1  0
 17 15  1  0
 18 11  1  0
 19 18  2  0
 20 25  1  0
 22 21  2  0
 23 22  1  0
 24 23  2  0
 24 25  1  0
 25 26  2  0
 26 21  1  0
 27 23  1  0
 27 28  1  0
 29 28  1  0
  7 30  1  0
  8 31  1  0
 12 32  1  0
 14 33  1  0
 14 34  1  0
 14 35  1  0
 17 36  1  0
 21 37  1  0
 22 38  1  0
 27 39  1  0
 27 40  1  0
 28 41  1  0
 28 42  1  0
 29 43  1  0
M  ISO  8  30  14  31  14  32  14  33   8  34   8  35   8  36   9  37  14
M  ISO  6  38  14  39   8  40   8  41   8  42   8  43  11
M  END
>  <minimizedAffinity>  (1) 
-6.61584616

>  <minimizedRMSD>  (1) 
0.759546876

$$$$
