
     RDKit          3D

 43 45  0  0  1  0  0  0  0  0999 V2000
   37.5030   30.6650   39.4480 C   0  0  1  0  0  0  0  0  0  0  0  0
   36.7860   29.4590   35.9540 C   0  0  0  0  0  0  0  0  0  0  0  0
   37.0600   30.3550   37.0190 C   0  0  0  0  0  0  0  0  0  0  0  0
   37.2220   29.8020   38.2890 C   0  0  0  0  0  0  0  0  0  0  0  0
   37.1040   28.4480   38.3990 N   0  0  0  0  0  0  0  0  0  0  0  0
   36.8500   27.6170   37.4060 C   0  0  0  0  0  0  0  0  0  0  0  0
   36.6880   28.1290   36.1590 N   0  0  0  0  0  0  0  0  0  0  0  0
   37.9870   32.0130   38.9080 C   0  0  0  0  0  0  0  0  0  0  0  0
   39.4270   32.1930   39.1760 C   0  0  2  0  0  0  0  0  0  0  0  0
   39.9590   31.3490   40.2980 C   0  0  0  0  0  0  0  0  0  0  0  0
   41.0560   32.1870   40.9500 C   0  0  0  0  0  0  0  0  0  0  0  0
   41.0820   33.5210   40.2050 C   0  0  0  0  0  0  0  0  0  0  0  0
   39.7040   33.5820   39.6260 C   0  0  2  0  0  0  0  0  0  0  0  0
   38.7850   34.0440   40.7350 C   0  0  0  0  0  0  0  0  0  0  0  0
   38.7190   34.6960   41.7710 O   0  0  0  0  0  0  0  0  0  0  0  0
   36.3160   30.8460   40.3640 C   0  0  0  0  0  0  0  0  0  0  0  0
   36.5330   30.4790   41.6570 O   0  0  0  0  0  0  0  0  0  0  0  0
   37.2600   29.4740   42.1740 C   0  0  0  0  0  0  0  0  0  0  0  0
   36.5520   28.2760   42.0020 C   0  0  0  0  0  0  0  0  0  0  0  0
   37.0330   27.0390   42.4310 C   0  0  0  0  0  0  0  0  0  0  0  0
   38.2320   27.0060   43.0350 N   0  0  0  0  0  0  0  0  0  0  0  0
   38.9320   28.1300   43.2140 C   0  0  0  0  0  0  0  0  0  0  0  0
   38.4380   29.3000   42.7900 N   0  0  0  0  0  0  0  0  0  0  0  0
   38.2721   30.1827   40.0692 H   0  0  0  0  0  0  0  0  0  0  0  0
   36.6503   29.8576   34.9378 H   0  0  0  0  0  0  0  0  0  0  0  0
   37.1412   31.4390   36.8505 H   0  0  0  0  0  0  0  0  0  0  0  0
   36.7713   26.5344   37.5844 H   0  0  0  0  0  0  0  0  0  0  0  0
   37.4243   32.8216   39.3974 H   0  0  0  0  0  0  0  0  0  0  0  0
   37.8226   32.0392   37.8207 H   0  0  0  0  0  0  0  0  0  0  0  0
   39.9041   31.9183   38.2237 H   0  0  0  0  0  0  0  0  0  0  0  0
   39.1625   31.1262   41.0232 H   0  0  0  0  0  0  0  0  0  0  0  0
   40.3418   30.3828   39.9374 H   0  0  0  0  0  0  0  0  0  0  0  0
   40.8284   32.3500   42.0138 H   0  0  0  0  0  0  0  0  0  0  0  0
   42.0307   31.6803   40.8937 H   0  0  0  0  0  0  0  0  0  0  0  0
   41.2636   34.3595   40.8934 H   0  0  0  0  0  0  0  0  0  0  0  0
   41.8820   33.5933   39.4535 H   0  0  0  0  0  0  0  0  0  0  0  0
   39.5726   34.2743   38.7813 H   0  0  0  0  0  0  0  0  0  0  0  0
   37.7842   33.6348   40.5327 H   0  0  0  0  0  0  0  0  0  0  0  0
   36.0335   31.9091   40.3525 H   0  0  0  0  0  0  0  0  0  0  0  0
   35.5254   30.1835   39.9819 H   0  0  0  0  0  0  0  0  0  0  0  0
   35.5712   28.3134   41.5054 H   0  0  0  0  0  0  0  0  0  0  0  0
   36.4486   26.1195   42.2794 H   0  0  0  0  0  0  0  0  0  0  0  0
   39.9135   28.0941   43.7094 H   0  0  0  0  0  0  0  0  0  0  0  0
  1 16  1  0
  2  7  2  0
  2  3  1  0
  3  4  2  0
  4  5  1  0
  4  1  1  0
  6  5  2  0
  7  6  1  0
  8  9  1  0
  8  1  1  0
  9 13  1  0
  9 10  1  0
 10 11  1  0
 12 11  1  0
 13 12  1  0
 13 14  1  0
 14 15  2  0
 16 17  1  0
 17 18  1  0
 18 23  1  0
 19 18  2  0
 19 20  1  0
 20 21  2  0
 21 22  1  0
 23 22  2  0
  1 24  1  1
  2 25  1  0
  3 26  1  0
  6 27  1  0
  8 28  1  0
  8 29  1  0
  9 30  1  6
 10 31  1  0
 10 32  1  0
 11 33  1  0
 11 34  1  0
 12 35  1  0
 12 36  1  0
 13 37  1  6
 14 38  1  0
 16 39  1  0
 16 40  1  0
 19 41  1  0
 20 42  1  0
 22 43  1  0
M  ISO  8  24   8  25  14  26  14  27  14  28   8  29   8  30  13  31  13
M  ISO  8  32  13  33  13  34  13  35  13  36  13  37  13  38   6  39   8
M  ISO  4  40   8  41  14  42  14  43  14
M  END
>  <minimizedAffinity>  (1) 
-4.99218559

>  <minimizedRMSD>  (1) 
6.44501352

$$$$
