
     RDKit          3D

 40 42  0  0  0  0  0  0  0  0999 V2000
   38.2600   28.3170   43.4400 C   0  0  0  0  0  0  0  0  0  0  0  0
   37.8020   26.9940   43.5590 C   0  0  0  0  0  0  0  0  0  0  0  0
   37.2460   26.4110   42.4120 C   0  0  0  0  0  0  0  0  0  0  0  0
   37.1800   27.1330   41.2780 N   0  0  0  0  0  0  0  0  0  0  0  0
   37.6250   28.3940   41.1930 C   0  0  0  0  0  0  0  0  0  0  0  0
   38.1650   28.9910   42.2690 N   0  0  0  0  0  0  0  0  0  0  0  0
   36.7500   25.0990   42.3840 N   0  0  0  0  0  0  0  0  0  0  0  0
   37.5690   29.1810   40.0100 N   0  0  0  0  0  0  0  0  0  0  0  0
   37.0880   28.5580   38.9100 C   0  0  0  0  0  0  0  0  0  0  0  0
   36.9530   29.1390   37.6740 C   0  0  0  0  0  0  0  0  0  0  0  0
   37.3410   30.4530   37.5660 C   0  0  0  0  0  0  0  0  0  0  0  0
   37.2500   31.0670   36.4640 O   0  0  0  0  0  0  0  0  0  0  0  0
   37.8250   31.0790   38.6750 N   0  0  0  0  0  0  0  0  0  0  0  0
   37.9320   30.4580   39.8520 C   0  0  0  0  0  0  0  0  0  0  0  0
   38.3680   31.0020   40.8720 O   0  0  0  0  0  0  0  0  0  0  0  0
   39.5160   34.7430   39.7040 N   0  0  0  0  0  0  0  0  0  0  0  0
   40.3640   33.5950   39.5010 C   0  0  0  0  0  0  0  0  0  0  0  0
   39.7430   32.4690   38.7620 C   0  0  0  0  0  0  0  0  0  0  0  0
   38.2550   32.4680   38.6420 C   0  0  0  0  0  0  0  0  0  0  0  0
   37.5220   33.3570   39.5750 C   0  0  0  0  0  0  0  0  0  0  0  0
   38.3810   34.2070   40.4590 C   0  0  0  0  0  0  0  0  0  0  0  0
   36.4160   28.3860   36.5150 C   0  0  0  0  0  0  0  0  0  0  0  0
   38.7042   28.8149   44.3145 H   0  0  0  0  0  0  0  0  0  0  0  0
   37.8763   26.4419   44.5075 H   0  0  0  0  0  0  0  0  0  0  0  0
   36.3510   24.7177   41.5143 H   0  0  0  0  0  0  0  0  0  0  0  0
   36.7848   24.5170   43.2331 H   0  0  0  0  0  0  0  0  0  0  0  0
   36.7820   27.5065   39.0139 H   0  0  0  0  0  0  0  0  0  0  0  0
   39.2059   35.1345   38.8032 H   0  0  0  0  0  0  0  0  0  0  0  0
   41.2503   33.9229   38.9380 H   0  0  0  0  0  0  0  0  0  0  0  0
   40.5962   33.2081   40.5042 H   0  0  0  0  0  0  0  0  0  0  0  0
   40.1569   32.4741   37.7429 H   0  0  0  0  0  0  0  0  0  0  0  0
   39.9794   31.5750   39.3578 H   0  0  0  0  0  0  0  0  0  0  0  0
   37.9842   32.9328   37.6825 H   0  0  0  0  0  0  0  0  0  0  0  0
   36.8844   34.0249   38.9772 H   0  0  0  0  0  0  0  0  0  0  0  0
   36.9583   32.6932   40.2470 H   0  0  0  0  0  0  0  0  0  0  0  0
   38.7564   33.5976   41.2943 H   0  0  0  0  0  0  0  0  0  0  0  0
   37.7799   35.0444   40.8429 H   0  0  0  0  0  0  0  0  0  0  0  0
   35.8125   27.5398   36.8753 H   0  0  0  0  0  0  0  0  0  0  0  0
   35.7873   29.0513   35.9050 H   0  0  0  0  0  0  0  0  0  0  0  0
   37.2498   28.0083   35.9050 H   0  0  0  0  0  0  0  0  0  0  0  0
  1  2  2  0
  3  2  1  0
  4  3  2  0
  5  4  1  0
  5  6  2  0
  6  1  1  0
  7  3  1  0
  8  5  1  0
  9  8  1  0
 10  9  2  0
 11 10  1  0
 11 13  1  0
 12 11  2  0
 13 14  1  0
 14  8  1  0
 14 15  2  0
 16 21  1  0
 17 16  1  0
 18 17  1  0
 19 13  1  0
 19 18  1  0
 19 20  1  0
 20 21  1  0
 22 10  1  0
  1 23  1  0
  2 24  1  0
  7 25  1  0
  7 26  1  0
  9 27  1  0
 16 28  1  0
 17 29  1  0
 17 30  1  0
 18 31  1  0
 18 32  1  0
 19 33  1  0
 20 34  1  0
 20 35  1  0
 21 36  1  0
 21 37  1  0
 22 38  1  0
 22 39  1  0
 22 40  1  0
M  ISO  8  23  14  24  14  27  14  28   5  29  13  30  13  31  13  32  13
M  ISO  8  33  13  34  13  35  13  36  13  37  13  38   8  39   8  40   8
M  END
>  <minimizedAffinity>  (1) 
-5.67565393

>  <minimizedRMSD>  (1) 
1.46265173

$$$$
