
     RDKit          3D

 35 37  0  0  0  0  0  0  0  0999 V2000
   39.4350   28.4710   40.2090 C   0  0  0  0  0  0  0  0  0  0  0  0
   38.2470   29.0990   40.6030 C   0  0  0  0  0  0  0  0  0  0  0  0
   37.7350   30.0810   39.7310 C   0  0  0  0  0  0  0  0  0  0  0  0
   38.3860   30.3720   38.5860 N   0  0  0  0  0  0  0  0  0  0  0  0
   39.5390   29.7340   38.2470 C   0  0  0  0  0  0  0  0  0  0  0  0
   40.0590   28.7800   39.0680 N   0  0  0  0  0  0  0  0  0  0  0  0
   40.0270   27.4750   41.0320 N   0  0  0  0  0  0  0  0  0  0  0  0
   39.5240   26.4480   41.7160 C   0  0  0  0  0  0  0  0  0  0  0  0
   40.3440   25.6200   42.4420 C   0  0  0  0  0  0  0  0  0  0  0  0
   39.5930   24.5190   43.1440 C   0  0  0  0  0  0  0  0  0  0  0  0
   41.7040   25.8410   42.4740 C   0  0  0  0  0  0  0  0  0  0  0  0
   42.3430   25.0260   43.1640 O   0  0  0  0  0  0  0  0  0  0  0  0
   42.2070   26.8760   41.7840 N   0  0  0  0  0  0  0  0  0  0  0  0
   41.3760   27.6900   41.0670 C   0  0  0  0  0  0  0  0  0  0  0  0
   42.0410   28.6130   40.4840 O   0  0  0  0  0  0  0  0  0  0  0  0
   37.5480   28.8190   41.7740 N   0  0  0  0  0  0  0  0  0  0  0  0
   37.8830   29.2130   43.1270 C   0  0  0  0  0  0  0  0  0  0  0  0
   37.3810   28.0550   43.9840 C   0  0  0  0  0  0  0  0  0  0  0  0
   36.6180   27.1520   43.0500 C   0  0  0  0  0  0  0  0  0  0  0  0
   36.3150   28.0650   41.8940 C   0  0  0  0  0  0  0  0  0  0  0  0
   36.8045   30.6101   39.9843 H   0  0  0  0  0  0  0  0  0  0  0  0
   40.0520   29.9893   37.3081 H   0  0  0  0  0  0  0  0  0  0  0  0
   38.4401   26.2616   41.6988 H   0  0  0  0  0  0  0  0  0  0  0  0
   39.6825   24.6503   44.2325 H   0  0  0  0  0  0  0  0  0  0  0  0
   38.5320   24.5575   42.8561 H   0  0  0  0  0  0  0  0  0  0  0  0
   40.0160   23.5453   42.8561 H   0  0  0  0  0  0  0  0  0  0  0  0
   43.2209   27.0572   41.7948 H   0  0  0  0  0  0  0  0  0  0  0  0
   38.9698   29.3401   43.2394 H   0  0  0  0  0  0  0  0  0  0  0  0
   37.4332   30.1758   43.4111 H   0  0  0  0  0  0  0  0  0  0  0  0
   38.2282   27.5148   44.4317 H   0  0  0  0  0  0  0  0  0  0  0  0
   36.7481   28.4089   44.8111 H   0  0  0  0  0  0  0  0  0  0  0  0
   37.2332   26.2975   42.7316 H   0  0  0  0  0  0  0  0  0  0  0  0
   35.7211   26.7061   43.5047 H   0  0  0  0  0  0  0  0  0  0  0  0
   35.4635   28.7244   42.1180 H   0  0  0  0  0  0  0  0  0  0  0  0
   36.0279   27.5351   40.9738 H   0  0  0  0  0  0  0  0  0  0  0  0
  1  2  1  0
  1  7  1  0
  2 16  1  0
  3  2  2  0
  4  3  1  0
  5  4  2  0
  5  6  1  0
  6  1  2  0
  7 14  1  0
  7  8  1  0
  8  9  2  0
  9 11  1  0
  9 10  1  0
 11 12  2  0
 13 11  1  0
 14 13  1  0
 15 14  2  0
 16 20  1  0
 16 17  1  0
 17 18  1  0
 19 18  1  0
 20 19  1  0
  3 21  1  0
  5 22  1  0
  8 23  1  0
 10 24  1  0
 10 25  1  0
 10 26  1  0
 13 27  1  0
 17 28  1  0
 17 29  1  0
 18 30  1  0
 18 31  1  0
 19 32  1  0
 19 33  1  0
 20 34  1  0
 20 35  1  0
M  ISO  8  21  14  22  14  23  14  24   8  25   8  26   8  27   9  28  13
M  ISO  7  29  13  30  13  31  13  32  13  33  13  34  13  35  13
M  END
>  <minimizedAffinity>  (1) 
-4.77249813

>  <minimizedRMSD>  (1) 
4.93346643

$$$$
