
     RDKit          3D

 48 52  0  0  0  0  0  0  0  0999 V2000
   39.7280   32.4350   41.0140 C   0  0  0  0  0  0  0  0  0  0  0  0
   40.8140   31.9080   41.7340 C   0  0  0  0  0  0  0  0  0  0  0  0
   40.8270   30.6340   42.2940 C   0  0  0  0  0  0  0  0  0  0  0  0
   39.7000   29.8370   42.1300 C   0  0  0  0  0  0  0  0  0  0  0  0
   38.6270   30.3050   41.4420 C   0  0  0  0  0  0  0  0  0  0  0  0
   37.5550   29.4910   41.3080 C   0  0  0  0  0  0  0  0  0  0  0  0
   36.4050   29.9170   40.5990 C   0  0  0  0  0  0  0  0  0  0  0  0
   36.4690   31.2190   40.0620 C   0  0  0  0  0  0  0  0  0  0  0  0
   37.5890   31.9820   40.2410 C   0  0  0  0  0  0  0  0  0  0  0  0
   38.6950   31.5610   40.9270 C   0  0  0  0  0  0  0  0  0  0  0  0
   37.3480   28.1530   41.8040 C   0  0  0  0  0  0  0  0  0  0  0  0
   36.6640   27.7440   42.9290 C   0  0  0  0  0  0  0  0  0  0  0  0
   36.4820   26.4370   43.3220 C   0  0  0  0  0  0  0  0  0  0  0  0
   37.0020   25.4180   42.5700 C   0  0  0  0  0  0  0  0  0  0  0  0
   37.6760   25.8340   41.4580 C   0  0  0  0  0  0  0  0  0  0  0  0
   37.8480   27.1140   41.0830 N   0  0  0  0  0  0  0  0  0  0  0  0
   38.2690   24.8580   40.5880 N   0  0  0  0  0  0  0  0  0  0  0  0
   37.8590   23.5660   40.7070 C   0  0  0  0  0  0  0  0  0  0  0  0
   38.3820   22.5700   39.9040 C   0  0  0  0  0  0  0  0  0  0  0  0
   37.9150   21.1630   40.0550 C   0  0  0  0  0  0  0  0  0  0  0  0
   39.3430   22.9530   38.9750 C   0  0  0  0  0  0  0  0  0  0  0  0
   39.8380   22.0510   38.2250 O   0  0  0  0  0  0  0  0  0  0  0  0
   39.7180   24.2590   38.8960 N   0  0  0  0  0  0  0  0  0  0  0  0
   39.1990   25.2080   39.6820 C   0  0  0  0  0  0  0  0  0  0  0  0
   39.5860   26.3890   39.5610 O   0  0  0  0  0  0  0  0  0  0  0  0
   39.9030   33.7610   40.5270 C   0  0  0  0  0  0  0  0  0  0  0  0
   39.0910   34.9070   40.6930 C   0  0  0  0  0  0  0  0  0  0  0  0
   39.4370   36.1420   40.1480 C   0  0  0  0  0  0  0  0  0  0  0  0
   40.5940   36.1900   39.4500 N   0  0  0  0  0  0  0  0  0  0  0  0
   41.3700   35.1310   39.2810 C   0  0  0  0  0  0  0  0  0  0  0  0
   41.0310   33.9480   39.8060 N   0  0  0  0  0  0  0  0  0  0  0  0
   41.7056   32.5393   41.8623 H   0  0  0  0  0  0  0  0  0  0  0  0
   41.7031   30.2686   42.8499 H   0  0  0  0  0  0  0  0  0  0  0  0
   39.6774   28.8243   42.5588 H   0  0  0  0  0  0  0  0  0  0  0  0
   35.5207   29.2745   40.4756 H   0  0  0  0  0  0  0  0  0  0  0  0
   35.6153   31.6220   39.4974 H   0  0  0  0  0  0  0  0  0  0  0  0
   37.6016   32.9932   39.8083 H   0  0  0  0  0  0  0  0  0  0  0  0
   36.2271   28.5273   43.5659 H   0  0  0  0  0  0  0  0  0  0  0  0
   35.9190   26.2117   44.2398 H   0  0  0  0  0  0  0  0  0  0  0  0
   36.8869   24.3574   42.8381 H   0  0  0  0  0  0  0  0  0  0  0  0
   37.0964   23.3092   41.4570 H   0  0  0  0  0  0  0  0  0  0  0  0
   37.8332   20.9165   41.1239 H   0  0  0  0  0  0  0  0  0  0  0  0
   36.9311   21.0498   39.5763 H   0  0  0  0  0  0  0  0  0  0  0  0
   38.6360   20.4840   39.5763 H   0  0  0  0  0  0  0  0  0  0  0  0
   40.4307   24.5272   38.2024 H   0  0  0  0  0  0  0  0  0  0  0  0
   38.1582   34.8209   41.2697 H   0  0  0  0  0  0  0  0  0  0  0  0
   38.8023   37.0309   40.2788 H   0  0  0  0  0  0  0  0  0  0  0  0
   42.3018   35.2244   38.7039 H   0  0  0  0  0  0  0  0  0  0  0  0
  1  2  2  0
  2  3  1  0
  4  3  2  0
  5  4  1  0
  6  5  2  0
  6 11  1  0
  7  6  1  0
  8  9  1  0
  8  7  2  0
  9 10  2  0
 10  1  1  0
 10  5  1  0
 11 12  2  0
 12 13  1  0
 14 13  2  0
 15 14  1  0
 16 15  2  0
 16 11  1  0
 17 18  1  0
 17 15  1  0
 19 20  1  0
 19 18  2  0
 21 19  1  0
 22 21  2  0
 23 21  1  0
 23 24  1  0
 24 17  1  0
 25 24  2  0
 26 27  2  0
 26  1  1  0
 28 27  1  0
 29 28  2  0
 30 29  1  0
 30 31  2  0
 31 26  1  0
  2 32  1  0
  3 33  1  0
  4 34  1  0
  7 35  1  0
  8 36  1  0
  9 37  1  0
 12 38  1  0
 13 39  1  0
 14 40  1  0
 18 41  1  0
 20 42  1  0
 20 43  1  0
 20 44  1  0
 23 45  1  0
 27 46  1  0
 28 47  1  0
 30 48  1  0
M  END
>  <minimizedAffinity>  (1) 
-7.49198198

>  <minimizedRMSD>  (1) 
1.44423664

$$$$
