
     RDKit          3D

 41 44  0  0  1  0  0  0  0  0999 V2000
   37.8960   27.3570   42.7340 C   0  0  2  0  0  0  0  0  0  0  0  0
   38.9450   27.6650   43.7110 C   0  0  0  0  0  0  0  0  0  0  0  0
   39.7200   26.3710   43.8790 C   0  0  0  0  0  0  0  0  0  0  0  0
   39.2790   25.4720   42.7670 C   0  0  0  0  0  0  0  0  0  0  0  0
   38.5370   26.3740   41.7810 C   0  0  1  0  0  0  0  0  0  0  0  0
   37.5740   25.4140   41.1720 C   0  0  0  0  0  0  0  0  0  0  0  0
   36.9050   24.5050   41.8780 N   0  0  0  0  0  0  0  0  0  0  0  0
   36.1520   23.8300   41.0350 O   0  0  0  0  0  0  0  0  0  0  0  0
   36.3430   24.3090   39.8210 C   0  0  0  0  0  0  0  0  0  0  0  0
   37.2290   25.3040   39.8570 N   0  0  0  0  0  0  0  0  0  0  0  0
   35.7640   23.9190   38.5720 N   0  0  0  0  0  0  0  0  0  0  0  0
   36.3220   24.2340   37.3950 C   0  0  0  0  0  0  0  0  0  0  0  0
   35.6850   23.8120   36.2480 C   0  0  0  0  0  0  0  0  0  0  0  0
   36.3230   24.1730   34.9350 C   0  0  0  0  0  0  0  0  0  0  0  0
   34.5160   23.0920   36.3110 C   0  0  0  0  0  0  0  0  0  0  0  0
   34.0060   22.7490   35.2130 O   0  0  0  0  0  0  0  0  0  0  0  0
   33.9840   22.7930   37.4980 N   0  0  0  0  0  0  0  0  0  0  0  0
   34.6160   23.2120   38.6260 C   0  0  0  0  0  0  0  0  0  0  0  0
   34.0170   22.8680   39.6830 O   0  0  0  0  0  0  0  0  0  0  0  0
   37.9240   29.7640   41.9070 C   0  0  0  0  0  0  0  0  0  0  0  0
   37.3110   28.4870   42.0440 C   0  0  0  0  0  0  0  0  0  0  0  0
   36.0580   28.3000   41.4630 C   0  0  0  0  0  0  0  0  0  0  0  0
   35.4770   29.3540   40.7880 N   0  0  0  0  0  0  0  0  0  0  0  0
   36.1060   30.5750   40.6800 C   0  0  0  0  0  0  0  0  0  0  0  0
   37.3440   30.7680   41.2510 N   0  0  0  0  0  0  0  0  0  0  0  0
   37.0191   26.9510   43.2596 H   0  0  0  0  0  0  0  0  0  0  0  0
   39.6020   28.4626   43.3339 H   0  0  0  0  0  0  0  0  0  0  0  0
   38.5287   28.0231   44.6641 H   0  0  0  0  0  0  0  0  0  0  0  0
   40.8010   26.5622   43.8087 H   0  0  0  0  0  0  0  0  0  0  0  0
   39.5301   25.9151   44.8619 H   0  0  0  0  0  0  0  0  0  0  0  0
   40.1492   25.0060   42.2815 H   0  0  0  0  0  0  0  0  0  0  0  0
   38.6397   24.6549   43.1326 H   0  0  0  0  0  0  0  0  0  0  0  0
   39.0742   26.9105   40.9850 H   0  0  0  0  0  0  0  0  0  0  0  0
   37.2576   24.8104   37.3460 H   0  0  0  0  0  0  0  0  0  0  0  0
   37.2667   24.7070   35.1204 H   0  0  0  0  0  0  0  0  0  0  0  0
   36.5268   23.2564   34.3621 H   0  0  0  0  0  0  0  0  0  0  0  0
   35.6422   24.8197   34.3621 H   0  0  0  0  0  0  0  0  0  0  0  0
   33.1087   22.2535   37.5582 H   0  0  0  0  0  0  0  0  0  0  0  0
   38.9131   29.9281   42.3594 H   0  0  0  0  0  0  0  0  0  0  0  0
   35.5425   27.3314   41.5410 H   0  0  0  0  0  0  0  0  0  0  0  0
   35.6181   31.3975   40.1364 H   0  0  0  0  0  0  0  0  0  0  0  0
  1  2  1  0
  2  3  1  0
  4  3  1  0
  5  1  1  0
  5  4  1  0
  6  5  1  0
  6  7  2  0
  8  7  1  0
  9 10  2  0
  9  8  1  0
 10  6  1  0
 11 18  1  0
 11  9  1  0
 12 11  1  0
 13 15  1  0
 13 12  2  0
 14 13  1  0
 15 17  1  0
 16 15  2  0
 17 18  1  0
 18 19  2  0
 20 21  2  0
 21  1  1  0
 22 21  1  0
 23 22  2  0
 24 23  1  0
 24 25  2  0
 25 20  1  0
  1 26  1  1
  2 27  1  0
  2 28  1  0
  3 29  1  0
  3 30  1  0
  4 31  1  0
  4 32  1  0
  5 33  1  6
 12 34  1  0
 14 35  1  0
 14 36  1  0
 14 37  1  0
 17 38  1  0
 20 39  1  0
 22 40  1  0
 24 41  1  0
M  ISO  8  26  13  27  13  28  13  29  13  30  13  31  13  32  13  33  13
M  ISO  8  34  14  35   8  36   8  37   8  38   9  39  14  40  14  41  14
M  END
>  <minimizedAffinity>  (1) 
-5.37228012

>  <minimizedRMSD>  (1) 
0.561733067

$$$$
