
     RDKit          3D

 53 57  0  0  0  0  0  0  0  0999 V2000
   38.5070   28.1640   42.5470 C   0  0  0  0  0  0  0  0  0  0  0  0
   37.4620   27.2700   42.6090 C   0  0  0  0  0  0  0  0  0  0  0  0
   36.3780   27.8910   41.9850 C   0  0  0  0  0  0  0  0  0  0  0  0
   36.8470   29.0870   41.6030 N   0  0  0  0  0  0  0  0  0  0  0  0
   38.0870   29.2780   41.9170 N   0  0  0  0  0  0  0  0  0  0  0  0
   41.5630   26.5420   43.9230 C   0  0  0  0  0  0  0  0  0  0  0  0
   40.2640   26.6540   43.4390 C   0  0  0  0  0  0  0  0  0  0  0  0
   39.8410   27.9590   43.0660 C   0  0  0  0  0  0  0  0  0  0  0  0
   40.6900   29.0200   43.1910 N   0  0  0  0  0  0  0  0  0  0  0  0
   41.9590   28.8130   43.6800 C   0  0  0  0  0  0  0  0  0  0  0  0
   42.3820   27.5900   44.0390 N   0  0  0  0  0  0  0  0  0  0  0  0
   42.8060   29.9500   43.7900 N   0  0  0  0  0  0  0  0  0  0  0  0
   43.9710   29.6690   44.4430 C   0  0  0  0  0  0  0  0  0  0  0  0
   44.9130   30.6370   44.6460 C   0  0  0  0  0  0  0  0  0  0  0  0
   46.1970   30.3440   45.3600 C   0  0  0  0  0  0  0  0  0  0  0  0
   44.6600   31.9080   44.1770 C   0  0  0  0  0  0  0  0  0  0  0  0
   45.4860   32.8630   44.3260 O   0  0  0  0  0  0  0  0  0  0  0  0
   43.5080   32.1610   43.5400 N   0  0  0  0  0  0  0  0  0  0  0  0
   42.5830   31.2040   43.3420 C   0  0  0  0  0  0  0  0  0  0  0  0
   41.4720   31.3170   42.7620 O   0  0  0  0  0  0  0  0  0  0  0  0
   35.9800   29.9900   40.9250 C   0  0  0  0  0  0  0  0  0  0  0  0
   35.1330   29.3850   39.8500 C   0  0  0  0  0  0  0  0  0  0  0  0
   35.7640   29.3490   38.5100 C   0  0  0  0  0  0  0  0  0  0  0  0
   37.0900   29.4880   38.2090 C   0  0  0  0  0  0  0  0  0  0  0  0
   37.6270   29.5260   36.9560 C   0  0  0  0  0  0  0  0  0  0  0  0
   36.7960   29.4230   35.8640 C   0  0  0  0  0  0  0  0  0  0  0  0
   35.4400   29.2790   36.0940 C   0  0  0  0  0  0  0  0  0  0  0  0
   34.6580   29.1860   34.9720 C   0  0  0  0  0  0  0  0  0  0  0  0
   33.3070   29.0450   35.0970 C   0  0  0  0  0  0  0  0  0  0  0  0
   32.7450   28.9930   36.3510 C   0  0  0  0  0  0  0  0  0  0  0  0
   33.5770   29.0890   37.4360 C   0  0  0  0  0  0  0  0  0  0  0  0
   34.9230   29.2390   37.3880 C   0  0  0  0  0  0  0  0  0  0  0  0
   32.9530   29.0100   38.6750 O   0  0  0  0  0  0  0  0  0  0  0  0
   37.4777   26.2668   43.0600 H   0  0  0  0  0  0  0  0  0  0  0  0
   35.3648   27.4882   41.8394 H   0  0  0  0  0  0  0  0  0  0  0  0
   41.9307   25.5495   44.2225 H   0  0  0  0  0  0  0  0  0  0  0  0
   39.6006   25.7811   43.3497 H   0  0  0  0  0  0  0  0  0  0  0  0
   44.1539   28.6486   44.8110 H   0  0  0  0  0  0  0  0  0  0  0  0
   46.0294   30.3823   46.4465 H   0  0  0  0  0  0  0  0  0  0  0  0
   46.5524   29.3417   45.0789 H   0  0  0  0  0  0  0  0  0  0  0  0
   46.9520   31.0929   45.0789 H   0  0  0  0  0  0  0  0  0  0  0  0
   43.3260   33.1135   43.1928 H   0  0  0  0  0  0  0  0  0  0  0  0
   35.3094   30.4409   41.6714 H   0  0  0  0  0  0  0  0  0  0  0  0
   36.6346   30.7163   40.4210 H   0  0  0  0  0  0  0  0  0  0  0  0
   34.8932   28.3523   40.1434 H   0  0  0  0  0  0  0  0  0  0  0  0
   34.2443   30.0266   39.7573 H   0  0  0  0  0  0  0  0  0  0  0  0
   37.7877   29.5774   39.0547 H   0  0  0  0  0  0  0  0  0  0  0  0
   38.7128   29.6378   36.8197 H   0  0  0  0  0  0  0  0  0  0  0  0
   37.1977   29.4542   34.8404 H   0  0  0  0  0  0  0  0  0  0  0  0
   35.1186   29.2250   33.9738 H   0  0  0  0  0  0  0  0  0  0  0  0
   32.6720   28.9734   34.2016 H   0  0  0  0  0  0  0  0  0  0  0  0
   31.6587   28.8776   36.4797 H   0  0  0  0  0  0  0  0  0  0  0  0
   33.4899   29.0715   39.5045 H   0  0  0  0  0  0  0  0  0  0  0  0
  1  2  1  0
  1  8  1  0
  3  2  2  0
  4  5  1  0
  4  3  1  0
  5  1  2  0
  6 11  2  0
  7  6  1  0
  8  9  1  0
  8  7  2  0
  9 10  2  0
 10 12  1  0
 10 11  1  0
 12 13  1  0
 13 14  2  0
 14 15  1  0
 16 17  2  0
 16 14  1  0
 18 16  1  0
 19 18  1  0
 19 12  1  0
 20 19  2  0
 21  4  1  0
 22 21  1  0
 23 22  1  0
 24 23  2  0
 25 24  1  0
 26 27  1  0
 26 25  2  0
 27 32  2  0
 28 29  2  0
 28 27  1  0
 29 30  1  0
 30 31  2  0
 31 33  1  0
 32 31  1  0
 32 23  1  0
  2 34  1  0
  3 35  1  0
  6 36  1  0
  7 37  1  0
 13 38  1  0
 15 39  1  0
 15 40  1  0
 15 41  1  0
 18 42  1  0
 21 43  1  0
 21 44  1  0
 22 45  1  0
 22 46  1  0
 24 47  1  0
 25 48  1  0
 26 49  1  0
 28 50  1  0
 29 51  1  0
 30 52  1  0
 33 53  1  0
M  ISO  8  34  14  35  14  36  14  37  14  38  14  39   8  40   8  41   8
M  ISO  8  42   9  43   8  44   8  45   8  46   8  47  14  48  14  49  14
M  ISO  4  50  14  51  14  52  14  53   3
M  END
>  <minimizedAffinity>  (1) 
-6.8025794

>  <minimizedRMSD>  (1) 
0.880354166

$$$$
