
     RDKit          3D

 15 15  0  0  0  0  0  0  0  0999 V2000
   38.7920   28.6720   43.0890 C   0  0  0  0  0  0  0  0  0  0  0  0
   38.1550   27.4140   42.9900 C   0  0  0  0  0  0  0  0  0  0  0  0
   36.9190   27.3770   42.3300 C   0  0  0  0  0  0  0  0  0  0  0  0
   36.4010   28.5350   41.8250 N   0  0  0  0  0  0  0  0  0  0  0  0
   37.0510   29.7070   41.9470 C   0  0  0  0  0  0  0  0  0  0  0  0
   38.2390   29.7790   42.5750 N   0  0  0  0  0  0  0  0  0  0  0  0
   36.3200   30.7190   41.3560 O   0  0  0  0  0  0  0  0  0  0  0  0
   36.6620   31.3650   40.1800 C   0  0  0  0  0  0  0  0  0  0  0  0
   36.9980   32.7440   40.4320 N   0  0  0  0  0  0  0  0  0  0  0  0
   36.7080   30.9200   39.0130 O   0  0  0  0  0  0  0  0  0  0  0  0
   39.7637   28.7438   43.5996 H   0  0  0  0  0  0  0  0  0  0  0  0
   38.6088   26.5051   43.4119 H   0  0  0  0  0  0  0  0  0  0  0  0
   36.3737   26.4280   42.2204 H   0  0  0  0  0  0  0  0  0  0  0  0
   37.2747   33.3574   39.6522 H   0  0  0  0  0  0  0  0  0  0  0  0
   36.9614   33.1159   41.3918 H   0  0  0  0  0  0  0  0  0  0  0  0
  2  1  2  0
  3  2  1  0
  4  5  1  0
  4  3  2  0
  5  6  2  0
  6  1  1  0
  7  5  1  0
  8  9  1  0
  8  7  1  0
 10  8  2  0
  1 11  1  0
  2 12  1  0
  3 13  1  0
  9 14  1  0
  9 15  1  0
M  ISO  3  11  14  12  14  13  14
M  END
>  <minimizedAffinity>  (1) 
-3.60374904

>  <minimizedRMSD>  (1) 
1.54112422

$$$$
