
     RDKit          3D

 43 46  0  0  1  0  0  0  0  0999 V2000
   38.9760   35.5890   40.1920 C   0  0  0  0  0  0  0  0  0  0  0  0
   40.3080   35.6380   39.7610 C   0  0  0  0  0  0  0  0  0  0  0  0
   40.8590   34.4230   39.3290 C   0  0  0  0  0  0  0  0  0  0  0  0
   40.0610   33.3620   39.3760 N   0  0  0  0  0  0  0  0  0  0  0  0
   38.8060   33.2790   39.7740 C   0  0  0  0  0  0  0  0  0  0  0  0
   38.3060   34.4460   40.1790 N   0  0  0  0  0  0  0  0  0  0  0  0
   37.8470   32.1970   39.8710 C   0  0  0  0  0  0  0  0  0  0  0  0
   37.2750   31.8090   41.0170 N   0  0  0  0  0  0  0  0  0  0  0  0
   36.3940   30.8260   41.1440 C   0  0  0  0  0  0  0  0  0  0  0  0
   36.0010   30.1320   40.0990 N   0  0  0  0  0  0  0  0  0  0  0  0
   36.4980   30.4160   38.8770 C   0  0  0  0  0  0  0  0  0  0  0  0
   36.0890   29.6910   37.7740 C   0  0  0  0  0  0  0  0  0  0  0  0
   36.5780   29.9650   36.5370 C   0  0  0  0  0  0  0  0  0  0  0  0
   37.5200   31.0140   36.3980 C   0  0  0  0  0  0  0  0  0  0  0  0
   37.8790   31.6930   37.5440 C   0  0  0  0  0  0  0  0  0  0  0  0
   37.4120   31.4470   38.7940 C   0  0  0  0  0  0  0  0  0  0  0  0
   42.1080   34.2910   38.8900 O   0  0  0  0  0  0  0  0  0  0  0  0
   42.9990   33.2560   39.2730 C   0  0  2  0  0  0  0  0  0  0  0  0
   43.6150   33.6640   40.6350 C   0  0  0  0  0  0  0  0  0  0  0  0
   44.0960   33.1210   38.2520 C   0  0  0  0  0  0  0  0  0  0  0  0
   43.8450   32.0150   37.3000 C   0  0  0  0  0  0  0  0  0  0  0  0
   42.6410   31.3510   37.1980 C   0  0  0  0  0  0  0  0  0  0  0  0
   42.5090   30.3300   36.2760 C   0  0  0  0  0  0  0  0  0  0  0  0
   43.5260   29.9220   35.4290 C   0  0  0  0  0  0  0  0  0  0  0  0
   44.7070   30.6340   35.5880 C   0  0  0  0  0  0  0  0  0  0  0  0
   44.8540   31.6270   36.4780 N   0  0  0  0  0  0  0  0  0  0  0  0
   38.4824   36.5068   40.5440 H   0  0  0  0  0  0  0  0  0  0  0  0
   40.8869   36.5733   39.7614 H   0  0  0  0  0  0  0  0  0  0  0  0
   35.9864   30.5880   42.1376 H   0  0  0  0  0  0  0  0  0  0  0  0
   35.3566   28.8800   37.8998 H   0  0  0  0  0  0  0  0  0  0  0  0
   36.2498   29.3850   35.6619 H   0  0  0  0  0  0  0  0  0  0  0  0
   37.9468   31.2758   35.4185 H   0  0  0  0  0  0  0  0  0  0  0  0
   38.6100   32.5076   37.4345 H   0  0  0  0  0  0  0  0  0  0  0  0
   42.4688   32.2951   39.3470 H   0  0  0  0  0  0  0  0  0  0  0  0
   43.0008   33.2572   41.4518 H   0  0  0  0  0  0  0  0  0  0  0  0
   44.6367   33.2634   40.7100 H   0  0  0  0  0  0  0  0  0  0  0  0
   43.6448   34.7610   40.7100 H   0  0  0  0  0  0  0  0  0  0  0  0
   44.1723   34.0625   37.6882 H   0  0  0  0  0  0  0  0  0  0  0  0
   45.0296   32.8973   38.7889 H   0  0  0  0  0  0  0  0  0  0  0  0
   41.7951   31.6307   37.8431 H   0  0  0  0  0  0  0  0  0  0  0  0
   41.5409   29.8118   36.2112 H   0  0  0  0  0  0  0  0  0  0  0  0
   43.4087   29.1087   34.6977 H   0  0  0  0  0  0  0  0  0  0  0  0
   45.5653   30.3708   34.9524 H   0  0  0  0  0  0  0  0  0  0  0  0
  2  1  2  0
  3  4  2  0
  3  2  1  0
  4  5  1  0
  5  7  1  0
  5  6  2  0
  6  1  1  0
  7  8  2  0
  8  9  1  0
 10  9  2  0
 11 10  1  0
 12 11  2  0
 13 12  1  0
 14 13  2  0
 14 15  1  0
 15 16  2  0
 16 11  1  0
 16  7  1  0
 17 18  1  0
 17  3  1  0
 18 19  1  0
 20 18  1  0
 21 20  1  0
 22 21  2  0
 23 22  1  0
 24 25  1  0
 24 23  2  0
 25 26  2  0
 26 21  1  0
  1 27  1  0
  2 28  1  0
  9 29  1  0
 12 30  1  0
 13 31  1  0
 14 32  1  0
 15 33  1  0
 18 34  1  1
 19 35  1  0
 19 36  1  0
 19 37  1  0
 20 38  1  0
 20 39  1  0
 22 40  1  0
 23 41  1  0
 24 42  1  0
 25 43  1  0
M  ISO  8  27  14  28  14  29  14  30  14  31  14  32  14  33  14  34   8
M  ISO  8  35   8  36   8  37   8  38   8  39   8  40  14  41  14  42  14
M  ISO  1  43  14
M  END
>  <minimizedAffinity>  (1) 
-5.91482401

>  <minimizedRMSD>  (1) 
1.74841022

$$$$
