
     RDKit          3D

 40 44  0  0  0  0  0  0  0  0999 V2000
   37.9600   29.9010   40.0120 C   0  0  0  0  0  0  0  0  0  0  0  0
   37.1580   30.9260   39.4870 C   0  0  0  0  0  0  0  0  0  0  0  0
   37.5520   31.7310   38.4270 C   0  0  0  0  0  0  0  0  0  0  0  0
   38.7790   31.4680   37.9140 N   0  0  0  0  0  0  0  0  0  0  0  0
   39.5660   30.5060   38.3840 C   0  0  0  0  0  0  0  0  0  0  0  0
   39.1490   29.7530   39.4070 N   0  0  0  0  0  0  0  0  0  0  0  0
   40.8310   30.3410   37.7470 N   0  0  0  0  0  0  0  0  0  0  0  0
   41.4170   29.2010   37.2780 C   0  0  0  0  0  0  0  0  0  0  0  0
   42.6290   29.5330   36.7480 N   0  0  0  0  0  0  0  0  0  0  0  0
   42.7500   30.8630   36.9070 C   0  0  0  0  0  0  0  0  0  0  0  0
   43.8100   31.6960   36.5330 C   0  0  0  0  0  0  0  0  0  0  0  0
   44.8660   31.3180   35.9620 O   0  0  0  0  0  0  0  0  0  0  0  0
   43.6260   32.9940   36.8350 N   0  0  0  0  0  0  0  0  0  0  0  0
   42.5640   33.5580   37.4400 C   0  0  0  0  0  0  0  0  0  0  0  0
   42.5340   34.9600   37.6840 N   0  0  0  0  0  0  0  0  0  0  0  0
   41.5550   32.7170   37.7890 N   0  0  0  0  0  0  0  0  0  0  0  0
   41.6360   31.4000   37.5340 C   0  0  0  0  0  0  0  0  0  0  0  0
   37.7340   29.0180   41.1020 C   0  0  0  0  0  0  0  0  0  0  0  0
   37.8350   29.5930   42.3890 C   0  0  0  0  0  0  0  0  0  0  0  0
   37.6500   28.9020   43.5760 C   0  0  0  0  0  0  0  0  0  0  0  0
   37.3430   27.5520   43.5070 C   0  0  0  0  0  0  0  0  0  0  0  0
   37.2320   26.9350   42.2820 C   0  0  0  0  0  0  0  0  0  0  0  0
   36.9340   25.5980   42.2050 C   0  0  0  0  0  0  0  0  0  0  0  0
   36.8120   24.9210   41.0090 C   0  0  0  0  0  0  0  0  0  0  0  0
   37.0180   25.7070   39.8710 C   0  0  0  0  0  0  0  0  0  0  0  0
   37.3140   27.0350   39.9710 C   0  0  0  0  0  0  0  0  0  0  0  0
   37.4300   27.6910   41.1580 C   0  0  0  0  0  0  0  0  0  0  0  0
   36.1695   31.0999   39.9372 H   0  0  0  0  0  0  0  0  0  0  0  0
   36.9101   32.5307   38.0290 H   0  0  0  0  0  0  0  0  0  0  0  0
   40.9863   28.1897   37.3202 H   0  0  0  0  0  0  0  0  0  0  0  0
   44.3896   33.6331   36.5716 H   0  0  0  0  0  0  0  0  0  0  0  0
   41.7181   35.3847   38.1474 H   0  0  0  0  0  0  0  0  0  0  0  0
   43.3282   35.5498   37.3972 H   0  0  0  0  0  0  0  0  0  0  0  0
   38.0774   30.6640   42.4531 H   0  0  0  0  0  0  0  0  0  0  0  0
   37.7442   29.4110   44.5466 H   0  0  0  0  0  0  0  0  0  0  0  0
   37.1883   26.9746   44.4304 H   0  0  0  0  0  0  0  0  0  0  0  0
   36.7853   25.0395   43.1409 H   0  0  0  0  0  0  0  0  0  0  0  0
   36.5719   23.8489   40.9550 H   0  0  0  0  0  0  0  0  0  0  0  0
   36.9399   25.2455   38.8756 H   0  0  0  0  0  0  0  0  0  0  0  0
   37.4670   27.6059   39.0433 H   0  0  0  0  0  0  0  0  0  0  0  0
  1 18  1  0
  2  1  2  0
  3  2  1  0
  4  5  1  0
  4  3  2  0
  5  6  2  0
  6  1  1  0
  7  5  1  0
  8  7  1  0
  9 10  1  0
  9  8  2  0
 10 17  2  0
 11 13  1  0
 11 10  1  0
 12 11  2  0
 13 14  1  0
 14 15  1  0
 14 16  2  0
 17  7  1  0
 17 16  1  0
 18 27  1  0
 18 19  2  0
 19 20  1  0
 21 20  2  0
 22 21  1  0
 23 22  2  0
 24 23  1  0
 25 26  1  0
 25 24  2  0
 26 27  2  0
 27 22  1  0
  2 28  1  0
  3 29  1  0
  8 30  1  0
 13 31  1  0
 15 32  1  0
 15 33  1  0
 19 34  1  0
 20 35  1  0
 21 36  1  0
 23 37  1  0
 24 38  1  0
 25 39  1  0
 26 40  1  0
M  END
>  <minimizedAffinity>  (1) 
-7.77191305

>  <minimizedRMSD>  (1) 
1.00996995

$$$$
