
     RDKit          3D

 48 52  0  0  0  0  0  0  0  0999 V2000
   35.1850   29.0700   40.5280 C   0  0  0  0  0  0  0  0  0  0  0  0
   36.1850   28.2070   41.0110 C   0  0  0  0  0  0  0  0  0  0  0  0
   36.7330   27.2870   40.0740 C   0  0  0  0  0  0  0  0  0  0  0  0
   36.2710   27.2960   38.8070 N   0  0  0  0  0  0  0  0  0  0  0  0
   35.2890   28.1640   38.3890 C   0  0  0  0  0  0  0  0  0  0  0  0
   34.7420   29.0540   39.2470 N   0  0  0  0  0  0  0  0  0  0  0  0
   36.6410   28.2200   42.3210 N   0  0  0  0  0  0  0  0  0  0  0  0
   36.2270   27.4340   43.3220 C   0  0  0  0  0  0  0  0  0  0  0  0
   36.9650   27.8190   44.4120 C   0  0  0  0  0  0  0  0  0  0  0  0
   37.8170   28.8310   44.0690 N   0  0  0  0  0  0  0  0  0  0  0  0
   37.5990   29.0610   42.7750 C   0  0  0  0  0  0  0  0  0  0  0  0
   38.3930   30.0920   42.2060 N   0  0  0  0  0  0  0  0  0  0  0  0
   39.7020   30.3040   42.5730 C   0  0  0  0  0  0  0  0  0  0  0  0
   40.2320   31.3580   41.8730 N   0  0  0  0  0  0  0  0  0  0  0  0
   39.2770   31.8190   41.0660 C   0  0  0  0  0  0  0  0  0  0  0  0
   39.2520   32.8490   40.1530 C   0  0  0  0  0  0  0  0  0  0  0  0
   38.0820   33.0290   39.5020 N   0  0  0  0  0  0  0  0  0  0  0  0
   36.9970   32.2750   39.7050 C   0  0  0  0  0  0  0  0  0  0  0  0
   37.0050   31.2520   40.6040 N   0  0  0  0  0  0  0  0  0  0  0  0
   38.1470   31.0460   41.2660 C   0  0  0  0  0  0  0  0  0  0  0  0
   40.3790   33.6800   39.9020 N   0  0  0  0  0  0  0  0  0  0  0  0
   34.7730   28.1960   37.0220 C   0  0  0  0  0  0  0  0  0  0  0  0
   33.3810   28.8060   36.9490 C   0  0  0  0  0  0  0  0  0  0  0  0
   34.6370   26.7830   36.4840 C   0  0  0  0  0  0  0  0  0  0  0  0
   35.6910   28.9560   36.0870 C   0  0  0  0  0  0  0  0  0  0  0  0
   37.1050   28.9440   36.4710 C   0  0  0  0  0  0  0  0  0  0  0  0
   37.9740   27.9040   35.9830 C   0  0  0  0  0  0  0  0  0  0  0  0
   39.5700   28.3310   36.7400 S   0  0  0  0  0  0  0  0  0  0  0  0
   38.7970   29.8650   37.6040 C   0  0  0  0  0  0  0  0  0  0  0  0
   37.7310   29.8010   37.2560 N   0  0  0  0  0  0  0  0  0  0  0  0
   34.7397   29.7949   41.2253 H   0  0  0  0  0  0  0  0  0  0  0  0
   37.5197   26.5808   40.3778 H   0  0  0  0  0  0  0  0  0  0  0  0
   35.4591   26.6475   43.2796 H   0  0  0  0  0  0  0  0  0  0  0  0
   36.8831   27.3775   45.4162 H   0  0  0  0  0  0  0  0  0  0  0  0
   40.2470   29.7115   43.3225 H   0  0  0  0  0  0  0  0  0  0  0  0
   36.0800   32.4849   39.1349 H   0  0  0  0  0  0  0  0  0  0  0  0
   40.3147   34.4396   39.2093 H   0  0  0  0  0  0  0  0  0  0  0  0
   41.2593   33.5221   40.4130 H   0  0  0  0  0  0  0  0  0  0  0  0
   33.0000   28.9730   37.9673 H   0  0  0  0  0  0  0  0  0  0  0  0
   33.4288   29.7656   36.4135 H   0  0  0  0  0  0  0  0  0  0  0  0
   32.7078   28.1204   36.4135 H   0  0  0  0  0  0  0  0  0  0  0  0
   34.5689   26.0759   37.3238 H   0  0  0  0  0  0  0  0  0  0  0  0
   33.7277   26.7107   35.8692 H   0  0  0  0  0  0  0  0  0  0  0  0
   35.5158   26.5386   35.8692 H   0  0  0  0  0  0  0  0  0  0  0  0
   35.3545   30.0027   36.0528 H   0  0  0  0  0  0  0  0  0  0  0  0
   35.6301   28.4488   35.1128 H   0  0  0  0  0  0  0  0  0  0  0  0
   37.7320   27.0617   35.3182 H   0  0  0  0  0  0  0  0  0  0  0  0
   39.2718   30.6069   38.2629 H   0  0  0  0  0  0  0  0  0  0  0  0
  1  2  2  0
  2  7  1  0
  3  2  1  0
  4  3  2  0
  5  4  1  0
  5  6  2  0
  6  1  1  0
  7 11  1  0
  7  8  1  0
  8  9  2  0
 10  9  1  0
 11 10  2  0
 12 13  1  0
 12 11  1  0
 14 13  2  0
 15 20  2  0
 15 14  1  0
 16 15  1  0
 17 18  1  0
 17 16  2  0
 18 19  2  0
 19 20  1  0
 20 12  1  0
 21 16  1  0
 22  5  1  0
 23 22  1  0
 24 22  1  0
 25 26  1  0
 25 22  1  0
 26 30  1  0
 27 26  2  0
 27 28  1  0
 28 29  1  0
 30 29  2  0
  1 31  1  0
  3 32  1  0
  8 33  1  0
  9 34  1  0
 13 35  1  0
 18 36  1  0
 21 37  1  0
 21 38  1  0
 23 39  1  0
 23 40  1  0
 23 41  1  0
 24 42  1  0
 24 43  1  0
 24 44  1  0
 25 45  1  0
 25 46  1  0
 27 47  1  0
 29 48  1  0
M  ISO  8  31  14  32  14  33  14  34  14  35  14  36  14  39   8  40   8
M  ISO  8  41   8  42   8  43   8  44   8  45   8  46   8  47  14  48  14
M  END
>  <minimizedAffinity>  (1) 
-6.1870203

>  <minimizedRMSD>  (1) 
0.66242975

$$$$
