
     RDKit          3D

 29 31  0  0  1  0  0  0  0  0999 V2000
   38.4600   27.6860   42.0500 N   0  0  0  0  0  0  0  0  0  0  0  0
   38.4040   26.6860   43.0680 C   0  0  0  0  0  0  0  0  0  0  0  0
   39.7000   26.8870   43.8520 C   0  0  0  0  0  0  0  0  0  0  0  0
   40.4850   27.9250   43.1070 C   0  0  0  0  0  0  0  0  0  0  0  0
   39.8640   27.8320   41.7320 C   0  0  2  0  0  0  0  0  0  0  0  0
   37.0460   29.7220   41.7770 C   0  0  0  0  0  0  0  0  0  0  0  0
   37.4140   28.4090   41.4440 C   0  0  0  0  0  0  0  0  0  0  0  0
   36.6770   27.7680   40.4180 C   0  0  0  0  0  0  0  0  0  0  0  0
   35.6660   28.4500   39.8200 N   0  0  0  0  0  0  0  0  0  0  0  0
   35.3520   29.7240   40.1830 C   0  0  0  0  0  0  0  0  0  0  0  0
   36.0400   30.3450   41.1530 N   0  0  0  0  0  0  0  0  0  0  0  0
   40.1520   28.9780   40.9230 N   0  0  0  0  0  0  0  0  0  0  0  0
   40.4810   30.1550   41.3830 N   0  0  0  0  0  0  0  0  0  0  0  0
   40.6930   31.0330   40.3900 C   0  0  0  0  0  0  0  0  0  0  0  0
   40.4800   30.3580   39.1840 C   0  0  0  0  0  0  0  0  0  0  0  0
   40.1440   29.0720   39.5620 C   0  0  0  0  0  0  0  0  0  0  0  0
   37.5276   26.8355   43.7157 H   0  0  0  0  0  0  0  0  0  0  0  0
   38.3088   25.6692   42.6592 H   0  0  0  0  0  0  0  0  0  0  0  0
   39.4784   27.2358   44.8714 H   0  0  0  0  0  0  0  0  0  0  0  0
   40.2637   25.9466   43.9411 H   0  0  0  0  0  0  0  0  0  0  0  0
   40.3479   28.9249   43.5444 H   0  0  0  0  0  0  0  0  0  0  0  0
   41.5732   27.7654   43.1226 H   0  0  0  0  0  0  0  0  0  0  0  0
   40.2532   27.0057   41.1190 H   0  0  0  0  0  0  0  0  0  0  0  0
   37.5972   30.2505   42.5688 H   0  0  0  0  0  0  0  0  0  0  0  0
   36.9184   26.7394   40.1120 H   0  0  0  0  0  0  0  0  0  0  0  0
   34.5278   30.2482   39.6771 H   0  0  0  0  0  0  0  0  0  0  0  0
   40.9811   32.0885   40.5039 H   0  0  0  0  0  0  0  0  0  0  0  0
   40.5616   30.7604   38.1635 H   0  0  0  0  0  0  0  0  0  0  0  0
   39.9064   28.2497   38.8711 H   0  0  0  0  0  0  0  0  0  0  0  0
  1  2  1  0
  2  3  1  0
  4  3  1  0
  5  1  1  0
  5  4  1  0
  7  6  2  0
  7  1  1  0
  8  7  1  0
  9 10  1  0
  9  8  2  0
 10 11  2  0
 11  6  1  0
 12 13  1  0
 12  5  1  0
 14 13  2  0
 15 16  2  0
 15 14  1  0
 16 12  1  0
  2 17  1  0
  2 18  1  0
  3 19  1  0
  3 20  1  0
  4 21  1  0
  4 22  1  0
  5 23  1  6
  6 24  1  0
  8 25  1  0
 10 26  1  0
 14 27  1  0
 15 28  1  0
 16 29  1  0
M  ISO  8  17  13  18  13  19  13  20  13  21  13  22  13  23  13  24  14
M  ISO  5  25  14  26  14  27  14  28  14  29  14
M  END
>  <minimizedAffinity>  (1) 
-3.66267562

>  <minimizedRMSD>  (1) 
0.503850341

$$$$
