
     RDKit          3D

 30 33  0  0  0  0  0  0  0  0999 V2000
   38.7130   27.0740   43.8320 C   0  0  0  0  0  0  0  0  0  0  0  0
   39.2120   26.1470   42.9190 C   0  0  0  0  0  0  0  0  0  0  0  0
   39.1860   26.4970   41.5570 C   0  0  0  0  0  0  0  0  0  0  0  0
   38.6790   27.7160   41.2140 N   0  0  0  0  0  0  0  0  0  0  0  0
   38.2030   28.5850   42.1430 C   0  0  0  0  0  0  0  0  0  0  0  0
   38.2200   28.2660   43.4560 N   0  0  0  0  0  0  0  0  0  0  0  0
   37.7300   29.7820   41.5330 N   0  0  0  0  0  0  0  0  0  0  0  0
   36.4210   29.9200   41.1700 C   0  0  0  0  0  0  0  0  0  0  0  0
   36.2150   31.1290   40.6180 N   0  0  0  0  0  0  0  0  0  0  0  0
   37.3950   31.7760   40.6250 C   0  0  0  0  0  0  0  0  0  0  0  0
   37.8370   33.0380   40.2030 C   0  0  0  0  0  0  0  0  0  0  0  0
   39.1340   33.3700   40.3680 N   0  0  0  0  0  0  0  0  0  0  0  0
   40.0150   32.5210   40.9280 C   0  0  0  0  0  0  0  0  0  0  0  0
   39.6150   31.2810   41.3500 N   0  0  0  0  0  0  0  0  0  0  0  0
   38.3130   30.9280   41.1930 C   0  0  0  0  0  0  0  0  0  0  0  0
   36.8310   33.8400   39.6320 N   0  0  0  0  0  0  0  0  0  0  0  0
   41.3800   32.8850   41.0950 N   0  0  0  0  0  0  0  0  0  0  0  0
   41.7670   34.0690   40.6090 N   0  0  0  0  0  0  0  0  0  0  0  0
   43.0960   34.2270   40.8700 C   0  0  0  0  0  0  0  0  0  0  0  0
   43.5330   33.0960   41.5410 C   0  0  0  0  0  0  0  0  0  0  0  0
   42.4280   32.2570   41.6740 C   0  0  0  0  0  0  0  0  0  0  0  0
   38.7231   26.8200   44.9022 H   0  0  0  0  0  0  0  0  0  0  0  0
   39.6114   25.1774   43.2512 H   0  0  0  0  0  0  0  0  0  0  0  0
   39.5643   25.8063   40.7890 H   0  0  0  0  0  0  0  0  0  0  0  0
   35.6458   29.1521   41.3091 H   0  0  0  0  0  0  0  0  0  0  0  0
   35.8682   33.4821   39.5561 H   0  0  0  0  0  0  0  0  0  0  0  0
   37.0577   34.7848   39.2901 H   0  0  0  0  0  0  0  0  0  0  0  0
   43.7113   35.0969   40.5967 H   0  0  0  0  0  0  0  0  0  0  0  0
   44.5541   32.8986   41.8993 H   0  0  0  0  0  0  0  0  0  0  0  0
   42.4116   31.2697   42.1588 H   0  0  0  0  0  0  0  0  0  0  0  0
  2  1  2  0
  3  2  1  0
  4  3  2  0
  4  5  1  0
  5  6  2  0
  6  1  1  0
  7  5  1  0
  8  7  1  0
  9 10  1  0
  9  8  2  0
 10 15  2  0
 11 12  2  0
 11 10  1  0
 12 13  1  0
 13 17  1  0
 13 14  2  0
 15 14  1  0
 15  7  1  0
 16 11  1  0
 17 21  1  0
 18 19  2  0
 18 17  1  0
 19 20  1  0
 20 21  2  0
  1 22  1  0
  2 23  1  0
  3 24  1  0
  8 25  1  0
 16 26  1  0
 16 27  1  0
 19 28  1  0
 20 29  1  0
 21 30  1  0
M  ISO  7  22  14  23  14  24  14  25  14  28  14  29  14  30  14
M  END
>  <minimizedAffinity>  (1) 
-6.15395737

>  <minimizedRMSD>  (1) 
1.10422051

$$$$
