
     RDKit          3D

 37 40  0  0  0  0  0  0  0  0999 V2000
   38.9160   28.7520   37.8240 C   0  0  0  0  0  0  0  0  0  0  0  0
   38.6010   29.1070   39.1410 C   0  0  0  0  0  0  0  0  0  0  0  0
   37.3010   29.3560   39.1760 N   0  0  0  0  0  0  0  0  0  0  0  0
   36.7240   29.1900   37.9670 C   0  0  0  0  0  0  0  0  0  0  0  0
   35.4030   29.3460   37.5810 C   0  0  0  0  0  0  0  0  0  0  0  0
   35.0880   29.1040   36.2520 C   0  0  0  0  0  0  0  0  0  0  0  0
   36.0710   28.7240   35.3710 C   0  0  0  0  0  0  0  0  0  0  0  0
   37.3910   28.5660   35.7510 C   0  0  0  0  0  0  0  0  0  0  0  0
   37.7270   28.8050   37.0870 C   0  0  0  0  0  0  0  0  0  0  0  0
   42.3460   29.0580   36.6100 C   0  0  0  0  0  0  0  0  0  0  0  0
   42.6970   27.7210   36.2760 C   0  0  0  0  0  0  0  0  0  0  0  0
   41.7240   26.7390   36.4820 C   0  0  0  0  0  0  0  0  0  0  0  0
   40.5330   27.1240   36.9790 N   0  0  0  0  0  0  0  0  0  0  0  0
   40.2270   28.3880   37.2860 C   0  0  0  0  0  0  0  0  0  0  0  0
   41.1340   29.3590   37.1020 N   0  0  0  0  0  0  0  0  0  0  0  0
   36.5910   29.7580   40.3770 C   0  0  0  0  0  0  0  0  0  0  0  0
   37.4930   30.2330   41.4710 C   0  0  0  0  0  0  0  0  0  0  0  0
   37.4790   29.1880   42.5610 C   0  0  0  0  0  0  0  0  0  0  0  0
   36.6430   28.0460   42.0850 C   0  0  0  0  0  0  0  0  0  0  0  0
   35.8650   28.5390   40.9000 C   0  0  0  0  0  0  0  0  0  0  0  0
   39.3013   29.1676   39.9871 H   0  0  0  0  0  0  0  0  0  0  0  0
   34.6310   29.6510   38.3028 H   0  0  0  0  0  0  0  0  0  0  0  0
   34.0507   29.2164   35.9035 H   0  0  0  0  0  0  0  0  0  0  0  0
   35.7973   28.5381   34.3219 H   0  0  0  0  0  0  0  0  0  0  0  0
   38.1560   28.2606   35.0220 H   0  0  0  0  0  0  0  0  0  0  0  0
   43.0825   29.8616   36.4622 H   0  0  0  0  0  0  0  0  0  0  0  0
   43.6897   27.4709   35.8736 H   0  0  0  0  0  0  0  0  0  0  0  0
   41.9249   25.6837   36.2454 H   0  0  0  0  0  0  0  0  0  0  0  0
   35.9253   30.5903   40.1048 H   0  0  0  0  0  0  0  0  0  0  0  0
   38.5155   30.3593   41.0857 H   0  0  0  0  0  0  0  0  0  0  0  0
   37.1495   31.2024   41.8611 H   0  0  0  0  0  0  0  0  0  0  0  0
   38.5040   28.8434   42.7627 H   0  0  0  0  0  0  0  0  0  0  0  0
   37.0657   29.6066   43.4905 H   0  0  0  0  0  0  0  0  0  0  0  0
   37.2860   27.2032   41.7913 H   0  0  0  0  0  0  0  0  0  0  0  0
   35.9688   27.6937   42.8796 H   0  0  0  0  0  0  0  0  0  0  0  0
   34.8427   28.8085   41.2037 H   0  0  0  0  0  0  0  0  0  0  0  0
   35.7906   27.7614   40.1255 H   0  0  0  0  0  0  0  0  0  0  0  0
  1  2  2  0
  2  3  1  0
  3 16  1  0
  4  3  1  0
  5  4  2  0
  6  5  1  0
  7  8  1  0
  7  6  2  0
  8  9  2  0
  9  1  1  0
  9  4  1  0
 10 15  2  0
 11 12  2  0
 11 10  1  0
 12 13  1  0
 13 14  2  0
 14  1  1  0
 15 14  1  0
 16 20  1  0
 16 17  1  0
 17 18  1  0
 19 18  1  0
 20 19  1  0
  2 21  1  0
  5 22  1  0
  6 23  1  0
  7 24  1  0
  8 25  1  0
 10 26  1  0
 11 27  1  0
 12 28  1  0
 16 29  1  0
 17 30  1  0
 17 31  1  0
 18 32  1  0
 18 33  1  0
 19 34  1  0
 19 35  1  0
 20 36  1  0
 20 37  1  0
M  ISO  8  21  14  22  14  23  14  24  14  25  14  26  14  27  14  28  14
M  ISO  8  29  13  30  13  31  13  32  13  33  13  34  13  35  13  36  13
M  ISO  1  37  13
M  END
>  <minimizedAffinity>  (1) 
-4.26967669

>  <minimizedRMSD>  (1) 
5.34485483

$$$$
