
     RDKit          3D

 20 21  0  0  0  0  0  0  0  0999 V2000
   37.5050   29.7020   42.1080 C   0  0  0  0  0  0  0  0  0  0  0  0
   36.6350   28.6200   41.9870 C   0  0  0  0  0  0  0  0  0  0  0  0
   35.6390   28.7010   40.9790 C   0  0  0  0  0  0  0  0  0  0  0  0
   35.5930   29.8110   40.2040 N   0  0  0  0  0  0  0  0  0  0  0  0
   36.4600   30.8270   40.3650 C   0  0  0  0  0  0  0  0  0  0  0  0
   37.4080   30.7640   41.3150 N   0  0  0  0  0  0  0  0  0  0  0  0
   36.6510   27.3990   42.8080 C   0  0  0  0  0  0  0  0  0  0  0  0
   38.0420   26.9130   42.9480 C   0  0  0  0  0  0  0  0  0  0  0  0
   38.7650   26.1800   41.9990 C   0  0  0  0  0  0  0  0  0  0  0  0
   39.9970   25.9750   42.6030 C   0  0  0  0  0  0  0  0  0  0  0  0
   39.9630   26.5710   43.8460 C   0  0  0  0  0  0  0  0  0  0  0  0
   38.7860   27.1230   44.0280 O   0  0  0  0  0  0  0  0  0  0  0  0
   38.2903   29.6764   42.8778 H   0  0  0  0  0  0  0  0  0  0  0  0
   34.9209   27.8811   40.8306 H   0  0  0  0  0  0  0  0  0  0  0  0
   36.3925   31.7128   39.7163 H   0  0  0  0  0  0  0  0  0  0  0  0
   36.2391   27.6217   43.8034 H   0  0  0  0  0  0  0  0  0  0  0  0
   36.0404   26.6239   42.3218 H   0  0  0  0  0  0  0  0  0  0  0  0
   38.4332   25.8446   41.0053 H   0  0  0  0  0  0  0  0  0  0  0  0
   40.8496   25.4332   42.1676 H   0  0  0  0  0  0  0  0  0  0  0  0
   40.7909   26.5821   44.5702 H   0  0  0  0  0  0  0  0  0  0  0  0
  2  1  2  0
  2  7  1  0
  3  2  1  0
  4  5  1  0
  4  3  2  0
  5  6  2  0
  6  1  1  0
  7  8  1  0
  8 12  1  0
  9 10  1  0
  9  8  2  0
 10 11  2  0
 11 12  1  0
  1 13  1  0
  3 14  1  0
  5 15  1  0
  7 16  1  0
  7 17  1  0
  9 18  1  0
 10 19  1  0
 11 20  1  0
M  ISO  8  13  14  14  14  15  14  16   8  17   8  18  14  19  14  20  14
M  END
>  <minimizedAffinity>  (1) 
-3.6610465

>  <minimizedRMSD>  (1) 
1.5419426

$$$$
