
     RDKit          3D

 49 53  0  0  0  0  0  0  0  0999 V2000
   41.5650   28.5110   43.2700 C   0  0  0  0  0  0  0  0  0  0  0  0
   40.9630   27.2560   43.5360 C   0  0  0  0  0  0  0  0  0  0  0  0
   39.7270   27.0220   42.9440 C   0  0  0  0  0  0  0  0  0  0  0  0
   39.1770   27.9670   42.1710 N   0  0  0  0  0  0  0  0  0  0  0  0
   39.7670   29.1450   41.9330 C   0  0  0  0  0  0  0  0  0  0  0  0
   40.9550   29.4220   42.4780 N   0  0  0  0  0  0  0  0  0  0  0  0
   39.0360   25.8270   43.1320 N   0  0  0  0  0  0  0  0  0  0  0  0
   39.1870   30.1620   41.1060 N   0  0  0  0  0  0  0  0  0  0  0  0
   38.0560   29.8410   40.4480 C   0  0  0  0  0  0  0  0  0  0  0  0
   37.3630   30.6870   39.6100 C   0  0  0  0  0  0  0  0  0  0  0  0
   37.8740   31.9420   39.4460 C   0  0  0  0  0  0  0  0  0  0  0  0
   37.3030   32.7760   38.6980 O   0  0  0  0  0  0  0  0  0  0  0  0
   39.0090   32.2490   40.1140 N   0  0  0  0  0  0  0  0  0  0  0  0
   39.6610   31.3980   40.9240 C   0  0  0  0  0  0  0  0  0  0  0  0
   40.7060   31.6820   41.5370 O   0  0  0  0  0  0  0  0  0  0  0  0
   39.5980   33.5430   39.9880 C   0  0  0  0  0  0  0  0  0  0  0  0
   39.0250   34.5940   40.6870 C   0  0  0  0  0  0  0  0  0  0  0  0
   39.5860   35.8450   40.5720 C   0  0  0  0  0  0  0  0  0  0  0  0
   40.6920   35.9980   39.7670 C   0  0  0  0  0  0  0  0  0  0  0  0
   41.2610   34.9700   39.0770 C   0  0  0  0  0  0  0  0  0  0  0  0
   40.7050   33.7000   39.1840 C   0  0  0  0  0  0  0  0  0  0  0  0
   36.1220   30.2400   38.9250 C   0  0  0  0  0  0  0  0  0  0  0  0
   36.5630   29.4380   37.7370 C   0  0  0  0  0  0  0  0  0  0  0  0
   37.8750   29.2050   37.4580 N   0  0  0  0  0  0  0  0  0  0  0  0
   38.2690   28.4840   36.3860 C   0  0  0  0  0  0  0  0  0  0  0  0
   37.3740   27.9670   35.5560 N   0  0  0  0  0  0  0  0  0  0  0  0
   36.0520   28.1420   35.7480 C   0  0  0  0  0  0  0  0  0  0  0  0
   35.1330   27.5970   34.8790 C   0  0  0  0  0  0  0  0  0  0  0  0
   33.8010   27.8160   35.1430 C   0  0  0  0  0  0  0  0  0  0  0  0
   33.3690   28.5530   36.2320 C   0  0  0  0  0  0  0  0  0  0  0  0
   34.2990   29.1000   37.1060 C   0  0  0  0  0  0  0  0  0  0  0  0
   35.6480   28.8870   36.8530 C   0  0  0  0  0  0  0  0  0  0  0  0
   42.5430   28.7478   43.7143 H   0  0  0  0  0  0  0  0  0  0  0  0
   41.4485   26.5059   44.1776 H   0  0  0  0  0  0  0  0  0  0  0  0
   38.1218   25.6840   42.6795 H   0  0  0  0  0  0  0  0  0  0  0  0
   39.4393   25.0865   43.7235 H   0  0  0  0  0  0  0  0  0  0  0  0
   37.6555   28.8265   40.5907 H   0  0  0  0  0  0  0  0  0  0  0  0
   38.1404   34.4313   41.3203 H   0  0  0  0  0  0  0  0  0  0  0  0
   39.1601   36.7039   41.1114 H   0  0  0  0  0  0  0  0  0  0  0  0
   41.1384   36.9992   39.6763 H   0  0  0  0  0  0  0  0  0  0  0  0
   42.1454   35.1419   38.4459 H   0  0  0  0  0  0  0  0  0  0  0  0
   41.1368   32.8456   38.6422 H   0  0  0  0  0  0  0  0  0  0  0  0
   35.5166   29.6182   39.6009 H   0  0  0  0  0  0  0  0  0  0  0  0
   35.5020   31.0964   38.6216 H   0  0  0  0  0  0  0  0  0  0  0  0
   39.3414   28.3245   36.2002 H   0  0  0  0  0  0  0  0  0  0  0  0
   35.4523   27.0085   34.0063 H   0  0  0  0  0  0  0  0  0  0  0  0
   33.0499   27.3888   34.4622 H   0  0  0  0  0  0  0  0  0  0  0  0
   32.2932   28.7048   36.4044 H   0  0  0  0  0  0  0  0  0  0  0  0
   33.9752   29.6878   37.9776 H   0  0  0  0  0  0  0  0  0  0  0  0
  1  2  2  0
  3  7  1  0
  3  2  1  0
  4  3  2  0
  5  4  1  0
  5  6  2  0
  6  1  1  0
  8  5  1  0
  9  8  1  0
 10  9  2  0
 11 10  1  0
 11 13  1  0
 12 11  2  0
 13 14  1  0
 14  8  1  0
 14 15  2  0
 16 13  1  0
 16 17  2  0
 18 17  1  0
 19 18  2  0
 20 21  2  0
 20 19  1  0
 21 16  1  0
 22 10  1  0
 23 22  1  0
 24 23  2  0
 25 24  1  0
 26 27  1  0
 26 25  2  0
 27 32  2  0
 28 29  2  0
 28 27  1  0
 29 30  1  0
 30 31  2  0
 32 31  1  0
 32 23  1  0
  1 33  1  0
  2 34  1  0
  7 35  1  0
  7 36  1  0
  9 37  1  0
 17 38  1  0
 18 39  1  0
 19 40  1  0
 20 41  1  0
 21 42  1  0
 22 43  1  0
 22 44  1  0
 25 45  1  0
 28 46  1  0
 29 47  1  0
 30 48  1  0
 31 49  1  0
M  ISO  8  33  14  34  14  37  14  38  14  39  14  40  14  41  14  42  14
M  ISO  7  43   8  44   8  45  14  46  14  47  14  48  14  49  14
M  END
>  <minimizedAffinity>  (1) 
-6.82865572

>  <minimizedRMSD>  (1) 
1.89356852

$$$$
