
     RDKit          3D

 28 31  0  0  1  0  0  0  0  0999 V2000
   36.1430   30.5990   40.6990 C   0  0  1  0  0  0  0  0  0  0  0  0
   36.9220   31.8510   40.4390 C   0  0  0  0  0  0  0  0  0  0  0  0
   36.7520   30.8610   39.3460 C   0  0  1  0  0  0  0  0  0  0  0  0
   37.8170   30.0870   38.8220 N   0  0  0  0  0  0  0  0  0  0  0  0
   37.9410   28.7350   38.6770 C   0  0  0  0  0  0  0  0  0  0  0  0
   39.1340   28.4590   38.1310 N   0  0  0  0  0  0  0  0  0  0  0  0
   39.7820   29.6110   37.9220 C   0  0  0  0  0  0  0  0  0  0  0  0
   41.0280   29.9300   37.3920 C   0  0  0  0  0  0  0  0  0  0  0  0
   41.4270   31.2300   37.3020 N   0  0  0  0  0  0  0  0  0  0  0  0
   40.6060   32.2070   37.7300 C   0  0  0  0  0  0  0  0  0  0  0  0
   39.3920   31.9030   38.2470 N   0  0  0  0  0  0  0  0  0  0  0  0
   38.9610   30.6270   38.3520 C   0  0  0  0  0  0  0  0  0  0  0  0
   38.5430   29.1110   43.0490 C   0  0  0  0  0  0  0  0  0  0  0  0
   38.0210   27.8140   43.2550 C   0  0  0  0  0  0  0  0  0  0  0  0
   36.8320   27.4800   42.5590 C   0  0  0  0  0  0  0  0  0  0  0  0
   36.2530   28.4000   41.7370 N   0  0  0  0  0  0  0  0  0  0  0  0
   36.8190   29.6360   41.5910 C   0  0  0  0  0  0  0  0  0  0  0  0
   37.9540   29.9780   42.2460 N   0  0  0  0  0  0  0  0  0  0  0  0
   35.1310   30.3370   41.0413 H   0  0  0  0  0  0  0  0  0  0  0  0
   36.4023   32.8191   40.3873 H   0  0  0  0  0  0  0  0  0  0  0  0
   37.7863   32.3373   40.9149 H   0  0  0  0  0  0  0  0  0  0  0  0
   36.3749   30.9044   38.3136 H   0  0  0  0  0  0  0  0  0  0  0  0
   37.1829   27.9909   38.9626 H   0  0  0  0  0  0  0  0  0  0  0  0
   41.6953   29.1280   37.0434 H   0  0  0  0  0  0  0  0  0  0  0  0
   40.9230   33.2580   37.6594 H   0  0  0  0  0  0  0  0  0  0  0  0
   39.4648   29.4062   43.5717 H   0  0  0  0  0  0  0  0  0  0  0  0
   38.5153   27.0956   43.9255 H   0  0  0  0  0  0  0  0  0  0  0  0
   36.3797   26.4848   42.6816 H   0  0  0  0  0  0  0  0  0  0  0  0
  1 17  1  0
  2  1  1  0
  3  2  1  0
  3  1  1  0
  4  3  1  0
  5  4  1  0
  6  5  2  0
  7  6  1  0
  7 12  2  0
  8  7  1  0
  9  8  2  0
  9 10  1  0
 10 11  2  0
 11 12  1  0
 12  4  1  0
 13 14  2  0
 15 14  1  0
 16 15  2  0
 17 16  1  0
 17 18  2  0
 18 13  1  0
  1 19  1  6
  2 20  1  0
  2 21  1  0
  3 22  1  6
  5 23  1  0
  8 24  1  0
 10 25  1  0
 13 26  1  0
 14 27  1  0
 15 28  1  0
M  ISO  8  19  13  20  13  21  13  22  13  23  14  24  14  25  14  26  14
M  ISO  2  27  14  28  14
M  END
>  <minimizedAffinity>  (1) 
-4.58805513

>  <minimizedRMSD>  (1) 
2.09749079

$$$$
