
     RDKit          3D

 45 49  0  0  1  0  0  0  0  0999 V2000
   38.4730   30.5820   38.1700 C   0  0  0  0  0  0  0  0  0  0  0  0
   38.0980   31.1190   37.0900 O   0  0  0  0  0  0  0  0  0  0  0  0
   39.8370   30.4000   38.5210 N   0  0  0  0  0  0  0  0  0  0  0  0
   40.9010   29.9030   37.6610 C   0  0  0  0  0  0  0  0  0  0  0  0
   41.5430   28.7740   38.4870 C   0  0  0  0  0  0  0  0  0  0  0  0
   42.2650   29.3760   39.5720 N   0  0  0  0  0  0  0  0  0  0  0  0
   41.5900   30.4130   40.2700 C   0  0  0  0  0  0  0  0  0  0  0  0
   40.2090   30.7420   39.8660 C   0  0  1  0  0  0  0  0  0  0  0  0
   39.8800   32.1200   40.1790 N   0  0  0  0  0  0  0  0  0  0  0  0
   38.9340   32.5880   41.0320 C   0  0  0  0  0  0  0  0  0  0  0  0
   38.9040   33.9210   41.0770 N   0  0  0  0  0  0  0  0  0  0  0  0
   39.8530   34.3370   40.2350 C   0  0  0  0  0  0  0  0  0  0  0  0
   40.3580   35.5490   39.8000 C   0  0  0  0  0  0  0  0  0  0  0  0
   41.3700   35.6450   38.8970 N   0  0  0  0  0  0  0  0  0  0  0  0
   41.9110   34.5200   38.3980 C   0  0  0  0  0  0  0  0  0  0  0  0
   41.4680   33.3070   38.7760 N   0  0  0  0  0  0  0  0  0  0  0  0
   40.4660   33.2360   39.6710 C   0  0  0  0  0  0  0  0  0  0  0  0
   37.0610   28.2830   40.6130 C   0  0  0  0  0  0  0  0  0  0  0  0
   35.9630   28.9240   41.1040 C   0  0  0  0  0  0  0  0  0  0  0  0
   35.6880   30.1730   40.5960 C   0  0  0  0  0  0  0  0  0  0  0  0
   36.4510   30.7680   39.6520 N   0  0  0  0  0  0  0  0  0  0  0  0
   37.5400   30.0830   39.1920 C   0  0  0  0  0  0  0  0  0  0  0  0
   37.8230   28.8580   39.6820 N   0  0  0  0  0  0  0  0  0  0  0  0
   38.6880   25.6090   42.5490 C   0  0  0  0  0  0  0  0  0  0  0  0
   38.0860   24.4480   42.0110 C   0  0  0  0  0  0  0  0  0  0  0  0
   37.1560   24.6070   41.0180 C   0  0  0  0  0  0  0  0  0  0  0  0
   36.8390   25.8650   40.5810 N   0  0  0  0  0  0  0  0  0  0  0  0
   37.4180   26.9590   41.1000 C   0  0  0  0  0  0  0  0  0  0  0  0
   38.3380   26.8250   42.0780 N   0  0  0  0  0  0  0  0  0  0  0  0
   41.6327   30.6954   37.4450 H   0  0  0  0  0  0  0  0  0  0  0  0
   40.5322   29.5584   36.6836 H   0  0  0  0  0  0  0  0  0  0  0  0
   40.7609   28.1089   38.8821 H   0  0  0  0  0  0  0  0  0  0  0  0
   42.2220   28.1786   37.8589 H   0  0  0  0  0  0  0  0  0  0  0  0
   42.4904   28.6344   40.2504 H   0  0  0  0  0  0  0  0  0  0  0  0
   41.5595   30.1255   41.3313 H   0  0  0  0  0  0  0  0  0  0  0  0
   42.1662   31.3199   40.0342 H   0  0  0  0  0  0  0  0  0  0  0  0
   39.5908   30.0703   40.4797 H   0  0  0  0  0  0  0  0  0  0  0  0
   38.2668   31.9409   41.6203 H   0  0  0  0  0  0  0  0  0  0  0  0
   39.9220   36.4754   40.2020 H   0  0  0  0  0  0  0  0  0  0  0  0
   42.7304   34.5924   37.6677 H   0  0  0  0  0  0  0  0  0  0  0  0
   35.3248   28.4633   41.8724 H   0  0  0  0  0  0  0  0  0  0  0  0
   34.8072   30.7117   40.9754 H   0  0  0  0  0  0  0  0  0  0  0  0
   39.4387   25.5217   43.3483 H   0  0  0  0  0  0  0  0  0  0  0  0
   38.3565   23.4473   42.3789 H   0  0  0  0  0  0  0  0  0  0  0  0
   36.6662   23.7279   40.5738 H   0  0  0  0  0  0  0  0  0  0  0  0
  1  3  1  0
  1 22  1  0
  2  1  2  0
  3  8  1  0
  4  5  1  0
  4  3  1  0
  5  6  1  0
  6  7  1  0
  8  9  1  0
  8  7  1  0
  9 10  1  0
 10 11  2  0
 12 11  1  0
 13 12  2  0
 14 13  1  0
 15 16  1  0
 15 14  2  0
 16 17  2  0
 17  9  1  0
 17 12  1  0
 18 28  1  0
 18 19  2  0
 20 19  1  0
 21 20  2  0
 22 21  1  0
 22 23  2  0
 23 18  1  0
 25 24  2  0
 26 25  1  0
 27 26  2  0
 27 28  1  0
 28 29  2  0
 29 24  1  0
  4 30  1  0
  4 31  1  0
  5 32  1  0
  5 33  1  0
  6 34  1  0
  7 35  1  0
  7 36  1  0
  8 37  1  1
 10 38  1  0
 13 39  1  0
 15 40  1  0
 19 41  1  0
 20 42  1  0
 24 43  1  0
 25 44  1  0
 26 45  1  0
M  ISO  8  30  13  31  13  32  13  33  13  34   5  35  13  36  13  37  13
M  ISO  8  38  14  39  14  40  14  41  14  42  14  43  14  44  14  45  14
M  END
>  <minimizedAffinity>  (1) 
-6.00185823

>  <minimizedRMSD>  (1) 
3.75861764

$$$$
