
     RDKit          3D

 41 44  0  0  0  0  0  0  0  0999 V2000
   35.2580   29.5280   40.0490 C   0  0  0  0  0  0  0  0  0  0  0  0
   35.8690   29.4370   38.7050 C   0  0  0  0  0  0  0  0  0  0  0  0
   37.1900   29.5820   38.3730 C   0  0  0  0  0  0  0  0  0  0  0  0
   37.7070   29.5640   37.1080 C   0  0  0  0  0  0  0  0  0  0  0  0
   36.8680   29.3900   36.0450 C   0  0  0  0  0  0  0  0  0  0  0  0
   35.5240   29.2370   36.3040 C   0  0  0  0  0  0  0  0  0  0  0  0
   34.7280   29.0800   35.1950 C   0  0  0  0  0  0  0  0  0  0  0  0
   33.3710   28.9290   35.3450 C   0  0  0  0  0  0  0  0  0  0  0  0
   32.8280   28.9330   36.6100 C   0  0  0  0  0  0  0  0  0  0  0  0
   33.6730   29.0920   37.6780 C   0  0  0  0  0  0  0  0  0  0  0  0
   35.0160   29.2550   37.6030 C   0  0  0  0  0  0  0  0  0  0  0  0
   33.0700   29.0700   38.9240 O   0  0  0  0  0  0  0  0  0  0  0  0
   36.1560   30.0930   41.1040 C   0  0  0  0  0  0  0  0  0  0  0  0
   38.6080   28.1460   42.6950 C   0  0  0  0  0  0  0  0  0  0  0  0
   37.5150   27.3320   42.8140 C   0  0  0  0  0  0  0  0  0  0  0  0
   36.4480   28.0000   42.2070 C   0  0  0  0  0  0  0  0  0  0  0  0
   36.9810   29.1510   41.7770 N   0  0  0  0  0  0  0  0  0  0  0  0
   38.2460   29.2790   42.0420 N   0  0  0  0  0  0  0  0  0  0  0  0
   41.5060   26.5050   44.3640 C   0  0  0  0  0  0  0  0  0  0  0  0
   40.1960   26.7150   43.9230 C   0  0  0  0  0  0  0  0  0  0  0  0
   39.9470   27.8780   43.1770 C   0  0  0  0  0  0  0  0  0  0  0  0
   40.9620   28.7490   42.9070 N   0  0  0  0  0  0  0  0  0  0  0  0
   42.2210   28.4750   43.3740 C   0  0  0  0  0  0  0  0  0  0  0  0
   42.4850   27.3690   44.0890 N   0  0  0  0  0  0  0  0  0  0  0  0
   43.4020   29.7540   42.9040 S   0  0  0  0  0  0  0  0  0  0  0  0
   34.9586   28.5160   40.3591 H   0  0  0  0  0  0  0  0  0  0  0  0
   34.4081   30.2206   39.9591 H   0  0  0  0  0  0  0  0  0  0  0  0
   37.9000   29.7262   39.2007 H   0  0  0  0  0  0  0  0  0  0  0  0
   38.7881   29.6884   36.9479 H   0  0  0  0  0  0  0  0  0  0  0  0
   37.2531   29.3726   35.0148 H   0  0  0  0  0  0  0  0  0  0  0  0
   35.1760   29.0753   34.1904 H   0  0  0  0  0  0  0  0  0  0  0  0
   32.7248   28.8061   34.4633 H   0  0  0  0  0  0  0  0  0  0  0  0
   31.7450   28.8119   36.7600 H   0  0  0  0  0  0  0  0  0  0  0  0
   33.6181   29.1788   39.7412 H   0  0  0  0  0  0  0  0  0  0  0  0
   36.8111   30.8373   40.6278 H   0  0  0  0  0  0  0  0  0  0  0  0
   35.4904   30.5133   41.8723 H   0  0  0  0  0  0  0  0  0  0  0  0
   37.4823   26.3430   43.2945 H   0  0  0  0  0  0  0  0  0  0  0  0
   35.4074   27.6583   42.1055 H   0  0  0  0  0  0  0  0  0  0  0  0
   41.7355   25.6046   44.9527 H   0  0  0  0  0  0  0  0  0  0  0  0
   39.3933   25.9984   44.1512 H   0  0  0  0  0  0  0  0  0  0  0  0
   43.9295   30.3253   44.0320 H   0  0  0  0  0  0  0  0  0  0  0  0
  1 13  1  0
  2  1  1  0
  3  2  2  0
  4  3  1  0
  5  6  1  0
  5  4  2  0
  6 11  2  0
  7  8  2  0
  7  6  1  0
  8  9  1  0
  9 10  2  0
 10 12  1  0
 11 10  1  0
 11  2  1  0
 13 17  1  0
 14 15  1  0
 14 21  1  0
 16 15  2  0
 17 18  1  0
 17 16  1  0
 18 14  2  0
 20 19  2  0
 21 20  1  0
 22 21  2  0
 22 23  1  0
 23 24  2  0
 24 19  1  0
 25 23  1  0
  1 26  1  0
  1 27  1  0
  3 28  1  0
  4 29  1  0
  5 30  1  0
  7 31  1  0
  8 32  1  0
  9 33  1  0
 12 34  1  0
 13 35  1  0
 13 36  1  0
 15 37  1  0
 16 38  1  0
 19 39  1  0
 20 40  1  0
 25 41  1  0
M  ISO  8  26   8  27   8  28  14  29  14  30  14  31  14  32  14  33  14
M  ISO  8  34   3  35   8  36   8  37  14  38  14  39  14  40  14  41  11
M  END
>  <minimizedAffinity>  (1) 
-5.84659433

>  <minimizedRMSD>  (1) 
0.0556149669

$$$$
