
     RDKit          3D

 25 27  0  0  0  0  0  0  0  0999 V2000
   38.0860   27.9620   41.8080 C   0  0  0  0  0  0  0  0  0  0  0  0
   38.8620   27.8480   42.9560 C   0  0  0  0  0  0  0  0  0  0  0  0
   38.9200   26.5320   43.2870 N   0  0  0  0  0  0  0  0  0  0  0  0
   38.2220   25.7930   42.4110 C   0  0  0  0  0  0  0  0  0  0  0  0
   37.9690   24.4310   42.2970 C   0  0  0  0  0  0  0  0  0  0  0  0
   37.1920   23.9320   41.2590 C   0  0  0  0  0  0  0  0  0  0  0  0
   36.6870   24.8480   40.3550 C   0  0  0  0  0  0  0  0  0  0  0  0
   36.9360   26.1840   40.4680 C   0  0  0  0  0  0  0  0  0  0  0  0
   37.6980   26.6850   41.4830 C   0  0  0  0  0  0  0  0  0  0  0  0
   36.3060   31.0960   40.8350 C   0  0  0  0  0  0  0  0  0  0  0  0
   36.6420   29.9080   41.5150 C   0  0  0  0  0  0  0  0  0  0  0  0
   37.7550   29.1740   41.1060 C   0  0  0  0  0  0  0  0  0  0  0  0
   38.4720   29.6670   40.0410 N   0  0  0  0  0  0  0  0  0  0  0  0
   38.1420   30.8030   39.3990 C   0  0  0  0  0  0  0  0  0  0  0  0
   37.0630   31.5170   39.7910 N   0  0  0  0  0  0  0  0  0  0  0  0
   39.0730   31.4280   38.0290 S   0  0  0  0  0  0  0  0  0  0  0  0
   39.3427   28.6752   43.4988 H   0  0  0  0  0  0  0  0  0  0  0  0
   39.4294   26.1535   44.0983 H   0  0  0  0  0  0  0  0  0  0  0  0
   38.3904   23.7377   43.0399 H   0  0  0  0  0  0  0  0  0  0  0  0
   36.9876   22.8556   41.1608 H   0  0  0  0  0  0  0  0  0  0  0  0
   36.0666   24.4889   39.5207 H   0  0  0  0  0  0  0  0  0  0  0  0
   36.5126   26.8741   39.7233 H   0  0  0  0  0  0  0  0  0  0  0  0
   35.4301   31.6817   41.1508 H   0  0  0  0  0  0  0  0  0  0  0  0
   36.0309   29.5624   42.3619 H   0  0  0  0  0  0  0  0  0  0  0  0
   40.1430   32.1463   38.4937 H   0  0  0  0  0  0  0  0  0  0  0  0
  1  2  2  0
  2  3  1  0
  4  3  1  0
  5  4  2  0
  6  5  1  0
  7  8  1  0
  7  6  2  0
  8  9  2  0
  9  1  1  0
  9  4  1  0
 10 11  2  0
 12 11  1  0
 12  1  1  0
 13 12  2  0
 14 15  2  0
 14 13  1  0
 15 10  1  0
 16 14  1  0
  2 17  1  0
  3 18  1  0
  5 19  1  0
  6 20  1  0
  7 21  1  0
  8 22  1  0
 10 23  1  0
 11 24  1  0
 16 25  1  0
M  ISO  8  17  14  18   9  19  14  20  14  21  14  22  14  23  14  24  14
M  ISO  1  25  11
M  END
>  <minimizedAffinity>  (1) 
-4.60620499

>  <minimizedRMSD>  (1) 
1.94412673

$$$$
