
     RDKit          3D

 20 21  0  0  0  0  0  0  0  0999 V2000
   39.3560   28.0280   43.1620 C   0  0  0  0  0  0  0  0  0  0  0  0
   38.7490   26.7450   43.0620 C   0  0  0  0  0  0  0  0  0  0  0  0
   37.4030   26.6690   42.6900 C   0  0  0  0  0  0  0  0  0  0  0  0
   36.7460   27.8330   42.4450 N   0  0  0  0  0  0  0  0  0  0  0  0
   37.3460   29.0310   42.5480 C   0  0  0  0  0  0  0  0  0  0  0  0
   38.6250   29.1290   42.9000 N   0  0  0  0  0  0  0  0  0  0  0  0
   36.7160   25.3490   42.5690 C   0  0  0  0  0  0  0  0  0  0  0  0
   37.3000   24.4760   41.5470 C   0  0  0  0  0  0  0  0  0  0  0  0
   37.1230   24.6720   40.1800 C   0  0  0  0  0  0  0  0  0  0  0  0
   37.8020   23.6800   39.5570 N   0  0  0  0  0  0  0  0  0  0  0  0
   38.3960   22.8740   40.4660 C   0  0  0  0  0  0  0  0  0  0  0  0
   38.0740   23.3820   41.6870 N   0  0  0  0  0  0  0  0  0  0  0  0
   40.4134   28.1202   43.4508 H   0  0  0  0  0  0  0  0  0  0  0  0
   39.3260   25.8325   43.2728 H   0  0  0  0  0  0  0  0  0  0  0  0
   36.7706   29.9447   42.3380 H   0  0  0  0  0  0  0  0  0  0  0  0
   36.7751   24.8357   43.5401 H   0  0  0  0  0  0  0  0  0  0  0  0
   35.6782   25.5517   42.2659 H   0  0  0  0  0  0  0  0  0  0  0  0
   36.5448   25.4754   39.7001 H   0  0  0  0  0  0  0  0  0  0  0  0
   39.0141   21.9876   40.2603 H   0  0  0  0  0  0  0  0  0  0  0  0
   38.3782   22.9870   42.5883 H   0  0  0  0  0  0  0  0  0  0  0  0
  2  1  2  0
  3  2  1  0
  4  5  1  0
  4  3  2  0
  5  6  2  0
  6  1  1  0
  7  3  1  0
  8 12  1  0
  8  7  1  0
  9  8  2  0
 10  9  1  0
 10 11  2  0
 11 12  1  0
  1 13  1  0
  2 14  1  0
  5 15  1  0
  7 16  1  0
  7 17  1  0
  9 18  1  0
 11 19  1  0
 12 20  1  0
M  ISO  8  13  14  14  14  15  14  16   8  17   8  18  14  19  14  20   9
M  END
>  <minimizedAffinity>  (1) 
-3.45617843

>  <minimizedRMSD>  (1) 
1.3919704

$$$$
