
     RDKit          3D

 34 35  0  0  0  0  0  0  0  0999 V2000
   36.8060   30.4500   40.6820 C   0  0  0  0  0  0  0  0  0  0  0  0
   36.8840   31.8990   40.4410 C   0  0  0  0  0  0  0  0  0  0  0  0
   40.5070   32.1000   39.6100 C   0  0  0  0  0  0  0  0  0  0  0  0
   39.2250   31.5860   39.8780 C   0  0  0  0  0  0  0  0  0  0  0  0
   38.1970   32.4450   40.1820 C   0  0  0  0  0  0  0  0  0  0  0  0
   38.4380   33.7780   40.2200 N   0  0  0  0  0  0  0  0  0  0  0  0
   39.6750   34.2620   39.9620 C   0  0  0  0  0  0  0  0  0  0  0  0
   40.7210   33.4440   39.6550 N   0  0  0  0  0  0  0  0  0  0  0  0
   39.7070   35.7440   40.0760 C   0  0  0  0  0  0  0  0  0  0  0  0
   40.7160   36.2790   39.3220 F   0  0  0  0  0  0  0  0  0  0  0  0
   39.9120   36.1010   41.4160 F   0  0  0  0  0  0  0  0  0  0  0  0
   38.4730   36.2840   39.7800 F   0  0  0  0  0  0  0  0  0  0  0  0
   36.4250   30.1450   42.0950 N   0  0  0  0  0  0  0  0  0  0  0  0
   37.7820   29.1790   42.7230 S   0  0  0  0  0  0  0  0  0  0  0  0
   38.9420   29.9960   42.9930 O   0  0  0  0  0  0  0  0  0  0  0  0
   37.2640   28.5860   44.0510 O   0  0  0  0  0  0  0  0  0  0  0  0
   38.0640   27.8010   41.6770 C   0  0  0  0  0  0  0  0  0  0  0  0
   38.9290   26.8500   42.5210 C   0  0  0  0  0  0  0  0  0  0  0  0
   38.8340   25.4560   42.4800 C   0  0  0  0  0  0  0  0  0  0  0  0
   39.7390   24.9530   43.3470 N   0  0  0  0  0  0  0  0  0  0  0  0
   40.3710   26.0090   43.9040 C   0  0  0  0  0  0  0  0  0  0  0  0
   39.8950   27.1710   43.4180 N   0  0  0  0  0  0  0  0  0  0  0  0
   37.7877   30.0002   40.4723 H   0  0  0  0  0  0  0  0  0  0  0  0
   36.0324   30.0331   40.0203 H   0  0  0  0  0  0  0  0  0  0  0  0
   36.2510   32.1265   39.5707 H   0  0  0  0  0  0  0  0  0  0  0  0
   36.5575   32.3661   41.3818 H   0  0  0  0  0  0  0  0  0  0  0  0
   41.3344   31.4178   39.3647 H   0  0  0  0  0  0  0  0  0  0  0  0
   39.0467   30.5011   39.8442 H   0  0  0  0  0  0  0  0  0  0  0  0
   36.3141   31.0133   42.6378 H   0  0  0  0  0  0  0  0  0  0  0  0
   38.5982   28.1072   40.7655 H   0  0  0  0  0  0  0  0  0  0  0  0
   37.1278   27.3302   41.3426 H   0  0  0  0  0  0  0  0  0  0  0  0
   38.1443   24.8722   41.8527 H   0  0  0  0  0  0  0  0  0  0  0  0
   41.1698   25.9300   44.6561 H   0  0  0  0  0  0  0  0  0  0  0  0
   40.2040   28.1189   43.6768 H   0  0  0  0  0  0  0  0  0  0  0  0
  1 13  1  0
  2  1  1  0
  3  8  2  0
  3  4  1  0
  4  5  2  0
  5  6  1  0
  5  2  1  0
  7  9  1  0
  7  6  2  0
  8  7  1  0
  9 11  1  0
 10  9  1  0
 12  9  1  0
 13 14  1  0
 14 15  2  0
 14 16  2  0
 17 18  1  0
 17 14  1  0
 18 22  1  0
 19 18  2  0
 19 20  1  0
 20 21  2  0
 22 21  1  0
  1 23  1  0
  1 24  1  0
  2 25  1  0
  2 26  1  0
  3 27  1  0
  4 28  1  0
 13 29  1  0
 17 30  1  0
 17 31  1  0
 19 32  1  0
 21 33  1  0
 22 34  1  0
M  ISO  8  23   8  24   8  25   8  26   8  27  14  28  14  29   5  30   8
M  ISO  4  31   8  32  14  33  14  34   9
M  END
>  <minimizedAffinity>  (1) 
-5.44369555

>  <minimizedRMSD>  (1) 
0.796051443

$$$$
