
     RDKit          3D

 37 40  0  0  0  0  0  0  0  0999 V2000
   37.6480   28.2100   41.4900 C   0  0  0  0  0  0  0  0  0  0  0  0
   36.3810   27.9580   40.9580 C   0  0  0  0  0  0  0  0  0  0  0  0
   35.9310   29.1110   40.4540 N   0  0  0  0  0  0  0  0  0  0  0  0
   36.8200   30.1040   40.6210 C   0  0  0  0  0  0  0  0  0  0  0  0
   36.7280   31.4220   40.2440 C   0  0  0  0  0  0  0  0  0  0  0  0
   37.8150   32.2420   40.5480 C   0  0  0  0  0  0  0  0  0  0  0  0
   38.9400   31.7310   41.2060 C   0  0  0  0  0  0  0  0  0  0  0  0
   39.0140   30.4020   41.5780 C   0  0  0  0  0  0  0  0  0  0  0  0
   37.9390   29.5700   41.2830 C   0  0  0  0  0  0  0  0  0  0  0  0
   39.6690   26.6120   44.0850 C   0  0  0  0  0  0  0  0  0  0  0  0
   40.2220   25.4850   43.4060 C   0  0  0  0  0  0  0  0  0  0  0  0
   39.8780   25.2990   42.0480 C   0  0  0  0  0  0  0  0  0  0  0  0
   39.0520   26.2060   41.4950 N   0  0  0  0  0  0  0  0  0  0  0  0
   38.5410   27.2630   42.1510 C   0  0  0  0  0  0  0  0  0  0  0  0
   38.8530   27.4560   43.4390 N   0  0  0  0  0  0  0  0  0  0  0  0
   34.6380   29.1720   39.8300 C   0  0  0  0  0  0  0  0  0  0  0  0
   34.6060   28.5360   38.4560 C   0  0  0  0  0  0  0  0  0  0  0  0
   33.3280   28.9970   37.8200 C   0  0  0  0  0  0  0  0  0  0  0  0
   33.3210   29.1310   36.4610 C   0  0  0  0  0  0  0  0  0  0  0  0
   32.1090   29.5490   36.0670 N   0  0  0  0  0  0  0  0  0  0  0  0
   31.3480   29.6780   37.1920 C   0  0  0  0  0  0  0  0  0  0  0  0
   32.1110   29.3350   38.2550 N   0  0  0  0  0  0  0  0  0  0  0  0
   35.8534   26.9928   40.9546 H   0  0  0  0  0  0  0  0  0  0  0  0
   35.8391   31.8123   39.7268 H   0  0  0  0  0  0  0  0  0  0  0  0
   37.7877   33.3051   40.2667 H   0  0  0  0  0  0  0  0  0  0  0  0
   39.7826   32.4012   41.4316 H   0  0  0  0  0  0  0  0  0  0  0  0
   39.9025   30.0112   42.0954 H   0  0  0  0  0  0  0  0  0  0  0  0
   39.9136   26.7885   45.1428 H   0  0  0  0  0  0  0  0  0  0  0  0
   40.8940   24.7841   43.9228 H   0  0  0  0  0  0  0  0  0  0  0  0
   40.2685   24.4497   41.4682 H   0  0  0  0  0  0  0  0  0  0  0  0
   33.9147   28.6498   40.4735 H   0  0  0  0  0  0  0  0  0  0  0  0
   34.3871   30.2354   39.7030 H   0  0  0  0  0  0  0  0  0  0  0  0
   35.4704   28.8662   37.8612 H   0  0  0  0  0  0  0  0  0  0  0  0
   34.6541   27.4388   38.5173 H   0  0  0  0  0  0  0  0  0  0  0  0
   34.1733   28.9285   35.7957 H   0  0  0  0  0  0  0  0  0  0  0  0
   30.2980   30.0038   37.2283 H   0  0  0  0  0  0  0  0  0  0  0  0
   31.8041   29.3345   39.2382 H   0  0  0  0  0  0  0  0  0  0  0  0
  1 14  1  0
  2  1  2  0
  3  4  1  0
  3  2  1  0
  4  9  2  0
  5  6  2  0
  5  4  1  0
  6  7  1  0
  7  8  2  0
  9  1  1  0
  9  8  1  0
 11 10  2  0
 12 11  1  0
 13 12  2  0
 13 14  1  0
 14 15  2  0
 15 10  1  0
 16  3  1  0
 17 16  1  0
 18 22  1  0
 18 17  1  0
 19 18  2  0
 20 19  1  0
 20 21  2  0
 21 22  1  0
  2 23  1  0
  5 24  1  0
  6 25  1  0
  7 26  1  0
  8 27  1  0
 10 28  1  0
 11 29  1  0
 12 30  1  0
 16 31  1  0
 16 32  1  0
 17 33  1  0
 17 34  1  0
 19 35  1  0
 21 36  1  0
 22 37  1  0
M  ISO  8  23  14  24  14  25  14  26  14  27  14  28  14  29  14  30  14
M  ISO  7  31   8  32   8  33   8  34   8  35  14  36  14  37   9
M  END
>  <minimizedAffinity>  (1) 
-5.07786369

>  <minimizedRMSD>  (1) 
0.373462141

$$$$
