
     RDKit          3D

 41 44  0  0  1  0  0  0  0  0999 V2000
   39.1490   29.5520   41.3220 C   0  0  2  0  0  0  0  0  0  0  0  0
   40.0970   29.1230   42.3020 C   0  0  0  0  0  0  0  0  0  0  0  0
   39.3570   28.0930   43.1640 C   0  0  0  0  0  0  0  0  0  0  0  0
   38.1830   27.6200   42.3160 C   0  0  0  0  0  0  0  0  0  0  0  0
   38.3960   28.2050   40.9620 C   0  0  1  0  0  0  0  0  0  0  0  0
   40.3510   29.3680   39.0870 C   0  0  0  0  0  0  0  0  0  0  0  0
   39.6740   30.1580   40.0990 C   0  0  0  0  0  0  0  0  0  0  0  0
   39.5280   31.5080   39.9290 C   0  0  0  0  0  0  0  0  0  0  0  0
   40.0520   32.0370   38.7730 N   0  0  0  0  0  0  0  0  0  0  0  0
   40.6970   31.2880   37.8110 C   0  0  0  0  0  0  0  0  0  0  0  0
   40.8450   29.9250   37.9810 N   0  0  0  0  0  0  0  0  0  0  0  0
   41.2050   31.9570   36.6520 N   0  0  0  0  0  0  0  0  0  0  0  0
   38.9090   32.4680   40.7940 C   0  0  0  0  0  0  0  0  0  0  0  0
   39.3450   33.8850   40.5920 C   0  0  0  0  0  0  0  0  0  0  0  0
   40.5000   34.5910   40.7330 N   0  0  0  0  0  0  0  0  0  0  0  0
   40.3130   35.8310   40.4070 O   0  0  0  0  0  0  0  0  0  0  0  0
   39.0770   36.0300   40.0440 C   0  0  0  0  0  0  0  0  0  0  0  0
   38.4680   34.8370   40.1540 N   0  0  0  0  0  0  0  0  0  0  0  0
   37.0030   28.4450   40.4780 C   0  0  0  0  0  0  0  0  0  0  0  0
   36.0050   28.8280   41.3410 N   0  0  0  0  0  0  0  0  0  0  0  0
   34.9110   28.9690   40.6320 O   0  0  0  0  0  0  0  0  0  0  0  0
   35.1930   28.6920   39.3860 C   0  0  0  0  0  0  0  0  0  0  0  0
   36.4870   28.3630   39.2590 N   0  0  0  0  0  0  0  0  0  0  0  0
   34.1380   28.7640   38.3100 C   0  0  0  0  0  0  0  0  0  0  0  0
   32.9750   29.2380   38.8560 F   0  0  0  0  0  0  0  0  0  0  0  0
   34.5510   29.5940   37.2850 F   0  0  0  0  0  0  0  0  0  0  0  0
   33.8910   27.4960   37.8060 F   0  0  0  0  0  0  0  0  0  0  0  0
   38.5422   30.3682   41.7412 H   0  0  0  0  0  0  0  0  0  0  0  0
   40.9699   28.6621   41.8166 H   0  0  0  0  0  0  0  0  0  0  0  0
   40.4719   29.9645   42.9031 H   0  0  0  0  0  0  0  0  0  0  0  0
   40.0193   27.2493   43.4082 H   0  0  0  0  0  0  0  0  0  0  0  0
   39.0226   28.5250   44.1188 H   0  0  0  0  0  0  0  0  0  0  0  0
   38.1691   26.5215   42.2604 H   0  0  0  0  0  0  0  0  0  0  0  0
   37.2209   27.9357   42.7458 H   0  0  0  0  0  0  0  0  0  0  0  0
   38.9536   27.6306   40.2076 H   0  0  0  0  0  0  0  0  0  0  0  0
   40.4591   28.2835   39.2361 H   0  0  0  0  0  0  0  0  0  0  0  0
   41.0816   32.9744   36.5491 H   0  0  0  0  0  0  0  0  0  0  0  0
   41.6940   31.4210   35.9209 H   0  0  0  0  0  0  0  0  0  0  0  0
   37.8220   32.4204   40.6320 H   0  0  0  0  0  0  0  0  0  0  0  0
   39.2143   32.1984   41.8158 H   0  0  0  0  0  0  0  0  0  0  0  0
   38.6259   36.9780   39.7157 H   0  0  0  0  0  0  0  0  0  0  0  0
  1  2  1  0
  2  3  1  0
  4  3  1  0
  5  1  1  0
  5  4  1  0
  6  7  2  0
  7  1  1  0
  8  7  1  0
  8 13  1  0
  9  8  2  0
 10 11  2  0
 10  9  1  0
 11  6  1  0
 12 10  1  0
 14 15  2  0
 14 13  1  0
 16 15  1  0
 17 18  2  0
 17 16  1  0
 18 14  1  0
 19  5  1  0
 19 20  2  0
 21 20  1  0
 22 21  1  0
 23 22  2  0
 23 19  1  0
 24 25  1  0
 24 22  1  0
 26 24  1  0
 27 24  1  0
  1 28  1  1
  2 29  1  0
  2 30  1  0
  3 31  1  0
  3 32  1  0
  4 33  1  0
  4 34  1  0
  5 35  1  6
  6 36  1  0
 12 37  1  0
 12 38  1  0
 13 39  1  0
 13 40  1  0
 17 41  1  0
M  ISO  8  28  13  29  13  30  13  31  13  32  13  33  13  34  13  35  13
M  ISO  4  36  14  39   8  40   8  41  14
M  END
>  <minimizedAffinity>  (1) 
-5.90876722

>  <minimizedRMSD>  (1) 
5.96564674

$$$$
