
     RDKit          3D

 47 51  0  0  0  0  0  0  0  0999 V2000
   36.0150   30.0030   40.9430 C   0  0  0  0  0  0  0  0  0  0  0  0
   38.4460   28.0940   42.6170 C   0  0  0  0  0  0  0  0  0  0  0  0
   37.3620   27.2650   42.7050 C   0  0  0  0  0  0  0  0  0  0  0  0
   36.3070   27.9200   42.0640 C   0  0  0  0  0  0  0  0  0  0  0  0
   36.8370   29.0770   41.6460 N   0  0  0  0  0  0  0  0  0  0  0  0
   38.0880   29.2200   41.9490 N   0  0  0  0  0  0  0  0  0  0  0  0
   41.3440   26.4360   44.2850 C   0  0  0  0  0  0  0  0  0  0  0  0
   40.0530   26.6410   43.7830 C   0  0  0  0  0  0  0  0  0  0  0  0
   39.7740   27.8530   43.1400 C   0  0  0  0  0  0  0  0  0  0  0  0
   40.7470   28.7940   43.0140 N   0  0  0  0  0  0  0  0  0  0  0  0
   41.9850   28.5310   43.5260 C   0  0  0  0  0  0  0  0  0  0  0  0
   42.2780   27.3830   44.1450 N   0  0  0  0  0  0  0  0  0  0  0  0
   43.0650   29.4870   43.4280 C   0  0  0  0  0  0  0  0  0  0  0  0
   43.2730   30.6850   43.9770 C   0  0  0  0  0  0  0  0  0  0  0  0
   44.3950   31.4250   43.7340 C   0  0  0  0  0  0  0  0  0  0  0  0
   45.3350   30.7400   42.7960 C   0  0  0  0  0  0  0  0  0  0  0  0
   44.4470   29.1310   42.4150 S   0  0  0  0  0  0  0  0  0  0  0  0
   35.1530   29.4170   39.8700 C   0  0  0  0  0  0  0  0  0  0  0  0
   35.7810   29.3770   38.5330 C   0  0  0  0  0  0  0  0  0  0  0  0
   37.1070   29.5160   38.2260 C   0  0  0  0  0  0  0  0  0  0  0  0
   37.6410   29.5400   36.9700 C   0  0  0  0  0  0  0  0  0  0  0  0
   36.8090   29.4160   35.8810 C   0  0  0  0  0  0  0  0  0  0  0  0
   35.4570   29.2710   36.1210 C   0  0  0  0  0  0  0  0  0  0  0  0
   34.6790   29.1570   34.9950 C   0  0  0  0  0  0  0  0  0  0  0  0
   33.3220   29.0070   35.1220 C   0  0  0  0  0  0  0  0  0  0  0  0
   32.7630   28.9710   36.3810 C   0  0  0  0  0  0  0  0  0  0  0  0
   33.5930   29.0900   37.4590 C   0  0  0  0  0  0  0  0  0  0  0  0
   34.9380   29.2470   37.4140 C   0  0  0  0  0  0  0  0  0  0  0  0
   32.9710   29.0300   38.6990 O   0  0  0  0  0  0  0  0  0  0  0  0
   35.3572   30.4949   41.6746 H   0  0  0  0  0  0  0  0  0  0  0  0
   36.7052   30.6908   40.4325 H   0  0  0  0  0  0  0  0  0  0  0  0
   37.3273   26.2764   43.1860 H   0  0  0  0  0  0  0  0  0  0  0  0
   35.2741   27.5654   41.9324 H   0  0  0  0  0  0  0  0  0  0  0  0
   41.5907   25.4936   44.7959 H   0  0  0  0  0  0  0  0  0  0  0  0
   39.2771   25.8688   43.8912 H   0  0  0  0  0  0  0  0  0  0  0  0
   42.5086   31.0941   44.6540 H   0  0  0  0  0  0  0  0  0  0  0  0
   44.5850   32.4131   44.1784 H   0  0  0  0  0  0  0  0  0  0  0  0
   46.3075   31.0919   42.4212 H   0  0  0  0  0  0  0  0  0  0  0  0
   34.8960   28.3875   40.1598 H   0  0  0  0  0  0  0  0  0  0  0  0
   34.2734   30.0717   39.7830 H   0  0  0  0  0  0  0  0  0  0  0  0
   37.8069   29.6177   39.0685 H   0  0  0  0  0  0  0  0  0  0  0  0
   38.7257   29.6573   36.8298 H   0  0  0  0  0  0  0  0  0  0  0  0
   37.2069   29.4318   34.8556 H   0  0  0  0  0  0  0  0  0  0  0  0
   35.1416   29.1858   33.9974 H   0  0  0  0  0  0  0  0  0  0  0  0
   32.6866   28.9164   34.2287 H   0  0  0  0  0  0  0  0  0  0  0  0
   31.6778   28.8497   36.5141 H   0  0  0  0  0  0  0  0  0  0  0  0
   33.5084   29.1089   39.5267 H   0  0  0  0  0  0  0  0  0  0  0  0
  1  5  1  0
  2  3  1  0
  2  9  1  0
  4  3  2  0
  5  6  1  0
  5  4  1  0
  6  2  2  0
  8  7  2  0
  9  8  1  0
 10  9  2  0
 10 11  1  0
 11 12  2  0
 12  7  1  0
 13 11  1  0
 13 14  2  0
 15 14  1  0
 16 15  2  0
 17 16  1  0
 17 13  1  0
 18  1  1  0
 19 18  1  0
 20 19  2  0
 21 20  1  0
 22 23  1  0
 22 21  2  0
 23 28  2  0
 24 25  2  0
 24 23  1  0
 25 26  1  0
 26 27  2  0
 27 29  1  0
 28 27  1  0
 28 19  1  0
  1 30  1  0
  1 31  1  0
  3 32  1  0
  4 33  1  0
  7 34  1  0
  8 35  1  0
 14 36  1  0
 15 37  1  0
 16 38  1  0
 18 39  1  0
 18 40  1  0
 20 41  1  0
 21 42  1  0
 22 43  1  0
 24 44  1  0
 25 45  1  0
 26 46  1  0
 29 47  1  0
M  ISO  8  30   8  31   8  32  14  33  14  34  14  35  14  36  14  37  14
M  ISO  8  38  14  39   8  40   8  41  14  42  14  43  14  44  14  45  14
M  ISO  2  46  14  47   3
M  END
>  <minimizedAffinity>  (1) 
-5.98551226

>  <minimizedRMSD>  (1) 
0.418778718

$$$$
