
     RDKit          3D

 26 28  0  0  0  0  0  0  0  0999 V2000
   37.1370   30.1580   40.3500 C   0  0  0  0  0  0  0  0  0  0  0  0
   37.3730   31.5290   40.5160 C   0  0  0  0  0  0  0  0  0  0  0  0
   37.3530   32.3010   39.3560 C   0  0  0  0  0  0  0  0  0  0  0  0
   37.1080   31.6910   38.1400 C   0  0  0  0  0  0  0  0  0  0  0  0
   36.8840   30.3600   38.0250 C   0  0  0  0  0  0  0  0  0  0  0  0
   36.9030   29.6070   39.1430 N   0  0  0  0  0  0  0  0  0  0  0  0
   37.9740   28.8850   43.6860 C   0  0  0  0  0  0  0  0  0  0  0  0
   37.1560   27.7380   43.8040 C   0  0  0  0  0  0  0  0  0  0  0  0
   36.3170   27.4100   42.7260 C   0  0  0  0  0  0  0  0  0  0  0  0
   36.3520   28.2270   41.6370 N   0  0  0  0  0  0  0  0  0  0  0  0
   37.1480   29.3180   41.5550 C   0  0  0  0  0  0  0  0  0  0  0  0
   37.9380   29.6200   42.5810 N   0  0  0  0  0  0  0  0  0  0  0  0
   36.6280   29.6840   36.8030 C   0  0  0  0  0  0  0  0  0  0  0  0
   36.6260   30.2110   35.5130 C   0  0  0  0  0  0  0  0  0  0  0  0
   36.3530   29.3900   34.4500 C   0  0  0  0  0  0  0  0  0  0  0  0
   36.0810   27.9980   34.7650 C   0  0  0  0  0  0  0  0  0  0  0  0
   36.2300   27.9270   36.5890 S   0  0  0  0  0  0  0  0  0  0  0  0
   37.5632   31.9707   41.5053 H   0  0  0  0  0  0  0  0  0  0  0  0
   37.5305   33.3854   39.4075 H   0  0  0  0  0  0  0  0  0  0  0  0
   37.0944   32.3101   37.2309 H   0  0  0  0  0  0  0  0  0  0  0  0
   38.6423   29.1693   44.5122 H   0  0  0  0  0  0  0  0  0  0  0  0
   37.1759   27.1201   44.7138 H   0  0  0  0  0  0  0  0  0  0  0  0
   35.6588   26.5293   42.7601 H   0  0  0  0  0  0  0  0  0  0  0  0
   36.8417   31.2771   35.3492 H   0  0  0  0  0  0  0  0  0  0  0  0
   36.3405   29.7643   33.4157 H   0  0  0  0  0  0  0  0  0  0  0  0
   35.8417   27.1789   34.0708 H   0  0  0  0  0  0  0  0  0  0  0  0
  1  2  2  0
  1 11  1  0
  3  2  1  0
  4  3  2  0
  5  4  1  0
  5  6  2  0
  6  1  1  0
  7  8  2  0
  9  8  1  0
 10  9  2  0
 11 10  1  0
 11 12  2  0
 12  7  1  0
 13  5  1  0
 14 13  2  0
 15 16  2  0
 15 14  1  0
 16 17  1  0
 17 13  1  0
  2 18  1  0
  3 19  1  0
  4 20  1  0
  7 21  1  0
  8 22  1  0
  9 23  1  0
 14 24  1  0
 15 25  1  0
 16 26  1  0
M  ISO  8  18  14  19  14  20  14  21  14  22  14  23  14  24  14  25  14
M  ISO  1  26  14
M  END
>  <minimizedAffinity>  (1) 
-4.40331602

>  <minimizedRMSD>  (1) 
1.26997066

$$$$
