
     RDKit          3D

 37 40  0  0  1  0  0  0  0  0999 V2000
   39.3720   31.8070   39.8840 N   0  0  0  0  0  0  0  0  0  0  0  0
   40.4970   31.0600   39.2710 C   0  0  0  0  0  0  0  0  0  0  0  0
   41.2280   30.2250   40.2730 C   0  0  0  0  0  0  0  0  0  0  0  0
   41.4200   30.9090   41.4670 O   0  0  0  0  0  0  0  0  0  0  0  0
   41.3870   32.2730   41.1830 C   0  0  0  0  0  0  0  0  0  0  0  0
   39.9540   32.7090   40.8160 C   0  0  1  0  0  0  0  0  0  0  0  0
   37.3020   31.5290   38.3580 C   0  0  1  0  0  0  0  0  0  0  0  0
   37.1500   32.8080   39.0830 C   0  0  0  0  0  0  0  0  0  0  0  0
   38.5160   32.3140   38.9000 C   0  0  1  0  0  0  0  0  0  0  0  0
   35.6670   29.3130   40.7980 C   0  0  0  0  0  0  0  0  0  0  0  0
   36.1630   28.0310   40.4350 C   0  0  0  0  0  0  0  0  0  0  0  0
   37.0700   27.9680   39.3500 C   0  0  0  0  0  0  0  0  0  0  0  0
   37.4300   29.1390   38.6990 N   0  0  0  0  0  0  0  0  0  0  0  0
   36.9180   30.3050   39.1010 C   0  0  0  0  0  0  0  0  0  0  0  0
   36.0500   30.4140   40.1320 N   0  0  0  0  0  0  0  0  0  0  0  0
   39.9920   34.0830   40.4790 C   0  0  0  0  0  0  0  0  0  0  0  0
   39.2150   35.2130   40.6650 C   0  0  0  0  0  0  0  0  0  0  0  0
   39.5630   36.4400   40.1810 C   0  0  0  0  0  0  0  0  0  0  0  0
   40.8560   36.4660   39.4290 C   0  0  0  0  0  0  0  0  0  0  0  0
   41.4420   34.7860   39.4810 S   0  0  0  0  0  0  0  0  0  0  0  0
   40.0995   30.4028   38.4836 H   0  0  0  0  0  0  0  0  0  0  0  0
   41.2059   31.7927   38.8580 H   0  0  0  0  0  0  0  0  0  0  0  0
   40.6438   29.3147   40.4732 H   0  0  0  0  0  0  0  0  0  0  0  0
   42.2153   29.9751   39.8574 H   0  0  0  0  0  0  0  0  0  0  0  0
   41.7224   32.8358   42.0666 H   0  0  0  0  0  0  0  0  0  0  0  0
   42.0523   32.4772   40.3311 H   0  0  0  0  0  0  0  0  0  0  0  0
   39.2510   32.6400   41.6592 H   0  0  0  0  0  0  0  0  0  0  0  0
   36.9931   31.1300   37.3806 H   0  0  0  0  0  0  0  0  0  0  0  0
   36.8212   33.7038   38.5358 H   0  0  0  0  0  0  0  0  0  0  0  0
   36.5669   33.1153   39.9636 H   0  0  0  0  0  0  0  0  0  0  0  0
   39.4399   32.7589   38.5020 H   0  0  0  0  0  0  0  0  0  0  0  0
   34.9600   29.4040   41.6357 H   0  0  0  0  0  0  0  0  0  0  0  0
   35.8543   27.1242   40.9757 H   0  0  0  0  0  0  0  0  0  0  0  0
   37.4846   27.0017   39.0268 H   0  0  0  0  0  0  0  0  0  0  0  0
   38.2749   35.1175   41.2282 H   0  0  0  0  0  0  0  0  0  0  0  0
   38.9438   37.3366   40.3313 H   0  0  0  0  0  0  0  0  0  0  0  0
   41.3377   37.3313   38.9502 H   0  0  0  0  0  0  0  0  0  0  0  0
  1  2  1  0
  1  6  1  0
  2  3  1  0
  3  4  1  0
  5  4  1  0
  6  5  1  0
  7  9  1  0
  7  8  1  0
  7 14  1  0
  9  8  1  0
  9  1  1  0
 11 10  2  0
 12 11  1  0
 13 14  1  0
 13 12  2  0
 14 15  2  0
 15 10  1  0
 16 17  2  0
 16  6  1  0
 18 17  1  0
 19 20  1  0
 19 18  2  0
 20 16  1  0
  2 21  1  0
  2 22  1  0
  3 23  1  0
  3 24  1  0
  5 25  1  0
  5 26  1  0
  6 27  1  1
  7 28  1  6
  8 29  1  0
  8 30  1  0
  9 31  1  6
 10 32  1  0
 11 33  1  0
 12 34  1  0
 17 35  1  0
 18 36  1  0
 19 37  1  0
M  ISO  8  21  13  22  13  23  13  24  13  25  13  26  13  27  13  28  13
M  ISO  8  29  13  30  13  31  13  32  14  33  14  34  14  35  14  36  14
M  ISO  1  37  14
M  END
>  <minimizedAffinity>  (1) 
-4.9367528

>  <minimizedRMSD>  (1) 
3.15687108

$$$$
