
     RDKit          3D

 33 35  0  0  1  0  0  0  0  0999 V2000
   37.1280   27.7180   43.0300 C   0  0  2  0  0  0  0  0  0  0  0  0
   38.4560   30.8500   41.7480 N   0  0  0  0  0  0  0  0  0  0  0  0
   39.5080   30.3400   42.4490 C   0  0  0  0  0  0  0  0  0  0  0  0
   39.1610   29.1610   42.9900 N   0  0  0  0  0  0  0  0  0  0  0  0
   37.8860   28.9230   42.6310 C   0  0  0  0  0  0  0  0  0  0  0  0
   37.5040   29.9760   41.8790 N   0  0  0  0  0  0  0  0  0  0  0  0
   37.2070   32.1430   40.0470 C   0  0  0  0  0  0  0  0  0  0  0  0
   38.2560   32.0240   40.9930 C   0  0  0  0  0  0  0  0  0  0  0  0
   39.0970   33.1370   41.1400 C   0  0  0  0  0  0  0  0  0  0  0  0
   38.8370   34.2290   40.3690 N   0  0  0  0  0  0  0  0  0  0  0  0
   37.8390   34.2950   39.4940 C   0  0  0  0  0  0  0  0  0  0  0  0
   37.0030   33.2380   39.3210 N   0  0  0  0  0  0  0  0  0  0  0  0
   36.7070   27.9420   44.4750 C   0  0  0  0  0  0  0  0  0  0  0  0
   37.8560   26.4420   42.8350 C   0  0  0  0  0  0  0  0  0  0  0  0
   37.2300   25.7170   41.6980 C   0  0  0  0  0  0  0  0  0  0  0  0
   36.8180   24.4030   41.6560 C   0  0  0  0  0  0  0  0  0  0  0  0
   36.2490   23.8940   40.5040 C   0  0  0  0  0  0  0  0  0  0  0  0
   36.1180   24.7260   39.4380 N   0  0  0  0  0  0  0  0  0  0  0  0
   36.5130   26.0040   39.4620 C   0  0  0  0  0  0  0  0  0  0  0  0
   37.0730   26.5030   40.6000 N   0  0  0  0  0  0  0  0  0  0  0  0
   36.2549   27.5965   42.3720 H   0  0  0  0  0  0  0  0  0  0  0  0
   40.4915   30.8211   42.5553 H   0  0  0  0  0  0  0  0  0  0  0  0
   36.5291   31.2882   39.9068 H   0  0  0  0  0  0  0  0  0  0  0  0
   39.9356   33.1281   41.8518 H   0  0  0  0  0  0  0  0  0  0  0  0
   37.6886   35.2121   38.9055 H   0  0  0  0  0  0  0  0  0  0  0  0
   37.4750   27.5334   45.1482 H   0  0  0  0  0  0  0  0  0  0  0  0
   36.5927   29.0202   44.6607 H   0  0  0  0  0  0  0  0  0  0  0  0
   35.7490   27.4344   44.6607 H   0  0  0  0  0  0  0  0  0  0  0  0
   38.9127   26.6474   42.6087 H   0  0  0  0  0  0  0  0  0  0  0  0
   37.8034   25.8319   43.7488 H   0  0  0  0  0  0  0  0  0  0  0  0
   36.9419   23.7591   42.5392 H   0  0  0  0  0  0  0  0  0  0  0  0
   35.9127   22.8480   40.4518 H   0  0  0  0  0  0  0  0  0  0  0  0
   36.3876   26.6432   38.5756 H   0  0  0  0  0  0  0  0  0  0  0  0
  1 13  1  0
  2  6  1  0
  2  3  1  0
  3  4  2  0
  5  4  1  0
  5  1  1  0
  6  5  2  0
  7  8  2  0
  8  9  1  0
  8  2  1  0
 10  9  2  0
 11 10  1  0
 12 11  2  0
 12  7  1  0
 14  1  1  0
 15 14  1  0
 16 15  2  0
 17 16  1  0
 18 19  1  0
 18 17  2  0
 19 20  2  0
 20 15  1  0
  1 21  1  6
  3 22  1  0
  7 23  1  0
  9 24  1  0
 11 25  1  0
 13 26  1  0
 13 27  1  0
 13 28  1  0
 14 29  1  0
 14 30  1  0
 16 31  1  0
 17 32  1  0
 19 33  1  0
M  ISO  8  21   8  22  14  23  14  24  14  25  14  26   8  27   8  28   8
M  ISO  5  29   8  30   8  31  14  32  14  33  14
M  END
>  <minimizedAffinity>  (1) 
-5.16314983

>  <minimizedRMSD>  (1) 
1.07565248

$$$$
