
     RDKit          3D

 25 27  0  0  1  0  0  0  0  0999 V2000
   36.2690   30.7650   41.0070 C   0  0  1  0  0  0  0  0  0  0  0  0
   37.1880   31.8500   40.5490 C   0  0  0  0  0  0  0  0  0  0  0  0
   36.6650   30.9040   39.5240 C   0  0  1  0  0  0  0  0  0  0  0  0
   38.6990   28.8500   43.0290 C   0  0  0  0  0  0  0  0  0  0  0  0
   38.0860   27.5690   43.0720 C   0  0  0  0  0  0  0  0  0  0  0  0
   36.8530   27.3880   42.3990 C   0  0  0  0  0  0  0  0  0  0  0  0
   36.3120   28.4400   41.7450 N   0  0  0  0  0  0  0  0  0  0  0  0
   36.9290   29.6520   41.7260 C   0  0  0  0  0  0  0  0  0  0  0  0
   38.1040   29.8610   42.3560 N   0  0  0  0  0  0  0  0  0  0  0  0
   37.5510   29.8840   38.9230 C   0  0  0  0  0  0  0  0  0  0  0  0
   36.9900   28.7860   38.2610 C   0  0  0  0  0  0  0  0  0  0  0  0
   37.9110   27.8820   37.7300 C   0  0  0  0  0  0  0  0  0  0  0  0
   39.2350   28.0260   37.8310 N   0  0  0  0  0  0  0  0  0  0  0  0
   39.7480   29.0900   38.4720 C   0  0  0  0  0  0  0  0  0  0  0  0
   38.8870   29.9790   38.9950 N   0  0  0  0  0  0  0  0  0  0  0  0
   35.3242   30.7187   41.5684 H   0  0  0  0  0  0  0  0  0  0  0  0
   36.8413   32.8939   40.5527 H   0  0  0  0  0  0  0  0  0  0  0  0
   38.1961   32.1744   40.8464 H   0  0  0  0  0  0  0  0  0  0  0  0
   36.1322   31.0154   38.5681 H   0  0  0  0  0  0  0  0  0  0  0  0
   39.6568   29.0194   43.5427 H   0  0  0  0  0  0  0  0  0  0  0  0
   38.5580   26.7371   43.6153 H   0  0  0  0  0  0  0  0  0  0  0  0
   36.3462   26.4117   42.4083 H   0  0  0  0  0  0  0  0  0  0  0  0
   35.9031   28.6459   38.1662 H   0  0  0  0  0  0  0  0  0  0  0  0
   37.5244   27.0003   37.1978 H   0  0  0  0  0  0  0  0  0  0  0  0
   40.8353   29.2283   38.5652 H   0  0  0  0  0  0  0  0  0  0  0  0
  1  8  1  0
  2  1  1  0
  3  2  1  0
  3  1  1  0
  4  5  2  0
  6  5  1  0
  7  6  2  0
  8  7  1  0
  8  9  2  0
  9  4  1  0
 10 15  1  0
 10  3  1  0
 11 10  2  0
 12 13  2  0
 12 11  1  0
 13 14  1  0
 14 15  2  0
  1 16  1  6
  2 17  1  0
  2 18  1  0
  3 19  1  6
  4 20  1  0
  5 21  1  0
  6 22  1  0
 11 23  1  0
 12 24  1  0
 14 25  1  0
M  ISO  8  16  13  17  13  18  13  19  13  20  14  21  14  22  14  23  14
M  ISO  2  24  14  25  14
M  END
>  <minimizedAffinity>  (1) 
-3.93505239

>  <minimizedRMSD>  (1) 
0.733041704

$$$$
