
     RDKit          3D

 44 47  0  0  1  0  0  0  0  0999 V2000
   39.0800   27.6090   42.3110 C   0  0  2  0  0  0  0  0  0  0  0  0
   38.8610   28.8480   43.0020 C   0  0  0  0  0  0  0  0  0  0  0  0
   37.3630   29.1440   42.8370 C   0  0  0  0  0  0  0  0  0  0  0  0
   36.7230   27.8030   42.5070 C   0  0  0  0  0  0  0  0  0  0  0  0
   37.7860   26.7760   42.6770 C   0  0  1  0  0  0  0  0  0  0  0  0
   40.7390   26.7470   44.0300 C   0  0  0  0  0  0  0  0  0  0  0  0
   40.2750   26.8450   42.6610 C   0  0  0  0  0  0  0  0  0  0  0  0
   40.9710   26.2210   41.6600 C   0  0  0  0  0  0  0  0  0  0  0  0
   42.0970   25.5220   42.0330 N   0  0  0  0  0  0  0  0  0  0  0  0
   42.5350   25.4310   43.3360 C   0  0  0  0  0  0  0  0  0  0  0  0
   41.8360   26.0590   44.3500 N   0  0  0  0  0  0  0  0  0  0  0  0
   43.7230   24.6790   43.5970 N   0  0  0  0  0  0  0  0  0  0  0  0
   40.6990   26.2030   40.2490 C   0  0  0  0  0  0  0  0  0  0  0  0
   41.6300   27.0150   39.4230 C   0  0  0  0  0  0  0  0  0  0  0  0
   41.3330   28.3870   39.4160 C   0  0  0  0  0  0  0  0  0  0  0  0
   42.0410   29.3520   38.7320 C   0  0  0  0  0  0  0  0  0  0  0  0
   43.0970   28.9870   38.0110 N   0  0  0  0  0  0  0  0  0  0  0  0
   43.4030   27.6640   38.0040 C   0  0  0  0  0  0  0  0  0  0  0  0
   42.7070   26.7340   38.6710 N   0  0  0  0  0  0  0  0  0  0  0  0
   37.4510   25.7630   41.6330 C   0  0  0  0  0  0  0  0  0  0  0  0
   36.7650   26.1170   40.4970 N   0  0  0  0  0  0  0  0  0  0  0  0
   36.6260   25.0320   39.7710 O   0  0  0  0  0  0  0  0  0  0  0  0
   37.1920   24.0390   40.4090 C   0  0  0  0  0  0  0  0  0  0  0  0
   37.7130   24.4640   41.5670 N   0  0  0  0  0  0  0  0  0  0  0  0
   37.2030   22.6510   39.8330 C   0  0  0  0  0  0  0  0  0  0  0  0
   37.8980   22.6610   38.6480 F   0  0  0  0  0  0  0  0  0  0  0  0
   37.8010   21.7670   40.7100 F   0  0  0  0  0  0  0  0  0  0  0  0
   35.9120   22.2330   39.5610 F   0  0  0  0  0  0  0  0  0  0  0  0
   39.2509   27.8178   41.2446 H   0  0  0  0  0  0  0  0  0  0  0  0
   39.1188   28.7464   44.0665 H   0  0  0  0  0  0  0  0  0  0  0  0
   39.4862   29.6585   42.5993 H   0  0  0  0  0  0  0  0  0  0  0  0
   36.9456   29.5511   43.7698 H   0  0  0  0  0  0  0  0  0  0  0  0
   37.1766   29.8918   42.0521 H   0  0  0  0  0  0  0  0  0  0  0  0
   36.3555   27.8019   41.4702 H   0  0  0  0  0  0  0  0  0  0  0  0
   35.8638   27.5994   43.1630 H   0  0  0  0  0  0  0  0  0  0  0  0
   37.8985   26.2749   43.6498 H   0  0  0  0  0  0  0  0  0  0  0  0
   40.1723   27.2528   44.8256 H   0  0  0  0  0  0  0  0  0  0  0  0
   44.0762   24.5922   44.5606 H   0  0  0  0  0  0  0  0  0  0  0  0
   44.2254   24.2242   42.8214 H   0  0  0  0  0  0  0  0  0  0  0  0
   40.7558   25.1603   39.9031 H   0  0  0  0  0  0  0  0  0  0  0  0
   39.7021   26.6500   40.1208 H   0  0  0  0  0  0  0  0  0  0  0  0
   40.4647   28.7191   40.0041 H   0  0  0  0  0  0  0  0  0  0  0  0
   41.7370   30.4080   38.7819 H   0  0  0  0  0  0  0  0  0  0  0  0
   44.2733   27.3369   37.4162 H   0  0  0  0  0  0  0  0  0  0  0  0
  1  7  1  0
  1  5  1  0
  1  2  1  0
  3  2  1  0
  4  5  1  0
  4  3  1  0
  6 11  2  0
  7  6  1  0
  8  9  1  0
  8  7  2  0
  9 10  2  0
 10 12  1  0
 10 11  1  0
 13  8  1  0
 14 13  1  0
 15 14  2  0
 16 15  1  0
 17 16  2  0
 18 17  1  0
 18 19  2  0
 19 14  1  0
 20  5  1  0
 21 20  2  0
 22 23  1  0
 22 21  1  0
 23 24  2  0
 24 20  1  0
 25 23  1  0
 25 27  1  0
 26 25  1  0
 28 25  1  0
  1 29  1  6
  2 30  1  0
  2 31  1  0
  3 32  1  0
  3 33  1  0
  4 34  1  0
  4 35  1  0
  5 36  1  1
  6 37  1  0
 12 38  1  0
 12 39  1  0
 13 40  1  0
 13 41  1  0
 15 42  1  0
 16 43  1  0
 18 44  1  0
M  ISO  8  29  13  30  13  31  13  32  13  33  13  34  13  35  13  36  13
M  ISO  6  37  14  40   8  41   8  42  14  43  14  44  14
M  END
>  <minimizedAffinity>  (1) 
-5.38892841

>  <minimizedRMSD>  (1) 
5.93933487

$$$$
