
     RDKit          3D

 21 22  0  0  0  0  0  0  0  0999 V2000
   38.9250   29.9400   41.2490 O   0  0  0  0  0  0  0  0  0  0  0  0
   37.0960   32.4360   39.3010 C   0  0  0  0  0  0  0  0  0  0  0  0
   37.7160   33.6020   39.7960 C   0  0  0  0  0  0  0  0  0  0  0  0
   38.7280   33.4320   40.7760 C   0  0  0  0  0  0  0  0  0  0  0  0
   39.0390   32.1650   41.1750 N   0  0  0  0  0  0  0  0  0  0  0  0
   38.4100   31.0820   40.6660 C   0  0  0  0  0  0  0  0  0  0  0  0
   37.4410   31.2190   39.7300 N   0  0  0  0  0  0  0  0  0  0  0  0
   38.1700   29.0610   41.9790 C   0  0  0  0  0  0  0  0  0  0  0  0
   37.5470   28.0100   41.2980 C   0  0  0  0  0  0  0  0  0  0  0  0
   36.7580   27.0680   41.9680 C   0  0  0  0  0  0  0  0  0  0  0  0
   36.6460   27.2550   43.3300 C   0  0  0  0  0  0  0  0  0  0  0  0
   37.2260   28.2610   44.0770 C   0  0  0  0  0  0  0  0  0  0  0  0
   37.9910   29.1550   43.3520 C   0  0  0  0  0  0  0  0  0  0  0  0
   36.3067   32.5314   38.5408 H   0  0  0  0  0  0  0  0  0  0  0  0
   37.4273   34.6011   39.4375 H   0  0  0  0  0  0  0  0  0  0  0  0
   39.2493   34.3010   41.2038 H   0  0  0  0  0  0  0  0  0  0  0  0
   37.6804   27.9217   40.2097 H   0  0  0  0  0  0  0  0  0  0  0  0
   36.2621   26.2369   41.4452 H   0  0  0  0  0  0  0  0  0  0  0  0
   36.0304   26.5267   43.8783 H   0  0  0  0  0  0  0  0  0  0  0  0
   37.0897   28.3445   45.1653 H   0  0  0  0  0  0  0  0  0  0  0  0
   38.4814   29.9804   43.8888 H   0  0  0  0  0  0  0  0  0  0  0  0
  1  8  1  0
  2  7  2  0
  2  3  1  0
  3  4  2  0
  4  5  1  0
  6  5  2  0
  6  1  1  0
  7  6  1  0
  8 13  2  0
  9 10  2  0
  9  8  1  0
 10 11  1  0
 11 12  2  0
 13 12  1  0
  2 14  1  0
  3 15  1  0
  4 16  1  0
  9 17  1  0
 10 18  1  0
 11 19  1  0
 12 20  1  0
 13 21  1  0
M  ISO  8  14  14  15  14  16  14  17  14  18  14  19  14  20  14  21  14
M  END
>  <minimizedAffinity>  (1) 
-4.34624815

>  <minimizedRMSD>  (1) 
5.32783556

$$$$
