
     RDKit          3D

 41 44  0  0  0  0  0  0  0  0999 V2000
   38.0310   29.0560   43.2370 C   0  0  0  0  0  0  0  0  0  0  0  0
   37.9610   27.6800   42.9170 C   0  0  0  0  0  0  0  0  0  0  0  0
   38.5460   27.2850   41.7090 C   0  0  0  0  0  0  0  0  0  0  0  0
   39.1320   28.2130   40.9330 N   0  0  0  0  0  0  0  0  0  0  0  0
   39.1860   29.5230   41.2600 C   0  0  0  0  0  0  0  0  0  0  0  0
   38.6300   29.9420   42.4220 N   0  0  0  0  0  0  0  0  0  0  0  0
   38.5510   25.9550   41.2640 N   0  0  0  0  0  0  0  0  0  0  0  0
   39.7990   30.5120   40.4540 N   0  0  0  0  0  0  0  0  0  0  0  0
   40.3970   30.0840   39.3270 C   0  0  0  0  0  0  0  0  0  0  0  0
   41.0460   30.8830   38.4150 C   0  0  0  0  0  0  0  0  0  0  0  0
   41.0720   32.2330   38.6990 C   0  0  0  0  0  0  0  0  0  0  0  0
   41.6380   33.0470   37.9290 O   0  0  0  0  0  0  0  0  0  0  0  0
   40.4740   32.6580   39.8260 N   0  0  0  0  0  0  0  0  0  0  0  0
   39.8440   31.8440   40.7040 C   0  0  0  0  0  0  0  0  0  0  0  0
   39.2830   32.2110   41.7540 O   0  0  0  0  0  0  0  0  0  0  0  0
   40.4570   34.0370   40.1930 C   0  0  0  0  0  0  0  0  0  0  0  0
   39.3880   34.8230   39.7610 C   0  0  0  0  0  0  0  0  0  0  0  0
   39.3480   36.1390   40.0970 C   0  0  0  0  0  0  0  0  0  0  0  0
   40.3580   36.7070   40.8650 C   0  0  0  0  0  0  0  0  0  0  0  0
   41.4230   35.9220   41.2960 C   0  0  0  0  0  0  0  0  0  0  0  0
   42.4360   36.4660   42.0590 C   0  0  0  0  0  0  0  0  0  0  0  0
   43.4690   35.6830   42.4710 C   0  0  0  0  0  0  0  0  0  0  0  0
   43.5010   34.3660   42.1290 C   0  0  0  0  0  0  0  0  0  0  0  0
   42.5180   33.7350   41.3610 C   0  0  0  0  0  0  0  0  0  0  0  0
   41.4890   34.5700   40.9650 C   0  0  0  0  0  0  0  0  0  0  0  0
   41.6810   30.3210   37.1900 C   0  0  0  0  0  0  0  0  0  0  0  0
   37.5837   29.4106   44.1773 H   0  0  0  0  0  0  0  0  0  0  0  0
   37.4709   26.9563   43.5848 H   0  0  0  0  0  0  0  0  0  0  0  0
   38.9950   25.7139   40.3664 H   0  0  0  0  0  0  0  0  0  0  0  0
   38.1107   25.2193   41.8348 H   0  0  0  0  0  0  0  0  0  0  0  0
   40.3639   29.0046   39.1177 H   0  0  0  0  0  0  0  0  0  0  0  0
   38.5845   34.3810   39.1536 H   0  0  0  0  0  0  0  0  0  0  0  0
   38.5072   36.7618   39.7576 H   0  0  0  0  0  0  0  0  0  0  0  0
   40.3154   37.7735   41.1311 H   0  0  0  0  0  0  0  0  0  0  0  0
   42.4081   37.5308   42.3335 H   0  0  0  0  0  0  0  0  0  0  0  0
   44.2776   36.1136   43.0799 H   0  0  0  0  0  0  0  0  0  0  0  0
   44.3514   33.7618   42.4779 H   0  0  0  0  0  0  0  0  0  0  0  0
   42.5593   32.6684   41.0951 H   0  0  0  0  0  0  0  0  0  0  0  0
   42.4758   29.6175   37.4788 H   0  0  0  0  0  0  0  0  0  0  0  0
   40.9228   29.7927   36.5934 H   0  0  0  0  0  0  0  0  0  0  0  0
   42.1133   31.1378   36.5934 H   0  0  0  0  0  0  0  0  0  0  0  0
  2  1  2  0
  3  2  1  0
  4  5  1  0
  4  3  2  0
  5  6  2  0
  6  1  1  0
  7  3  1  0
  8 14  1  0
  8  5  1  0
  9  8  1  0
 10 11  1  0
 10  9  2  0
 11 13  1  0
 12 11  2  0
 13 16  1  0
 13 14  1  0
 14 15  2  0
 16 25  2  0
 17 18  2  0
 17 16  1  0
 18 19  1  0
 19 20  2  0
 20 21  1  0
 21 22  2  0
 23 22  1  0
 24 23  2  0
 25 20  1  0
 25 24  1  0
 26 10  1  0
  1 27  1  0
  2 28  1  0
  7 29  1  0
  7 30  1  0
  9 31  1  0
 17 32  1  0
 18 33  1  0
 19 34  1  0
 21 35  1  0
 22 36  1  0
 23 37  1  0
 24 38  1  0
 26 39  1  0
 26 40  1  0
 26 41  1  0
M  ISO  8  27  14  28  14  31  14  32  14  33  14  34  14  35  14  36  14
M  ISO  5  37  14  38  14  39   8  40   8  41   8
M  END
>  <minimizedAffinity>  (1) 
-6.83050585

>  <minimizedRMSD>  (1) 
3.15458012

$$$$
