
     RDKit          3D

 46 50  0  0  0  0  0  0  0  0999 V2000
   40.6310   28.3390   38.6880 C   0  0  0  0  0  0  0  0  0  0  0  0
   41.1120   27.7660   39.8560 C   0  0  0  0  0  0  0  0  0  0  0  0
   40.9710   28.4870   41.0280 C   0  0  0  0  0  0  0  0  0  0  0  0
   40.3880   29.6870   41.0070 N   0  0  0  0  0  0  0  0  0  0  0  0
   39.9190   30.2370   39.8430 C   0  0  0  0  0  0  0  0  0  0  0  0
   40.0570   29.5470   38.7370 N   0  0  0  0  0  0  0  0  0  0  0  0
   39.2970   31.5490   39.9020 C   0  0  0  0  0  0  0  0  0  0  0  0
   40.1040   32.7030   39.8910 C   0  0  0  0  0  0  0  0  0  0  0  0
   39.5080   33.9550   39.9480 C   0  0  0  0  0  0  0  0  0  0  0  0
   38.1530   34.0310   40.0120 C   0  0  0  0  0  0  0  0  0  0  0  0
   37.3730   32.8950   40.0210 C   0  0  0  0  0  0  0  0  0  0  0  0
   37.9420   31.6480   39.9650 C   0  0  0  0  0  0  0  0  0  0  0  0
   36.9910   30.5080   39.9830 C   0  0  0  0  0  0  0  0  0  0  0  0
   35.7080   30.8730   40.3590 F   0  0  0  0  0  0  0  0  0  0  0  0
   37.4370   29.4160   40.6930 F   0  0  0  0  0  0  0  0  0  0  0  0
   36.8210   30.0200   38.6650 F   0  0  0  0  0  0  0  0  0  0  0  0
   41.4440   27.9700   42.3080 C   0  0  0  0  0  0  0  0  0  0  0  0
   42.7140   27.9710   42.8360 C   0  0  0  0  0  0  0  0  0  0  0  0
   42.6120   27.3680   44.0580 N   0  0  0  0  0  0  0  0  0  0  0  0
   41.3320   27.0040   44.2870 C   0  0  0  0  0  0  0  0  0  0  0  0
   40.6360   27.3860   43.1960 N   0  0  0  0  0  0  0  0  0  0  0  0
   39.2340   27.1440   43.1150 C   0  0  0  0  0  0  0  0  0  0  0  0
   38.4890   28.1600   43.6790 C   0  0  0  0  0  0  0  0  0  0  0  0
   37.0900   28.1350   43.7130 C   0  0  0  0  0  0  0  0  0  0  0  0
   36.4900   27.0150   43.1390 C   0  0  0  0  0  0  0  0  0  0  0  0
   37.2280   25.9960   42.5740 C   0  0  0  0  0  0  0  0  0  0  0  0
   36.6360   24.8780   42.0010 C   0  0  0  0  0  0  0  0  0  0  0  0
   37.4400   23.8770   41.4440 C   0  0  0  0  0  0  0  0  0  0  0  0
   38.8280   23.9870   41.4540 C   0  0  0  0  0  0  0  0  0  0  0  0
   39.4440   25.1020   42.0250 C   0  0  0  0  0  0  0  0  0  0  0  0
   38.6030   26.0510   42.5570 C   0  0  0  0  0  0  0  0  0  0  0  0
   40.7205   27.8054   37.7302 H   0  0  0  0  0  0  0  0  0  0  0  0
   41.5882   26.7744   39.8505 H   0  0  0  0  0  0  0  0  0  0  0  0
   41.1990   32.6127   39.8376 H   0  0  0  0  0  0  0  0  0  0  0  0
   40.1209   34.8684   39.9415 H   0  0  0  0  0  0  0  0  0  0  0  0
   37.6694   35.0180   40.0575 H   0  0  0  0  0  0  0  0  0  0  0  0
   36.2783   32.9895   40.0738 H   0  0  0  0  0  0  0  0  0  0  0  0
   43.6251   28.3745   42.3701 H   0  0  0  0  0  0  0  0  0  0  0  0
   40.9371   26.4989   45.1809 H   0  0  0  0  0  0  0  0  0  0  0  0
   39.0142   29.0211   44.1179 H   0  0  0  0  0  0  0  0  0  0  0  0
   36.5013   28.9474   44.1640 H   0  0  0  0  0  0  0  0  0  0  0  0
   35.3924   26.9417   43.1367 H   0  0  0  0  0  0  0  0  0  0  0  0
   35.5405   24.7797   41.9850 H   0  0  0  0  0  0  0  0  0  0  0  0
   36.9691   22.9915   40.9923 H   0  0  0  0  0  0  0  0  0  0  0  0
   39.4428   23.1906   41.0093 H   0  0  0  0  0  0  0  0  0  0  0  0
   40.5380   25.2148   42.0480 H   0  0  0  0  0  0  0  0  0  0  0  0
  1  6  2  0
  1  2  1  0
  2  3  2  0
  3 17  1  0
  4  3  1  0
  5  7  1  0
  5  4  2  0
  6  5  1  0
  7 12  1  0
  8  7  2  0
  8  9  1  0
  9 10  2  0
 10 11  1  0
 12 13  1  0
 12 11  2  0
 13 14  1  0
 13 15  1  0
 16 13  1  0
 17 18  2  0
 17 21  1  0
 18 19  1  0
 19 20  2  0
 21 20  1  0
 22 21  1  0
 22 23  2  0
 23 24  1  0
 25 24  2  0
 26 25  1  0
 27 26  2  0
 28 29  2  0
 28 27  1  0
 29 30  1  0
 30 31  2  0
 31 26  1  0
 31 22  1  0
  1 32  1  0
  2 33  1  0
  8 34  1  0
  9 35  1  0
 10 36  1  0
 11 37  1  0
 18 38  1  0
 20 39  1  0
 23 40  1  0
 24 41  1  0
 25 42  1  0
 27 43  1  0
 28 44  1  0
 29 45  1  0
 30 46  1  0
M  END
>  <minimizedAffinity>  (1) 
-7.04157209

>  <minimizedRMSD>  (1) 
5.12759924

$$$$
