
     RDKit          3D

 26 28  0  0  0  0  0  0  0  0999 V2000
   38.5330   28.0380   42.4580 N   0  0  0  0  0  0  0  0  0  0  0  0
   38.4150   26.9080   43.2220 C   0  0  0  0  0  0  0  0  0  0  0  0
   39.6650   26.8220   43.7820 C   0  0  0  0  0  0  0  0  0  0  0  0
   40.4770   27.8160   43.3900 N   0  0  0  0  0  0  0  0  0  0  0  0
   39.7410   28.5900   42.5350 C   0  0  0  0  0  0  0  0  0  0  0  0
   37.0360   29.9080   41.8230 C   0  0  0  0  0  0  0  0  0  0  0  0
   37.4580   28.5660   41.7040 C   0  0  0  0  0  0  0  0  0  0  0  0
   36.7780   27.7080   40.7750 C   0  0  0  0  0  0  0  0  0  0  0  0
   35.7530   28.2440   40.0500 N   0  0  0  0  0  0  0  0  0  0  0  0
   35.3860   29.5680   40.2070 C   0  0  0  0  0  0  0  0  0  0  0  0
   36.0270   30.4100   41.0970 N   0  0  0  0  0  0  0  0  0  0  0  0
   40.4250   29.7050   41.9080 C   0  0  0  0  0  0  0  0  0  0  0  0
   41.1410   30.6280   42.6370 C   0  0  0  0  0  0  0  0  0  0  0  0
   41.8100   31.7110   42.1260 C   0  0  0  0  0  0  0  0  0  0  0  0
   41.7860   31.9230   40.7720 C   0  0  0  0  0  0  0  0  0  0  0  0
   41.0830   31.0190   40.0250 C   0  0  0  0  0  0  0  0  0  0  0  0
   40.4830   30.0240   40.6220 N   0  0  0  0  0  0  0  0  0  0  0  0
   37.5475   26.2444   43.3525 H   0  0  0  0  0  0  0  0  0  0  0  0
   39.9684   26.0249   44.4767 H   0  0  0  0  0  0  0  0  0  0  0  0
   37.5537   30.5653   42.5371 H   0  0  0  0  0  0  0  0  0  0  0  0
   37.0727   26.6554   40.6518 H   0  0  0  0  0  0  0  0  0  0  0  0
   34.5562   29.9647   39.6036 H   0  0  0  0  0  0  0  0  0  0  0  0
   41.1800   30.4840   43.7268 H   0  0  0  0  0  0  0  0  0  0  0  0
   42.3558   32.3968   42.7907 H   0  0  0  0  0  0  0  0  0  0  0  0
   42.3052   32.7759   40.3105 H   0  0  0  0  0  0  0  0  0  0  0  0
   41.0233   31.1285   38.9321 H   0  0  0  0  0  0  0  0  0  0  0  0
  1  5  1  0
  1  2  1  0
  2  3  2  0
  4  3  1  0
  5  4  2  0
  7  6  2  0
  7  1  1  0
  8  7  1  0
  9 10  1  0
  9  8  2  0
 10 11  2  0
 11  6  1  0
 12  5  1  0
 12 13  2  0
 14 13  1  0
 15 14  2  0
 16 17  2  0
 16 15  1  0
 17 12  1  0
  2 18  1  0
  3 19  1  0
  6 20  1  0
  8 21  1  0
 10 22  1  0
 13 23  1  0
 14 24  1  0
 15 25  1  0
 16 26  1  0
M  ISO  8  18  14  19  14  20  14  21  14  22  14  23  14  24  14  25  14
M  ISO  1  26  14
M  END
>  <minimizedAffinity>  (1) 
-3.92608619

>  <minimizedRMSD>  (1) 
0.929713488

$$$$
