
     RDKit          3D

 41 45  0  0  1  0  0  0  0  0999 V2000
   39.7920   26.2570   43.8330 C   0  0  2  0  0  0  0  0  0  0  0  0
   40.8880   25.7850   42.8690 C   0  0  0  0  0  0  0  0  0  0  0  0
   39.6450   24.9840   43.0490 C   0  0  2  0  0  0  0  0  0  0  0  0
   38.6200   24.9000   41.9850 C   0  0  0  0  0  0  0  0  0  0  0  0
   37.5170   24.0810   42.1610 C   0  0  0  0  0  0  0  0  0  0  0  0
   36.6550   24.0750   41.0960 C   0  0  0  0  0  0  0  0  0  0  0  0
   36.7840   24.7610   39.9550 N   0  0  0  0  0  0  0  0  0  0  0  0
   37.8750   25.5450   39.8310 C   0  0  0  0  0  0  0  0  0  0  0  0
   38.7640   25.6030   40.8330 N   0  0  0  0  0  0  0  0  0  0  0  0
   38.1120   26.3380   38.6230 C   0  0  0  0  0  0  0  0  0  0  0  0
   38.5200   25.6750   37.4750 C   0  0  0  0  0  0  0  0  0  0  0  0
   38.7640   26.3300   36.3040 C   0  0  0  0  0  0  0  0  0  0  0  0
   38.5970   27.6960   36.2690 C   0  0  0  0  0  0  0  0  0  0  0  0
   38.1860   28.3380   37.4370 C   0  0  0  0  0  0  0  0  0  0  0  0
   37.9550   27.6650   38.5710 N   0  0  0  0  0  0  0  0  0  0  0  0
   38.4660   29.3230   42.5340 C   0  0  0  0  0  0  0  0  0  0  0  0
   37.4140   28.9170   43.3680 C   0  0  0  0  0  0  0  0  0  0  0  0
   37.8230   27.7200   43.9320 C   0  0  0  0  0  0  0  0  0  0  0  0
   39.0470   27.4430   43.4540 N   0  0  0  0  0  0  0  0  0  0  0  0
   39.4380   28.4000   42.6160 N   0  0  0  0  0  0  0  0  0  0  0  0
   37.1470   31.9660   40.3630 C   0  0  0  0  0  0  0  0  0  0  0  0
   38.1950   32.8930   40.3200 C   0  0  0  0  0  0  0  0  0  0  0  0
   39.3610   32.6000   41.0470 C   0  0  0  0  0  0  0  0  0  0  0  0
   39.4240   31.4430   41.7520 N   0  0  0  0  0  0  0  0  0  0  0  0
   38.3790   30.5620   41.7700 C   0  0  0  0  0  0  0  0  0  0  0  0
   37.2290   30.8250   41.0680 N   0  0  0  0  0  0  0  0  0  0  0  0
   39.7140   26.5123   44.9001 H   0  0  0  0  0  0  0  0  0  0  0  0
   41.8454   25.4128   43.2625 H   0  0  0  0  0  0  0  0  0  0  0  0
   41.4146   26.2261   42.0099 H   0  0  0  0  0  0  0  0  0  0  0  0
   39.4549   23.9303   43.3012 H   0  0  0  0  0  0  0  0  0  0  0  0
   37.3484   23.4892   43.0728 H   0  0  0  0  0  0  0  0  0  0  0  0
   35.7625   23.4388   41.1892 H   0  0  0  0  0  0  0  0  0  0  0  0
   38.6513   24.5834   37.5103 H   0  0  0  0  0  0  0  0  0  0  0  0
   39.0868   25.7795   35.4081 H   0  0  0  0  0  0  0  0  0  0  0  0
   38.7824   28.2650   35.3461 H   0  0  0  0  0  0  0  0  0  0  0  0
   38.0476   29.4292   37.4261 H   0  0  0  0  0  0  0  0  0  0  0  0
   36.4618   29.4406   43.5387 H   0  0  0  0  0  0  0  0  0  0  0  0
   37.2492   27.1072   44.6428 H   0  0  0  0  0  0  0  0  0  0  0  0
   36.2257   32.1787   39.8010 H   0  0  0  0  0  0  0  0  0  0  0  0
   38.1084   33.8210   39.7358 H   0  0  0  0  0  0  0  0  0  0  0  0
   40.2105   33.2988   41.0445 H   0  0  0  0  0  0  0  0  0  0  0  0
  2  3  1  0
  2  1  1  0
  3  1  1  0
  4  5  2  0
  4  3  1  0
  6  5  1  0
  7  6  2  0
  8  7  1  0
  8  9  2  0
  9  4  1  0
 10  8  1  0
 11 10  2  0
 12 11  1  0
 13 12  2  0
 13 14  1  0
 14 15  2  0
 15 10  1  0
 16 20  2  0
 16 17  1  0
 17 18  2  0
 19  1  1  0
 19 18  1  0
 20 19  1  0
 21 26  2  0
 22 21  1  0
 22 23  2  0
 23 24  1  0
 24 25  2  0
 25 16  1  0
 26 25  1  0
  1 27  1  1
  2 28  1  0
  2 29  1  0
  3 30  1  1
  5 31  1  0
  6 32  1  0
 11 33  1  0
 12 34  1  0
 13 35  1  0
 14 36  1  0
 17 37  1  0
 18 38  1  0
 21 39  1  0
 22 40  1  0
 23 41  1  0
M  ISO  8  27  13  28  13  29  13  30  13  31  14  32  14  33  14  34  14
M  ISO  7  35  14  36  14  37  14  38  14  39  14  40  14  41  14
M  END
>  <minimizedAffinity>  (1) 
-5.63920689

>  <minimizedRMSD>  (1) 
0.745147526

$$$$
