
     RDKit          3D

 25 27  0  0  0  0  0  0  0  0999 V2000
   36.8180   31.3050   40.3650 C   0  0  0  0  0  0  0  0  0  0  0  0
   36.8120   31.3950   39.0130 N   0  0  0  0  0  0  0  0  0  0  0  0
   37.6250   32.3710   38.6530 O   0  0  0  0  0  0  0  0  0  0  0  0
   38.1350   32.8880   39.7480 C   0  0  0  0  0  0  0  0  0  0  0  0
   37.6560   32.2510   40.8220 N   0  0  0  0  0  0  0  0  0  0  0  0
   39.0960   34.0100   39.7630 C   0  0  0  0  0  0  0  0  0  0  0  0
   40.4160   33.7260   39.3970 C   0  0  0  0  0  0  0  0  0  0  0  0
   41.2530   34.8240   39.4370 C   0  0  0  0  0  0  0  0  0  0  0  0
   40.8390   36.0900   39.8010 C   0  0  0  0  0  0  0  0  0  0  0  0
   39.5170   36.2750   40.1470 C   0  0  0  0  0  0  0  0  0  0  0  0
   38.6730   35.2360   40.1210 N   0  0  0  0  0  0  0  0  0  0  0  0
   36.1420   30.4530   41.2190 O   0  0  0  0  0  0  0  0  0  0  0  0
   38.1570   28.2070   43.2430 C   0  0  0  0  0  0  0  0  0  0  0  0
   37.8820   26.9900   42.6010 C   0  0  0  0  0  0  0  0  0  0  0  0
   36.9970   27.0330   41.4850 C   0  0  0  0  0  0  0  0  0  0  0  0
   36.4910   28.2430   41.1330 N   0  0  0  0  0  0  0  0  0  0  0  0
   36.7800   29.3720   41.7720 C   0  0  0  0  0  0  0  0  0  0  0  0
   37.6180   29.3690   42.8380 N   0  0  0  0  0  0  0  0  0  0  0  0
   40.7558   32.7215   39.1045 H   0  0  0  0  0  0  0  0  0  0  0  0
   42.3089   34.6819   39.1635 H   0  0  0  0  0  0  0  0  0  0  0  0
   41.5473   36.9315   39.8147 H   0  0  0  0  0  0  0  0  0  0  0  0
   39.1576   37.2716   40.4430 H   0  0  0  0  0  0  0  0  0  0  0  0
   38.8372   28.2097   44.1075 H   0  0  0  0  0  0  0  0  0  0  0  0
   38.3294   26.0454   42.9437 H   0  0  0  0  0  0  0  0  0  0  0  0
   36.7337   26.1207   40.9297 H   0  0  0  0  0  0  0  0  0  0  0  0
  1  5  1  0
  1 12  1  0
  2  1  2  0
  3  2  1  0
  3  4  1  0
  4  6  1  0
  4  5  2  0
  6 11  2  0
  7  8  2  0
  7  6  1  0
  8  9  1  0
  9 10  2  0
 11 10  1  0
 12 17  1  0
 14 13  2  0
 15 14  1  0
 16 15  2  0
 16 17  1  0
 17 18  2  0
 18 13  1  0
  7 19  1  0
  8 20  1  0
  9 21  1  0
 10 22  1  0
 13 23  1  0
 14 24  1  0
 15 25  1  0
M  ISO  7  19  14  20  14  21  14  22  14  23  14  24  14  25  14
M  END
>  <minimizedAffinity>  (1) 
-5.22528505

>  <minimizedRMSD>  (1) 
1.36578953

$$$$
