
     RDKit          3D

 40 44  0  0  1  0  0  0  0  0999 V2000
   36.4540   30.2190   38.1850 C   0  0  0  0  0  0  0  0  0  0  0  0
   36.4970   29.1990   39.1500 C   0  0  0  0  0  0  0  0  0  0  0  0
   37.0150   29.4960   40.4300 C   0  0  0  0  0  0  0  0  0  0  0  0
   37.4350   30.7710   40.6150 N   0  0  0  0  0  0  0  0  0  0  0  0
   37.3890   31.7370   39.6820 C   0  0  0  0  0  0  0  0  0  0  0  0
   36.8960   31.4660   38.4520 N   0  0  0  0  0  0  0  0  0  0  0  0
   37.0690   28.4510   41.4080 C   0  0  0  0  0  0  0  0  0  0  0  0
   37.2430   28.5740   42.7650 C   0  0  0  0  0  0  0  0  0  0  0  0
   37.2410   27.3550   43.3420 N   0  0  0  0  0  0  0  0  0  0  0  0
   37.0680   26.4120   42.3950 C   0  0  0  0  0  0  0  0  0  0  0  0
   36.9870   25.0100   42.4030 C   0  0  0  0  0  0  0  0  0  0  0  0
   36.8030   24.2900   41.2400 C   0  0  0  0  0  0  0  0  0  0  0  0
   36.7020   24.9990   40.0640 C   0  0  0  0  0  0  0  0  0  0  0  0
   36.7770   26.3640   40.0310 C   0  0  0  0  0  0  0  0  0  0  0  0
   36.9620   27.0890   41.1950 C   0  0  0  0  0  0  0  0  0  0  0  0
   37.8760   33.1060   40.0040 C   0  0  1  0  0  0  0  0  0  0  0  0
   38.9680   33.2540   41.0560 C   0  0  0  0  0  0  0  0  0  0  0  0
   39.2500   33.5140   39.6050 C   0  0  1  0  0  0  0  0  0  0  0  0
   40.2440   32.5550   39.0570 C   0  0  0  0  0  0  0  0  0  0  0  0
   40.4880   32.4120   37.7080 C   0  0  0  0  0  0  0  0  0  0  0  0
   41.4550   31.5110   37.2650 C   0  0  0  0  0  0  0  0  0  0  0  0
   42.1790   30.7480   38.1860 C   0  0  0  0  0  0  0  0  0  0  0  0
   41.9060   30.9180   39.5300 C   0  0  0  0  0  0  0  0  0  0  0  0
   40.9650   31.8010   39.9050 N   0  0  0  0  0  0  0  0  0  0  0  0
   36.0499   29.9957   37.1866 H   0  0  0  0  0  0  0  0  0  0  0  0
   36.1341   28.1880   38.9132 H   0  0  0  0  0  0  0  0  0  0  0  0
   37.3658   29.5262   43.3018 H   0  0  0  0  0  0  0  0  0  0  0  0
   37.3541   27.1731   44.3495 H   0  0  0  0  0  0  0  0  0  0  0  0
   37.0722   24.4728   43.3591 H   0  0  0  0  0  0  0  0  0  0  0  0
   36.7395   23.1919   41.2521 H   0  0  0  0  0  0  0  0  0  0  0  0
   36.5565   24.4503   39.1218 H   0  0  0  0  0  0  0  0  0  0  0  0
   36.6894   26.8910   39.0694 H   0  0  0  0  0  0  0  0  0  0  0  0
   36.8715   33.5256   39.8464 H   0  0  0  0  0  0  0  0  0  0  0  0
   38.9370   34.0889   41.7715 H   0  0  0  0  0  0  0  0  0  0  0  0
   39.3990   32.6079   41.8350 H   0  0  0  0  0  0  0  0  0  0  0  0
   39.5827   34.3357   38.9537 H   0  0  0  0  0  0  0  0  0  0  0  0
   39.9191   33.0094   36.9803 H   0  0  0  0  0  0  0  0  0  0  0  0
   41.6489   31.4000   36.1879 H   0  0  0  0  0  0  0  0  0  0  0  0
   42.9442   30.0326   37.8504 H   0  0  0  0  0  0  0  0  0  0  0  0
   42.4538   30.3360   40.2857 H   0  0  0  0  0  0  0  0  0  0  0  0
  1  6  2  0
  1  2  1  0
  2  3  2  0
  3  4  1  0
  3  7  1  0
  5 16  1  0
  5  4  2  0
  6  5  1  0
  7  8  2  0
  8  9  1  0
 10 11  2  0
 10  9  1  0
 12 11  1  0
 13 12  2  0
 14 13  1  0
 14 15  2  0
 15  7  1  0
 15 10  1  0
 16 17  1  0
 18 16  1  0
 18 17  1  0
 19 18  1  0
 19 24  1  0
 20 19  2  0
 21 20  1  0
 21 22  2  0
 22 23  1  0
 23 24  2  0
  1 25  1  0
  2 26  1  0
  8 27  1  0
  9 28  1  0
 11 29  1  0
 12 30  1  0
 13 31  1  0
 14 32  1  0
 16 33  1  1
 17 34  1  0
 17 35  1  0
 18 36  1  1
 20 37  1  0
 21 38  1  0
 22 39  1  0
 23 40  1  0
M  ISO  8  25  14  26  14  27  14  28   9  29  14  30  14  31  14  32  14
M  ISO  8  33  13  34  13  35  13  36  13  37  14  38  14  39  14  40  14
M  END
>  <minimizedAffinity>  (1) 
-5.95504856

>  <minimizedRMSD>  (1) 
2.91242671

$$$$
