
     RDKit          3D

 39 42  0  0  0  0  0  0  0  0999 V2000
   36.8120   31.3190   40.2300 C   0  0  0  0  0  0  0  0  0  0  0  0
   36.9170   31.6430   38.9010 N   0  0  0  0  0  0  0  0  0  0  0  0
   37.7990   32.6120   38.7760 O   0  0  0  0  0  0  0  0  0  0  0  0
   38.2370   32.8930   39.9940 C   0  0  0  0  0  0  0  0  0  0  0  0
   37.6520   32.1180   40.8950 N   0  0  0  0  0  0  0  0  0  0  0  0
   39.2320   33.9210   40.2590 C   0  0  0  0  0  0  0  0  0  0  0  0
   39.0730   35.2860   40.1280 C   0  0  0  0  0  0  0  0  0  0  0  0
   40.2480   35.9140   40.4750 C   0  0  0  0  0  0  0  0  0  0  0  0
   41.1060   34.8960   40.8160 C   0  0  0  0  0  0  0  0  0  0  0  0
   40.4750   33.7740   40.6740 O   0  0  0  0  0  0  0  0  0  0  0  0
   42.4900   35.0680   41.2580 C   0  0  0  0  0  0  0  0  0  0  0  0
   42.7940   35.9330   42.2870 C   0  0  0  0  0  0  0  0  0  0  0  0
   44.1040   36.1120   42.7250 C   0  0  0  0  0  0  0  0  0  0  0  0
   45.0280   35.3630   42.0490 C   0  0  0  0  0  0  0  0  0  0  0  0
   44.7710   34.4860   41.0160 C   0  0  0  0  0  0  0  0  0  0  0  0
   43.4770   34.3650   40.6460 N   0  0  0  0  0  0  0  0  0  0  0  0
   36.0100   30.3560   40.8620 O   0  0  0  0  0  0  0  0  0  0  0  0
   37.7830   28.1790   43.1790 C   0  0  0  0  0  0  0  0  0  0  0  0
   37.6570   26.9560   42.4430 C   0  0  0  0  0  0  0  0  0  0  0  0
   36.9840   26.9930   41.2380 C   0  0  0  0  0  0  0  0  0  0  0  0
   36.4860   28.1810   40.8270 N   0  0  0  0  0  0  0  0  0  0  0  0
   36.6070   29.3050   41.5110 C   0  0  0  0  0  0  0  0  0  0  0  0
   37.2550   29.3250   42.6960 N   0  0  0  0  0  0  0  0  0  0  0  0
   36.9270   25.7010   40.5970 C   0  0  0  0  0  0  0  0  0  0  0  0
   36.9520   24.5260   41.4860 C   0  0  0  0  0  0  0  0  0  0  0  0
   37.8360   23.1190   40.7190 S   0  0  0  0  0  0  0  0  0  0  0  0
   38.1533   35.7917   39.7986 H   0  0  0  0  0  0  0  0  0  0  0  0
   40.4549   36.9944   40.4785 H   0  0  0  0  0  0  0  0  0  0  0  0
   41.9833   36.4950   42.7736 H   0  0  0  0  0  0  0  0  0  0  0  0
   44.3724   36.7962   43.5434 H   0  0  0  0  0  0  0  0  0  0  0  0
   46.0778   35.4707   42.3595 H   0  0  0  0  0  0  0  0  0  0  0  0
   45.5730   33.9179   40.5219 H   0  0  0  0  0  0  0  0  0  0  0  0
   38.3128   28.1848   44.1430 H   0  0  0  0  0  0  0  0  0  0  0  0
   38.0831   26.0170   42.8261 H   0  0  0  0  0  0  0  0  0  0  0  0
   35.9962   25.6584   40.0124 H   0  0  0  0  0  0  0  0  0  0  0  0
   37.8461   25.6323   39.9966 H   0  0  0  0  0  0  0  0  0  0  0  0
   37.4595   24.7982   42.4232 H   0  0  0  0  0  0  0  0  0  0  0  0
   35.9137   24.2170   41.6768 H   0  0  0  0  0  0  0  0  0  0  0  0
   38.3446   22.3096   41.7004 H   0  0  0  0  0  0  0  0  0  0  0  0
  1 17  1  0
  1  5  1  0
  2  1  2  0
  3  2  1  0
  3  4  1  0
  4  6  1  0
  4  5  2  0
  6 10  1  0
  7  6  2  0
  7  8  1  0
  8  9  2  0
  9 11  1  0
 10  9  1  0
 11 12  2  0
 12 13  1  0
 14 13  2  0
 15 14  1  0
 16 15  2  0
 16 11  1  0
 17 22  1  0
 19 18  2  0
 20 19  1  0
 21 20  2  0
 21 22  1  0
 22 23  2  0
 23 18  1  0
 24 20  1  0
 24 25  1  0
 26 25  1  0
  7 27  1  0
  8 28  1  0
 12 29  1  0
 13 30  1  0
 14 31  1  0
 15 32  1  0
 18 33  1  0
 19 34  1  0
 24 35  1  0
 24 36  1  0
 25 37  1  0
 25 38  1  0
 26 39  1  0
M  ISO  8  27  14  28  14  29  14  30  14  31  14  32  14  33  14  34  14
M  ISO  5  35   8  36   8  37   8  38   8  39  11
M  END
>  <minimizedAffinity>  (1) 
-6.32511806

>  <minimizedRMSD>  (1) 
1.49410439

$$$$
