
     RDKit          3D

 30 32  0  0  0  0  0  0  0  0999 V2000
   40.8330   27.5810   43.6500 C   0  0  0  0  0  0  0  0  0  0  0  0
   41.7510   28.4770   43.1580 C   0  0  0  0  0  0  0  0  0  0  0  0
   42.8930   28.3380   43.9300 C   0  0  0  0  0  0  0  0  0  0  0  0
   42.6010   27.3750   44.8300 N   0  0  0  0  0  0  0  0  0  0  0  0
   41.4010   26.9400   44.6600 N   0  0  0  0  0  0  0  0  0  0  0  0
   37.2760   28.2300   42.7580 C   0  0  0  0  0  0  0  0  0  0  0  0
   38.5750   28.4580   43.1970 C   0  0  0  0  0  0  0  0  0  0  0  0
   39.4710   27.4040   43.1760 C   0  0  0  0  0  0  0  0  0  0  0  0
   39.0740   26.1950   42.7330 N   0  0  0  0  0  0  0  0  0  0  0  0
   37.7850   26.0150   42.3090 C   0  0  0  0  0  0  0  0  0  0  0  0
   36.9000   27.0140   42.3200 N   0  0  0  0  0  0  0  0  0  0  0  0
   43.6690   27.0770   45.7520 C   0  0  0  0  0  0  0  0  0  0  0  0
   43.3800   27.1880   47.1760 C   0  0  0  0  0  0  0  0  0  0  0  0
   43.2000   28.5420   47.7850 C   0  0  0  0  0  0  0  0  0  0  0  0
   42.4390   28.5070   49.1030 C   0  0  0  0  0  0  0  0  0  0  0  0
   43.8550   28.8840   49.0880 C   0  0  0  0  0  0  0  0  0  0  0  0
   41.6073   29.1696   42.3156 H   0  0  0  0  0  0  0  0  0  0  0  0
   43.8369   28.8940   43.8307 H   0  0  0  0  0  0  0  0  0  0  0  0
   36.5465   29.0532   42.7687 H   0  0  0  0  0  0  0  0  0  0  0  0
   38.8831   29.4523   43.5525 H   0  0  0  0  0  0  0  0  0  0  0  0
   37.4711   25.0235   41.9507 H   0  0  0  0  0  0  0  0  0  0  0  0
   43.9901   26.0424   45.5608 H   0  0  0  0  0  0  0  0  0  0  0  0
   44.4285   27.8491   45.5595 H   0  0  0  0  0  0  0  0  0  0  0  0
   42.4510   26.6282   47.3590 H   0  0  0  0  0  0  0  0  0  0  0  0
   44.2930   26.8066   47.6566 H   0  0  0  0  0  0  0  0  0  0  0  0
   43.1577   29.0544   46.8126 H   0  0  0  0  0  0  0  0  0  0  0  0
   41.6706   29.2652   49.3143 H   0  0  0  0  0  0  0  0  0  0  0  0
   41.8415   27.7523   49.6354 H   0  0  0  0  0  0  0  0  0  0  0  0
   44.6049   28.2026   49.5163 H   0  0  0  0  0  0  0  0  0  0  0  0
   44.4217   29.7515   49.4572 H   0  0  0  0  0  0  0  0  0  0  0  0
  1  5  2  0
  2  1  1  0
  2  3  2  0
  3  4  1  0
  4 12  1  0
  5  4  1  0
  6  7  2  0
  8  7  1  0
  8  1  1  0
  9  8  2  0
 10 11  2  0
 10  9  1  0
 11  6  1  0
 12 13  1  0
 13 14  1  0
 14 16  1  0
 14 15  1  0
 16 15  1  0
  2 17  1  0
  3 18  1  0
  6 19  1  0
  7 20  1  0
 10 21  1  0
 12 22  1  0
 12 23  1  0
 13 24  1  0
 13 25  1  0
 14 26  1  0
 15 27  1  0
 15 28  1  0
 16 29  1  0
 16 30  1  0
M  ISO  8  17  14  18  14  19  14  20  14  21  14  22   8  23   8  24   8
M  ISO  6  25   8  26  13  27  13  28  13  29  13  30  13
M  END
>  <minimizedAffinity>  (1) 
-4.64414644

>  <minimizedRMSD>  (1) 
7.29006243

$$$$
