
     RDKit          3D

 51 56  0  0  0  0  0  0  0  0999 V2000
   40.0190   30.7150   41.6640 C   0  0  0  0  0  0  0  0  0  0  0  0
   38.8710   31.1460   41.0610 C   0  0  0  0  0  0  0  0  0  0  0  0
   39.0580   32.0180   39.9840 C   0  0  0  0  0  0  0  0  0  0  0  0
   40.2990   32.3640   39.6250 N   0  0  0  0  0  0  0  0  0  0  0  0
   41.3760   31.9310   40.2250 C   0  0  0  0  0  0  0  0  0  0  0  0
   41.2580   31.0690   41.2920 N   0  0  0  0  0  0  0  0  0  0  0  0
   42.6120   32.4080   39.7100 N   0  0  0  0  0  0  0  0  0  0  0  0
   43.7180   31.8590   39.2940 N   0  0  0  0  0  0  0  0  0  0  0  0
   44.5890   32.8070   38.9060 C   0  0  0  0  0  0  0  0  0  0  0  0
   43.9910   34.0140   39.0940 C   0  0  0  0  0  0  0  0  0  0  0  0
   42.7280   33.7520   39.6070 C   0  0  0  0  0  0  0  0  0  0  0  0
   37.5690   30.6780   41.5760 C   0  0  0  0  0  0  0  0  0  0  0  0
   37.4510   29.3000   41.9480 C   0  0  0  0  0  0  0  0  0  0  0  0
   37.6210   28.9560   43.3040 C   0  0  0  0  0  0  0  0  0  0  0  0
   37.5170   27.6640   43.7490 C   0  0  0  0  0  0  0  0  0  0  0  0
   37.2340   26.6710   42.8040 C   0  0  0  0  0  0  0  0  0  0  0  0
   37.0690   26.9920   41.4960 C   0  0  0  0  0  0  0  0  0  0  0  0
   36.7780   26.0060   40.5460 C   0  0  0  0  0  0  0  0  0  0  0  0
   36.6060   26.3170   39.2470 C   0  0  0  0  0  0  0  0  0  0  0  0
   36.7110   27.6340   38.7840 C   0  0  0  0  0  0  0  0  0  0  0  0
   37.0040   28.6140   39.7510 C   0  0  0  0  0  0  0  0  0  0  0  0
   37.1750   28.3060   41.0520 C   0  0  0  0  0  0  0  0  0  0  0  0
   41.8600   34.8010   39.9080 O   0  0  0  0  0  0  0  0  0  0  0  0
   41.9210   35.5730   41.0510 C   0  0  0  0  0  0  0  0  0  0  0  0
   40.8050   36.3260   41.4260 C   0  0  0  0  0  0  0  0  0  0  0  0
   41.0830   36.9970   42.5590 N   0  0  0  0  0  0  0  0  0  0  0  0
   42.3550   36.7010   42.9360 C   0  0  0  0  0  0  0  0  0  0  0  0
   43.1770   37.0720   43.9810 C   0  0  0  0  0  0  0  0  0  0  0  0
   44.4760   36.5840   44.0990 C   0  0  0  0  0  0  0  0  0  0  0  0
   44.9440   35.6960   43.1230 C   0  0  0  0  0  0  0  0  0  0  0  0
   44.1630   35.2920   42.0550 C   0  0  0  0  0  0  0  0  0  0  0  0
   42.8880   35.8150   42.0050 C   0  0  0  0  0  0  0  0  0  0  0  0
   39.9197   30.0274   42.5169 H   0  0  0  0  0  0  0  0  0  0  0  0
   38.1912   32.4163   39.4363 H   0  0  0  0  0  0  0  0  0  0  0  0
   45.6007   32.6373   38.5089 H   0  0  0  0  0  0  0  0  0  0  0  0
   44.4231   35.0030   38.8814 H   0  0  0  0  0  0  0  0  0  0  0  0
   37.3341   31.2790   42.4669 H   0  0  0  0  0  0  0  0  0  0  0  0
   36.8790   30.7944   40.7273 H   0  0  0  0  0  0  0  0  0  0  0  0
   37.8448   29.7516   44.0299 H   0  0  0  0  0  0  0  0  0  0  0  0
   37.6513   27.4159   44.8122 H   0  0  0  0  0  0  0  0  0  0  0  0
   37.1447   25.6224   43.1241 H   0  0  0  0  0  0  0  0  0  0  0  0
   36.6881   24.9576   40.8664 H   0  0  0  0  0  0  0  0  0  0  0  0
   36.3768   25.5145   38.5304 H   0  0  0  0  0  0  0  0  0  0  0  0
   36.5722   27.8889   37.7230 H   0  0  0  0  0  0  0  0  0  0  0  0
   37.0963   29.6636   39.4352 H   0  0  0  0  0  0  0  0  0  0  0  0
   39.8502   36.3642   40.8812 H   0  0  0  0  0  0  0  0  0  0  0  0
   40.4398   37.6289   43.0569 H   0  0  0  0  0  0  0  0  0  0  0  0
   42.7962   37.7711   44.7401 H   0  0  0  0  0  0  0  0  0  0  0  0
   45.1185   36.8887   44.9383 H   0  0  0  0  0  0  0  0  0  0  0  0
   45.9689   35.3058   43.2084 H   0  0  0  0  0  0  0  0  0  0  0  0
   44.5370   34.5948   41.2908 H   0  0  0  0  0  0  0  0  0  0  0  0
  2 12  1  0
  2  1  2  0
  3  2  1  0
  4  3  2  0
  4  5  1  0
  5  6  2  0
  6  1  1  0
  7  5  1  0
  8  7  1  0
  9 10  1  0
  9  8  2  0
 10 11  2  0
 11  7  1  0
 11 23  1  0
 12 13  1  0
 13 14  2  0
 14 15  1  0
 16 15  2  0
 17 16  1  0
 18 17  2  0
 19 18  1  0
 20 19  2  0
 20 21  1  0
 21 22  2  0
 22 17  1  0
 22 13  1  0
 23 24  1  0
 24 25  2  0
 24 32  1  0
 25 26  1  0
 26 27  1  0
 27 28  2  0
 28 29  1  0
 30 29  2  0
 31 30  1  0
 32 31  2  0
 32 27  1  0
  1 33  1  0
  3 34  1  0
  9 35  1  0
 10 36  1  0
 12 37  1  0
 12 38  1  0
 14 39  1  0
 15 40  1  0
 16 41  1  0
 18 42  1  0
 19 43  1  0
 20 44  1  0
 21 45  1  0
 25 46  1  0
 26 47  1  0
 28 48  1  0
 29 49  1  0
 30 50  1  0
 31 51  1  0
M  END
>  <minimizedAffinity>  (1) 
-8.22357655

>  <minimizedRMSD>  (1) 
4.56902456

$$$$
