
     RDKit          3D

 37 40  0  0  0  0  0  0  0  0999 V2000
   37.6200   28.1720   41.4460 C   0  0  0  0  0  0  0  0  0  0  0  0
   36.3830   27.9400   40.8580 C   0  0  0  0  0  0  0  0  0  0  0  0
   35.9530   29.1040   40.3510 N   0  0  0  0  0  0  0  0  0  0  0  0
   36.8310   30.0850   40.5700 C   0  0  0  0  0  0  0  0  0  0  0  0
   36.7580   31.4140   40.2090 C   0  0  0  0  0  0  0  0  0  0  0  0
   37.8340   32.2340   40.5690 C   0  0  0  0  0  0  0  0  0  0  0  0
   38.9160   31.7060   41.2610 C   0  0  0  0  0  0  0  0  0  0  0  0
   38.9770   30.3810   41.6140 C   0  0  0  0  0  0  0  0  0  0  0  0
   37.9110   29.5420   41.2640 C   0  0  0  0  0  0  0  0  0  0  0  0
   39.6400   26.6110   44.0520 C   0  0  0  0  0  0  0  0  0  0  0  0
   40.1230   25.4310   43.4140 C   0  0  0  0  0  0  0  0  0  0  0  0
   39.7370   25.1950   42.0800 C   0  0  0  0  0  0  0  0  0  0  0  0
   38.9330   26.1130   41.5090 N   0  0  0  0  0  0  0  0  0  0  0  0
   38.4870   27.2230   42.1270 C   0  0  0  0  0  0  0  0  0  0  0  0
   38.8380   27.4710   43.3950 N   0  0  0  0  0  0  0  0  0  0  0  0
   34.6860   29.1750   39.6760 C   0  0  0  0  0  0  0  0  0  0  0  0
   34.7820   29.0860   38.1790 C   0  0  0  0  0  0  0  0  0  0  0  0
   33.5280   28.5800   37.5250 C   0  0  0  0  0  0  0  0  0  0  0  0
   33.2330   28.8820   36.0940 C   0  0  0  0  0  0  0  0  0  0  0  0
   32.3530   29.3870   37.2390 C   0  0  0  0  0  0  0  0  0  0  0  0
   35.8531   26.9770   40.8161 H   0  0  0  0  0  0  0  0  0  0  0  0
   35.8912   31.8127   39.6615 H   0  0  0  0  0  0  0  0  0  0  0  0
   37.8223   33.3012   40.3026 H   0  0  0  0  0  0  0  0  0  0  0  0
   39.7494   32.3697   41.5345 H   0  0  0  0  0  0  0  0  0  0  0  0
   39.8457   29.9857   42.1609 H   0  0  0  0  0  0  0  0  0  0  0  0
   39.9257   26.8216   45.0932 H   0  0  0  0  0  0  0  0  0  0  0  0
   40.7775   24.7260   43.9475 H   0  0  0  0  0  0  0  0  0  0  0  0
   40.0757   24.3041   41.5309 H   0  0  0  0  0  0  0  0  0  0  0  0
   34.0582   28.3448   40.0318 H   0  0  0  0  0  0  0  0  0  0  0  0
   34.2580   30.1614   39.9081 H   0  0  0  0  0  0  0  0  0  0  0  0
   34.9996   30.0894   37.7842 H   0  0  0  0  0  0  0  0  0  0  0  0
   35.5795   28.3640   37.9493 H   0  0  0  0  0  0  0  0  0  0  0  0
   33.6704   27.6690   38.1248 H   0  0  0  0  0  0  0  0  0  0  0  0
   32.8712   28.0906   35.4210 H   0  0  0  0  0  0  0  0  0  0  0  0
   33.7757   29.3366   35.2521 H   0  0  0  0  0  0  0  0  0  0  0  0
   32.3444   30.4566   37.4957 H   0  0  0  0  0  0  0  0  0  0  0  0
   31.2834   29.3192   37.4865 H   0  0  0  0  0  0  0  0  0  0  0  0
  1 14  1  0
  2  1  2  0
  3  4  1  0
  3  2  1  0
  4  9  2  0
  5  6  2  0
  5  4  1  0
  6  7  1  0
  7  8  2  0
  9  1  1  0
  9  8  1  0
 11 10  2  0
 12 11  1  0
 13 12  2  0
 13 14  1  0
 14 15  2  0
 15 10  1  0
 16  3  1  0
 17 16  1  0
 18 17  1  0
 19 20  1  0
 19 18  1  0
 20 18  1  0
  2 21  1  0
  5 22  1  0
  6 23  1  0
  7 24  1  0
  8 25  1  0
 10 26  1  0
 11 27  1  0
 12 28  1  0
 16 29  1  0
 16 30  1  0
 17 31  1  0
 17 32  1  0
 18 33  1  0
 19 34  1  0
 19 35  1  0
 20 36  1  0
 20 37  1  0
M  ISO  8  21  14  22  14  23  14  24  14  25  14  26  14  27  14  28  14
M  ISO  8  29   8  30   8  31   8  32   8  33  13  34  13  35  13  36  13
M  ISO  1  37  13
M  END
>  <minimizedAffinity>  (1) 
-4.77916193

>  <minimizedRMSD>  (1) 
0.344728082

$$$$
