
     RDKit          3D

 39 41  0  0  0  0  0  0  0  0999 V2000
   39.5040   27.9630   43.2100 C   0  0  0  0  0  0  0  0  0  0  0  0
   38.4400   27.2950   43.7090 C   0  0  0  0  0  0  0  0  0  0  0  0
   37.2840   27.8800   43.2270 C   0  0  0  0  0  0  0  0  0  0  0  0
   37.7390   28.8970   42.4420 N   0  0  0  0  0  0  0  0  0  0  0  0
   39.0480   28.9380   42.4380 N   0  0  0  0  0  0  0  0  0  0  0  0
   42.6380   26.2400   44.3010 C   0  0  0  0  0  0  0  0  0  0  0  0
   41.2890   26.4720   44.0700 C   0  0  0  0  0  0  0  0  0  0  0  0
   40.8950   27.6600   43.4780 C   0  0  0  0  0  0  0  0  0  0  0  0
   41.8570   28.5660   43.1380 N   0  0  0  0  0  0  0  0  0  0  0  0
   43.1740   28.3020   43.3810 C   0  0  0  0  0  0  0  0  0  0  0  0
   43.5540   27.1540   43.9550 N   0  0  0  0  0  0  0  0  0  0  0  0
   36.7790   29.7690   41.7420 C   0  0  0  0  0  0  0  0  0  0  0  0
   35.8280   28.9910   40.9210 C   0  0  0  0  0  0  0  0  0  0  0  0
   35.2900   29.7140   39.7200 C   0  0  0  0  0  0  0  0  0  0  0  0
   36.4080   30.3490   38.9880 C   0  0  0  0  0  0  0  0  0  0  0  0
   36.6000   30.0160   37.5600 C   0  0  0  0  0  0  0  0  0  0  0  0
   35.9220   28.7360   37.1230 C   0  0  0  0  0  0  0  0  0  0  0  0
   34.4530   29.0210   37.4310 C   0  0  0  0  0  0  0  0  0  0  0  0
   34.3430   28.8890   38.9120 C   0  0  0  0  0  0  0  0  0  0  0  0
   38.4864   26.4295   44.3863 H   0  0  0  0  0  0  0  0  0  0  0  0
   36.2418   27.5923   43.4295 H   0  0  0  0  0  0  0  0  0  0  0  0
   42.9571   25.2984   44.7718 H   0  0  0  0  0  0  0  0  0  0  0  0
   40.5397   25.7187   44.3548 H   0  0  0  0  0  0  0  0  0  0  0  0
   43.9354   29.0447   43.1006 H   0  0  0  0  0  0  0  0  0  0  0  0
   36.2146   30.3480   42.4878 H   0  0  0  0  0  0  0  0  0  0  0  0
   37.3455   30.4326   41.0721 H   0  0  0  0  0  0  0  0  0  0  0  0
   36.3416   28.0832   40.5715 H   0  0  0  0  0  0  0  0  0  0  0  0
   34.9630   28.7809   41.5673 H   0  0  0  0  0  0  0  0  0  0  0  0
   34.6361   30.5381   40.0415 H   0  0  0  0  0  0  0  0  0  0  0  0
   36.2593   31.4372   39.0499 H   0  0  0  0  0  0  0  0  0  0  0  0
   37.3090   29.9525   39.4789 H   0  0  0  0  0  0  0  0  0  0  0  0
   36.1974   30.8427   36.9562 H   0  0  0  0  0  0  0  0  0  0  0  0
   37.6799   29.8665   37.4136 H   0  0  0  0  0  0  0  0  0  0  0  0
   36.2895   27.8742   37.6994 H   0  0  0  0  0  0  0  0  0  0  0  0
   36.1081   28.4774   36.0701 H   0  0  0  0  0  0  0  0  0  0  0  0
   34.1799   30.0374   37.1110 H   0  0  0  0  0  0  0  0  0  0  0  0
   33.7764   28.3344   36.9011 H   0  0  0  0  0  0  0  0  0  0  0  0
   33.3202   29.1743   39.1992 H   0  0  0  0  0  0  0  0  0  0  0  0
   34.6008   27.8430   39.1341 H   0  0  0  0  0  0  0  0  0  0  0  0
  1  8  1  0
  1  2  1  0
  3  2  2  0
  4  3  1  0
  5  4  1  0
  5  1  2  0
  7  6  2  0
  8  7  1  0
  9 10  1  0
  9  8  2  0
 10 11  2  0
 11  6  1  0
 12  4  1  0
 13 12  1  0
 14 13  1  0
 15 14  1  0
 16 15  1  0
 17 18  1  0
 17 16  1  0
 18 19  1  0
 19 14  1  0
  2 20  1  0
  3 21  1  0
  6 22  1  0
  7 23  1  0
 10 24  1  0
 12 25  1  0
 12 26  1  0
 13 27  1  0
 13 28  1  0
 14 29  1  0
 15 30  1  0
 15 31  1  0
 16 32  1  0
 16 33  1  0
 17 34  1  0
 17 35  1  0
 18 36  1  0
 18 37  1  0
 19 38  1  0
 19 39  1  0
M  ISO  8  20  14  21  14  22  14  23  14  24  14  25   8  26   8  27   8
M  ISO  8  28   8  29  13  30  13  31  13  32  13  33  13  34  13  35  13
M  ISO  4  36  13  37  13  38  13  39  13
M  END
>  <minimizedAffinity>  (1) 
-4.73002434

>  <minimizedRMSD>  (1) 
1.38336051

$$$$
