
     RDKit          3D

 58 62  0  0  0  0  0  0  0  0999 V2000
   35.1040   29.0880   40.5000 C   0  0  0  0  0  0  0  0  0  0  0  0
   36.1320   28.2490   40.9560 C   0  0  0  0  0  0  0  0  0  0  0  0
   36.6190   27.2890   40.0250 C   0  0  0  0  0  0  0  0  0  0  0  0
   36.0880   27.2310   38.7860 N   0  0  0  0  0  0  0  0  0  0  0  0
   35.0750   28.0900   38.4030 C   0  0  0  0  0  0  0  0  0  0  0  0
   34.5850   29.0160   39.2620 N   0  0  0  0  0  0  0  0  0  0  0  0
   36.6720   28.3140   42.2270 N   0  0  0  0  0  0  0  0  0  0  0  0
   36.3280   27.5680   43.2900 C   0  0  0  0  0  0  0  0  0  0  0  0
   37.1350   27.9950   44.3150 C   0  0  0  0  0  0  0  0  0  0  0  0
   37.9620   28.9900   43.8750 N   0  0  0  0  0  0  0  0  0  0  0  0
   37.6570   29.1650   42.5910 C   0  0  0  0  0  0  0  0  0  0  0  0
   38.4160   30.1760   41.9270 N   0  0  0  0  0  0  0  0  0  0  0  0
   39.7410   30.3940   42.1970 C   0  0  0  0  0  0  0  0  0  0  0  0
   40.2240   31.4200   41.4220 N   0  0  0  0  0  0  0  0  0  0  0  0
   39.2150   31.8580   40.6570 C   0  0  0  0  0  0  0  0  0  0  0  0
   39.1300   32.8450   39.7160 C   0  0  0  0  0  0  0  0  0  0  0  0
   37.9110   33.0040   39.1340 N   0  0  0  0  0  0  0  0  0  0  0  0
   36.8400   32.2610   39.4400 C   0  0  0  0  0  0  0  0  0  0  0  0
   36.9150   31.2740   40.3780 N   0  0  0  0  0  0  0  0  0  0  0  0
   38.1070   31.0960   40.9670 C   0  0  0  0  0  0  0  0  0  0  0  0
   40.2420   33.6630   39.3560 N   0  0  0  0  0  0  0  0  0  0  0  0
   34.4800   28.0450   37.0570 C   0  0  0  0  0  0  0  0  0  0  0  0
   32.9590   28.1360   37.1400 C   0  0  0  0  0  0  0  0  0  0  0  0
   34.7630   26.7210   36.3980 C   0  0  0  0  0  0  0  0  0  0  0  0
   34.9560   29.1620   36.1970 C   0  0  0  0  0  0  0  0  0  0  0  0
   36.3400   29.6140   36.2550 C   0  0  0  0  0  0  0  0  0  0  0  0
   37.0390   28.8960   35.0830 C   0  0  0  0  0  0  0  0  0  0  0  0
   37.5860   27.5510   35.5560 C   0  0  0  0  0  0  0  0  0  0  0  0
   38.8310   27.8070   36.3930 C   0  0  0  0  0  0  0  0  0  0  0  0
   38.6290   29.1670   37.0220 C   0  0  0  0  0  0  0  0  0  0  0  0
   37.1530   29.2390   37.4480 C   0  0  0  0  0  0  0  0  0  0  0  0
   34.7021   29.8436   41.1911 H   0  0  0  0  0  0  0  0  0  0  0  0
   37.4243   26.5977   40.3141 H   0  0  0  0  0  0  0  0  0  0  0  0
   35.5610   26.7806   43.3305 H   0  0  0  0  0  0  0  0  0  0  0  0
   37.1185   27.5952   45.3396 H   0  0  0  0  0  0  0  0  0  0  0  0
   40.3340   29.8278   42.9303 H   0  0  0  0  0  0  0  0  0  0  0  0
   35.8853   32.4496   38.9271 H   0  0  0  0  0  0  0  0  0  0  0  0
   40.1320   34.3959   38.6407 H   0  0  0  0  0  0  0  0  0  0  0  0
   41.1548   33.5207   39.8114 H   0  0  0  0  0  0  0  0  0  0  0  0
   32.6498   28.1545   38.1955 H   0  0  0  0  0  0  0  0  0  0  0  0
   32.6190   29.0561   36.6422 H   0  0  0  0  0  0  0  0  0  0  0  0
   32.5117   27.2630   36.6422 H   0  0  0  0  0  0  0  0  0  0  0  0
   34.9268   25.9547   37.1700 H   0  0  0  0  0  0  0  0  0  0  0  0
   33.9062   26.4328   35.7713 H   0  0  0  0  0  0  0  0  0  0  0  0
   35.6628   26.8083   35.7713 H   0  0  0  0  0  0  0  0  0  0  0  0
   34.3314   30.0337   36.4417 H   0  0  0  0  0  0  0  0  0  0  0  0
   34.8812   28.7380   35.1848 H   0  0  0  0  0  0  0  0  0  0  0  0
   36.2881   30.7128   36.2551 H   0  0  0  0  0  0  0  0  0  0  0  0
   37.8677   29.5186   34.7147 H   0  0  0  0  0  0  0  0  0  0  0  0
   36.3136   28.7297   34.2730 H   0  0  0  0  0  0  0  0  0  0  0  0
   36.8287   27.0351   36.1646 H   0  0  0  0  0  0  0  0  0  0  0  0
   37.8352   26.9188   34.6910 H   0  0  0  0  0  0  0  0  0  0  0  0
   38.9352   27.0363   37.1710 H   0  0  0  0  0  0  0  0  0  0  0  0
   39.7449   27.7743   35.7816 H   0  0  0  0  0  0  0  0  0  0  0  0
   39.2832   29.2805   37.8990 H   0  0  0  0  0  0  0  0  0  0  0  0
   38.8776   29.9721   36.3149 H   0  0  0  0  0  0  0  0  0  0  0  0
   37.0296   29.9969   38.2356 H   0  0  0  0  0  0  0  0  0  0  0  0
   36.8236   28.2658   37.8409 H   0  0  0  0  0  0  0  0  0  0  0  0
  1  2  2  0
  2  7  1  0
  3  2  1  0
  4  3  2  0
  5  4  1  0
  5  6  2  0
  6  1  1  0
  7 11  1  0
  7  8  1  0
  8  9  2  0
 10  9  1  0
 11 10  2  0
 12 13  1  0
 12 11  1  0
 14 13  2  0
 15 20  2  0
 15 14  1  0
 16 15  1  0
 17 18  1  0
 17 16  2  0
 18 19  2  0
 19 20  1  0
 20 12  1  0
 21 16  1  0
 22 23  1  0
 22  5  1  0
 24 22  1  0
 25 26  1  0
 25 22  1  0
 26 31  1  0
 27 28  1  0
 27 26  1  0
 28 29  1  0
 29 30  1  0
 30 31  1  0
  1 32  1  0
  3 33  1  0
  8 34  1  0
  9 35  1  0
 13 36  1  0
 18 37  1  0
 21 38  1  0
 21 39  1  0
 23 40  1  0
 23 41  1  0
 23 42  1  0
 24 43  1  0
 24 44  1  0
 24 45  1  0
 25 46  1  0
 25 47  1  0
 26 48  1  0
 27 49  1  0
 27 50  1  0
 28 51  1  0
 28 52  1  0
 29 53  1  0
 29 54  1  0
 30 55  1  0
 30 56  1  0
 31 57  1  0
 31 58  1  0
M  ISO  8  32  14  33  14  34  14  35  14  36  14  37  14  40   8  41   8
M  ISO  8  42   8  43   8  44   8  45   8  46   8  47   8  48  13  49  13
M  ISO  8  50  13  51  13  52  13  53  13  54  13  55  13  56  13  57  13
M  ISO  1  58  13
M  END
>  <minimizedAffinity>  (1) 
-6.18253231

>  <minimizedRMSD>  (1) 
0.796234369

$$$$
