
     RDKit          3D

 38 42  0  0  1  0  0  0  0  0999 V2000
   35.8990   30.4800   40.9010 C   0  0  0  0  0  0  0  0  0  0  0  0
   36.6060   29.4190   41.5100 C   0  0  0  0  0  0  0  0  0  0  0  0
   38.0020   29.4710   41.5210 C   0  0  0  0  0  0  0  0  0  0  0  0
   38.5660   30.5540   40.9370 N   0  0  0  0  0  0  0  0  0  0  0  0
   37.8880   31.5550   40.3610 C   0  0  0  0  0  0  0  0  0  0  0  0
   36.5350   31.5120   40.3460 N   0  0  0  0  0  0  0  0  0  0  0  0
   38.7320   28.3850   42.1350 C   0  0  0  0  0  0  0  0  0  0  0  0
   39.8850   28.4550   42.8820 C   0  0  0  0  0  0  0  0  0  0  0  0
   40.2440   27.2150   43.2700 N   0  0  0  0  0  0  0  0  0  0  0  0
   39.3620   26.3130   42.8030 C   0  0  0  0  0  0  0  0  0  0  0  0
   39.2380   24.9330   42.8930 C   0  0  0  0  0  0  0  0  0  0  0  0
   38.1820   24.2430   42.2840 C   0  0  0  0  0  0  0  0  0  0  0  0
   37.2750   25.0050   41.5950 C   0  0  0  0  0  0  0  0  0  0  0  0
   37.3810   26.3640   41.4970 C   0  0  0  0  0  0  0  0  0  0  0  0
   38.4210   27.0430   42.0950 C   0  0  0  0  0  0  0  0  0  0  0  0
   38.6120   32.7160   39.7490 C   0  0  1  0  0  0  0  0  0  0  0  0
   38.9760   33.8750   40.6720 C   0  0  0  0  0  0  0  0  0  0  0  0
   40.0320   32.9550   40.1360 C   0  0  2  0  0  0  0  0  0  0  0  0
   40.9900   33.4680   39.1020 C   0  0  0  0  0  0  0  0  0  0  0  0
   41.5420   34.7470   39.1170 C   0  0  0  0  0  0  0  0  0  0  0  0
   42.3340   34.7290   37.9860 C   0  0  0  0  0  0  0  0  0  0  0  0
   42.2380   33.4880   37.3490 C   0  0  0  0  0  0  0  0  0  0  0  0
   41.4030   32.7750   38.0860 O   0  0  0  0  0  0  0  0  0  0  0  0
   34.7994   30.4540   40.8844 H   0  0  0  0  0  0  0  0  0  0  0  0
   36.0702   28.5726   41.9644 H   0  0  0  0  0  0  0  0  0  0  0  0
   40.4295   29.3794   43.1250 H   0  0  0  0  0  0  0  0  0  0  0  0
   41.0720   26.9910   43.8403 H   0  0  0  0  0  0  0  0  0  0  0  0
   39.9910   24.3650   43.4590 H   0  0  0  0  0  0  0  0  0  0  0  0
   38.0860   23.1495   42.3549 H   0  0  0  0  0  0  0  0  0  0  0  0
   36.4292   24.5035   41.1019 H   0  0  0  0  0  0  0  0  0  0  0  0
   36.6233   26.9258   40.9311 H   0  0  0  0  0  0  0  0  0  0  0  0
   38.0800   32.6067   38.7924 H   0  0  0  0  0  0  0  0  0  0  0  0
   38.9104   34.9116   40.3097 H   0  0  0  0  0  0  0  0  0  0  0  0
   38.6617   34.2085   41.6720 H   0  0  0  0  0  0  0  0  0  0  0  0
   40.8201   32.3393   40.5940 H   0  0  0  0  0  0  0  0  0  0  0  0
   41.3872   35.5600   39.8416 H   0  0  0  0  0  0  0  0  0  0  0  0
   42.9514   35.5697   37.6366 H   0  0  0  0  0  0  0  0  0  0  0  0
   42.7496   33.1713   36.4282 H   0  0  0  0  0  0  0  0  0  0  0  0
  1  2  2  0
  2  3  1  0
  3  7  1  0
  4  3  2  0
  5  4  1  0
  6  5  2  0
  6  1  1  0
  7  8  2  0
  8  9  1  0
 10 11  2  0
 10  9  1  0
 12 11  1  0
 13 12  2  0
 14 13  1  0
 14 15  2  0
 15  7  1  0
 15 10  1  0
 16 18  1  0
 16  5  1  0
 16 17  1  0
 18 17  1  0
 19 20  2  0
 19 18  1  0
 21 20  1  0
 22 21  2  0
 22 23  1  0
 23 19  1  0
  1 24  1  0
  2 25  1  0
  8 26  1  0
  9 27  1  0
 11 28  1  0
 12 29  1  0
 13 30  1  0
 14 31  1  0
 16 32  1  6
 17 33  1  0
 17 34  1  0
 18 35  1  1
 20 36  1  0
 21 37  1  0
 22 38  1  0
M  ISO  8  24  14  25  14  26  14  27   9  28  14  29  14  30  14  31  14
M  ISO  7  32  13  33  13  34  13  35  13  36  14  37  14  38  14
M  END
>  <minimizedAffinity>  (1) 
-5.99069643

>  <minimizedRMSD>  (1) 
0.997146606

$$$$
