
     RDKit          3D

 44 48  0  0  0  0  0  0  0  0999 V2000
   37.5320   30.0820   41.7930 N   0  0  0  0  0  0  0  0  0  0  0  0
   36.3280   30.0250   41.1900 C   0  0  0  0  0  0  0  0  0  0  0  0
   36.2260   30.6970   39.9910 C   0  0  0  0  0  0  0  0  0  0  0  0
   37.2460   31.3970   39.3960 C   0  0  0  0  0  0  0  0  0  0  0  0
   37.1270   31.9950   38.3120 O   0  0  0  0  0  0  0  0  0  0  0  0
   38.4110   31.3880   40.0890 N   0  0  0  0  0  0  0  0  0  0  0  0
   38.5630   30.7490   41.2610 C   0  0  0  0  0  0  0  0  0  0  0  0
   39.6940   30.7940   41.8420 O   0  0  0  0  0  0  0  0  0  0  0  0
   39.5450   32.0950   39.5470 C   0  0  0  0  0  0  0  0  0  0  0  0
   40.6170   31.7020   38.7820 C   0  0  0  0  0  0  0  0  0  0  0  0
   41.4100   32.7550   38.5360 N   0  0  0  0  0  0  0  0  0  0  0  0
   40.8530   33.8460   39.1440 C   0  0  0  0  0  0  0  0  0  0  0  0
   41.2360   35.1670   39.2190 C   0  0  0  0  0  0  0  0  0  0  0  0
   40.5040   36.1070   39.9010 C   0  0  0  0  0  0  0  0  0  0  0  0
   39.3290   35.7320   40.5470 C   0  0  0  0  0  0  0  0  0  0  0  0
   38.9630   34.4000   40.4600 C   0  0  0  0  0  0  0  0  0  0  0  0
   39.6940   33.4440   39.7740 C   0  0  0  0  0  0  0  0  0  0  0  0
   37.7680   29.4150   43.0630 C   0  0  0  0  0  0  0  0  0  0  0  0
   39.4800   26.1370   43.3060 C   0  0  0  0  0  0  0  0  0  0  0  0
   38.7620   25.3710   42.3770 C   0  0  0  0  0  0  0  0  0  0  0  0
   37.7230   25.9560   41.6850 C   0  0  0  0  0  0  0  0  0  0  0  0
   37.4450   27.2460   41.9380 N   0  0  0  0  0  0  0  0  0  0  0  0
   38.1490   27.9880   42.8470 C   0  0  0  0  0  0  0  0  0  0  0  0
   39.1390   27.4100   43.4980 N   0  0  0  0  0  0  0  0  0  0  0  0
   36.9600   25.1820   40.7120 C   0  0  0  0  0  0  0  0  0  0  0  0
   36.5050   23.8920   40.8950 C   0  0  0  0  0  0  0  0  0  0  0  0
   35.8470   23.5960   39.7110 C   0  0  0  0  0  0  0  0  0  0  0  0
   35.9360   24.7150   38.8760 C   0  0  0  0  0  0  0  0  0  0  0  0
   36.6130   25.6290   39.5300 O   0  0  0  0  0  0  0  0  0  0  0  0
   35.4804   29.4768   41.6271 H   0  0  0  0  0  0  0  0  0  0  0  0
   35.2561   30.6705   39.4728 H   0  0  0  0  0  0  0  0  0  0  0  0
   40.7974   30.6773   38.4250 H   0  0  0  0  0  0  0  0  0  0  0  0
   42.2819   32.7441   37.9877 H   0  0  0  0  0  0  0  0  0  0  0  0
   42.1618   35.4800   38.7142 H   0  0  0  0  0  0  0  0  0  0  0  0
   40.8444   37.1524   39.9370 H   0  0  0  0  0  0  0  0  0  0  0  0
   38.7195   36.4610   41.1012 H   0  0  0  0  0  0  0  0  0  0  0  0
   38.0386   34.0823   40.9646 H   0  0  0  0  0  0  0  0  0  0  0  0
   38.5817   29.9294   43.5952 H   0  0  0  0  0  0  0  0  0  0  0  0
   36.8427   29.4479   43.6569 H   0  0  0  0  0  0  0  0  0  0  0  0
   40.3140   25.6925   43.8689 H   0  0  0  0  0  0  0  0  0  0  0  0
   39.0242   24.3171   42.2025 H   0  0  0  0  0  0  0  0  0  0  0  0
   36.6345   23.2473   41.7768 H   0  0  0  0  0  0  0  0  0  0  0  0
   35.3435   22.6480   39.4705 H   0  0  0  0  0  0  0  0  0  0  0  0
   35.5177   24.8104   37.8631 H   0  0  0  0  0  0  0  0  0  0  0  0
  1 18  1  0
  2  1  1  0
  3  2  2  0
  4  3  1  0
  4  6  1  0
  5  4  2  0
  6  7  1  0
  7  1  1  0
  7  8  2  0
  9 17  1  0
  9  6  1  0
 10  9  2  0
 11 10  1  0
 11 12  1  0
 12 13  2  0
 12 17  1  0
 13 14  1  0
 14 15  2  0
 16 15  1  0
 17 16  2  0
 19 24  2  0
 20 19  1  0
 21 22  1  0
 21 20  2  0
 22 23  2  0
 23 18  1  0
 23 24  1  0
 25 26  2  0
 25 21  1  0
 27 26  1  0
 28 29  1  0
 28 27  2  0
 29 25  1  0
  2 30  1  0
  3 31  1  0
 10 32  1  0
 11 33  1  0
 13 34  1  0
 14 35  1  0
 15 36  1  0
 16 37  1  0
 18 38  1  0
 18 39  1  0
 19 40  1  0
 20 41  1  0
 26 42  1  0
 27 43  1  0
 28 44  1  0
M  END
>  <minimizedAffinity>  (1) 
-7.01114655

>  <minimizedRMSD>  (1) 
1.14868188

$$$$
