
     RDKit          3D

 47 51  0  0  0  0  0  0  0  0999 V2000
   36.1270   30.0700   41.0980 C   0  0  0  0  0  0  0  0  0  0  0  0
   38.6130   28.1670   42.6950 C   0  0  0  0  0  0  0  0  0  0  0  0
   37.5430   27.3220   42.7840 C   0  0  0  0  0  0  0  0  0  0  0  0
   36.4690   27.9730   42.1700 C   0  0  0  0  0  0  0  0  0  0  0  0
   36.9760   29.1450   41.7680 N   0  0  0  0  0  0  0  0  0  0  0  0
   38.2330   29.3070   42.0520 N   0  0  0  0  0  0  0  0  0  0  0  0
   41.5550   26.5340   44.2980 C   0  0  0  0  0  0  0  0  0  0  0  0
   40.2520   26.7210   43.8250 C   0  0  0  0  0  0  0  0  0  0  0  0
   39.9560   27.9390   43.1910 C   0  0  0  0  0  0  0  0  0  0  0  0
   40.9180   28.8950   43.0510 N   0  0  0  0  0  0  0  0  0  0  0  0
   42.1770   28.6330   43.5450 C   0  0  0  0  0  0  0  0  0  0  0  0
   42.4790   27.4880   44.1480 N   0  0  0  0  0  0  0  0  0  0  0  0
   43.2310   29.6350   43.4120 C   0  0  0  0  0  0  0  0  0  0  0  0
   42.8790   30.9640   43.6730 C   0  0  0  0  0  0  0  0  0  0  0  0
   44.0420   31.7020   43.4780 C   0  0  0  0  0  0  0  0  0  0  0  0
   45.0290   30.7840   43.1120 C   0  0  0  0  0  0  0  0  0  0  0  0
   44.4870   29.6020   43.0930 O   0  0  0  0  0  0  0  0  0  0  0  0
   35.2460   29.4930   40.0370 C   0  0  0  0  0  0  0  0  0  0  0  0
   35.8640   29.4160   38.6940 C   0  0  0  0  0  0  0  0  0  0  0  0
   37.1860   29.5470   38.3760 C   0  0  0  0  0  0  0  0  0  0  0  0
   37.7130   29.5340   37.1170 C   0  0  0  0  0  0  0  0  0  0  0  0
   36.8720   29.3770   36.0360 C   0  0  0  0  0  0  0  0  0  0  0  0
   35.5130   29.2360   36.2870 C   0  0  0  0  0  0  0  0  0  0  0  0
   34.7310   29.0850   35.1760 C   0  0  0  0  0  0  0  0  0  0  0  0
   33.3820   28.9350   35.3230 C   0  0  0  0  0  0  0  0  0  0  0  0
   32.8300   28.9370   36.5800 C   0  0  0  0  0  0  0  0  0  0  0  0
   33.6670   29.0930   37.6450 C   0  0  0  0  0  0  0  0  0  0  0  0
   35.0160   29.2530   37.5820 C   0  0  0  0  0  0  0  0  0  0  0  0
   33.0540   29.0700   38.8970 O   0  0  0  0  0  0  0  0  0  0  0  0
   35.4813   30.5433   41.8524 H   0  0  0  0  0  0  0  0  0  0  0  0
   36.7982   30.7713   40.5806 H   0  0  0  0  0  0  0  0  0  0  0  0
   37.5293   26.3247   43.2479 H   0  0  0  0  0  0  0  0  0  0  0  0
   35.4398   27.6053   42.0453 H   0  0  0  0  0  0  0  0  0  0  0  0
   41.8221   25.5917   44.7988 H   0  0  0  0  0  0  0  0  0  0  0  0
   39.4856   25.9412   43.9454 H   0  0  0  0  0  0  0  0  0  0  0  0
   41.8907   31.3449   43.9699 H   0  0  0  0  0  0  0  0  0  0  0  0
   44.1605   32.7899   43.5896 H   0  0  0  0  0  0  0  0  0  0  0  0
   46.0784   31.0191   42.8809 H   0  0  0  0  0  0  0  0  0  0  0  0
   34.9631   28.4750   40.3428 H   0  0  0  0  0  0  0  0  0  0  0  0
   34.3856   30.1720   39.9445 H   0  0  0  0  0  0  0  0  0  0  0  0
   37.8904   29.6747   39.2111 H   0  0  0  0  0  0  0  0  0  0  0  0
   38.7967   29.6475   36.9666 H   0  0  0  0  0  0  0  0  0  0  0  0
   37.2642   29.3638   35.0084 H   0  0  0  0  0  0  0  0  0  0  0  0
   35.1841   29.0844   34.1736 H   0  0  0  0  0  0  0  0  0  0  0  0
   32.7401   28.8131   34.4381 H   0  0  0  0  0  0  0  0  0  0  0  0
   31.7461   28.8165   36.7235 H   0  0  0  0  0  0  0  0  0  0  0  0
   33.5985   29.1772   39.7168 H   0  0  0  0  0  0  0  0  0  0  0  0
  1  5  1  0
  2  3  1  0
  2  9  1  0
  4  3  2  0
  5  6  1  0
  5  4  1  0
  6  2  2  0
  8  7  2  0
  9  8  1  0
 10  9  2  0
 10 11  1  0
 11 12  2  0
 12  7  1  0
 13 11  1  0
 13 14  2  0
 15 14  1  0
 16 15  2  0
 17 16  1  0
 17 13  1  0
 18  1  1  0
 19 18  1  0
 20 19  2  0
 21 20  1  0
 22 23  1  0
 22 21  2  0
 23 28  2  0
 24 25  2  0
 24 23  1  0
 25 26  1  0
 26 27  2  0
 27 29  1  0
 28 27  1  0
 28 19  1  0
  1 30  1  0
  1 31  1  0
  3 32  1  0
  4 33  1  0
  7 34  1  0
  8 35  1  0
 14 36  1  0
 15 37  1  0
 16 38  1  0
 18 39  1  0
 18 40  1  0
 20 41  1  0
 21 42  1  0
 22 43  1  0
 24 44  1  0
 25 45  1  0
 26 46  1  0
 29 47  1  0
M  ISO  8  30   8  31   8  32  14  33  14  34  14  35  14  36  14  37  14
M  ISO  8  38  14  39   8  40   8  41  14  42  14  43  14  44  14  45  14
M  ISO  2  46  14  47   3
M  END
>  <minimizedAffinity>  (1) 
-6.02522135

>  <minimizedRMSD>  (1) 
0.597047091

$$$$
