
     RDKit          3D

 16 16  0  0  0  0  0  0  0  0999 V2000
   38.2300   29.3200   43.0650 C   0  0  0  0  0  0  0  0  0  0  0  0
   37.5350   29.7390   41.9140 C   0  0  0  0  0  0  0  0  0  0  0  0
   36.5220   28.8930   41.4480 C   0  0  0  0  0  0  0  0  0  0  0  0
   36.2790   27.7490   42.1180 N   0  0  0  0  0  0  0  0  0  0  0  0
   36.9600   27.3720   43.2180 C   0  0  0  0  0  0  0  0  0  0  0  0
   37.9390   28.1700   43.6860 N   0  0  0  0  0  0  0  0  0  0  0  0
   37.8040   30.9730   41.1970 C   0  0  0  0  0  0  0  0  0  0  0  0
   38.8520   31.6560   41.3390 O   0  0  0  0  0  0  0  0  0  0  0  0
   36.7900   31.3580   40.3160 O   0  0  0  0  0  0  0  0  0  0  0  0
   37.0700   32.4650   39.4920 C   0  0  0  0  0  0  0  0  0  0  0  0
   37.3110   32.4380   38.2590 O   0  0  0  0  0  0  0  0  0  0  0  0
   37.1060   33.7660   39.9900 O   0  0  0  0  0  0  0  0  0  0  0  0
   39.0342   29.9551   43.4649 H   0  0  0  0  0  0  0  0  0  0  0  0
   35.9369   29.1560   40.5544 H   0  0  0  0  0  0  0  0  0  0  0  0
   36.7199   26.4265   43.7263 H   0  0  0  0  0  0  0  0  0  0  0  0
   37.3060   34.5227   39.3838 H   0  0  0  0  0  0  0  0  0  0  0  0
  1  6  2  0
  2  1  1  0
  3  2  2  0
  3  4  1  0
  4  5  2  0
  5  6  1  0
  7  8  2  0
  7  2  1  0
  9  7  1  0
 10 12  1  0
 10  9  1  0
 11 10  2  0
  1 13  1  0
  3 14  1  0
  5 15  1  0
 12 16  1  0
M  ISO  4  13  14  14  14  15  14  16   3
M  END
>  <minimizedAffinity>  (1) 
-3.72999573

>  <minimizedRMSD>  (1) 
1.54885304

$$$$
