
     RDKit          3D

 34 37  0  0  0  0  0  0  0  0999 V2000
   38.1870   32.8390   39.7770 C   0  0  0  0  0  0  0  0  0  0  0  0
   39.5820   32.8810   40.0740 C   0  0  0  0  0  0  0  0  0  0  0  0
   40.2000   34.0960   40.2510 C   0  0  0  0  0  0  0  0  0  0  0  0
   39.4200   35.2020   40.1260 N   0  0  0  0  0  0  0  0  0  0  0  0
   38.0980   35.1460   39.8430 C   0  0  0  0  0  0  0  0  0  0  0  0
   37.4820   33.9670   39.6680 N   0  0  0  0  0  0  0  0  0  0  0  0
   41.6190   34.2760   40.5600 C   0  0  0  0  0  0  0  0  0  0  0  0
   42.8090   33.8930   40.2300 N   0  0  0  0  0  0  0  0  0  0  0  0
   43.7250   34.4670   40.9340 O   0  0  0  0  0  0  0  0  0  0  0  0
   43.2100   35.2870   41.7970 C   0  0  0  0  0  0  0  0  0  0  0  0
   41.9160   35.1550   41.5520 N   0  0  0  0  0  0  0  0  0  0  0  0
   43.7680   36.1370   42.7780 N   0  0  0  0  0  0  0  0  0  0  0  0
   45.0770   36.2910   43.0130 C   0  0  0  0  0  0  0  0  0  0  0  0
   45.2450   37.1850   44.0220 N   0  0  0  0  0  0  0  0  0  0  0  0
   44.0210   37.5770   44.4010 C   0  0  0  0  0  0  0  0  0  0  0  0
   43.0820   36.9340   43.6360 N   0  0  0  0  0  0  0  0  0  0  0  0
   40.2450   31.5950   40.1640 C   0  0  0  0  0  0  0  0  0  0  0  0
   40.7880   31.0420   38.9480 C   0  0  0  0  0  0  0  0  0  0  0  0
   41.5320   29.4420   39.4610 S   0  0  0  0  0  0  0  0  0  0  0  0
   40.9600   29.8170   41.2790 C   0  0  0  0  0  0  0  0  0  0  0  0
   40.4560   30.8050   41.1770 N   0  0  0  0  0  0  0  0  0  0  0  0
   41.2470   28.7350   42.6930 S   0  0  0  0  0  0  0  0  0  0  0  0
   39.6280   27.9500   43.0510 C   0  0  0  0  0  0  0  0  0  0  0  0
   39.8470   26.6910   43.8870 C   0  0  0  0  0  0  0  0  0  0  0  0
   37.6884   31.8686   39.6367 H   0  0  0  0  0  0  0  0  0  0  0  0
   37.5212   36.0786   39.7553 H   0  0  0  0  0  0  0  0  0  0  0  0
   45.8868   35.7761   42.4752 H   0  0  0  0  0  0  0  0  0  0  0  0
   43.8036   38.3009   45.2002 H   0  0  0  0  0  0  0  0  0  0  0  0
   40.7626   31.4799   37.9392 H   0  0  0  0  0  0  0  0  0  0  0  0
   38.9940   28.6549   43.6088 H   0  0  0  0  0  0  0  0  0  0  0  0
   39.1336   27.6813   42.1058 H   0  0  0  0  0  0  0  0  0  0  0  0
   39.8023   26.9481   44.9556 H   0  0  0  0  0  0  0  0  0  0  0  0
   39.0634   25.9551   43.6538 H   0  0  0  0  0  0  0  0  0  0  0  0
   40.8331   26.2629   43.6538 H   0  0  0  0  0  0  0  0  0  0  0  0
  1  2  2  0
  2 17  1  0
  2  3  1  0
  3  7  1  0
  4  3  2  0
  5  4  1  0
  6  1  1  0
  6  5  2  0
  7 11  1  0
  8  7  2  0
  8  9  1  0
  9 10  1  0
 10 12  1  0
 11 10  2  0
 12 13  1  0
 12 16  1  0
 13 14  2  0
 14 15  1  0
 16 15  2  0
 17 21  1  0
 18 19  1  0
 18 17  2  0
 19 20  1  0
 20 22  1  0
 21 20  2  0
 22 23  1  0
 23 24  1  0
  1 25  1  0
  5 26  1  0
 13 27  1  0
 15 28  1  0
 18 29  1  0
 23 30  1  0
 23 31  1  0
 24 32  1  0
 24 33  1  0
 24 34  1  0
M  ISO  8  25  14  26  14  27  14  28  14  29  14  30   8  31   8  32   8
M  ISO  2  33   8  34   8
M  END
>  <minimizedAffinity>  (1) 
-5.51812935

>  <minimizedRMSD>  (1) 
3.48670077

$$$$
