
     RDKit          3D

 32 34  0  0  0  0  0  0  0  0999 V2000
   38.1520   28.1030   43.2850 C   0  0  0  0  0  0  0  0  0  0  0  0
   37.9310   26.9050   42.5360 C   0  0  0  0  0  0  0  0  0  0  0  0
   37.1090   26.9700   41.4270 C   0  0  0  0  0  0  0  0  0  0  0  0
   36.5650   28.1640   41.1190 N   0  0  0  0  0  0  0  0  0  0  0  0
   36.7670   29.2730   41.8070 C   0  0  0  0  0  0  0  0  0  0  0  0
   37.5660   29.2590   42.9030 N   0  0  0  0  0  0  0  0  0  0  0  0
   36.9700   25.6910   40.7700 C   0  0  0  0  0  0  0  0  0  0  0  0
   37.0820   24.4940   41.6180 C   0  0  0  0  0  0  0  0  0  0  0  0
   37.8490   23.0960   40.7180 S   0  0  0  0  0  0  0  0  0  0  0  0
   36.0960   30.3330   41.2700 O   0  0  0  0  0  0  0  0  0  0  0  0
   36.7750   31.2190   40.4180 C   0  0  0  0  0  0  0  0  0  0  0  0
   36.7360   31.3400   39.0490 N   0  0  0  0  0  0  0  0  0  0  0  0
   37.5450   32.3130   38.6990 O   0  0  0  0  0  0  0  0  0  0  0  0
   38.0770   32.7940   39.7880 C   0  0  0  0  0  0  0  0  0  0  0  0
   37.6260   32.1420   40.8680 N   0  0  0  0  0  0  0  0  0  0  0  0
   39.0330   33.8920   39.8120 C   0  0  0  0  0  0  0  0  0  0  0  0
   38.8650   35.1540   40.3350 C   0  0  0  0  0  0  0  0  0  0  0  0
   39.9940   35.9090   40.1670 C   0  0  0  0  0  0  0  0  0  0  0  0
   40.8650   35.0480   39.5160 C   0  0  0  0  0  0  0  0  0  0  0  0
   40.2660   33.9200   39.3410 O   0  0  0  0  0  0  0  0  0  0  0  0
   42.2000   35.3230   39.0930 N   0  0  0  0  0  0  0  0  0  0  0  0
   38.8001   28.0834   44.1736 H   0  0  0  0  0  0  0  0  0  0  0  0
   38.4027   25.9572   42.8346 H   0  0  0  0  0  0  0  0  0  0  0  0
   35.9797   25.6685   40.2917 H   0  0  0  0  0  0  0  0  0  0  0  0
   37.8196   25.6311   40.0739 H   0  0  0  0  0  0  0  0  0  0  0  0
   37.7001   24.7352   42.4954 H   0  0  0  0  0  0  0  0  0  0  0  0
   36.0685   24.1922   41.9208 H   0  0  0  0  0  0  0  0  0  0  0  0
   38.3457   22.1907   41.6184 H   0  0  0  0  0  0  0  0  0  0  0  0
   37.9453   35.5087   40.8232 H   0  0  0  0  0  0  0  0  0  0  0  0
   40.1690   36.9504   40.4749 H   0  0  0  0  0  0  0  0  0  0  0  0
   42.7494   34.5943   38.6155 H   0  0  0  0  0  0  0  0  0  0  0  0
   42.6141   36.2502   39.2652 H   0  0  0  0  0  0  0  0  0  0  0  0
  2  1  2  0
  3  2  1  0
  4  3  2  0
  4  5  1  0
  5  6  2  0
  6  1  1  0
  7  3  1  0
  7  8  1  0
  9  8  1  0
 10  5  1  0
 11 15  1  0
 11 10  1  0
 12 11  2  0
 13 12  1  0
 13 14  1  0
 14 16  1  0
 14 15  2  0
 16 17  2  0
 18 17  1  0
 19 18  2  0
 20 19  1  0
 20 16  1  0
 21 19  1  0
  1 22  1  0
  2 23  1  0
  7 24  1  0
  7 25  1  0
  8 26  1  0
  8 27  1  0
  9 28  1  0
 17 29  1  0
 18 30  1  0
 21 31  1  0
 21 32  1  0
M  ISO  8  22  14  23  14  24   8  25   8  26   8  27   8  28  11  29  14
M  ISO  1  30  14
M  END
>  <minimizedAffinity>  (1) 
-5.5826602

>  <minimizedRMSD>  (1) 
0.146302968

$$$$
