
     RDKit          3D

 14 14  0  0  0  0  0  0  0  0999 V2000
   38.5420   28.8030   43.2750 C   0  0  0  0  0  0  0  0  0  0  0  0
   39.4210   27.8260   42.7750 C   0  0  0  0  0  0  0  0  0  0  0  0
   38.9080   26.5900   42.4140 C   0  0  0  0  0  0  0  0  0  0  0  0
   37.5590   26.3930   42.5680 N   0  0  0  0  0  0  0  0  0  0  0  0
   36.7500   27.3520   43.0490 C   0  0  0  0  0  0  0  0  0  0  0  0
   37.2320   28.5450   43.3990 N   0  0  0  0  0  0  0  0  0  0  0  0
   39.7810   25.6580   41.9330 O   0  0  0  0  0  0  0  0  0  0  0  0
   40.4870   24.8090   42.7780 C   0  0  0  0  0  0  0  0  0  0  0  0
   39.6700   24.0840   43.4310 O   0  0  0  0  0  0  0  0  0  0  0  0
   41.8590   24.6890   42.9580 O   0  0  0  0  0  0  0  0  0  0  0  0
   38.9329   29.7888   43.5673 H   0  0  0  0  0  0  0  0  0  0  0  0
   40.4954   28.0386   42.6723 H   0  0  0  0  0  0  0  0  0  0  0  0
   35.6740   27.1499   43.1556 H   0  0  0  0  0  0  0  0  0  0  0  0
   42.2177   24.0305   43.6044 H   0  0  0  0  0  0  0  0  0  0  0  0
  1  6  2  0
  2  1  1  0
  3  4  1  0
  3  2  2  0
  4  5  2  0
  5  6  1  0
  7  3  1  0
  7  8  1  0
  8 10  1  0
  8  9  2  0
  1 11  1  0
  2 12  1  0
  5 13  1  0
 10 14  1  0
M  ISO  4  11  14  12  14  13  14  14   3
M  END
>  <minimizedAffinity>  (1) 
-3.15357971

>  <minimizedRMSD>  (1) 
3.40680218

$$$$
