
     RDKit          3D

 25 26  0  0  1  0  0  0  0  0999 V2000
   38.1630   28.2730   43.4170 C   0  0  0  0  0  0  0  0  0  0  0  0
   38.0560   27.0130   42.8050 C   0  0  0  0  0  0  0  0  0  0  0  0
   37.2780   26.8980   41.6480 C   0  0  0  0  0  0  0  0  0  0  0  0
   36.6510   28.0110   41.1530 N   0  0  0  0  0  0  0  0  0  0  0  0
   36.7760   29.2140   41.7700 C   0  0  0  0  0  0  0  0  0  0  0  0
   37.5270   29.3320   42.8900 N   0  0  0  0  0  0  0  0  0  0  0  0
   37.1290   25.6410   40.9830 N   0  0  0  0  0  0  0  0  0  0  0  0
   37.1020   24.4180   41.7300 C   0  0  0  0  0  0  0  0  0  0  0  0
   37.5500   23.2210   40.9280 C   0  0  0  0  0  0  0  0  0  0  0  0
   37.6040   23.4370   39.5840 O   0  0  0  0  0  0  0  0  0  0  0  0
   36.6830   24.3090   39.0540 C   0  0  0  0  0  0  0  0  0  0  0  0
   37.0080   25.6730   39.5390 C   0  0  1  0  0  0  0  0  0  0  0  0
   36.1670   26.7200   39.0500 N   0  0  0  0  0  0  0  0  0  0  0  0
   38.7678   28.3922   44.3280 H   0  0  0  0  0  0  0  0  0  0  0  0
   38.5719   26.1373   43.2257 H   0  0  0  0  0  0  0  0  0  0  0  0
   36.2648   30.0965   41.3579 H   0  0  0  0  0  0  0  0  0  0  0  0
   37.7671   24.5249   42.5996 H   0  0  0  0  0  0  0  0  0  0  0  0
   36.0580   24.2398   42.0273 H   0  0  0  0  0  0  0  0  0  0  0  0
   38.5543   22.9321   41.2714 H   0  0  0  0  0  0  0  0  0  0  0  0
   36.8002   22.4329   41.0913 H   0  0  0  0  0  0  0  0  0  0  0  0
   35.6714   24.0278   39.3820 H   0  0  0  0  0  0  0  0  0  0  0  0
   36.7163   24.2771   37.9550 H   0  0  0  0  0  0  0  0  0  0  0  0
   37.9774   25.9526   39.1008 H   0  0  0  0  0  0  0  0  0  0  0  0
   35.7569   27.2306   39.8450 H   0  0  0  0  0  0  0  0  0  0  0  0
   36.7247   27.3687   38.4763 H   0  0  0  0  0  0  0  0  0  0  0  0
  2  1  2  0
  3  2  1  0
  4  3  2  0
  4  5  1  0
  5  6  2  0
  6  1  1  0
  7  3  1  0
  7  8  1  0
  9  8  1  0
 10  9  1  0
 11 12  1  0
 11 10  1  0
 12  7  1  0
 13 12  1  0
  1 14  1  0
  2 15  1  0
  5 16  1  0
  8 17  1  0
  8 18  1  0
  9 19  1  0
  9 20  1  0
 11 21  1  0
 11 22  1  0
 12 23  1  6
 13 24  1  0
 13 25  1  0
M  ISO  8  14  14  15  14  16  14  17  13  18  13  19  13  20  13  21  13
M  ISO  4  22  13  23  13  24   5  25   5
M  END
>  <minimizedAffinity>  (1) 
-3.54342532

>  <minimizedRMSD>  (1) 
0.425626785

$$$$
