
     RDKit          3D

 47 51  0  0  0  0  0  0  0  0999 V2000
   41.0760   29.6200   41.6940 C   0  0  0  0  0  0  0  0  0  0  0  0
   39.7100   29.5700   41.7200 C   0  0  0  0  0  0  0  0  0  0  0  0
   39.0700   30.2290   40.6620 C   0  0  0  0  0  0  0  0  0  0  0  0
   39.8100   30.8410   39.7300 N   0  0  0  0  0  0  0  0  0  0  0  0
   41.1170   30.8680   39.7380 C   0  0  0  0  0  0  0  0  0  0  0  0
   41.8010   30.2390   40.7500 N   0  0  0  0  0  0  0  0  0  0  0  0
   41.7320   31.5700   38.6660 N   0  0  0  0  0  0  0  0  0  0  0  0
   42.6300   31.3000   37.7610 N   0  0  0  0  0  0  0  0  0  0  0  0
   42.8350   32.3670   36.9790 C   0  0  0  0  0  0  0  0  0  0  0  0
   42.0180   33.3660   37.4180 C   0  0  0  0  0  0  0  0  0  0  0  0
   41.3170   32.8470   38.4960 C   0  0  0  0  0  0  0  0  0  0  0  0
   39.0340   28.8550   42.8210 C   0  0  0  0  0  0  0  0  0  0  0  0
   39.2700   27.4480   42.9520 C   0  0  0  0  0  0  0  0  0  0  0  0
   40.3290   27.0230   43.7820 C   0  0  0  0  0  0  0  0  0  0  0  0
   40.6220   25.7030   43.9730 C   0  0  0  0  0  0  0  0  0  0  0  0
   39.8270   24.7580   43.3080 C   0  0  0  0  0  0  0  0  0  0  0  0
   38.8060   25.1610   42.5090 C   0  0  0  0  0  0  0  0  0  0  0  0
   38.0070   24.2110   41.8510 C   0  0  0  0  0  0  0  0  0  0  0  0
   36.9820   24.6070   41.0560 C   0  0  0  0  0  0  0  0  0  0  0  0
   36.6780   25.9560   40.8560 C   0  0  0  0  0  0  0  0  0  0  0  0
   37.4950   26.8890   41.5280 C   0  0  0  0  0  0  0  0  0  0  0  0
   38.5140   26.4990   42.3180 C   0  0  0  0  0  0  0  0  0  0  0  0
   40.3890   33.6450   39.1680 O   0  0  0  0  0  0  0  0  0  0  0  0
   40.6780   34.7510   39.9160 C   0  0  0  0  0  0  0  0  0  0  0  0
   41.7850   34.5330   40.7460 C   0  0  0  0  0  0  0  0  0  0  0  0
   42.2500   35.5380   41.5960 C   0  0  0  0  0  0  0  0  0  0  0  0
   41.5760   36.7590   41.5890 C   0  0  0  0  0  0  0  0  0  0  0  0
   40.4850   36.9760   40.7720 C   0  0  0  0  0  0  0  0  0  0  0  0
   40.0360   35.9740   39.9360 C   0  0  0  0  0  0  0  0  0  0  0  0
   41.6203   29.1160   42.5062 H   0  0  0  0  0  0  0  0  0  0  0  0
   37.9719   30.2431   40.5982 H   0  0  0  0  0  0  0  0  0  0  0  0
   43.5367   32.4269   36.1340 H   0  0  0  0  0  0  0  0  0  0  0  0
   41.9321   34.3802   37.0009 H   0  0  0  0  0  0  0  0  0  0  0  0
   39.3499   29.3290   43.7620 H   0  0  0  0  0  0  0  0  0  0  0  0
   37.9627   28.9338   42.5840 H   0  0  0  0  0  0  0  0  0  0  0  0
   40.9400   27.7816   44.2931 H   0  0  0  0  0  0  0  0  0  0  0  0
   41.4516   25.3920   44.6249 H   0  0  0  0  0  0  0  0  0  0  0  0
   40.0318   23.6847   43.4345 H   0  0  0  0  0  0  0  0  0  0  0  0
   38.2142   23.1386   41.9815 H   0  0  0  0  0  0  0  0  0  0  0  0
   36.3713   23.8427   40.5532 H   0  0  0  0  0  0  0  0  0  0  0  0
   35.8465   26.2733   40.2095 H   0  0  0  0  0  0  0  0  0  0  0  0
   37.2947   27.9634   41.4037 H   0  0  0  0  0  0  0  0  0  0  0  0
   42.2941   33.5581   40.7278 H   0  0  0  0  0  0  0  0  0  0  0  0
   43.1191   35.3724   42.2496 H   0  0  0  0  0  0  0  0  0  0  0  0
   41.9219   37.5676   42.2498 H   0  0  0  0  0  0  0  0  0  0  0  0
   39.9725   37.9492   40.7872 H   0  0  0  0  0  0  0  0  0  0  0  0
   39.1666   36.1493   39.2853 H   0  0  0  0  0  0  0  0  0  0  0  0
  1  2  2  0
  2 12  1  0
  3  2  1  0
  4  5  1  0
  4  3  2  0
  5  6  2  0
  6  1  1  0
  7  5  1  0
  8  7  1  0
  9 10  1  0
  9  8  2  0
 10 11  2  0
 11  7  1  0
 11 23  1  0
 12 13  1  0
 13 14  2  0
 14 15  1  0
 16 15  2  0
 17 16  1  0
 18 17  2  0
 19 18  1  0
 20 19  2  0
 20 21  1  0
 21 22  2  0
 22 17  1  0
 22 13  1  0
 23 24  1  0
 24 29  1  0
 24 25  2  0
 25 26  1  0
 27 26  2  0
 28 27  1  0
 29 28  2  0
  1 30  1  0
  3 31  1  0
  9 32  1  0
 10 33  1  0
 12 34  1  0
 12 35  1  0
 14 36  1  0
 15 37  1  0
 16 38  1  0
 18 39  1  0
 19 40  1  0
 20 41  1  0
 21 42  1  0
 25 43  1  0
 26 44  1  0
 27 45  1  0
 28 46  1  0
 29 47  1  0
M  ISO  8  30  14  31  14  32  14  33  14  34   8  35   8  36  14  37  14
M  ISO  8  38  14  39  14  40  14  41  14  42  14  43  14  44  14  45  14
M  ISO  2  46  14  47  14
M  END
>  <minimizedAffinity>  (1) 
-6.89436007

>  <minimizedRMSD>  (1) 
3.03166127

$$$$
