
     RDKit          3D

 44 48  0  0  0  0  0  0  0  0999 V2000
   37.0220   31.4870   40.5710 C   0  0  0  0  0  0  0  0  0  0  0  0
   36.8930   31.9270   39.2660 N   0  0  0  0  0  0  0  0  0  0  0  0
   37.8340   32.8060   39.0440 O   0  0  0  0  0  0  0  0  0  0  0  0
   38.5420   32.9290   40.1580 C   0  0  0  0  0  0  0  0  0  0  0  0
   38.0700   32.1350   41.1090 N   0  0  0  0  0  0  0  0  0  0  0  0
   39.6800   33.8310   40.2700 C   0  0  0  0  0  0  0  0  0  0  0  0
   39.7260   35.1610   39.9480 C   0  0  0  0  0  0  0  0  0  0  0  0
   40.9810   35.6520   40.1980 C   0  0  0  0  0  0  0  0  0  0  0  0
   41.6970   34.5690   40.6840 C   0  0  0  0  0  0  0  0  0  0  0  0
   40.8750   33.5790   40.6910 O   0  0  0  0  0  0  0  0  0  0  0  0
   43.0950   34.7610   41.0510 C   0  0  0  0  0  0  0  0  0  0  0  0
   44.1110   34.1360   40.4330 N   0  0  0  0  0  0  0  0  0  0  0  0
   45.4060   34.2890   40.7430 C   0  0  0  0  0  0  0  0  0  0  0  0
   45.7990   35.1110   41.7310 N   0  0  0  0  0  0  0  0  0  0  0  0
   44.8500   35.7710   42.3960 C   0  0  0  0  0  0  0  0  0  0  0  0
   45.2480   36.6110   43.4060 C   0  0  0  0  0  0  0  0  0  0  0  0
   44.3110   37.3360   44.1480 C   0  0  0  0  0  0  0  0  0  0  0  0
   42.9690   37.1580   43.8040 C   0  0  0  0  0  0  0  0  0  0  0  0
   42.6320   36.3110   42.7920 C   0  0  0  0  0  0  0  0  0  0  0  0
   43.5250   35.5920   42.0540 C   0  0  0  0  0  0  0  0  0  0  0  0
   36.2650   30.5500   41.2990 O   0  0  0  0  0  0  0  0  0  0  0  0
   38.1780   28.2350   43.3240 C   0  0  0  0  0  0  0  0  0  0  0  0
   37.9390   27.0440   42.5700 C   0  0  0  0  0  0  0  0  0  0  0  0
   37.1460   27.1470   41.4430 C   0  0  0  0  0  0  0  0  0  0  0  0
   36.6520   28.3660   41.1290 N   0  0  0  0  0  0  0  0  0  0  0  0
   36.8760   29.4630   41.8300 C   0  0  0  0  0  0  0  0  0  0  0  0
   37.6450   29.4120   42.9400 N   0  0  0  0  0  0  0  0  0  0  0  0
   36.9730   25.8850   40.7610 C   0  0  0  0  0  0  0  0  0  0  0  0
   36.9790   24.6790   41.5970 C   0  0  0  0  0  0  0  0  0  0  0  0
   37.8330   23.2810   40.7780 S   0  0  0  0  0  0  0  0  0  0  0  0
   38.8842   35.7462   39.5495 H   0  0  0  0  0  0  0  0  0  0  0  0
   41.3412   36.6802   40.0462 H   0  0  0  0  0  0  0  0  0  0  0  0
   46.1643   33.7291   40.1759 H   0  0  0  0  0  0  0  0  0  0  0  0
   46.3189   36.7151   43.6347 H   0  0  0  0  0  0  0  0  0  0  0  0
   44.6149   38.0119   44.9609 H   0  0  0  0  0  0  0  0  0  0  0  0
   42.1843   37.7019   44.3504 H   0  0  0  0  0  0  0  0  0  0  0  0
   41.5641   36.1991   42.5532 H   0  0  0  0  0  0  0  0  0  0  0  0
   38.8038   28.1903   44.2275 H   0  0  0  0  0  0  0  0  0  0  0  0
   38.3711   26.0798   42.8762 H   0  0  0  0  0  0  0  0  0  0  0  0
   36.0083   25.9204   40.2336 H   0  0  0  0  0  0  0  0  0  0  0  0
   37.8510   25.7873   40.1056 H   0  0  0  0  0  0  0  0  0  0  0  0
   37.4937   24.9048   42.5425 H   0  0  0  0  0  0  0  0  0  0  0  0
   35.9345   24.3827   41.7736 H   0  0  0  0  0  0  0  0  0  0  0  0
   38.3470   22.4395   41.7291 H   0  0  0  0  0  0  0  0  0  0  0  0
  1  5  1  0
  1 21  1  0
  2  1  2  0
  3  2  1  0
  3  4  1  0
  4  6  1  0
  4  5  2  0
  6 10  1  0
  7  8  1  0
  7  6  2  0
  8  9  2  0
  9 10  1  0
  9 11  1  0
 11 20  2  0
 12 13  2  0
 12 11  1  0
 13 14  1  0
 14 15  2  0
 15 16  1  0
 16 17  2  0
 18 17  1  0
 19 18  2  0
 20 15  1  0
 20 19  1  0
 21 26  1  0
 23 22  2  0
 24 23  1  0
 25 24  2  0
 25 26  1  0
 26 27  2  0
 27 22  1  0
 28 24  1  0
 28 29  1  0
 30 29  1  0
  7 31  1  0
  8 32  1  0
 13 33  1  0
 16 34  1  0
 17 35  1  0
 18 36  1  0
 19 37  1  0
 22 38  1  0
 23 39  1  0
 28 40  1  0
 28 41  1  0
 29 42  1  0
 29 43  1  0
 30 44  1  0
M  END
>  <minimizedAffinity>  (1) 
-7.40647888

>  <minimizedRMSD>  (1) 
1.68171906

$$$$
