
     RDKit          3D

 41 44  0  0  1  0  0  0  0  0999 V2000
   37.5030   28.8410   41.3750 N   0  0  0  0  0  0  0  0  0  0  0  0
   37.5000   29.4050   42.7160 C   0  0  0  0  0  0  0  0  0  0  0  0
   37.5400   28.4300   43.8440 C   0  0  0  0  0  0  0  0  0  0  0  0
   38.0990   27.1420   43.4640 N   0  0  0  0  0  0  0  0  0  0  0  0
   39.0540   27.3520   42.4060 C   0  0  0  0  0  0  0  0  0  0  0  0
   38.2870   27.6630   41.1550 C   0  0  2  0  0  0  0  0  0  0  0  0
   37.1240   30.2170   39.2910 C   0  0  0  0  0  0  0  0  0  0  0  0
   36.4290   30.3520   38.1050 C   0  0  0  0  0  0  0  0  0  0  0  0
   35.4750   29.4160   37.7710 C   0  0  0  0  0  0  0  0  0  0  0  0
   35.2270   28.3590   38.6290 C   0  0  0  0  0  0  0  0  0  0  0  0
   35.9270   28.2260   39.8220 C   0  0  0  0  0  0  0  0  0  0  0  0
   36.8790   29.1600   40.1490 C   0  0  0  0  0  0  0  0  0  0  0  0
   40.2810   32.0470   39.4450 C   0  0  0  0  0  0  0  0  0  0  0  0
   40.0150   33.1040   40.3250 C   0  0  0  0  0  0  0  0  0  0  0  0
   38.7310   33.1730   40.8600 C   0  0  0  0  0  0  0  0  0  0  0  0
   37.8550   32.2240   40.4900 N   0  0  0  0  0  0  0  0  0  0  0  0
   38.1210   31.2120   39.6430 C   0  0  0  0  0  0  0  0  0  0  0  0
   39.3320   31.1770   39.1610 N   0  0  0  0  0  0  0  0  0  0  0  0
   39.0890   27.4950   39.9880 C   0  0  0  0  0  0  0  0  0  0  0  0
   40.2340   28.0280   39.4420 C   0  0  0  0  0  0  0  0  0  0  0  0
   40.6000   27.4760   38.2700 N   0  0  0  0  0  0  0  0  0  0  0  0
   39.6570   26.5230   38.0100 C   0  0  0  0  0  0  0  0  0  0  0  0
   38.7880   26.5590   39.0290 N   0  0  0  0  0  0  0  0  0  0  0  0
   38.3803   30.0583   42.8066 H   0  0  0  0  0  0  0  0  0  0  0  0
   36.5357   29.9254   42.8127 H   0  0  0  0  0  0  0  0  0  0  0  0
   38.1545   28.8540   44.6518 H   0  0  0  0  0  0  0  0  0  0  0  0
   36.5023   28.2560   44.1647 H   0  0  0  0  0  0  0  0  0  0  0  0
   38.5677   26.7138   44.2751 H   0  0  0  0  0  0  0  0  0  0  0  0
   39.7149   28.1940   42.6594 H   0  0  0  0  0  0  0  0  0  0  0  0
   39.6755   26.4556   42.2642 H   0  0  0  0  0  0  0  0  0  0  0  0
   37.5086   26.9272   40.9047 H   0  0  0  0  0  0  0  0  0  0  0  0
   36.6353   31.1987   37.4337 H   0  0  0  0  0  0  0  0  0  0  0  0
   34.9144   29.5082   36.8291 H   0  0  0  0  0  0  0  0  0  0  0  0
   34.4641   27.6127   38.3626 H   0  0  0  0  0  0  0  0  0  0  0  0
   35.7208   27.3821   40.4968 H   0  0  0  0  0  0  0  0  0  0  0  0
   41.2782   31.9433   38.9925 H   0  0  0  0  0  0  0  0  0  0  0  0
   40.7854   33.8459   40.5818 H   0  0  0  0  0  0  0  0  0  0  0  0
   38.4452   33.9734   41.5584 H   0  0  0  0  0  0  0  0  0  0  0  0
   40.8027   28.8375   39.9229 H   0  0  0  0  0  0  0  0  0  0  0  0
   39.6185   25.8567   37.1356 H   0  0  0  0  0  0  0  0  0  0  0  0
   37.9671   25.9397   39.0880 H   0  0  0  0  0  0  0  0  0  0  0  0
  1  2  1  0
  2  3  1  0
  4  3  1  0
  5  4  1  0
  6  1  1  0
  6  5  1  0
  7 17  1  0
  7 12  1  0
  8  7  2  0
  9  8  1  0
  9 10  2  0
 10 11  1  0
 11 12  2  0
 12  1  1  0
 13 14  2  0
 14 15  1  0
 16 15  2  0
 17 16  1  0
 18 13  1  0
 18 17  2  0
 19  6  1  0
 20 19  2  0
 21 20  1  0
 22 21  2  0
 22 23  1  0
 23 19  1  0
  2 24  1  0
  2 25  1  0
  3 26  1  0
  3 27  1  0
  4 28  1  0
  5 29  1  0
  5 30  1  0
  6 31  1  6
  8 32  1  0
  9 33  1  0
 10 34  1  0
 11 35  1  0
 13 36  1  0
 14 37  1  0
 15 38  1  0
 20 39  1  0
 22 40  1  0
 23 41  1  0
M  ISO  8  24  13  25  13  26  13  27  13  28   5  29  13  30  13  31  13
M  ISO  8  32  14  33  14  34  14  35  14  36  14  37  14  38  14  39  14
M  ISO  2  40  14  41   9
M  END
>  <minimizedAffinity>  (1) 
-4.80229282

>  <minimizedRMSD>  (1) 
5.0113101

$$$$
