
     RDKit          3D

 49 52  0  0  0  0  0  0  0  0999 V2000
   37.2420   26.8850   41.1410 C   0  0  0  0  0  0  0  0  0  0  0  0
   38.3580   26.7180   41.9740 C   0  0  0  0  0  0  0  0  0  0  0  0
   38.8950   27.8450   42.6340 C   0  0  0  0  0  0  0  0  0  0  0  0
   38.2790   29.0420   42.4100 N   0  0  0  0  0  0  0  0  0  0  0  0
   37.2050   29.1900   41.6070 C   0  0  0  0  0  0  0  0  0  0  0  0
   36.6740   28.1170   40.9640 N   0  0  0  0  0  0  0  0  0  0  0  0
   39.9970   27.7160   43.4550 N   0  0  0  0  0  0  0  0  0  0  0  0
   36.6770   25.8150   40.4620 N   0  0  0  0  0  0  0  0  0  0  0  0
   36.6820   30.4640   41.4730 O   0  0  0  0  0  0  0  0  0  0  0  0
   37.0630   31.3450   40.4850 C   0  0  0  0  0  0  0  0  0  0  0  0
   36.8500   31.5750   39.1880 N   0  0  0  0  0  0  0  0  0  0  0  0
   37.5370   32.6140   38.8110 O   0  0  0  0  0  0  0  0  0  0  0  0
   38.2120   33.0900   39.8370 C   0  0  0  0  0  0  0  0  0  0  0  0
   37.9260   32.3070   40.8930 N   0  0  0  0  0  0  0  0  0  0  0  0
   39.1150   34.2650   39.8280 C   0  0  0  0  0  0  0  0  0  0  0  0
   38.7790   35.4970   40.3100 C   0  0  0  0  0  0  0  0  0  0  0  0
   39.6970   36.5350   40.2510 C   0  0  0  0  0  0  0  0  0  0  0  0
   40.9480   36.3610   39.7170 C   0  0  0  0  0  0  0  0  0  0  0  0
   41.2760   35.1310   39.2390 C   0  0  0  0  0  0  0  0  0  0  0  0
   40.3820   34.0700   39.2810 C   0  0  0  0  0  0  0  0  0  0  0  0
   40.8760   32.8020   38.7390 C   0  0  0  0  0  0  0  0  0  0  0  0
   41.3880   31.6240   39.2460 C   0  0  0  0  0  0  0  0  0  0  0  0
   41.6700   30.8040   38.2120 N   0  0  0  0  0  0  0  0  0  0  0  0
   41.3380   31.4660   37.0790 C   0  0  0  0  0  0  0  0  0  0  0  0
   40.8540   32.6810   37.3780 N   0  0  0  0  0  0  0  0  0  0  0  0
   38.8650   25.3580   42.0830 C   0  0  0  0  0  0  0  0  0  0  0  0
   37.7420   24.3220   42.1010 C   0  0  0  0  0  0  0  0  0  0  0  0
   39.7550   25.0680   43.2450 C   0  0  0  0  0  0  0  0  0  0  0  0
   39.6930   25.1010   40.8270 C   0  0  0  0  0  0  0  0  0  0  0  0
   40.3828   28.5428   43.9329 H   0  0  0  0  0  0  0  0  0  0  0  0
   40.4336   26.7929   43.5898 H   0  0  0  0  0  0  0  0  0  0  0  0
   35.8575   25.9643   39.8562 H   0  0  0  0  0  0  0  0  0  0  0  0
   37.0771   24.8714   40.5637 H   0  0  0  0  0  0  0  0  0  0  0  0
   37.7826   35.6662   40.7442 H   0  0  0  0  0  0  0  0  0  0  0  0
   39.4143   37.5233   40.6426 H   0  0  0  0  0  0  0  0  0  0  0  0
   41.6661   37.1932   39.6765 H   0  0  0  0  0  0  0  0  0  0  0  0
   42.2756   34.9727   38.8079 H   0  0  0  0  0  0  0  0  0  0  0  0
   41.5400   31.3934   40.3108 H   0  0  0  0  0  0  0  0  0  0  0  0
   41.4490   31.0657   36.0605 H   0  0  0  0  0  0  0  0  0  0  0  0
   40.5268   33.3904   36.7068 H   0  0  0  0  0  0  0  0  0  0  0  0
   37.4815   24.0817   43.1423 H   0  0  0  0  0  0  0  0  0  0  0  0
   36.8590   24.7294   41.5868 H   0  0  0  0  0  0  0  0  0  0  0  0
   38.0770   23.4091   41.5868 H   0  0  0  0  0  0  0  0  0  0  0  0
   39.2058   25.2470   44.1811 H   0  0  0  0  0  0  0  0  0  0  0  0
   40.0794   24.0177   43.2052 H   0  0  0  0  0  0  0  0  0  0  0  0
   40.6359   25.7256   43.2052 H   0  0  0  0  0  0  0  0  0  0  0  0
   40.7071   24.7862   41.1144 H   0  0  0  0  0  0  0  0  0  0  0  0
   39.2181   24.3080   40.2307 H   0  0  0  0  0  0  0  0  0  0  0  0
   39.7506   26.0235   40.2307 H   0  0  0  0  0  0  0  0  0  0  0  0
  1  2  2  0
  2 26  1  0
  2  3  1  0
  3  7  1  0
  4  3  2  0
  5  4  1  0
  6  1  1  0
  6  5  2  0
  8  1  1  0
  9  5  1  0
 10 14  1  0
 10  9  1  0
 11 10  2  0
 12 11  1  0
 12 13  1  0
 13 14  2  0
 15 13  1  0
 15 16  2  0
 17 16  1  0
 18 17  2  0
 19 20  2  0
 19 18  1  0
 20 15  1  0
 21 22  2  0
 21 20  1  0
 23 22  1  0
 24 25  1  0
 24 23  2  0
 25 21  1  0
 26 27  1  0
 26 28  1  0
 29 26  1  0
  7 30  1  0
  7 31  1  0
  8 32  1  0
  8 33  1  0
 16 34  1  0
 17 35  1  0
 18 36  1  0
 19 37  1  0
 22 38  1  0
 24 39  1  0
 25 40  1  0
 27 41  1  0
 27 42  1  0
 27 43  1  0
 28 44  1  0
 28 45  1  0
 28 46  1  0
 29 47  1  0
 29 48  1  0
 29 49  1  0
M  END
>  <minimizedAffinity>  (1) 
-7.01574659

>  <minimizedRMSD>  (1) 
0.69800657

$$$$
