
     RDKit          3D

 52 56  0  0  0  0  0  0  0  0999 V2000
   35.2320   28.7410   40.2150 C   0  0  0  0  0  0  0  0  0  0  0  0
   36.4860   28.2790   40.6600 C   0  0  0  0  0  0  0  0  0  0  0  0
   37.3290   27.7160   39.6890 C   0  0  0  0  0  0  0  0  0  0  0  0
   36.9170   27.6420   38.4010 N   0  0  0  0  0  0  0  0  0  0  0  0
   35.6650   28.1160   38.0230 C   0  0  0  0  0  0  0  0  0  0  0  0
   34.8270   28.6620   38.9240 N   0  0  0  0  0  0  0  0  0  0  0  0
   36.9060   28.3640   41.9800 N   0  0  0  0  0  0  0  0  0  0  0  0
   36.5330   27.5530   42.9910 C   0  0  0  0  0  0  0  0  0  0  0  0
   37.2010   28.0290   44.0920 C   0  0  0  0  0  0  0  0  0  0  0  0
   37.9640   29.1110   43.7470 N   0  0  0  0  0  0  0  0  0  0  0  0
   37.7630   29.2930   42.4450 C   0  0  0  0  0  0  0  0  0  0  0  0
   38.4760   30.3890   41.8710 N   0  0  0  0  0  0  0  0  0  0  0  0
   39.7500   30.7260   42.2710 C   0  0  0  0  0  0  0  0  0  0  0  0
   40.1990   31.8140   41.5610 N   0  0  0  0  0  0  0  0  0  0  0  0
   39.2270   32.1740   40.7150 C   0  0  0  0  0  0  0  0  0  0  0  0
   39.1280   33.1820   39.7820 C   0  0  0  0  0  0  0  0  0  0  0  0
   37.9600   33.2230   39.1120 N   0  0  0  0  0  0  0  0  0  0  0  0
   36.9420   32.3750   39.3020 C   0  0  0  0  0  0  0  0  0  0  0  0
   37.0220   31.3840   40.2080 N   0  0  0  0  0  0  0  0  0  0  0  0
   38.1720   31.3060   40.9000 C   0  0  0  0  0  0  0  0  0  0  0  0
   40.1840   34.1070   39.5450 N   0  0  0  0  0  0  0  0  0  0  0  0
   35.2010   28.0520   36.6320 C   0  0  0  0  0  0  0  0  0  0  0  0
   34.0330   29.0010   36.4000 C   0  0  0  0  0  0  0  0  0  0  0  0
   34.6660   26.6560   36.3300 C   0  0  0  0  0  0  0  0  0  0  0  0
   36.2990   28.3170   35.6470 C   0  0  0  0  0  0  0  0  0  0  0  0
   36.3520   29.4630   34.7930 C   0  0  0  0  0  0  0  0  0  0  0  0
   36.3990   29.0260   33.4620 C   0  0  0  0  0  0  0  0  0  0  0  0
   36.5570   29.8770   32.3570 C   0  0  0  0  0  0  0  0  0  0  0  0
   36.6740   31.2410   32.5940 C   0  0  0  0  0  0  0  0  0  0  0  0
   36.6230   31.6370   33.9080 C   0  0  0  0  0  0  0  0  0  0  0  0
   36.4680   30.8180   35.0060 C   0  0  0  0  0  0  0  0  0  0  0  0
   34.5478   29.1878   40.9514 H   0  0  0  0  0  0  0  0  0  0  0  0
   38.3213   27.3360   39.9734 H   0  0  0  0  0  0  0  0  0  0  0  0
   35.8439   26.6969   42.9438 H   0  0  0  0  0  0  0  0  0  0  0  0
   37.1327   27.6027   45.1037 H   0  0  0  0  0  0  0  0  0  0  0  0
   40.3255   30.2001   43.0471 H   0  0  0  0  0  0  0  0  0  0  0  0
   36.0241   32.4905   38.7069 H   0  0  0  0  0  0  0  0  0  0  0  0
   40.0711   34.8474   38.8380 H   0  0  0  0  0  0  0  0  0  0  0  0
   41.0609   34.0358   40.0806 H   0  0  0  0  0  0  0  0  0  0  0  0
   33.6291   29.3292   37.3691 H   0  0  0  0  0  0  0  0  0  0  0  0
   34.3794   29.8768   35.8316 H   0  0  0  0  0  0  0  0  0  0  0  0
   33.2467   28.4826   35.8316 H   0  0  0  0  0  0  0  0  0  0  0  0
   34.4639   26.1286   37.2740 H   0  0  0  0  0  0  0  0  0  0  0  0
   33.7355   26.7377   35.7491 H   0  0  0  0  0  0  0  0  0  0  0  0
   35.4128   26.0949   35.7491 H   0  0  0  0  0  0  0  0  0  0  0  0
   37.2275   28.3419   36.2362 H   0  0  0  0  0  0  0  0  0  0  0  0
   36.1158   27.5190   34.9124 H   0  0  0  0  0  0  0  0  0  0  0  0
   36.3061   27.9467   33.2712 H   0  0  0  0  0  0  0  0  0  0  0  0
   36.5873   29.4757   31.3333 H   0  0  0  0  0  0  0  0  0  0  0  0
   36.8005   31.9638   31.7745 H   0  0  0  0  0  0  0  0  0  0  0  0
   36.7150   32.7155   34.1039 H   0  0  0  0  0  0  0  0  0  0  0  0
   36.4379   31.2354   36.0233 H   0  0  0  0  0  0  0  0  0  0  0  0
  1  2  2  0
  2  7  1  0
  3  2  1  0
  4  3  2  0
  5  4  1  0
  5  6  2  0
  6  1  1  0
  7 11  1  0
  7  8  1  0
  8  9  2  0
 10  9  1  0
 11 10  2  0
 12 13  1  0
 12 11  1  0
 14 13  2  0
 15 20  2  0
 15 14  1  0
 16 15  1  0
 17 18  1  0
 17 16  2  0
 18 19  2  0
 19 20  1  0
 20 12  1  0
 21 16  1  0
 22  5  1  0
 23 22  1  0
 24 22  1  0
 25 22  1  0
 26 31  1  0
 26 25  1  0
 27 26  2  0
 28 29  2  0
 28 27  1  0
 29 30  1  0
 30 31  2  0
  1 32  1  0
  3 33  1  0
  8 34  1  0
  9 35  1  0
 13 36  1  0
 18 37  1  0
 21 38  1  0
 21 39  1  0
 23 40  1  0
 23 41  1  0
 23 42  1  0
 24 43  1  0
 24 44  1  0
 24 45  1  0
 25 46  1  0
 25 47  1  0
 27 48  1  0
 28 49  1  0
 29 50  1  0
 30 51  1  0
 31 52  1  0
M  ISO  8  32  14  33  14  34  14  35  14  36  14  37  14  40   8  41   8
M  ISO  8  42   8  43   8  44   8  45   8  46   8  47   8  48  14  49  14
M  ISO  3  50  14  51  14  52  14
M  END
>  <minimizedAffinity>  (1) 
-6.3514452

>  <minimizedRMSD>  (1) 
1.42437923

$$$$
