
     RDKit          3D

 37 40  0  0  0  0  0  0  0  0999 V2000
   36.7450   31.2620   40.1970 C   0  0  0  0  0  0  0  0  0  0  0  0
   36.8480   31.5840   38.8560 N   0  0  0  0  0  0  0  0  0  0  0  0
   37.7040   32.5710   38.7370 O   0  0  0  0  0  0  0  0  0  0  0  0
   38.1310   32.8700   39.9310 C   0  0  0  0  0  0  0  0  0  0  0  0
   37.5600   32.0820   40.8580 N   0  0  0  0  0  0  0  0  0  0  0  0
   39.0950   33.9180   40.2140 C   0  0  0  0  0  0  0  0  0  0  0  0
   38.9560   35.2750   40.0200 C   0  0  0  0  0  0  0  0  0  0  0  0
   40.1000   35.9320   40.4160 C   0  0  0  0  0  0  0  0  0  0  0  0
   40.9310   34.9030   40.8580 C   0  0  0  0  0  0  0  0  0  0  0  0
   40.3050   33.8000   40.7160 O   0  0  0  0  0  0  0  0  0  0  0  0
   42.2760   35.1310   41.3800 C   0  0  0  0  0  0  0  0  0  0  0  0
   43.4560   34.5400   40.9800 C   0  0  0  0  0  0  0  0  0  0  0  0
   44.4420   35.0600   41.7480 N   0  0  0  0  0  0  0  0  0  0  0  0
   43.8970   35.9510   42.6040 C   0  0  0  0  0  0  0  0  0  0  0  0
   42.5720   35.9980   42.3830 N   0  0  0  0  0  0  0  0  0  0  0  0
   35.9690   30.2890   40.8160 O   0  0  0  0  0  0  0  0  0  0  0  0
   37.7410   28.1710   43.1770 C   0  0  0  0  0  0  0  0  0  0  0  0
   37.6410   26.9370   42.4740 C   0  0  0  0  0  0  0  0  0  0  0  0
   36.9760   26.9500   41.2590 C   0  0  0  0  0  0  0  0  0  0  0  0
   36.4670   28.1180   40.8170 N   0  0  0  0  0  0  0  0  0  0  0  0
   36.5690   29.2540   41.4820 C   0  0  0  0  0  0  0  0  0  0  0  0
   37.2050   29.2990   42.6670 N   0  0  0  0  0  0  0  0  0  0  0  0
   36.9330   25.6570   40.6240 C   0  0  0  0  0  0  0  0  0  0  0  0
   37.1060   24.5240   41.5670 C   0  0  0  0  0  0  0  0  0  0  0  0
   37.8320   23.1620   40.7840 S   0  0  0  0  0  0  0  0  0  0  0  0
   38.0605   35.7633   39.6082 H   0  0  0  0  0  0  0  0  0  0  0  0
   40.3086   37.0117   40.3898 H   0  0  0  0  0  0  0  0  0  0  0  0
   43.5738   33.7876   40.1862 H   0  0  0  0  0  0  0  0  0  0  0  0
   44.4448   36.5389   43.3552 H   0  0  0  0  0  0  0  0  0  0  0  0
   41.8968   36.5899   42.8876 H   0  0  0  0  0  0  0  0  0  0  0  0
   38.2606   28.2050   44.1459 H   0  0  0  0  0  0  0  0  0  0  0  0
   38.0743   26.0107   42.8793 H   0  0  0  0  0  0  0  0  0  0  0  0
   35.9592   25.5475   40.1243 H   0  0  0  0  0  0  0  0  0  0  0  0
   37.7742   25.6179   39.9162 H   0  0  0  0  0  0  0  0  0  0  0  0
   37.7502   24.8449   42.3988 H   0  0  0  0  0  0  0  0  0  0  0  0
   36.1143   24.2248   41.9370 H   0  0  0  0  0  0  0  0  0  0  0  0
   38.2984   22.2869   41.7293 H   0  0  0  0  0  0  0  0  0  0  0  0
  1 16  1  0
  1  5  1  0
  2  1  2  0
  3  2  1  0
  3  4  1  0
  4  6  1  0
  4  5  2  0
  6 10  1  0
  7  6  2  0
  7  8  1  0
  8  9  2  0
  9 11  1  0
 10  9  1  0
 11 15  1  0
 12 11  2  0
 12 13  1  0
 13 14  2  0
 15 14  1  0
 16 21  1  0
 18 17  2  0
 19 18  1  0
 20 19  2  0
 20 21  1  0
 21 22  2  0
 22 17  1  0
 23 19  1  0
 23 24  1  0
 25 24  1  0
  7 26  1  0
  8 27  1  0
 12 28  1  0
 14 29  1  0
 15 30  1  0
 17 31  1  0
 18 32  1  0
 23 33  1  0
 23 34  1  0
 24 35  1  0
 24 36  1  0
 25 37  1  0
M  ISO  8  26  14  27  14  28  14  29  14  30   9  31  14  32  14  33   8
M  ISO  4  34   8  35   8  36   8  37  11
M  END
>  <minimizedAffinity>  (1) 
-6.07944155

>  <minimizedRMSD>  (1) 
1.40992606

$$$$
