
     RDKit          3D

 32 35  0  0  0  0  0  0  0  0999 V2000
   44.6350   26.4000   44.1790 C   0  0  0  0  0  0  0  0  0  0  0  0
   43.4230   26.4470   43.4610 C   0  0  0  0  0  0  0  0  0  0  0  0
   42.2670   26.8280   44.1270 C   0  0  0  0  0  0  0  0  0  0  0  0
   42.3630   27.1430   45.4690 N   0  0  0  0  0  0  0  0  0  0  0  0
   43.5330   27.0850   46.1140 C   0  0  0  0  0  0  0  0  0  0  0  0
   44.6580   26.7200   45.4860 N   0  0  0  0  0  0  0  0  0  0  0  0
   43.4810   26.0870   42.0520 C   0  0  0  0  0  0  0  0  0  0  0  0
   44.2560   26.5580   41.0270 C   0  0  0  0  0  0  0  0  0  0  0  0
   43.9400   25.9030   39.8850 N   0  0  0  0  0  0  0  0  0  0  0  0
   42.9690   25.0220   40.1900 C   0  0  0  0  0  0  0  0  0  0  0  0
   42.7090   25.1460   41.4820 N   0  0  0  0  0  0  0  0  0  0  0  0
   43.5750   27.4380   47.5650 C   0  0  0  0  0  0  0  0  0  0  0  0
   44.4010   28.5210   47.7870 F   0  0  0  0  0  0  0  0  0  0  0  0
   42.3130   27.8740   47.9890 F   0  0  0  0  0  0  0  0  0  0  0  0
   44.0490   26.4020   48.3480 F   0  0  0  0  0  0  0  0  0  0  0  0
   41.1010   26.8710   43.4310 O   0  0  0  0  0  0  0  0  0  0  0  0
   37.1580   29.1030   43.3380 N   0  0  0  0  0  0  0  0  0  0  0  0
   37.0040   27.8520   43.7680 C   0  0  0  0  0  0  0  0  0  0  0  0
   38.2280   27.2760   43.7600 N   0  0  0  0  0  0  0  0  0  0  0  0
   39.1630   28.1460   43.3270 C   0  0  0  0  0  0  0  0  0  0  0  0
   40.5330   28.0860   43.1290 C   0  0  0  0  0  0  0  0  0  0  0  0
   41.1680   29.1890   42.6700 N   0  0  0  0  0  0  0  0  0  0  0  0
   40.4720   30.3210   42.4140 C   0  0  0  0  0  0  0  0  0  0  0  0
   39.1290   30.4090   42.6010 N   0  0  0  0  0  0  0  0  0  0  0  0
   38.4520   29.3170   43.0620 C   0  0  0  0  0  0  0  0  0  0  0  0
   45.5634   26.1013   43.6703 H   0  0  0  0  0  0  0  0  0  0  0  0
   45.0176   27.3465   41.1171 H   0  0  0  0  0  0  0  0  0  0  0  0
   42.4805   24.3257   39.4925 H   0  0  0  0  0  0  0  0  0  0  0  0
   42.0035   24.5910   41.9871 H   0  0  0  0  0  0  0  0  0  0  0  0
   36.4029   29.7958   43.2341 H   0  0  0  0  0  0  0  0  0  0  0  0
   36.0598   27.3768   44.0722 H   0  0  0  0  0  0  0  0  0  0  0  0
   41.0136   31.2026   42.0407 H   0  0  0  0  0  0  0  0  0  0  0  0
  1  6  2  0
  2  3  2  0
  2  1  1  0
  3  4  1  0
  4  5  2  0
  5 12  1  0
  6  5  1  0
  7  2  1  0
  8  7  2  0
  9 10  2  0
  9  8  1  0
 10 11  1  0
 11  7  1  0
 12 13  1  0
 12 14  1  0
 12 15  1  0
 16  3  1  0
 17 18  1  0
 19 18  2  0
 20 19  1  0
 21 20  2  0
 21 16  1  0
 22 21  1  0
 23 24  1  0
 23 22  2  0
 24 25  2  0
 25 20  1  0
 25 17  1  0
  1 26  1  0
  8 27  1  0
 10 28  1  0
 11 29  1  0
 17 30  1  0
 18 31  1  0
 23 32  1  0
M  ISO  7  26  14  27  14  28  14  29   9  30   9  31  14  32  14
M  END
>  <minimizedAffinity>  (1) 
-5.59678173

>  <minimizedRMSD>  (1) 
0.580895901

$$$$
