
     RDKit          3D

 44 48  0  0  0  0  0  0  0  0999 V2000
   35.9390   28.3970   40.5000 C   0  0  0  0  0  0  0  0  0  0  0  0
   36.4590   29.7300   40.1180 C   0  0  0  0  0  0  0  0  0  0  0  0
   36.6990   30.7930   40.9420 C   0  0  0  0  0  0  0  0  0  0  0  0
   37.1310   32.0330   40.5600 C   0  0  0  0  0  0  0  0  0  0  0  0
   37.3570   32.2670   39.2290 C   0  0  0  0  0  0  0  0  0  0  0  0
   37.1360   31.2290   38.3350 C   0  0  0  0  0  0  0  0  0  0  0  0
   37.3940   31.5220   37.0230 C   0  0  0  0  0  0  0  0  0  0  0  0
   37.2280   30.5780   36.0650 C   0  0  0  0  0  0  0  0  0  0  0  0
   36.8000   29.3420   36.4510 C   0  0  0  0  0  0  0  0  0  0  0  0
   36.5430   29.0680   37.7880 C   0  0  0  0  0  0  0  0  0  0  0  0
   36.7010   29.9990   38.7730 C   0  0  0  0  0  0  0  0  0  0  0  0
   36.1380   27.6510   37.9590 C   0  0  0  0  0  0  0  0  0  0  0  0
   36.4900   26.4600   38.4560 N   0  0  0  0  0  0  0  0  0  0  0  0
   35.5700   25.6150   38.1770 O   0  0  0  0  0  0  0  0  0  0  0  0
   34.5880   26.1450   37.5100 C   0  0  0  0  0  0  0  0  0  0  0  0
   34.9170   27.4300   37.3570 N   0  0  0  0  0  0  0  0  0  0  0  0
   36.1510   28.0450   41.9410 C   0  0  0  0  0  0  0  0  0  0  0  0
   39.1270   26.3210   42.7470 C   0  0  0  0  0  0  0  0  0  0  0  0
   38.3410   25.3010   42.3040 C   0  0  0  0  0  0  0  0  0  0  0  0
   37.1160   25.8690   41.9470 C   0  0  0  0  0  0  0  0  0  0  0  0
   37.2660   27.1980   42.2060 N   0  0  0  0  0  0  0  0  0  0  0  0
   38.4260   27.4770   42.6710 N   0  0  0  0  0  0  0  0  0  0  0  0
   42.6740   25.2490   43.1800 C   0  0  0  0  0  0  0  0  0  0  0  0
   41.3700   25.2970   42.6480 C   0  0  0  0  0  0  0  0  0  0  0  0
   40.4890   26.2230   43.2380 C   0  0  0  0  0  0  0  0  0  0  0  0
   40.9040   27.0120   44.2610 N   0  0  0  0  0  0  0  0  0  0  0  0
   42.1880   26.9060   44.7220 C   0  0  0  0  0  0  0  0  0  0  0  0
   43.0570   26.0340   44.1850 N   0  0  0  0  0  0  0  0  0  0  0  0
   36.4437   27.6398   39.8820 H   0  0  0  0  0  0  0  0  0  0  0  0
   34.8514   28.4235   40.3377 H   0  0  0  0  0  0  0  0  0  0  0  0
   36.5281   30.6362   42.0173 H   0  0  0  0  0  0  0  0  0  0  0  0
   37.2936   32.8255   41.3053 H   0  0  0  0  0  0  0  0  0  0  0  0
   37.7040   33.2504   38.8789 H   0  0  0  0  0  0  0  0  0  0  0  0
   37.7379   32.5291   36.7448 H   0  0  0  0  0  0  0  0  0  0  0  0
   37.4324   30.8020   35.0076 H   0  0  0  0  0  0  0  0  0  0  0  0
   36.6570   28.5547   35.6962 H   0  0  0  0  0  0  0  0  0  0  0  0
   33.6791   25.6417   37.1485 H   0  0  0  0  0  0  0  0  0  0  0  0
   36.2950   28.9807   42.5012 H   0  0  0  0  0  0  0  0  0  0  0  0
   35.2600   27.4780   42.2486 H   0  0  0  0  0  0  0  0  0  0  0  0
   38.6168   24.2381   42.2399 H   0  0  0  0  0  0  0  0  0  0  0  0
   36.2284   25.3575   41.5462 H   0  0  0  0  0  0  0  0  0  0  0  0
   43.3983   24.5407   42.7515 H   0  0  0  0  0  0  0  0  0  0  0  0
   41.0577   24.6468   41.8175 H   0  0  0  0  0  0  0  0  0  0  0  0
   42.5160   27.5498   45.5515 H   0  0  0  0  0  0  0  0  0  0  0  0
  1 17  1  0
  2  1  1  0
  2  3  2  0
  4  3  1  0
  5  4  2  0
  6 11  2  0
  6  5  1  0
  7  6  1  0
  8  9  1  0
  8  7  2  0
  9 10  2  0
 10 12  1  0
 10 11  1  0
 11  2  1  0
 12 13  2  0
 14 13  1  0
 15 14  1  0
 16 15  2  0
 16 12  1  0
 17 21  1  0
 18 25  1  0
 19 18  1  0
 20 21  1  0
 20 19  2  0
 21 22  1  0
 22 18  2  0
 23 28  2  0
 24 23  1  0
 24 25  2  0
 25 26  1  0
 26 27  2  0
 28 27  1  0
  1 29  1  0
  1 30  1  0
  3 31  1  0
  4 32  1  0
  5 33  1  0
  7 34  1  0
  8 35  1  0
  9 36  1  0
 15 37  1  0
 17 38  1  0
 17 39  1  0
 19 40  1  0
 20 41  1  0
 23 42  1  0
 24 43  1  0
 27 44  1  0
M  ISO  8  29   8  30   8  31  14  32  14  33  14  34  14  35  14  36  14
M  ISO  8  37  14  38   8  39   8  40  14  41  14  42  14  43  14  44  14
M  END
>  <minimizedAffinity>  (1) 
-5.67459583

>  <minimizedRMSD>  (1) 
3.03622413

$$$$
