
     RDKit          3D

 51 55  0  0  0  0  0  0  0  0999 V2000
   43.2450   34.5430   40.9520 C   0  0  0  0  0  0  0  0  0  0  0  0
   43.7560   35.2350   42.0750 C   0  0  0  0  0  0  0  0  0  0  0  0
   43.0440   36.2510   42.6070 C   0  0  0  0  0  0  0  0  0  0  0  0
   41.8610   36.5570   42.0270 N   0  0  0  0  0  0  0  0  0  0  0  0
   41.3750   35.9050   40.9650 C   0  0  0  0  0  0  0  0  0  0  0  0
   42.0620   34.9170   40.4440 N   0  0  0  0  0  0  0  0  0  0  0  0
   43.6700   36.9090   43.7550 C   0  0  0  0  0  0  0  0  0  0  0  0
   44.1570   36.1020   44.8480 C   0  0  0  0  0  0  0  0  0  0  0  0
   47.2490   33.2590   45.6140 C   0  0  0  0  0  0  0  0  0  0  0  0
   46.3450   33.7290   46.5430 C   0  0  0  0  0  0  0  0  0  0  0  0
   45.3990   34.6860   46.1460 C   0  0  0  0  0  0  0  0  0  0  0  0
   45.2810   35.2230   44.8630 C   0  0  0  0  0  0  0  0  0  0  0  0
   46.2360   34.6900   43.9850 C   0  0  0  0  0  0  0  0  0  0  0  0
   47.1700   33.7580   44.3400 C   0  0  0  0  0  0  0  0  0  0  0  0
   48.5040   32.0830   45.8660 S   0  0  0  0  0  0  0  0  0  0  0  0
   48.0840   31.2440   47.0630 O   0  0  0  0  0  0  0  0  0  0  0  0
   49.8420   32.7130   46.1280 O   0  0  0  0  0  0  0  0  0  0  0  0
   39.8020   36.3750   40.2340 S   0  0  0  0  0  0  0  0  0  0  0  0
   37.1420   33.4790   39.9070 N   0  0  0  0  0  0  0  0  0  0  0  0
   37.4940   34.7080   39.6290 N   0  0  0  0  0  0  0  0  0  0  0  0
   38.7290   34.9340   40.1570 C   0  0  0  0  0  0  0  0  0  0  0  0
   39.0670   33.7310   40.7620 C   0  0  0  0  0  0  0  0  0  0  0  0
   38.0140   32.8050   40.5840 C   0  0  0  0  0  0  0  0  0  0  0  0
   38.1160   31.5240   41.1700 C   0  0  0  0  0  0  0  0  0  0  0  0
   39.1740   31.2380   41.9850 N   0  0  0  0  0  0  0  0  0  0  0  0
   39.3720   30.1100   42.6390 C   0  0  0  0  0  0  0  0  0  0  0  0
   38.5160   29.0830   42.5660 N   0  0  0  0  0  0  0  0  0  0  0  0
   37.4290   29.2400   41.7910 C   0  0  0  0  0  0  0  0  0  0  0  0
   36.5110   28.2390   41.6750 C   0  0  0  0  0  0  0  0  0  0  0  0
   35.3760   28.3770   40.8810 C   0  0  0  0  0  0  0  0  0  0  0  0
   35.2220   29.5830   40.2110 C   0  0  0  0  0  0  0  0  0  0  0  0
   36.1850   30.5370   40.3790 C   0  0  0  0  0  0  0  0  0  0  0  0
   37.2950   30.4470   41.1390 C   0  0  0  0  0  0  0  0  0  0  0  0
   43.8088   33.7120   40.5031 H   0  0  0  0  0  0  0  0  0  0  0  0
   44.7244   34.9479   42.5106 H   0  0  0  0  0  0  0  0  0  0  0  0
   44.5275   37.4804   43.3701 H   0  0  0  0  0  0  0  0  0  0  0  0
   42.8507   37.4904   44.2030 H   0  0  0  0  0  0  0  0  0  0  0  0
   44.3561   36.8208   45.6565 H   0  0  0  0  0  0  0  0  0  0  0  0
   43.3577   35.3465   44.8630 H   0  0  0  0  0  0  0  0  0  0  0  0
   46.3652   33.3595   47.5789 H   0  0  0  0  0  0  0  0  0  0  0  0
   44.6916   35.0427   46.9091 H   0  0  0  0  0  0  0  0  0  0  0  0
   46.2329   35.0450   42.9439 H   0  0  0  0  0  0  0  0  0  0  0  0
   47.8796   33.3975   43.5807 H   0  0  0  0  0  0  0  0  0  0  0  0
   48.6529   31.3275   44.7329 H   0  0  0  0  0  0  0  0  0  0  0  0
   36.2405   33.0792   39.6098 H   0  0  0  0  0  0  0  0  0  0  0  0
   40.0072   33.5299   41.2963 H   0  0  0  0  0  0  0  0  0  0  0  0
   40.2706   30.0095   43.2655 H   0  0  0  0  0  0  0  0  0  0  0  0
   36.6711   27.2985   42.2226 H   0  0  0  0  0  0  0  0  0  0  0  0
   34.6359   27.5684   40.7888 H   0  0  0  0  0  0  0  0  0  0  0  0
   34.3509   29.7648   39.5644 H   0  0  0  0  0  0  0  0  0  0  0  0
   36.0390   31.4818   39.8349 H   0  0  0  0  0  0  0  0  0  0  0  0
  1  2  2  0
  2  3  1  0
  3  7  1  0
  4  3  2  0
  5  4  1  0
  6  1  1  0
  6  5  2  0
  7  8  1  0
  8 12  1  0
  9 15  1  0
  9 10  2  0
 11 10  1  0
 12 11  2  0
 13 14  2  0
 13 12  1  0
 14  9  1  0
 15 17  2  0
 15 16  2  0
 18  5  1  0
 19 23  1  0
 20 19  1  0
 20 21  2  0
 21 18  1  0
 21 22  1  0
 23 22  2  0
 23 24  1  0
 24 25  2  0
 25 26  1  0
 27 26  2  0
 28 27  1  0
 29 28  2  0
 30 29  1  0
 31 32  1  0
 31 30  2  0
 32 33  2  0
 33 24  1  0
 33 28  1  0
  1 34  1  0
  2 35  1  0
  7 36  1  0
  7 37  1  0
  8 38  1  0
  8 39  1  0
 10 40  1  0
 11 41  1  0
 13 42  1  0
 14 43  1  0
 15 44  1  0
 19 45  1  0
 22 46  1  0
 26 47  1  0
 29 48  1  0
 30 49  1  0
 31 50  1  0
 32 51  1  0
M  END
>  <minimizedAffinity>  (1) 
-8.05457401

>  <minimizedRMSD>  (1) 
0.754181743

$$$$
