
     RDKit          3D

 35 38  0  0  1  0  0  0  0  0999 V2000
   37.0390   27.0260   41.5430 C   0  0  0  0  0  0  0  0  0  0  0  0
   37.1200   26.0740   42.5620 C   0  0  0  0  0  0  0  0  0  0  0  0
   36.9370   24.7460   42.2770 C   0  0  0  0  0  0  0  0  0  0  0  0
   36.6690   24.3830   40.9490 C   0  0  0  0  0  0  0  0  0  0  0  0
   36.5960   25.3240   39.9630 C   0  0  0  0  0  0  0  0  0  0  0  0
   36.7910   26.6770   40.2860 C   0  0  0  0  0  0  0  0  0  0  0  0
   38.3430   29.1900   41.9120 C   0  0  1  0  0  0  0  0  0  0  0  0
   37.6560   28.8640   43.1770 C   0  0  0  0  0  0  0  0  0  0  0  0
   36.9700   28.4440   41.9630 C   0  0  2  0  0  0  0  0  0  0  0  0
   38.2090   30.5970   41.3430 C   0  0  0  0  0  0  0  0  0  0  0  0
   37.0390   30.9300   40.5790 C   0  0  0  0  0  0  0  0  0  0  0  0
   36.9570   32.1970   40.0960 C   0  0  0  0  0  0  0  0  0  0  0  0
   37.9880   33.0840   40.3630 N   0  0  0  0  0  0  0  0  0  0  0  0
   39.0650   32.7400   41.0820 C   0  0  0  0  0  0  0  0  0  0  0  0
   39.1770   31.4640   41.5830 N   0  0  0  0  0  0  0  0  0  0  0  0
   36.6970   27.3410   39.0040 C   0  0  0  0  0  0  0  0  0  0  0  0
   35.5380   27.4470   38.2540 C   0  0  0  0  0  0  0  0  0  0  0  0
   35.3350   28.1480   37.0960 C   0  0  0  0  0  0  0  0  0  0  0  0
   36.3970   28.8200   36.6280 N   0  0  0  0  0  0  0  0  0  0  0  0
   37.5580   28.7700   37.2950 C   0  0  0  0  0  0  0  0  0  0  0  0
   37.6770   28.0590   38.4250 N   0  0  0  0  0  0  0  0  0  0  0  0
   37.3309   26.3905   43.5942 H   0  0  0  0  0  0  0  0  0  0  0  0
   36.9987   23.9849   43.0688 H   0  0  0  0  0  0  0  0  0  0  0  0
   36.5152   23.3231   40.6981 H   0  0  0  0  0  0  0  0  0  0  0  0
   36.3864   25.0256   38.9252 H   0  0  0  0  0  0  0  0  0  0  0  0
   39.3666   29.0288   41.5429 H   0  0  0  0  0  0  0  0  0  0  0  0
   38.0875   28.1011   43.8416 H   0  0  0  0  0  0  0  0  0  0  0  0
   37.3482   29.4699   44.0419 H   0  0  0  0  0  0  0  0  0  0  0  0
   35.9470   28.5849   41.5839 H   0  0  0  0  0  0  0  0  0  0  0  0
   36.2448   30.1919   40.3933 H   0  0  0  0  0  0  0  0  0  0  0  0
   36.0866   32.5138   39.5027 H   0  0  0  0  0  0  0  0  0  0  0  0
   39.8589   33.4774   41.2714 H   0  0  0  0  0  0  0  0  0  0  0  0
   34.6670   26.8962   38.6388 H   0  0  0  0  0  0  0  0  0  0  0  0
   34.3626   28.1594   36.5819 H   0  0  0  0  0  0  0  0  0  0  0  0
   38.4279   29.3216   36.9088 H   0  0  0  0  0  0  0  0  0  0  0  0
  1  9  1  0
  1  2  2  0
  3  2  1  0
  4  3  2  0
  5  6  2  0
  5  4  1  0
  6  1  1  0
  7  9  1  0
  7  8  1  0
  9  8  1  0
 10 15  1  0
 10  7  1  0
 11 10  2  0
 12 13  2  0
 12 11  1  0
 13 14  1  0
 14 15  2  0
 16  6  1  0
 17 16  2  0
 18 17  1  0
 19 18  2  0
 19 20  1  0
 20 21  2  0
 21 16  1  0
  2 22  1  0
  3 23  1  0
  4 24  1  0
  5 25  1  0
  7 26  1  1
  8 27  1  0
  8 28  1  0
  9 29  1  6
 11 30  1  0
 12 31  1  0
 14 32  1  0
 17 33  1  0
 18 34  1  0
 20 35  1  0
M  ISO  8  22  14  23  14  24  14  25  14  26  13  27  13  28  13  29  13
M  ISO  6  30  14  31  14  32  14  33  14  34  14  35  14
M  END
>  <minimizedAffinity>  (1) 
-5.43138885

>  <minimizedRMSD>  (1) 
0.904054761

$$$$
