
     RDKit          3D

 35 38  0  0  0  0  0  0  0  0999 V2000
   39.1980   29.6800   42.6420 C   0  0  0  0  0  0  0  0  0  0  0  0
   36.6660   31.4760   40.4530 C   0  0  0  0  0  0  0  0  0  0  0  0
   37.2580   30.4910   41.2900 C   0  0  0  0  0  0  0  0  0  0  0  0
   38.5370   30.6770   41.7660 C   0  0  0  0  0  0  0  0  0  0  0  0
   39.1930   31.8240   41.4040 N   0  0  0  0  0  0  0  0  0  0  0  0
   38.6140   32.7560   40.6040 C   0  0  0  0  0  0  0  0  0  0  0  0
   37.3860   32.5780   40.1470 N   0  0  0  0  0  0  0  0  0  0  0  0
   39.3650   33.9730   40.2440 C   0  0  0  0  0  0  0  0  0  0  0  0
   40.6490   33.8400   39.7060 C   0  0  0  0  0  0  0  0  0  0  0  0
   41.3300   34.9930   39.3780 C   0  0  0  0  0  0  0  0  0  0  0  0
   40.7560   36.1880   39.5780 N   0  0  0  0  0  0  0  0  0  0  0  0
   39.5030   36.2840   40.1050 C   0  0  0  0  0  0  0  0  0  0  0  0
   38.8090   35.1820   40.4370 N   0  0  0  0  0  0  0  0  0  0  0  0
   39.3970   28.4170   41.9130 C   0  0  0  0  0  0  0  0  0  0  0  0
   40.2320   27.9730   40.9620 C   0  0  0  0  0  0  0  0  0  0  0  0
   40.1710   26.7180   40.4750 C   0  0  0  0  0  0  0  0  0  0  0  0
   39.1230   25.9380   41.0880 C   0  0  0  0  0  0  0  0  0  0  0  0
   38.3600   27.0000   42.2420 S   0  0  0  0  0  0  0  0  0  0  0  0
   38.7880   24.5530   40.7930 C   0  0  0  0  0  0  0  0  0  0  0  0
   39.1910   23.8670   39.7070 C   0  0  0  0  0  0  0  0  0  0  0  0
   38.6220   22.6080   39.8760 C   0  0  0  0  0  0  0  0  0  0  0  0
   37.9070   22.5780   41.0400 N   0  0  0  0  0  0  0  0  0  0  0  0
   38.0260   23.7820   41.5830 N   0  0  0  0  0  0  0  0  0  0  0  0
   40.1741   30.0707   42.9655 H   0  0  0  0  0  0  0  0  0  0  0  0
   38.5600   29.4925   43.5182 H   0  0  0  0  0  0  0  0  0  0  0  0
   35.6457   31.3442   40.0635 H   0  0  0  0  0  0  0  0  0  0  0  0
   36.6965   29.5834   41.5565 H   0  0  0  0  0  0  0  0  0  0  0  0
   41.1003   32.8491   39.5498 H   0  0  0  0  0  0  0  0  0  0  0  0
   42.3427   34.9326   38.9529 H   0  0  0  0  0  0  0  0  0  0  0  0
   39.0539   37.2760   40.2606 H   0  0  0  0  0  0  0  0  0  0  0  0
   40.9949   28.6587   40.5648 H   0  0  0  0  0  0  0  0  0  0  0  0
   40.8452   26.3311   39.6967 H   0  0  0  0  0  0  0  0  0  0  0  0
   39.8231   24.2195   38.8786 H   0  0  0  0  0  0  0  0  0  0  0  0
   38.7314   21.7648   39.1781 H   0  0  0  0  0  0  0  0  0  0  0  0
   37.3801   21.7788   41.4203 H   0  0  0  0  0  0  0  0  0  0  0  0
  2  3  2  0
  3  4  1  0
  4  1  1  0
  5  4  2  0
  6  5  1  0
  7  2  1  0
  7  6  2  0
  8 13  1  0
  8  6  1  0
  9  8  2  0
 10 11  2  0
 10  9  1  0
 11 12  1  0
 12 13  2  0
 14 18  1  0
 14  1  1  0
 15 14  2  0
 16 15  1  0
 16 17  2  0
 17 18  1  0
 19 17  1  0
 19 23  2  0
 20 21  2  0
 20 19  1  0
 21 22  1  0
 22 23  1  0
  1 24  1  0
  1 25  1  0
  2 26  1  0
  3 27  1  0
  9 28  1  0
 10 29  1  0
 12 30  1  0
 15 31  1  0
 16 32  1  0
 20 33  1  0
 21 34  1  0
 22 35  1  0
M  ISO  8  24   8  25   8  26  14  27  14  28  14  29  14  30  14  31  14
M  ISO  4  32  14  33  14  34  14  35   9
M  END
>  <minimizedAffinity>  (1) 
-5.58540535

>  <minimizedRMSD>  (1) 
3.80110931

$$$$
