
     RDKit          3D

 31 33  0  0  1  0  0  0  0  0999 V2000
   36.7210   30.5110   40.4300 C   0  0  1  0  0  0  0  0  0  0  0  0
   37.4260   31.8150   40.6220 C   0  0  0  0  0  0  0  0  0  0  0  0
   37.0870   32.5090   39.3090 C   0  0  0  0  0  0  0  0  0  0  0  0
   37.0670   31.3800   38.2970 C   0  0  0  0  0  0  0  0  0  0  0  0
   37.1650   30.0770   39.0800 C   0  0  2  0  0  0  0  0  0  0  0  0
   38.2930   28.9900   43.3800 C   0  0  0  0  0  0  0  0  0  0  0  0
   37.4850   27.8250   43.6100 C   0  0  0  0  0  0  0  0  0  0  0  0
   36.4150   27.5970   42.7250 C   0  0  0  0  0  0  0  0  0  0  0  0
   36.1870   28.4640   41.7070 N   0  0  0  0  0  0  0  0  0  0  0  0
   36.9890   29.5590   41.5320 C   0  0  0  0  0  0  0  0  0  0  0  0
   38.0150   29.8170   42.3450 N   0  0  0  0  0  0  0  0  0  0  0  0
   36.3380   29.0840   38.4000 C   0  0  0  0  0  0  0  0  0  0  0  0
   34.9470   29.1080   38.2830 C   0  0  0  0  0  0  0  0  0  0  0  0
   34.2520   28.1160   37.6150 C   0  0  0  0  0  0  0  0  0  0  0  0
   34.9290   27.1090   37.0700 N   0  0  0  0  0  0  0  0  0  0  0  0
   36.2850   27.0500   37.1620 C   0  0  0  0  0  0  0  0  0  0  0  0
   36.9230   28.0140   37.8070 N   0  0  0  0  0  0  0  0  0  0  0  0
   35.6241   30.5832   40.4713 H   0  0  0  0  0  0  0  0  0  0  0  0
   37.0304   32.3671   41.4873 H   0  0  0  0  0  0  0  0  0  0  0  0
   38.5026   31.7280   40.8302 H   0  0  0  0  0  0  0  0  0  0  0  0
   36.1044   33.0000   39.3677 H   0  0  0  0  0  0  0  0  0  0  0  0
   37.8051   33.3005   39.0487 H   0  0  0  0  0  0  0  0  0  0  0  0
   37.9214   31.4731   37.6104 H   0  0  0  0  0  0  0  0  0  0  0  0
   36.1460   31.4082   37.6962 H   0  0  0  0  0  0  0  0  0  0  0  0
   38.1454   29.5839   39.1551 H   0  0  0  0  0  0  0  0  0  0  0  0
   39.1398   29.2107   44.0465 H   0  0  0  0  0  0  0  0  0  0  0  0
   37.6941   27.1389   44.4440 H   0  0  0  0  0  0  0  0  0  0  0  0
   35.7659   26.7190   42.8582 H   0  0  0  0  0  0  0  0  0  0  0  0
   34.3874   29.9401   38.7352 H   0  0  0  0  0  0  0  0  0  0  0  0
   33.1557   28.1592   37.5356 H   0  0  0  0  0  0  0  0  0  0  0  0
   36.8412   26.2163   36.7086 H   0  0  0  0  0  0  0  0  0  0  0  0
  1  2  1  0
  1 10  1  0
  3  2  1  0
  4  5  1  0
  4  3  1  0
  5  1  1  0
  6  7  2  0
  8  7  1  0
  9  8  2  0
 10  9  1  0
 10 11  2  0
 11  6  1  0
 12  5  1  0
 13 12  2  0
 14 13  1  0
 15 16  1  0
 15 14  2  0
 16 17  2  0
 17 12  1  0
  1 18  1  6
  2 19  1  0
  2 20  1  0
  3 21  1  0
  3 22  1  0
  4 23  1  0
  4 24  1  0
  5 25  1  1
  6 26  1  0
  7 27  1  0
  8 28  1  0
 13 29  1  0
 14 30  1  0
 16 31  1  0
M  ISO  8  18  13  19  13  20  13  21  13  22  13  23  13  24  13  25  13
M  ISO  6  26  14  27  14  28  14  29  14  30  14  31  14
M  END
>  <minimizedAffinity>  (1) 
-4.62729263

>  <minimizedRMSD>  (1) 
1.70853913

$$$$
