
     RDKit          3D

 54 58  0  0  0  0  0  0  0  0999 V2000
   39.3200   31.0180   41.4620 C   0  0  0  0  0  0  0  0  0  0  0  0
   39.3570   29.6330   41.3960 C   0  0  0  0  0  0  0  0  0  0  0  0
   38.7120   28.9890   40.3220 C   0  0  0  0  0  0  0  0  0  0  0  0
   38.0860   29.8240   39.4100 N   0  0  0  0  0  0  0  0  0  0  0  0
   38.0860   31.1530   39.5290 C   0  0  0  0  0  0  0  0  0  0  0  0
   38.6940   31.7490   40.5410 N   0  0  0  0  0  0  0  0  0  0  0  0
   40.0050   28.7530   42.3460 C   0  0  0  0  0  0  0  0  0  0  0  0
   39.5330   28.0560   43.3600 N   0  0  0  0  0  0  0  0  0  0  0  0
   40.4690   27.3940   43.9420 O   0  0  0  0  0  0  0  0  0  0  0  0
   41.6090   27.6100   43.3580 C   0  0  0  0  0  0  0  0  0  0  0  0
   41.3400   28.4660   42.3470 N   0  0  0  0  0  0  0  0  0  0  0  0
   42.9420   27.1620   43.5650 N   0  0  0  0  0  0  0  0  0  0  0  0
   43.7620   27.2500   42.5000 C   0  0  0  0  0  0  0  0  0  0  0  0
   45.0730   26.8470   42.6170 C   0  0  0  0  0  0  0  0  0  0  0  0
   45.4380   26.3690   43.8750 C   0  0  0  0  0  0  0  0  0  0  0  0
   46.6320   25.9900   44.0310 O   0  0  0  0  0  0  0  0  0  0  0  0
   44.5920   26.2910   44.9340 N   0  0  0  0  0  0  0  0  0  0  0  0
   43.3370   26.6930   44.7640 C   0  0  0  0  0  0  0  0  0  0  0  0
   42.5240   26.6400   45.7100 O   0  0  0  0  0  0  0  0  0  0  0  0
   37.3710   31.9120   38.4780 C   0  0  0  0  0  0  0  0  0  0  0  0
   36.8440   33.0600   39.0010 F   0  0  0  0  0  0  0  0  0  0  0  0
   38.2230   32.2350   37.4500 F   0  0  0  0  0  0  0  0  0  0  0  0
   36.3200   31.1580   37.9760 F   0  0  0  0  0  0  0  0  0  0  0  0
   38.6250   27.5210   40.0610 C   0  0  0  0  0  0  0  0  0  0  0  0
   39.9610   26.8510   39.8820 C   0  0  0  0  0  0  0  0  0  0  0  0
   38.0000   27.3710   38.6240 C   0  0  0  0  0  0  0  0  0  0  0  0
   37.6760   26.7970   40.9400 C   0  0  0  0  0  0  0  0  0  0  0  0
   37.9540   25.3180   41.0580 C   0  0  0  0  0  0  0  0  0  0  0  0
   38.7210   24.7010   42.0590 C   0  0  0  0  0  0  0  0  0  0  0  0
   38.7470   23.3640   41.9360 N   0  0  0  0  0  0  0  0  0  0  0  0
   38.0080   23.0490   40.8600 C   0  0  0  0  0  0  0  0  0  0  0  0
   37.6900   21.8540   40.2480 C   0  0  0  0  0  0  0  0  0  0  0  0
   36.8940   21.8070   39.0990 C   0  0  0  0  0  0  0  0  0  0  0  0
   36.4010   22.9960   38.5450 C   0  0  0  0  0  0  0  0  0  0  0  0
   36.7620   24.1450   39.2120 C   0  0  0  0  0  0  0  0  0  0  0  0
   37.5380   24.2310   40.3410 C   0  0  0  0  0  0  0  0  0  0  0  0
   39.8216   31.5270   42.2983 H   0  0  0  0  0  0  0  0  0  0  0  0
   43.3865   27.6414   41.5430 H   0  0  0  0  0  0  0  0  0  0  0  0
   45.7823   26.8984   41.7778 H   0  0  0  0  0  0  0  0  0  0  0  0
   44.9139   25.9304   45.8435 H   0  0  0  0  0  0  0  0  0  0  0  0
   40.3967   26.6325   40.8681 H   0  0  0  0  0  0  0  0  0  0  0  0
   39.8287   25.9126   39.3235 H   0  0  0  0  0  0  0  0  0  0  0  0
   40.6339   27.5183   39.3235 H   0  0  0  0  0  0  0  0  0  0  0  0
   36.9339   27.1151   38.7127 H   0  0  0  0  0  0  0  0  0  0  0  0
   38.1051   28.3199   38.0776 H   0  0  0  0  0  0  0  0  0  0  0  0
   38.5243   26.5732   38.0776 H   0  0  0  0  0  0  0  0  0  0  0  0
   37.7290   27.2401   41.9454 H   0  0  0  0  0  0  0  0  0  0  0  0
   36.6800   26.8981   40.4843 H   0  0  0  0  0  0  0  0  0  0  0  0
   39.2427   25.2516   42.8556 H   0  0  0  0  0  0  0  0  0  0  0  0
   39.2416   22.7033   42.5522 H   0  0  0  0  0  0  0  0  0  0  0  0
   38.0721   20.9148   40.6744 H   0  0  0  0  0  0  0  0  0  0  0  0
   36.6558   20.8401   38.6318 H   0  0  0  0  0  0  0  0  0  0  0  0
   35.7715   23.0103   37.6430 H   0  0  0  0  0  0  0  0  0  0  0  0
   36.3897   25.0932   38.7968 H   0  0  0  0  0  0  0  0  0  0  0  0
  2  1  2  0
  2  7  1  0
  3  2  1  0
  4  5  1  0
  4  3  2  0
  5  6  2  0
  6  1  1  0
  7 11  1  0
  7  8  2  0
  8  9  1  0
 10 12  1  0
 10  9  1  0
 11 10  2  0
 12 18  1  0
 13 14  2  0
 13 12  1  0
 14 15  1  0
 15 16  2  0
 15 17  1  0
 18 17  1  0
 18 19  2  0
 20 21  1  0
 20  5  1  0
 22 20  1  0
 23 20  1  0
 24  3  1  0
 24 27  1  0
 25 24  1  0
 26 24  1  0
 27 28  1  0
 28 29  2  0
 30 29  1  0
 31 30  1  0
 32 31  2  0
 33 32  1  0
 34 33  2  0
 34 35  1  0
 35 36  2  0
 36 31  1  0
 36 28  1  0
  1 37  1  0
 13 38  1  0
 14 39  1  0
 17 40  1  0
 25 41  1  0
 25 42  1  0
 25 43  1  0
 26 44  1  0
 26 45  1  0
 26 46  1  0
 27 47  1  0
 27 48  1  0
 29 49  1  0
 30 50  1  0
 32 51  1  0
 33 52  1  0
 34 53  1  0
 35 54  1  0
M  ISO  8  37  14  38  14  39  14  40   9  41   8  42   8  43   8  44   8
M  ISO  8  45   8  46   8  47   8  48   8  49  14  50   9  51  14  52  14
M  ISO  2  53  14  54  14
M  END
>  <minimizedAffinity>  (1) 
-6.05417013

>  <minimizedRMSD>  (1) 
1.27575636

$$$$
