
     RDKit          3D

 36 39  0  0  1  0  0  0  0  0999 V2000
   37.9630   27.3760   42.7460 C   0  0  2  0  0  0  0  0  0  0  0  0
   39.0520   27.6610   43.6860 C   0  0  0  0  0  0  0  0  0  0  0  0
   39.7780   26.3420   43.8600 C   0  0  0  0  0  0  0  0  0  0  0  0
   39.3200   25.4640   42.7390 C   0  0  0  0  0  0  0  0  0  0  0  0
   38.5620   26.3760   41.7730 C   0  0  1  0  0  0  0  0  0  0  0  0
   38.0180   29.7810   41.9260 C   0  0  0  0  0  0  0  0  0  0  0  0
   37.3760   28.5200   42.0650 C   0  0  0  0  0  0  0  0  0  0  0  0
   36.1160   28.3480   41.5170 C   0  0  0  0  0  0  0  0  0  0  0  0
   35.5450   29.4190   40.8580 N   0  0  0  0  0  0  0  0  0  0  0  0
   36.1870   30.6240   40.7390 C   0  0  0  0  0  0  0  0  0  0  0  0
   37.4330   30.7890   41.2830 N   0  0  0  0  0  0  0  0  0  0  0  0
   37.5590   25.4360   41.1930 C   0  0  0  0  0  0  0  0  0  0  0  0
   36.8870   24.5390   41.9310 N   0  0  0  0  0  0  0  0  0  0  0  0
   36.0970   23.8780   41.1110 O   0  0  0  0  0  0  0  0  0  0  0  0
   36.2690   24.3480   39.8900 C   0  0  0  0  0  0  0  0  0  0  0  0
   37.1740   25.3210   39.9010 N   0  0  0  0  0  0  0  0  0  0  0  0
   35.5260   23.8140   38.7320 C   0  0  0  0  0  0  0  0  0  0  0  0
   34.4810   22.9310   38.9830 C   0  0  0  0  0  0  0  0  0  0  0  0
   33.8270   22.4720   37.8380 C   0  0  0  0  0  0  0  0  0  0  0  0
   34.1660   22.8400   36.6030 N   0  0  0  0  0  0  0  0  0  0  0  0
   35.1990   23.7080   36.4250 C   0  0  0  0  0  0  0  0  0  0  0  0
   35.8870   24.2010   37.4920 N   0  0  0  0  0  0  0  0  0  0  0  0
   37.0932   26.9942   43.3007 H   0  0  0  0  0  0  0  0  0  0  0  0
   39.7292   28.4231   43.2730 H   0  0  0  0  0  0  0  0  0  0  0  0
   38.6785   28.0554   44.6425 H   0  0  0  0  0  0  0  0  0  0  0  0
   40.8659   26.4951   43.8047 H   0  0  0  0  0  0  0  0  0  0  0  0
   39.5599   25.8899   44.8388 H   0  0  0  0  0  0  0  0  0  0  0  0
   40.1837   25.0062   42.2345 H   0  0  0  0  0  0  0  0  0  0  0  0
   38.6833   24.6442   43.1031 H   0  0  0  0  0  0  0  0  0  0  0  0
   39.0875   26.8983   40.9600 H   0  0  0  0  0  0  0  0  0  0  0  0
   39.0188   29.9266   42.3588 H   0  0  0  0  0  0  0  0  0  0  0  0
   35.5862   27.3879   41.6039 H   0  0  0  0  0  0  0  0  0  0  0  0
   35.7027   31.4566   40.2078 H   0  0  0  0  0  0  0  0  0  0  0  0
   34.1939   22.6204   39.9984 H   0  0  0  0  0  0  0  0  0  0  0  0
   32.9888   21.7705   37.9618 H   0  0  0  0  0  0  0  0  0  0  0  0
   35.4816   24.0150   35.4072 H   0  0  0  0  0  0  0  0  0  0  0  0
  1  2  1  0
  2  3  1  0
  4  3  1  0
  5  4  1  0
  5  1  1  0
  6  7  2  0
  7  1  1  0
  8  7  1  0
  9  8  2  0
 10  9  1  0
 10 11  2  0
 11  6  1  0
 12  5  1  0
 12 13  2  0
 14 13  1  0
 15 16  2  0
 15 14  1  0
 16 12  1  0
 17 18  2  0
 17 15  1  0
 19 18  1  0
 20 19  2  0
 21 20  1  0
 21 22  2  0
 22 17  1  0
  1 23  1  1
  2 24  1  0
  2 25  1  0
  3 26  1  0
  3 27  1  0
  4 28  1  0
  4 29  1  0
  5 30  1  6
  6 31  1  0
  8 32  1  0
 10 33  1  0
 18 34  1  0
 19 35  1  0
 21 36  1  0
M  ISO  8  23  13  24  13  25  13  26  13  27  13  28  13  29  13  30  13
M  ISO  6  31  14  32  14  33  14  34  14  35  14  36  14
M  END
>  <minimizedAffinity>  (1) 
-4.96200371

>  <minimizedRMSD>  (1) 
0.571915746

$$$$
