
     RDKit          3D

 43 46  0  0  1  0  0  0  0  0999 V2000
   34.0890   26.7850   37.1450 N   0  0  0  0  0  0  0  0  0  0  0  0
   33.8390   28.1150   37.6710 C   0  0  0  0  0  0  0  0  0  0  0  0
   34.5790   29.1970   36.9300 C   0  0  0  0  0  0  0  0  0  0  0  0
   35.8580   28.6890   36.3090 C   0  0  2  0  0  0  0  0  0  0  0  0
   36.4300   27.5310   37.0840 C   0  0  0  0  0  0  0  0  0  0  0  0
   35.4670   26.3940   37.2060 C   0  0  1  0  0  0  0  0  0  0  0  0
   35.7490   25.4840   38.3180 C   0  0  0  0  0  0  0  0  0  0  0  0
   36.5820   25.7000   39.3970 C   0  0  0  0  0  0  0  0  0  0  0  0
   36.7140   24.7100   40.3460 C   0  0  0  0  0  0  0  0  0  0  0  0
   36.0630   23.5190   40.2820 N   0  0  0  0  0  0  0  0  0  0  0  0
   35.2540   23.3460   39.2080 C   0  0  0  0  0  0  0  0  0  0  0  0
   35.0940   24.2990   38.2440 N   0  0  0  0  0  0  0  0  0  0  0  0
   37.0920   30.0120   36.4070 S   0  0  0  0  0  0  0  0  0  0  0  0
   37.2150   30.4450   40.4070 C   0  0  0  0  0  0  0  0  0  0  0  0
   37.2650   31.8050   40.6080 C   0  0  0  0  0  0  0  0  0  0  0  0
   37.2620   32.6360   39.4950 C   0  0  0  0  0  0  0  0  0  0  0  0
   37.2090   32.0620   38.2380 C   0  0  0  0  0  0  0  0  0  0  0  0
   37.1590   30.6960   38.0510 C   0  0  0  0  0  0  0  0  0  0  0  0
   37.1630   29.9100   39.1480 N   0  0  0  0  0  0  0  0  0  0  0  0
   38.1610   28.9190   43.5890 C   0  0  0  0  0  0  0  0  0  0  0  0
   37.2770   27.8390   43.7050 C   0  0  0  0  0  0  0  0  0  0  0  0
   36.3390   27.6340   42.6670 C   0  0  0  0  0  0  0  0  0  0  0  0
   36.3650   28.4970   41.6390 N   0  0  0  0  0  0  0  0  0  0  0  0
   37.2160   29.5240   41.5440 C   0  0  0  0  0  0  0  0  0  0  0  0
   38.0940   29.7140   42.5190 N   0  0  0  0  0  0  0  0  0  0  0  0
   33.7872   26.7620   36.1605 H   0  0  0  0  0  0  0  0  0  0  0  0
   32.7604   28.3203   37.6033 H   0  0  0  0  0  0  0  0  0  0  0  0
   34.1986   28.1273   38.7105 H   0  0  0  0  0  0  0  0  0  0  0  0
   33.9295   29.5890   36.1335 H   0  0  0  0  0  0  0  0  0  0  0  0
   34.8430   29.9825   37.6534 H   0  0  0  0  0  0  0  0  0  0  0  0
   35.6333   28.3758   35.2787 H   0  0  0  0  0  0  0  0  0  0  0  0
   37.3343   27.1741   36.5693 H   0  0  0  0  0  0  0  0  0  0  0  0
   36.6575   27.8875   38.0995 H   0  0  0  0  0  0  0  0  0  0  0  0
   35.6454   25.8036   36.2952 H   0  0  0  0  0  0  0  0  0  0  0  0
   37.1317   26.6474   39.4977 H   0  0  0  0  0  0  0  0  0  0  0  0
   37.3817   24.8934   41.2007 H   0  0  0  0  0  0  0  0  0  0  0  0
   34.7039   22.3986   39.1094 H   0  0  0  0  0  0  0  0  0  0  0  0
   37.3063   32.2237   41.6243 H   0  0  0  0  0  0  0  0  0  0  0  0
   37.3010   33.7292   39.6112 H   0  0  0  0  0  0  0  0  0  0  0  0
   37.2066   32.7183   37.3552 H   0  0  0  0  0  0  0  0  0  0  0  0
   38.9061   29.1109   44.3751 H   0  0  0  0  0  0  0  0  0  0  0  0
   37.3114   27.1701   44.5776 H   0  0  0  0  0  0  0  0  0  0  0  0
   35.6189   26.8031   42.7004 H   0  0  0  0  0  0  0  0  0  0  0  0
  1  6  1  0
  1  2  1  0
  3  2  1  0
  4 13  1  0
  4  3  1  0
  4  5  1  0
  5  6  1  0
  6  7  1  0
  7  8  2  0
  8  9  1  0
 10  9  2  0
 11 10  1  0
 12  7  1  0
 12 11  2  0
 13 18  1  0
 14 15  2  0
 14 24  1  0
 16 15  1  0
 17 16  2  0
 18 17  1  0
 18 19  2  0
 19 14  1  0
 20 21  2  0
 22 21  1  0
 23 22  2  0
 24 23  1  0
 24 25  2  0
 25 20  1  0
  1 26  1  0
  2 27  1  0
  2 28  1  0
  3 29  1  0
  3 30  1  0
  4 31  1  6
  5 32  1  0
  5 33  1  0
  6 34  1  6
  8 35  1  0
  9 36  1  0
 11 37  1  0
 15 38  1  0
 16 39  1  0
 17 40  1  0
 20 41  1  0
 21 42  1  0
 22 43  1  0
M  ISO  8  26   5  27  13  28  13  29  13  30  13  31  13  32  13  33  13
M  ISO  8  34  13  35  14  36  14  37  14  38  14  39  14  40  14  41  14
M  ISO  2  42  14  43  14
M  END
>  <minimizedAffinity>  (1) 
-5.27292919

>  <minimizedRMSD>  (1) 
1.1482507

$$$$
