
     RDKit          3D

 32 35  0  0  0  0  0  0  0  0999 V2000
   44.5720   26.3100   44.4570 C   0  0  0  0  0  0  0  0  0  0  0  0
   43.4050   26.3520   43.6690 C   0  0  0  0  0  0  0  0  0  0  0  0
   42.2430   26.9140   44.1800 C   0  0  0  0  0  0  0  0  0  0  0  0
   42.2850   27.4190   45.4650 N   0  0  0  0  0  0  0  0  0  0  0  0
   43.4220   27.3590   46.1850 C   0  0  0  0  0  0  0  0  0  0  0  0
   44.5430   26.8190   45.6980 N   0  0  0  0  0  0  0  0  0  0  0  0
   43.4040   25.8060   42.3150 C   0  0  0  0  0  0  0  0  0  0  0  0
   42.2760   25.3850   41.6400 C   0  0  0  0  0  0  0  0  0  0  0  0
   42.6850   24.9330   40.3830 C   0  0  0  0  0  0  0  0  0  0  0  0
   44.0190   25.0890   40.3320 N   0  0  0  0  0  0  0  0  0  0  0  0
   44.4410   25.6000   41.4590 N   0  0  0  0  0  0  0  0  0  0  0  0
   43.3870   27.9280   47.5690 C   0  0  0  0  0  0  0  0  0  0  0  0
   43.4120   29.3210   47.5340 F   0  0  0  0  0  0  0  0  0  0  0  0
   42.1840   27.6240   48.2090 F   0  0  0  0  0  0  0  0  0  0  0  0
   44.4910   27.5430   48.3190 F   0  0  0  0  0  0  0  0  0  0  0  0
   41.1390   26.9320   43.3820 O   0  0  0  0  0  0  0  0  0  0  0  0
   37.1490   29.0980   43.3350 N   0  0  0  0  0  0  0  0  0  0  0  0
   37.0200   27.8340   43.7510 C   0  0  0  0  0  0  0  0  0  0  0  0
   38.2550   27.2760   43.7300 N   0  0  0  0  0  0  0  0  0  0  0  0
   39.1790   28.1780   43.3020 C   0  0  0  0  0  0  0  0  0  0  0  0
   40.5450   28.1400   43.0990 C   0  0  0  0  0  0  0  0  0  0  0  0
   41.1430   29.2680   42.6510 N   0  0  0  0  0  0  0  0  0  0  0  0
   40.4300   30.3810   42.4160 C   0  0  0  0  0  0  0  0  0  0  0  0
   39.0840   30.4470   42.6080 N   0  0  0  0  0  0  0  0  0  0  0  0
   38.4420   29.3360   43.0570 C   0  0  0  0  0  0  0  0  0  0  0  0
   45.4961   25.8651   44.0595 H   0  0  0  0  0  0  0  0  0  0  0  0
   41.2445   25.4022   42.0217 H   0  0  0  0  0  0  0  0  0  0  0  0
   42.0403   24.5280   39.5890 H   0  0  0  0  0  0  0  0  0  0  0  0
   44.6163   24.8440   39.5294 H   0  0  0  0  0  0  0  0  0  0  0  0
   36.3818   29.7789   43.2426 H   0  0  0  0  0  0  0  0  0  0  0  0
   36.0855   27.3390   44.0539 H   0  0  0  0  0  0  0  0  0  0  0  0
   40.9553   31.2768   42.0532 H   0  0  0  0  0  0  0  0  0  0  0  0
  1  6  2  0
  2  3  2  0
  2  1  1  0
  3  4  1  0
  4  5  2  0
  5 12  1  0
  6  5  1  0
  7  2  1  0
  8  7  1  0
  9  8  2  0
 10  9  1  0
 10 11  1  0
 11  7  2  0
 12 14  1  0
 12 15  1  0
 13 12  1  0
 16  3  1  0
 17 18  1  0
 19 18  2  0
 20 19  1  0
 21 20  2  0
 21 16  1  0
 22 21  1  0
 23 24  1  0
 23 22  2  0
 24 25  2  0
 25 20  1  0
 25 17  1  0
  1 26  1  0
  8 27  1  0
  9 28  1  0
 10 29  1  0
 17 30  1  0
 18 31  1  0
 23 32  1  0
M  ISO  7  26  14  27  14  28  14  29   9  30   9  31  14  32  14
M  END
>  <minimizedAffinity>  (1) 
-5.58965921

>  <minimizedRMSD>  (1) 
0.0821639523

$$$$
