
     RDKit          3D

 24 26  0  0  1  0  0  0  0  0999 V2000
   37.7530   30.3340   40.3500 C   0  0  1  0  0  0  0  0  0  0  0  0
   36.5980   30.7100   39.5690 C   0  0  0  0  0  0  0  0  0  0  0  0
   36.9480   31.6320   40.6930 C   0  0  2  0  0  0  0  0  0  0  0  0
   37.6850   29.2790   41.4290 C   0  0  0  0  0  0  0  0  0  0  0  0
   38.7820   29.2220   42.3120 C   0  0  0  0  0  0  0  0  0  0  0  0
   38.7330   28.2450   43.2930 C   0  0  0  0  0  0  0  0  0  0  0  0
   37.6520   27.4150   43.3500 N   0  0  0  0  0  0  0  0  0  0  0  0
   36.6150   27.4950   42.4880 C   0  0  0  0  0  0  0  0  0  0  0  0
   36.6360   28.4410   41.5160 N   0  0  0  0  0  0  0  0  0  0  0  0
   37.6510   32.8960   40.3680 C   0  0  0  0  0  0  0  0  0  0  0  0
   38.8580   33.2940   40.9180 C   0  0  0  0  0  0  0  0  0  0  0  0
   39.1650   34.5200   40.3530 C   0  0  0  0  0  0  0  0  0  0  0  0
   38.1580   34.8040   39.5100 N   0  0  0  0  0  0  0  0  0  0  0  0
   37.2360   33.8520   39.4960 N   0  0  0  0  0  0  0  0  0  0  0  0
   38.7716   30.0408   40.0558 H   0  0  0  0  0  0  0  0  0  0  0  0
   36.7375   31.0493   38.5320 H   0  0  0  0  0  0  0  0  0  0  0  0
   35.6745   30.1811   39.2907 H   0  0  0  0  0  0  0  0  0  0  0  0
   36.4052   32.0588   41.5493 H   0  0  0  0  0  0  0  0  0  0  0  0
   39.6313   29.9158   42.2268 H   0  0  0  0  0  0  0  0  0  0  0  0
   39.5550   28.1400   44.0164 H   0  0  0  0  0  0  0  0  0  0  0  0
   35.7648   26.8022   42.5731 H   0  0  0  0  0  0  0  0  0  0  0  0
   39.4561   32.7435   41.6591 H   0  0  0  0  0  0  0  0  0  0  0  0
   40.0535   35.1368   40.5536 H   0  0  0  0  0  0  0  0  0  0  0  0
   38.1084   35.6613   38.9412 H   0  0  0  0  0  0  0  0  0  0  0  0
  1  3  1  0
  1  4  1  0
  2  1  1  0
  2  3  1  0
  4  9  1  0
  4  5  2  0
  5  6  1  0
  6  7  2  0
  8  7  1  0
  9  8  2  0
 10  3  1  0
 10 11  1  0
 12 11  2  0
 13 12  1  0
 14 13  1  0
 14 10  2  0
  1 15  1  6
  2 16  1  0
  2 17  1  0
  3 18  1  1
  5 19  1  0
  6 20  1  0
  8 21  1  0
 11 22  1  0
 12 23  1  0
 13 24  1  0
M  ISO  8  15  13  16  13  17  13  18  13  19  14  20  14  21  14  22  14
M  ISO  2  23  14  24   9
M  END
>  <minimizedAffinity>  (1) 
-4.42219925

>  <minimizedRMSD>  (1) 
7.0278039

$$$$
