
     RDKit          3D

 37 40  0  0  0  0  0  0  0  0999 V2000
   38.0590   27.8570   43.4150 C   0  0  0  0  0  0  0  0  0  0  0  0
   37.9070   26.6410   42.6730 C   0  0  0  0  0  0  0  0  0  0  0  0
   37.1030   26.6650   41.5480 C   0  0  0  0  0  0  0  0  0  0  0  0
   36.5110   27.8300   41.2170 N   0  0  0  0  0  0  0  0  0  0  0  0
   36.6530   28.9540   41.9040 C   0  0  0  0  0  0  0  0  0  0  0  0
   37.4300   28.9830   43.0160 N   0  0  0  0  0  0  0  0  0  0  0  0
   37.0350   25.3790   40.8960 C   0  0  0  0  0  0  0  0  0  0  0  0
   37.4660   24.2140   41.6910 C   0  0  0  0  0  0  0  0  0  0  0  0
   38.0050   22.8380   40.6130 S   0  0  0  0  0  0  0  0  0  0  0  0
   35.9450   29.9810   41.3480 O   0  0  0  0  0  0  0  0  0  0  0  0
   36.5940   30.8760   40.4840 C   0  0  0  0  0  0  0  0  0  0  0  0
   36.5010   31.0150   39.1180 N   0  0  0  0  0  0  0  0  0  0  0  0
   37.2990   31.9930   38.7480 O   0  0  0  0  0  0  0  0  0  0  0  0
   37.8770   32.4560   39.8300 C   0  0  0  0  0  0  0  0  0  0  0  0
   37.4710   31.7950   40.9260 N   0  0  0  0  0  0  0  0  0  0  0  0
   38.8410   33.5550   39.8240 C   0  0  0  0  0  0  0  0  0  0  0  0
   38.6820   34.8060   40.3890 C   0  0  0  0  0  0  0  0  0  0  0  0
   39.7990   35.5690   40.1830 C   0  0  0  0  0  0  0  0  0  0  0  0
   40.6460   34.7250   39.4650 C   0  0  0  0  0  0  0  0  0  0  0  0
   40.0390   33.5940   39.2950 O   0  0  0  0  0  0  0  0  0  0  0  0
   42.0150   35.0910   38.9870 C   0  0  0  0  0  0  0  0  0  0  0  0
   43.0340   34.0080   39.1000 C   0  0  0  0  0  0  0  0  0  0  0  0
   42.5520   34.4720   37.7520 C   0  0  0  0  0  0  0  0  0  0  0  0
   38.6916   27.8734   44.3147 H   0  0  0  0  0  0  0  0  0  0  0  0
   38.4139   25.7171   42.9882 H   0  0  0  0  0  0  0  0  0  0  0  0
   35.9899   25.2110   40.5967 H   0  0  0  0  0  0  0  0  0  0  0  0
   37.7463   25.4392   40.0591 H   0  0  0  0  0  0  0  0  0  0  0  0
   38.3041   24.5119   42.3382 H   0  0  0  0  0  0  0  0  0  0  0  0
   36.6128   23.8696   42.2938 H   0  0  0  0  0  0  0  0  0  0  0  0
   38.4172   21.7857   41.3874 H   0  0  0  0  0  0  0  0  0  0  0  0
   37.7839   35.1413   40.9284 H   0  0  0  0  0  0  0  0  0  0  0  0
   39.9850   36.6036   40.5071 H   0  0  0  0  0  0  0  0  0  0  0  0
   41.9170   36.1359   39.3165 H   0  0  0  0  0  0  0  0  0  0  0  0
   44.0558   34.2440   39.4321 H   0  0  0  0  0  0  0  0  0  0  0  0
   43.0919   33.0399   39.6190 H   0  0  0  0  0  0  0  0  0  0  0  0
   41.9123   33.8179   37.1413 H   0  0  0  0  0  0  0  0  0  0  0  0
   43.0368   34.8493   36.8395 H   0  0  0  0  0  0  0  0  0  0  0  0
  2  1  2  0
  3  2  1  0
  4  3  2  0
  4  5  1  0
  5  6  2  0
  6  1  1  0
  7  3  1  0
  7  8  1  0
  9  8  1  0
 10  5  1  0
 11 15  1  0
 11 10  1  0
 12 11  2  0
 13 12  1  0
 13 14  1  0
 14 15  2  0
 16 14  1  0
 16 17  2  0
 18 17  1  0
 19 18  2  0
 20 19  1  0
 20 16  1  0
 21 22  1  0
 21 19  1  0
 23 21  1  0
 23 22  1  0
  1 24  1  0
  2 25  1  0
  7 26  1  0
  7 27  1  0
  8 28  1  0
  8 29  1  0
  9 30  1  0
 17 31  1  0
 18 32  1  0
 21 33  1  0
 22 34  1  0
 22 35  1  0
 23 36  1  0
 23 37  1  0
M  ISO  8  24  14  25  14  26   8  27   8  28   8  29   8  30  11  31  14
M  ISO  6  32  14  33  13  34  13  35  13  36  13  37  13
M  END
>  <minimizedAffinity>  (1) 
-5.39572954

>  <minimizedRMSD>  (1) 
0.569657147

$$$$
