
     RDKit          3D

 38 40  0  0  0  0  0  0  0  0999 V2000
   36.2850   30.2890   40.0470 C   0  0  0  0  0  0  0  0  0  0  0  0
   36.7000   31.4900   40.6100 C   0  0  0  0  0  0  0  0  0  0  0  0
   37.2980   32.4190   39.8000 C   0  0  0  0  0  0  0  0  0  0  0  0
   37.5180   32.2420   38.4560 C   0  0  0  0  0  0  0  0  0  0  0  0
   37.1020   31.0420   37.9000 C   0  0  0  0  0  0  0  0  0  0  0  0
   36.4980   30.1010   38.7060 C   0  0  0  0  0  0  0  0  0  0  0  0
   35.6370   29.2630   40.8830 C   0  0  0  0  0  0  0  0  0  0  0  0
   38.1190   28.3600   43.4780 C   0  0  0  0  0  0  0  0  0  0  0  0
   38.3590   27.0160   43.2020 C   0  0  0  0  0  0  0  0  0  0  0  0
   37.6670   26.4280   42.1280 C   0  0  0  0  0  0  0  0  0  0  0  0
   36.8190   27.2070   41.4370 N   0  0  0  0  0  0  0  0  0  0  0  0
   36.6070   28.5110   41.7290 C   0  0  0  0  0  0  0  0  0  0  0  0
   37.2630   29.0850   42.7560 N   0  0  0  0  0  0  0  0  0  0  0  0
   37.8000   25.0930   41.7270 N   0  0  0  0  0  0  0  0  0  0  0  0
   36.0430   28.7960   38.1130 C   0  0  0  0  0  0  0  0  0  0  0  0
   34.8520   28.9570   37.2720 C   0  0  0  0  0  0  0  0  0  0  0  0
   34.9770   29.0520   35.8820 C   0  0  0  0  0  0  0  0  0  0  0  0
   33.8860   29.2030   35.0510 C   0  0  0  0  0  0  0  0  0  0  0  0
   32.6190   29.2620   35.6320 C   0  0  0  0  0  0  0  0  0  0  0  0
   32.4540   29.1710   37.0100 C   0  0  0  0  0  0  0  0  0  0  0  0
   33.5720   29.0180   37.8360 C   0  0  0  0  0  0  0  0  0  0  0  0
   36.5517   31.6900   41.6814 H   0  0  0  0  0  0  0  0  0  0  0  0
   37.6224   33.3666   40.2548 H   0  0  0  0  0  0  0  0  0  0  0  0
   38.0033   33.0188   37.8469 H   0  0  0  0  0  0  0  0  0  0  0  0
   37.2521   30.8433   36.8286 H   0  0  0  0  0  0  0  0  0  0  0  0
   34.9054   29.7557   41.5403 H   0  0  0  0  0  0  0  0  0  0  0  0
   35.1563   28.5401   40.2075 H   0  0  0  0  0  0  0  0  0  0  0  0
   38.6502   28.8370   44.3148 H   0  0  0  0  0  0  0  0  0  0  0  0
   39.0687   26.4318   43.8061 H   0  0  0  0  0  0  0  0  0  0  0  0
   37.2557   24.7387   40.9276 H   0  0  0  0  0  0  0  0  0  0  0  0
   38.4422   24.4653   42.2315 H   0  0  0  0  0  0  0  0  0  0  0  0
   36.8570   28.3823   37.4996 H   0  0  0  0  0  0  0  0  0  0  0  0
   35.7838   28.1200   38.9411 H   0  0  0  0  0  0  0  0  0  0  0  0
   35.9812   29.0046   35.4354 H   0  0  0  0  0  0  0  0  0  0  0  0
   34.0117   29.2749   33.9606 H   0  0  0  0  0  0  0  0  0  0  0  0
   31.7348   29.3826   34.9888 H   0  0  0  0  0  0  0  0  0  0  0  0
   31.4466   29.2193   37.4490 H   0  0  0  0  0  0  0  0  0  0  0  0
   33.4460   28.9457   38.9264 H   0  0  0  0  0  0  0  0  0  0  0  0
  1  2  2  0
  1  7  1  0
  3  2  1  0
  4  3  2  0
  5  4  1  0
  5  6  2  0
  6  1  1  0
  7 12  1  0
  9  8  2  0
 10  9  1  0
 11 12  1  0
 11 10  2  0
 12 13  2  0
 13  8  1  0
 14 10  1  0
 15  6  1  0
 16 21  1  0
 16 15  1  0
 17 16  2  0
 18 19  2  0
 18 17  1  0
 19 20  1  0
 20 21  2  0
  2 22  1  0
  3 23  1  0
  4 24  1  0
  5 25  1  0
  7 26  1  0
  7 27  1  0
  8 28  1  0
  9 29  1  0
 14 30  1  0
 14 31  1  0
 15 32  1  0
 15 33  1  0
 17 34  1  0
 18 35  1  0
 19 36  1  0
 20 37  1  0
 21 38  1  0
M  ISO  8  22  14  23  14  24  14  25  14  26   8  27   8  28  14  29  14
M  ISO  7  32   8  33   8  34  14  35  14  36  14  37  14  38  14
M  END
>  <minimizedAffinity>  (1) 
-5.81672764

>  <minimizedRMSD>  (1) 
1.90867436

$$$$
