
     RDKit          3D

 37 40  0  0  1  0  0  0  0  0999 V2000
   37.5810   28.5380   43.2740 C   0  0  1  0  0  0  0  0  0  0  0  0
   38.5570   29.5880   42.9250 C   0  0  0  0  0  0  0  0  0  0  0  0
   37.2680   29.6330   42.2320 C   0  0  1  0  0  0  0  0  0  0  0  0
   37.0220   29.3470   40.8810 N   0  0  0  0  0  0  0  0  0  0  0  0
   35.5780   29.0870   40.6620 C   0  0  0  0  0  0  0  0  0  0  0  0
   35.3300   28.4350   39.3360 C   0  0  0  0  0  0  0  0  0  0  0  0
   36.1260   28.9880   38.3170 O   0  0  0  0  0  0  0  0  0  0  0  0
   36.4130   30.2810   38.7210 C   0  0  0  0  0  0  0  0  0  0  0  0
   37.4020   30.3200   39.9160 C   0  0  1  0  0  0  0  0  0  0  0  0
   37.1870   31.7120   40.4820 C   0  0  0  0  0  0  0  0  0  0  0  0
   38.2930   32.6780   40.6730 C   0  0  0  0  0  0  0  0  0  0  0  0
   37.4020   32.9200   39.5460 C   0  0  0  0  0  0  0  0  0  0  0  0
   39.4370   25.6390   41.9880 C   0  0  0  0  0  0  0  0  0  0  0  0
   38.4180   24.6490   41.8450 C   0  0  0  0  0  0  0  0  0  0  0  0
   37.0880   25.0350   42.1930 C   0  0  0  0  0  0  0  0  0  0  0  0
   36.8530   26.3240   42.6450 N   0  0  0  0  0  0  0  0  0  0  0  0
   37.8670   27.1840   42.7480 C   0  0  0  0  0  0  0  0  0  0  0  0
   39.1430   26.8660   42.4300 N   0  0  0  0  0  0  0  0  0  0  0  0
   37.1068   28.1696   44.1956 H   0  0  0  0  0  0  0  0  0  0  0  0
   38.8011   30.3660   43.6634 H   0  0  0  0  0  0  0  0  0  0  0  0
   39.6017   29.5672   42.5811 H   0  0  0  0  0  0  0  0  0  0  0  0
   36.5131   30.4181   42.0780 H   0  0  0  0  0  0  0  0  0  0  0  0
   35.2094   28.4253   41.4597 H   0  0  0  0  0  0  0  0  0  0  0  0
   35.0488   30.0512   40.6757 H   0  0  0  0  0  0  0  0  0  0  0  0
   35.5570   27.3620   39.4204 H   0  0  0  0  0  0  0  0  0  0  0  0
   34.2757   28.6003   39.0694 H   0  0  0  0  0  0  0  0  0  0  0  0
   36.8589   30.8249   37.8752 H   0  0  0  0  0  0  0  0  0  0  0  0
   35.4721   30.7475   39.0482 H   0  0  0  0  0  0  0  0  0  0  0  0
   38.4453   30.1129   39.6355 H   0  0  0  0  0  0  0  0  0  0  0  0
   36.3970   31.3138   41.1357 H   0  0  0  0  0  0  0  0  0  0  0  0
   38.2714   33.3607   41.5353 H   0  0  0  0  0  0  0  0  0  0  0  0
   39.3838   32.5716   40.7669 H   0  0  0  0  0  0  0  0  0  0  0  0
   37.7582   32.7651   38.5168 H   0  0  0  0  0  0  0  0  0  0  0  0
   36.7857   33.7637   39.2019 H   0  0  0  0  0  0  0  0  0  0  0  0
   40.4770   25.3889   41.7313 H   0  0  0  0  0  0  0  0  0  0  0  0
   38.6470   23.6357   41.4834 H   0  0  0  0  0  0  0  0  0  0  0  0
   36.2592   24.3173   42.1034 H   0  0  0  0  0  0  0  0  0  0  0  0
  2  1  1  0
  3  2  1  0
  3  1  1  0
  4  5  1  0
  4  3  1  0
  6  5  1  0
  7  8  1  0
  7  6  1  0
  8  9  1  0
  9 10  1  0
  9  4  1  0
 10 11  1  0
 12 10  1  0
 12 11  1  0
 13 18  2  0
 14 13  1  0
 14 15  2  0
 15 16  1  0
 16 17  2  0
 17  1  1  0
 18 17  1  0
  1 19  1  1
  2 20  1  0
  2 21  1  0
  3 22  1  1
  5 23  1  0
  5 24  1  0
  6 25  1  0
  6 26  1  0
  8 27  1  0
  8 28  1  0
  9 29  1  6
 10 30  1  0
 11 31  1  0
 11 32  1  0
 12 33  1  0
 12 34  1  0
 13 35  1  0
 14 36  1  0
 15 37  1  0
M  ISO  8  19  13  20  13  21  13  22  13  23  13  24  13  25  13  26  13
M  ISO  8  27  13  28  13  29  13  30  13  31  13  32  13  33  13  34  13
M  ISO  3  35  14  36  14  37  14
M  END
>  <minimizedAffinity>  (1) 
-4.85706663

>  <minimizedRMSD>  (1) 
3.17992449

$$$$
