
     RDKit          3D

 43 46  0  0  1  0  0  0  0  0999 V2000
   38.2610   29.1420   41.9990 C   0  0  1  0  0  0  0  0  0  0  0  0
   37.3600   28.8250   43.1360 C   0  0  0  0  0  0  0  0  0  0  0  0
   36.9400   28.3900   41.8080 C   0  0  2  0  0  0  0  0  0  0  0  0
   36.9930   26.9900   41.4260 C   0  0  0  0  0  0  0  0  0  0  0  0
   37.1980   26.0290   42.4140 C   0  0  0  0  0  0  0  0  0  0  0  0
   37.0660   24.7000   42.1400 C   0  0  0  0  0  0  0  0  0  0  0  0
   36.7260   24.3280   40.8560 C   0  0  0  0  0  0  0  0  0  0  0  0
   36.5330   25.2700   39.8970 C   0  0  0  0  0  0  0  0  0  0  0  0
   36.6680   26.6420   40.1750 C   0  0  0  0  0  0  0  0  0  0  0  0
   36.4370   27.3890   38.9390 C   0  0  0  0  0  0  0  0  0  0  0  0
   37.6740   28.1710   38.5640 C   0  0  0  0  0  0  0  0  0  0  0  0
   37.4900   28.8940   37.2490 C   0  0  0  0  0  0  0  0  0  0  0  0
   36.1770   29.5660   37.0630 C   0  0  0  0  0  0  0  0  0  0  0  0
   34.9920   28.8500   37.6660 C   0  0  0  0  0  0  0  0  0  0  0  0
   35.4100   28.5430   39.1160 C   0  0  0  0  0  0  0  0  0  0  0  0
   38.2700   30.5360   41.4570 C   0  0  0  0  0  0  0  0  0  0  0  0
   37.1320   30.9820   40.7850 C   0  0  0  0  0  0  0  0  0  0  0  0
   37.0900   32.2630   40.2450 C   0  0  0  0  0  0  0  0  0  0  0  0
   38.2200   33.0430   40.4170 N   0  0  0  0  0  0  0  0  0  0  0  0
   39.3110   32.5710   41.0840 C   0  0  0  0  0  0  0  0  0  0  0  0
   39.3290   31.2920   41.6110 N   0  0  0  0  0  0  0  0  0  0  0  0
   39.3292   28.9758   41.7956 H   0  0  0  0  0  0  0  0  0  0  0  0
   37.6685   28.0756   43.8798 H   0  0  0  0  0  0  0  0  0  0  0  0
   36.8873   29.4291   43.9244 H   0  0  0  0  0  0  0  0  0  0  0  0
   36.0248   28.5251   41.2128 H   0  0  0  0  0  0  0  0  0  0  0  0
   37.4706   26.3476   43.4309 H   0  0  0  0  0  0  0  0  0  0  0  0
   37.2265   23.9439   42.9227 H   0  0  0  0  0  0  0  0  0  0  0  0
   36.6106   23.2627   40.6075 H   0  0  0  0  0  0  0  0  0  0  0  0
   36.2647   24.9524   38.8786 H   0  0  0  0  0  0  0  0  0  0  0  0
   36.1148   26.6260   38.2151 H   0  0  0  0  0  0  0  0  0  0  0  0
   37.8839   28.9090   39.3522 H   0  0  0  0  0  0  0  0  0  0  0  0
   38.5114   27.4657   38.4579 H   0  0  0  0  0  0  0  0  0  0  0  0
   38.2760   29.6596   37.1710 H   0  0  0  0  0  0  0  0  0  0  0  0
   37.5443   28.1194   36.4699 H   0  0  0  0  0  0  0  0  0  0  0  0
   36.2389   30.5645   37.5203 H   0  0  0  0  0  0  0  0  0  0  0  0
   35.9983   29.5873   35.9778 H   0  0  0  0  0  0  0  0  0  0  0  0
   34.1006   29.4943   37.6484 H   0  0  0  0  0  0  0  0  0  0  0  0
   34.7316   27.9383   37.1084 H   0  0  0  0  0  0  0  0  0  0  0  0
   34.5479   28.2180   39.7169 H   0  0  0  0  0  0  0  0  0  0  0  0
   35.8207   29.4152   39.6457 H   0  0  0  0  0  0  0  0  0  0  0  0
   36.2623   30.3164   40.6815 H   0  0  0  0  0  0  0  0  0  0  0  0
   36.2049   32.6366   39.7092 H   0  0  0  0  0  0  0  0  0  0  0  0
   40.1922   33.2181   41.2053 H   0  0  0  0  0  0  0  0  0  0  0  0
  1  2  1  0
  3  1  1  0
  3  2  1  0
  4  3  1  0
  4  5  2  0
  6  5  1  0
  7  6  2  0
  8  9  2  0
  8  7  1  0
  9  4  1  0
 10 15  1  0
 10  9  1  0
 11 10  1  0
 12 11  1  0
 13 12  1  0
 13 14  1  0
 14 15  1  0
 16 21  1  0
 16  1  1  0
 17 16  2  0
 18 19  2  0
 18 17  1  0
 19 20  1  0
 20 21  2  0
  1 22  1  1
  2 23  1  0
  2 24  1  0
  3 25  1  6
  5 26  1  0
  6 27  1  0
  7 28  1  0
  8 29  1  0
 10 30  1  0
 11 31  1  0
 11 32  1  0
 12 33  1  0
 12 34  1  0
 13 35  1  0
 13 36  1  0
 14 37  1  0
 14 38  1  0
 15 39  1  0
 15 40  1  0
 17 41  1  0
 18 42  1  0
 20 43  1  0
M  ISO  8  22  13  23  13  24  13  25  13  26  14  27  14  28  14  29  14
M  ISO  8  30  13  31  13  32  13  33  13  34  13  35  13  36  13  37  13
M  ISO  6  38  13  39  13  40  13  41  14  42  14  43  14
M  END
>  <minimizedAffinity>  (1) 
-5.84322262

>  <minimizedRMSD>  (1) 
0.915699601

$$$$
