
     RDKit          3D

 43 46  0  0  0  0  0  0  0  0999 V2000
   36.9310   27.3330   42.8620 C   0  0  0  0  0  0  0  0  0  0  0  0
   40.4620   28.7260   42.8850 C   0  0  0  0  0  0  0  0  0  0  0  0
   39.3500   27.8850   43.1710 C   0  0  0  0  0  0  0  0  0  0  0  0
   38.1210   28.1770   42.5970 C   0  0  0  0  0  0  0  0  0  0  0  0
   38.0390   29.2690   41.7790 N   0  0  0  0  0  0  0  0  0  0  0  0
   39.1230   30.0540   41.5260 C   0  0  0  0  0  0  0  0  0  0  0  0
   40.2970   29.7770   42.0720 N   0  0  0  0  0  0  0  0  0  0  0  0
   38.7750   31.1790   40.6050 C   0  0  0  0  0  0  0  0  0  0  0  0
   37.3220   31.5260   40.6660 C   0  0  0  0  0  0  0  0  0  0  0  0
   37.0890   32.6930   39.7320 C   0  0  0  0  0  0  0  0  0  0  0  0
   37.3870   32.2430   38.3260 C   0  0  0  0  0  0  0  0  0  0  0  0
   38.7700   31.7070   38.1440 C   0  0  0  0  0  0  0  0  0  0  0  0
   39.1660   30.7480   39.2090 C   0  0  0  0  0  0  0  0  0  0  0  0
   36.9640   26.1300   42.0140 C   0  0  0  0  0  0  0  0  0  0  0  0
   37.0270   24.8060   42.2240 C   0  0  0  0  0  0  0  0  0  0  0  0
   37.0440   23.9150   41.2140 C   0  0  0  0  0  0  0  0  0  0  0  0
   36.9880   24.5450   39.9180 C   0  0  0  0  0  0  0  0  0  0  0  0
   36.9190   26.2550   40.2310 S   0  0  0  0  0  0  0  0  0  0  0  0
   36.9880   23.8740   38.6260 C   0  0  0  0  0  0  0  0  0  0  0  0
   37.9090   22.9890   38.2050 C   0  0  0  0  0  0  0  0  0  0  0  0
   37.4770   22.6410   36.9320 C   0  0  0  0  0  0  0  0  0  0  0  0
   36.3270   23.3150   36.6220 N   0  0  0  0  0  0  0  0  0  0  0  0
   36.0430   24.0690   37.6810 N   0  0  0  0  0  0  0  0  0  0  0  0
   36.9269   27.0321   43.9200 H   0  0  0  0  0  0  0  0  0  0  0  0
   36.0228   27.9097   42.6329 H   0  0  0  0  0  0  0  0  0  0  0  0
   41.4468   28.5148   43.3273 H   0  0  0  0  0  0  0  0  0  0  0  0
   39.4632   27.0168   43.8369 H   0  0  0  0  0  0  0  0  0  0  0  0
   39.3172   32.0878   40.9053 H   0  0  0  0  0  0  0  0  0  0  0  0
   36.7172   30.6643   40.3472 H   0  0  0  0  0  0  0  0  0  0  0  0
   37.0316   31.7905   41.6935 H   0  0  0  0  0  0  0  0  0  0  0  0
   36.0418   33.0222   39.8027 H   0  0  0  0  0  0  0  0  0  0  0  0
   37.7433   33.5335   40.0066 H   0  0  0  0  0  0  0  0  0  0  0  0
   36.6707   31.4532   38.0556 H   0  0  0  0  0  0  0  0  0  0  0  0
   37.2999   33.1297   37.6809 H   0  0  0  0  0  0  0  0  0  0  0  0
   38.8219   31.1933   37.1727 H   0  0  0  0  0  0  0  0  0  0  0  0
   39.4629   32.5599   38.1949 H   0  0  0  0  0  0  0  0  0  0  0  0
   38.6858   29.7809   38.9989 H   0  0  0  0  0  0  0  0  0  0  0  0
   40.2643   30.6900   39.1910 H   0  0  0  0  0  0  0  0  0  0  0  0
   37.0662   24.4349   43.2588 H   0  0  0  0  0  0  0  0  0  0  0  0
   37.0950   22.8261   41.3616 H   0  0  0  0  0  0  0  0  0  0  0  0
   38.7969   22.6258   38.7432 H   0  0  0  0  0  0  0  0  0  0  0  0
   37.9859   21.9265   36.2683 H   0  0  0  0  0  0  0  0  0  0  0  0
   35.7896   23.2514   35.7456 H   0  0  0  0  0  0  0  0  0  0  0  0
  2  3  2  0
  4  1  1  0
  4  3  1  0
  5  4  2  0
  6  5  1  0
  6  7  2  0
  7  2  1  0
  8  9  1  0
  8  6  1  0
 10  9  1  0
 11 10  1  0
 12 11  1  0
 12 13  1  0
 13  8  1  0
 14 15  2  0
 14  1  1  0
 16 15  1  0
 17 18  1  0
 17 16  2  0
 18 14  1  0
 19 17  1  0
 20 19  1  0
 21 20  2  0
 22 21  1  0
 22 23  1  0
 23 19  2  0
  1 24  1  0
  1 25  1  0
  2 26  1  0
  3 27  1  0
  8 28  1  0
  9 29  1  0
  9 30  1  0
 10 31  1  0
 10 32  1  0
 11 33  1  0
 11 34  1  0
 12 35  1  0
 12 36  1  0
 13 37  1  0
 13 38  1  0
 15 39  1  0
 16 40  1  0
 20 41  1  0
 21 42  1  0
 22 43  1  0
M  ISO  8  24   8  25   8  26  14  27  14  28  13  29  13  30  13  31  13
M  ISO  8  32  13  33  13  34  13  35  13  36  13  37  13  38  13  39  14
M  ISO  4  40  14  41  14  42  14  43   9
M  END
>  <minimizedAffinity>  (1) 
-4.96015787

>  <minimizedRMSD>  (1) 
1.49187195

$$$$
