
     RDKit          3D

 49 52  0  0  1  0  0  0  0  0999 V2000
   37.0130   30.9950   40.4650 C   0  0  1  0  0  0  0  0  0  0  0  0
   37.7970   32.1850   40.7790 C   0  0  0  0  0  0  0  0  0  0  0  0
   37.6710   33.0060   39.5020 C   0  0  0  0  0  0  0  0  0  0  0  0
   37.2630   32.0290   38.4170 C   0  0  0  0  0  0  0  0  0  0  0  0
   37.4530   30.6600   39.0240 C   0  0  2  0  0  0  0  0  0  0  0  0
   38.6650   28.8830   43.0140 C   0  0  0  0  0  0  0  0  0  0  0  0
   37.6630   27.8510   43.2220 C   0  0  0  0  0  0  0  0  0  0  0  0
   36.4520   27.9090   42.4670 C   0  0  0  0  0  0  0  0  0  0  0  0
   36.2630   28.9210   41.5760 N   0  0  0  0  0  0  0  0  0  0  0  0
   37.2420   29.8620   41.4250 C   0  0  0  0  0  0  0  0  0  0  0  0
   38.4200   29.8590   42.1180 N   0  0  0  0  0  0  0  0  0  0  0  0
   36.6190   29.6390   38.4010 C   0  0  0  0  0  0  0  0  0  0  0  0
   35.3540   29.5310   37.8350 C   0  0  0  0  0  0  0  0  0  0  0  0
   34.9260   28.3460   37.3770 C   0  0  0  0  0  0  0  0  0  0  0  0
   35.7470   27.2450   37.4670 C   0  0  0  0  0  0  0  0  0  0  0  0
   37.2660   27.9460   38.2800 S   0  0  0  0  0  0  0  0  0  0  0  0
   33.5350   28.2840   36.7870 C   0  0  0  0  0  0  0  0  0  0  0  0
   33.5920   28.5920   35.3330 C   0  0  0  0  0  0  0  0  0  0  0  0
   32.6640   29.7110   34.8970 C   0  0  0  0  0  0  0  0  0  0  0  0
   31.2830   29.4410   35.3940 C   0  0  0  0  0  0  0  0  0  0  0  0
   31.2510   29.1480   36.8780 C   0  0  0  0  0  0  0  0  0  0  0  0
   32.6220   29.3590   37.4110 C   0  0  0  0  0  0  0  0  0  0  0  0
   35.5870   25.8820   37.0490 C   0  0  0  0  0  0  0  0  0  0  0  0
   35.3520   25.7050   35.6830 F   0  0  0  0  0  0  0  0  0  0  0  0
   36.7190   25.2280   37.3920 F   0  0  0  0  0  0  0  0  0  0  0  0
   34.5120   25.3410   37.7360 F   0  0  0  0  0  0  0  0  0  0  0  0
   35.9303   31.1678   40.5533 H   0  0  0  0  0  0  0  0  0  0  0  0
   37.3759   32.7229   41.6411 H   0  0  0  0  0  0  0  0  0  0  0  0
   38.8377   31.9645   41.0589 H   0  0  0  0  0  0  0  0  0  0  0  0
   36.9043   33.7855   39.6226 H   0  0  0  0  0  0  0  0  0  0  0  0
   38.6150   33.5133   39.2538 H   0  0  0  0  0  0  0  0  0  0  0  0
   37.9018   32.1494   37.5296 H   0  0  0  0  0  0  0  0  0  0  0  0
   36.2265   32.1915   38.0865 H   0  0  0  0  0  0  0  0  0  0  0  0
   38.4584   30.2266   38.9174 H   0  0  0  0  0  0  0  0  0  0  0  0
   39.6086   28.8675   43.5792 H   0  0  0  0  0  0  0  0  0  0  0  0
   37.8339   27.0412   43.9466 H   0  0  0  0  0  0  0  0  0  0  0  0
   35.6768   27.1408   42.6045 H   0  0  0  0  0  0  0  0  0  0  0  0
   34.7052   30.4164   37.7630 H   0  0  0  0  0  0  0  0  0  0  0  0
   33.1439   27.2746   36.9823 H   0  0  0  0  0  0  0  0  0  0  0  0
   34.6231   28.8815   35.0819 H   0  0  0  0  0  0  0  0  0  0  0  0
   33.2632   27.6849   34.8047 H   0  0  0  0  0  0  0  0  0  0  0  0
   33.0218   30.6651   35.3113 H   0  0  0  0  0  0  0  0  0  0  0  0
   32.6516   29.7670   33.7985 H   0  0  0  0  0  0  0  0  0  0  0  0
   30.6570   30.3232   35.1946 H   0  0  0  0  0  0  0  0  0  0  0  0
   30.9053   28.5516   34.8683 H   0  0  0  0  0  0  0  0  0  0  0  0
   30.5459   29.8277   37.3787 H   0  0  0  0  0  0  0  0  0  0  0  0
   30.9227   28.1139   37.0590 H   0  0  0  0  0  0  0  0  0  0  0  0
   32.6183   29.2583   38.5064 H   0  0  0  0  0  0  0  0  0  0  0  0
   32.9837   30.3668   37.1592 H   0  0  0  0  0  0  0  0  0  0  0  0
  1  2  1  0
  1 10  1  0
  3  2  1  0
  4  5  1  0
  4  3  1  0
  5  1  1  0
  6  7  2  0
  8  7  1  0
  9  8  2  0
 10  9  1  0
 10 11  2  0
 11  6  1  0
 12  5  1  0
 13 12  2  0
 14 15  2  0
 14 13  1  0
 15 16  1  0
 16 12  1  0
 17 14  1  0
 17 22  1  0
 18 17  1  0
 19 18  1  0
 19 20  1  0
 20 21  1  0
 21 22  1  0
 23 25  1  0
 23 15  1  0
 23 26  1  0
 24 23  1  0
  1 27  1  6
  2 28  1  0
  2 29  1  0
  3 30  1  0
  3 31  1  0
  4 32  1  0
  4 33  1  0
  5 34  1  1
  6 35  1  0
  7 36  1  0
  8 37  1  0
 13 38  1  0
 17 39  1  0
 18 40  1  0
 18 41  1  0
 19 42  1  0
 19 43  1  0
 20 44  1  0
 20 45  1  0
 21 46  1  0
 21 47  1  0
 22 48  1  0
 22 49  1  0
M  ISO  8  27  13  28  13  29  13  30  13  31  13  32  13  33  13  34  13
M  ISO  8  35  14  36  14  37  14  38  14  39  13  40  13  41  13  42  13
M  ISO  7  43  13  44  13  45  13  46  13  47  13  48  13  49  13
M  END
>  <minimizedAffinity>  (1) 
-5.39997005

>  <minimizedRMSD>  (1) 
1.11118186

$$$$
