
     RDKit          3D

 51 54  0  0  1  0  0  0  0  0999 V2000
   34.2170   26.7400   37.1610 N   0  0  0  0  0  0  0  0  0  0  0  0
   33.9120   28.0580   37.6610 C   0  0  0  0  0  0  0  0  0  0  0  0
   34.6020   29.1700   36.9070 C   0  0  0  0  0  0  0  0  0  0  0  0
   35.9080   28.7110   36.3230 C   0  0  2  0  0  0  0  0  0  0  0  0
   36.5280   27.5830   37.1270 C   0  0  0  0  0  0  0  0  0  0  0  0
   35.6230   26.4130   37.2790 C   0  0  1  0  0  0  0  0  0  0  0  0
   35.7920   25.6460   38.5660 C   0  0  0  0  0  0  0  0  0  0  0  0
   37.2360   25.5100   38.9990 C   0  0  0  0  0  0  0  0  0  0  0  0
   37.1780   24.9750   40.4360 C   0  0  0  0  0  0  0  0  0  0  0  0
   36.2120   23.8230   40.5300 C   0  0  0  0  0  0  0  0  0  0  0  0
   35.9510   23.2150   39.1720 C   0  0  0  0  0  0  0  0  0  0  0  0
   35.3450   24.2180   38.2260 C   0  0  0  0  0  0  0  0  0  0  0  0
   37.0850   30.0860   36.3950 S   0  0  0  0  0  0  0  0  0  0  0  0
   37.2190   30.4800   40.4010 C   0  0  0  0  0  0  0  0  0  0  0  0
   37.2870   31.8370   40.6160 C   0  0  0  0  0  0  0  0  0  0  0  0
   37.2930   32.6760   39.5220 C   0  0  0  0  0  0  0  0  0  0  0  0
   37.2300   32.1130   38.2470 C   0  0  0  0  0  0  0  0  0  0  0  0
   37.1630   30.7480   38.0500 C   0  0  0  0  0  0  0  0  0  0  0  0
   37.1590   29.9520   39.1350 N   0  0  0  0  0  0  0  0  0  0  0  0
   38.1480   28.9190   43.5730 C   0  0  0  0  0  0  0  0  0  0  0  0
   37.2520   27.8340   43.6770 C   0  0  0  0  0  0  0  0  0  0  0  0
   36.3260   27.6540   42.6340 C   0  0  0  0  0  0  0  0  0  0  0  0
   36.3590   28.5310   41.6090 N   0  0  0  0  0  0  0  0  0  0  0  0
   37.2100   29.5430   41.5340 C   0  0  0  0  0  0  0  0  0  0  0  0
   38.0940   29.7270   42.5120 N   0  0  0  0  0  0  0  0  0  0  0  0
   33.9495   26.6937   36.1674 H   0  0  0  0  0  0  0  0  0  0  0  0
   32.8253   28.2131   37.5902 H   0  0  0  0  0  0  0  0  0  0  0  0
   34.2761   28.0997   38.6981 H   0  0  0  0  0  0  0  0  0  0  0  0
   33.9459   29.5102   36.0922 H   0  0  0  0  0  0  0  0  0  0  0  0
   34.8078   29.9891   37.6117 H   0  0  0  0  0  0  0  0  0  0  0  0
   35.7057   28.3672   35.2979 H   0  0  0  0  0  0  0  0  0  0  0  0
   37.4455   27.2528   36.6180 H   0  0  0  0  0  0  0  0  0  0  0  0
   36.7352   27.9722   38.1348 H   0  0  0  0  0  0  0  0  0  0  0  0
   35.9374   25.7794   36.4366 H   0  0  0  0  0  0  0  0  0  0  0  0
   35.2363   26.1625   39.3625 H   0  0  0  0  0  0  0  0  0  0  0  0
   37.7694   24.8036   38.3459 H   0  0  0  0  0  0  0  0  0  0  0  0
   37.7746   26.4673   38.9388 H   0  0  0  0  0  0  0  0  0  0  0  0
   38.1796   24.6333   40.7360 H   0  0  0  0  0  0  0  0  0  0  0  0
   36.8375   25.7809   41.1028 H   0  0  0  0  0  0  0  0  0  0  0  0
   36.6352   23.0533   41.1921 H   0  0  0  0  0  0  0  0  0  0  0  0
   35.2596   24.1997   40.9312 H   0  0  0  0  0  0  0  0  0  0  0  0
   36.9024   22.8567   38.7519 H   0  0  0  0  0  0  0  0  0  0  0  0
   35.2406   22.3844   39.2962 H   0  0  0  0  0  0  0  0  0  0  0  0
   34.2488   24.1595   38.2958 H   0  0  0  0  0  0  0  0  0  0  0  0
   35.6832   23.9819   37.2063 H   0  0  0  0  0  0  0  0  0  0  0  0
   37.3355   32.2433   41.6371 H   0  0  0  0  0  0  0  0  0  0  0  0
   37.3464   33.7670   39.6517 H   0  0  0  0  0  0  0  0  0  0  0  0
   37.2338   32.7778   37.3707 H   0  0  0  0  0  0  0  0  0  0  0  0
   38.8898   29.0987   44.3651 H   0  0  0  0  0  0  0  0  0  0  0  0
   37.2769   27.1544   44.5416 H   0  0  0  0  0  0  0  0  0  0  0  0
   35.6004   26.8275   42.6531 H   0  0  0  0  0  0  0  0  0  0  0  0
  1  6  1  0
  1  2  1  0
  3  2  1  0
  4 13  1  0
  4  3  1  0
  4  5  1  0
  5  6  1  0
  6  7  1  0
  7  8  1  0
  8  9  1  0
  9 10  1  0
 11 10  1  0
 12  7  1  0
 12 11  1  0
 13 18  1  0
 14 15  2  0
 14 24  1  0
 16 15  1  0
 17 16  2  0
 18 17  1  0
 18 19  2  0
 19 14  1  0
 20 21  2  0
 22 21  1  0
 23 22  2  0
 24 23  1  0
 24 25  2  0
 25 20  1  0
  1 26  1  0
  2 27  1  0
  2 28  1  0
  3 29  1  0
  3 30  1  0
  4 31  1  6
  5 32  1  0
  5 33  1  0
  6 34  1  6
  7 35  1  0
  8 36  1  0
  8 37  1  0
  9 38  1  0
  9 39  1  0
 10 40  1  0
 10 41  1  0
 11 42  1  0
 11 43  1  0
 12 44  1  0
 12 45  1  0
 15 46  1  0
 16 47  1  0
 17 48  1  0
 20 49  1  0
 21 50  1  0
 22 51  1  0
M  ISO  8  26   5  27  13  28  13  29  13  30  13  31  13  32  13  33  13
M  ISO  8  34  13  35  13  36  13  37  13  38  13  39  13  40  13  41  13
M  ISO  8  42  13  43  13  44  13  45  13  46  14  47  14  48  14  49  14
M  ISO  2  50  14  51  14
M  END
>  <minimizedAffinity>  (1) 
-5.49445152

>  <minimizedRMSD>  (1) 
1.22309804

$$$$
