
     RDKit          3D

 46 49  0  0  0  0  0  0  0  0999 V2000
   36.5660   30.9120   40.4250 C   0  0  0  0  0  0  0  0  0  0  0  0
   36.4620   31.1060   39.0620 N   0  0  0  0  0  0  0  0  0  0  0  0
   37.2760   32.0720   38.7230 O   0  0  0  0  0  0  0  0  0  0  0  0
   37.8760   32.4840   39.8030 C   0  0  0  0  0  0  0  0  0  0  0  0
   37.4650   31.7950   40.8690 N   0  0  0  0  0  0  0  0  0  0  0  0
   38.8650   33.5590   39.8270 C   0  0  0  0  0  0  0  0  0  0  0  0
   38.6810   34.8640   40.2300 C   0  0  0  0  0  0  0  0  0  0  0  0
   39.8410   35.5680   40.1070 C   0  0  0  0  0  0  0  0  0  0  0  0
   40.7360   34.6430   39.6150 C   0  0  0  0  0  0  0  0  0  0  0  0
   40.1250   33.5260   39.4780 O   0  0  0  0  0  0  0  0  0  0  0  0
   42.1830   34.9210   39.3000 C   0  0  0  0  0  0  0  0  0  0  0  0
   43.0810   34.1960   40.2410 C   0  0  0  0  0  0  0  0  0  0  0  0
   43.5780   32.8610   39.7550 C   0  0  0  0  0  0  0  0  0  0  0  0
   44.1490   33.0900   38.3650 C   0  0  0  0  0  0  0  0  0  0  0  0
   42.9060   33.3070   37.4900 C   0  0  0  0  0  0  0  0  0  0  0  0
   42.4040   34.6740   37.8490 C   0  0  0  0  0  0  0  0  0  0  0  0
   35.9080   30.0020   41.2720 O   0  0  0  0  0  0  0  0  0  0  0  0
   38.0220   27.8950   43.3560 C   0  0  0  0  0  0  0  0  0  0  0  0
   37.8830   26.6850   42.6120 C   0  0  0  0  0  0  0  0  0  0  0  0
   37.0880   26.7000   41.4830 C   0  0  0  0  0  0  0  0  0  0  0  0
   36.4930   27.8630   41.1510 N   0  0  0  0  0  0  0  0  0  0  0  0
   36.6210   28.9830   41.8380 C   0  0  0  0  0  0  0  0  0  0  0  0
   37.3880   29.0150   42.9520 N   0  0  0  0  0  0  0  0  0  0  0  0
   37.0300   25.4100   40.8310 C   0  0  0  0  0  0  0  0  0  0  0  0
   37.3990   24.2440   41.6470 C   0  0  0  0  0  0  0  0  0  0  0  0
   37.9930   22.8560   40.6140 S   0  0  0  0  0  0  0  0  0  0  0  0
   37.7314   35.2788   40.5990 H   0  0  0  0  0  0  0  0  0  0  0  0
   40.0209   36.6268   40.3448 H   0  0  0  0  0  0  0  0  0  0  0  0
   42.4460   35.9757   39.4687 H   0  0  0  0  0  0  0  0  0  0  0  0
   43.9557   34.8340   40.4358 H   0  0  0  0  0  0  0  0  0  0  0  0
   42.4787   33.9886   41.1378 H   0  0  0  0  0  0  0  0  0  0  0  0
   44.3596   32.4790   40.4282 H   0  0  0  0  0  0  0  0  0  0  0  0
   42.7659   32.1194   39.7330 H   0  0  0  0  0  0  0  0  0  0  0  0
   44.7989   33.9773   38.3496 H   0  0  0  0  0  0  0  0  0  0  0  0
   44.7728   32.2531   38.0180 H   0  0  0  0  0  0  0  0  0  0  0  0
   42.1425   32.5461   37.7095 H   0  0  0  0  0  0  0  0  0  0  0  0
   43.1390   33.2237   36.4182 H   0  0  0  0  0  0  0  0  0  0  0  0
   43.1392   35.4090   37.4894 H   0  0  0  0  0  0  0  0  0  0  0  0
   41.4149   34.7635   37.3760 H   0  0  0  0  0  0  0  0  0  0  0  0
   38.6474   27.9143   44.2607 H   0  0  0  0  0  0  0  0  0  0  0  0
   38.3955   25.7649   42.9295 H   0  0  0  0  0  0  0  0  0  0  0  0
   35.9984   25.2592   40.4803 H   0  0  0  0  0  0  0  0  0  0  0  0
   37.7834   25.4548   40.0308 H   0  0  0  0  0  0  0  0  0  0  0  0
   38.1973   24.5358   42.3453 H   0  0  0  0  0  0  0  0  0  0  0  0
   36.5033   23.9083   42.1903 H   0  0  0  0  0  0  0  0  0  0  0  0
   38.4282   21.8390   41.4221 H   0  0  0  0  0  0  0  0  0  0  0  0
  1  5  1  0
  1 17  1  0
  2  1  2  0
  3  2  1  0
  3  4  1  0
  4  6  1  0
  4  5  2  0
  6  7  2  0
  8  7  1  0
  9  8  2  0
 10  9  1  0
 10  6  1  0
 11  9  1  0
 11 12  1  0
 13 12  1  0
 14 13  1  0
 15 16  1  0
 15 14  1  0
 16 11  1  0
 17 22  1  0
 19 18  2  0
 20 19  1  0
 21 20  2  0
 21 22  1  0
 22 23  2  0
 23 18  1  0
 24 20  1  0
 24 25  1  0
 26 25  1  0
  7 27  1  0
  8 28  1  0
 11 29  1  0
 12 30  1  0
 12 31  1  0
 13 32  1  0
 13 33  1  0
 14 34  1  0
 14 35  1  0
 15 36  1  0
 15 37  1  0
 16 38  1  0
 16 39  1  0
 18 40  1  0
 19 41  1  0
 24 42  1  0
 24 43  1  0
 25 44  1  0
 25 45  1  0
 26 46  1  0
M  ISO  8  27  14  28  14  29  13  30  13  31  13  32  13  33  13  34  13
M  ISO  8  35  13  36  13  37  13  38  13  39  13  40  14  41  14  42   8
M  ISO  4  43   8  44   8  45   8  46  11
M  END
>  <minimizedAffinity>  (1) 
-5.84300756

>  <minimizedRMSD>  (1) 
0.529892206

$$$$
