
     RDKit          3D

 33 35  0  0  1  0  0  0  0  0999 V2000
   36.3520   30.6830   41.1180 C   0  0  1  0  0  0  0  0  0  0  0  0
   37.2640   31.5260   40.2910 C   0  0  0  0  0  0  0  0  0  0  0  0
   36.3180   30.5970   39.6170 C   0  0  1  0  0  0  0  0  0  0  0  0
   38.7720   28.8080   43.1220 C   0  0  0  0  0  0  0  0  0  0  0  0
   38.1160   27.5670   43.3380 C   0  0  0  0  0  0  0  0  0  0  0  0
   36.8270   27.3990   42.7720 C   0  0  0  0  0  0  0  0  0  0  0  0
   36.2780   28.4270   42.0490 N   0  0  0  0  0  0  0  0  0  0  0  0
   36.9500   29.5830   41.8760 C   0  0  0  0  0  0  0  0  0  0  0  0
   38.1540   29.7430   42.4050 N   0  0  0  0  0  0  0  0  0  0  0  0
   36.8720   29.5220   38.7720 C   0  0  0  0  0  0  0  0  0  0  0  0
   35.7490   28.9230   37.8770 C   0  0  0  0  0  0  0  0  0  0  0  0
   36.2080   28.5880   36.5050 C   0  0  0  0  0  0  0  0  0  0  0  0
   36.5630   29.8210   35.6920 C   0  0  0  0  0  0  0  0  0  0  0  0
   37.1440   30.8310   36.6800 C   0  0  0  0  0  0  0  0  0  0  0  0
   37.8730   30.0500   37.7840 C   0  0  0  0  0  0  0  0  0  0  0  0
   35.5993   30.8670   41.8988 H   0  0  0  0  0  0  0  0  0  0  0  0
   37.1021   32.6124   40.2307 H   0  0  0  0  0  0  0  0  0  0  0  0
   38.3521   31.6836   40.2549 H   0  0  0  0  0  0  0  0  0  0  0  0
   35.4802   30.6350   38.9053 H   0  0  0  0  0  0  0  0  0  0  0  0
   39.7726   28.9928   43.5398 H   0  0  0  0  0  0  0  0  0  0  0  0
   38.5906   26.7655   43.9230 H   0  0  0  0  0  0  0  0  0  0  0  0
   36.2752   26.4576   42.9108 H   0  0  0  0  0  0  0  0  0  0  0  0
   37.3230   28.7945   39.4629 H   0  0  0  0  0  0  0  0  0  0  0  0
   35.3746   28.0052   38.3539 H   0  0  0  0  0  0  0  0  0  0  0  0
   34.9654   29.6890   37.7807 H   0  0  0  0  0  0  0  0  0  0  0  0
   37.0979   27.9456   36.5780 H   0  0  0  0  0  0  0  0  0  0  0  0
   35.3803   28.0766   35.9917 H   0  0  0  0  0  0  0  0  0  0  0  0
   37.3075   29.5689   34.9225 H   0  0  0  0  0  0  0  0  0  0  0  0
   35.6812   30.2277   35.1754 H   0  0  0  0  0  0  0  0  0  0  0  0
   37.8523   31.4946   36.1623 H   0  0  0  0  0  0  0  0  0  0  0  0
   36.3418   31.4464   37.1134 H   0  0  0  0  0  0  0  0  0  0  0  0
   38.4233   29.2097   37.3357 H   0  0  0  0  0  0  0  0  0  0  0  0
   38.5782   30.7183   38.2998 H   0  0  0  0  0  0  0  0  0  0  0  0
  1  8  1  0
  2  1  1  0
  3  2  1  0
  3  1  1  0
  4  5  2  0
  6  5  1  0
  7  6  2  0
  8  7  1  0
  8  9  2  0
  9  4  1  0
 10  3  1  0
 11 10  1  0
 12 11  1  0
 13 12  1  0
 13 14  1  0
 14 15  1  0
 15 10  1  0
  1 16  1  1
  2 17  1  0
  2 18  1  0
  3 19  1  6
  4 20  1  0
  5 21  1  0
  6 22  1  0
 10 23  1  0
 11 24  1  0
 11 25  1  0
 12 26  1  0
 12 27  1  0
 13 28  1  0
 13 29  1  0
 14 30  1  0
 14 31  1  0
 15 32  1  0
 15 33  1  0
M  ISO  8  16  13  17  13  18  13  19  13  20  14  21  14  22  14  23  13
M  ISO  8  24  13  25  13  26  13  27  13  28  13  29  13  30  13  31  13
M  ISO  2  32  13  33  13
M  END
>  <minimizedAffinity>  (1) 
-4.34287071

>  <minimizedRMSD>  (1) 
2.4911046

$$$$
