
     RDKit          3D

 56 60  0  0  0  0  0  0  0  0999 V2000
   36.1970   30.1600   41.0870 C   0  0  0  0  0  0  0  0  0  0  0  0
   38.4750   28.0180   42.6950 C   0  0  0  0  0  0  0  0  0  0  0  0
   37.3110   27.2980   42.8220 C   0  0  0  0  0  0  0  0  0  0  0  0
   36.3140   28.0590   42.2080 C   0  0  0  0  0  0  0  0  0  0  0  0
   36.9490   29.1620   41.7660 N   0  0  0  0  0  0  0  0  0  0  0  0
   38.2190   29.1800   42.0290 N   0  0  0  0  0  0  0  0  0  0  0  0
   41.2320   26.1110   44.3190 C   0  0  0  0  0  0  0  0  0  0  0  0
   39.9510   26.4270   43.8620 C   0  0  0  0  0  0  0  0  0  0  0  0
   39.7920   27.6570   43.1740 C   0  0  0  0  0  0  0  0  0  0  0  0
   40.8540   28.4660   42.9850 N   0  0  0  0  0  0  0  0  0  0  0  0
   42.0890   28.0870   43.4660 C   0  0  0  0  0  0  0  0  0  0  0  0
   42.2600   26.9390   44.1140 N   0  0  0  0  0  0  0  0  0  0  0  0
   43.1570   29.0900   43.1760 C   0  0  0  0  0  0  0  0  0  0  0  0
   44.2230   28.9050   44.2060 C   0  0  0  0  0  0  0  0  0  0  0  0
   45.0230   30.1490   44.4850 C   0  0  0  0  0  0  0  0  0  0  0  0
   43.9970   31.1380   45.0480 C   0  0  0  0  0  0  0  0  0  0  0  0
   43.1350   31.5260   43.8950 C   0  0  0  0  0  0  0  0  0  0  0  0
   42.5370   30.4260   43.1100 C   0  0  0  0  0  0  0  0  0  0  0  0
   35.2730   29.6660   40.0210 C   0  0  0  0  0  0  0  0  0  0  0  0
   35.8900   29.5350   38.6740 C   0  0  0  0  0  0  0  0  0  0  0  0
   37.2010   29.7000   38.3410 C   0  0  0  0  0  0  0  0  0  0  0  0
   37.7180   29.6430   37.0820 C   0  0  0  0  0  0  0  0  0  0  0  0
   36.8780   29.3980   36.0190 C   0  0  0  0  0  0  0  0  0  0  0  0
   35.5280   29.2190   36.2910 C   0  0  0  0  0  0  0  0  0  0  0  0
   34.7440   28.9820   35.1870 C   0  0  0  0  0  0  0  0  0  0  0  0
   33.4010   28.7890   35.3500 C   0  0  0  0  0  0  0  0  0  0  0  0
   32.8610   28.8350   36.6220 C   0  0  0  0  0  0  0  0  0  0  0  0
   33.6990   29.0750   37.6710 C   0  0  0  0  0  0  0  0  0  0  0  0
   35.0360   29.2820   37.5850 C   0  0  0  0  0  0  0  0  0  0  0  0
   33.0990   29.0890   38.9190 O   0  0  0  0  0  0  0  0  0  0  0  0
   35.5937   30.6952   41.8351 H   0  0  0  0  0  0  0  0  0  0  0  0
   36.9358   30.7920   40.5724 H   0  0  0  0  0  0  0  0  0  0  0  0
   37.1893   26.3193   43.3092 H   0  0  0  0  0  0  0  0  0  0  0  0
   35.2467   27.8125   42.1075 H   0  0  0  0  0  0  0  0  0  0  0  0
   41.3972   25.1654   44.8562 H   0  0  0  0  0  0  0  0  0  0  0  0
   39.1003   25.7499   44.0287 H   0  0  0  0  0  0  0  0  0  0  0  0
   43.6479   28.9611   42.2001 H   0  0  0  0  0  0  0  0  0  0  0  0
   43.7467   28.5819   45.1434 H   0  0  0  0  0  0  0  0  0  0  0  0
   44.9244   28.1563   43.8091 H   0  0  0  0  0  0  0  0  0  0  0  0
   45.8146   29.9467   45.2215 H   0  0  0  0  0  0  0  0  0  0  0  0
   45.5302   30.5335   43.5879 H   0  0  0  0  0  0  0  0  0  0  0  0
   43.3940   30.6592   45.8336 H   0  0  0  0  0  0  0  0  0  0  0  0
   44.4841   32.0130   45.5030 H   0  0  0  0  0  0  0  0  0  0  0  0
   42.3115   32.1407   44.2873 H   0  0  0  0  0  0  0  0  0  0  0  0
   43.8064   32.0463   43.1961 H   0  0  0  0  0  0  0  0  0  0  0  0
   42.5499   30.7371   42.0550 H   0  0  0  0  0  0  0  0  0  0  0  0
   41.5453   30.2827   43.5640 H   0  0  0  0  0  0  0  0  0  0  0  0
   34.8985   28.6770   40.3238 H   0  0  0  0  0  0  0  0  0  0  0  0
   34.4778   30.4200   39.9259 H   0  0  0  0  0  0  0  0  0  0  0  0
   37.9052   29.8969   39.1628 H   0  0  0  0  0  0  0  0  0  0  0  0
   38.7953   29.7912   36.9164 H   0  0  0  0  0  0  0  0  0  0  0  0
   37.2629   29.3458   34.9899 H   0  0  0  0  0  0  0  0  0  0  0  0
   35.1928   28.9481   34.1833 H   0  0  0  0  0  0  0  0  0  0  0  0
   32.7567   28.5992   34.4789 H   0  0  0  0  0  0  0  0  0  0  0  0
   31.7838   28.6820   36.7837 H   0  0  0  0  0  0  0  0  0  0  0  0
   33.6439   29.2569   39.7283 H   0  0  0  0  0  0  0  0  0  0  0  0
  1  5  1  0
  2  3  1  0
  2  9  1  0
  4  3  2  0
  5  6  1  0
  5  4  1  0
  6  2  2  0
  8  7  2  0
  9  8  1  0
 10  9  2  0
 10 11  1  0
 11 12  2  0
 12  7  1  0
 13 11  1  0
 13 14  1  0
 14 15  1  0
 15 16  1  0
 17 16  1  0
 18 13  1  0
 18 17  1  0
 19  1  1  0
 20 19  1  0
 21 20  2  0
 22 21  1  0
 23 24  1  0
 23 22  2  0
 24 29  2  0
 25 26  2  0
 25 24  1  0
 26 27  1  0
 27 28  2  0
 28 30  1  0
 29 28  1  0
 29 20  1  0
  1 31  1  0
  1 32  1  0
  3 33  1  0
  4 34  1  0
  7 35  1  0
  8 36  1  0
 13 37  1  0
 14 38  1  0
 14 39  1  0
 15 40  1  0
 15 41  1  0
 16 42  1  0
 16 43  1  0
 17 44  1  0
 17 45  1  0
 18 46  1  0
 18 47  1  0
 19 48  1  0
 19 49  1  0
 21 50  1  0
 22 51  1  0
 23 52  1  0
 25 53  1  0
 26 54  1  0
 27 55  1  0
 30 56  1  0
M  ISO  8  31   8  32   8  33  14  34  14  35  14  36  14  37  13  38  13
M  ISO  8  39  13  40  13  41  13  42  13  43  13  44  13  45  13  46  13
M  ISO  8  47  13  48   8  49   8  50  14  51  14  52  14  53  14  54  14
M  ISO  2  55  14  56   3
M  END
>  <minimizedAffinity>  (1) 
-6.31108809

>  <minimizedRMSD>  (1) 
0.468240499

$$$$
