
     RDKit          3D

 43 46  0  0  1  0  0  0  0  0999 V2000
   38.3920   30.8030   39.4040 N   0  0  0  0  0  0  0  0  0  0  0  0
   38.6480   30.0620   38.1300 C   0  0  0  0  0  0  0  0  0  0  0  0
   40.0780   29.6700   38.0100 C   0  0  0  0  0  0  0  0  0  0  0  0
   40.9090   30.6850   38.4280 O   0  0  0  0  0  0  0  0  0  0  0  0
   40.2130   31.8750   38.2560 C   0  0  0  0  0  0  0  0  0  0  0  0
   39.0360   32.0320   39.2520 C   0  0  2  0  0  0  0  0  0  0  0  0
   36.2680   29.8110   40.5160 C   0  0  1  0  0  0  0  0  0  0  0  0
   36.2530   31.2640   40.7750 C   0  0  0  0  0  0  0  0  0  0  0  0
   36.9760   30.8190   39.5840 C   0  0  1  0  0  0  0  0  0  0  0  0
   38.2480   28.7470   43.4190 C   0  0  0  0  0  0  0  0  0  0  0  0
   38.7230   27.4700   43.0330 C   0  0  0  0  0  0  0  0  0  0  0  0
   38.3490   27.0040   41.7560 C   0  0  0  0  0  0  0  0  0  0  0  0
   37.5470   27.8000   40.9480 N   0  0  0  0  0  0  0  0  0  0  0  0
   37.1370   29.0000   41.3870 C   0  0  0  0  0  0  0  0  0  0  0  0
   37.4830   29.4540   42.5930 N   0  0  0  0  0  0  0  0  0  0  0  0
   39.5760   32.8950   40.2920 C   0  0  0  0  0  0  0  0  0  0  0  0
   38.5640   33.9910   40.5900 C   0  0  0  0  0  0  0  0  0  0  0  0
   39.2140   35.3110   40.3850 C   0  0  0  0  0  0  0  0  0  0  0  0
   40.5210   35.0740   39.7070 C   0  0  0  0  0  0  0  0  0  0  0  0
   40.8580   33.6190   39.9010 C   0  0  0  0  0  0  0  0  0  0  0  0
   38.0253   29.1554   38.1116 H   0  0  0  0  0  0  0  0  0  0  0  0
   38.3978   30.7236   37.2876 H   0  0  0  0  0  0  0  0  0  0  0  0
   40.2592   28.7796   38.6299 H   0  0  0  0  0  0  0  0  0  0  0  0
   40.2932   29.4566   36.9526 H   0  0  0  0  0  0  0  0  0  0  0  0
   40.9099   32.7137   38.4005 H   0  0  0  0  0  0  0  0  0  0  0  0
   39.7890   31.8668   37.2410 H   0  0  0  0  0  0  0  0  0  0  0  0
   38.1099   32.5702   39.0017 H   0  0  0  0  0  0  0  0  0  0  0  0
   35.5127   29.0202   40.3973 H   0  0  0  0  0  0  0  0  0  0  0  0
   35.3133   31.8238   40.6588 H   0  0  0  0  0  0  0  0  0  0  0  0
   36.5300   31.8814   41.6423 H   0  0  0  0  0  0  0  0  0  0  0  0
   36.9438   31.1139   38.5247 H   0  0  0  0  0  0  0  0  0  0  0  0
   38.5129   29.1553   44.4055 H   0  0  0  0  0  0  0  0  0  0  0  0
   39.3565   26.8676   43.7007 H   0  0  0  0  0  0  0  0  0  0  0  0
   38.6891   26.0193   41.4028 H   0  0  0  0  0  0  0  0  0  0  0  0
   39.7899   32.2328   41.1439 H   0  0  0  0  0  0  0  0  0  0  0  0
   37.7031   33.8936   39.9123 H   0  0  0  0  0  0  0  0  0  0  0  0
   38.2138   33.9041   41.6291 H   0  0  0  0  0  0  0  0  0  0  0  0
   38.5760   35.9488   39.7556 H   0  0  0  0  0  0  0  0  0  0  0  0
   39.3671   35.8182   41.3490 H   0  0  0  0  0  0  0  0  0  0  0  0
   41.3006   35.7060   40.1573 H   0  0  0  0  0  0  0  0  0  0  0  0
   40.4605   35.3246   38.6376 H   0  0  0  0  0  0  0  0  0  0  0  0
   41.2554   33.1985   38.9654 H   0  0  0  0  0  0  0  0  0  0  0  0
   41.6212   33.5014   40.6843 H   0  0  0  0  0  0  0  0  0  0  0  0
  1  2  1  0
  1  9  1  0
  3  2  1  0
  3  4  1  0
  5  4  1  0
  5  6  1  0
  6  1  1  0
  6 16  1  0
  7  8  1  0
  7 14  1  0
  9  7  1  0
  9  8  1  0
 11 10  2  0
 12 11  1  0
 13 14  1  0
 13 12  2  0
 14 15  2  0
 15 10  1  0
 16 17  1  0
 18 17  1  0
 19 20  1  0
 19 18  1  0
 20 16  1  0
  2 21  1  0
  2 22  1  0
  3 23  1  0
  3 24  1  0
  5 25  1  0
  5 26  1  0
  6 27  1  6
  7 28  1  6
  8 29  1  0
  8 30  1  0
  9 31  1  6
 10 32  1  0
 11 33  1  0
 12 34  1  0
 16 35  1  0
 17 36  1  0
 17 37  1  0
 18 38  1  0
 18 39  1  0
 19 40  1  0
 19 41  1  0
 20 42  1  0
 20 43  1  0
M  ISO  8  21  13  22  13  23  13  24  13  25  13  26  13  27  13  28  13
M  ISO  8  29  13  30  13  31  13  32  14  33  14  34  14  35  13  36  13
M  ISO  7  37  13  38  13  39  13  40  13  41  13  42  13  43  13
M  END
>  <minimizedAffinity>  (1) 
-5.01643658

>  <minimizedRMSD>  (1) 
2.04876351

$$$$
