
     RDKit          3D

 43 46  0  0  0  0  0  0  0  0999 V2000
   35.9430   30.2250   41.0830 O   0  0  0  0  0  0  0  0  0  0  0  0
   37.8990   28.0060   43.2080 C   0  0  0  0  0  0  0  0  0  0  0  0
   37.7490   26.8130   42.4370 C   0  0  0  0  0  0  0  0  0  0  0  0
   37.0030   26.8730   41.2770 C   0  0  0  0  0  0  0  0  0  0  0  0
   36.4600   28.0660   40.9440 N   0  0  0  0  0  0  0  0  0  0  0  0
   36.5990   29.1680   41.6570 C   0  0  0  0  0  0  0  0  0  0  0  0
   37.3180   29.1550   42.7980 N   0  0  0  0  0  0  0  0  0  0  0  0
   36.9320   25.6010   40.5970 C   0  0  0  0  0  0  0  0  0  0  0  0
   36.9730   24.3990   41.4450 C   0  0  0  0  0  0  0  0  0  0  0  0
   37.9060   23.0390   40.6520 S   0  0  0  0  0  0  0  0  0  0  0  0
   36.6780   31.1680   40.3520 C   0  0  0  0  0  0  0  0  0  0  0  0
   36.6970   31.4310   38.9950 N   0  0  0  0  0  0  0  0  0  0  0  0
   37.5430   32.4050   38.7730 O   0  0  0  0  0  0  0  0  0  0  0  0
   38.0480   32.7550   39.9220 C   0  0  0  0  0  0  0  0  0  0  0  0
   37.5380   32.0150   40.9160 N   0  0  0  0  0  0  0  0  0  0  0  0
   39.0350   33.8160   40.0860 C   0  0  0  0  0  0  0  0  0  0  0  0
   38.7950   35.1790   40.1990 C   0  0  0  0  0  0  0  0  0  0  0  0
   39.9930   35.8480   40.3400 C   0  0  0  0  0  0  0  0  0  0  0  0
   40.9440   34.8400   40.3070 C   0  0  0  0  0  0  0  0  0  0  0  0
   40.3450   33.7160   40.1620 O   0  0  0  0  0  0  0  0  0  0  0  0
   42.4000   35.1230   40.4290 C   0  0  0  0  0  0  0  0  0  0  0  0
   43.1620   33.9530   39.8720 C   0  0  0  0  0  0  0  0  0  0  0  0
   44.1350   33.5310   40.9600 C   0  0  0  0  0  0  0  0  0  0  0  0
   43.5640   34.0190   42.2550 C   0  0  0  0  0  0  0  0  0  0  0  0
   42.8230   35.2680   41.8650 C   0  0  0  0  0  0  0  0  0  0  0  0
   38.4882   27.9894   44.1367 H   0  0  0  0  0  0  0  0  0  0  0  0
   38.2159   25.8706   42.7593 H   0  0  0  0  0  0  0  0  0  0  0  0
   35.9898   25.5776   40.0297 H   0  0  0  0  0  0  0  0  0  0  0  0
   37.8399   25.5512   39.9780 H   0  0  0  0  0  0  0  0  0  0  0  0
   37.4567   24.6532   42.3997 H   0  0  0  0  0  0  0  0  0  0  0  0
   35.9395   24.0573   41.6038 H   0  0  0  0  0  0  0  0  0  0  0  0
   38.4555   22.2381   41.6182 H   0  0  0  0  0  0  0  0  0  0  0  0
   37.8023   35.6524   40.1791 H   0  0  0  0  0  0  0  0  0  0  0  0
   40.1559   36.9300   40.4525 H   0  0  0  0  0  0  0  0  0  0  0  0
   42.6043   36.0596   39.8895 H   0  0  0  0  0  0  0  0  0  0  0  0
   42.4747   33.1281   39.6329 H   0  0  0  0  0  0  0  0  0  0  0  0
   43.6872   34.2195   38.9429 H   0  0  0  0  0  0  0  0  0  0  0  0
   44.2337   32.4356   40.9772 H   0  0  0  0  0  0  0  0  0  0  0  0
   45.1357   33.9520   40.7832 H   0  0  0  0  0  0  0  0  0  0  0  0
   42.8793   33.2748   42.6878 H   0  0  0  0  0  0  0  0  0  0  0  0
   44.3328   34.1991   43.0208 H   0  0  0  0  0  0  0  0  0  0  0  0
   43.4807   36.1428   41.9747 H   0  0  0  0  0  0  0  0  0  0  0  0
   41.9446   35.4109   42.5115 H   0  0  0  0  0  0  0  0  0  0  0  0
  1  6  1  0
  3  2  2  0
  4  3  1  0
  5  4  2  0
  5  6  1  0
  6  7  2  0
  7  2  1  0
  8  4  1  0
  8  9  1  0
 10  9  1  0
 11 15  1  0
 11  1  1  0
 12 11  2  0
 13 12  1  0
 13 14  1  0
 14 16  1  0
 14 15  2  0
 16 20  1  0
 16 17  2  0
 17 18  1  0
 19 18  2  0
 19 21  1  0
 20 19  1  0
 21 25  1  0
 22 21  1  0
 22 23  1  0
 23 24  1  0
 25 24  1  0
  2 26  1  0
  3 27  1  0
  8 28  1  0
  8 29  1  0
  9 30  1  0
  9 31  1  0
 10 32  1  0
 17 33  1  0
 18 34  1  0
 21 35  1  0
 22 36  1  0
 22 37  1  0
 23 38  1  0
 23 39  1  0
 24 40  1  0
 24 41  1  0
 25 42  1  0
 25 43  1  0
M  ISO  8  26  14  27  14  28   8  29   8  30   8  31   8  32  11  33  14
M  ISO  8  34  14  35  13  36  13  37  13  38  13  39  13  40  13  41  13
M  ISO  2  42  13  43  13
M  END
>  <minimizedAffinity>  (1) 
-5.76545525

>  <minimizedRMSD>  (1) 
0.683966875

$$$$
