
     RDKit          3D

 42 45  0  0  0  0  0  0  0  0999 V2000
   38.5920   27.1290   43.2790 C   0  0  0  0  0  0  0  0  0  0  0  0
   39.7970   27.0680   43.9910 C   0  0  0  0  0  0  0  0  0  0  0  0
   40.6100   25.9630   43.9000 C   0  0  0  0  0  0  0  0  0  0  0  0
   40.2280   24.9060   43.0990 C   0  0  0  0  0  0  0  0  0  0  0  0
   39.0480   24.9550   42.3970 C   0  0  0  0  0  0  0  0  0  0  0  0
   38.6480   23.8940   41.5870 C   0  0  0  0  0  0  0  0  0  0  0  0
   37.4840   23.9410   40.8970 C   0  0  0  0  0  0  0  0  0  0  0  0
   36.6360   25.0380   40.9600 C   0  0  0  0  0  0  0  0  0  0  0  0
   37.0610   26.0850   41.7780 C   0  0  0  0  0  0  0  0  0  0  0  0
   38.2280   26.0750   42.4910 C   0  0  0  0  0  0  0  0  0  0  0  0
   37.6990   28.2850   43.3510 C   0  0  0  0  0  0  0  0  0  0  0  0
   39.3430   30.1470   42.8640 C   0  0  0  0  0  0  0  0  0  0  0  0
   38.1450   29.4770   42.5880 C   0  0  0  0  0  0  0  0  0  0  0  0
   37.3820   29.9940   41.5490 C   0  0  0  0  0  0  0  0  0  0  0  0
   37.8240   31.0740   40.8890 N   0  0  0  0  0  0  0  0  0  0  0  0
   38.9700   31.6880   41.1770 C   0  0  0  0  0  0  0  0  0  0  0  0
   39.7440   31.2180   42.1820 N   0  0  0  0  0  0  0  0  0  0  0  0
   39.3240   32.8750   40.3540 C   0  0  0  0  0  0  0  0  0  0  0  0
   40.7670   33.2530   40.4250 C   0  0  0  0  0  0  0  0  0  0  0  0
   40.7370   34.6450   39.7840 C   0  0  0  0  0  0  0  0  0  0  0  0
   39.3510   35.2050   40.1040 C   0  0  0  0  0  0  0  0  0  0  0  0
   38.6640   34.1340   40.9060 C   0  0  0  0  0  0  0  0  0  0  0  0
   40.0957   27.9127   44.6292 H   0  0  0  0  0  0  0  0  0  0  0  0
   41.5558   25.9218   44.4602 H   0  0  0  0  0  0  0  0  0  0  0  0
   40.8728   24.0181   43.0221 H   0  0  0  0  0  0  0  0  0  0  0  0
   39.2886   23.0034   41.5068 H   0  0  0  0  0  0  0  0  0  0  0  0
   37.2019   23.0841   40.2676 H   0  0  0  0  0  0  0  0  0  0  0  0
   35.6896   25.0791   40.4008 H   0  0  0  0  0  0  0  0  0  0  0  0
   36.4175   26.9739   41.8543 H   0  0  0  0  0  0  0  0  0  0  0  0
   36.7161   27.9804   42.9622 H   0  0  0  0  0  0  0  0  0  0  0  0
   37.6787   28.5894   44.4079 H   0  0  0  0  0  0  0  0  0  0  0  0
   39.9800   29.7727   43.6789 H   0  0  0  0  0  0  0  0  0  0  0  0
   36.4273   29.5234   41.2712 H   0  0  0  0  0  0  0  0  0  0  0  0
   39.0132   32.5798   39.3409 H   0  0  0  0  0  0  0  0  0  0  0  0
   41.1229   33.2948   41.4650 H   0  0  0  0  0  0  0  0  0  0  0  0
   41.4466   32.5418   39.9327 H   0  0  0  0  0  0  0  0  0  0  0  0
   40.8814   34.5716   38.6960 H   0  0  0  0  0  0  0  0  0  0  0  0
   41.5399   35.2914   40.1681 H   0  0  0  0  0  0  0  0  0  0  0  0
   39.4361   36.1311   40.6915 H   0  0  0  0  0  0  0  0  0  0  0  0
   38.7903   35.4565   39.1916 H   0  0  0  0  0  0  0  0  0  0  0  0
   37.5787   34.1310   40.7269 H   0  0  0  0  0  0  0  0  0  0  0  0
   38.7639   34.2537   41.9949 H   0  0  0  0  0  0  0  0  0  0  0  0
  1 11  1  0
  1  2  2  0
  3  2  1  0
  4  3  2  0
  5 10  2  0
  5  4  1  0
  6  5  1  0
  7  8  1  0
  7  6  2  0
  8  9  2  0
  9 10  1  0
 10  1  1  0
 13 12  2  0
 13 11  1  0
 14 13  1  0
 15 16  1  0
 15 14  2  0
 16 17  2  0
 17 12  1  0
 18 19  1  0
 18 22  1  0
 18 16  1  0
 20 21  1  0
 20 19  1  0
 21 22  1  0
  2 23  1  0
  3 24  1  0
  4 25  1  0
  6 26  1  0
  7 27  1  0
  8 28  1  0
  9 29  1  0
 11 30  1  0
 11 31  1  0
 12 32  1  0
 14 33  1  0
 18 34  1  0
 19 35  1  0
 19 36  1  0
 20 37  1  0
 20 38  1  0
 21 39  1  0
 21 40  1  0
 22 41  1  0
 22 42  1  0
M  ISO  8  23  14  24  14  25  14  26  14  27  14  28  14  29  14  30   8
M  ISO  8  31   8  32  14  33  14  34  13  35  13  36  13  37  13  38  13
M  ISO  4  39  13  40  13  41  13  42  13
M  END
>  <minimizedAffinity>  (1) 
-6.58869743

>  <minimizedRMSD>  (1) 
0.990099013

$$$$
