
     RDKit          3D

 51 55  0  0  0  0  0  0  0  0999 V2000
   37.1800   29.2820   39.8930 C   0  0  0  0  0  0  0  0  0  0  0  0
   36.2340   29.3650   38.8560 C   0  0  0  0  0  0  0  0  0  0  0  0
   36.3770   30.2320   37.7650 C   0  0  0  0  0  0  0  0  0  0  0  0
   37.4950   30.9970   37.7670 N   0  0  0  0  0  0  0  0  0  0  0  0
   38.4070   30.9420   38.7300 C   0  0  0  0  0  0  0  0  0  0  0  0
   38.2280   30.1100   39.7380 N   0  0  0  0  0  0  0  0  0  0  0  0
   37.2000   28.4900   41.0550 C   0  0  0  0  0  0  0  0  0  0  0  0
   37.3830   29.1930   42.2640 C   0  0  0  0  0  0  0  0  0  0  0  0
   37.4320   28.5980   43.5140 C   0  0  0  0  0  0  0  0  0  0  0  0
   37.2910   27.2110   43.5830 C   0  0  0  0  0  0  0  0  0  0  0  0
   37.1090   26.4670   42.4320 C   0  0  0  0  0  0  0  0  0  0  0  0
   36.9700   25.1090   42.4800 C   0  0  0  0  0  0  0  0  0  0  0  0
   36.7890   24.3330   41.3750 C   0  0  0  0  0  0  0  0  0  0  0  0
   36.7590   25.0280   40.1980 C   0  0  0  0  0  0  0  0  0  0  0  0
   36.8950   26.3830   40.1270 C   0  0  0  0  0  0  0  0  0  0  0  0
   37.0760   27.1470   41.2530 C   0  0  0  0  0  0  0  0  0  0  0  0
   39.5810   31.8190   38.6240 C   0  0  0  0  0  0  0  0  0  0  0  0
   40.5900   31.4490   37.9460 O   0  0  0  0  0  0  0  0  0  0  0  0
   39.7180   33.1270   39.2370 C   0  0  0  0  0  0  0  0  0  0  0  0
   38.5580   33.7090   39.7590 C   0  0  0  0  0  0  0  0  0  0  0  0
   38.6280   34.9710   40.3740 C   0  0  0  0  0  0  0  0  0  0  0  0
   39.8380   35.6630   40.4760 C   0  0  0  0  0  0  0  0  0  0  0  0
   40.9520   35.0760   39.9620 C   0  0  0  0  0  0  0  0  0  0  0  0
   40.8840   33.8370   39.3570 C   0  0  0  0  0  0  0  0  0  0  0  0
   42.1440   33.2770   38.8020 C   0  0  0  0  0  0  0  0  0  0  0  0
   42.8340   34.3040   37.8970 C   0  0  0  0  0  0  0  0  0  0  0  0
   44.3240   34.0460   38.1650 C   0  0  0  0  0  0  0  0  0  0  0  0
   44.2660   33.9010   39.6830 C   0  0  0  0  0  0  0  0  0  0  0  0
   43.1470   32.9180   39.8430 C   0  0  0  0  0  0  0  0  0  0  0  0
   35.3432   28.7214   38.9035 H   0  0  0  0  0  0  0  0  0  0  0  0
   35.6302   30.2880   36.9593 H   0  0  0  0  0  0  0  0  0  0  0  0
   37.4942   30.2861   42.2108 H   0  0  0  0  0  0  0  0  0  0  0  0
   37.5774   29.1995   44.4234 H   0  0  0  0  0  0  0  0  0  0  0  0
   37.3249   26.7064   44.5599 H   0  0  0  0  0  0  0  0  0  0  0  0
   37.0061   24.6160   43.4627 H   0  0  0  0  0  0  0  0  0  0  0  0
   36.6765   23.2399   41.4255 H   0  0  0  0  0  0  0  0  0  0  0  0
   36.6183   24.4667   39.2625 H   0  0  0  0  0  0  0  0  0  0  0  0
   36.8588   26.8755   39.1441 H   0  0  0  0  0  0  0  0  0  0  0  0
   37.5954   33.1814   39.6885 H   0  0  0  0  0  0  0  0  0  0  0  0
   37.7123   35.4229   40.7831 H   0  0  0  0  0  0  0  0  0  0  0  0
   39.8878   36.6511   40.9568 H   0  0  0  0  0  0  0  0  0  0  0  0
   41.9195   35.5951   40.0292 H   0  0  0  0  0  0  0  0  0  0  0  0
   41.8340   32.3713   38.2602 H   0  0  0  0  0  0  0  0  0  0  0  0
   42.5530   35.3302   38.1761 H   0  0  0  0  0  0  0  0  0  0  0  0
   42.5585   34.2051   36.8367 H   0  0  0  0  0  0  0  0  0  0  0  0
   44.6791   33.1273   37.6753 H   0  0  0  0  0  0  0  0  0  0  0  0
   45.0147   34.8141   37.7871 H   0  0  0  0  0  0  0  0  0  0  0  0
   45.2100   33.5052   40.0858 H   0  0  0  0  0  0  0  0  0  0  0  0
   44.1125   34.8487   40.2199 H   0  0  0  0  0  0  0  0  0  0  0  0
   42.7045   33.0005   40.8467 H   0  0  0  0  0  0  0  0  0  0  0  0
   43.4974   31.8815   39.7292 H   0  0  0  0  0  0  0  0  0  0  0  0
  1  7  1  0
  2  1  2  0
  3  4  2  0
  3  2  1  0
  4  5  1  0
  5  6  2  0
  6  1  1  0
  7 16  1  0
  7  8  2  0
  8  9  1  0
  9 10  2  0
 11 12  2  0
 11 10  1  0
 13 12  1  0
 14 13  2  0
 15 14  1  0
 15 16  2  0
 16 11  1  0
 17  5  1  0
 17 19  1  0
 18 17  2  0
 19 24  1  0
 19 20  2  0
 20 21  1  0
 21 22  2  0
 23 22  1  0
 24 23  2  0
 25 24  1  0
 25 29  1  0
 26 27  1  0
 26 25  1  0
 27 28  1  0
 28 29  1  0
  2 30  1  0
  3 31  1  0
  8 32  1  0
  9 33  1  0
 10 34  1  0
 12 35  1  0
 13 36  1  0
 14 37  1  0
 15 38  1  0
 20 39  1  0
 21 40  1  0
 22 41  1  0
 23 42  1  0
 25 43  1  0
 26 44  1  0
 26 45  1  0
 27 46  1  0
 27 47  1  0
 28 48  1  0
 28 49  1  0
 29 50  1  0
 29 51  1  0
M  END
>  <minimizedAffinity>  (1) 
-7.38782549

>  <minimizedRMSD>  (1) 
2.68122864

$$$$
