
     RDKit          3D

 43 47  0  0  0  0  0  0  0  0999 V2000
   36.7630   28.3440   42.0910 N   0  0  0  0  0  0  0  0  0  0  0  0
   36.3500   27.4880   43.0430 C   0  0  0  0  0  0  0  0  0  0  0  0
   37.0760   27.8490   44.1590 C   0  0  0  0  0  0  0  0  0  0  0  0
   37.9000   28.8940   43.8760 N   0  0  0  0  0  0  0  0  0  0  0  0
   37.6890   29.1810   42.5950 C   0  0  0  0  0  0  0  0  0  0  0  0
   38.4580   30.2620   42.0700 N   0  0  0  0  0  0  0  0  0  0  0  0
   39.7560   30.4750   42.4670 C   0  0  0  0  0  0  0  0  0  0  0  0
   40.2680   31.5700   41.8200 N   0  0  0  0  0  0  0  0  0  0  0  0
   39.3130   32.0460   41.0230 C   0  0  0  0  0  0  0  0  0  0  0  0
   39.2670   33.1140   40.1520 C   0  0  0  0  0  0  0  0  0  0  0  0
   38.1060   33.2930   39.5010 N   0  0  0  0  0  0  0  0  0  0  0  0
   37.0290   32.5090   39.6550 C   0  0  0  0  0  0  0  0  0  0  0  0
   37.0590   31.4550   40.5070 N   0  0  0  0  0  0  0  0  0  0  0  0
   38.2040   31.2480   41.1730 C   0  0  0  0  0  0  0  0  0  0  0  0
   35.0990   28.9080   40.3690 C   0  0  0  0  0  0  0  0  0  0  0  0
   36.3090   28.3740   40.7710 C   0  0  0  0  0  0  0  0  0  0  0  0
   37.1200   27.8240   39.7370 C   0  0  0  0  0  0  0  0  0  0  0  0
   36.6770   27.8530   38.4540 N   0  0  0  0  0  0  0  0  0  0  0  0
   35.4640   28.4020   38.1320 C   0  0  0  0  0  0  0  0  0  0  0  0
   34.6680   28.9360   39.1020 N   0  0  0  0  0  0  0  0  0  0  0  0
   34.9720   28.4400   36.7400 C   0  0  0  0  0  0  0  0  0  0  0  0
   35.8160   29.2790   35.8400 C   0  0  0  0  0  0  0  0  0  0  0  0
   34.9060   29.6020   34.6890 C   0  0  0  0  0  0  0  0  0  0  0  0
   33.4940   29.2460   35.1210 C   0  0  0  0  0  0  0  0  0  0  0  0
   33.6060   29.1030   36.6450 C   0  0  0  0  0  0  0  0  0  0  0  0
   40.3760   33.9800   39.9480 N   0  0  0  0  0  0  0  0  0  0  0  0
   35.6043   26.6844   42.9523 H   0  0  0  0  0  0  0  0  0  0  0  0
   36.9994   27.3599   45.1413 H   0  0  0  0  0  0  0  0  0  0  0  0
   40.3031   29.8587   43.1956 H   0  0  0  0  0  0  0  0  0  0  0  0
   36.1130   32.7231   39.0849 H   0  0  0  0  0  0  0  0  0  0  0  0
   34.4463   29.3390   41.1424 H   0  0  0  0  0  0  0  0  0  0  0  0
   38.0973   27.3794   39.9762 H   0  0  0  0  0  0  0  0  0  0  0  0
   34.9710   27.3821   36.4387 H   0  0  0  0  0  0  0  0  0  0  0  0
   36.1409   30.1970   36.3516 H   0  0  0  0  0  0  0  0  0  0  0  0
   36.7364   28.7671   35.5225 H   0  0  0  0  0  0  0  0  0  0  0  0
   35.1905   29.0110   33.8060 H   0  0  0  0  0  0  0  0  0  0  0  0
   34.9764   30.6667   34.4217 H   0  0  0  0  0  0  0  0  0  0  0  0
   32.7881   30.0459   34.8527 H   0  0  0  0  0  0  0  0  0  0  0  0
   33.1155   28.3353   34.6337 H   0  0  0  0  0  0  0  0  0  0  0  0
   33.5888   30.0799   37.1504 H   0  0  0  0  0  0  0  0  0  0  0  0
   32.7845   28.5493   37.1232 H   0  0  0  0  0  0  0  0  0  0  0  0
   40.3003   34.7670   39.2878 H   0  0  0  0  0  0  0  0  0  0  0  0
   41.2551   33.8204   40.4604 H   0  0  0  0  0  0  0  0  0  0  0  0
  1  5  1  0
  1  2  1  0
  2  3  2  0
  4  3  1  0
  5  4  2  0
  6  7  1  0
  6  5  1  0
  8  7  2  0
  9 14  2  0
  9  8  1  0
 10  9  1  0
 11 12  1  0
 11 10  2  0
 12 13  2  0
 13 14  1  0
 14  6  1  0
 15 16  2  0
 16  1  1  0
 17 16  1  0
 18 17  2  0
 19 18  1  0
 19 20  2  0
 20 15  1  0
 21 19  1  0
 22 21  1  0
 23 24  1  0
 23 22  1  0
 24 25  1  0
 25 21  1  0
 26 10  1  0
  2 27  1  0
  3 28  1  0
  7 29  1  0
 12 30  1  0
 15 31  1  0
 17 32  1  0
 21 33  1  0
 22 34  1  0
 22 35  1  0
 23 36  1  0
 23 37  1  0
 24 38  1  0
 24 39  1  0
 25 40  1  0
 25 41  1  0
 26 42  1  0
 26 43  1  0
M  ISO  8  27  14  28  14  29  14  30  14  31  14  32  14  33  13  34  13
M  ISO  7  35  13  36  13  37  13  38  13  39  13  40  13  41  13
M  END
>  <minimizedAffinity>  (1) 
-6.31134605

>  <minimizedRMSD>  (1) 
1.7692908

$$$$
