
     RDKit          3D

 43 45  0  0  1  0  0  0  0  0999 V2000
   36.9140   27.6280   39.7680 C   0  0  2  0  0  0  0  0  0  0  0  0
   36.7000   26.1550   39.8120 C   0  0  0  0  0  0  0  0  0  0  0  0
   35.9530   25.9040   38.5180 C   0  0  0  0  0  0  0  0  0  0  0  0
   36.3140   27.0370   37.5920 C   0  0  0  0  0  0  0  0  0  0  0  0
   37.3600   27.8490   38.3570 C   0  0  2  0  0  0  0  0  0  0  0  0
   38.8190   29.5530   42.3500 C   0  0  0  0  0  0  0  0  0  0  0  0
   38.0550   29.3870   41.1420 C   0  0  0  0  0  0  0  0  0  0  0  0
   37.7460   28.0920   40.8290 C   0  0  0  0  0  0  0  0  0  0  0  0
   38.1780   27.1030   41.6700 N   0  0  0  0  0  0  0  0  0  0  0  0
   38.8780   27.2900   42.7740 C   0  0  0  0  0  0  0  0  0  0  0  0
   39.1980   28.5450   43.1070 N   0  0  0  0  0  0  0  0  0  0  0  0
   37.6850   30.4970   40.3440 N   0  0  0  0  0  0  0  0  0  0  0  0
   36.7150   31.4480   40.7030 C   0  0  0  0  0  0  0  0  0  0  0  0
   35.6520   30.9490   41.2940 N   0  0  0  0  0  0  0  0  0  0  0  0
   37.0050   32.8280   40.3840 N   0  0  0  0  0  0  0  0  0  0  0  0
   34.8650   31.5500   41.5820 H   0  0  0  0  0  0  0  0  0  0  0  0
   38.7160   27.6480   37.9280 C   0  0  0  0  0  0  0  0  0  0  0  0
   38.9010   26.8850   36.6350 C   0  0  0  0  0  0  0  0  0  0  0  0
   40.4330   26.7540   36.6390 C   0  0  0  0  0  0  0  0  0  0  0  0
   40.9470   27.9310   37.4540 C   0  0  0  0  0  0  0  0  0  0  0  0
   39.6810   28.7630   37.7530 C   0  0  0  0  0  0  0  0  0  0  0  0
   36.0281   28.2476   39.9714 H   0  0  0  0  0  0  0  0  0  0  0  0
   37.6570   25.6129   39.8322 H   0  0  0  0  0  0  0  0  0  0  0  0
   36.1611   25.8126   40.7077 H   0  0  0  0  0  0  0  0  0  0  0  0
   36.2611   24.9426   38.0811 H   0  0  0  0  0  0  0  0  0  0  0  0
   34.8670   25.8574   38.6869 H   0  0  0  0  0  0  0  0  0  0  0  0
   35.4302   27.6536   37.3714 H   0  0  0  0  0  0  0  0  0  0  0  0
   36.6940   26.6773   36.6244 H   0  0  0  0  0  0  0  0  0  0  0  0
   37.4103   28.9312   38.1665 H   0  0  0  0  0  0  0  0  0  0  0  0
   39.1000   30.5716   42.6557 H   0  0  0  0  0  0  0  0  0  0  0  0
   39.1881   26.4403   43.4000 H   0  0  0  0  0  0  0  0  0  0  0  0
   38.1599   30.6153   39.4377 H   0  0  0  0  0  0  0  0  0  0  0  0
   36.3278   33.5656   40.6253 H   0  0  0  0  0  0  0  0  0  0  0  0
   37.8888   33.0735   39.9155 H   0  0  0  0  0  0  0  0  0  0  0  0
   38.9536   27.1138   38.8597 H   0  0  0  0  0  0  0  0  0  0  0  0
   38.5395   27.4548   35.7663 H   0  0  0  0  0  0  0  0  0  0  0  0
   38.3487   25.9361   36.5665 H   0  0  0  0  0  0  0  0  0  0  0  0
   40.7351   25.8044   37.1048 H   0  0  0  0  0  0  0  0  0  0  0  0
   40.8426   26.7586   35.6181 H   0  0  0  0  0  0  0  0  0  0  0  0
   41.4162   27.5849   38.3868 H   0  0  0  0  0  0  0  0  0  0  0  0
   41.7165   28.5094   36.9217 H   0  0  0  0  0  0  0  0  0  0  0  0
   39.7879   29.3650   38.6674 H   0  0  0  0  0  0  0  0  0  0  0  0
   39.4119   29.5106   36.9922 H   0  0  0  0  0  0  0  0  0  0  0  0
  1  2  1  0
  1  8  1  0
  3  2  1  0
  4  5  1  0
  4  3  1  0
  5  1  1  0
  6 11  2  0
  7  6  1  0
  8  7  2  0
  8  9  1  0
  9 10  2  0
 10 11  1  0
 12 13  1  0
 12  7  1  0
 13 14  2  0
 14 16  1  0
 15 13  1  0
 17  5  1  0
 18 19  1  0
 18 17  1  0
 19 20  1  0
 20 21  1  0
 21 17  1  0
  1 22  1  6
  2 23  1  0
  2 24  1  0
  3 25  1  0
  3 26  1  0
  4 27  1  0
  4 28  1  0
  5 29  1  6
  6 30  1  0
 10 31  1  0
 12 32  1  0
 15 33  1  0
 15 34  1  0
 17 35  1  0
 18 36  1  0
 18 37  1  0
 19 38  1  0
 19 39  1  0
 20 40  1  0
 20 41  1  0
 21 42  1  0
 21 43  1  0
M  ISO  8  22  13  23  13  24  13  25  13  26  13  27  13  28  13  29  13
M  ISO  8  30  14  31  14  35  13  36  13  37  13  38  13  39  13  40  13
M  ISO  3  41  13  42  13  43  13
M  END
>  <minimizedAffinity>  (1) 
-5.12961721

>  <minimizedRMSD>  (1) 
0.785412669

$$$$
