
     RDKit          3D

 53 57  0  0  0  0  0  0  0  0999 V2000
   36.0390   30.0440   40.9190 C   0  0  0  0  0  0  0  0  0  0  0  0
   38.3930   28.0460   42.6100 C   0  0  0  0  0  0  0  0  0  0  0  0
   37.2800   27.2630   42.6980 C   0  0  0  0  0  0  0  0  0  0  0  0
   36.2520   27.9530   42.0520 C   0  0  0  0  0  0  0  0  0  0  0  0
   36.8230   29.0860   41.6290 N   0  0  0  0  0  0  0  0  0  0  0  0
   38.0760   29.1810   41.9350 N   0  0  0  0  0  0  0  0  0  0  0  0
   41.2290   26.3090   44.2790 C   0  0  0  0  0  0  0  0  0  0  0  0
   39.9420   26.5420   43.7860 C   0  0  0  0  0  0  0  0  0  0  0  0
   39.7180   27.7730   43.1270 C   0  0  0  0  0  0  0  0  0  0  0  0
   40.7250   28.6540   43.0010 N   0  0  0  0  0  0  0  0  0  0  0  0
   41.9600   28.3690   43.5040 C   0  0  0  0  0  0  0  0  0  0  0  0
   42.2070   27.2070   44.1360 N   0  0  0  0  0  0  0  0  0  0  0  0
   42.9940   29.4090   43.3080 C   0  0  0  0  0  0  0  0  0  0  0  0
   42.3470   30.7590   43.0560 C   0  0  0  0  0  0  0  0  0  0  0  0
   43.4430   31.7110   43.5160 C   0  0  0  0  0  0  0  0  0  0  0  0
   43.8200   31.0860   44.8410 C   0  0  0  0  0  0  0  0  0  0  0  0
   43.8890   29.6130   44.4910 C   0  0  0  0  0  0  0  0  0  0  0  0
   35.1450   29.4790   39.8600 C   0  0  0  0  0  0  0  0  0  0  0  0
   35.7540   29.4120   38.5060 C   0  0  0  0  0  0  0  0  0  0  0  0
   37.0690   29.5590   38.1790 C   0  0  0  0  0  0  0  0  0  0  0  0
   37.5810   29.5710   36.9160 C   0  0  0  0  0  0  0  0  0  0  0  0
   36.7290   29.4230   35.8420 C   0  0  0  0  0  0  0  0  0  0  0  0
   35.3850   29.2680   36.1080 C   0  0  0  0  0  0  0  0  0  0  0  0
   34.5850   29.1300   35.0000 C   0  0  0  0  0  0  0  0  0  0  0  0
   33.2350   28.9690   35.1490 C   0  0  0  0  0  0  0  0  0  0  0  0
   32.6970   28.9440   36.4280 C   0  0  0  0  0  0  0  0  0  0  0  0
   33.5480   29.0870   37.4880 C   0  0  0  0  0  0  0  0  0  0  0  0
   34.8900   29.2580   37.4120 C   0  0  0  0  0  0  0  0  0  0  0  0
   32.9500   29.0360   38.7340 O   0  0  0  0  0  0  0  0  0  0  0  0
   35.4092   30.5752   41.6478 H   0  0  0  0  0  0  0  0  0  0  0  0
   36.7545   30.6965   40.3972 H   0  0  0  0  0  0  0  0  0  0  0  0
   37.2062   26.2788   43.1836 H   0  0  0  0  0  0  0  0  0  0  0  0
   35.2070   27.6358   41.9205 H   0  0  0  0  0  0  0  0  0  0  0  0
   41.4415   25.3625   44.7976 H   0  0  0  0  0  0  0  0  0  0  0  0
   39.1385   25.8003   43.9054 H   0  0  0  0  0  0  0  0  0  0  0  0
   43.5877   29.0458   42.4562 H   0  0  0  0  0  0  0  0  0  0  0  0
   42.1133   30.9000   41.9904 H   0  0  0  0  0  0  0  0  0  0  0  0
   41.3855   30.8990   43.5717 H   0  0  0  0  0  0  0  0  0  0  0  0
   44.2917   31.7203   42.8163 H   0  0  0  0  0  0  0  0  0  0  0  0
   43.1349   32.7650   43.5798 H   0  0  0  0  0  0  0  0  0  0  0  0
   44.7927   31.4579   45.1952 H   0  0  0  0  0  0  0  0  0  0  0  0
   43.1150   31.3145   45.6539 H   0  0  0  0  0  0  0  0  0  0  0  0
   43.5407   29.0052   45.3391 H   0  0  0  0  0  0  0  0  0  0  0  0
   44.9212   29.3086   44.2632 H   0  0  0  0  0  0  0  0  0  0  0  0
   34.8611   28.4592   40.1591 H   0  0  0  0  0  0  0  0  0  0  0  0
   34.2857   30.1612   39.7815 H   0  0  0  0  0  0  0  0  0  0  0  0
   37.7809   29.6787   39.0090 H   0  0  0  0  0  0  0  0  0  0  0  0
   38.6618   29.6973   36.7552 H   0  0  0  0  0  0  0  0  0  0  0  0
   37.1082   29.4284   34.8094 H   0  0  0  0  0  0  0  0  0  0  0  0
   35.0296   29.1490   33.9940 H   0  0  0  0  0  0  0  0  0  0  0  0
   32.5852   28.8609   34.2680 H   0  0  0  0  0  0  0  0  0  0  0  0
   31.6161   28.8128   36.5843 H   0  0  0  0  0  0  0  0  0  0  0  0
   33.5002   29.1317   39.5514 H   0  0  0  0  0  0  0  0  0  0  0  0
  1  5  1  0
  2  3  1  0
  2  9  1  0
  4  3  2  0
  5  6  1  0
  5  4  1  0
  6  2  2  0
  8  7  2  0
  9  8  1  0
 10  9  2  0
 10 11  1  0
 11 12  2  0
 12  7  1  0
 13 11  1  0
 13 17  1  0
 14 13  1  0
 14 15  1  0
 15 16  1  0
 17 16  1  0
 18  1  1  0
 19 18  1  0
 20 19  2  0
 21 20  1  0
 22 23  1  0
 22 21  2  0
 23 28  2  0
 24 25  2  0
 24 23  1  0
 25 26  1  0
 26 27  2  0
 27 29  1  0
 28 27  1  0
 28 19  1  0
  1 30  1  0
  1 31  1  0
  3 32  1  0
  4 33  1  0
  7 34  1  0
  8 35  1  0
 13 36  1  0
 14 37  1  0
 14 38  1  0
 15 39  1  0
 15 40  1  0
 16 41  1  0
 16 42  1  0
 17 43  1  0
 17 44  1  0
 18 45  1  0
 18 46  1  0
 20 47  1  0
 21 48  1  0
 22 49  1  0
 24 50  1  0
 25 51  1  0
 26 52  1  0
 29 53  1  0
M  ISO  8  30   8  31   8  32  14  33  14  34  14  35  14  36  13  37  13
M  ISO  8  38  13  39  13  40  13  41  13  42  13  43  13  44  13  45   8
M  ISO  8  46   8  47  14  48  14  49  14  50  14  51  14  52  14  53   3
M  END
>  <minimizedAffinity>  (1) 
-6.40145874

>  <minimizedRMSD>  (1) 
0.386202395

$$$$
