
     RDKit          3D

 50 54  0  0  0  0  0  0  0  0999 V2000
   36.1430   30.0710   41.1060 C   0  0  0  0  0  0  0  0  0  0  0  0
   38.5540   28.0710   42.6950 C   0  0  0  0  0  0  0  0  0  0  0  0
   37.4460   27.2690   42.7900 C   0  0  0  0  0  0  0  0  0  0  0  0
   36.3990   27.9640   42.1800 C   0  0  0  0  0  0  0  0  0  0  0  0
   36.9570   29.1150   41.7730 N   0  0  0  0  0  0  0  0  0  0  0  0
   38.2150   29.2220   42.0540 N   0  0  0  0  0  0  0  0  0  0  0  0
   41.4660   26.2510   44.1530 C   0  0  0  0  0  0  0  0  0  0  0  0
   40.1720   26.4970   43.6770 C   0  0  0  0  0  0  0  0  0  0  0  0
   39.8820   27.7790   43.1900 C   0  0  0  0  0  0  0  0  0  0  0  0
   40.8460   28.7420   43.1880 N   0  0  0  0  0  0  0  0  0  0  0  0
   42.0930   28.4460   43.6640 C   0  0  0  0  0  0  0  0  0  0  0  0
   42.3920   27.2200   44.1370 N   0  0  0  0  0  0  0  0  0  0  0  0
   43.0940   29.5020   43.6450 C   0  0  0  0  0  0  0  0  0  0  0  0
   44.4050   29.1920   43.9300 C   0  0  0  0  0  0  0  0  0  0  0  0
   45.2890   30.2380   43.8920 C   0  0  0  0  0  0  0  0  0  0  0  0
   44.9070   31.5060   43.5910 C   0  0  0  0  0  0  0  0  0  0  0  0
   43.5800   31.8360   43.3000 C   0  0  0  0  0  0  0  0  0  0  0  0
   42.7120   30.7900   43.3410 C   0  0  0  0  0  0  0  0  0  0  0  0
   35.2450   29.5340   40.0380 C   0  0  0  0  0  0  0  0  0  0  0  0
   35.8720   29.4400   38.6990 C   0  0  0  0  0  0  0  0  0  0  0  0
   37.1910   29.5750   38.3790 C   0  0  0  0  0  0  0  0  0  0  0  0
   37.7190   29.5510   37.1240 C   0  0  0  0  0  0  0  0  0  0  0  0
   36.8790   29.3800   36.0420 C   0  0  0  0  0  0  0  0  0  0  0  0
   35.5210   29.2340   36.2960 C   0  0  0  0  0  0  0  0  0  0  0  0
   34.7430   29.0670   35.1810 C   0  0  0  0  0  0  0  0  0  0  0  0
   33.3940   28.9100   35.3170 C   0  0  0  0  0  0  0  0  0  0  0  0
   32.8420   28.9210   36.5920 C   0  0  0  0  0  0  0  0  0  0  0  0
   33.6770   29.0920   37.6500 C   0  0  0  0  0  0  0  0  0  0  0  0
   35.0230   29.2600   37.5910 C   0  0  0  0  0  0  0  0  0  0  0  0
   33.0630   29.0770   38.8930 O   0  0  0  0  0  0  0  0  0  0  0  0
   35.5118   30.5616   41.8616 H   0  0  0  0  0  0  0  0  0  0  0  0
   36.8408   30.7499   40.5939 H   0  0  0  0  0  0  0  0  0  0  0  0
   37.3921   26.2737   43.2552 H   0  0  0  0  0  0  0  0  0  0  0  0
   35.3542   27.6413   42.0603 H   0  0  0  0  0  0  0  0  0  0  0  0
   41.7243   25.2553   44.5428 H   0  0  0  0  0  0  0  0  0  0  0  0
   39.4060   25.7076   43.6851 H   0  0  0  0  0  0  0  0  0  0  0  0
   44.7230   28.1675   44.1732 H   0  0  0  0  0  0  0  0  0  0  0  0
   46.3487   30.0433   44.1138 H   0  0  0  0  0  0  0  0  0  0  0  0
   45.6676   32.3005   43.5756 H   0  0  0  0  0  0  0  0  0  0  0  0
   43.2630   32.8609   43.0570 H   0  0  0  0  0  0  0  0  0  0  0  0
   41.6516   30.9821   43.1203 H   0  0  0  0  0  0  0  0  0  0  0  0
   34.9199   28.5265   40.3368 H   0  0  0  0  0  0  0  0  0  0  0  0
   34.4106   30.2446   39.9439 H   0  0  0  0  0  0  0  0  0  0  0  0
   37.8942   29.7165   39.2129 H   0  0  0  0  0  0  0  0  0  0  0  0
   38.8026   29.6666   36.9741 H   0  0  0  0  0  0  0  0  0  0  0  0
   37.2712   29.3600   35.0145 H   0  0  0  0  0  0  0  0  0  0  0  0
   35.2028   29.0595   34.1817 H   0  0  0  0  0  0  0  0  0  0  0  0
   32.7545   28.7770   34.4319 H   0  0  0  0  0  0  0  0  0  0  0  0
   31.7594   28.7948   36.7406 H   0  0  0  0  0  0  0  0  0  0  0  0
   33.6039   29.1952   39.7137 H   0  0  0  0  0  0  0  0  0  0  0  0
  1  5  1  0
  2  3  1  0
  2  9  1  0
  4  3  2  0
  5  6  1  0
  5  4  1  0
  6  2  2  0
  8  7  2  0
  9  8  1  0
 10  9  2  0
 10 11  1  0
 11 12  2  0
 12  7  1  0
 13 11  1  0
 13 14  2  0
 15 14  1  0
 16 15  2  0
 17 18  2  0
 17 16  1  0
 18 13  1  0
 19  1  1  0
 20 19  1  0
 21 20  2  0
 22 21  1  0
 23 24  1  0
 23 22  2  0
 24 29  2  0
 25 26  2  0
 25 24  1  0
 26 27  1  0
 27 28  2  0
 28 30  1  0
 29 28  1  0
 29 20  1  0
  1 31  1  0
  1 32  1  0
  3 33  1  0
  4 34  1  0
  7 35  1  0
  8 36  1  0
 14 37  1  0
 15 38  1  0
 16 39  1  0
 17 40  1  0
 18 41  1  0
 19 42  1  0
 19 43  1  0
 21 44  1  0
 22 45  1  0
 23 46  1  0
 25 47  1  0
 26 48  1  0
 27 49  1  0
 30 50  1  0
M  ISO  8  31   8  32   8  33  14  34  14  35  14  36  14  37  14  38  14
M  ISO  8  39  14  40  14  41  14  42   8  43   8  44  14  45  14  46  14
M  ISO  4  47  14  48  14  49  14  50   3
M  END
>  <minimizedAffinity>  (1) 
-6.17503881

>  <minimizedRMSD>  (1) 
0.492979407

$$$$
