
     RDKit          3D

 49 53  0  0  0  0  0  0  0  0999 V2000
   38.9170   30.1670   37.7650 C   0  0  0  0  0  0  0  0  0  0  0  0
   40.1240   30.8420   37.7830 C   0  0  0  0  0  0  0  0  0  0  0  0
   41.3450   30.3390   37.4300 C   0  0  0  0  0  0  0  0  0  0  0  0
   41.4290   29.0310   37.0090 C   0  0  0  0  0  0  0  0  0  0  0  0
   40.2530   28.2950   36.9690 C   0  0  0  0  0  0  0  0  0  0  0  0
   40.4160   27.0050   36.5490 C   0  0  0  0  0  0  0  0  0  0  0  0
   39.3370   26.1830   36.4760 C   0  0  0  0  0  0  0  0  0  0  0  0
   38.0950   26.6840   36.8360 C   0  0  0  0  0  0  0  0  0  0  0  0
   38.0070   27.9950   37.2500 C   0  0  0  0  0  0  0  0  0  0  0  0
   39.0560   28.8510   37.3360 C   0  0  0  0  0  0  0  0  0  0  0  0
   36.6200   28.2550   37.6020 C   0  0  0  0  0  0  0  0  0  0  0  0
   35.8130   28.2900   38.7280 C   0  0  0  0  0  0  0  0  0  0  0  0
   34.4950   28.6620   38.6990 C   0  0  0  0  0  0  0  0  0  0  0  0
   33.8850   29.0320   37.5230 C   0  0  0  0  0  0  0  0  0  0  0  0
   34.6270   29.0210   36.3640 C   0  0  0  0  0  0  0  0  0  0  0  0
   35.9740   28.6410   36.3910 C   0  0  0  0  0  0  0  0  0  0  0  0
   37.5880   30.7060   38.0720 C   0  0  0  0  0  0  0  0  0  0  0  0
   37.5020   31.3980   39.4160 C   0  0  0  0  0  0  0  0  0  0  0  0
   38.4100   29.2150   42.0360 C   0  0  0  0  0  0  0  0  0  0  0  0
   37.1320   29.5160   42.3910 C   0  0  0  0  0  0  0  0  0  0  0  0
   36.6480   30.3860   41.4150 C   0  0  0  0  0  0  0  0  0  0  0  0
   37.6730   30.5450   40.5390 N   0  0  0  0  0  0  0  0  0  0  0  0
   38.6960   29.8670   40.8980 N   0  0  0  0  0  0  0  0  0  0  0  0
   39.7720   26.4030   44.0700 C   0  0  0  0  0  0  0  0  0  0  0  0
   38.8410   27.1980   43.3890 C   0  0  0  0  0  0  0  0  0  0  0  0
   39.3310   28.3500   42.7470 C   0  0  0  0  0  0  0  0  0  0  0  0
   40.6600   28.6620   42.7980 N   0  0  0  0  0  0  0  0  0  0  0  0
   41.5070   27.8310   43.4870 C   0  0  0  0  0  0  0  0  0  0  0  0
   41.0640   26.7230   44.1090 N   0  0  0  0  0  0  0  0  0  0  0  0
   40.0989   31.8903   38.1152 H   0  0  0  0  0  0  0  0  0  0  0  0
   42.2454   30.9688   37.4815 H   0  0  0  0  0  0  0  0  0  0  0  0
   42.3913   28.5862   36.7155 H   0  0  0  0  0  0  0  0  0  0  0  0
   41.4141   26.6347   36.2719 H   0  0  0  0  0  0  0  0  0  0  0  0
   39.4461   25.1418   36.1384 H   0  0  0  0  0  0  0  0  0  0  0  0
   37.1987   26.0478   36.7919 H   0  0  0  0  0  0  0  0  0  0  0  0
   36.2534   28.0044   39.6947 H   0  0  0  0  0  0  0  0  0  0  0  0
   33.9140   28.6649   39.6330 H   0  0  0  0  0  0  0  0  0  0  0  0
   32.8263   29.3304   37.5092 H   0  0  0  0  0  0  0  0  0  0  0  0
   34.1594   29.3122   35.4119 H   0  0  0  0  0  0  0  0  0  0  0  0
   36.5492   28.6402   35.4533 H   0  0  0  0  0  0  0  0  0  0  0  0
   37.3199   31.4324   37.2907 H   0  0  0  0  0  0  0  0  0  0  0  0
   36.8972   29.8507   38.1085 H   0  0  0  0  0  0  0  0  0  0  0  0
   38.2827   32.1720   39.4526 H   0  0  0  0  0  0  0  0  0  0  0  0
   36.4826   31.8047   39.4894 H   0  0  0  0  0  0  0  0  0  0  0  0
   36.5883   29.1464   43.2729 H   0  0  0  0  0  0  0  0  0  0  0  0
   35.6497   30.8452   41.3653 H   0  0  0  0  0  0  0  0  0  0  0  0
   39.4279   25.4936   44.5843 H   0  0  0  0  0  0  0  0  0  0  0  0
   37.7738   26.9332   43.3576 H   0  0  0  0  0  0  0  0  0  0  0  0
   42.5781   28.0774   43.5322 H   0  0  0  0  0  0  0  0  0  0  0  0
  1  2  2  0
  1 17  1  0
  3  2  1  0
  4  3  2  0
  5  4  1  0
  5 10  2  0
  6  5  1  0
  7  6  2  0
  7  8  1  0
  8  9  2  0
  9 10  1  0
  9 11  1  0
 10  1  1  0
 11 12  2  0
 13 12  1  0
 14 13  2  0
 15 16  2  0
 15 14  1  0
 16 11  1  0
 17 18  1  0
 18 22  1  0
 19 20  1  0
 19 26  1  0
 21 20  2  0
 22 23  1  0
 22 21  1  0
 23 19  2  0
 24 29  2  0
 25 24  1  0
 26 27  1  0
 26 25  2  0
 27 28  2  0
 28 29  1  0
  2 30  1  0
  3 31  1  0
  4 32  1  0
  6 33  1  0
  7 34  1  0
  8 35  1  0
 12 36  1  0
 13 37  1  0
 14 38  1  0
 15 39  1  0
 16 40  1  0
 17 41  1  0
 17 42  1  0
 18 43  1  0
 18 44  1  0
 20 45  1  0
 21 46  1  0
 24 47  1  0
 25 48  1  0
 28 49  1  0
M  ISO  8  30  14  31  14  32  14  33  14  34  14  35  14  36  14  37  14
M  ISO  8  38  14  39  14  40  14  41   8  42   8  43   8  44   8  45  14
M  ISO  4  46  14  47  14  48  14  49  14
M  END
>  <minimizedAffinity>  (1) 
-5.53936434

>  <minimizedRMSD>  (1) 
3.60185432

$$$$
