
     RDKit          3D

 40 43  0  0  0  0  0  0  0  0999 V2000
   36.9080   31.4380   40.3270 C   0  0  0  0  0  0  0  0  0  0  0  0
   36.9650   31.7720   38.9950 N   0  0  0  0  0  0  0  0  0  0  0  0
   37.8540   32.7310   38.8460 O   0  0  0  0  0  0  0  0  0  0  0  0
   38.3390   32.9960   40.0240 C   0  0  0  0  0  0  0  0  0  0  0  0
   37.7780   32.2160   40.9630 N   0  0  0  0  0  0  0  0  0  0  0  0
   39.3600   34.0110   40.2810 C   0  0  0  0  0  0  0  0  0  0  0  0
   39.2410   35.3750   40.1210 C   0  0  0  0  0  0  0  0  0  0  0  0
   40.4200   35.9930   40.4680 C   0  0  0  0  0  0  0  0  0  0  0  0
   41.2430   34.9310   40.8420 C   0  0  0  0  0  0  0  0  0  0  0  0
   40.5810   33.8520   40.7100 O   0  0  0  0  0  0  0  0  0  0  0  0
   42.6230   35.0830   41.2980 C   0  0  0  0  0  0  0  0  0  0  0  0
   43.6630   34.3900   40.7130 C   0  0  0  0  0  0  0  0  0  0  0  0
   44.9390   34.6070   41.2220 C   0  0  0  0  0  0  0  0  0  0  0  0
   45.1920   35.4730   42.2710 C   0  0  0  0  0  0  0  0  0  0  0  0
   44.1650   36.1530   42.8460 C   0  0  0  0  0  0  0  0  0  0  0  0
   42.8970   35.9420   42.3440 C   0  0  0  0  0  0  0  0  0  0  0  0
   36.1190   30.4760   40.9800 O   0  0  0  0  0  0  0  0  0  0  0  0
   37.9620   28.2680   43.2130 C   0  0  0  0  0  0  0  0  0  0  0  0
   37.7800   27.0500   42.4850 C   0  0  0  0  0  0  0  0  0  0  0  0
   37.0510   27.0990   41.3120 C   0  0  0  0  0  0  0  0  0  0  0  0
   36.5560   28.2940   40.9230 N   0  0  0  0  0  0  0  0  0  0  0  0
   36.7260   29.4190   41.6010 C   0  0  0  0  0  0  0  0  0  0  0  0
   37.4340   29.4200   42.7580 N   0  0  0  0  0  0  0  0  0  0  0  0
   36.9410   25.8090   40.6740 C   0  0  0  0  0  0  0  0  0  0  0  0
   36.9820   24.6320   41.5530 C   0  0  0  0  0  0  0  0  0  0  0  0
   37.8230   23.2160   40.7550 S   0  0  0  0  0  0  0  0  0  0  0  0
   38.3369   35.8927   39.7680 H   0  0  0  0  0  0  0  0  0  0  0  0
   40.6568   37.0671   40.4539 H   0  0  0  0  0  0  0  0  0  0  0  0
   43.4900   33.6946   39.8785 H   0  0  0  0  0  0  0  0  0  0  0  0
   45.7841   34.0664   40.7708 H   0  0  0  0  0  0  0  0  0  0  0  0
   46.2198   35.6106   42.6381 H   0  0  0  0  0  0  0  0  0  0  0  0
   44.3385   36.8468   43.6818 H   0  0  0  0  0  0  0  0  0  0  0  0
   42.0589   36.4877   42.8020 H   0  0  0  0  0  0  0  0  0  0  0  0
   38.5371   28.2634   44.1507 H   0  0  0  0  0  0  0  0  0  0  0  0
   38.2072   26.1035   42.8478 H   0  0  0  0  0  0  0  0  0  0  0  0
   35.9846   25.7862   40.1310 H   0  0  0  0  0  0  0  0  0  0  0  0
   37.8336   25.7248   40.0366 H   0  0  0  0  0  0  0  0  0  0  0  0
   37.5231   24.8943   42.4741 H   0  0  0  0  0  0  0  0  0  0  0  0
   35.9464   24.3341   41.7737 H   0  0  0  0  0  0  0  0  0  0  0  0
   38.3205   22.3784   41.7183 H   0  0  0  0  0  0  0  0  0  0  0  0
  1  5  1  0
  1 17  1  0
  2  1  2  0
  3  2  1  0
  3  4  1  0
  4  6  1  0
  4  5  2  0
  6 10  1  0
  7  6  2  0
  7  8  1  0
  8  9  2  0
  9 11  1  0
 10  9  1  0
 11 16  2  0
 12 13  2  0
 12 11  1  0
 13 14  1  0
 14 15  2  0
 16 15  1  0
 17 22  1  0
 19 18  2  0
 20 19  1  0
 21 20  2  0
 21 22  1  0
 22 23  2  0
 23 18  1  0
 24 20  1  0
 24 25  1  0
 26 25  1  0
  7 27  1  0
  8 28  1  0
 12 29  1  0
 13 30  1  0
 14 31  1  0
 15 32  1  0
 16 33  1  0
 18 34  1  0
 19 35  1  0
 24 36  1  0
 24 37  1  0
 25 38  1  0
 25 39  1  0
 26 40  1  0
M  ISO  8  27  14  28  14  29  14  30  14  31  14  32  14  33  14  34  14
M  ISO  6  35  14  36   8  37   8  38   8  39   8  40  11
M  END
>  <minimizedAffinity>  (1) 
-6.39538479

>  <minimizedRMSD>  (1) 
1.47569859

$$$$
