
     RDKit          3D

 47 51  0  0  0  0  0  0  0  0999 V2000
   37.3890   29.3010   42.0300 N   0  0  0  0  0  0  0  0  0  0  0  0
   36.2280   29.1140   41.3770 C   0  0  0  0  0  0  0  0  0  0  0  0
   36.1420   29.7010   40.1280 C   0  0  0  0  0  0  0  0  0  0  0  0
   37.1350   30.4400   39.5300 C   0  0  0  0  0  0  0  0  0  0  0  0
   37.0330   30.9540   38.4140 O   0  0  0  0  0  0  0  0  0  0  0  0
   38.2670   30.5640   40.2830 N   0  0  0  0  0  0  0  0  0  0  0  0
   38.3940   30.0100   41.5000 C   0  0  0  0  0  0  0  0  0  0  0  0
   39.4880   30.1760   42.1350 O   0  0  0  0  0  0  0  0  0  0  0  0
   39.3660   31.3170   39.7500 C   0  0  0  0  0  0  0  0  0  0  0  0
   40.4830   30.9520   39.0340 C   0  0  0  0  0  0  0  0  0  0  0  0
   41.2150   32.0620   38.7740 N   0  0  0  0  0  0  0  0  0  0  0  0
   40.5740   33.1310   39.3200 C   0  0  0  0  0  0  0  0  0  0  0  0
   40.8690   34.4690   39.3550 C   0  0  0  0  0  0  0  0  0  0  0  0
   40.0640   35.3940   39.9750 C   0  0  0  0  0  0  0  0  0  0  0  0
   38.8830   34.9680   40.6080 C   0  0  0  0  0  0  0  0  0  0  0  0
   38.6210   33.6140   40.5510 C   0  0  0  0  0  0  0  0  0  0  0  0
   39.4290   32.6830   39.9270 C   0  0  0  0  0  0  0  0  0  0  0  0
   37.5940   28.7330   43.3440 C   0  0  0  0  0  0  0  0  0  0  0  0
   40.0980   26.0340   43.8660 C   0  0  0  0  0  0  0  0  0  0  0  0
   39.6030   25.0420   43.0090 C   0  0  0  0  0  0  0  0  0  0  0  0
   38.4600   25.2860   42.2830 C   0  0  0  0  0  0  0  0  0  0  0  0
   37.8560   26.4700   42.4200 N   0  0  0  0  0  0  0  0  0  0  0  0
   38.3450   27.4340   43.2580 C   0  0  0  0  0  0  0  0  0  0  0  0
   39.4450   27.1920   43.9540 N   0  0  0  0  0  0  0  0  0  0  0  0
   37.8650   24.3310   41.3680 C   0  0  0  0  0  0  0  0  0  0  0  0
   36.5490   24.5170   40.9970 C   0  0  0  0  0  0  0  0  0  0  0  0
   35.8880   23.6510   40.1200 C   0  0  0  0  0  0  0  0  0  0  0  0
   36.5520   22.5600   39.5940 C   0  0  0  0  0  0  0  0  0  0  0  0
   37.8660   22.3740   39.9670 C   0  0  0  0  0  0  0  0  0  0  0  0
   38.5090   23.2350   40.8310 C   0  0  0  0  0  0  0  0  0  0  0  0
   35.4005   28.5318   41.8087 H   0  0  0  0  0  0  0  0  0  0  0  0
   35.2046   29.5659   39.5685 H   0  0  0  0  0  0  0  0  0  0  0  0
   40.7392   29.9282   38.7240 H   0  0  0  0  0  0  0  0  0  0  0  0
   42.1031   32.0916   38.2531 H   0  0  0  0  0  0  0  0  0  0  0  0
   41.7903   34.8175   38.8654 H   0  0  0  0  0  0  0  0  0  0  0  0
   40.3411   36.4585   39.9761 H   0  0  0  0  0  0  0  0  0  0  0  0
   38.2084   35.6715   41.1180 H   0  0  0  0  0  0  0  0  0  0  0  0
   37.7036   33.2503   41.0370 H   0  0  0  0  0  0  0  0  0  0  0  0
   38.1705   29.4419   43.9564 H   0  0  0  0  0  0  0  0  0  0  0  0
   36.6115   28.5403   43.7997 H   0  0  0  0  0  0  0  0  0  0  0  0
   41.0099   25.8597   44.4559 H   0  0  0  0  0  0  0  0  0  0  0  0
   40.1234   24.0772   42.9175 H   0  0  0  0  0  0  0  0  0  0  0  0
   35.9997   25.3779   41.4060 H   0  0  0  0  0  0  0  0  0  0  0  0
   34.8386   23.8389   39.8489 H   0  0  0  0  0  0  0  0  0  0  0  0
   36.0511   21.8656   38.9034 H   0  0  0  0  0  0  0  0  0  0  0  0
   38.4183   21.5127   39.5632 H   0  0  0  0  0  0  0  0  0  0  0  0
   39.5588   23.0439   41.0982 H   0  0  0  0  0  0  0  0  0  0  0  0
  1 18  1  0
  2  1  1  0
  3  2  2  0
  4  3  1  0
  4  6  1  0
  5  4  2  0
  6  7  1  0
  7  1  1  0
  7  8  2  0
  9 17  1  0
  9  6  1  0
 10  9  2  0
 11 10  1  0
 11 12  1  0
 12 13  2  0
 12 17  1  0
 13 14  1  0
 14 15  2  0
 16 15  1  0
 17 16  2  0
 19 24  2  0
 20 19  1  0
 21 22  1  0
 21 20  2  0
 22 23  2  0
 23 18  1  0
 23 24  1  0
 25 21  1  0
 26 25  2  0
 27 26  1  0
 28 29  1  0
 28 27  2  0
 29 30  2  0
 30 25  1  0
  2 31  1  0
  3 32  1  0
 10 33  1  0
 11 34  1  0
 13 35  1  0
 14 36  1  0
 15 37  1  0
 16 38  1  0
 18 39  1  0
 18 40  1  0
 19 41  1  0
 20 42  1  0
 26 43  1  0
 27 44  1  0
 28 45  1  0
 29 46  1  0
 30 47  1  0
M  END
>  <minimizedAffinity>  (1) 
-7.31810236

>  <minimizedRMSD>  (1) 
1.70137322

$$$$
