
     RDKit          3D

 32 35  0  0  0  0  0  0  0  0999 V2000
   39.4580   25.4020   43.2590 C   0  0  0  0  0  0  0  0  0  0  0  0
   39.3850   26.7850   43.5990 C   0  0  0  0  0  0  0  0  0  0  0  0
   38.4640   27.5800   42.8900 C   0  0  0  0  0  0  0  0  0  0  0  0
   37.6810   27.0120   41.9100 N   0  0  0  0  0  0  0  0  0  0  0  0
   37.7970   25.7030   41.6360 C   0  0  0  0  0  0  0  0  0  0  0  0
   38.6670   24.9060   42.2930 N   0  0  0  0  0  0  0  0  0  0  0  0
   36.9660   25.1150   40.6010 C   0  0  0  0  0  0  0  0  0  0  0  0
   36.6980   25.7780   39.4230 C   0  0  0  0  0  0  0  0  0  0  0  0
   35.9120   25.2070   38.4610 C   0  0  0  0  0  0  0  0  0  0  0  0
   35.3390   23.9430   38.6000 C   0  0  0  0  0  0  0  0  0  0  0  0
   35.6120   23.2770   39.7930 C   0  0  0  0  0  0  0  0  0  0  0  0
   36.4040   23.8630   40.7510 C   0  0  0  0  0  0  0  0  0  0  0  0
   38.4430   28.9000   43.2650 O   0  0  0  0  0  0  0  0  0  0  0  0
   39.6780   32.4130   40.6570 N   0  0  0  0  0  0  0  0  0  0  0  0
   40.7080   31.9060   41.3640 C   0  0  0  0  0  0  0  0  0  0  0  0
   40.2520   30.8790   42.0990 N   0  0  0  0  0  0  0  0  0  0  0  0
   38.9200   30.7040   41.8830 C   0  0  0  0  0  0  0  0  0  0  0  0
   37.9520   29.8230   42.3570 C   0  0  0  0  0  0  0  0  0  0  0  0
   36.6760   29.9490   41.9030 N   0  0  0  0  0  0  0  0  0  0  0  0
   36.3700   30.9080   41.0160 C   0  0  0  0  0  0  0  0  0  0  0  0
   37.2950   31.7810   40.5370 N   0  0  0  0  0  0  0  0  0  0  0  0
   38.5800   31.6950   40.9590 C   0  0  0  0  0  0  0  0  0  0  0  0
   40.1615   24.7418   43.7873 H   0  0  0  0  0  0  0  0  0  0  0  0
   40.0237   27.2143   44.3850 H   0  0  0  0  0  0  0  0  0  0  0  0
   37.1217   26.7790   39.2546 H   0  0  0  0  0  0  0  0  0  0  0  0
   35.7229   25.7701   37.5352 H   0  0  0  0  0  0  0  0  0  0  0  0
   34.7094   23.4987   37.8150 H   0  0  0  0  0  0  0  0  0  0  0  0
   35.1910   22.2761   39.9691 H   0  0  0  0  0  0  0  0  0  0  0  0
   36.5993   23.3086   41.6808 H   0  0  0  0  0  0  0  0  0  0  0  0
   39.7231   33.2074   40.0030 H   0  0  0  0  0  0  0  0  0  0  0  0
   41.7453   32.2715   41.3424 H   0  0  0  0  0  0  0  0  0  0  0  0
   35.3314   30.9908   40.6632 H   0  0  0  0  0  0  0  0  0  0  0  0
  1  2  2  0
  3 13  1  0
  3  2  1  0
  4  3  2  0
  5  4  1  0
  5  6  2  0
  6  1  1  0
  7 12  1  0
  7  5  1  0
  8  7  2  0
  9 10  2  0
  9  8  1  0
 10 11  1  0
 11 12  2  0
 14 22  1  0
 14 15  1  0
 15 16  2  0
 17 16  1  0
 17 18  2  0
 18 13  1  0
 19 18  1  0
 20 19  2  0
 21 22  2  0
 21 20  1  0
 22 17  1  0
  1 23  1  0
  2 24  1  0
  8 25  1  0
  9 26  1  0
 10 27  1  0
 11 28  1  0
 12 29  1  0
 14 30  1  0
 15 31  1  0
 20 32  1  0
M  ISO  8  23  14  24  14  25  14  26  14  27  14  28  14  29  14  30   9
M  ISO  2  31  14  32  14
M  END
>  <minimizedAffinity>  (1) 
-5.5334549

>  <minimizedRMSD>  (1) 
5.49408293

$$$$
