
     RDKit          3D

 26 28  0  0  0  0  0  0  0  0999 V2000
   36.8580   30.9140   39.9400 C   0  0  0  0  0  0  0  0  0  0  0  0
   36.2650   30.9500   41.1530 N   0  0  0  0  0  0  0  0  0  0  0  0
   36.1660   29.7430   41.6410 O   0  0  0  0  0  0  0  0  0  0  0  0
   36.6940   28.9260   40.7470 C   0  0  0  0  0  0  0  0  0  0  0  0
   37.1310   29.6130   39.6860 N   0  0  0  0  0  0  0  0  0  0  0  0
   36.7830   27.4770   40.9090 C   0  0  0  0  0  0  0  0  0  0  0  0
   37.0510   26.8480   42.1060 C   0  0  0  0  0  0  0  0  0  0  0  0
   37.1390   25.5000   42.2770 C   0  0  0  0  0  0  0  0  0  0  0  0
   36.9510   24.6760   41.1880 C   0  0  0  0  0  0  0  0  0  0  0  0
   36.6810   25.2510   39.9680 C   0  0  0  0  0  0  0  0  0  0  0  0
   36.6000   26.6260   39.8400 C   0  0  0  0  0  0  0  0  0  0  0  0
   37.1780   31.9200   39.0420 O   0  0  0  0  0  0  0  0  0  0  0  0
   40.4340   33.5050   39.3500 C   0  0  0  0  0  0  0  0  0  0  0  0
   40.0630   34.7060   39.9680 C   0  0  0  0  0  0  0  0  0  0  0  0
   38.6870   34.8840   40.2390 C   0  0  0  0  0  0  0  0  0  0  0  0
   37.8300   33.8860   39.8840 N   0  0  0  0  0  0  0  0  0  0  0  0
   38.2320   32.7630   39.2980 C   0  0  0  0  0  0  0  0  0  0  0  0
   39.5450   32.5570   39.0210 N   0  0  0  0  0  0  0  0  0  0  0  0
   37.2055   27.4835   42.9905 H   0  0  0  0  0  0  0  0  0  0  0  0
   37.3566   25.0754   43.2681 H   0  0  0  0  0  0  0  0  0  0  0  0
   37.0155   23.5829   41.2924 H   0  0  0  0  0  0  0  0  0  0  0  0
   36.5281   24.6116   39.0861 H   0  0  0  0  0  0  0  0  0  0  0  0
   36.3820   27.0552   38.8509 H   0  0  0  0  0  0  0  0  0  0  0  0
   41.4970   33.3328   39.1257 H   0  0  0  0  0  0  0  0  0  0  0  0
   40.8063   35.4735   40.2298 H   0  0  0  0  0  0  0  0  0  0  0  0
   38.3191   35.8011   40.7222 H   0  0  0  0  0  0  0  0  0  0  0  0
  1  2  2  0
  2  3  1  0
  4  6  1  0
  4  3  1  0
  5  1  1  0
  5  4  2  0
  6  7  2  0
  7  8  1  0
  9  8  2  0
 10  9  1  0
 11 10  2  0
 11  6  1  0
 12 17  1  0
 12  1  1  0
 13 14  2  0
 14 15  1  0
 16 15  2  0
 17 16  1  0
 18 17  2  0
 18 13  1  0
  7 19  1  0
  8 20  1  0
  9 21  1  0
 10 22  1  0
 11 23  1  0
 13 24  1  0
 14 25  1  0
 15 26  1  0
M  ISO  8  19  14  20  14  21  14  22  14  23  14  24  14  25  14  26  14
M  END
>  <minimizedAffinity>  (1) 
-5.08607197

>  <minimizedRMSD>  (1) 
7.05706644

$$$$
