
     RDKit          3D

 34 37  0  0  0  0  0  0  0  0999 V2000
   37.8520   30.2640   41.2560 C   0  0  0  0  0  0  0  0  0  0  0  0
   36.6730   29.4950   41.0000 C   0  0  0  0  0  0  0  0  0  0  0  0
   37.0260   27.8590   41.7990 S   0  0  0  0  0  0  0  0  0  0  0  0
   38.7320   28.5150   42.3470 C   0  0  0  0  0  0  0  0  0  0  0  0
   38.7120   29.5650   41.9300 N   0  0  0  0  0  0  0  0  0  0  0  0
   38.9580   32.4660   41.2180 C   0  0  0  0  0  0  0  0  0  0  0  0
   37.9500   31.6390   40.7700 C   0  0  0  0  0  0  0  0  0  0  0  0
   37.0280   32.1490   39.8400 C   0  0  0  0  0  0  0  0  0  0  0  0
   37.1860   33.4410   39.4330 N   0  0  0  0  0  0  0  0  0  0  0  0
   38.1960   34.2200   39.9040 C   0  0  0  0  0  0  0  0  0  0  0  0
   39.0600   33.7310   40.7790 N   0  0  0  0  0  0  0  0  0  0  0  0
   39.7220   27.7360   43.1140 C   0  0  0  0  0  0  0  0  0  0  0  0
   39.4610   26.4800   43.5100 N   0  0  0  0  0  0  0  0  0  0  0  0
   40.5040   26.0260   44.1680 O   0  0  0  0  0  0  0  0  0  0  0  0
   41.4010   26.9840   44.1820 C   0  0  0  0  0  0  0  0  0  0  0  0
   40.9490   28.0790   43.5290 N   0  0  0  0  0  0  0  0  0  0  0  0
   45.1830   26.7360   46.0390 C   0  0  0  0  0  0  0  0  0  0  0  0
   44.1150   27.2350   46.7700 C   0  0  0  0  0  0  0  0  0  0  0  0
   42.8910   27.2990   46.1200 C   0  0  0  0  0  0  0  0  0  0  0  0
   42.7130   26.8940   44.8140 C   0  0  0  0  0  0  0  0  0  0  0  0
   43.8050   26.4110   44.1490 C   0  0  0  0  0  0  0  0  0  0  0  0
   45.0610   26.3100   44.7110 C   0  0  0  0  0  0  0  0  0  0  0  0
   46.7680   26.6200   46.7840 S   0  0  0  0  0  0  0  0  0  0  0  0
   46.7080   25.8280   48.0520 O   0  0  0  0  0  0  0  0  0  0  0  0
   47.3270   27.9880   47.1130 O   0  0  0  0  0  0  0  0  0  0  0  0
   35.7678   29.8025   40.4559 H   0  0  0  0  0  0  0  0  0  0  0  0
   39.6893   32.0841   41.9456 H   0  0  0  0  0  0  0  0  0  0  0  0
   36.2069   31.5273   39.4536 H   0  0  0  0  0  0  0  0  0  0  0  0
   38.2951   35.2591   39.5569 H   0  0  0  0  0  0  0  0  0  0  0  0
   44.2327   27.5636   47.8132 H   0  0  0  0  0  0  0  0  0  0  0  0
   42.0234   27.6905   46.6714 H   0  0  0  0  0  0  0  0  0  0  0  0
   43.6752   26.0843   43.1067 H   0  0  0  0  0  0  0  0  0  0  0  0
   45.9193   25.9164   44.1467 H   0  0  0  0  0  0  0  0  0  0  0  0
   47.5819   25.9956   45.8759 H   0  0  0  0  0  0  0  0  0  0  0  0
  1  5  1  0
  2  1  2  0
  2  3  1  0
  3  4  1  0
  4 12  1  0
  5  4  2  0
  7  6  2  0
  7  1  1  0
  8  7  1  0
  9  8  2  0
  9 10  1  0
 10 11  2  0
 11  6  1  0
 12 13  2  0
 12 16  1  0
 13 14  1  0
 14 15  1  0
 15 20  1  0
 16 15  2  0
 17 18  2  0
 17 23  1  0
 19 18  1  0
 20 19  2  0
 21 22  2  0
 21 20  1  0
 22 17  1  0
 23 25  2  0
 23 24  2  0
  2 26  1  0
  6 27  1  0
  8 28  1  0
 10 29  1  0
 18 30  1  0
 19 31  1  0
 21 32  1  0
 22 33  1  0
 23 34  1  0
M  ISO  8  26  14  27  14  28  14  29  14  30  14  31  14  32  14  33  14
M  ISO  1  34  11
M  END
>  <minimizedAffinity>  (1) 
-5.72010708

>  <minimizedRMSD>  (1) 
0.740426183

$$$$
