
     RDKit          3D

 38 41  0  0  0  0  0  0  0  0999 V2000
   37.9610   30.7190   40.8770 C   0  0  0  0  0  0  0  0  0  0  0  0
   37.2170   31.8530   40.6240 C   0  0  0  0  0  0  0  0  0  0  0  0
   37.7040   32.8310   39.7820 C   0  0  0  0  0  0  0  0  0  0  0  0
   38.9140   32.6430   39.2210 N   0  0  0  0  0  0  0  0  0  0  0  0
   39.6580   31.5460   39.4500 C   0  0  0  0  0  0  0  0  0  0  0  0
   39.1770   30.6040   40.2700 N   0  0  0  0  0  0  0  0  0  0  0  0
   36.6580   28.7000   41.4410 C   0  0  0  0  0  0  0  0  0  0  0  0
   36.6180   27.8800   42.5600 C   0  0  0  0  0  0  0  0  0  0  0  0
   37.4720   28.3030   43.5000 N   0  0  0  0  0  0  0  0  0  0  0  0
   38.0670   29.4080   42.9780 C   0  0  0  0  0  0  0  0  0  0  0  0
   37.5660   29.6400   41.7290 N   0  0  0  0  0  0  0  0  0  0  0  0
   35.5420   27.3830   38.1850 C   0  0  0  0  0  0  0  0  0  0  0  0
   36.3230   27.5580   39.3380 C   0  0  0  0  0  0  0  0  0  0  0  0
   35.8680   28.5180   40.2650 C   0  0  0  0  0  0  0  0  0  0  0  0
   34.7250   29.1980   39.9860 N   0  0  0  0  0  0  0  0  0  0  0  0
   33.9990   28.9930   38.8520 C   0  0  0  0  0  0  0  0  0  0  0  0
   34.4190   28.0820   37.9590 N   0  0  0  0  0  0  0  0  0  0  0  0
   43.3520   31.1930   37.4740 C   0  0  0  0  0  0  0  0  0  0  0  0
   43.3210   31.7780   38.7230 C   0  0  0  0  0  0  0  0  0  0  0  0
   42.1060   31.9090   39.4020 C   0  0  0  0  0  0  0  0  0  0  0  0
   40.9610   31.4390   38.7900 C   0  0  0  0  0  0  0  0  0  0  0  0
   40.9980   30.8550   37.5410 C   0  0  0  0  0  0  0  0  0  0  0  0
   42.2110   30.7280   36.8700 C   0  0  0  0  0  0  0  0  0  0  0  0
   44.8420   31.0050   36.5780 S   0  0  0  0  0  0  0  0  0  0  0  0
   44.5440   30.5450   35.1620 O   0  0  0  0  0  0  0  0  0  0  0  0
   45.5740   32.3150   36.4560 O   0  0  0  0  0  0  0  0  0  0  0  0
   36.2312   31.9777   41.0958 H   0  0  0  0  0  0  0  0  0  0  0  0
   37.1200   33.7398   39.5743 H   0  0  0  0  0  0  0  0  0  0  0  0
   35.9691   26.9976   42.6613 H   0  0  0  0  0  0  0  0  0  0  0  0
   38.8309   30.0185   43.4817 H   0  0  0  0  0  0  0  0  0  0  0  0
   35.8633   26.6434   37.4368 H   0  0  0  0  0  0  0  0  0  0  0  0
   37.2412   26.9771   39.5093 H   0  0  0  0  0  0  0  0  0  0  0  0
   33.0787   29.5673   38.6695 H   0  0  0  0  0  0  0  0  0  0  0  0
   44.2513   32.1410   39.1842 H   0  0  0  0  0  0  0  0  0  0  0  0
   42.0633   32.3744   40.3978 H   0  0  0  0  0  0  0  0  0  0  0  0
   40.0704   30.4902   37.0758 H   0  0  0  0  0  0  0  0  0  0  0  0
   42.2541   30.2634   35.8739 H   0  0  0  0  0  0  0  0  0  0  0  0
   45.6036   30.0909   37.2572 H   0  0  0  0  0  0  0  0  0  0  0  0
  1 11  1  0
  2  1  2  0
  3  2  1  0
  4  5  1  0
  4  3  2  0
  5  6  2  0
  6  1  1  0
  7 11  1  0
  7  8  2  0
  8  9  1  0
 10  9  2  0
 11 10  1  0
 12 13  2  0
 13 14  1  0
 14  7  1  0
 15 14  2  0
 16 15  1  0
 17 12  1  0
 17 16  2  0
 18 19  2  0
 19 20  1  0
 21 20  2  0
 21  5  1  0
 22 21  1  0
 23 18  1  0
 23 22  2  0
 24 18  1  0
 25 24  2  0
 26 24  2  0
  2 27  1  0
  3 28  1  0
  8 29  1  0
 10 30  1  0
 12 31  1  0
 13 32  1  0
 16 33  1  0
 19 34  1  0
 20 35  1  0
 22 36  1  0
 23 37  1  0
 24 38  1  0
M  ISO  8  27  14  28  14  29  14  30  14  31  14  32  14  33  14  34  14
M  ISO  4  35  14  36  14  37  14  38  11
M  END
>  <minimizedAffinity>  (1) 
-5.44298935

>  <minimizedRMSD>  (1) 
3.00650501

$$$$
