
     RDKit          3D

 37 40  0  0  0  0  0  0  0  0999 V2000
   38.9500   27.2180   43.8200 C   0  0  0  0  0  0  0  0  0  0  0  0
   39.4340   26.2810   42.8840 C   0  0  0  0  0  0  0  0  0  0  0  0
   39.3480   26.6170   41.5240 C   0  0  0  0  0  0  0  0  0  0  0  0
   38.8050   27.8220   41.1980 N   0  0  0  0  0  0  0  0  0  0  0  0
   38.3460   28.7050   42.1390 C   0  0  0  0  0  0  0  0  0  0  0  0
   38.4250   28.3920   43.4400 N   0  0  0  0  0  0  0  0  0  0  0  0
   37.8320   29.8790   41.5350 N   0  0  0  0  0  0  0  0  0  0  0  0
   36.5020   29.9870   41.2330 C   0  0  0  0  0  0  0  0  0  0  0  0
   36.2530   31.1860   40.6680 N   0  0  0  0  0  0  0  0  0  0  0  0
   37.4190   31.8560   40.6050 C   0  0  0  0  0  0  0  0  0  0  0  0
   37.8210   33.1060   40.1440 C   0  0  0  0  0  0  0  0  0  0  0  0
   39.1160   33.4590   40.2410 N   0  0  0  0  0  0  0  0  0  0  0  0
   40.0360   32.6310   40.7750 C   0  0  0  0  0  0  0  0  0  0  0  0
   39.6710   31.4040   41.2340 N   0  0  0  0  0  0  0  0  0  0  0  0
   38.3760   31.0170   41.1510 C   0  0  0  0  0  0  0  0  0  0  0  0
   36.7840   33.8880   39.6070 N   0  0  0  0  0  0  0  0  0  0  0  0
   41.4050   33.0070   40.8770 N   0  0  0  0  0  0  0  0  0  0  0  0
   41.9720   34.1300   40.1530 C   0  0  0  0  0  0  0  0  0  0  0  0
   43.4540   33.8410   40.0280 C   0  0  0  0  0  0  0  0  0  0  0  0
   44.0620   33.9240   41.3400 N   0  0  0  0  0  0  0  0  0  0  0  0
   43.3830   33.1240   42.3240 C   0  0  0  0  0  0  0  0  0  0  0  0
   42.3000   32.2520   41.7350 C   0  0  0  0  0  0  0  0  0  0  0  0
   39.0046   26.9792   44.8924 H   0  0  0  0  0  0  0  0  0  0  0  0
   39.8634   25.3215   43.2080 H   0  0  0  0  0  0  0  0  0  0  0  0
   39.7082   25.9281   40.7458 H   0  0  0  0  0  0  0  0  0  0  0  0
   35.7468   29.2101   41.4231 H   0  0  0  0  0  0  0  0  0  0  0  0
   35.8223   33.5201   39.5806 H   0  0  0  0  0  0  0  0  0  0  0  0
   36.9857   34.8290   39.2399 H   0  0  0  0  0  0  0  0  0  0  0  0
   41.5134   34.2131   39.1566 H   0  0  0  0  0  0  0  0  0  0  0  0
   41.7896   35.0802   40.6763 H   0  0  0  0  0  0  0  0  0  0  0  0
   43.5996   32.8311   39.6171 H   0  0  0  0  0  0  0  0  0  0  0  0
   43.9207   34.5750   39.3546 H   0  0  0  0  0  0  0  0  0  0  0  0
   45.0378   33.6015   41.2709 H   0  0  0  0  0  0  0  0  0  0  0  0
   44.1220   32.4773   42.8197 H   0  0  0  0  0  0  0  0  0  0  0  0
   42.8995   33.8145   43.0307 H   0  0  0  0  0  0  0  0  0  0  0  0
   41.7163   31.8073   42.5545 H   0  0  0  0  0  0  0  0  0  0  0  0
   42.7824   31.4742   41.1248 H   0  0  0  0  0  0  0  0  0  0  0  0
  2  1  2  0
  3  2  1  0
  4  3  2  0
  4  5  1  0
  5  6  2  0
  6  1  1  0
  7  5  1  0
  8  7  1  0
  9  8  2  0
 10  9  1  0
 10 15  2  0
 11 12  2  0
 11 10  1  0
 12 13  1  0
 13 17  1  0
 13 14  2  0
 15 14  1  0
 15  7  1  0
 16 11  1  0
 17 22  1  0
 18 17  1  0
 19 18  1  0
 19 20  1  0
 20 21  1  0
 22 21  1  0
  1 23  1  0
  2 24  1  0
  3 25  1  0
  8 26  1  0
 16 27  1  0
 16 28  1  0
 18 29  1  0
 18 30  1  0
 19 31  1  0
 19 32  1  0
 20 33  1  0
 21 34  1  0
 21 35  1  0
 22 36  1  0
 22 37  1  0
M  ISO  8  23  14  24  14  25  14  26  14  29  13  30  13  31  13  32  13
M  ISO  5  33   5  34  13  35  13  36  13  37  13
M  END
>  <minimizedAffinity>  (1) 
-6.40527773

>  <minimizedRMSD>  (1) 
1.13548362

$$$$
