
     RDKit          3D

 35 38  0  0  0  0  0  0  0  0999 V2000
   36.8790   29.7370   41.6850 C   0  0  0  0  0  0  0  0  0  0  0  0
   38.2340   29.5380   41.2520 C   0  0  0  0  0  0  0  0  0  0  0  0
   38.7810   30.3770   40.3250 C   0  0  0  0  0  0  0  0  0  0  0  0
   37.9750   31.3920   39.8420 N   0  0  0  0  0  0  0  0  0  0  0  0
   36.6880   31.5640   40.2650 C   0  0  0  0  0  0  0  0  0  0  0  0
   36.1350   30.7310   41.1930 N   0  0  0  0  0  0  0  0  0  0  0  0
   40.1410   30.3300   39.8210 C   0  0  0  0  0  0  0  0  0  0  0  0
   41.1630   29.5190   39.6700 N   0  0  0  0  0  0  0  0  0  0  0  0
   42.1670   30.1030   39.1250 O   0  0  0  0  0  0  0  0  0  0  0  0
   41.9080   31.3360   38.8700 C   0  0  0  0  0  0  0  0  0  0  0  0
   40.6670   31.4580   39.3000 N   0  0  0  0  0  0  0  0  0  0  0  0
   42.7990   32.2550   38.2710 N   0  0  0  0  0  0  0  0  0  0  0  0
   42.3560   33.2200   37.2810 C   0  0  0  0  0  0  0  0  0  0  0  0
   42.6040   34.5930   37.9220 C   0  0  0  0  0  0  0  0  0  0  0  0
   44.0380   34.7320   37.9480 N   0  0  0  0  0  0  0  0  0  0  0  0
   44.7290   33.7300   38.6780 C   0  0  0  0  0  0  0  0  0  0  0  0
   44.2050   32.3450   38.5600 C   0  0  0  0  0  0  0  0  0  0  0  0
   38.9220   28.4010   41.8360 C   0  0  0  0  0  0  0  0  0  0  0  0
   38.7470   27.1090   41.2260 C   0  0  0  0  0  0  0  0  0  0  0  0
   39.7780   25.9800   42.2720 S   0  0  0  0  0  0  0  0  0  0  0  0
   40.2620   27.5060   43.3600 C   0  0  0  0  0  0  0  0  0  0  0  0
   39.7200   28.3630   42.8880 N   0  0  0  0  0  0  0  0  0  0  0  0
   36.4464   29.0587   42.4351 H   0  0  0  0  0  0  0  0  0  0  0  0
   36.0876   32.3874   39.8508 H   0  0  0  0  0  0  0  0  0  0  0  0
   41.2869   33.0841   37.0606 H   0  0  0  0  0  0  0  0  0  0  0  0
   42.8921   33.1076   36.3271 H   0  0  0  0  0  0  0  0  0  0  0  0
   42.1480   35.3911   37.3177 H   0  0  0  0  0  0  0  0  0  0  0  0
   42.1606   34.6694   38.9258 H   0  0  0  0  0  0  0  0  0  0  0  0
   44.3780   34.7097   36.9760 H   0  0  0  0  0  0  0  0  0  0  0  0
   45.7728   33.7233   38.3309 H   0  0  0  0  0  0  0  0  0  0  0  0
   44.6018   34.0006   39.7366 H   0  0  0  0  0  0  0  0  0  0  0  0
   44.3928   31.8258   39.5114 H   0  0  0  0  0  0  0  0  0  0  0  0
   44.7267   31.8881   37.7061 H   0  0  0  0  0  0  0  0  0  0  0  0
   38.1419   26.8519   40.3441 H   0  0  0  0  0  0  0  0  0  0  0  0
   40.9199   27.5258   44.2413 H   0  0  0  0  0  0  0  0  0  0  0  0
  2  1  2  0
  2 18  1  0
  3  2  1  0
  4  5  1  0
  4  3  2  0
  5  6  2  0
  6  1  1  0
  7  3  1  0
  8  7  2  0
  9  8  1  0
 10  9  1  0
 10 11  2  0
 11  7  1  0
 12 17  1  0
 12 10  1  0
 13 14  1  0
 13 12  1  0
 14 15  1  0
 15 16  1  0
 17 16  1  0
 18 22  1  0
 19 18  2  0
 19 20  1  0
 20 21  1  0
 22 21  2  0
  1 23  1  0
  5 24  1  0
 13 25  1  0
 13 26  1  0
 14 27  1  0
 14 28  1  0
 15 29  1  0
 16 30  1  0
 16 31  1  0
 17 32  1  0
 17 33  1  0
 19 34  1  0
 21 35  1  0
M  ISO  8  23  14  24  14  25  13  26  13  27  13  28  13  29   5  30  13
M  ISO  5  31  13  32  13  33  13  34  14  35  14
M  END
>  <minimizedAffinity>  (1) 
-5.01879406

>  <minimizedRMSD>  (1) 
2.33677816

$$$$
