
     RDKit          3D

 49 53  0  0  1  0  0  0  0  0999 V2000
   33.8000   26.7760   37.1920 N   0  0  0  0  0  0  0  0  0  0  0  0
   33.3880   28.1390   36.9490 C   0  0  0  0  0  0  0  0  0  0  0  0
   34.4150   28.9290   36.1770 C   0  0  0  0  0  0  0  0  0  0  0  0
   35.8180   28.4170   36.4180 C   0  0  2  0  0  0  0  0  0  0  0  0
   35.9650   27.7740   37.7790 C   0  0  0  0  0  0  0  0  0  0  0  0
   34.9740   26.6750   38.0100 C   0  0  2  0  0  0  0  0  0  0  0  0
   35.5780   25.3390   37.9160 C   0  0  0  0  0  0  0  0  0  0  0  0
   35.5810   24.5230   36.7950 C   0  0  0  0  0  0  0  0  0  0  0  0
   36.2270   23.3910   37.1030 N   0  0  0  0  0  0  0  0  0  0  0  0
   36.6620   23.4000   38.3740 C   0  0  0  0  0  0  0  0  0  0  0  0
   37.3560   22.5420   39.2010 C   0  0  0  0  0  0  0  0  0  0  0  0
   37.6420   22.8880   40.5060 C   0  0  0  0  0  0  0  0  0  0  0  0
   37.2490   24.1120   41.0590 C   0  0  0  0  0  0  0  0  0  0  0  0
   36.5500   24.9410   40.1790 C   0  0  0  0  0  0  0  0  0  0  0  0
   36.2510   24.6220   38.8730 C   0  0  0  0  0  0  0  0  0  0  0  0
   36.9400   29.8430   36.4110 S   0  0  0  0  0  0  0  0  0  0  0  0
   37.1950   30.3600   40.3890 C   0  0  0  0  0  0  0  0  0  0  0  0
   37.2850   31.7200   40.5640 C   0  0  0  0  0  0  0  0  0  0  0  0
   37.2680   32.5200   39.4280 C   0  0  0  0  0  0  0  0  0  0  0  0
   37.1620   31.9060   38.1810 C   0  0  0  0  0  0  0  0  0  0  0  0
   37.0730   30.5470   38.0320 C   0  0  0  0  0  0  0  0  0  0  0  0
   37.0910   29.7930   39.1560 N   0  0  0  0  0  0  0  0  0  0  0  0
   38.1710   28.9500   43.6190 C   0  0  0  0  0  0  0  0  0  0  0  0
   37.2990   27.8480   43.7680 C   0  0  0  0  0  0  0  0  0  0  0  0
   36.3670   27.6030   42.7300 C   0  0  0  0  0  0  0  0  0  0  0  0
   36.3770   28.4390   41.6710 N   0  0  0  0  0  0  0  0  0  0  0  0
   37.2080   29.4690   41.5530 C   0  0  0  0  0  0  0  0  0  0  0  0
   38.0840   29.6930   42.5360 N   0  0  0  0  0  0  0  0  0  0  0  0
   33.9935   26.3265   36.2857 H   0  0  0  0  0  0  0  0  0  0  0  0
   32.4498   28.1259   36.3749 H   0  0  0  0  0  0  0  0  0  0  0  0
   33.2601   28.6266   37.9267 H   0  0  0  0  0  0  0  0  0  0  0  0
   34.3622   29.9823   36.4897 H   0  0  0  0  0  0  0  0  0  0  0  0
   34.1924   28.8221   35.1051 H   0  0  0  0  0  0  0  0  0  0  0  0
   36.0426   27.6757   35.6369 H   0  0  0  0  0  0  0  0  0  0  0  0
   36.9792   27.3565   37.8631 H   0  0  0  0  0  0  0  0  0  0  0  0
   35.7807   28.5515   38.5350 H   0  0  0  0  0  0  0  0  0  0  0  0
   34.6390   26.8135   39.0486 H   0  0  0  0  0  0  0  0  0  0  0  0
   35.1305   24.7638   35.8208 H   0  0  0  0  0  0  0  0  0  0  0  0
   36.3723   22.6104   36.4469 H   0  0  0  0  0  0  0  0  0  0  0  0
   37.6867   21.5667   38.8145 H   0  0  0  0  0  0  0  0  0  0  0  0
   38.1986   22.1765   41.1337 H   0  0  0  0  0  0  0  0  0  0  0  0
   37.4716   24.3967   42.0979 H   0  0  0  0  0  0  0  0  0  0  0  0
   36.2143   25.9184   40.5558 H   0  0  0  0  0  0  0  0  0  0  0  0
   37.3676   32.1602   41.5687 H   0  0  0  0  0  0  0  0  0  0  0  0
   37.3367   33.6147   39.5110 H   0  0  0  0  0  0  0  0  0  0  0  0
   37.1493   32.5379   37.2807 H   0  0  0  0  0  0  0  0  0  0  0  0
   38.9123   29.1837   44.3974 H   0  0  0  0  0  0  0  0  0  0  0  0
   37.3425   27.2035   44.6583 H   0  0  0  0  0  0  0  0  0  0  0  0
   35.6606   26.7616   42.7852 H   0  0  0  0  0  0  0  0  0  0  0  0
  1  6  1  0
  2  1  1  0
  3  4  1  0
  3  2  1  0
  4  5  1  0
  5  6  1  0
  7  6  1  0
  7 15  1  0
  8  9  1  0
  8  7  2  0
  9 10  1  0
 10 15  2  0
 10 11  1  0
 11 12  2  0
 12 13  1  0
 14 13  2  0
 15 14  1  0
 16  4  1  0
 16 21  1  0
 17 18  2  0
 17 27  1  0
 19 18  1  0
 20 19  2  0
 21 20  1  0
 21 22  2  0
 22 17  1  0
 23 24  2  0
 25 24  1  0
 26 25  2  0
 27 26  1  0
 27 28  2  0
 28 23  1  0
  1 29  1  0
  2 30  1  0
  2 31  1  0
  3 32  1  0
  3 33  1  0
  4 34  1  6
  5 35  1  0
  5 36  1  0
  6 37  1  1
  8 38  1  0
  9 39  1  0
 11 40  1  0
 12 41  1  0
 13 42  1  0
 14 43  1  0
 18 44  1  0
 19 45  1  0
 20 46  1  0
 23 47  1  0
 24 48  1  0
 25 49  1  0
M  ISO  8  29   5  30  13  31  13  32  13  33  13  34  13  35  13  36  13
M  ISO  8  37  13  38  14  39   9  40  14  41  14  42  14  43  14  44  14
M  ISO  5  45  14  46  14  47  14  48  14  49  14
M  END
>  <minimizedAffinity>  (1) 
-5.85941935

>  <minimizedRMSD>  (1) 
2.11956501

$$$$
