
     RDKit          3D

 51 56  0  0  0  0  0  0  0  0999 V2000
   36.3730   27.4370   39.8270 C   0  0  0  0  0  0  0  0  0  0  0  0
   36.3180   28.0290   41.0870 C   0  0  0  0  0  0  0  0  0  0  0  0
   36.6260   27.0810   41.9710 N   0  0  0  0  0  0  0  0  0  0  0  0
   36.8790   25.9000   41.3800 C   0  0  0  0  0  0  0  0  0  0  0  0
   37.2300   24.6870   41.9500 C   0  0  0  0  0  0  0  0  0  0  0  0
   37.4320   23.6320   41.0680 C   0  0  0  0  0  0  0  0  0  0  0  0
   37.2880   23.7880   39.6900 C   0  0  0  0  0  0  0  0  0  0  0  0
   36.9380   25.0080   39.1500 C   0  0  0  0  0  0  0  0  0  0  0  0
   36.7260   26.0930   40.0050 C   0  0  0  0  0  0  0  0  0  0  0  0
   34.6480   29.0490   37.0490 C   0  0  0  0  0  0  0  0  0  0  0  0
   35.6840   29.2430   36.0960 C   0  0  0  0  0  0  0  0  0  0  0  0
   36.9810   28.8090   36.4310 C   0  0  0  0  0  0  0  0  0  0  0  0
   37.1410   28.2390   37.6400 N   0  0  0  0  0  0  0  0  0  0  0  0
   36.1260   28.0670   38.5320 C   0  0  0  0  0  0  0  0  0  0  0  0
   34.8940   28.4680   38.2380 N   0  0  0  0  0  0  0  0  0  0  0  0
   36.6690   27.3840   43.3630 C   0  0  0  0  0  0  0  0  0  0  0  0
   37.5530   28.5760   43.7080 C   0  0  0  0  0  0  0  0  0  0  0  0
   38.9250   28.1040   43.4580 N   0  0  0  0  0  0  0  0  0  0  0  0
   39.4020   26.9360   43.9100 N   0  0  0  0  0  0  0  0  0  0  0  0
   40.6880   26.7910   43.5410 C   0  0  0  0  0  0  0  0  0  0  0  0
   41.0330   27.9490   42.8090 C   0  0  0  0  0  0  0  0  0  0  0  0
   39.8960   28.7280   42.7890 C   0  0  0  0  0  0  0  0  0  0  0  0
   39.9190   29.9930   42.1050 C   0  0  0  0  0  0  0  0  0  0  0  0
   39.9550   31.2480   42.6540 C   0  0  0  0  0  0  0  0  0  0  0  0
   40.0110   32.2380   41.7670 N   0  0  0  0  0  0  0  0  0  0  0  0
   40.0120   31.6760   40.5220 C   0  0  0  0  0  0  0  0  0  0  0  0
   40.0620   32.2130   39.2460 C   0  0  0  0  0  0  0  0  0  0  0  0
   40.0550   31.3710   38.1610 C   0  0  0  0  0  0  0  0  0  0  0  0
   40.0000   30.0050   38.3370 C   0  0  0  0  0  0  0  0  0  0  0  0
   39.9540   29.5570   39.6330 C   0  0  0  0  0  0  0  0  0  0  0  0
   39.9560   30.3050   40.7710 C   0  0  0  0  0  0  0  0  0  0  0  0
   36.0684   29.0770   41.3091 H   0  0  0  0  0  0  0  0  0  0  0  0
   37.3423   24.5659   43.0375 H   0  0  0  0  0  0  0  0  0  0  0  0
   37.7133   22.6467   41.4682 H   0  0  0  0  0  0  0  0  0  0  0  0
   37.4556   22.9276   39.0254 H   0  0  0  0  0  0  0  0  0  0  0  0
   36.8273   25.1253   38.0619 H   0  0  0  0  0  0  0  0  0  0  0  0
   33.6263   29.3797   36.8107 H   0  0  0  0  0  0  0  0  0  0  0  0
   35.4789   29.7181   35.1253 H   0  0  0  0  0  0  0  0  0  0  0  0
   37.8252   28.9302   35.7363 H   0  0  0  0  0  0  0  0  0  0  0  0
   35.6455   27.6022   43.7018 H   0  0  0  0  0  0  0  0  0  0  0  0
   37.1029   26.5080   43.8673 H   0  0  0  0  0  0  0  0  0  0  0  0
   37.3146   29.4357   43.0645 H   0  0  0  0  0  0  0  0  0  0  0  0
   37.4105   28.9155   44.7445 H   0  0  0  0  0  0  0  0  0  0  0  0
   41.3434   25.9366   43.7657 H   0  0  0  0  0  0  0  0  0  0  0  0
   42.0058   28.1806   42.3507 H   0  0  0  0  0  0  0  0  0  0  0  0
   39.9389   31.4227   43.7399 H   0  0  0  0  0  0  0  0  0  0  0  0
   40.0470   33.2450   41.9803 H   0  0  0  0  0  0  0  0  0  0  0  0
   40.1069   33.3028   39.1032 H   0  0  0  0  0  0  0  0  0  0  0  0
   40.0936   31.7896   37.1445 H   0  0  0  0  0  0  0  0  0  0  0  0
   39.9933   29.3109   37.4837 H   0  0  0  0  0  0  0  0  0  0  0  0
   39.9104   28.4663   39.7687 H   0  0  0  0  0  0  0  0  0  0  0  0
  1  9  1  0
  1  2  2  0
  2  3  1  0
  3 16  1  0
  4  5  2  0
  4  3  1  0
  6  5  1  0
  7  6  2  0
  8  7  1  0
  8  9  2  0
  9  4  1  0
 10 15  2  0
 11 12  2  0
 11 10  1  0
 12 13  1  0
 13 14  2  0
 14  1  1  0
 15 14  1  0
 16 17  1  0
 18 17  1  0
 18 19  1  0
 20 19  2  0
 21 20  1  0
 22 21  2  0
 22 18  1  0
 23 24  2  0
 23 22  1  0
 25 24  1  0
 26 31  2  0
 26 25  1  0
 27 26  1  0
 28 29  1  0
 28 27  2  0
 29 30  2  0
 30 31  1  0
 31 23  1  0
  2 32  1  0
  5 33  1  0
  6 34  1  0
  7 35  1  0
  8 36  1  0
 10 37  1  0
 11 38  1  0
 12 39  1  0
 16 40  1  0
 16 41  1  0
 17 42  1  0
 17 43  1  0
 20 44  1  0
 21 45  1  0
 24 46  1  0
 25 47  1  0
 27 48  1  0
 28 49  1  0
 29 50  1  0
 30 51  1  0
M  ISO  8  32  14  33  14  34  14  35  14  36  14  37  14  38  14  39  14
M  ISO  8  40   8  41   8  42   8  43   8  44  14  45  14  46  14  47   9
M  ISO  4  48  14  49  14  50  14  51  14
M  END
>  <minimizedAffinity>  (1) 
-6.26098728

>  <minimizedRMSD>  (1) 
6.04121923

$$$$
