
     RDKit          3D

 45 50  0  0  1  0  0  0  0  0999 V2000
   36.9750   32.6260   39.8330 C   0  0  0  0  0  0  0  0  0  0  0  0
   37.0520   31.4330   40.5890 C   0  0  0  0  0  0  0  0  0  0  0  0
   38.2430   31.1370   41.2630 C   0  0  0  0  0  0  0  0  0  0  0  0
   39.2420   32.0390   41.1310 N   0  0  0  0  0  0  0  0  0  0  0  0
   39.1610   33.1710   40.4110 C   0  0  0  0  0  0  0  0  0  0  0  0
   38.0140   33.4630   39.7570 N   0  0  0  0  0  0  0  0  0  0  0  0
   38.3210   29.9200   42.0160 C   0  0  0  0  0  0  0  0  0  0  0  0
   37.2850   29.1490   42.4840 C   0  0  0  0  0  0  0  0  0  0  0  0
   37.7630   28.0870   43.1530 N   0  0  0  0  0  0  0  0  0  0  0  0
   39.1070   28.1160   43.1500 C   0  0  0  0  0  0  0  0  0  0  0  0
   40.1150   27.2970   43.6690 C   0  0  0  0  0  0  0  0  0  0  0  0
   41.4660   27.5970   43.4950 C   0  0  0  0  0  0  0  0  0  0  0  0
   41.7730   28.7410   42.7860 C   0  0  0  0  0  0  0  0  0  0  0  0
   40.7980   29.5550   42.2700 C   0  0  0  0  0  0  0  0  0  0  0  0
   39.4610   29.2580   42.4420 C   0  0  0  0  0  0  0  0  0  0  0  0
   40.3260   34.0990   40.3450 C   0  0  1  0  0  0  0  0  0  0  0  0
   41.7050   33.5340   40.6510 C   0  0  0  0  0  0  0  0  0  0  0  0
   41.3250   33.9500   39.2590 C   0  0  1  0  0  0  0  0  0  0  0  0
   41.3080   32.8620   38.2650 C   0  0  0  0  0  0  0  0  0  0  0  0
   40.3240   32.0950   37.6750 C   0  0  0  0  0  0  0  0  0  0  0  0
   40.9390   31.2290   36.8380 N   0  0  0  0  0  0  0  0  0  0  0  0
   42.2750   31.4170   36.8750 C   0  0  0  0  0  0  0  0  0  0  0  0
   43.2250   30.7010   36.1390 C   0  0  0  0  0  0  0  0  0  0  0  0
   44.5350   31.0750   36.3440 C   0  0  0  0  0  0  0  0  0  0  0  0
   44.8630   32.0890   37.2190 C   0  0  0  0  0  0  0  0  0  0  0  0
   43.8770   32.7570   37.9160 C   0  0  0  0  0  0  0  0  0  0  0  0
   42.5440   32.4370   37.7620 C   0  0  0  0  0  0  0  0  0  0  0  0
   36.0446   32.8688   39.2988 H   0  0  0  0  0  0  0  0  0  0  0  0
   36.1916   30.7500   40.6464 H   0  0  0  0  0  0  0  0  0  0  0  0
   36.2180   29.3695   42.3327 H   0  0  0  0  0  0  0  0  0  0  0  0
   37.1868   27.3601   43.6008 H   0  0  0  0  0  0  0  0  0  0  0  0
   39.8350   26.3926   44.2291 H   0  0  0  0  0  0  0  0  0  0  0  0
   42.2542   26.9489   43.9057 H   0  0  0  0  0  0  0  0  0  0  0  0
   42.8291   29.0068   42.6308 H   0  0  0  0  0  0  0  0  0  0  0  0
   41.0853   30.4577   41.7109 H   0  0  0  0  0  0  0  0  0  0  0  0
   39.7158   34.9352   40.7170 H   0  0  0  0  0  0  0  0  0  0  0  0
   42.4306   34.1269   41.2271 H   0  0  0  0  0  0  0  0  0  0  0  0
   42.0914   32.6161   41.1181 H   0  0  0  0  0  0  0  0  0  0  0  0
   41.6616   34.6627   38.4918 H   0  0  0  0  0  0  0  0  0  0  0  0
   39.2413   32.1735   37.8525 H   0  0  0  0  0  0  0  0  0  0  0  0
   40.4578   30.5279   36.2568 H   0  0  0  0  0  0  0  0  0  0  0  0
   42.9454   29.8950   35.4446 H   0  0  0  0  0  0  0  0  0  0  0  0
   45.3357   30.5541   35.7985 H   0  0  0  0  0  0  0  0  0  0  0  0
   45.9175   32.3672   37.3623 H   0  0  0  0  0  0  0  0  0  0  0  0
   44.1602   33.5624   38.6097 H   0  0  0  0  0  0  0  0  0  0  0  0
  1  2  2  0
  2  3  1  0
  3  7  1  0
  4  3  2  0
  5  4  1  0
  6  1  1  0
  6  5  2  0
  7 15  1  0
  7  8  2  0
  8  9  1  0
 10  9  1  0
 10 11  2  0
 12 11  1  0
 13 12  2  0
 14 15  2  0
 14 13  1  0
 15 10  1  0
 16  5  1  0
 16 17  1  0
 18 16  1  0
 18 17  1  0
 19 18  1  0
 20 19  2  0
 21 22  1  0
 21 20  1  0
 22 27  2  0
 23 24  2  0
 23 22  1  0
 24 25  1  0
 25 26  2  0
 27 26  1  0
 27 19  1  0
  1 28  1  0
  2 29  1  0
  8 30  1  0
  9 31  1  0
 11 32  1  0
 12 33  1  0
 13 34  1  0
 14 35  1  0
 16 36  1  1
 17 37  1  0
 17 38  1  0
 18 39  1  6
 20 40  1  0
 21 41  1  0
 23 42  1  0
 24 43  1  0
 25 44  1  0
 26 45  1  0
M  ISO  8  28  14  29  14  30  14  31   9  32  14  33  14  34  14  35  14
M  ISO  8  36  13  37  13  38  13  39  13  40  14  41   9  42  14  43  14
M  ISO  2  44  14  45  14
M  END
>  <minimizedAffinity>  (1) 
-6.66936779

>  <minimizedRMSD>  (1) 
4.58613873

$$$$
