
     RDKit          3D

 36 39  0  0  0  0  0  0  0  0999 V2000
   37.2750   26.4920   40.5370 C   0  0  0  0  0  0  0  0  0  0  0  0
   38.3100   25.5880   40.8000 C   0  0  0  0  0  0  0  0  0  0  0  0
   38.3490   24.3930   40.0320 C   0  0  0  0  0  0  0  0  0  0  0  0
   37.3840   24.2010   39.0940 N   0  0  0  0  0  0  0  0  0  0  0  0
   36.4090   25.0950   38.8730 C   0  0  0  0  0  0  0  0  0  0  0  0
   36.3580   26.2270   39.5890 N   0  0  0  0  0  0  0  0  0  0  0  0
   39.3070   25.7840   41.7510 N   0  0  0  0  0  0  0  0  0  0  0  0
   39.4810   25.1000   43.0210 C   0  0  0  0  0  0  0  0  0  0  0  0
   40.1330   26.1300   43.9180 C   0  0  0  0  0  0  0  0  0  0  0  0
   40.3620   27.3460   43.0500 C   0  0  0  0  0  0  0  0  0  0  0  0
   40.4130   26.6920   41.6910 C   0  0  0  0  0  0  0  0  0  0  0  0
   37.0220   27.7370   41.2280 C   0  0  0  0  0  0  0  0  0  0  0  0
   36.7950   28.2230   42.4910 C   0  0  0  0  0  0  0  0  0  0  0  0
   36.6500   29.5560   42.5190 N   0  0  0  0  0  0  0  0  0  0  0  0
   36.7730   30.0340   41.2830 C   0  0  0  0  0  0  0  0  0  0  0  0
   36.7020   31.3270   40.8210 C   0  0  0  0  0  0  0  0  0  0  0  0
   36.8650   31.5600   39.4820 C   0  0  0  0  0  0  0  0  0  0  0  0
   37.0970   30.5080   38.6230 C   0  0  0  0  0  0  0  0  0  0  0  0
   37.1600   29.2290   39.1250 C   0  0  0  0  0  0  0  0  0  0  0  0
   37.0020   28.9290   40.4820 C   0  0  0  0  0  0  0  0  0  0  0  0
   39.1384   23.6439   40.1921 H   0  0  0  0  0  0  0  0  0  0  0  0
   35.6492   24.8988   38.1022 H   0  0  0  0  0  0  0  0  0  0  0  0
   38.5093   24.7867   43.4305 H   0  0  0  0  0  0  0  0  0  0  0  0
   40.0849   24.1856   42.9251 H   0  0  0  0  0  0  0  0  0  0  0  0
   39.4701   26.3795   44.7596 H   0  0  0  0  0  0  0  0  0  0  0  0
   41.0742   25.7556   44.3469 H   0  0  0  0  0  0  0  0  0  0  0  0
   39.5324   28.0643   43.1265 H   0  0  0  0  0  0  0  0  0  0  0  0
   41.2493   27.9413   43.3113 H   0  0  0  0  0  0  0  0  0  0  0  0
   41.3617   26.1557   41.5417 H   0  0  0  0  0  0  0  0  0  0  0  0
   40.3545   27.4048   40.8553 H   0  0  0  0  0  0  0  0  0  0  0  0
   36.7380   27.5863   43.3862 H   0  0  0  0  0  0  0  0  0  0  0  0
   36.4719   30.1198   43.3624 H   0  0  0  0  0  0  0  0  0  0  0  0
   36.5174   32.1599   41.5154 H   0  0  0  0  0  0  0  0  0  0  0  0
   36.8108   32.5870   39.0918 H   0  0  0  0  0  0  0  0  0  0  0  0
   37.2305   30.6892   37.5463 H   0  0  0  0  0  0  0  0  0  0  0  0
   37.3438   28.4010   38.4245 H   0  0  0  0  0  0  0  0  0  0  0  0
  1  2  1  0
  1 12  1  0
  2  7  1  0
  3  2  2  0
  4  3  1  0
  5  4  2  0
  5  6  1  0
  6  1  2  0
  7  8  1  0
  8  9  1  0
 10  9  1  0
 11  7  1  0
 11 10  1  0
 12 13  2  0
 13 14  1  0
 15 14  1  0
 16 15  2  0
 17 16  1  0
 18 19  1  0
 18 17  2  0
 19 20  2  0
 20 12  1  0
 20 15  1  0
  3 21  1  0
  5 22  1  0
  8 23  1  0
  8 24  1  0
  9 25  1  0
  9 26  1  0
 10 27  1  0
 10 28  1  0
 11 29  1  0
 11 30  1  0
 13 31  1  0
 14 32  1  0
 16 33  1  0
 17 34  1  0
 18 35  1  0
 19 36  1  0
M  ISO  8  21  14  22  14  23  13  24  13  25  13  26  13  27  13  28  13
M  ISO  8  29  13  30  13  31  14  32   9  33  14  34  14  35  14  36  14
M  END
>  <minimizedAffinity>  (1) 
-5.27243948

>  <minimizedRMSD>  (1) 
3.84390903

$$$$
