
     RDKit          3D

 41 46  0  0  0  0  0  0  0  0999 V2000
   38.0130   32.0940   40.0020 C   0  0  0  0  0  0  0  0  0  0  0  0
   39.4230   32.1590   40.2750 C   0  0  0  0  0  0  0  0  0  0  0  0
   40.0380   33.3820   40.2840 C   0  0  0  0  0  0  0  0  0  0  0  0
   39.2630   34.4780   40.0290 N   0  0  0  0  0  0  0  0  0  0  0  0
   37.9290   34.3860   39.7730 C   0  0  0  0  0  0  0  0  0  0  0  0
   37.3040   33.2040   39.7590 N   0  0  0  0  0  0  0  0  0  0  0  0
   41.4550   33.5960   40.5590 C   0  0  0  0  0  0  0  0  0  0  0  0
   42.6540   33.1770   40.2790 N   0  0  0  0  0  0  0  0  0  0  0  0
   43.5600   33.8380   40.9140 O   0  0  0  0  0  0  0  0  0  0  0  0
   43.0410   34.7470   41.6650 C   0  0  0  0  0  0  0  0  0  0  0  0
   41.7580   34.5910   41.4420 N   0  0  0  0  0  0  0  0  0  0  0  0
   43.6310   35.7080   42.5400 N   0  0  0  0  0  0  0  0  0  0  0  0
   44.9440   35.8830   42.7520 C   0  0  0  0  0  0  0  0  0  0  0  0
   45.1130   36.8680   43.6350 N   0  0  0  0  0  0  0  0  0  0  0  0
   43.8780   37.3260   43.9880 C   0  0  0  0  0  0  0  0  0  0  0  0
   42.9560   36.5940   43.2960 N   0  0  0  0  0  0  0  0  0  0  0  0
   40.0810   30.8860   40.5070 C   0  0  0  0  0  0  0  0  0  0  0  0
   40.7360   30.2670   39.3860 C   0  0  0  0  0  0  0  0  0  0  0  0
   41.4200   28.7080   40.1170 S   0  0  0  0  0  0  0  0  0  0  0  0
   40.6760   29.2070   41.8210 C   0  0  0  0  0  0  0  0  0  0  0  0
   40.1830   30.1800   41.6050 N   0  0  0  0  0  0  0  0  0  0  0  0
   40.9320   28.2370   42.9060 C   0  0  0  0  0  0  0  0  0  0  0  0
   40.2570   27.1410   43.3180 C   0  0  0  0  0  0  0  0  0  0  0  0
   40.8880   26.5720   44.3610 N   0  0  0  0  0  0  0  0  0  0  0  0
   41.9810   27.3420   44.5950 C   0  0  0  0  0  0  0  0  0  0  0  0
   42.9350   27.1430   45.5810 C   0  0  0  0  0  0  0  0  0  0  0  0
   43.9580   28.0720   45.6140 C   0  0  0  0  0  0  0  0  0  0  0  0
   44.0400   29.1320   44.7330 C   0  0  0  0  0  0  0  0  0  0  0  0
   43.0550   29.2830   43.7650 C   0  0  0  0  0  0  0  0  0  0  0  0
   42.0200   28.4000   43.6810 C   0  0  0  0  0  0  0  0  0  0  0  0
   37.5082   31.1167   39.9925 H   0  0  0  0  0  0  0  0  0  0  0  0
   37.3539   35.3023   39.5737 H   0  0  0  0  0  0  0  0  0  0  0  0
   45.7507   35.3072   42.2748 H   0  0  0  0  0  0  0  0  0  0  0  0
   43.6637   38.1367   44.6999 H   0  0  0  0  0  0  0  0  0  0  0  0
   40.8121   30.6297   38.3503 H   0  0  0  0  0  0  0  0  0  0  0  0
   39.3262   26.7681   42.8658 H   0  0  0  0  0  0  0  0  0  0  0  0
   40.6011   25.7270   44.8754 H   0  0  0  0  0  0  0  0  0  0  0  0
   42.8815   26.3029   46.2890 H   0  0  0  0  0  0  0  0  0  0  0  0
   44.7426   27.9618   46.3770 H   0  0  0  0  0  0  0  0  0  0  0  0
   44.8736   29.8469   44.7967 H   0  0  0  0  0  0  0  0  0  0  0  0
   43.1109   30.1244   43.0586 H   0  0  0  0  0  0  0  0  0  0  0  0
  1  2  2  0
  2  3  1  0
  2 17  1  0
  3  7  1  0
  4  3  2  0
  5  4  1  0
  6  5  2  0
  6  1  1  0
  7 11  1  0
  8  7  2  0
  8  9  1  0
  9 10  1  0
 10 12  1  0
 11 10  2  0
 12 13  1  0
 12 16  1  0
 13 14  2  0
 14 15  1  0
 16 15  2  0
 17 21  1  0
 18 19  1  0
 18 17  2  0
 19 20  1  0
 20 22  1  0
 21 20  2  0
 22 23  2  0
 22 30  1  0
 23 24  1  0
 24 25  1  0
 25 26  2  0
 26 27  1  0
 28 27  2  0
 29 28  1  0
 30 29  2  0
 30 25  1  0
  1 31  1  0
  5 32  1  0
 13 33  1  0
 15 34  1  0
 18 35  1  0
 23 36  1  0
 24 37  1  0
 26 38  1  0
 27 39  1  0
 28 40  1  0
 29 41  1  0
M  ISO  8  31  14  32  14  33  14  34  14  35  14  36  14  37   9  38  14
M  ISO  3  39  14  40  14  41  14
M  END
>  <minimizedAffinity>  (1) 
-6.94907904

>  <minimizedRMSD>  (1) 
2.3455596

$$$$
