
     RDKit          3D

 39 43  0  0  0  0  0  0  0  0999 V2000
   40.5960   29.4380   41.9740 C   0  0  0  0  0  0  0  0  0  0  0  0
   41.0350   30.6440   42.5030 C   0  0  0  0  0  0  0  0  0  0  0  0
   41.6670   31.5710   41.6930 C   0  0  0  0  0  0  0  0  0  0  0  0
   41.8380   31.2690   40.3990 N   0  0  0  0  0  0  0  0  0  0  0  0
   41.4200   30.1080   39.8660 C   0  0  0  0  0  0  0  0  0  0  0  0
   40.8120   29.2160   40.6400 N   0  0  0  0  0  0  0  0  0  0  0  0
   41.6540   29.8760   38.4420 C   0  0  0  0  0  0  0  0  0  0  0  0
   40.7450   29.2360   37.6070 C   0  0  0  0  0  0  0  0  0  0  0  0
   41.3170   29.2170   36.3940 N   0  0  0  0  0  0  0  0  0  0  0  0
   42.5430   29.8040   36.3920 C   0  0  0  0  0  0  0  0  0  0  0  0
   43.5070   30.0390   35.4480 C   0  0  0  0  0  0  0  0  0  0  0  0
   44.6970   30.6920   35.7840 C   0  0  0  0  0  0  0  0  0  0  0  0
   44.9090   31.1110   37.0920 C   0  0  0  0  0  0  0  0  0  0  0  0
   43.9190   30.8690   38.0490 C   0  0  0  0  0  0  0  0  0  0  0  0
   42.7580   30.2240   37.6930 C   0  0  0  0  0  0  0  0  0  0  0  0
   38.6110   28.1440   42.6700 C   0  0  0  0  0  0  0  0  0  0  0  0
   38.4360   27.0670   43.5170 C   0  0  0  0  0  0  0  0  0  0  0  0
   39.6130   26.6740   44.0520 N   0  0  0  0  0  0  0  0  0  0  0  0
   40.5260   27.5130   43.5330 C   0  0  0  0  0  0  0  0  0  0  0  0
   39.9350   28.4060   42.6960 N   0  0  0  0  0  0  0  0  0  0  0  0
   35.6370   28.6000   40.5270 C   0  0  0  0  0  0  0  0  0  0  0  0
   36.6650   27.9660   41.2420 C   0  0  0  0  0  0  0  0  0  0  0  0
   37.5700   28.7990   41.9460 C   0  0  0  0  0  0  0  0  0  0  0  0
   37.3800   30.1460   41.8790 N   0  0  0  0  0  0  0  0  0  0  0  0
   36.3650   30.7140   41.1690 C   0  0  0  0  0  0  0  0  0  0  0  0
   35.5020   29.9460   40.5000 N   0  0  0  0  0  0  0  0  0  0  0  0
   40.8800   30.8635   43.5697 H   0  0  0  0  0  0  0  0  0  0  0  0
   42.0195   32.5300   42.1006 H   0  0  0  0  0  0  0  0  0  0  0  0
   39.7610   28.8296   37.8838 H   0  0  0  0  0  0  0  0  0  0  0  0
   40.8772   28.8045   35.5589 H   0  0  0  0  0  0  0  0  0  0  0  0
   43.3429   29.7096   34.4114 H   0  0  0  0  0  0  0  0  0  0  0  0
   45.4628   30.8734   35.0155 H   0  0  0  0  0  0  0  0  0  0  0  0
   45.8410   31.6249   37.3699 H   0  0  0  0  0  0  0  0  0  0  0  0
   44.0691   31.1952   39.0887 H   0  0  0  0  0  0  0  0  0  0  0  0
   37.4666   26.5920   43.7281 H   0  0  0  0  0  0  0  0  0  0  0  0
   41.6029   27.4812   43.7551 H   0  0  0  0  0  0  0  0  0  0  0  0
   34.9172   27.9821   39.9701 H   0  0  0  0  0  0  0  0  0  0  0  0
   36.7639   26.8705   41.2554 H   0  0  0  0  0  0  0  0  0  0  0  0
   36.2565   31.8084   41.1471 H   0  0  0  0  0  0  0  0  0  0  0  0
  1  2  2  0
  1 20  1  0
  3  2  1  0
  4  3  2  0
  5  4  1  0
  5  6  2  0
  6  1  1  0
  7  5  1  0
  8  7  2  0
  9  8  1  0
 10  9  1  0
 10 15  2  0
 11 12  2  0
 11 10  1  0
 12 13  1  0
 13 14  2  0
 15 14  1  0
 15  7  1  0
 16 20  1  0
 16 17  2  0
 17 18  1  0
 19 18  2  0
 20 19  1  0
 21 22  2  0
 22 23  1  0
 23 16  1  0
 24 23  2  0
 25 24  1  0
 26 21  1  0
 26 25  2  0
  2 27  1  0
  3 28  1  0
  8 29  1  0
  9 30  1  0
 11 31  1  0
 12 32  1  0
 13 33  1  0
 14 34  1  0
 17 35  1  0
 19 36  1  0
 21 37  1  0
 22 38  1  0
 25 39  1  0
M  ISO  8  27  14  28  14  29  14  30   9  31  14  32  14  33  14  34  14
M  ISO  5  35  14  36  14  37  14  38  14  39  14
M  END
>  <minimizedAffinity>  (1) 
-5.57971382

>  <minimizedRMSD>  (1) 
0.362584144

$$$$
