
     RDKit          3D

 42 46  0  0  1  0  0  0  0  0999 V2000
   37.9210   27.3730   42.7260 C   0  0  2  0  0  0  0  0  0  0  0  0
   39.0000   27.6880   43.6680 C   0  0  0  0  0  0  0  0  0  0  0  0
   39.7540   26.3850   43.8490 C   0  0  0  0  0  0  0  0  0  0  0  0
   39.2990   25.4800   42.7510 C   0  0  0  0  0  0  0  0  0  0  0  0
   38.5330   26.3700   41.7720 C   0  0  1  0  0  0  0  0  0  0  0  0
   37.9350   29.7720   41.8820 C   0  0  0  0  0  0  0  0  0  0  0  0
   37.3180   28.4990   42.0290 C   0  0  0  0  0  0  0  0  0  0  0  0
   36.0670   28.3000   41.4700 C   0  0  0  0  0  0  0  0  0  0  0  0
   35.4800   29.3510   40.7970 N   0  0  0  0  0  0  0  0  0  0  0  0
   36.0990   30.5700   40.6700 C   0  0  0  0  0  0  0  0  0  0  0  0
   37.3460   30.7700   41.2270 N   0  0  0  0  0  0  0  0  0  0  0  0
   37.5470   25.4100   41.1980 C   0  0  0  0  0  0  0  0  0  0  0  0
   36.9010   24.5010   41.9390 N   0  0  0  0  0  0  0  0  0  0  0  0
   36.1180   23.8240   41.1260 O   0  0  0  0  0  0  0  0  0  0  0  0
   36.2690   24.2940   39.9040 C   0  0  0  0  0  0  0  0  0  0  0  0
   37.1550   25.2880   39.9050 N   0  0  0  0  0  0  0  0  0  0  0  0
   35.5690   23.8050   38.7010 C   0  0  0  0  0  0  0  0  0  0  0  0
   35.9580   23.8770   37.3820 C   0  0  0  0  0  0  0  0  0  0  0  0
   35.0460   23.3160   36.5790 N   0  0  0  0  0  0  0  0  0  0  0  0
   34.0580   22.8780   37.3850 C   0  0  0  0  0  0  0  0  0  0  0  0
   32.8700   22.2250   37.1160 C   0  0  0  0  0  0  0  0  0  0  0  0
   31.9560   21.8400   38.0780 C   0  0  0  0  0  0  0  0  0  0  0  0
   32.2520   22.1310   39.4120 C   0  0  0  0  0  0  0  0  0  0  0  0
   33.4330   22.7800   39.6820 C   0  0  0  0  0  0  0  0  0  0  0  0
   34.3310   23.1540   38.7090 C   0  0  0  0  0  0  0  0  0  0  0  0
   37.0557   26.9844   43.2829 H   0  0  0  0  0  0  0  0  0  0  0  0
   39.6613   28.4632   43.2536 H   0  0  0  0  0  0  0  0  0  0  0  0
   38.6156   28.0794   44.6214 H   0  0  0  0  0  0  0  0  0  0  0  0
   40.8376   26.5588   43.7747 H   0  0  0  0  0  0  0  0  0  0  0  0
   39.5575   25.9439   44.8373 H   0  0  0  0  0  0  0  0  0  0  0  0
   40.1634   25.0170   42.2526 H   0  0  0  0  0  0  0  0  0  0  0  0
   38.6705   24.6621   43.1332 H   0  0  0  0  0  0  0  0  0  0  0  0
   39.0541   26.8899   40.9545 H   0  0  0  0  0  0  0  0  0  0  0  0
   38.9292   29.9369   42.3230 H   0  0  0  0  0  0  0  0  0  0  0  0
   35.5554   27.3304   41.5602 H   0  0  0  0  0  0  0  0  0  0  0  0
   35.6018   31.3861   40.1251 H   0  0  0  0  0  0  0  0  0  0  0  0
   36.8954   24.3355   37.0340 H   0  0  0  0  0  0  0  0  0  0  0  0
   35.0900   23.2353   35.5531 H   0  0  0  0  0  0  0  0  0  0  0  0
   32.6365   21.9965   36.0656 H   0  0  0  0  0  0  0  0  0  0  0  0
   31.0258   21.3214   37.8026 H   0  0  0  0  0  0  0  0  0  0  0  0
   31.5616   21.8495   40.2208 H   0  0  0  0  0  0  0  0  0  0  0  0
   33.6727   23.0124   40.7301 H   0  0  0  0  0  0  0  0  0  0  0  0
  1  2  1  0
  2  3  1  0
  4  3  1  0
  5  1  1  0
  5  4  1  0
  6  7  2  0
  7  1  1  0
  8  7  1  0
  9  8  2  0
 10  9  1  0
 10 11  2  0
 11  6  1  0
 12  5  1  0
 12 13  2  0
 14 13  1  0
 15 16  2  0
 15 14  1  0
 16 12  1  0
 17 25  1  0
 17 15  1  0
 18 17  2  0
 19 18  1  0
 19 20  1  0
 20 25  2  0
 21 20  1  0
 21 22  2  0
 22 23  1  0
 23 24  2  0
 25 24  1  0
  1 26  1  1
  2 27  1  0
  2 28  1  0
  3 29  1  0
  3 30  1  0
  4 31  1  0
  4 32  1  0
  5 33  1  6
  6 34  1  0
  8 35  1  0
 10 36  1  0
 18 37  1  0
 19 38  1  0
 21 39  1  0
 22 40  1  0
 23 41  1  0
 24 42  1  0
M  ISO  8  26  13  27  13  28  13  29  13  30  13  31  13  32  13  33  13
M  ISO  8  34  14  35  14  36  14  37  14  38   9  39  14  40  14  41  14
M  ISO  1  42  14
M  END
>  <minimizedAffinity>  (1) 
-5.59772205

>  <minimizedRMSD>  (1) 
0.703841209

$$$$
