
     RDKit          3D

 31 34  0  0  1  0  0  0  0  0999 V2000
   40.0020   30.2170   41.4410 C   0  0  1  0  0  0  0  0  0  0  0  0
   39.6700   30.8870   42.6880 C   0  0  0  0  0  0  0  0  0  0  0  0
   38.5760   30.1690   42.0420 C   0  0  2  0  0  0  0  0  0  0  0  0
   38.0220   28.8810   42.4160 C   0  0  0  0  0  0  0  0  0  0  0  0
   37.5650   28.6840   43.7300 C   0  0  0  0  0  0  0  0  0  0  0  0
   37.0880   27.4320   43.8300 N   0  0  0  0  0  0  0  0  0  0  0  0
   37.1850   26.7580   42.6840 C   0  0  0  0  0  0  0  0  0  0  0  0
   36.8610   25.4910   42.2560 C   0  0  0  0  0  0  0  0  0  0  0  0
   37.1270   25.1530   40.9550 C   0  0  0  0  0  0  0  0  0  0  0  0
   37.7140   26.0640   40.0770 C   0  0  0  0  0  0  0  0  0  0  0  0
   38.0320   27.3310   40.5190 C   0  0  0  0  0  0  0  0  0  0  0  0
   37.7610   27.6650   41.8280 C   0  0  0  0  0  0  0  0  0  0  0  0
   40.1250   30.9990   40.1540 C   0  0  0  0  0  0  0  0  0  0  0  0
   40.0470   30.2370   38.9750 C   0  0  0  0  0  0  0  0  0  0  0  0
   40.1710   30.9520   37.7690 C   0  0  0  0  0  0  0  0  0  0  0  0
   40.3540   32.3090   37.8230 N   0  0  0  0  0  0  0  0  0  0  0  0
   40.4200   32.9860   38.9970 C   0  0  0  0  0  0  0  0  0  0  0  0
   40.3030   32.3200   40.1680 N   0  0  0  0  0  0  0  0  0  0  0  0
   40.7952   29.5134   41.1483 H   0  0  0  0  0  0  0  0  0  0  0  0
   40.0829   30.5020   43.6321 H   0  0  0  0  0  0  0  0  0  0  0  0
   39.7861   31.9229   43.0395 H   0  0  0  0  0  0  0  0  0  0  0  0
   37.5452   30.4606   41.7923 H   0  0  0  0  0  0  0  0  0  0  0  0
   37.5930   29.4284   44.5394 H   0  0  0  0  0  0  0  0  0  0  0  0
   36.6919   27.0373   44.6950 H   0  0  0  0  0  0  0  0  0  0  0  0
   36.3991   24.7662   42.9425 H   0  0  0  0  0  0  0  0  0  0  0  0
   36.8729   24.1446   40.5964 H   0  0  0  0  0  0  0  0  0  0  0  0
   37.9223   25.7732   39.0368 H   0  0  0  0  0  0  0  0  0  0  0  0
   38.4937   28.0618   39.8388 H   0  0  0  0  0  0  0  0  0  0  0  0
   39.8980   29.1473   38.9940 H   0  0  0  0  0  0  0  0  0  0  0  0
   40.1219   30.4313   36.8013 H   0  0  0  0  0  0  0  0  0  0  0  0
   40.5686   34.0759   38.9962 H   0  0  0  0  0  0  0  0  0  0  0  0
  1  3  1  0
  1  2  1  0
  3  4  1  0
  3  2  1  0
  4  5  2  0
  5  6  1  0
  7  6  1  0
  8  7  2  0
  9  8  1  0
 10 11  1  0
 10  9  2  0
 11 12  2  0
 12  4  1  0
 12  7  1  0
 13 18  1  0
 13  1  1  0
 14 13  2  0
 15 16  2  0
 15 14  1  0
 16 17  1  0
 17 18  2  0
  1 19  1  1
  2 20  1  0
  2 21  1  0
  3 22  1  6
  5 23  1  0
  6 24  1  0
  8 25  1  0
  9 26  1  0
 10 27  1  0
 11 28  1  0
 14 29  1  0
 15 30  1  0
 17 31  1  0
M  ISO  8  19  13  20  13  21  13  22  13  23  14  24   9  25  14  26  14
M  ISO  5  27  14  28  14  29  14  30  14  31  14
M  END
>  <minimizedAffinity>  (1) 
-4.56604147

>  <minimizedRMSD>  (1) 
5.15309381

$$$$
