
     RDKit          3D

 49 53  0  0  1  0  0  0  0  0999 V2000
   36.9820   30.7310   40.1580 C   0  0  1  0  0  0  0  0  0  0  0  0
   37.2190   32.1420   40.4490 C   0  0  0  0  0  0  0  0  0  0  0  0
   37.1510   32.7620   39.0520 C   0  0  0  0  0  0  0  0  0  0  0  0
   37.5210   31.6380   38.1010 C   0  0  0  0  0  0  0  0  0  0  0  0
   37.9510   30.4920   38.9840 C   0  0  2  0  0  0  0  0  0  0  0  0
   38.6580   29.3560   43.1580 C   0  0  0  0  0  0  0  0  0  0  0  0
   37.7700   28.2590   43.5030 C   0  0  0  0  0  0  0  0  0  0  0  0
   36.6270   28.0200   42.6830 C   0  0  0  0  0  0  0  0  0  0  0  0
   36.3810   28.8170   41.5960 N   0  0  0  0  0  0  0  0  0  0  0  0
   37.2520   29.8260   41.3290 C   0  0  0  0  0  0  0  0  0  0  0  0
   38.3660   30.1050   42.0770 N   0  0  0  0  0  0  0  0  0  0  0  0
   37.7820   29.1910   38.3540 C   0  0  0  0  0  0  0  0  0  0  0  0
   36.7720   28.2920   38.0860 C   0  0  0  0  0  0  0  0  0  0  0  0
   37.0180   27.1320   37.4540 C   0  0  0  0  0  0  0  0  0  0  0  0
   38.3190   26.8680   37.0820 C   0  0  0  0  0  0  0  0  0  0  0  0
   39.2520   28.3600   37.6640 S   0  0  0  0  0  0  0  0  0  0  0  0
   35.9720   26.1640   37.1580 C   0  0  0  0  0  0  0  0  0  0  0  0
   35.2140   26.1550   36.0130 C   0  0  0  0  0  0  0  0  0  0  0  0
   34.2360   25.2080   35.7940 C   0  0  0  0  0  0  0  0  0  0  0  0
   33.9930   24.2270   36.7380 C   0  0  0  0  0  0  0  0  0  0  0  0
   34.7360   24.2010   37.9080 C   0  0  0  0  0  0  0  0  0  0  0  0
   34.5140   23.2340   38.8660 C   0  0  0  0  0  0  0  0  0  0  0  0
   35.2470   23.1980   40.0340 C   0  0  0  0  0  0  0  0  0  0  0  0
   36.2230   24.1530   40.2430 C   0  0  0  0  0  0  0  0  0  0  0  0
   36.4300   25.1110   39.2730 C   0  0  0  0  0  0  0  0  0  0  0  0
   35.7080   25.1700   38.0910 C   0  0  0  0  0  0  0  0  0  0  0  0
   38.8940   25.7330   36.3980 C   0  0  0  0  0  0  0  0  0  0  0  0
   40.2240   25.8810   36.0210 F   0  0  0  0  0  0  0  0  0  0  0  0
   38.8020   24.6740   37.2410 F   0  0  0  0  0  0  0  0  0  0  0  0
   38.1230   25.4730   35.2680 F   0  0  0  0  0  0  0  0  0  0  0  0
   35.9313   30.5040   39.9244 H   0  0  0  0  0  0  0  0  0  0  0  0
   36.4396   32.5520   41.1081 H   0  0  0  0  0  0  0  0  0  0  0  0
   38.1634   32.3364   40.9785 H   0  0  0  0  0  0  0  0  0  0  0  0
   36.1352   33.1276   38.8409 H   0  0  0  0  0  0  0  0  0  0  0  0
   37.8253   33.6253   38.9514 H   0  0  0  0  0  0  0  0  0  0  0  0
   38.3460   31.9470   37.4422 H   0  0  0  0  0  0  0  0  0  0  0  0
   36.6796   31.3594   37.4495 H   0  0  0  0  0  0  0  0  0  0  0  0
   39.0183   30.4708   39.2493 H   0  0  0  0  0  0  0  0  0  0  0  0
   39.5492   29.5703   43.7662 H   0  0  0  0  0  0  0  0  0  0  0  0
   37.9747   27.6255   44.3787 H   0  0  0  0  0  0  0  0  0  0  0  0
   35.9418   27.1940   42.9241 H   0  0  0  0  0  0  0  0  0  0  0  0
   35.7435   28.5291   38.3959 H   0  0  0  0  0  0  0  0  0  0  0  0
   35.3922   26.9255   35.2484 H   0  0  0  0  0  0  0  0  0  0  0  0
   33.6471   25.2329   34.8653 H   0  0  0  0  0  0  0  0  0  0  0  0
   33.2138   23.4709   36.5613 H   0  0  0  0  0  0  0  0  0  0  0  0
   33.7360   22.4754   38.6951 H   0  0  0  0  0  0  0  0  0  0  0  0
   35.0571   22.4200   40.7881 H   0  0  0  0  0  0  0  0  0  0  0  0
   36.8231   24.1493   41.1649 H   0  0  0  0  0  0  0  0  0  0  0  0
   37.2089   25.8682   39.4462 H   0  0  0  0  0  0  0  0  0  0  0  0
  1  2  1  0
  1 10  1  0
  3  2  1  0
  4  5  1  0
  4  3  1  0
  5  1  1  0
  6  7  2  0
  8  7  1  0
  9  8  2  0
 10  9  1  0
 10 11  2  0
 11  6  1  0
 12  5  1  0
 13 12  2  0
 14 13  1  0
 15 14  2  0
 15 16  1  0
 16 12  1  0
 17 14  1  0
 17 26  1  0
 18 17  2  0
 19 18  1  0
 19 20  2  0
 20 21  1  0
 21 26  2  0
 21 22  1  0
 22 23  2  0
 23 24  1  0
 25 24  2  0
 26 25  1  0
 27 15  1  0
 27 29  1  0
 28 27  1  0
 30 27  1  0
  1 31  1  6
  2 32  1  0
  2 33  1  0
  3 34  1  0
  3 35  1  0
  4 36  1  0
  4 37  1  0
  5 38  1  1
  6 39  1  0
  7 40  1  0
  8 41  1  0
 13 42  1  0
 18 43  1  0
 19 44  1  0
 20 45  1  0
 22 46  1  0
 23 47  1  0
 24 48  1  0
 25 49  1  0
M  ISO  8  31  13  32  13  33  13  34  13  35  13  36  13  37  13  38  13
M  ISO  8  39  14  40  14  41  14  42  14  43  14  44  14  45  14  46  14
M  ISO  3  47  14  48  14  49  14
M  END
>  <minimizedAffinity>  (1) 
-5.70480633

>  <minimizedRMSD>  (1) 
3.09961915

$$$$
