
     RDKit          3D

 54 59  0  0  1  0  0  0  0  0999 V2000
   37.3350   28.9060   41.1890 C   0  0  0  0  0  0  0  0  0  0  0  0
   37.4590   29.4620   42.4780 C   0  0  0  0  0  0  0  0  0  0  0  0
   37.4100   28.7070   43.6660 C   0  0  0  0  0  0  0  0  0  0  0  0
   37.2380   27.3240   43.5740 C   0  0  0  0  0  0  0  0  0  0  0  0
   37.1200   26.7370   42.3300 C   0  0  0  0  0  0  0  0  0  0  0  0
   36.9940   25.3720   42.1940 C   0  0  0  0  0  0  0  0  0  0  0  0
   36.9080   24.7580   40.9340 C   0  0  0  0  0  0  0  0  0  0  0  0
   36.9480   25.6170   39.8300 C   0  0  0  0  0  0  0  0  0  0  0  0
   37.0750   26.9830   40.0040 C   0  0  0  0  0  0  0  0  0  0  0  0
   37.1700   27.5540   41.2300 C   0  0  0  0  0  0  0  0  0  0  0  0
   41.3870   28.8390   41.3760 C   0  0  0  0  0  0  0  0  0  0  0  0
   42.4470   29.0690   40.4770 C   0  0  0  0  0  0  0  0  0  0  0  0
   42.1620   29.7820   39.3220 C   0  0  0  0  0  0  0  0  0  0  0  0
   40.8680   30.2270   39.1120 N   0  0  0  0  0  0  0  0  0  0  0  0
   39.9050   29.9800   39.9960 C   0  0  0  0  0  0  0  0  0  0  0  0
   40.1720   29.2980   41.1030 N   0  0  0  0  0  0  0  0  0  0  0  0
   38.6340   30.4270   39.7400 N   0  0  0  0  0  0  0  0  0  0  0  0
   38.3210   31.5870   38.8980 C   0  0  0  0  0  0  0  0  0  0  0  0
   37.0510   32.1230   39.4530 C   0  0  0  0  0  0  0  0  0  0  0  0
   36.6010   31.1540   40.5090 C   0  0  0  0  0  0  0  0  0  0  0  0
   37.3230   29.8680   40.1600 C   0  0  2  0  0  0  0  0  0  0  0  0
   36.9510   27.5120   38.6690 C   0  0  0  0  0  0  0  0  0  0  0  0
   38.2490   27.4170   38.0740 C   0  0  0  0  0  0  0  0  0  0  0  0
   38.4470   27.8750   36.7620 C   0  0  0  0  0  0  0  0  0  0  0  0
   37.3970   28.4270   36.0190 C   0  0  0  0  0  0  0  0  0  0  0  0
   36.1610   28.5050   36.6280 C   0  0  0  0  0  0  0  0  0  0  0  0
   35.0850   29.1050   36.0090 C   0  0  0  0  0  0  0  0  0  0  0  0
   33.8560   29.2510   36.6620 C   0  0  0  0  0  0  0  0  0  0  0  0
   33.7230   28.7780   37.9700 C   0  0  0  0  0  0  0  0  0  0  0  0
   34.7900   28.1580   38.6360 C   0  0  0  0  0  0  0  0  0  0  0  0
   35.9450   28.0620   37.9110 C   0  0  0  0  0  0  0  0  0  0  0  0
   37.6025   30.5494   42.5612 H   0  0  0  0  0  0  0  0  0  0  0  0
   37.5053   29.1966   44.6464 H   0  0  0  0  0  0  0  0  0  0  0  0
   37.1969   26.7081   44.4845 H   0  0  0  0  0  0  0  0  0  0  0  0
   36.9598   24.7455   43.0975 H   0  0  0  0  0  0  0  0  0  0  0  0
   36.8148   23.6677   40.8216 H   0  0  0  0  0  0  0  0  0  0  0  0
   36.8777   25.2016   38.8139 H   0  0  0  0  0  0  0  0  0  0  0  0
   41.5666   28.2784   42.3052 H   0  0  0  0  0  0  0  0  0  0  0  0
   43.4616   28.6974   40.6832 H   0  0  0  0  0  0  0  0  0  0  0  0
   42.9513   29.9905   38.5848 H   0  0  0  0  0  0  0  0  0  0  0  0
   38.1879   31.2811   37.8498 H   0  0  0  0  0  0  0  0  0  0  0  0
   39.1269   32.3356   38.9038 H   0  0  0  0  0  0  0  0  0  0  0  0
   37.2195   33.1157   39.8959 H   0  0  0  0  0  0  0  0  0  0  0  0
   36.2901   32.2340   38.6664 H   0  0  0  0  0  0  0  0  0  0  0  0
   36.8903   31.5052   41.5105 H   0  0  0  0  0  0  0  0  0  0  0  0
   35.5080   31.0322   40.5330 H   0  0  0  0  0  0  0  0  0  0  0  0
   36.8490   29.2483   39.3846 H   0  0  0  0  0  0  0  0  0  0  0  0
   39.0873   26.9872   38.6419 H   0  0  0  0  0  0  0  0  0  0  0  0
   39.4465   27.7987   36.3090 H   0  0  0  0  0  0  0  0  0  0  0  0
   37.5509   28.7846   34.9902 H   0  0  0  0  0  0  0  0  0  0  0  0
   35.1950   29.4769   34.9797 H   0  0  0  0  0  0  0  0  0  0  0  0
   33.0071   29.7311   36.1531 H   0  0  0  0  0  0  0  0  0  0  0  0
   32.7600   28.8945   38.4888 H   0  0  0  0  0  0  0  0  0  0  0  0
   34.7041   27.7775   39.6645 H   0  0  0  0  0  0  0  0  0  0  0  0
  1 10  1  0
  1  2  2  0
  2  3  1  0
  4  3  2  0
  5  4  1  0
  6  5  2  0
  7  6  1  0
  8  9  1  0
  8  7  2  0
  9 10  2  0
 10  5  1  0
 12 11  2  0
 13 12  1  0
 14 13  2  0
 14 15  1  0
 15 16  2  0
 16 11  1  0
 17 15  1  0
 17 21  1  0
 18 19  1  0
 18 17  1  0
 19 20  1  0
 21 20  1  0
 21  1  1  0
 22  9  1  0
 23 22  2  0
 24 23  1  0
 25 26  1  0
 25 24  2  0
 26 31  2  0
 27 26  1  0
 27 28  2  0
 28 29  1  0
 29 30  2  0
 31 30  1  0
 31 22  1  0
  2 32  1  0
  3 33  1  0
  4 34  1  0
  6 35  1  0
  7 36  1  0
  8 37  1  0
 11 38  1  0
 12 39  1  0
 13 40  1  0
 18 41  1  0
 18 42  1  0
 19 43  1  0
 19 44  1  0
 20 45  1  0
 20 46  1  0
 21 47  1  6
 23 48  1  0
 24 49  1  0
 25 50  1  0
 27 51  1  0
 28 52  1  0
 29 53  1  0
 30 54  1  0
M  END
>  <minimizedAffinity>  (1) 
-7.47627735

>  <minimizedRMSD>  (1) 
1.33402205

$$$$
