
     RDKit          3D

 56 61  0  0  0  0  0  0  0  0999 V2000
   39.3890   27.6140   42.9880 C   0  0  0  0  0  0  0  0  0  0  0  0
   38.1960   26.9340   43.0430 C   0  0  0  0  0  0  0  0  0  0  0  0
   37.2200   27.8430   42.6140 C   0  0  0  0  0  0  0  0  0  0  0  0
   37.8950   28.9810   42.3380 N   0  0  0  0  0  0  0  0  0  0  0  0
   39.1680   28.8860   42.5450 N   0  0  0  0  0  0  0  0  0  0  0  0
   42.2940   25.3380   43.4010 C   0  0  0  0  0  0  0  0  0  0  0  0
   41.0400   25.7930   42.9890 C   0  0  0  0  0  0  0  0  0  0  0  0
   40.6900   27.0940   43.3470 C   0  0  0  0  0  0  0  0  0  0  0  0
   41.5460   27.8430   44.0550 N   0  0  0  0  0  0  0  0  0  0  0  0
   42.7780   27.3590   44.4450 C   0  0  0  0  0  0  0  0  0  0  0  0
   43.1240   26.1000   44.1040 N   0  0  0  0  0  0  0  0  0  0  0  0
   43.5100   28.3710   45.1990 C   0  0  0  0  0  0  0  0  0  0  0  0
   44.2550   29.3520   44.5970 C   0  0  0  0  0  0  0  0  0  0  0  0
   44.9560   30.3180   45.2450 C   0  0  0  0  0  0  0  0  0  0  0  0
   44.9570   30.3690   46.6200 C   0  0  0  0  0  0  0  0  0  0  0  0
   44.2300   29.4160   47.2980 C   0  0  0  0  0  0  0  0  0  0  0  0
   44.2220   29.4550   48.6760 C   0  0  0  0  0  0  0  0  0  0  0  0
   43.5110   28.5260   49.4070 C   0  0  0  0  0  0  0  0  0  0  0  0
   42.8080   27.5550   48.6850 C   0  0  0  0  0  0  0  0  0  0  0  0
   42.8510   27.5620   47.3230 C   0  0  0  0  0  0  0  0  0  0  0  0
   43.5480   28.4710   46.5690 C   0  0  0  0  0  0  0  0  0  0  0  0
   37.1680   30.1110   41.8730 C   0  0  0  0  0  0  0  0  0  0  0  0
   36.0970   29.8260   40.8710 C   0  0  0  0  0  0  0  0  0  0  0  0
   36.5620   29.7080   39.4640 C   0  0  0  0  0  0  0  0  0  0  0  0
   37.8260   29.9210   38.9940 C   0  0  0  0  0  0  0  0  0  0  0  0
   38.2040   29.8780   37.6830 C   0  0  0  0  0  0  0  0  0  0  0  0
   37.2590   29.6000   36.7180 C   0  0  0  0  0  0  0  0  0  0  0  0
   35.9550   29.3720   37.1380 C   0  0  0  0  0  0  0  0  0  0  0  0
   35.0650   29.1000   36.1250 C   0  0  0  0  0  0  0  0  0  0  0  0
   33.7570   28.8580   36.4390 C   0  0  0  0  0  0  0  0  0  0  0  0
   33.3570   28.8860   37.7540 C   0  0  0  0  0  0  0  0  0  0  0  0
   34.2980   29.1630   38.7120 C   0  0  0  0  0  0  0  0  0  0  0  0
   35.6070   29.4200   38.4760 C   0  0  0  0  0  0  0  0  0  0  0  0
   33.8360   29.1580   40.0190 O   0  0  0  0  0  0  0  0  0  0  0  0
   38.0398   25.8919   43.3585 H   0  0  0  0  0  0  0  0  0  0  0  0
   36.1379   27.6682   42.5217 H   0  0  0  0  0  0  0  0  0  0  0  0
   42.6041   24.3167   43.1351 H   0  0  0  0  0  0  0  0  0  0  0  0
   40.3589   25.1537   42.4081 H   0  0  0  0  0  0  0  0  0  0  0  0
   44.2877   29.3571   43.4975 H   0  0  0  0  0  0  0  0  0  0  0  0
   45.5250   31.0623   44.6686 H   0  0  0  0  0  0  0  0  0  0  0  0
   45.5197   31.1450   47.1596 H   0  0  0  0  0  0  0  0  0  0  0  0
   44.7904   30.2377   49.1998 H   0  0  0  0  0  0  0  0  0  0  0  0
   43.4973   28.5475   50.5067 H   0  0  0  0  0  0  0  0  0  0  0  0
   42.2229   26.7890   49.2149 H   0  0  0  0  0  0  0  0  0  0  0  0
   42.2862   26.7828   46.7903 H   0  0  0  0  0  0  0  0  0  0  0  0
   36.6971   30.5912   42.7434 H   0  0  0  0  0  0  0  0  0  0  0  0
   37.9014   30.7463   41.3548 H   0  0  0  0  0  0  0  0  0  0  0  0
   35.6132   28.8784   41.1502 H   0  0  0  0  0  0  0  0  0  0  0  0
   35.4172   30.6905   40.8964 H   0  0  0  0  0  0  0  0  0  0  0  0
   38.6068   30.1466   39.7353 H   0  0  0  0  0  0  0  0  0  0  0  0
   39.2506   30.0630   37.3996 H   0  0  0  0  0  0  0  0  0  0  0  0
   37.5287   29.5602   35.6523 H   0  0  0  0  0  0  0  0  0  0  0  0
   35.4010   29.0776   35.0778 H   0  0  0  0  0  0  0  0  0  0  0  0
   33.0283   28.6420   35.6438 H   0  0  0  0  0  0  0  0  0  0  0  0
   32.3102   28.6914   38.0302 H   0  0  0  0  0  0  0  0  0  0  0  0
   34.4583   29.3495   40.7647 H   0  0  0  0  0  0  0  0  0  0  0  0
  1  2  1  0
  1  8  1  0
  3  2  2  0
  4  5  1  0
  4  3  1  0
  5  1  2  0
  6 11  2  0
  7  8  2  0
  7  6  1  0
  8  9  1  0
  9 10  2  0
 10 12  1  0
 11 10  1  0
 12 21  1  0
 13 12  2  0
 13 14  1  0
 14 15  2  0
 15 16  1  0
 16 17  1  0
 17 18  2  0
 19 18  1  0
 20 19  2  0
 21 16  2  0
 21 20  1  0
 22  4  1  0
 23 22  1  0
 24 23  1  0
 25 24  2  0
 26 25  1  0
 27 28  1  0
 27 26  2  0
 28 33  2  0
 29 30  2  0
 29 28  1  0
 30 31  1  0
 31 32  2  0
 32 34  1  0
 33 32  1  0
 33 24  1  0
  2 35  1  0
  3 36  1  0
  6 37  1  0
  7 38  1  0
 13 39  1  0
 14 40  1  0
 15 41  1  0
 17 42  1  0
 18 43  1  0
 19 44  1  0
 20 45  1  0
 22 46  1  0
 22 47  1  0
 23 48  1  0
 23 49  1  0
 25 50  1  0
 26 51  1  0
 27 52  1  0
 29 53  1  0
 30 54  1  0
 31 55  1  0
 34 56  1  0
M  END
>  <minimizedAffinity>  (1) 
-8.14836025

>  <minimizedRMSD>  (1) 
2.58452034

$$$$
