
     RDKit          3D

 43 47  0  0  1  0  0  0  0  0999 V2000
   38.3720   28.5600   42.3980 C   0  0  0  0  0  0  0  0  0  0  0  0
   39.0900   27.7520   43.2510 C   0  0  0  0  0  0  0  0  0  0  0  0
   38.9670   26.4030   43.3120 C   0  0  0  0  0  0  0  0  0  0  0  0
   38.0640   25.8040   42.4630 C   0  0  0  0  0  0  0  0  0  0  0  0
   37.3340   26.5780   41.5990 C   0  0  0  0  0  0  0  0  0  0  0  0
   37.5020   27.9860   41.5770 C   0  0  0  0  0  0  0  0  0  0  0  0
   36.5860   28.4440   40.5490 C   0  0  0  0  0  0  0  0  0  0  0  0
   35.2900   28.8770   40.7570 C   0  0  0  0  0  0  0  0  0  0  0  0
   34.5720   29.2660   39.6430 C   0  0  0  0  0  0  0  0  0  0  0  0
   35.1320   29.2230   38.3730 C   0  0  0  0  0  0  0  0  0  0  0  0
   36.4410   28.7850   38.1700 C   0  0  0  0  0  0  0  0  0  0  0  0
   36.8960   28.7820   36.8680 C   0  0  0  0  0  0  0  0  0  0  0  0
   38.1910   28.3500   36.6620 C   0  0  0  0  0  0  0  0  0  0  0  0
   38.9480   27.9520   37.7310 C   0  0  0  0  0  0  0  0  0  0  0  0
   38.4750   27.9620   39.0270 C   0  0  0  0  0  0  0  0  0  0  0  0
   37.1880   28.3850   39.2800 C   0  0  0  0  0  0  0  0  0  0  0  0
   39.3380   30.6800   41.3330 C   0  0  1  0  0  0  0  0  0  0  0  0
   39.7010   30.6630   42.7680 C   0  0  0  0  0  0  0  0  0  0  0  0
   38.4180   30.0270   42.4530 C   0  0  2  0  0  0  0  0  0  0  0  0
   38.7600   31.9310   40.7440 C   0  0  0  0  0  0  0  0  0  0  0  0
   37.7630   31.7700   39.7910 C   0  0  0  0  0  0  0  0  0  0  0  0
   37.1750   32.9070   39.2250 C   0  0  0  0  0  0  0  0  0  0  0  0
   37.6280   34.1350   39.6540 N   0  0  0  0  0  0  0  0  0  0  0  0
   38.5920   34.2410   40.5760 C   0  0  0  0  0  0  0  0  0  0  0  0
   39.1390   33.1320   41.1030 N   0  0  0  0  0  0  0  0  0  0  0  0
   39.8114   28.2329   43.9280 H   0  0  0  0  0  0  0  0  0  0  0  0
   39.5679   25.8080   44.0155 H   0  0  0  0  0  0  0  0  0  0  0  0
   37.9293   24.7124   42.4779 H   0  0  0  0  0  0  0  0  0  0  0  0
   36.6125   26.1036   40.9176 H   0  0  0  0  0  0  0  0  0  0  0  0
   34.8501   28.9103   41.7646 H   0  0  0  0  0  0  0  0  0  0  0  0
   33.5365   29.6167   39.7642 H   0  0  0  0  0  0  0  0  0  0  0  0
   34.5307   29.5411   37.5086 H   0  0  0  0  0  0  0  0  0  0  0  0
   36.2577   29.1082   36.0337 H   0  0  0  0  0  0  0  0  0  0  0  0
   38.6117   28.3258   35.6459 H   0  0  0  0  0  0  0  0  0  0  0  0
   39.9774   27.6096   37.5488 H   0  0  0  0  0  0  0  0  0  0  0  0
   39.1218   27.6340   39.8541 H   0  0  0  0  0  0  0  0  0  0  0  0
   39.8565   30.3826   40.4096 H   0  0  0  0  0  0  0  0  0  0  0  0
   40.5416   30.0358   43.0995 H   0  0  0  0  0  0  0  0  0  0  0  0
   39.9858   31.4569   43.4742 H   0  0  0  0  0  0  0  0  0  0  0  0
   37.3918   30.1383   42.8333 H   0  0  0  0  0  0  0  0  0  0  0  0
   37.4401   30.7638   39.4854 H   0  0  0  0  0  0  0  0  0  0  0  0
   36.3821   32.8232   38.4672 H   0  0  0  0  0  0  0  0  0  0  0  0
   38.9361   35.2336   40.9020 H   0  0  0  0  0  0  0  0  0  0  0  0
  1 19  1  0
  1  2  2  0
  2  3  1  0
  4  3  2  0
  5  4  1  0
  6  5  2  0
  6  1  1  0
  7  8  2  0
  7  6  1  0
  9  8  1  0
 10  9  2  0
 11 10  1  0
 11 16  2  0
 12 11  1  0
 13 12  2  0
 13 14  1  0
 14 15  2  0
 15 16  1  0
 16  7  1  0
 17 19  1  0
 17 18  1  0
 19 18  1  0
 20 25  1  0
 20 17  1  0
 21 20  2  0
 22 23  2  0
 22 21  1  0
 23 24  1  0
 24 25  2  0
  2 26  1  0
  3 27  1  0
  4 28  1  0
  5 29  1  0
  8 30  1  0
  9 31  1  0
 10 32  1  0
 12 33  1  0
 13 34  1  0
 14 35  1  0
 15 36  1  0
 17 37  1  6
 18 38  1  0
 18 39  1  0
 19 40  1  1
 21 41  1  0
 22 42  1  0
 24 43  1  0
M  ISO  8  26  14  27  14  28  14  29  14  30  14  31  14  32  14  33  14
M  ISO  8  34  14  35  14  36  14  37  13  38  13  39  13  40  13  41  14
M  ISO  2  42  14  43  14
M  END
>  <minimizedAffinity>  (1) 
-6.4566083

>  <minimizedRMSD>  (1) 
1.69966066

$$$$
