
     RDKit          3D

 41 45  0  0  1  0  0  0  0  0999 V2000
   36.1820   30.7610   41.1040 C   0  0  0  0  0  0  0  0  0  0  0  0
   36.7780   29.6290   41.6880 C   0  0  0  0  0  0  0  0  0  0  0  0
   38.1650   29.5190   41.6560 C   0  0  0  0  0  0  0  0  0  0  0  0
   38.8540   30.5180   41.0580 N   0  0  0  0  0  0  0  0  0  0  0  0
   38.2690   31.6040   40.4980 C   0  0  0  0  0  0  0  0  0  0  0  0
   36.9230   31.7270   40.5210 N   0  0  0  0  0  0  0  0  0  0  0  0
   38.7890   28.3500   42.2450 C   0  0  0  0  0  0  0  0  0  0  0  0
   39.9170   28.2870   43.0290 C   0  0  0  0  0  0  0  0  0  0  0  0
   40.1610   27.0010   43.3630 N   0  0  0  0  0  0  0  0  0  0  0  0
   39.2230   26.2010   42.8210 C   0  0  0  0  0  0  0  0  0  0  0  0
   38.9920   24.8330   42.8400 C   0  0  0  0  0  0  0  0  0  0  0  0
   37.9200   24.2580   42.1760 C   0  0  0  0  0  0  0  0  0  0  0  0
   37.0920   25.1160   41.4950 C   0  0  0  0  0  0  0  0  0  0  0  0
   37.2970   26.4670   41.4610 C   0  0  0  0  0  0  0  0  0  0  0  0
   38.3640   27.0350   42.1230 C   0  0  0  0  0  0  0  0  0  0  0  0
   39.0920   32.6750   39.8590 C   0  0  1  0  0  0  0  0  0  0  0  0
   39.1960   34.0130   40.5780 C   0  0  0  0  0  0  0  0  0  0  0  0
   40.3610   33.0810   40.5270 C   0  0  2  0  0  0  0  0  0  0  0  0
   41.5580   33.4200   39.7210 C   0  0  0  0  0  0  0  0  0  0  0  0
   41.4330   33.8750   38.4230 C   0  0  0  0  0  0  0  0  0  0  0  0
   42.5320   34.2070   37.6250 C   0  0  0  0  0  0  0  0  0  0  0  0
   43.7960   34.0740   38.1600 C   0  0  0  0  0  0  0  0  0  0  0  0
   43.9560   33.6160   39.4690 C   0  0  0  0  0  0  0  0  0  0  0  0
   42.8500   33.2940   40.2390 C   0  0  0  0  0  0  0  0  0  0  0  0
   35.0868   30.8616   41.1227 H   0  0  0  0  0  0  0  0  0  0  0  0
   36.1623   28.8487   42.1591 H   0  0  0  0  0  0  0  0  0  0  0  0
   40.5261   29.1498   43.3364 H   0  0  0  0  0  0  0  0  0  0  0  0
   40.9475   26.6801   43.9456 H   0  0  0  0  0  0  0  0  0  0  0  0
   39.6816   24.1842   43.3999 H   0  0  0  0  0  0  0  0  0  0  0  0
   37.7420   23.1726   42.1936 H   0  0  0  0  0  0  0  0  0  0  0  0
   36.2290   24.6993   40.9551 H   0  0  0  0  0  0  0  0  0  0  0  0
   36.6023   27.1083   40.8987 H   0  0  0  0  0  0  0  0  0  0  0  0
   38.8147   32.3485   38.8458 H   0  0  0  0  0  0  0  0  0  0  0  0
   39.2127   34.9497   40.0015 H   0  0  0  0  0  0  0  0  0  0  0  0
   38.6325   34.5179   41.3765 H   0  0  0  0  0  0  0  0  0  0  0  0
   41.0130   32.6217   41.2846 H   0  0  0  0  0  0  0  0  0  0  0  0
   40.4239   33.9809   37.9981 H   0  0  0  0  0  0  0  0  0  0  0  0
   42.3917   34.5658   36.5947 H   0  0  0  0  0  0  0  0  0  0  0  0
   44.6786   34.3289   37.5550 H   0  0  0  0  0  0  0  0  0  0  0  0
   44.9660   33.5101   39.8916 H   0  0  0  0  0  0  0  0  0  0  0  0
   42.9903   32.9352   41.2693 H   0  0  0  0  0  0  0  0  0  0  0  0
  1  2  2  0
  3  2  1  0
  3  7  1  0
  4  3  2  0
  5  6  2  0
  5  4  1  0
  6  1  1  0
  7  8  2  0
  8  9  1  0
 10 11  2  0
 10  9  1  0
 12 11  1  0
 13 12  2  0
 14 13  1  0
 14 15  2  0
 15  7  1  0
 15 10  1  0
 16  5  1  0
 16 18  1  0
 16 17  1  0
 18 17  1  0
 19 24  1  0
 19 18  1  0
 20 19  2  0
 21 22  2  0
 21 20  1  0
 22 23  1  0
 23 24  2  0
  1 25  1  0
  2 26  1  0
  8 27  1  0
  9 28  1  0
 11 29  1  0
 12 30  1  0
 13 31  1  0
 14 32  1  0
 16 33  1  6
 17 34  1  0
 17 35  1  0
 18 36  1  1
 20 37  1  0
 21 38  1  0
 22 39  1  0
 23 40  1  0
 24 41  1  0
M  ISO  8  25  14  26  14  27  14  28   9  29  14  30  14  31  14  32  14
M  ISO  8  33  13  34  13  35  13  36  13  37  14  38  14  39  14  40  14
M  ISO  1  41  14
M  END
>  <minimizedAffinity>  (1) 
-6.13870525

>  <minimizedRMSD>  (1) 
0.650056839

$$$$
