
     RDKit          3D

 46 49  0  0  1  0  0  0  0  0999 V2000
   37.6160   27.9970   43.3290 C   0  0  0  0  0  0  0  0  0  0  0  0
   36.9130   27.9670   44.3930 O   0  0  0  0  0  0  0  0  0  0  0  0
   38.0860   26.7450   42.8340 N   0  0  0  0  0  0  0  0  0  0  0  0
   39.4370   26.3630   43.1300 C   0  0  0  0  0  0  0  0  0  0  0  0
   39.7190   24.9030   43.1760 C   0  0  0  0  0  0  0  0  0  0  0  0
   38.9670   24.0820   42.2890 N   0  0  0  0  0  0  0  0  0  0  0  0
   37.6000   24.3830   42.3220 C   0  0  0  0  0  0  0  0  0  0  0  0
   37.2870   25.8480   42.1030 C   0  0  2  0  0  0  0  0  0  0  0  0
   37.0220   26.1060   40.7130 C   0  0  0  0  0  0  0  0  0  0  0  0
   36.4290   27.3260   40.3030 C   0  0  0  0  0  0  0  0  0  0  0  0
   36.1230   27.6850   39.0210 C   0  0  0  0  0  0  0  0  0  0  0  0
   36.4460   26.7360   38.0410 C   0  0  0  0  0  0  0  0  0  0  0  0
   37.0330   25.5060   38.3740 C   0  0  0  0  0  0  0  0  0  0  0  0
   37.2880   25.2440   39.7080 C   0  0  0  0  0  0  0  0  0  0  0  0
   37.5890   23.8500   39.5330 C   0  0  0  0  0  0  0  0  0  0  0  0
   36.9290   22.7110   39.8560 C   0  0  0  0  0  0  0  0  0  0  0  0
   37.4170   21.4400   39.6960 C   0  0  0  0  0  0  0  0  0  0  0  0
   38.6620   21.2090   39.1760 C   0  0  0  0  0  0  0  0  0  0  0  0
   39.4110   22.3070   38.8200 C   0  0  0  0  0  0  0  0  0  0  0  0
   38.8610   23.5410   39.0080 C   0  0  0  0  0  0  0  0  0  0  0  0
   39.5530   30.8410   42.0350 C   0  0  0  0  0  0  0  0  0  0  0  0
   39.2330   29.6830   42.7180 C   0  0  0  0  0  0  0  0  0  0  0  0
   37.9550   29.2100   42.6120 C   0  0  0  0  0  0  0  0  0  0  0  0
   37.0860   29.8960   41.8550 N   0  0  0  0  0  0  0  0  0  0  0  0
   37.4100   31.0160   41.2000 C   0  0  0  0  0  0  0  0  0  0  0  0
   38.6450   31.4960   41.2840 N   0  0  0  0  0  0  0  0  0  0  0  0
   40.0857   26.8046   42.3591 H   0  0  0  0  0  0  0  0  0  0  0  0
   39.6260   26.7283   44.1502 H   0  0  0  0  0  0  0  0  0  0  0  0
   40.7841   24.7609   42.9407 H   0  0  0  0  0  0  0  0  0  0  0  0
   39.4273   24.5822   44.1869 H   0  0  0  0  0  0  0  0  0  0  0  0
   39.0964   23.0965   42.5589 H   0  0  0  0  0  0  0  0  0  0  0  0
   37.0984   23.8007   41.5351 H   0  0  0  0  0  0  0  0  0  0  0  0
   37.2421   24.1282   43.3305 H   0  0  0  0  0  0  0  0  0  0  0  0
   36.3317   26.0912   42.5912 H   0  0  0  0  0  0  0  0  0  0  0  0
   36.1923   28.0539   41.0930 H   0  0  0  0  0  0  0  0  0  0  0  0
   35.6563   28.6502   38.7751 H   0  0  0  0  0  0  0  0  0  0  0  0
   36.2341   26.9612   36.9854 H   0  0  0  0  0  0  0  0  0  0  0  0
   37.2835   24.7702   37.5956 H   0  0  0  0  0  0  0  0  0  0  0  0
   35.9198   22.8150   40.2811 H   0  0  0  0  0  0  0  0  0  0  0  0
   36.7926   20.5844   39.9929 H   0  0  0  0  0  0  0  0  0  0  0  0
   39.0481   20.1870   39.0479 H   0  0  0  0  0  0  0  0  0  0  0  0
   40.4203   22.1934   38.3976 H   0  0  0  0  0  0  0  0  0  0  0  0
   39.4847   24.3984   38.7148 H   0  0  0  0  0  0  0  0  0  0  0  0
   40.5760   31.2390   42.1060 H   0  0  0  0  0  0  0  0  0  0  0  0
   39.9833   29.1584   43.3278 H   0  0  0  0  0  0  0  0  0  0  0  0
   36.6554   31.5381   40.5934 H   0  0  0  0  0  0  0  0  0  0  0  0
  1  2  2  0
  3  4  1  0
  3  1  1  0
  4  5  1  0
  6  7  1  0
  6  5  1  0
  8  7  1  0
  8  3  1  0
  9  8  1  0
 10  9  2  0
 11 10  1  0
 12 13  1  0
 12 11  2  0
 13 14  2  0
 14  9  1  0
 15 14  1  0
 15 16  2  0
 17 16  1  0
 18 17  2  0
 19 20  2  0
 19 18  1  0
 20 15  1  0
 21 22  2  0
 23 22  1  0
 23  1  1  0
 24 23  2  0
 25 26  2  0
 25 24  1  0
 26 21  1  0
  4 27  1  0
  4 28  1  0
  5 29  1  0
  5 30  1  0
  6 31  1  0
  7 32  1  0
  7 33  1  0
  8 34  1  1
 10 35  1  0
 11 36  1  0
 12 37  1  0
 13 38  1  0
 16 39  1  0
 17 40  1  0
 18 41  1  0
 19 42  1  0
 20 43  1  0
 21 44  1  0
 22 45  1  0
 25 46  1  0
M  ISO  8  27  13  28  13  29  13  30  13  31   5  32  13  33  13  34  13
M  ISO  8  35  14  36  14  37  14  38  14  39  14  40  14  41  14  42  14
M  ISO  4  43  14  44  14  45  14  46  14
M  END
>  <minimizedAffinity>  (1) 
-6.1539402

>  <minimizedRMSD>  (1) 
3.29304385

$$$$
