
     RDKit          3D

 45 49  0  0  0  0  0  0  0  0999 V2000
   40.3650   32.7980   40.8110 C   0  0  0  0  0  0  0  0  0  0  0  0
   41.4310   32.2040   41.5190 C   0  0  0  0  0  0  0  0  0  0  0  0
   41.3150   31.0220   42.2340 C   0  0  0  0  0  0  0  0  0  0  0  0
   40.0840   30.3830   42.2600 C   0  0  0  0  0  0  0  0  0  0  0  0
   39.0300   30.9210   41.5920 C   0  0  0  0  0  0  0  0  0  0  0  0
   37.8480   30.2580   41.6400 C   0  0  0  0  0  0  0  0  0  0  0  0
   36.7090   30.7560   40.9580 C   0  0  0  0  0  0  0  0  0  0  0  0
   36.9070   31.9560   40.2550 C   0  0  0  0  0  0  0  0  0  0  0  0
   38.1260   32.5670   40.2520 C   0  0  0  0  0  0  0  0  0  0  0  0
   39.2300   32.0780   40.9170 C   0  0  0  0  0  0  0  0  0  0  0  0
   40.6770   34.0170   40.1490 C   0  0  0  0  0  0  0  0  0  0  0  0
   40.2770   35.3430   40.4430 C   0  0  0  0  0  0  0  0  0  0  0  0
   40.6970   36.4290   39.6900 C   0  0  0  0  0  0  0  0  0  0  0  0
   41.5180   36.1540   38.6480 N   0  0  0  0  0  0  0  0  0  0  0  0
   41.9100   34.9180   38.3490 C   0  0  0  0  0  0  0  0  0  0  0  0
   41.4930   33.8860   39.0880 N   0  0  0  0  0  0  0  0  0  0  0  0
   37.5010   29.0320   42.3250 C   0  0  0  0  0  0  0  0  0  0  0  0
   37.1810   28.8470   43.6540 C   0  0  0  0  0  0  0  0  0  0  0  0
   36.8300   27.6520   44.2240 C   0  0  0  0  0  0  0  0  0  0  0  0
   36.7770   26.5150   43.4540 C   0  0  0  0  0  0  0  0  0  0  0  0
   37.0950   26.7080   42.1410 C   0  0  0  0  0  0  0  0  0  0  0  0
   37.4390   27.8980   41.6010 N   0  0  0  0  0  0  0  0  0  0  0  0
   37.0780   25.5800   41.2100 C   0  0  0  0  0  0  0  0  0  0  0  0
   37.5370   24.3330   41.6110 C   0  0  0  0  0  0  0  0  0  0  0  0
   37.5670   23.2020   40.8220 C   0  0  0  0  0  0  0  0  0  0  0  0
   37.1060   23.3090   39.5280 C   0  0  0  0  0  0  0  0  0  0  0  0
   36.6400   24.5240   39.0800 C   0  0  0  0  0  0  0  0  0  0  0  0
   36.6310   25.6210   39.9080 C   0  0  0  0  0  0  0  0  0  0  0  0
   42.4091   32.7070   41.5028 H   0  0  0  0  0  0  0  0  0  0  0  0
   42.1792   30.6005   42.7684 H   0  0  0  0  0  0  0  0  0  0  0  0
   39.9615   29.4439   42.8195 H   0  0  0  0  0  0  0  0  0  0  0  0
   35.7383   30.2389   40.9780 H   0  0  0  0  0  0  0  0  0  0  0  0
   36.0704   32.4072   39.7014 H   0  0  0  0  0  0  0  0  0  0  0  0
   38.2347   33.5041   39.6863 H   0  0  0  0  0  0  0  0  0  0  0  0
   39.6092   35.5179   41.2994 H   0  0  0  0  0  0  0  0  0  0  0  0
   40.3813   37.4561   39.9255 H   0  0  0  0  0  0  0  0  0  0  0  0
   42.5782   34.7457   37.4923 H   0  0  0  0  0  0  0  0  0  0  0  0
   37.2100   29.7304   44.3088 H   0  0  0  0  0  0  0  0  0  0  0  0
   36.5909   27.6025   45.2966 H   0  0  0  0  0  0  0  0  0  0  0  0
   36.5013   25.5314   43.8620 H   0  0  0  0  0  0  0  0  0  0  0  0
   37.9072   24.2390   42.6426 H   0  0  0  0  0  0  0  0  0  0  0  0
   37.9464   22.2463   41.2129 H   0  0  0  0  0  0  0  0  0  0  0  0
   37.1104   22.4341   38.8612 H   0  0  0  0  0  0  0  0  0  0  0  0
   36.2708   24.6182   38.0481 H   0  0  0  0  0  0  0  0  0  0  0  0
   36.2497   26.5743   39.5131 H   0  0  0  0  0  0  0  0  0  0  0  0
  1 10  1  0
  1  2  2  0
  2  3  1  0
  3  4  2  0
  5  6  2  0
  5  4  1  0
  6 17  1  0
  7  6  1  0
  8  7  2  0
  9  8  1  0
  9 10  2  0
 10  5  1  0
 11 12  2  0
 11  1  1  0
 13 12  1  0
 14 13  2  0
 15 14  1  0
 15 16  2  0
 16 11  1  0
 17 18  2  0
 18 19  1  0
 20 19  2  0
 21 20  1  0
 22 21  2  0
 22 17  1  0
 23 24  2  0
 23 21  1  0
 25 24  1  0
 26 25  2  0
 27 26  1  0
 27 28  2  0
 28 23  1  0
  2 29  1  0
  3 30  1  0
  4 31  1  0
  7 32  1  0
  8 33  1  0
  9 34  1  0
 12 35  1  0
 13 36  1  0
 15 37  1  0
 18 38  1  0
 19 39  1  0
 20 40  1  0
 24 41  1  0
 25 42  1  0
 26 43  1  0
 27 44  1  0
 28 45  1  0
M  END
>  <minimizedAffinity>  (1) 
-7.03684092

>  <minimizedRMSD>  (1) 
2.57571459

$$$$
