
     RDKit          3D

 21 22  0  0  0  0  0  0  0  0999 V2000
   40.0540   26.5730   43.9250 C   0  0  0  0  0  0  0  0  0  0  0  0
   39.8950   25.2230   43.5350 C   0  0  0  0  0  0  0  0  0  0  0  0
   38.9330   24.9090   42.5890 C   0  0  0  0  0  0  0  0  0  0  0  0
   38.1840   25.9190   42.0810 N   0  0  0  0  0  0  0  0  0  0  0  0
   38.3410   27.1960   42.4560 C   0  0  0  0  0  0  0  0  0  0  0  0
   39.2620   27.5180   43.3640 N   0  0  0  0  0  0  0  0  0  0  0  0
   37.5150   28.2390   41.8820 C   0  0  0  0  0  0  0  0  0  0  0  0
   37.9150   29.5390   41.9280 C   0  0  0  0  0  0  0  0  0  0  0  0
   37.1500   30.5300   41.3920 C   0  0  0  0  0  0  0  0  0  0  0  0
   35.9470   30.2330   40.7900 C   0  0  0  0  0  0  0  0  0  0  0  0
   35.5180   28.9330   40.7270 C   0  0  0  0  0  0  0  0  0  0  0  0
   36.3170   27.9580   41.2790 C   0  0  0  0  0  0  0  0  0  0  0  0
   38.8060   23.5870   42.2330 O   0  0  0  0  0  0  0  0  0  0  0  0
   40.8103   26.8518   44.6735 H   0  0  0  0  0  0  0  0  0  0  0  0
   40.5245   24.4357   43.9753 H   0  0  0  0  0  0  0  0  0  0  0  0
   38.8724   29.7936   42.4062 H   0  0  0  0  0  0  0  0  0  0  0  0
   37.4946   31.5735   41.4400 H   0  0  0  0  0  0  0  0  0  0  0  0
   35.3320   31.0377   40.3608 H   0  0  0  0  0  0  0  0  0  0  0  0
   34.5615   28.6760   40.2485 H   0  0  0  0  0  0  0  0  0  0  0  0
   35.9807   26.9116   41.2344 H   0  0  0  0  0  0  0  0  0  0  0  0
   38.1311   23.3181   41.5605 H   0  0  0  0  0  0  0  0  0  0  0  0
  2  1  2  0
  3  2  1  0
  4  5  1  0
  4  3  2  0
  5  6  2  0
  6  1  1  0
  7  8  2  0
  7  5  1  0
  9  8  1  0
 10  9  2  0
 11 10  1  0
 11 12  2  0
 12  7  1  0
 13  3  1  0
  1 14  1  0
  2 15  1  0
  8 16  1  0
  9 17  1  0
 10 18  1  0
 11 19  1  0
 12 20  1  0
 13 21  1  0
M  ISO  8  14  14  15  14  16  14  17  14  18  14  19  14  20  14  21   3
M  END
>  <minimizedAffinity>  (1) 
-4.4111948

>  <minimizedRMSD>  (1) 
3.03936672

$$$$
