
     RDKit          3D

 45 48  0  0  1  0  0  0  0  0999 V2000
   33.2740   26.9650   36.9280 N   0  0  0  0  0  0  0  0  0  0  0  0
   33.2750   28.4020   37.0190 C   0  0  0  0  0  0  0  0  0  0  0  0
   34.4160   29.0450   36.2840 C   0  0  0  0  0  0  0  0  0  0  0  0
   35.6150   28.1470   36.2140 C   0  0  2  0  0  0  0  0  0  0  0  0
   35.6700   27.1910   37.3910 C   0  0  0  0  0  0  0  0  0  0  0  0
   34.4530   26.3620   37.5350 C   0  0  2  0  0  0  0  0  0  0  0  0
   34.5640   24.9480   37.1850 C   0  0  0  0  0  0  0  0  0  0  0  0
   34.1840   24.2320   36.0720 C   0  0  0  0  0  0  0  0  0  0  0  0
   34.3730   22.8810   35.9050 C   0  0  0  0  0  0  0  0  0  0  0  0
   34.9820   22.1730   36.9080 C   0  0  0  0  0  0  0  0  0  0  0  0
   35.3840   22.8400   38.0480 C   0  0  0  0  0  0  0  0  0  0  0  0
   35.1870   24.2180   38.2060 C   0  0  0  0  0  0  0  0  0  0  0  0
   37.1110   29.1720   36.3410 S   0  0  0  0  0  0  0  0  0  0  0  0
   37.1870   30.0780   40.2710 C   0  0  0  0  0  0  0  0  0  0  0  0
   37.1980   31.4420   40.3140 C   0  0  0  0  0  0  0  0  0  0  0  0
   37.1810   32.1370   39.1140 C   0  0  0  0  0  0  0  0  0  0  0  0
   37.1550   31.4080   37.9290 C   0  0  0  0  0  0  0  0  0  0  0  0
   37.1450   30.0300   37.9000 C   0  0  0  0  0  0  0  0  0  0  0  0
   37.1620   29.4060   39.0850 N   0  0  0  0  0  0  0  0  0  0  0  0
   38.1260   29.0000   43.6360 C   0  0  0  0  0  0  0  0  0  0  0  0
   37.2880   27.8830   43.8680 C   0  0  0  0  0  0  0  0  0  0  0  0
   36.3940   27.5080   42.8460 C   0  0  0  0  0  0  0  0  0  0  0  0
   36.4010   28.2460   41.7110 N   0  0  0  0  0  0  0  0  0  0  0  0
   37.2040   29.2990   41.5140 C   0  0  0  0  0  0  0  0  0  0  0  0
   38.0460   29.6500   42.4800 N   0  0  0  0  0  0  0  0  0  0  0  0
   32.4362   26.6051   37.4071 H   0  0  0  0  0  0  0  0  0  0  0  0
   32.3317   28.7788   36.5969 H   0  0  0  0  0  0  0  0  0  0  0  0
   33.3869   28.6601   38.0824 H   0  0  0  0  0  0  0  0  0  0  0  0
   34.0903   29.2833   35.2607 H   0  0  0  0  0  0  0  0  0  0  0  0
   34.7038   29.9547   36.8313 H   0  0  0  0  0  0  0  0  0  0  0  0
   35.5520   27.5841   35.2710 H   0  0  0  0  0  0  0  0  0  0  0  0
   36.5330   26.5223   37.2564 H   0  0  0  0  0  0  0  0  0  0  0  0
   35.7545   27.8028   38.3013 H   0  0  0  0  0  0  0  0  0  0  0  0
   34.3237   26.3528   38.6273 H   0  0  0  0  0  0  0  0  0  0  0  0
   33.6927   24.7821   35.2559 H   0  0  0  0  0  0  0  0  0  0  0  0
   34.0420   22.3779   34.9845 H   0  0  0  0  0  0  0  0  0  0  0  0
   35.1479   21.0903   36.8064 H   0  0  0  0  0  0  0  0  0  0  0  0
   35.8725   22.2737   38.8546 H   0  0  0  0  0  0  0  0  0  0  0  0
   35.5190   24.7233   39.1250 H   0  0  0  0  0  0  0  0  0  0  0  0
   37.2198   31.9762   41.2753 H   0  0  0  0  0  0  0  0  0  0  0  0
   37.1879   33.2369   39.0993 H   0  0  0  0  0  0  0  0  0  0  0  0
   37.1419   31.9548   36.9746 H   0  0  0  0  0  0  0  0  0  0  0  0
   38.8385   29.3276   44.4074 H   0  0  0  0  0  0  0  0  0  0  0  0
   37.3334   27.3260   44.8155 H   0  0  0  0  0  0  0  0  0  0  0  0
   35.7169   26.6494   42.9654 H   0  0  0  0  0  0  0  0  0  0  0  0
  1  2  1  0
  1  6  1  0
  3  2  1  0
  4  3  1  0
  4 13  1  0
  4  5  1  0
  5  6  1  0
  7  6  1  0
  7 12  1  0
  8  7  2  0
  9  8  1  0
  9 10  2  0
 10 11  1  0
 11 12  2  0
 13 18  1  0
 14 15  2  0
 14 24  1  0
 16 15  1  0
 17 16  2  0
 18 17  1  0
 18 19  2  0
 19 14  1  0
 20 21  2  0
 22 21  1  0
 23 22  2  0
 24 23  1  0
 24 25  2  0
 25 20  1  0
  1 26  1  0
  2 27  1  0
  2 28  1  0
  3 29  1  0
  3 30  1  0
  4 31  1  6
  5 32  1  0
  5 33  1  0
  6 34  1  1
  8 35  1  0
  9 36  1  0
 10 37  1  0
 11 38  1  0
 12 39  1  0
 15 40  1  0
 16 41  1  0
 17 42  1  0
 20 43  1  0
 21 44  1  0
 22 45  1  0
M  ISO  8  26   5  27  13  28  13  29  13  30  13  31  13  32  13  33  13
M  ISO  8  34  13  35  14  36  14  37  14  38  14  39  14  40  14  41  14
M  ISO  4  42  14  43  14  44  14  45  14
M  END
>  <minimizedAffinity>  (1) 
-4.92107105

>  <minimizedRMSD>  (1) 
0.811388493

$$$$
