
     RDKit          3D

 42 46  0  0  1  0  0  0  0  0999 V2000
   39.7790   26.2230   43.7850 C   0  0  2  0  0  0  0  0  0  0  0  0
   40.8660   25.7520   42.8060 C   0  0  0  0  0  0  0  0  0  0  0  0
   39.6190   24.9610   42.9890 C   0  0  2  0  0  0  0  0  0  0  0  0
   38.5860   24.9000   41.9180 C   0  0  0  0  0  0  0  0  0  0  0  0
   37.5110   24.0410   42.0740 C   0  0  0  0  0  0  0  0  0  0  0  0
   36.6380   24.0590   41.0110 C   0  0  0  0  0  0  0  0  0  0  0  0
   36.7290   24.7930   39.8980 N   0  0  0  0  0  0  0  0  0  0  0  0
   37.8050   25.6170   39.7990 C   0  0  0  0  0  0  0  0  0  0  0  0
   38.7020   25.6540   40.8000 N   0  0  0  0  0  0  0  0  0  0  0  0
   38.0520   26.4820   38.6520 C   0  0  0  0  0  0  0  0  0  0  0  0
   38.1550   25.8650   37.4270 C   0  0  0  0  0  0  0  0  0  0  0  0
   38.3860   26.5400   36.2460 C   0  0  0  0  0  0  0  0  0  0  0  0
   38.5240   27.9300   36.2990 C   0  0  0  0  0  0  0  0  0  0  0  0
   38.4200   28.5510   37.5380 C   0  0  0  0  0  0  0  0  0  0  0  0
   38.1860   27.8460   38.7170 C   0  0  0  0  0  0  0  0  0  0  0  0
   38.4640   29.3100   42.5230 C   0  0  0  0  0  0  0  0  0  0  0  0
   37.4270   28.9170   43.3710 C   0  0  0  0  0  0  0  0  0  0  0  0
   37.8300   27.7140   43.9230 C   0  0  0  0  0  0  0  0  0  0  0  0
   39.0450   27.4220   43.4190 N   0  0  0  0  0  0  0  0  0  0  0  0
   39.4310   28.3730   42.5810 N   0  0  0  0  0  0  0  0  0  0  0  0
   37.1430   31.9500   40.3570 C   0  0  0  0  0  0  0  0  0  0  0  0
   38.1980   32.8870   40.3140 C   0  0  0  0  0  0  0  0  0  0  0  0
   39.3660   32.5940   41.0420 C   0  0  0  0  0  0  0  0  0  0  0  0
   39.4270   31.4310   41.7470 N   0  0  0  0  0  0  0  0  0  0  0  0
   38.3830   30.5540   41.7610 C   0  0  0  0  0  0  0  0  0  0  0  0
   37.2320   30.8180   41.0590 N   0  0  0  0  0  0  0  0  0  0  0  0
   39.7070   26.4659   44.8554 H   0  0  0  0  0  0  0  0  0  0  0  0
   41.8235   25.3683   43.1880 H   0  0  0  0  0  0  0  0  0  0  0  0
   41.3895   26.1972   41.9471 H   0  0  0  0  0  0  0  0  0  0  0  0
   39.4204   23.9075   43.2356 H   0  0  0  0  0  0  0  0  0  0  0  0
   37.3691   23.4063   42.9612 H   0  0  0  0  0  0  0  0  0  0  0  0
   35.7655   23.3933   41.0857 H   0  0  0  0  0  0  0  0  0  0  0  0
   38.0471   24.7711   37.3866 H   0  0  0  0  0  0  0  0  0  0  0  0
   38.4594   26.0000   35.2905 H   0  0  0  0  0  0  0  0  0  0  0  0
   38.7096   28.5154   35.3864 H   0  0  0  0  0  0  0  0  0  0  0  0
   38.5269   29.6446   37.5901 H   0  0  0  0  0  0  0  0  0  0  0  0
   38.1103   28.3722   39.6800 H   0  0  0  0  0  0  0  0  0  0  0  0
   36.4851   29.4525   43.5609 H   0  0  0  0  0  0  0  0  0  0  0  0
   37.2617   27.1063   44.6426 H   0  0  0  0  0  0  0  0  0  0  0  0
   36.2204   32.1588   39.7955 H   0  0  0  0  0  0  0  0  0  0  0  0
   38.1099   33.8154   39.7307 H   0  0  0  0  0  0  0  0  0  0  0  0
   40.2154   33.2929   41.0415 H   0  0  0  0  0  0  0  0  0  0  0  0
  2  3  1  0
  2  1  1  0
  3  1  1  0
  4  5  2  0
  4  3  1  0
  6  5  1  0
  7  6  2  0
  8  7  1  0
  8  9  2  0
  9  4  1  0
 10 15  1  0
 10  8  1  0
 11 10  2  0
 12 13  2  0
 12 11  1  0
 13 14  1  0
 14 15  2  0
 16 20  2  0
 16 17  1  0
 17 18  2  0
 19  1  1  0
 19 18  1  0
 20 19  1  0
 21 26  2  0
 22 21  1  0
 22 23  2  0
 23 24  1  0
 24 25  2  0
 25 16  1  0
 26 25  1  0
  1 27  1  1
  2 28  1  0
  2 29  1  0
  3 30  1  1
  5 31  1  0
  6 32  1  0
 11 33  1  0
 12 34  1  0
 13 35  1  0
 14 36  1  0
 15 37  1  0
 17 38  1  0
 18 39  1  0
 21 40  1  0
 22 41  1  0
 23 42  1  0
M  ISO  8  27  13  28  13  29  13  30  13  31  14  32  14  33  14  34  14
M  ISO  8  35  14  36  14  37  14  38  14  39  14  40  14  41  14  42  14
M  END
>  <minimizedAffinity>  (1) 
-5.65859127

>  <minimizedRMSD>  (1) 
0.866062522

$$$$
