
     RDKit          3D

 50 54  0  0  1  0  0  0  0  0999 V2000
   42.3780   34.9540   40.7420 O   0  0  0  0  0  0  0  0  0  0  0  0
   38.8590   35.4750   40.1070 C   0  0  0  0  0  0  0  0  0  0  0  0
   40.2090   35.8120   40.2850 C   0  0  0  0  0  0  0  0  0  0  0  0
   41.0910   34.7420   40.5550 C   0  0  0  0  0  0  0  0  0  0  0  0
   40.5500   33.5420   40.6110 N   0  0  0  0  0  0  0  0  0  0  0  0
   39.2980   33.1810   40.4510 C   0  0  0  0  0  0  0  0  0  0  0  0
   38.4780   34.2060   40.1970 N   0  0  0  0  0  0  0  0  0  0  0  0
   38.5990   31.9100   40.4940 C   0  0  0  0  0  0  0  0  0  0  0  0
   38.4330   31.1860   41.6220 N   0  0  0  0  0  0  0  0  0  0  0  0
   37.8030   30.0250   41.7010 C   0  0  0  0  0  0  0  0  0  0  0  0
   37.2710   29.4700   40.6310 N   0  0  0  0  0  0  0  0  0  0  0  0
   37.3670   30.0940   39.4300 C   0  0  0  0  0  0  0  0  0  0  0  0
   36.8100   29.5210   38.3010 C   0  0  0  0  0  0  0  0  0  0  0  0
   36.8940   30.1280   37.0920 C   0  0  0  0  0  0  0  0  0  0  0  0
   37.5640   31.3640   37.0050 C   0  0  0  0  0  0  0  0  0  0  0  0
   38.0940   31.8780   38.1690 C   0  0  0  0  0  0  0  0  0  0  0  0
   38.0310   31.3010   39.3940 C   0  0  0  0  0  0  0  0  0  0  0  0
   43.0720   34.7820   41.9620 C   0  0  2  0  0  0  0  0  0  0  0  0
   43.0780   36.2250   42.6040 C   0  0  0  0  0  0  0  0  0  0  0  0
   44.4740   34.3460   41.7690 C   0  0  0  0  0  0  0  0  0  0  0  0
   44.8730   33.6100   42.9600 N   0  0  0  0  0  0  0  0  0  0  0  0
   46.0500   33.8000   43.6160 C   0  0  0  0  0  0  0  0  0  0  0  0
   46.1080   32.9600   44.6750 N   0  0  0  0  0  0  0  0  0  0  0  0
   44.9530   32.2470   44.6690 C   0  0  0  0  0  0  0  0  0  0  0  0
   44.2120   32.6690   43.6010 N   0  0  0  0  0  0  0  0  0  0  0  0
   44.5610   31.2130   45.6220 C   0  0  0  0  0  0  0  0  0  0  0  0
   44.2750   29.9490   45.1680 C   0  0  0  0  0  0  0  0  0  0  0  0
   43.8960   28.9380   46.0590 C   0  0  0  0  0  0  0  0  0  0  0  0
   43.8420   29.3300   47.3810 C   0  0  0  0  0  0  0  0  0  0  0  0
   44.1160   30.5720   47.8820 C   0  0  0  0  0  0  0  0  0  0  0  0
   44.4880   31.5430   46.9590 C   0  0  0  0  0  0  0  0  0  0  0  0
   38.1181   36.2596   39.8935 H   0  0  0  0  0  0  0  0  0  0  0  0
   40.5614   36.8519   40.2180 H   0  0  0  0  0  0  0  0  0  0  0  0
   37.7224   29.5164   42.6730 H   0  0  0  0  0  0  0  0  0  0  0  0
   36.2896   28.5556   38.3858 H   0  0  0  0  0  0  0  0  0  0  0  0
   36.4489   29.6657   36.1986 H   0  0  0  0  0  0  0  0  0  0  0  0
   37.6603   31.8971   36.0476 H   0  0  0  0  0  0  0  0  0  0  0  0
   38.6153   32.8440   38.0973 H   0  0  0  0  0  0  0  0  0  0  0  0
   42.5907   34.0065   42.5760 H   0  0  0  0  0  0  0  0  0  0  0  0
   43.0776   36.1384   43.7006 H   0  0  0  0  0  0  0  0  0  0  0  0
   43.9784   36.7671   42.2793 H   0  0  0  0  0  0  0  0  0  0  0  0
   42.1821   36.7745   42.2793 H   0  0  0  0  0  0  0  0  0  0  0  0
   44.5465   33.6962   40.8844 H   0  0  0  0  0  0  0  0  0  0  0  0
   45.1310   35.2143   41.6128 H   0  0  0  0  0  0  0  0  0  0  0  0
   46.8299   34.5214   43.3308 H   0  0  0  0  0  0  0  0  0  0  0  0
   44.3445   29.7285   44.0926 H   0  0  0  0  0  0  0  0  0  0  0  0
   43.6604   27.9145   45.7320 H   0  0  0  0  0  0  0  0  0  0  0  0
   43.5469   28.5607   48.1097 H   0  0  0  0  0  0  0  0  0  0  0  0
   44.0459   30.7914   48.9576 H   0  0  0  0  0  0  0  0  0  0  0  0
   44.7219   32.5649   47.2921 H   0  0  0  0  0  0  0  0  0  0  0  0
  1 18  1  0
  2  7  2  0
  2  3  1  0
  3  4  2  0
  4  5  1  0
  4  1  1  0
  6  8  1  0
  6  5  2  0
  7  6  1  0
  8  9  2  0
  9 10  1  0
 11 10  2  0
 12 11  1  0
 13 12  2  0
 14 13  1  0
 15 14  2  0
 15 16  1  0
 16 17  2  0
 17 12  1  0
 17  8  1  0
 18 19  1  0
 20 18  1  0
 20 21  1  0
 21 25  1  0
 21 22  1  0
 22 23  2  0
 24 23  1  0
 24 26  1  0
 25 24  2  0
 26 31  1  0
 27 26  2  0
 27 28  1  0
 28 29  2  0
 29 30  1  0
 31 30  2  0
  2 32  1  0
  3 33  1  0
 10 34  1  0
 13 35  1  0
 14 36  1  0
 15 37  1  0
 16 38  1  0
 18 39  1  1
 19 40  1  0
 19 41  1  0
 19 42  1  0
 20 43  1  0
 20 44  1  0
 22 45  1  0
 27 46  1  0
 28 47  1  0
 29 48  1  0
 30 49  1  0
 31 50  1  0
M  ISO  8  32  14  33  14  34  14  35  14  36  14  37  14  38  14  39   8
M  ISO  8  40   8  41   8  42   8  43   8  44   8  45  14  46  14  47  14
M  ISO  3  48  14  49  14  50  14
M  END
>  <minimizedAffinity>  (1) 
-7.01155615

>  <minimizedRMSD>  (1) 
0.773229897

$$$$
