
     RDKit          3D

 55 59  0  0  1  0  0  0  0  0999 V2000
   38.9440   35.6250   40.1010 C   0  0  0  0  0  0  0  0  0  0  0  0
   40.2740   36.0250   40.3130 C   0  0  0  0  0  0  0  0  0  0  0  0
   41.1900   35.0020   40.6420 C   0  0  0  0  0  0  0  0  0  0  0  0
   40.6990   33.7800   40.7140 N   0  0  0  0  0  0  0  0  0  0  0  0
   39.4640   33.3660   40.5220 C   0  0  0  0  0  0  0  0  0  0  0  0
   38.6170   34.3400   40.2150 N   0  0  0  0  0  0  0  0  0  0  0  0
   38.8230   32.0630   40.5780 C   0  0  0  0  0  0  0  0  0  0  0  0
   38.7370   31.3180   41.7010 N   0  0  0  0  0  0  0  0  0  0  0  0
   38.1630   30.1340   41.7870 C   0  0  0  0  0  0  0  0  0  0  0  0
   37.6050   29.5660   40.7290 N   0  0  0  0  0  0  0  0  0  0  0  0
   37.6220   30.2100   39.5370 C   0  0  0  0  0  0  0  0  0  0  0  0
   37.0430   29.6270   38.4260 C   0  0  0  0  0  0  0  0  0  0  0  0
   37.0500   30.2550   37.2230 C   0  0  0  0  0  0  0  0  0  0  0  0
   37.6620   31.5210   37.1270 C   0  0  0  0  0  0  0  0  0  0  0  0
   38.2180   32.0380   38.2780 C   0  0  0  0  0  0  0  0  0  0  0  0
   38.2330   31.4450   39.4950 C   0  0  0  0  0  0  0  0  0  0  0  0
   42.4620   35.2690   40.8660 O   0  0  0  0  0  0  0  0  0  0  0  0
   43.1160   35.1460   42.1170 C   0  0  2  0  0  0  0  0  0  0  0  0
   42.8470   36.5300   42.8240 C   0  0  0  0  0  0  0  0  0  0  0  0
   44.5830   34.9680   41.9710 C   0  0  0  0  0  0  0  0  0  0  0  0
   45.0380   34.1580   43.0930 N   0  0  0  0  0  0  0  0  0  0  0  0
   46.2390   34.3110   43.7170 C   0  0  0  0  0  0  0  0  0  0  0  0
   46.3550   33.4120   44.7130 N   0  0  0  0  0  0  0  0  0  0  0  0
   45.1950   32.6890   44.6980 C   0  0  0  0  0  0  0  0  0  0  0  0
   44.4080   33.1670   43.6980 N   0  0  0  0  0  0  0  0  0  0  0  0
   44.8130   31.6030   45.5600 N   0  0  0  0  0  0  0  0  0  0  0  0
   45.2740   31.5030   46.9180 C   0  0  0  0  0  0  0  0  0  0  0  0
   44.2770   30.7330   47.7620 C   0  0  0  0  0  0  0  0  0  0  0  0
   43.9530   29.3780   47.2040 C   0  0  0  0  0  0  0  0  0  0  0  0
   44.0730   29.2780   45.7130 C   0  0  0  0  0  0  0  0  0  0  0  0
   43.9420   30.6070   45.0130 C   0  0  0  0  0  0  0  0  0  0  0  0
   38.1771   36.3699   39.8422 H   0  0  0  0  0  0  0  0  0  0  0  0
   40.5845   37.0768   40.2274 H   0  0  0  0  0  0  0  0  0  0  0  0
   38.1474   29.6094   42.7537 H   0  0  0  0  0  0  0  0  0  0  0  0
   36.5691   28.6386   38.5181 H   0  0  0  0  0  0  0  0  0  0  0  0
   36.5880   29.7861   36.3417 H   0  0  0  0  0  0  0  0  0  0  0  0
   37.6946   32.0723   36.1757 H   0  0  0  0  0  0  0  0  0  0  0  0
   38.6947   33.0263   38.2000 H   0  0  0  0  0  0  0  0  0  0  0  0
   42.7468   34.2697   42.6700 H   0  0  0  0  0  0  0  0  0  0  0  0
   42.8732   36.3954   43.9154 H   0  0  0  0  0  0  0  0  0  0  0  0
   43.6218   37.2513   42.5248 H   0  0  0  0  0  0  0  0  0  0  0  0
   41.8585   36.9086   42.5248 H   0  0  0  0  0  0  0  0  0  0  0  0
   44.8071   34.4568   41.0231 H   0  0  0  0  0  0  0  0  0  0  0  0
   45.0934   35.9424   41.9636 H   0  0  0  0  0  0  0  0  0  0  0  0
   47.0006   35.0576   43.4476 H   0  0  0  0  0  0  0  0  0  0  0  0
   46.2418   30.9804   46.9342 H   0  0  0  0  0  0  0  0  0  0  0  0
   45.3831   32.5162   47.3322 H   0  0  0  0  0  0  0  0  0  0  0  0
   44.6978   30.6046   48.7702 H   0  0  0  0  0  0  0  0  0  0  0  0
   43.3426   31.3133   47.7755 H   0  0  0  0  0  0  0  0  0  0  0  0
   44.6405   28.6470   47.6544 H   0  0  0  0  0  0  0  0  0  0  0  0
   42.8986   29.1816   47.4482 H   0  0  0  0  0  0  0  0  0  0  0  0
   45.0572   28.8510   45.4699 H   0  0  0  0  0  0  0  0  0  0  0  0
   43.2468   28.6423   45.3619 H   0  0  0  0  0  0  0  0  0  0  0  0
   42.9031   30.9555   45.1093 H   0  0  0  0  0  0  0  0  0  0  0  0
   44.2230   30.4592   43.9598 H   0  0  0  0  0  0  0  0  0  0  0  0
  1  6  2  0
  1  2  1  0
  2  3  2  0
  3  4  1  0
  3 17  1  0
  5  7  1  0
  5  4  2  0
  6  5  1  0
  7  8  2  0
  8  9  1  0
 10  9  2  0
 11 10  1  0
 12 11  2  0
 13 12  1  0
 14 13  2  0
 14 15  1  0
 15 16  2  0
 16 11  1  0
 16  7  1  0
 17 18  1  0
 18 19  1  0
 20 18  1  0
 20 21  1  0
 21 25  1  0
 21 22  1  0
 22 23  2  0
 24 23  1  0
 24 26  1  0
 25 24  2  0
 26 27  1  0
 27 28  1  0
 29 28  1  0
 30 29  1  0
 31 26  1  0
 31 30  1  0
  1 32  1  0
  2 33  1  0
  9 34  1  0
 12 35  1  0
 13 36  1  0
 14 37  1  0
 15 38  1  0
 18 39  1  1
 19 40  1  0
 19 41  1  0
 19 42  1  0
 20 43  1  0
 20 44  1  0
 22 45  1  0
 27 46  1  0
 27 47  1  0
 28 48  1  0
 28 49  1  0
 29 50  1  0
 29 51  1  0
 30 52  1  0
 30 53  1  0
 31 54  1  0
 31 55  1  0
M  END
>  <minimizedAffinity>  (1) 
-7.21537924

>  <minimizedRMSD>  (1) 
0.563587606

$$$$
