
     RDKit          3D

 32 33  0  0  0  0  0  0  0  0999 V2000
   37.1430   29.8400   40.0690 C   0  0  0  0  0  0  0  0  0  0  0  0
   37.8050   31.0270   39.8880 C   0  0  0  0  0  0  0  0  0  0  0  0
   37.7270   31.6180   38.6320 C   0  0  0  0  0  0  0  0  0  0  0  0
   37.0040   31.0050   37.6390 C   0  0  0  0  0  0  0  0  0  0  0  0
   36.3550   29.8290   37.8400 C   0  0  0  0  0  0  0  0  0  0  0  0
   36.4340   29.2590   39.0590 N   0  0  0  0  0  0  0  0  0  0  0  0
   38.1660   29.0560   43.5020 C   0  0  0  0  0  0  0  0  0  0  0  0
   37.3430   27.9700   43.8420 C   0  0  0  0  0  0  0  0  0  0  0  0
   36.4270   27.5080   42.8720 C   0  0  0  0  0  0  0  0  0  0  0  0
   36.3860   28.1320   41.6620 N   0  0  0  0  0  0  0  0  0  0  0  0
   37.1910   29.1730   41.3720 C   0  0  0  0  0  0  0  0  0  0  0  0
   38.0620   29.6100   42.2980 N   0  0  0  0  0  0  0  0  0  0  0  0
   35.4040   29.0230   36.5390 S   0  0  0  0  0  0  0  0  0  0  0  0
   36.2270   27.5050   35.9960 C   0  0  0  0  0  0  0  0  0  0  0  0
   37.7170   27.8430   35.9150 C   0  0  0  0  0  0  0  0  0  0  0  0
   35.7920   27.0370   34.6430 C   0  0  0  0  0  0  0  0  0  0  0  0
   36.0840   26.4020   37.0180 C   0  0  0  0  0  0  0  0  0  0  0  0
   38.3755   31.4935   40.7046 H   0  0  0  0  0  0  0  0  0  0  0  0
   38.2411   32.5703   38.4353 H   0  0  0  0  0  0  0  0  0  0  0  0
   36.9485   31.4814   36.6491 H   0  0  0  0  0  0  0  0  0  0  0  0
   38.8935   29.4465   44.2288 H   0  0  0  0  0  0  0  0  0  0  0  0
   37.4099   27.4948   44.8318 H   0  0  0  0  0  0  0  0  0  0  0  0
   35.7597   26.6609   43.0892 H   0  0  0  0  0  0  0  0  0  0  0  0
   38.1276   27.9361   36.9312 H   0  0  0  0  0  0  0  0  0  0  0  0
   38.2460   27.0420   35.3778 H   0  0  0  0  0  0  0  0  0  0  0  0
   37.8486   28.7938   35.3778 H   0  0  0  0  0  0  0  0  0  0  0  0
   35.0470   26.2354   34.7543 H   0  0  0  0  0  0  0  0  0  0  0  0
   35.3468   27.8772   34.0900 H   0  0  0  0  0  0  0  0  0  0  0  0
   36.6625   26.6543   34.0900 H   0  0  0  0  0  0  0  0  0  0  0  0
   36.1395   26.8301   38.0297 H   0  0  0  0  0  0  0  0  0  0  0  0
   35.1135   25.9018   36.8843 H   0  0  0  0  0  0  0  0  0  0  0  0
   36.8949   25.6708   36.8843 H   0  0  0  0  0  0  0  0  0  0  0  0
  1 11  1  0
  2  1  2  0
  3  2  1  0
  4  5  1  0
  4  3  2  0
  5  6  2  0
  6  1  1  0
  7  8  2  0
  9  8  1  0
 10  9  2  0
 11 10  1  0
 11 12  2  0
 12  7  1  0
 13  5  1  0
 14 13  1  0
 14 17  1  0
 15 14  1  0
 16 14  1  0
  2 18  1  0
  3 19  1  0
  4 20  1  0
  7 21  1  0
  8 22  1  0
  9 23  1  0
 15 24  1  0
 15 25  1  0
 15 26  1  0
 16 27  1  0
 16 28  1  0
 16 29  1  0
 17 30  1  0
 17 31  1  0
 17 32  1  0
M  ISO  8  18  14  19  14  20  14  21  14  22  14  23  14  24   8  25   8
M  ISO  7  26   8  27   8  28   8  29   8  30   8  31   8  32   8
M  END
>  <minimizedAffinity>  (1) 
-3.86929226

>  <minimizedRMSD>  (1) 
1.80421925

$$$$
