
     RDKit          3D

 47 50  0  0  1  0  0  0  0  0999 V2000
   33.7380   26.8930   37.0960 N   0  0  0  0  0  0  0  0  0  0  0  0
   33.6300   28.2060   37.6930 C   0  0  0  0  0  0  0  0  0  0  0  0
   34.4510   29.2410   36.9760 C   0  0  0  0  0  0  0  0  0  0  0  0
   35.6560   28.6400   36.2890 C   0  0  2  0  0  0  0  0  0  0  0  0
   36.1310   27.3900   36.9790 C   0  0  0  0  0  0  0  0  0  0  0  0
   35.0650   26.3420   37.1150 C   0  0  1  0  0  0  0  0  0  0  0  0
   35.2200   25.5120   38.2870 N   0  0  0  0  0  0  0  0  0  0  0  0
   35.3970   24.1340   37.9250 C   0  0  0  0  0  0  0  0  0  0  0  0
   36.7970   23.7400   38.4090 C   0  0  0  0  0  0  0  0  0  0  0  0
   36.8850   24.5900   39.6820 C   0  0  0  0  0  0  0  0  0  0  0  0
   36.2980   25.9010   39.1420 C   0  0  0  0  0  0  0  0  0  0  0  0
   37.0250   29.8260   36.3870 S   0  0  0  0  0  0  0  0  0  0  0  0
   37.1920   30.3520   40.3760 C   0  0  0  0  0  0  0  0  0  0  0  0
   37.2480   31.7200   40.5460 C   0  0  0  0  0  0  0  0  0  0  0  0
   37.2340   32.5140   39.4070 C   0  0  0  0  0  0  0  0  0  0  0  0
   37.1660   31.9040   38.1670 C   0  0  0  0  0  0  0  0  0  0  0  0
   37.1120   30.5480   38.0130 C   0  0  0  0  0  0  0  0  0  0  0  0
   37.1260   29.8060   39.1340 N   0  0  0  0  0  0  0  0  0  0  0  0
   38.1550   28.9280   43.6010 C   0  0  0  0  0  0  0  0  0  0  0  0
   37.2900   27.8350   43.7420 C   0  0  0  0  0  0  0  0  0  0  0  0
   36.3620   27.5920   42.7070 C   0  0  0  0  0  0  0  0  0  0  0  0
   36.3780   28.4320   41.6530 N   0  0  0  0  0  0  0  0  0  0  0  0
   37.2020   29.4610   41.5320 C   0  0  0  0  0  0  0  0  0  0  0  0
   38.0760   29.6880   42.5110 N   0  0  0  0  0  0  0  0  0  0  0  0
   33.4298   26.9582   36.1153 H   0  0  0  0  0  0  0  0  0  0  0  0
   32.5750   28.5167   37.6704 H   0  0  0  0  0  0  0  0  0  0  0  0
   34.0123   28.1345   38.7220 H   0  0  0  0  0  0  0  0  0  0  0  0
   33.8204   29.7316   36.2199 H   0  0  0  0  0  0  0  0  0  0  0  0
   34.8137   29.9613   37.7241 H   0  0  0  0  0  0  0  0  0  0  0  0
   35.3638   28.4041   35.2551 H   0  0  0  0  0  0  0  0  0  0  0  0
   36.9641   26.9666   36.3987 H   0  0  0  0  0  0  0  0  0  0  0  0
   36.4360   27.6767   37.9962 H   0  0  0  0  0  0  0  0  0  0  0  0
   35.1980   25.7060   36.2274 H   0  0  0  0  0  0  0  0  0  0  0  0
   34.6348   23.5103   38.4149 H   0  0  0  0  0  0  0  0  0  0  0  0
   35.2929   23.9886   36.8396 H   0  0  0  0  0  0  0  0  0  0  0  0
   36.8653   22.6646   38.6302 H   0  0  0  0  0  0  0  0  0  0  0  0
   37.6044   23.9090   37.6813 H   0  0  0  0  0  0  0  0  0  0  0  0
   36.2777   24.1725   40.4986 H   0  0  0  0  0  0  0  0  0  0  0  0
   37.8879   24.6705   40.1266 H   0  0  0  0  0  0  0  0  0  0  0  0
   37.0580   26.4575   38.5739 H   0  0  0  0  0  0  0  0  0  0  0  0
   35.9580   26.5613   39.9535 H   0  0  0  0  0  0  0  0  0  0  0  0
   37.3019   32.1665   41.5498 H   0  0  0  0  0  0  0  0  0  0  0  0
   37.2763   33.6101   39.4892 H   0  0  0  0  0  0  0  0  0  0  0  0
   37.1550   32.5375   37.2678 H   0  0  0  0  0  0  0  0  0  0  0  0
   38.8930   29.1562   44.3842 H   0  0  0  0  0  0  0  0  0  0  0  0
   37.3328   27.1875   44.6302 H   0  0  0  0  0  0  0  0  0  0  0  0
   35.6544   26.7513   42.7583 H   0  0  0  0  0  0  0  0  0  0  0  0
  1  6  1  0
  1  2  1  0
  3  2  1  0
  4 12  1  0
  4  3  1  0
  4  5  1  0
  5  6  1  0
  6  7  1  0
  7  8  1  0
  7 11  1  0
  8  9  1  0
  9 10  1  0
 11 10  1  0
 12 17  1  0
 13 14  2  0
 13 23  1  0
 15 14  1  0
 16 15  2  0
 17 16  1  0
 17 18  2  0
 18 13  1  0
 19 20  2  0
 21 20  1  0
 22 21  2  0
 23 22  1  0
 23 24  2  0
 24 19  1  0
  1 25  1  0
  2 26  1  0
  2 27  1  0
  3 28  1  0
  3 29  1  0
  4 30  1  6
  5 31  1  0
  5 32  1  0
  6 33  1  6
  8 34  1  0
  8 35  1  0
  9 36  1  0
  9 37  1  0
 10 38  1  0
 10 39  1  0
 11 40  1  0
 11 41  1  0
 14 42  1  0
 15 43  1  0
 16 44  1  0
 19 45  1  0
 20 46  1  0
 21 47  1  0
M  ISO  8  25   5  26  13  27  13  28  13  29  13  30  13  31  13  32  13
M  ISO  8  33  13  34  13  35  13  36  13  37  13  38  13  39  13  40  13
M  ISO  7  41  13  42  14  43  14  44  14  45  14  46  14  47  14
M  END
>  <minimizedAffinity>  (1) 
-4.88316727

>  <minimizedRMSD>  (1) 
1.24742937

$$$$
