
     RDKit          3D

 42 45  0  0  0  0  0  0  0  0999 V2000
   37.6610   28.1700   41.4150 C   0  0  0  0  0  0  0  0  0  0  0  0
   36.4260   27.9040   40.8200 C   0  0  0  0  0  0  0  0  0  0  0  0
   35.9740   29.0640   40.3130 N   0  0  0  0  0  0  0  0  0  0  0  0
   36.8360   30.0750   40.5390 C   0  0  0  0  0  0  0  0  0  0  0  0
   36.7270   31.3900   40.1790 C   0  0  0  0  0  0  0  0  0  0  0  0
   37.7800   32.2280   40.5450 C   0  0  0  0  0  0  0  0  0  0  0  0
   38.8760   31.7290   41.2420 C   0  0  0  0  0  0  0  0  0  0  0  0
   38.9670   30.3950   41.5970 C   0  0  0  0  0  0  0  0  0  0  0  0
   37.9210   29.5510   41.2360 C   0  0  0  0  0  0  0  0  0  0  0  0
   39.6320   26.6120   44.0640 C   0  0  0  0  0  0  0  0  0  0  0  0
   40.2000   25.4780   43.4070 C   0  0  0  0  0  0  0  0  0  0  0  0
   39.8850   25.2790   42.0570 C   0  0  0  0  0  0  0  0  0  0  0  0
   39.0640   26.1730   41.4630 N   0  0  0  0  0  0  0  0  0  0  0  0
   38.5430   27.2310   42.0990 C   0  0  0  0  0  0  0  0  0  0  0  0
   38.8260   27.4510   43.3950 N   0  0  0  0  0  0  0  0  0  0  0  0
   34.7010   29.0880   39.6320 C   0  0  0  0  0  0  0  0  0  0  0  0
   34.8240   29.3490   38.1460 C   0  0  0  0  0  0  0  0  0  0  0  0
   35.7280   28.4380   37.5110 N   0  0  0  0  0  0  0  0  0  0  0  0
   36.7930   29.2020   36.8870 C   0  0  0  0  0  0  0  0  0  0  0  0
   36.2540   29.5920   35.5120 C   0  0  0  0  0  0  0  0  0  0  0  0
   35.1420   28.6240   35.2200 C   0  0  0  0  0  0  0  0  0  0  0  0
   35.1730   27.7040   36.4160 C   0  0  0  0  0  0  0  0  0  0  0  0
   35.9187   26.9290   40.7747 H   0  0  0  0  0  0  0  0  0  0  0  0
   35.8528   31.7676   39.6285 H   0  0  0  0  0  0  0  0  0  0  0  0
   37.7437   33.2949   40.2798 H   0  0  0  0  0  0  0  0  0  0  0  0
   39.6917   32.4134   41.5181 H   0  0  0  0  0  0  0  0  0  0  0  0
   39.8393   30.0131   42.1477 H   0  0  0  0  0  0  0  0  0  0  0  0
   39.8565   26.7987   45.1245 H   0  0  0  0  0  0  0  0  0  0  0  0
   40.8631   24.7837   43.9438 H   0  0  0  0  0  0  0  0  0  0  0  0
   40.2924   24.4233   41.4986 H   0  0  0  0  0  0  0  0  0  0  0  0
   34.2090   28.1148   39.7764 H   0  0  0  0  0  0  0  0  0  0  0  0
   34.1162   29.9147   40.0616 H   0  0  0  0  0  0  0  0  0  0  0  0
   33.8313   29.2430   37.6841 H   0  0  0  0  0  0  0  0  0  0  0  0
   35.2202   30.3665   38.0130 H   0  0  0  0  0  0  0  0  0  0  0  0
   37.0223   30.0996   37.4801 H   0  0  0  0  0  0  0  0  0  0  0  0
   37.7255   28.6232   36.8138 H   0  0  0  0  0  0  0  0  0  0  0  0
   35.8703   30.6228   35.5290 H   0  0  0  0  0  0  0  0  0  0  0  0
   37.0390   29.5518   34.7425 H   0  0  0  0  0  0  0  0  0  0  0  0
   34.1751   29.1430   35.1449 H   0  0  0  0  0  0  0  0  0  0  0  0
   35.2656   28.0963   34.2628 H   0  0  0  0  0  0  0  0  0  0  0  0
   34.1527   27.3754   36.6632 H   0  0  0  0  0  0  0  0  0  0  0  0
   35.7794   26.8116   36.2018 H   0  0  0  0  0  0  0  0  0  0  0  0
  1 14  1  0
  2  1  2  0
  3  4  1  0
  3  2  1  0
  4  9  2  0
  5  4  1  0
  5  6  2  0
  6  7  1  0
  7  8  2  0
  9  1  1  0
  9  8  1  0
 11 10  2  0
 12 11  1  0
 13 12  2  0
 13 14  1  0
 14 15  2  0
 15 10  1  0
 16  3  1  0
 17 16  1  0
 18 17  1  0
 19 18  1  0
 20 19  1  0
 21 20  1  0
 21 22  1  0
 22 18  1  0
  2 23  1  0
  5 24  1  0
  6 25  1  0
  7 26  1  0
  8 27  1  0
 10 28  1  0
 11 29  1  0
 12 30  1  0
 16 31  1  0
 16 32  1  0
 17 33  1  0
 17 34  1  0
 19 35  1  0
 19 36  1  0
 20 37  1  0
 20 38  1  0
 21 39  1  0
 21 40  1  0
 22 41  1  0
 22 42  1  0
M  ISO  8  23  14  24  14  25  14  26  14  27  14  28  14  29  14  30  14
M  ISO  8  31   8  32   8  33   8  34   8  35  13  36  13  37  13  38  13
M  ISO  4  39  13  40  13  41  13  42  13
M  END
>  <minimizedAffinity>  (1) 
-4.59883404

>  <minimizedRMSD>  (1) 
0.874036193

$$$$
