
     RDKit          3D

 37 40  0  0  0  0  0  0  0  0999 V2000
   38.5640   28.1870   42.5990 C   0  0  0  0  0  0  0  0  0  0  0  0
   38.4010   27.0740   43.4050 C   0  0  0  0  0  0  0  0  0  0  0  0
   39.5750   26.6890   43.9570 N   0  0  0  0  0  0  0  0  0  0  0  0
   40.4710   27.5730   43.4860 C   0  0  0  0  0  0  0  0  0  0  0  0
   39.8800   28.4810   42.6680 N   0  0  0  0  0  0  0  0  0  0  0  0
   40.5280   29.5540   41.9990 C   0  0  0  0  0  0  0  0  0  0  0  0
   40.8620   30.7670   42.5510 C   0  0  0  0  0  0  0  0  0  0  0  0
   41.4910   31.7360   41.7980 C   0  0  0  0  0  0  0  0  0  0  0  0
   41.7680   31.4680   40.5200 N   0  0  0  0  0  0  0  0  0  0  0  0
   41.4500   30.2830   39.9500 C   0  0  0  0  0  0  0  0  0  0  0  0
   40.8440   29.3540   40.6820 N   0  0  0  0  0  0  0  0  0  0  0  0
   41.7640   30.0390   38.5820 N   0  0  0  0  0  0  0  0  0  0  0  0
   41.8310   31.0690   37.5340 C   0  0  0  0  0  0  0  0  0  0  0  0
   42.6190   30.3920   36.4050 C   0  0  0  0  0  0  0  0  0  0  0  0
   41.9690   29.0030   36.4930 C   0  0  0  0  0  0  0  0  0  0  0  0
   42.0720   28.7610   37.9690 C   0  0  0  0  0  0  0  0  0  0  0  0
   35.5920   28.6400   40.4670 C   0  0  0  0  0  0  0  0  0  0  0  0
   36.6200   27.9990   41.1740 C   0  0  0  0  0  0  0  0  0  0  0  0
   37.5120   28.8370   41.8760 C   0  0  0  0  0  0  0  0  0  0  0  0
   37.3240   30.1750   41.8210 N   0  0  0  0  0  0  0  0  0  0  0  0
   36.3090   30.7470   41.1190 C   0  0  0  0  0  0  0  0  0  0  0  0
   35.4480   29.9750   40.4450 N   0  0  0  0  0  0  0  0  0  0  0  0
   37.4398   26.5670   43.5753 H   0  0  0  0  0  0  0  0  0  0  0  0
   41.5433   27.5622   43.7313 H   0  0  0  0  0  0  0  0  0  0  0  0
   40.6248   30.9676   43.6062 H   0  0  0  0  0  0  0  0  0  0  0  0
   41.7582   32.7071   42.2402 H   0  0  0  0  0  0  0  0  0  0  0  0
   40.8228   31.3491   37.1948 H   0  0  0  0  0  0  0  0  0  0  0  0
   42.3019   32.0001   37.8823 H   0  0  0  0  0  0  0  0  0  0  0  0
   43.6990   30.3604   36.6116 H   0  0  0  0  0  0  0  0  0  0  0  0
   42.5739   30.8845   35.4224 H   0  0  0  0  0  0  0  0  0  0  0  0
   40.9227   29.0196   36.1540 H   0  0  0  0  0  0  0  0  0  0  0  0
   42.4364   28.2318   35.8631 H   0  0  0  0  0  0  0  0  0  0  0  0
   41.3486   27.9956   38.2866 H   0  0  0  0  0  0  0  0  0  0  0  0
   43.0674   28.3933   38.2587 H   0  0  0  0  0  0  0  0  0  0  0  0
   34.8736   28.0233   39.9071 H   0  0  0  0  0  0  0  0  0  0  0  0
   36.7249   26.9040   41.1808 H   0  0  0  0  0  0  0  0  0  0  0  0
   36.1961   31.8411   41.1052 H   0  0  0  0  0  0  0  0  0  0  0  0
  1  5  1  0
  1  2  2  0
  2  3  1  0
  4  3  2  0
  5  4  1  0
  6  7  2  0
  6  5  1  0
  8  7  1  0
  9  8  2  0
 10  9  1  0
 10 11  2  0
 11  6  1  0
 12 10  1  0
 13 12  1  0
 14 15  1  0
 14 13  1  0
 15 16  1  0
 16 12  1  0
 17 18  2  0
 18 19  1  0
 19  1  1  0
 20 19  2  0
 21 20  1  0
 22 17  1  0
 22 21  2  0
  2 23  1  0
  4 24  1  0
  7 25  1  0
  8 26  1  0
 13 27  1  0
 13 28  1  0
 14 29  1  0
 14 30  1  0
 15 31  1  0
 15 32  1  0
 16 33  1  0
 16 34  1  0
 17 35  1  0
 18 36  1  0
 21 37  1  0
M  ISO  8  23  14  24  14  25  14  26  14  27  13  28  13  29  13  30  13
M  ISO  7  31  13  32  13  33  13  34  13  35  14  36  14  37  14
M  END
>  <minimizedAffinity>  (1) 
-4.95225811

>  <minimizedRMSD>  (1) 
0.140629977

$$$$
