
     RDKit          3D

 43 47  0  0  1  0  0  0  0  0999 V2000
   35.9420   30.5780   40.8640 C   0  0  0  0  0  0  0  0  0  0  0  0
   36.5770   29.4850   41.4850 C   0  0  0  0  0  0  0  0  0  0  0  0
   37.9680   29.4650   41.5260 C   0  0  0  0  0  0  0  0  0  0  0  0
   38.6180   30.5130   40.9580 N   0  0  0  0  0  0  0  0  0  0  0  0
   37.9980   31.5470   40.3700 C   0  0  0  0  0  0  0  0  0  0  0  0
   36.6460   31.5770   40.3250 N   0  0  0  0  0  0  0  0  0  0  0  0
   38.6390   28.3410   42.1530 C   0  0  0  0  0  0  0  0  0  0  0  0
   39.7550   28.3520   42.9570 C   0  0  0  0  0  0  0  0  0  0  0  0
   40.0520   27.0840   43.3290 N   0  0  0  0  0  0  0  0  0  0  0  0
   39.1590   26.2250   42.7900 C   0  0  0  0  0  0  0  0  0  0  0  0
   38.9890   24.8510   42.8380 C   0  0  0  0  0  0  0  0  0  0  0  0
   37.9570   24.2210   42.1710 C   0  0  0  0  0  0  0  0  0  0  0  0
   37.1000   25.0170   41.4540 C   0  0  0  0  0  0  0  0  0  0  0  0
   37.2530   26.3810   41.3980 C   0  0  0  0  0  0  0  0  0  0  0  0
   38.2890   27.0130   42.0650 C   0  0  0  0  0  0  0  0  0  0  0  0
   38.7950   32.6670   39.7740 C   0  0  1  0  0  0  0  0  0  0  0  0
   38.5730   34.0620   40.3510 C   0  0  0  0  0  0  0  0  0  0  0  0
   39.8480   33.3180   40.6090 C   0  0  2  0  0  0  0  0  0  0  0  0
   41.0900   33.7520   40.0600 N   0  0  0  0  0  0  0  0  0  0  0  0
   42.1950   33.4320   40.9160 C   0  0  0  0  0  0  0  0  0  0  0  0
   42.7520   34.7210   41.4790 C   0  0  0  0  0  0  0  0  0  0  0  0
   41.7050   35.7560   41.0500 C   0  0  0  0  0  0  0  0  0  0  0  0
   41.2310   35.1280   39.7690 C   0  0  0  0  0  0  0  0  0  0  0  0
   34.8433   30.6096   40.8220 H   0  0  0  0  0  0  0  0  0  0  0  0
   35.9882   28.6675   41.9266 H   0  0  0  0  0  0  0  0  0  0  0  0
   40.3180   29.2499   43.2517 H   0  0  0  0  0  0  0  0  0  0  0  0
   40.8415   26.8145   43.9331 H   0  0  0  0  0  0  0  0  0  0  0  0
   39.6958   24.2449   43.4238 H   0  0  0  0  0  0  0  0  0  0  0  0
   37.8278   23.1294   42.2127 H   0  0  0  0  0  0  0  0  0  0  0  0
   36.2668   24.5498   40.9085 H   0  0  0  0  0  0  0  0  0  0  0  0
   36.5405   26.9814   40.8134 H   0  0  0  0  0  0  0  0  0  0  0  0
   38.7742   32.2145   38.7716 H   0  0  0  0  0  0  0  0  0  0  0  0
   38.5702   34.9398   39.6881 H   0  0  0  0  0  0  0  0  0  0  0  0
   37.8032   34.5366   40.9773 H   0  0  0  0  0  0  0  0  0  0  0  0
   40.4020   33.0227   41.5123 H   0  0  0  0  0  0  0  0  0  0  0  0
   41.8534   32.7849   41.7373 H   0  0  0  0  0  0  0  0  0  0  0  0
   42.9724   32.9011   40.3470 H   0  0  0  0  0  0  0  0  0  0  0  0
   42.8356   34.6719   42.5747 H   0  0  0  0  0  0  0  0  0  0  0  0
   43.7662   34.9516   41.1209 H   0  0  0  0  0  0  0  0  0  0  0  0
   40.8928   35.8452   41.7865 H   0  0  0  0  0  0  0  0  0  0  0  0
   42.0821   36.7846   40.9512 H   0  0  0  0  0  0  0  0  0  0  0  0
   41.9705   35.2791   38.9688 H   0  0  0  0  0  0  0  0  0  0  0  0
   40.2880   35.5724   39.4179 H   0  0  0  0  0  0  0  0  0  0  0  0
  1  2  2  0
  2  3  1  0
  3  7  1  0
  4  3  2  0
  5  4  1  0
  6  5  2  0
  6  1  1  0
  7  8  2  0
  8  9  1  0
 10 11  2  0
 10  9  1  0
 12 11  1  0
 13 12  2  0
 14 13  1  0
 14 15  2  0
 15  7  1  0
 15 10  1  0
 16 17  1  0
 16  5  1  0
 16 18  1  0
 17 18  1  0
 19 18  1  0
 19 20  1  0
 20 21  1  0
 22 21  1  0
 23 19  1  0
 23 22  1  0
  1 24  1  0
  2 25  1  0
  8 26  1  0
  9 27  1  0
 11 28  1  0
 12 29  1  0
 13 30  1  0
 14 31  1  0
 16 32  1  6
 17 33  1  0
 17 34  1  0
 18 35  1  1
 20 36  1  0
 20 37  1  0
 21 38  1  0
 21 39  1  0
 22 40  1  0
 22 41  1  0
 23 42  1  0
 23 43  1  0
M  ISO  8  24  14  25  14  26  14  27   9  28  14  29  14  30  14  31  14
M  ISO  8  32  13  33  13  34  13  35  13  36  13  37  13  38  13  39  13
M  ISO  4  40  13  41  13  42  13  43  13
M  END
>  <minimizedAffinity>  (1) 
-6.04676723

>  <minimizedRMSD>  (1) 
0.880955696

$$$$
