
     RDKit          3D

 35 38  0  0  0  0  0  0  0  0999 V2000
   38.4250   27.5750   43.9280 C   0  0  0  0  0  0  0  0  0  0  0  0
   38.9800   26.5870   43.1020 C   0  0  0  0  0  0  0  0  0  0  0  0
   39.0600   26.8630   41.7340 C   0  0  0  0  0  0  0  0  0  0  0  0
   38.5990   28.0620   41.2860 N   0  0  0  0  0  0  0  0  0  0  0  0
   38.0690   28.9920   42.1080 C   0  0  0  0  0  0  0  0  0  0  0  0
   37.9850   28.7380   43.4420 N   0  0  0  0  0  0  0  0  0  0  0  0
   37.6600   30.1560   41.4020 N   0  0  0  0  0  0  0  0  0  0  0  0
   36.3930   30.2860   40.9440 C   0  0  0  0  0  0  0  0  0  0  0  0
   36.2530   31.4660   40.3130 N   0  0  0  0  0  0  0  0  0  0  0  0
   37.4360   32.0980   40.3670 C   0  0  0  0  0  0  0  0  0  0  0  0
   37.9180   33.3150   39.9120 C   0  0  0  0  0  0  0  0  0  0  0  0
   39.2000   33.6450   40.1460 N   0  0  0  0  0  0  0  0  0  0  0  0
   40.0360   32.8170   40.8180 C   0  0  0  0  0  0  0  0  0  0  0  0
   39.5910   31.6200   41.2750 N   0  0  0  0  0  0  0  0  0  0  0  0
   38.2990   31.2670   41.0480 C   0  0  0  0  0  0  0  0  0  0  0  0
   36.9800   34.1050   39.2240 N   0  0  0  0  0  0  0  0  0  0  0  0
   41.3820   33.2240   41.0330 N   0  0  0  0  0  0  0  0  0  0  0  0
   42.3840   32.4630   41.7230 C   0  0  0  0  0  0  0  0  0  0  0  0
   43.5280   33.4220   41.9690 C   0  0  0  0  0  0  0  0  0  0  0  0
   42.9930   34.8040   41.6350 C   0  0  0  0  0  0  0  0  0  0  0  0
   41.9550   34.4860   40.5840 C   0  0  0  0  0  0  0  0  0  0  0  0
   38.3499   27.3861   45.0090 H   0  0  0  0  0  0  0  0  0  0  0  0
   39.3383   25.6323   43.5144 H   0  0  0  0  0  0  0  0  0  0  0  0
   39.4860   26.1275   41.0357 H   0  0  0  0  0  0  0  0  0  0  0  0
   35.5962   29.5381   41.0691 H   0  0  0  0  0  0  0  0  0  0  0  0
   36.0165   33.7648   39.0943 H   0  0  0  0  0  0  0  0  0  0  0  0
   37.2564   35.0239   38.8497 H   0  0  0  0  0  0  0  0  0  0  0  0
   41.9888   32.0843   42.6772 H   0  0  0  0  0  0  0  0  0  0  0  0
   42.7052   31.5889   41.1375 H   0  0  0  0  0  0  0  0  0  0  0  0
   43.8440   33.3783   43.0217 H   0  0  0  0  0  0  0  0  0  0  0  0
   44.4052   33.1697   41.3551 H   0  0  0  0  0  0  0  0  0  0  0  0
   42.5385   35.2815   42.5156 H   0  0  0  0  0  0  0  0  0  0  0  0
   43.7650   35.5122   41.2997 H   0  0  0  0  0  0  0  0  0  0  0  0
   42.4211   34.3746   39.5939 H   0  0  0  0  0  0  0  0  0  0  0  0
   41.2021   35.2805   40.4752 H   0  0  0  0  0  0  0  0  0  0  0  0
  2  1  2  0
  3  2  1  0
  4  3  2  0
  4  5  1  0
  5  6  2  0
  6  1  1  0
  7  5  1  0
  8  7  1  0
  9 10  1  0
  9  8  2  0
 10 15  2  0
 11 12  2  0
 11 10  1  0
 12 13  1  0
 13 17  1  0
 13 14  2  0
 15 14  1  0
 15  7  1  0
 16 11  1  0
 17 18  1  0
 18 19  1  0
 20 19  1  0
 21 17  1  0
 21 20  1  0
  1 22  1  0
  2 23  1  0
  3 24  1  0
  8 25  1  0
 16 26  1  0
 16 27  1  0
 18 28  1  0
 18 29  1  0
 19 30  1  0
 19 31  1  0
 20 32  1  0
 20 33  1  0
 21 34  1  0
 21 35  1  0
M  ISO  8  22  14  23  14  24  14  25  14  28  13  29  13  30  13  31  13
M  ISO  4  32  13  33  13  34  13  35  13
M  END
>  <minimizedAffinity>  (1) 
-6.36849689

>  <minimizedRMSD>  (1) 
1.47798252

$$$$
