
     RDKit          3D

 29 31  0  0  1  0  0  0  0  0999 V2000
   40.1640   27.3940   43.4620 C   0  0  0  0  0  0  0  0  0  0  0  0
   38.9930   26.7940   43.8560 C   0  0  0  0  0  0  0  0  0  0  0  0
   37.9400   27.6130   43.4690 C   0  0  0  0  0  0  0  0  0  0  0  0
   38.5480   28.6830   42.8540 N   0  0  0  0  0  0  0  0  0  0  0  0
   39.8380   28.5430   42.8570 N   0  0  0  0  0  0  0  0  0  0  0  0
   43.5160   26.7440   44.9590 C   0  0  0  0  0  0  0  0  0  0  0  0
   42.2090   27.2490   44.8120 C   0  0  0  0  0  0  0  0  0  0  0  0
   41.4970   26.9030   43.6540 C   0  0  0  0  0  0  0  0  0  0  0  0
   42.0940   26.1060   42.7400 N   0  0  0  0  0  0  0  0  0  0  0  0
   43.3510   25.6400   42.9160 C   0  0  0  0  0  0  0  0  0  0  0  0
   44.0680   25.9580   44.0300 N   0  0  0  0  0  0  0  0  0  0  0  0
   38.5540   30.5370   41.3540 N   0  0  0  0  0  0  0  0  0  0  0  0
   37.5540   31.4120   40.7520 C   0  0  0  0  0  0  0  0  0  0  0  0
   36.2180   30.7570   40.9600 C   0  0  0  0  0  0  0  0  0  0  0  0
   36.6290   29.3530   41.4330 C   0  0  0  0  0  0  0  0  0  0  0  0
   37.7730   29.7590   42.3120 C   0  0  1  0  0  0  0  0  0  0  0  0
   38.9046   25.8336   44.3851 H   0  0  0  0  0  0  0  0  0  0  0  0
   36.8636   27.4443   43.6201 H   0  0  0  0  0  0  0  0  0  0  0  0
   44.0947   27.0024   45.8581 H   0  0  0  0  0  0  0  0  0  0  0  0
   41.7607   27.8947   45.5815 H   0  0  0  0  0  0  0  0  0  0  0  0
   43.8017   24.9942   42.1480 H   0  0  0  0  0  0  0  0  0  0  0  0
   39.2862   31.0834   41.8297 H   0  0  0  0  0  0  0  0  0  0  0  0
   37.7536   31.5308   39.6768 H   0  0  0  0  0  0  0  0  0  0  0  0
   37.5780   32.4113   41.2112 H   0  0  0  0  0  0  0  0  0  0  0  0
   35.6292   31.2819   41.7266 H   0  0  0  0  0  0  0  0  0  0  0  0
   35.5769   30.7570   40.0662 H   0  0  0  0  0  0  0  0  0  0  0  0
   35.8280   28.8513   41.9959 H   0  0  0  0  0  0  0  0  0  0  0  0
   36.8613   28.6246   40.6421 H   0  0  0  0  0  0  0  0  0  0  0  0
   37.4429   30.2760   43.2251 H   0  0  0  0  0  0  0  0  0  0  0  0
  1  8  1  0
  1  2  1  0
  3  2  2  0
  4  5  1  0
  4  3  1  0
  5  1  2  0
  7  6  2  0
  8  7  1  0
  9 10  1  0
  9  8  2  0
 10 11  2  0
 11  6  1  0
 12 16  1  0
 13 14  1  0
 13 12  1  0
 14 15  1  0
 16 15  1  0
 16  4  1  0
  2 17  1  0
  3 18  1  0
  6 19  1  0
  7 20  1  0
 10 21  1  0
 12 22  1  0
 13 23  1  0
 13 24  1  0
 14 25  1  0
 14 26  1  0
 15 27  1  0
 15 28  1  0
 16 29  1  1
M  ISO  8  17  14  18  14  19  14  20  14  21  14  22   5  23  13  24  13
M  ISO  5  25  13  26  13  27  13  28  13  29  13
M  END
>  <minimizedAffinity>  (1) 
-4.18626738

>  <minimizedRMSD>  (1) 
6.92376328

$$$$
