
     RDKit          3D

 54 58  0  0  0  0  0  0  0  0999 V2000
   35.1080   28.8840   40.3290 C   0  0  0  0  0  0  0  0  0  0  0  0
   36.3130   28.3350   40.7430 C   0  0  0  0  0  0  0  0  0  0  0  0
   37.0760   27.6860   39.7470 C   0  0  0  0  0  0  0  0  0  0  0  0
   36.6340   27.6160   38.4730 N   0  0  0  0  0  0  0  0  0  0  0  0
   35.4210   28.1860   38.1250 C   0  0  0  0  0  0  0  0  0  0  0  0
   34.6510   28.8250   39.0620 N   0  0  0  0  0  0  0  0  0  0  0  0
   36.7940   28.3930   42.0430 N   0  0  0  0  0  0  0  0  0  0  0  0
   36.4340   27.5910   43.0600 C   0  0  0  0  0  0  0  0  0  0  0  0
   37.1690   28.0240   44.1340 C   0  0  0  0  0  0  0  0  0  0  0  0
   37.9650   29.0800   43.7650 N   0  0  0  0  0  0  0  0  0  0  0  0
   37.7100   29.2780   42.4780 C   0  0  0  0  0  0  0  0  0  0  0  0
   38.4420   30.3490   41.8780 N   0  0  0  0  0  0  0  0  0  0  0  0
   39.7420   30.6370   42.2190 C   0  0  0  0  0  0  0  0  0  0  0  0
   40.2070   31.7050   41.5000 N   0  0  0  0  0  0  0  0  0  0  0  0
   39.2080   32.1070   40.6950 C   0  0  0  0  0  0  0  0  0  0  0  0
   39.1140   33.1220   39.7680 C   0  0  0  0  0  0  0  0  0  0  0  0
   37.9260   33.2190   39.1420 N   0  0  0  0  0  0  0  0  0  0  0  0
   36.8870   32.4180   39.3660 C   0  0  0  0  0  0  0  0  0  0  0  0
   36.9700   31.4090   40.2830 N   0  0  0  0  0  0  0  0  0  0  0  0
   38.1260   31.2770   40.9260 C   0  0  0  0  0  0  0  0  0  0  0  0
   40.1940   33.9960   39.4990 N   0  0  0  0  0  0  0  0  0  0  0  0
   34.8350   28.1860   36.7650 C   0  0  0  0  0  0  0  0  0  0  0  0
   33.7260   29.1680   36.6020 C   0  0  0  0  0  0  0  0  0  0  0  0
   34.2330   26.7980   36.5090 C   0  0  0  0  0  0  0  0  0  0  0  0
   35.9260   28.3440   35.7330 C   0  0  0  0  0  0  0  0  0  0  0  0
   35.7150   29.3380   34.7390 N   0  0  0  0  0  0  0  0  0  0  0  0
   36.6230   30.4470   35.1090 C   0  0  0  0  0  0  0  0  0  0  0  0
   36.3470   31.3660   33.9080 C   0  0  0  0  0  0  0  0  0  0  0  0
   36.5980   30.3470   32.7880 C   0  0  0  0  0  0  0  0  0  0  0  0
   36.2290   29.0050   33.4270 C   0  0  0  0  0  0  0  0  0  0  0  0
   34.4888   29.3979   41.0790 H   0  0  0  0  0  0  0  0  0  0  0  0
   38.0421   27.2320   40.0125 H   0  0  0  0  0  0  0  0  0  0  0  0
   35.7070   26.7658   43.0360 H   0  0  0  0  0  0  0  0  0  0  0  0
   37.1269   27.5888   45.1434 H   0  0  0  0  0  0  0  0  0  0  0  0
   40.3288   30.0845   42.9677 H   0  0  0  0  0  0  0  0  0  0  0  0
   35.9519   32.5701   38.8070 H   0  0  0  0  0  0  0  0  0  0  0  0
   40.0889   34.7444   38.7992 H   0  0  0  0  0  0  0  0  0  0  0  0
   41.0852   33.8837   40.0030 H   0  0  0  0  0  0  0  0  0  0  0  0
   33.3682   29.4848   37.5928 H   0  0  0  0  0  0  0  0  0  0  0  0
   34.0910   30.0444   36.0465 H   0  0  0  0  0  0  0  0  0  0  0  0
   32.9002   28.6996   36.0465 H   0  0  0  0  0  0  0  0  0  0  0  0
   34.0203   26.3076   37.4704 H   0  0  0  0  0  0  0  0  0  0  0  0
   33.2996   26.9031   35.9365 H   0  0  0  0  0  0  0  0  0  0  0  0
   34.9476   26.1883   35.9365 H   0  0  0  0  0  0  0  0  0  0  0  0
   36.8561   28.5940   36.2645 H   0  0  0  0  0  0  0  0  0  0  0  0
   35.9555   27.3881   35.1895 H   0  0  0  0  0  0  0  0  0  0  0  0
   36.3408   30.9145   36.0639 H   0  0  0  0  0  0  0  0  0  0  0  0
   37.6756   30.1725   35.2726 H   0  0  0  0  0  0  0  0  0  0  0  0
   35.3138   31.7435   33.9024 H   0  0  0  0  0  0  0  0  0  0  0  0
   36.9453   32.2879   33.8613 H   0  0  0  0  0  0  0  0  0  0  0  0
   37.6535   30.3568   32.4784 H   0  0  0  0  0  0  0  0  0  0  0  0
   36.0155   30.5606   31.8797 H   0  0  0  0  0  0  0  0  0  0  0  0
   35.4603   28.4920   32.8303 H   0  0  0  0  0  0  0  0  0  0  0  0
   37.0921   28.3255   33.4838 H   0  0  0  0  0  0  0  0  0  0  0  0
  1  2  2  0
  2  7  1  0
  3  2  1  0
  4  3  2  0
  5  4  1  0
  5  6  2  0
  6  1  1  0
  7 11  1  0
  7  8  1  0
  8  9  2  0
 10  9  1  0
 11 10  2  0
 12 13  1  0
 12 11  1  0
 14 13  2  0
 15 20  2  0
 15 14  1  0
 16 15  1  0
 17 18  1  0
 17 16  2  0
 18 19  2  0
 19 20  1  0
 20 12  1  0
 21 16  1  0
 22  5  1  0
 23 22  1  0
 24 22  1  0
 25 22  1  0
 26 27  1  0
 26 25  1  0
 28 27  1  0
 29 30  1  0
 29 28  1  0
 30 26  1  0
  1 31  1  0
  3 32  1  0
  8 33  1  0
  9 34  1  0
 13 35  1  0
 18 36  1  0
 21 37  1  0
 21 38  1  0
 23 39  1  0
 23 40  1  0
 23 41  1  0
 24 42  1  0
 24 43  1  0
 24 44  1  0
 25 45  1  0
 25 46  1  0
 27 47  1  0
 27 48  1  0
 28 49  1  0
 28 50  1  0
 29 51  1  0
 29 52  1  0
 30 53  1  0
 30 54  1  0
M  ISO  8  31  14  32  14  33  14  34  14  35  14  36  14  39   8  40   8
M  ISO  8  41   8  42   8  43   8  44   8  45   8  46   8  47  13  48  13
M  ISO  6  49  13  50  13  51  13  52  13  53  13  54  13
M  END
>  <minimizedAffinity>  (1) 
-6.1230793

>  <minimizedRMSD>  (1) 
1.32497799

$$$$
