
     RDKit          3D

 42 45  0  0  1  0  0  0  0  0999 V2000
   37.9670   30.0010   38.9230 N   0  0  0  0  0  0  0  0  0  0  0  0
   37.6990   29.6490   37.5100 C   0  0  0  0  0  0  0  0  0  0  0  0
   38.4880   28.4490   37.0740 C   0  0  0  0  0  0  0  0  0  0  0  0
   39.7950   28.4940   37.5460 O   0  0  0  0  0  0  0  0  0  0  0  0
   40.1230   29.8280   37.7690 C   0  0  0  0  0  0  0  0  0  0  0  0
   39.3340   30.3730   38.9580 C   0  0  1  0  0  0  0  0  0  0  0  0
   36.2730   30.6750   40.7530 C   0  0  1  0  0  0  0  0  0  0  0  0
   37.1590   31.8360   40.5210 C   0  0  0  0  0  0  0  0  0  0  0  0
   37.0090   30.8920   39.4120 C   0  0  1  0  0  0  0  0  0  0  0  0
   38.3530   28.9480   43.2470 C   0  0  0  0  0  0  0  0  0  0  0  0
   37.7470   27.6760   43.3360 C   0  0  0  0  0  0  0  0  0  0  0  0
   36.6220   27.4380   42.5070 C   0  0  0  0  0  0  0  0  0  0  0  0
   36.1750   28.4420   41.6640 N   0  0  0  0  0  0  0  0  0  0  0  0
   36.8050   29.6180   41.6410 C   0  0  0  0  0  0  0  0  0  0  0  0
   37.8810   29.8890   42.4130 N   0  0  0  0  0  0  0  0  0  0  0  0
   39.6460   31.7270   39.2800 N   0  0  0  0  0  0  0  0  0  0  0  0
   40.6220   31.7630   40.3690 C   0  0  0  0  0  0  0  0  0  0  0  0
   41.7580   32.6290   39.9040 C   0  0  0  0  0  0  0  0  0  0  0  0
   41.0460   33.5220   38.9060 C   0  0  0  0  0  0  0  0  0  0  0  0
   40.1580   32.5140   38.2020 C   0  0  0  0  0  0  0  0  0  0  0  0
   36.6270   29.4311   37.3948 H   0  0  0  0  0  0  0  0  0  0  0  0
   37.9995   30.5014   36.8829 H   0  0  0  0  0  0  0  0  0  0  0  0
   38.0003   27.5420   37.4606 H   0  0  0  0  0  0  0  0  0  0  0  0
   38.5205   28.4408   35.9745 H   0  0  0  0  0  0  0  0  0  0  0  0
   41.1996   29.9071   37.9802 H   0  0  0  0  0  0  0  0  0  0  0  0
   39.8723   30.4142   36.8726 H   0  0  0  0  0  0  0  0  0  0  0  0
   39.6926   29.8569   39.8608 H   0  0  0  0  0  0  0  0  0  0  0  0
   35.2285   30.5213   41.0620 H   0  0  0  0  0  0  0  0  0  0  0  0
   36.7214   32.8418   40.4377 H   0  0  0  0  0  0  0  0  0  0  0  0
   38.0291   32.2440   41.0563 H   0  0  0  0  0  0  0  0  0  0  0  0
   36.7490   31.0034   38.3490 H   0  0  0  0  0  0  0  0  0  0  0  0
   39.2291   29.1728   43.8731 H   0  0  0  0  0  0  0  0  0  0  0  0
   38.1309   26.9036   44.0186 H   0  0  0  0  0  0  0  0  0  0  0  0
   36.1090   26.4653   42.5330 H   0  0  0  0  0  0  0  0  0  0  0  0
   40.1649   32.1910   41.2734 H   0  0  0  0  0  0  0  0  0  0  0  0
   40.9732   30.7508   40.6184 H   0  0  0  0  0  0  0  0  0  0  0  0
   42.1886   33.2108   40.7323 H   0  0  0  0  0  0  0  0  0  0  0  0
   42.6128   32.0744   39.4895 H   0  0  0  0  0  0  0  0  0  0  0  0
   40.4539   34.3001   39.4100 H   0  0  0  0  0  0  0  0  0  0  0  0
   41.7168   34.0818   38.2376 H   0  0  0  0  0  0  0  0  0  0  0  0
   39.3444   33.0161   37.6580 H   0  0  0  0  0  0  0  0  0  0  0  0
   40.6925   31.9188   37.4470 H   0  0  0  0  0  0  0  0  0  0  0  0
  1  2  1  0
  1  6  1  0
  1  9  1  0
  3  2  1  0
  3  4  1  0
  4  5  1  0
  5  6  1  0
  6 16  1  0
  7 14  1  0
  8  7  1  0
  9  8  1  0
  9  7  1  0
 10 11  2  0
 12 11  1  0
 13 12  2  0
 14 13  1  0
 14 15  2  0
 15 10  1  0
 16 17  1  0
 18 17  1  0
 19 18  1  0
 20 19  1  0
 20 16  1  0
  2 21  1  0
  2 22  1  0
  3 23  1  0
  3 24  1  0
  5 25  1  0
  5 26  1  0
  6 27  1  1
  7 28  1  6
  8 29  1  0
  8 30  1  0
  9 31  1  6
 10 32  1  0
 11 33  1  0
 12 34  1  0
 17 35  1  0
 17 36  1  0
 18 37  1  0
 18 38  1  0
 19 39  1  0
 19 40  1  0
 20 41  1  0
 20 42  1  0
M  ISO  8  21  13  22  13  23  13  24  13  25  13  26  13  27  13  28  13
M  ISO  8  29  13  30  13  31  13  32  14  33  14  34  14  35  13  36  13
M  ISO  6  37  13  38  13  39  13  40  13  41  13  42  13
M  END
>  <minimizedAffinity>  (1) 
-4.67503214

>  <minimizedRMSD>  (1) 
0.168285921

$$$$
