
     RDKit          3D

 48 53  0  0  1  0  0  0  0  0999 V2000
   35.9220   30.5370   40.8730 C   0  0  0  0  0  0  0  0  0  0  0  0
   36.4550   29.3860   41.4910 C   0  0  0  0  0  0  0  0  0  0  0  0
   37.8270   29.2510   41.5770 C   0  0  0  0  0  0  0  0  0  0  0  0
   38.5720   30.2620   41.0490 N   0  0  0  0  0  0  0  0  0  0  0  0
   38.0510   31.3580   40.4610 C   0  0  0  0  0  0  0  0  0  0  0  0
   36.7170   31.4880   40.3750 N   0  0  0  0  0  0  0  0  0  0  0  0
   38.3740   28.0770   42.1930 C   0  0  0  0  0  0  0  0  0  0  0  0
   39.3370   28.0170   43.1940 C   0  0  0  0  0  0  0  0  0  0  0  0
   39.5730   26.7160   43.5010 N   0  0  0  0  0  0  0  0  0  0  0  0
   38.7990   25.9100   42.7380 C   0  0  0  0  0  0  0  0  0  0  0  0
   38.6520   24.5430   42.6530 C   0  0  0  0  0  0  0  0  0  0  0  0
   37.7530   23.9760   41.7490 C   0  0  0  0  0  0  0  0  0  0  0  0
   37.0270   24.8430   40.9510 C   0  0  0  0  0  0  0  0  0  0  0  0
   37.1850   26.1960   41.0480 C   0  0  0  0  0  0  0  0  0  0  0  0
   38.0640   26.7580   41.9350 C   0  0  0  0  0  0  0  0  0  0  0  0
   38.9650   32.4330   39.9350 C   0  0  1  0  0  0  0  0  0  0  0  0
   38.9930   33.7540   40.7290 C   0  0  0  0  0  0  0  0  0  0  0  0
   40.1370   32.8180   40.7570 C   0  0  2  0  0  0  0  0  0  0  0  0
   41.4320   33.1530   40.1200 C   0  0  0  0  0  0  0  0  0  0  0  0
   42.2140   34.2090   40.3960 N   0  0  0  0  0  0  0  0  0  0  0  0
   43.2660   34.1820   39.6230 O   0  0  0  0  0  0  0  0  0  0  0  0
   43.2100   33.1230   38.8290 C   0  0  0  0  0  0  0  0  0  0  0  0
   42.0530   32.4790   39.1460 N   0  0  0  0  0  0  0  0  0  0  0  0
   44.2290   32.8400   37.8760 N   0  0  0  0  0  0  0  0  0  0  0  0
   45.4640   33.5860   37.5830 C   0  0  0  0  0  0  0  0  0  0  0  0
   46.4690   32.4970   37.9850 C   0  0  0  0  0  0  0  0  0  0  0  0
   45.8420   31.3060   37.2680 C   0  0  0  0  0  0  0  0  0  0  0  0
   44.4410   31.7730   36.8820 C   0  0  0  0  0  0  0  0  0  0  0  0
   34.8306   30.6535   40.7999 H   0  0  0  0  0  0  0  0  0  0  0  0
   35.7897   28.6099   41.8971 H   0  0  0  0  0  0  0  0  0  0  0  0
   39.8280   28.8833   43.6614 H   0  0  0  0  0  0  0  0  0  0  0  0
   40.2437   26.3898   44.2114 H   0  0  0  0  0  0  0  0  0  0  0  0
   39.2506   23.8905   43.3057 H   0  0  0  0  0  0  0  0  0  0  0  0
   37.6266   22.8859   41.6737 H   0  0  0  0  0  0  0  0  0  0  0  0
   36.3090   24.4344   40.2247 H   0  0  0  0  0  0  0  0  0  0  0  0
   36.5900   26.8523   40.3959 H   0  0  0  0  0  0  0  0  0  0  0  0
   38.8159   32.1354   38.8866 H   0  0  0  0  0  0  0  0  0  0  0  0
   39.0773   34.7153   40.2011 H   0  0  0  0  0  0  0  0  0  0  0  0
   38.3497   34.2303   41.4835 H   0  0  0  0  0  0  0  0  0  0  0  0
   40.6964   32.3322   41.5701 H   0  0  0  0  0  0  0  0  0  0  0  0
   45.5454   33.8567   36.5200 H   0  0  0  0  0  0  0  0  0  0  0  0
   45.5744   34.5565   38.0889 H   0  0  0  0  0  0  0  0  0  0  0  0
   47.4813   32.7143   37.6134 H   0  0  0  0  0  0  0  0  0  0  0  0
   46.6162   32.3697   39.0676 H   0  0  0  0  0  0  0  0  0  0  0  0
   46.4233   31.0441   36.3716 H   0  0  0  0  0  0  0  0  0  0  0  0
   45.8190   30.4068   37.9011 H   0  0  0  0  0  0  0  0  0  0  0  0
   44.4123   32.1641   35.8543 H   0  0  0  0  0  0  0  0  0  0  0  0
   43.6765   30.9821   36.8890 H   0  0  0  0  0  0  0  0  0  0  0  0
  1  2  2  0
  2  3  1  0
  3  7  1  0
  4  3  2  0
  5  4  1  0
  6  5  2  0
  6  1  1  0
  7  8  2  0
  8  9  1  0
 10  9  1  0
 11 10  2  0
 12 11  1  0
 13 14  1  0
 13 12  2  0
 14 15  2  0
 15  7  1  0
 15 10  1  0
 16  5  1  0
 16 17  1  0
 16 18  1  0
 17 18  1  0
 19 20  2  0
 19 18  1  0
 21 20  1  0
 22 23  2  0
 22 21  1  0
 23 19  1  0
 24 22  1  0
 25 24  1  0
 25 26  1  0
 27 26  1  0
 28 27  1  0
 28 24  1  0
  1 29  1  0
  2 30  1  0
  8 31  1  0
  9 32  1  0
 11 33  1  0
 12 34  1  0
 13 35  1  0
 14 36  1  0
 16 37  1  6
 17 38  1  0
 17 39  1  0
 18 40  1  1
 25 41  1  0
 25 42  1  0
 26 43  1  0
 26 44  1  0
 27 45  1  0
 27 46  1  0
 28 47  1  0
 28 48  1  0
M  ISO  8  29  14  30  14  31  14  32   9  33  14  34  14  35  14  36  14
M  ISO  8  37  13  38  13  39  13  40  13  41  13  42  13  43  13  44  13
M  ISO  4  45  13  46  13  47  13  48  13
M  END
>  <minimizedAffinity>  (1) 
-6.4898262

>  <minimizedRMSD>  (1) 
1.37762499

$$$$
