
     RDKit          3D

 37 38  0  0  1  0  0  0  0  0999 V2000
   37.0910   27.2560   40.0240 C   0  0  2  0  0  0  0  0  0  0  0  0
   36.8330   25.8260   40.4220 C   0  0  0  0  0  0  0  0  0  0  0  0
   36.0420   25.3340   39.2260 C   0  0  0  0  0  0  0  0  0  0  0  0
   36.4950   26.1520   38.0750 C   0  0  0  0  0  0  0  0  0  0  0  0
   37.6430   27.0670   38.6300 C   0  0  1  0  0  0  0  0  0  0  0  0
   38.9030   29.6380   42.2820 C   0  0  0  0  0  0  0  0  0  0  0  0
   38.0900   29.2420   41.1490 C   0  0  0  0  0  0  0  0  0  0  0  0
   37.9510   27.9040   40.9760 C   0  0  0  0  0  0  0  0  0  0  0  0
   38.5790   27.0440   41.8670 N   0  0  0  0  0  0  0  0  0  0  0  0
   39.3150   27.4590   42.8920 C   0  0  0  0  0  0  0  0  0  0  0  0
   39.4780   28.7710   43.1000 N   0  0  0  0  0  0  0  0  0  0  0  0
   37.5780   30.2380   40.3230 N   0  0  0  0  0  0  0  0  0  0  0  0
   36.5720   31.1750   40.7190 C   0  0  0  0  0  0  0  0  0  0  0  0
   35.6620   30.7410   41.5290 N   0  0  0  0  0  0  0  0  0  0  0  0
   36.7030   32.5200   40.1740 N   0  0  0  0  0  0  0  0  0  0  0  0
   34.9100   31.3500   41.8820 H   0  0  0  0  0  0  0  0  0  0  0  0
   37.4940   28.2180   37.7700 N   0  0  0  0  0  0  0  0  0  0  0  0
   38.2120   27.9890   36.5280 C   0  0  0  0  0  0  0  0  0  0  0  0
   39.1980   27.1320   36.4140 N   0  0  0  0  0  0  0  0  0  0  0  0
   37.9010   28.6870   35.2990 N   0  0  0  0  0  0  0  0  0  0  0  0
   39.7140   26.9640   35.5340 H   0  0  0  0  0  0  0  0  0  0  0  0
   36.2265   27.9361   40.0196 H   0  0  0  0  0  0  0  0  0  0  0  0
   37.7711   25.2649   40.5450 H   0  0  0  0  0  0  0  0  0  0  0  0
   36.3181   25.7086   41.3869 H   0  0  0  0  0  0  0  0  0  0  0  0
   36.2477   24.2690   39.0431 H   0  0  0  0  0  0  0  0  0  0  0  0
   34.9587   25.4323   39.3900 H   0  0  0  0  0  0  0  0  0  0  0  0
   35.6669   26.7659   37.6912 H   0  0  0  0  0  0  0  0  0  0  0  0
   36.8435   25.5234   37.2423 H   0  0  0  0  0  0  0  0  0  0  0  0
   38.7014   26.7681   38.6534 H   0  0  0  0  0  0  0  0  0  0  0  0
   39.0491   30.7117   42.4711 H   0  0  0  0  0  0  0  0  0  0  0  0
   39.7875   26.7289   43.5656 H   0  0  0  0  0  0  0  0  0  0  0  0
   37.9474   30.3050   39.3639 H   0  0  0  0  0  0  0  0  0  0  0  0
   36.0126   33.2442   40.4185 H   0  0  0  0  0  0  0  0  0  0  0  0
   37.4860   32.7465   39.5443 H   0  0  0  0  0  0  0  0  0  0  0  0
   36.9615   29.0688   38.0014 H   0  0  0  0  0  0  0  0  0  0  0  0
   38.4399   28.4891   34.4438 H   0  0  0  0  0  0  0  0  0  0  0  0
   37.1408   29.3817   35.2795 H   0  0  0  0  0  0  0  0  0  0  0  0
  1  2  1  0
  1  8  1  0
  3  2  1  0
  4  5  1  0
  4  3  1  0
  5  1  1  0
  6 11  2  0
  7  6  1  0
  8  7  2  0
  8  9  1  0
  9 10  2  0
 10 11  1  0
 12 13  1  0
 12  7  1  0
 13 14  2  0
 14 16  1  0
 15 13  1  0
 17  5  1  0
 18 17  1  0
 19 18  2  0
 20 18  1  0
 21 19  1  0
  1 22  1  6
  2 23  1  0
  2 24  1  0
  3 25  1  0
  3 26  1  0
  4 27  1  0
  4 28  1  0
  5 29  1  1
  6 30  1  0
 10 31  1  0
 12 32  1  0
 15 33  1  0
 15 34  1  0
 17 35  1  0
 20 36  1  0
 20 37  1  0
M  ISO  8  22  13  23  13  24  13  25  13  26  13  27  13  28  13  29  13
M  ISO  2  30  14  31  14
M  END
>  <minimizedAffinity>  (1) 
-5.2187109

>  <minimizedRMSD>  (1) 
0.695064723

$$$$
