
     RDKit          3D

 47 50  0  0  1  0  0  0  0  0999 V2000
   42.4550   35.0500   40.6850 O   0  0  0  0  0  0  0  0  0  0  0  0
   38.8930   35.4840   40.2450 C   0  0  0  0  0  0  0  0  0  0  0  0
   40.2440   35.8570   40.3600 C   0  0  0  0  0  0  0  0  0  0  0  0
   41.1670   34.8060   40.5620 C   0  0  0  0  0  0  0  0  0  0  0  0
   40.6600   33.5900   40.6210 N   0  0  0  0  0  0  0  0  0  0  0  0
   39.4100   33.2000   40.5200 C   0  0  0  0  0  0  0  0  0  0  0  0
   38.5550   34.2000   40.3300 N   0  0  0  0  0  0  0  0  0  0  0  0
   38.7530   31.9050   40.5720 C   0  0  0  0  0  0  0  0  0  0  0  0
   38.6600   31.1590   41.6940 N   0  0  0  0  0  0  0  0  0  0  0  0
   38.0690   29.9760   41.7770 C   0  0  0  0  0  0  0  0  0  0  0  0
   37.5070   29.4230   40.7220 N   0  0  0  0  0  0  0  0  0  0  0  0
   37.5310   30.0680   39.5280 C   0  0  0  0  0  0  0  0  0  0  0  0
   36.9460   29.4970   38.4200 C   0  0  0  0  0  0  0  0  0  0  0  0
   36.9540   30.1190   37.2140 C   0  0  0  0  0  0  0  0  0  0  0  0
   37.5860   31.3890   37.1210 C   0  0  0  0  0  0  0  0  0  0  0  0
   38.1470   31.8930   38.2700 C   0  0  0  0  0  0  0  0  0  0  0  0
   38.1570   31.2960   39.4910 C   0  0  0  0  0  0  0  0  0  0  0  0
   43.2240   34.8420   41.8520 C   0  0  2  0  0  0  0  0  0  0  0  0
   43.0390   36.1820   42.6710 C   0  0  0  0  0  0  0  0  0  0  0  0
   44.6670   34.6610   41.5620 C   0  0  0  0  0  0  0  0  0  0  0  0
   45.3010   34.1900   42.7880 N   0  0  0  0  0  0  0  0  0  0  0  0
   46.3570   34.7990   43.3920 C   0  0  0  0  0  0  0  0  0  0  0  0
   46.7050   34.1210   44.5010 N   0  0  0  0  0  0  0  0  0  0  0  0
   45.8360   33.0630   44.5780 C   0  0  0  0  0  0  0  0  0  0  0  0
   44.9940   33.1310   43.5230 N   0  0  0  0  0  0  0  0  0  0  0  0
   45.8450   32.0790   45.6060 N   0  0  0  0  0  0  0  0  0  0  0  0
   46.5820   32.3450   46.7940 C   0  0  0  0  0  0  0  0  0  0  0  0
   47.5280   33.2220   46.7530 N   0  0  0  0  0  0  0  0  0  0  0  0
   46.2250   31.6140   47.9770 N   0  0  0  0  0  0  0  0  0  0  0  0
   48.1350   33.5100   47.5260 H   0  0  0  0  0  0  0  0  0  0  0  0
   38.1197   36.2499   40.0856 H   0  0  0  0  0  0  0  0  0  0  0  0
   40.5643   36.9074   40.2963 H   0  0  0  0  0  0  0  0  0  0  0  0
   38.0474   29.4478   42.7416 H   0  0  0  0  0  0  0  0  0  0  0  0
   36.4611   28.5142   38.5146 H   0  0  0  0  0  0  0  0  0  0  0  0
   36.4852   29.6541   36.3341 H   0  0  0  0  0  0  0  0  0  0  0  0
   37.6243   31.9436   36.1718 H   0  0  0  0  0  0  0  0  0  0  0  0
   38.6357   32.8756   38.1940 H   0  0  0  0  0  0  0  0  0  0  0  0
   42.8987   33.9319   42.3772 H   0  0  0  0  0  0  0  0  0  0  0  0
   43.0696   35.9606   43.7481 H   0  0  0  0  0  0  0  0  0  0  0  0
   43.8491   36.8816   42.4173 H   0  0  0  0  0  0  0  0  0  0  0  0
   42.0697   36.6359   42.4173 H   0  0  0  0  0  0  0  0  0  0  0  0
   44.7996   33.9190   40.7608 H   0  0  0  0  0  0  0  0  0  0  0  0
   45.1186   35.6072   41.2292 H   0  0  0  0  0  0  0  0  0  0  0  0
   46.8530   35.7108   43.0277 H   0  0  0  0  0  0  0  0  0  0  0  0
   45.3298   31.1943   45.4928 H   0  0  0  0  0  0  0  0  0  0  0  0
   46.7345   31.7778   48.8570 H   0  0  0  0  0  0  0  0  0  0  0  0
   45.4593   30.9258   47.9457 H   0  0  0  0  0  0  0  0  0  0  0  0
  1 18  1  0
  2  7  2  0
  2  3  1  0
  3  4  2  0
  4  5  1  0
  4  1  1  0
  6  8  1  0
  6  5  2  0
  7  6  1  0
  8  9  2  0
  9 10  1  0
 11 10  2  0
 12 11  1  0
 13 12  2  0
 14 13  1  0
 15 14  2  0
 15 16  1  0
 16 17  2  0
 17 12  1  0
 17  8  1  0
 18 19  1  0
 20 18  1  0
 20 21  1  0
 21 22  1  0
 21 25  1  0
 22 23  2  0
 23 24  1  0
 24 26  1  0
 25 24  2  0
 26 27  1  0
 27 29  1  0
 28 27  2  0
 28 30  1  0
  2 31  1  0
  3 32  1  0
 10 33  1  0
 13 34  1  0
 14 35  1  0
 15 36  1  0
 16 37  1  0
 18 38  1  1
 19 39  1  0
 19 40  1  0
 19 41  1  0
 20 42  1  0
 20 43  1  0
 22 44  1  0
 26 45  1  0
 29 46  1  0
 29 47  1  0
M  END
>  <minimizedAffinity>  (1) 
-7.19379377

>  <minimizedRMSD>  (1) 
0.233118936

$$$$
