
     RDKit          3D

 45 48  0  0  0  0  0  0  0  0999 V2000
   40.2020   36.5720   40.3570 S   0  0  0  0  0  0  0  0  0  0  0  0
   43.4950   34.7470   41.5900 C   0  0  0  0  0  0  0  0  0  0  0  0
   43.8640   35.4230   42.7590 C   0  0  0  0  0  0  0  0  0  0  0  0
   43.0760   36.4610   43.1840 C   0  0  0  0  0  0  0  0  0  0  0  0
   41.9750   36.7800   42.4420 N   0  0  0  0  0  0  0  0  0  0  0  0
   41.6430   36.1170   41.3240 C   0  0  0  0  0  0  0  0  0  0  0  0
   42.3970   35.1160   40.9110 N   0  0  0  0  0  0  0  0  0  0  0  0
   43.4550   37.1820   44.4260 C   0  0  0  0  0  0  0  0  0  0  0  0
   44.6310   38.0940   44.2480 C   0  0  0  0  0  0  0  0  0  0  0  0
   44.6490   39.0600   45.3300 N   0  0  0  0  0  0  0  0  0  0  0  0
   44.1800   40.3610   44.9120 C   0  0  0  0  0  0  0  0  0  0  0  0
   43.4630   40.6230   43.8700 N   0  0  0  0  0  0  0  0  0  0  0  0
   44.5320   41.5070   45.7230 N   0  0  0  0  0  0  0  0  0  0  0  0
   43.1820   39.8410   43.2500 H   0  0  0  0  0  0  0  0  0  0  0  0
   37.4290   33.7830   40.0320 N   0  0  0  0  0  0  0  0  0  0  0  0
   37.8150   35.0060   39.7820 N   0  0  0  0  0  0  0  0  0  0  0  0
   39.0740   35.1720   40.2750 C   0  0  0  0  0  0  0  0  0  0  0  0
   39.3850   33.9370   40.8300 C   0  0  0  0  0  0  0  0  0  0  0  0
   38.2980   33.0550   40.6600 C   0  0  0  0  0  0  0  0  0  0  0  0
   38.3800   31.7530   41.1980 C   0  0  0  0  0  0  0  0  0  0  0  0
   39.4430   31.4080   41.9810 N   0  0  0  0  0  0  0  0  0  0  0  0
   39.6310   30.2510   42.5770 C   0  0  0  0  0  0  0  0  0  0  0  0
   38.7530   29.2460   42.4670 N   0  0  0  0  0  0  0  0  0  0  0  0
   37.6580   29.4570   41.7180 C   0  0  0  0  0  0  0  0  0  0  0  0
   36.7270   28.4700   41.5720 C   0  0  0  0  0  0  0  0  0  0  0  0
   35.5840   28.6630   40.8020 C   0  0  0  0  0  0  0  0  0  0  0  0
   35.4330   29.9070   40.1830 C   0  0  0  0  0  0  0  0  0  0  0  0
   36.4210   30.8380   40.3880 C   0  0  0  0  0  0  0  0  0  0  0  0
   37.5360   30.6890   41.1300 C   0  0  0  0  0  0  0  0  0  0  0  0
   44.1077   33.9092   41.2258 H   0  0  0  0  0  0  0  0  0  0  0  0
   44.7624   35.1290   43.3216 H   0  0  0  0  0  0  0  0  0  0  0  0
   42.5949   37.7824   44.7572 H   0  0  0  0  0  0  0  0  0  0  0  0
   43.7417   36.4226   45.1684 H   0  0  0  0  0  0  0  0  0  0  0  0
   45.5599   37.5051   44.2642 H   0  0  0  0  0  0  0  0  0  0  0  0
   44.5518   38.6179   43.2840 H   0  0  0  0  0  0  0  0  0  0  0  0
   44.9607   38.8431   46.2874 H   0  0  0  0  0  0  0  0  0  0  0  0
   44.2127   42.4478   45.4513 H   0  0  0  0  0  0  0  0  0  0  0  0
   45.1018   41.3817   46.5718 H   0  0  0  0  0  0  0  0  0  0  0  0
   36.5049   33.4249   39.7515 H   0  0  0  0  0  0  0  0  0  0  0  0
   40.3340   33.6856   41.3262 H   0  0  0  0  0  0  0  0  0  0  0  0
   40.5365   30.1044   43.1840 H   0  0  0  0  0  0  0  0  0  0  0  0
   36.8831   27.5031   42.0727 H   0  0  0  0  0  0  0  0  0  0  0  0
   34.8309   27.8697   40.6854 H   0  0  0  0  0  0  0  0  0  0  0  0
   34.5572   30.1313   39.5564 H   0  0  0  0  0  0  0  0  0  0  0  0
   36.2880   31.8112   39.8928 H   0  0  0  0  0  0  0  0  0  0  0  0
  1  6  1  0
  2  3  2  0
  3  4  1  0
  4  8  1  0
  5  4  2  0
  6  5  1  0
  7  6  2  0
  7  2  1  0
  9  8  1  0
  9 10  1  0
 11 10  1  0
 11 13  1  0
 12 11  2  0
 14 12  1  0
 15 19  1  0
 16 15  1  0
 16 17  2  0
 17  1  1  0
 17 18  1  0
 19 18  2  0
 19 20  1  0
 20 21  2  0
 21 22  1  0
 23 22  2  0
 24 23  1  0
 25 24  2  0
 26 25  1  0
 27 28  1  0
 27 26  2  0
 28 29  2  0
 29 20  1  0
 29 24  1  0
  2 30  1  0
  3 31  1  0
  8 32  1  0
  8 33  1  0
  9 34  1  0
  9 35  1  0
 10 36  1  0
 13 37  1  0
 13 38  1  0
 15 39  1  0
 18 40  1  0
 22 41  1  0
 25 42  1  0
 26 43  1  0
 27 44  1  0
 28 45  1  0
M  END
>  <minimizedAffinity>  (1) 
-7.58962345

>  <minimizedRMSD>  (1) 
0.82696712

$$$$
