
     RDKit          3D

 47 50  0  0  0  0  0  0  0  0999 V2000
   35.9780   30.0340   40.9390 C   0  0  0  0  0  0  0  0  0  0  0  0
   38.5090   28.2440   42.5920 C   0  0  0  0  0  0  0  0  0  0  0  0
   37.4640   27.3640   42.6920 C   0  0  0  0  0  0  0  0  0  0  0  0
   36.3740   27.9660   42.0600 C   0  0  0  0  0  0  0  0  0  0  0  0
   36.8490   29.1490   41.6350 N   0  0  0  0  0  0  0  0  0  0  0  0
   38.0970   29.3520   41.9260 N   0  0  0  0  0  0  0  0  0  0  0  0
   41.4790   26.7560   44.2860 C   0  0  0  0  0  0  0  0  0  0  0  0
   40.1690   26.8890   43.8110 C   0  0  0  0  0  0  0  0  0  0  0  0
   39.8510   28.0560   43.1040 C   0  0  0  0  0  0  0  0  0  0  0  0
   40.7970   28.9900   42.9100 N   0  0  0  0  0  0  0  0  0  0  0  0
   42.0640   28.8130   43.3950 C   0  0  0  0  0  0  0  0  0  0  0  0
   42.3910   27.7090   44.0720 N   0  0  0  0  0  0  0  0  0  0  0  0
   43.0270   29.8320   43.1610 N   0  0  0  0  0  0  0  0  0  0  0  0
   42.6680   31.1940   43.3630 C   0  0  0  0  0  0  0  0  0  0  0  0
   41.4110   31.5190   43.2130 N   0  0  0  0  0  0  0  0  0  0  0  0
   43.6740   32.1400   43.7160 N   0  0  0  0  0  0  0  0  0  0  0  0
   41.1830   32.5250   43.3690 H   0  0  0  0  0  0  0  0  0  0  0  0
   35.1420   29.4040   39.8680 C   0  0  0  0  0  0  0  0  0  0  0  0
   35.7820   29.3510   38.5240 C   0  0  0  0  0  0  0  0  0  0  0  0
   37.1090   29.4850   38.2310 C   0  0  0  0  0  0  0  0  0  0  0  0
   37.6490   29.5190   36.9820 C   0  0  0  0  0  0  0  0  0  0  0  0
   36.8230   29.4150   35.8900 C   0  0  0  0  0  0  0  0  0  0  0  0
   35.4700   29.2750   36.1160 C   0  0  0  0  0  0  0  0  0  0  0  0
   34.6860   29.1830   34.9880 C   0  0  0  0  0  0  0  0  0  0  0  0
   33.3360   29.0450   35.1070 C   0  0  0  0  0  0  0  0  0  0  0  0
   32.7670   28.9950   36.3650 C   0  0  0  0  0  0  0  0  0  0  0  0
   33.5970   29.0910   37.4540 C   0  0  0  0  0  0  0  0  0  0  0  0
   34.9420   29.2380   37.4040 C   0  0  0  0  0  0  0  0  0  0  0  0
   32.9730   29.0130   38.6860 O   0  0  0  0  0  0  0  0  0  0  0  0
   35.2993   30.4901   41.6747 H   0  0  0  0  0  0  0  0  0  0  0  0
   36.6286   30.7589   40.4278 H   0  0  0  0  0  0  0  0  0  0  0  0
   37.4803   26.3762   43.1756 H   0  0  0  0  0  0  0  0  0  0  0  0
   35.3576   27.5634   41.9378 H   0  0  0  0  0  0  0  0  0  0  0  0
   41.7625   25.8519   44.8448 H   0  0  0  0  0  0  0  0  0  0  0  0
   39.4167   26.1059   43.9864 H   0  0  0  0  0  0  0  0  0  0  0  0
   43.9770   29.5865   42.8478 H   0  0  0  0  0  0  0  0  0  0  0  0
   43.4228   33.1279   43.8641 H   0  0  0  0  0  0  0  0  0  0  0  0
   44.6522   31.8358   43.8230 H   0  0  0  0  0  0  0  0  0  0  0  0
   34.9098   28.3741   40.1770 H   0  0  0  0  0  0  0  0  0  0  0  0
   34.2492   30.0375   39.7603 H   0  0  0  0  0  0  0  0  0  0  0  0
   37.8032   29.5733   39.0797 H   0  0  0  0  0  0  0  0  0  0  0  0
   38.7354   29.6286   36.8488 H   0  0  0  0  0  0  0  0  0  0  0  0
   37.2278   29.4425   34.8675 H   0  0  0  0  0  0  0  0  0  0  0  0
   35.1495   29.2209   33.9911 H   0  0  0  0  0  0  0  0  0  0  0  0
   32.7044   28.9740   34.2092 H   0  0  0  0  0  0  0  0  0  0  0  0
   31.6801   28.8815   36.4903 H   0  0  0  0  0  0  0  0  0  0  0  0
   33.5081   29.0745   39.5167 H   0  0  0  0  0  0  0  0  0  0  0  0
  1  5  1  0
  2  3  1  0
  2  9  1  0
  4  3  2  0
  5  6  1  0
  5  4  1  0
  6  2  2  0
  8  7  2  0
  9  8  1  0
 10  9  2  0
 10 11  1  0
 11 12  2  0
 12  7  1  0
 13 14  1  0
 13 11  1  0
 14 16  1  0
 15 14  2  0
 15 17  1  0
 18  1  1  0
 19 18  1  0
 20 19  2  0
 21 20  1  0
 22 23  1  0
 22 21  2  0
 23 28  2  0
 24 25  2  0
 24 23  1  0
 25 26  1  0
 26 27  2  0
 27 29  1  0
 28 27  1  0
 28 19  1  0
  1 30  1  0
  1 31  1  0
  3 32  1  0
  4 33  1  0
  7 34  1  0
  8 35  1  0
 13 36  1  0
 16 37  1  0
 16 38  1  0
 18 39  1  0
 18 40  1  0
 20 41  1  0
 21 42  1  0
 22 43  1  0
 24 44  1  0
 25 45  1  0
 26 46  1  0
 29 47  1  0
M  ISO  8  30   8  31   8  32  14  33  14  34  14  35  14  39   8  40   8
M  ISO  7  41  14  42  14  43  14  44  14  45  14  46  14  47   3
M  END
>  <minimizedAffinity>  (1) 
-6.71953297

>  <minimizedRMSD>  (1) 
0.321968645

$$$$
