
     RDKit          3D

 35 37  0  0  0  0  0  0  0  0999 V2000
   39.4900   30.8010   41.5060 C   0  0  0  0  0  0  0  0  0  0  0  0
   39.4590   29.4230   41.6660 C   0  0  0  0  0  0  0  0  0  0  0  0
   38.6200   28.6720   40.8360 C   0  0  0  0  0  0  0  0  0  0  0  0
   37.8770   29.3650   39.9050 N   0  0  0  0  0  0  0  0  0  0  0  0
   37.9470   30.6980   39.7930 C   0  0  0  0  0  0  0  0  0  0  0  0
   38.7460   31.4100   40.5870 N   0  0  0  0  0  0  0  0  0  0  0  0
   38.4440   27.2580   40.8360 N   0  0  0  0  0  0  0  0  0  0  0  0
   37.4570   26.5970   41.6340 C   0  0  0  0  0  0  0  0  0  0  0  0
   36.9960   27.2350   42.6740 N   0  0  0  0  0  0  0  0  0  0  0  0
   37.0220   25.2910   41.2710 N   0  0  0  0  0  0  0  0  0  0  0  0
   36.2890   26.7560   43.2410 H   0  0  0  0  0  0  0  0  0  0  0  0
   40.2220   28.6410   42.6350 C   0  0  0  0  0  0  0  0  0  0  0  0
   39.8570   27.6400   43.4440 N   0  0  0  0  0  0  0  0  0  0  0  0
   40.8920   27.2470   44.1380 O   0  0  0  0  0  0  0  0  0  0  0  0
   41.9450   27.9600   43.8180 C   0  0  0  0  0  0  0  0  0  0  0  0
   41.5330   28.8230   42.8870 N   0  0  0  0  0  0  0  0  0  0  0  0
   43.2890   27.9400   44.2670 N   0  0  0  0  0  0  0  0  0  0  0  0
   44.1910   28.4450   43.3840 C   0  0  0  0  0  0  0  0  0  0  0  0
   45.5270   28.4770   43.7110 C   0  0  0  0  0  0  0  0  0  0  0  0
   45.8420   27.9650   44.9800 C   0  0  0  0  0  0  0  0  0  0  0  0
   47.0560   27.9800   45.3140 O   0  0  0  0  0  0  0  0  0  0  0  0
   44.9250   27.4770   45.8210 N   0  0  0  0  0  0  0  0  0  0  0  0
   43.6410   27.4640   45.4630 C   0  0  0  0  0  0  0  0  0  0  0  0
   42.7610   27.0160   46.2230 O   0  0  0  0  0  0  0  0  0  0  0  0
   37.1010   31.3310   38.7590 C   0  0  0  0  0  0  0  0  0  0  0  0
   36.6080   32.5330   39.2250 F   0  0  0  0  0  0  0  0  0  0  0  0
   37.8000   31.5250   37.5990 F   0  0  0  0  0  0  0  0  0  0  0  0
   35.9860   30.5230   38.5100 F   0  0  0  0  0  0  0  0  0  0  0  0
   40.1444   31.4030   42.1536 H   0  0  0  0  0  0  0  0  0  0  0  0
   39.0544   26.6862   40.2349 H   0  0  0  0  0  0  0  0  0  0  0  0
   36.3120   24.8080   41.8398 H   0  0  0  0  0  0  0  0  0  0  0  0
   37.4173   24.8291   40.4396 H   0  0  0  0  0  0  0  0  0  0  0  0
   43.8531   28.8275   42.4095 H   0  0  0  0  0  0  0  0  0  0  0  0
   46.2924   28.8746   43.0283 H   0  0  0  0  0  0  0  0  0  0  0  0
   45.2091   27.1126   46.7415 H   0  0  0  0  0  0  0  0  0  0  0  0
  1  2  2  0
  2 12  1  0
  3  7  1  0
  3  2  1  0
  4  3  2  0
  5  4  1  0
  5  6  2  0
  6  1  1  0
  7  8  1  0
  8  9  2  0
  9 11  1  0
 10  8  1  0
 12 16  1  0
 12 13  2  0
 13 14  1  0
 15 14  1  0
 15 17  1  0
 16 15  2  0
 17 23  1  0
 18 19  2  0
 18 17  1  0
 19 20  1  0
 20 21  2  0
 20 22  1  0
 23 22  1  0
 23 24  2  0
 25 26  1  0
 25  5  1  0
 27 25  1  0
 28 25  1  0
  1 29  1  0
  7 30  1  0
 10 31  1  0
 10 32  1  0
 18 33  1  0
 19 34  1  0
 22 35  1  0
M  ISO  4  29  14  33  14  34  14  35   9
M  END
>  <minimizedAffinity>  (1) 
-5.46290779

>  <minimizedRMSD>  (1) 
0.634636819

$$$$
