
     RDKit          3D

 45 48  0  0  0  0  0  0  0  0999 V2000
   37.4660   29.7030   39.9780 C   0  0  0  0  0  0  0  0  0  0  0  0
   36.6350   29.7530   38.8440 C   0  0  0  0  0  0  0  0  0  0  0  0
   36.7980   30.6700   37.8210 C   0  0  0  0  0  0  0  0  0  0  0  0
   37.8320   31.5470   37.9690 N   0  0  0  0  0  0  0  0  0  0  0  0
   38.6350   31.5310   39.0200 C   0  0  0  0  0  0  0  0  0  0  0  0
   38.4460   30.6320   39.9850 N   0  0  0  0  0  0  0  0  0  0  0  0
   37.4340   28.8600   41.1040 C   0  0  0  0  0  0  0  0  0  0  0  0
   37.6120   29.5050   42.3460 C   0  0  0  0  0  0  0  0  0  0  0  0
   37.6100   28.8500   43.5690 C   0  0  0  0  0  0  0  0  0  0  0  0
   37.4220   27.4740   43.5730 C   0  0  0  0  0  0  0  0  0  0  0  0
   37.2430   26.7840   42.3900 C   0  0  0  0  0  0  0  0  0  0  0  0
   37.0560   25.4280   42.3810 C   0  0  0  0  0  0  0  0  0  0  0  0
   36.8770   24.7170   41.2340 C   0  0  0  0  0  0  0  0  0  0  0  0
   36.8960   25.4580   40.0820 C   0  0  0  0  0  0  0  0  0  0  0  0
   37.0830   26.8130   40.0880 C   0  0  0  0  0  0  0  0  0  0  0  0
   37.2610   27.5170   41.2350 C   0  0  0  0  0  0  0  0  0  0  0  0
   39.7110   32.5180   39.0800 C   0  0  0  0  0  0  0  0  0  0  0  0
   39.5000   33.6660   39.5600 O   0  0  0  0  0  0  0  0  0  0  0  0
   41.0870   32.3080   38.6130 C   0  0  0  0  0  0  0  0  0  0  0  0
   41.2940   31.8550   37.3320 C   0  0  0  0  0  0  0  0  0  0  0  0
   42.5670   31.6360   36.8270 C   0  0  0  0  0  0  0  0  0  0  0  0
   43.6850   31.8700   37.6100 C   0  0  0  0  0  0  0  0  0  0  0  0
   43.4780   32.3170   38.8770 C   0  0  0  0  0  0  0  0  0  0  0  0
   42.2270   32.5360   39.3790 C   0  0  0  0  0  0  0  0  0  0  0  0
   42.0020   32.9960   40.7050 N   0  0  0  0  0  0  0  0  0  0  0  0
   42.4050   34.2910   41.1760 C   0  0  0  0  0  0  0  0  0  0  0  0
   42.1060   35.2750   40.3580 N   0  0  0  0  0  0  0  0  0  0  0  0
   43.0700   34.4010   42.4460 N   0  0  0  0  0  0  0  0  0  0  0  0
   42.3850   36.2250   40.6710 H   0  0  0  0  0  0  0  0  0  0  0  0
   35.8134   29.0256   38.7667 H   0  0  0  0  0  0  0  0  0  0  0  0
   36.1352   30.6905   36.9433 H   0  0  0  0  0  0  0  0  0  0  0  0
   37.7616   30.5948   42.3446 H   0  0  0  0  0  0  0  0  0  0  0  0
   37.7532   29.4044   44.5082 H   0  0  0  0  0  0  0  0  0  0  0  0
   37.4156   26.9281   44.5280 H   0  0  0  0  0  0  0  0  0  0  0  0
   37.0501   24.8904   43.3407 H   0  0  0  0  0  0  0  0  0  0  0  0
   36.7280   23.6271   41.2323 H   0  0  0  0  0  0  0  0  0  0  0  0
   36.7560   24.9456   39.1187 H   0  0  0  0  0  0  0  0  0  0  0  0
   37.0894   27.3516   39.1289 H   0  0  0  0  0  0  0  0  0  0  0  0
   40.4238   31.6603   36.6879 H   0  0  0  0  0  0  0  0  0  0  0  0
   42.6896   31.2734   35.7958 H   0  0  0  0  0  0  0  0  0  0  0  0
   44.7003   31.7009   37.2221 H   0  0  0  0  0  0  0  0  0  0  0  0
   44.3490   32.5091   39.5207 H   0  0  0  0  0  0  0  0  0  0  0  0
   41.5235   32.3656   41.3642 H   0  0  0  0  0  0  0  0  0  0  0  0
   43.3641   35.3243   42.7951 H   0  0  0  0  0  0  0  0  0  0  0  0
   43.2523   33.5565   43.0067 H   0  0  0  0  0  0  0  0  0  0  0  0
  1  6  1  0
  1  7  1  0
  2  1  2  0
  3  4  2  0
  3  2  1  0
  4  5  1  0
  5 17  1  0
  5  6  2  0
  7 16  1  0
  7  8  2  0
  8  9  1  0
  9 10  2  0
 11 10  1  0
 12 11  2  0
 13 12  1  0
 14 15  1  0
 14 13  2  0
 15 16  2  0
 16 11  1  0
 17 18  2  0
 19 17  1  0
 19 24  1  0
 20 19  2  0
 21 20  1  0
 21 22  2  0
 22 23  1  0
 23 24  2  0
 24 25  1  0
 25 26  1  0
 26 28  1  0
 27 29  1  0
 27 26  2  0
  2 30  1  0
  3 31  1  0
  8 32  1  0
  9 33  1  0
 10 34  1  0
 12 35  1  0
 13 36  1  0
 14 37  1  0
 15 38  1  0
 20 39  1  0
 21 40  1  0
 22 41  1  0
 23 42  1  0
 25 43  1  0
 28 44  1  0
 28 45  1  0
M  END
>  <minimizedAffinity>  (1) 
-7.06133461

>  <minimizedRMSD>  (1) 
2.90226889

$$$$
