
     RDKit          3D

 33 35  0  0  0  0  0  0  0  0999 V2000
   39.2160   27.7010   43.4660 C   0  0  0  0  0  0  0  0  0  0  0  0
   38.6600   26.4150   43.3380 C   0  0  0  0  0  0  0  0  0  0  0  0
   37.8860   26.1760   42.1930 C   0  0  0  0  0  0  0  0  0  0  0  0
   37.7200   27.1690   41.2990 N   0  0  0  0  0  0  0  0  0  0  0  0
   38.2640   28.3890   41.4510 C   0  0  0  0  0  0  0  0  0  0  0  0
   39.0130   28.6590   42.5320 N   0  0  0  0  0  0  0  0  0  0  0  0
   37.2630   24.9440   41.9200 N   0  0  0  0  0  0  0  0  0  0  0  0
   38.0980   29.4510   40.5150 N   0  0  0  0  0  0  0  0  0  0  0  0
   37.3050   29.1940   39.4490 C   0  0  0  0  0  0  0  0  0  0  0  0
   37.0300   30.1020   38.4430 C   0  0  0  0  0  0  0  0  0  0  0  0
   37.6140   31.3430   38.5540 C   0  0  0  0  0  0  0  0  0  0  0  0
   37.4020   32.2140   37.6690 O   0  0  0  0  0  0  0  0  0  0  0  0
   38.4020   31.5750   39.6270 N   0  0  0  0  0  0  0  0  0  0  0  0
   38.6430   30.6700   40.5800 C   0  0  0  0  0  0  0  0  0  0  0  0
   39.3660   30.8840   41.5650 O   0  0  0  0  0  0  0  0  0  0  0  0
   38.9810   32.8590   39.7030 C   0  0  0  0  0  0  0  0  0  0  0  0
   38.3800   33.9830   40.2270 C   0  0  0  0  0  0  0  0  0  0  0  0
   38.9900   35.2210   40.2780 C   0  0  0  0  0  0  0  0  0  0  0  0
   40.2430   35.3610   39.7940 N   0  0  0  0  0  0  0  0  0  0  0  0
   40.8550   34.2580   39.2690 C   0  0  0  0  0  0  0  0  0  0  0  0
   40.2410   33.0790   39.2350 N   0  0  0  0  0  0  0  0  0  0  0  0
   36.1470   29.7250   37.3150 C   0  0  0  0  0  0  0  0  0  0  0  0
   39.8313   27.9337   44.3476 H   0  0  0  0  0  0  0  0  0  0  0  0
   38.8240   25.6364   44.0975 H   0  0  0  0  0  0  0  0  0  0  0  0
   36.7061   24.8276   41.0614 H   0  0  0  0  0  0  0  0  0  0  0  0
   37.3640   24.1587   42.5788 H   0  0  0  0  0  0  0  0  0  0  0  0
   36.8485   28.1957   39.3780 H   0  0  0  0  0  0  0  0  0  0  0  0
   37.3593   33.8891   40.6262 H   0  0  0  0  0  0  0  0  0  0  0  0
   38.4608   36.0840   40.7083 H   0  0  0  0  0  0  0  0  0  0  0  0
   41.8750   34.3470   38.8668 H   0  0  0  0  0  0  0  0  0  0  0  0
   35.2021   29.3216   37.7080 H   0  0  0  0  0  0  0  0  0  0  0  0
   35.9389   30.6127   36.6997 H   0  0  0  0  0  0  0  0  0  0  0  0
   36.6443   28.9607   36.6997 H   0  0  0  0  0  0  0  0  0  0  0  0
  2  1  2  0
  3  2  1  0
  4  5  1  0
  4  3  2  0
  5  6  2  0
  6  1  1  0
  7  3  1  0
  8 14  1  0
  8  5  1  0
  9  8  1  0
 10 11  1  0
 10  9  2  0
 11 13  1  0
 12 11  2  0
 13 16  1  0
 13 14  1  0
 14 15  2  0
 16 17  2  0
 17 18  1  0
 19 18  2  0
 20 19  1  0
 21 20  2  0
 21 16  1  0
 22 10  1  0
  1 23  1  0
  2 24  1  0
  7 25  1  0
  7 26  1  0
  9 27  1  0
 17 28  1  0
 18 29  1  0
 20 30  1  0
 22 31  1  0
 22 32  1  0
 22 33  1  0
M  ISO  8  23  14  24  14  27  14  28  14  29  14  30  14  31   8  32   8
M  ISO  1  33   8
M  END
>  <minimizedAffinity>  (1) 
-5.8746767

>  <minimizedRMSD>  (1) 
1.48349941

$$$$
