
     RDKit          3D

 26 27  0  0  1  0  0  0  0  0999 V2000
   38.6750   26.9960   43.2700 C   0  0  2  0  0  0  0  0  0  0  0  0
   40.0620   27.3010   43.6340 C   0  0  0  0  0  0  0  0  0  0  0  0
   40.6970   25.9170   43.8460 C   0  0  0  0  0  0  0  0  0  0  0  0
   39.7230   24.9170   43.2890 C   0  0  0  0  0  0  0  0  0  0  0  0
   38.8220   25.7550   42.3880 C   0  0  2  0  0  0  0  0  0  0  0  0
   38.4450   29.3410   42.3090 C   0  0  0  0  0  0  0  0  0  0  0  0
   37.9330   28.0370   42.5570 C   0  0  0  0  0  0  0  0  0  0  0  0
   36.6500   27.7250   42.0900 C   0  0  0  0  0  0  0  0  0  0  0  0
   35.9660   28.6860   41.4240 N   0  0  0  0  0  0  0  0  0  0  0  0
   36.4680   29.9370   41.1900 C   0  0  0  0  0  0  0  0  0  0  0  0
   37.7240   30.2440   41.6470 N   0  0  0  0  0  0  0  0  0  0  0  0
   39.4390   26.0540   41.0900 C   0  0  0  0  0  0  0  0  0  0  0  0
   39.1200   26.8990   40.1990 O   0  0  0  0  0  0  0  0  0  0  0  0
   40.5580   25.2890   40.7850 O   0  0  0  0  0  0  0  0  0  0  0  0
   38.0750   26.8751   44.1840 H   0  0  0  0  0  0  0  0  0  0  0  0
   40.5694   27.8452   42.8238 H   0  0  0  0  0  0  0  0  0  0  0  0
   40.1373   27.9448   44.5227 H   0  0  0  0  0  0  0  0  0  0  0  0
   41.6566   25.8523   43.3122 H   0  0  0  0  0  0  0  0  0  0  0  0
   40.8992   25.7284   44.9107 H   0  0  0  0  0  0  0  0  0  0  0  0
   40.2451   24.1413   42.7097 H   0  0  0  0  0  0  0  0  0  0  0  0
   39.1652   24.3826   44.0721 H   0  0  0  0  0  0  0  0  0  0  0  0
   37.8769   25.2741   42.0955 H   0  0  0  0  0  0  0  0  0  0  0  0
   39.4499   29.6069   42.6689 H   0  0  0  0  0  0  0  0  0  0  0  0
   36.2114   26.7305   42.2588 H   0  0  0  0  0  0  0  0  0  0  0  0
   35.8737   30.6845   40.6441 H   0  0  0  0  0  0  0  0  0  0  0  0
   41.0338   25.4277   39.9280 H   0  0  0  0  0  0  0  0  0  0  0  0
  1  2  1  0
  2  3  1  0
  4  3  1  0
  5  1  1  0
  5  4  1  0
  6  7  2  0
  7  1  1  0
  8  7  1  0
  9  8  2  0
 10  9  1  0
 10 11  2  0
 11  6  1  0
 12  5  1  0
 13 12  2  0
 14 12  1  0
  1 15  1  1
  2 16  1  0
  2 17  1  0
  3 18  1  0
  3 19  1  0
  4 20  1  0
  4 21  1  0
  5 22  1  6
  6 23  1  0
  8 24  1  0
 10 25  1  0
 14 26  1  0
M  ISO  8  15  13  16  13  17  13  18  13  19  13  20  13  21  13  22  13
M  ISO  4  23  14  24  14  25  14  26   3
M  END
>  <minimizedAffinity>  (1) 
-3.96512127

>  <minimizedRMSD>  (1) 
0.335620731

$$$$
