
     RDKit          3D

 37 39  0  0  0  0  0  0  0  0999 V2000
   37.7460   32.1260   39.9880 C   0  0  0  0  0  0  0  0  0  0  0  0
   37.1490   31.6810   41.1070 N   0  0  0  0  0  0  0  0  0  0  0  0
   36.2860   30.6850   41.1750 C   0  0  0  0  0  0  0  0  0  0  0  0
   35.9290   30.0230   40.1030 N   0  0  0  0  0  0  0  0  0  0  0  0
   36.4530   30.3640   38.9090 C   0  0  0  0  0  0  0  0  0  0  0  0
   36.0850   29.6730   37.7610 C   0  0  0  0  0  0  0  0  0  0  0  0
   36.6000   29.9990   36.5450 C   0  0  0  0  0  0  0  0  0  0  0  0
   37.5170   31.0580   36.4830 C   0  0  0  0  0  0  0  0  0  0  0  0
   37.8420   31.7080   37.6560 C   0  0  0  0  0  0  0  0  0  0  0  0
   37.3510   31.4120   38.8840 C   0  0  0  0  0  0  0  0  0  0  0  0
   38.7520   35.5690   40.0290 C   0  0  0  0  0  0  0  0  0  0  0  0
   40.1490   35.6200   39.9350 C   0  0  0  0  0  0  0  0  0  0  0  0
   40.7960   34.3850   39.8510 C   0  0  0  0  0  0  0  0  0  0  0  0
   40.0240   33.2880   39.8700 N   0  0  0  0  0  0  0  0  0  0  0  0
   38.6980   33.2350   39.9580 C   0  0  0  0  0  0  0  0  0  0  0  0
   38.1110   34.4140   40.0360 N   0  0  0  0  0  0  0  0  0  0  0  0
   42.1320   34.1650   39.7530 O   0  0  0  0  0  0  0  0  0  0  0  0
   42.9780   34.0910   40.8680 C   0  0  0  0  0  0  0  0  0  0  0  0
   42.7870   35.3110   41.7680 C   0  0  0  0  0  0  0  0  0  0  0  0
   44.4250   34.0650   40.3870 C   0  0  0  0  0  0  0  0  0  0  0  0
   42.7600   32.8530   41.6970 C   0  0  0  0  0  0  0  0  0  0  0  0
   35.8589   30.4059   42.1495 H   0  0  0  0  0  0  0  0  0  0  0  0
   35.3633   28.8464   37.8371 H   0  0  0  0  0  0  0  0  0  0  0  0
   36.3063   29.4491   35.6387 H   0  0  0  0  0  0  0  0  0  0  0  0
   37.9650   31.3622   35.5255 H   0  0  0  0  0  0  0  0  0  0  0  0
   38.5613   32.5375   37.5886 H   0  0  0  0  0  0  0  0  0  0  0  0
   38.1797   36.5059   40.0981 H   0  0  0  0  0  0  0  0  0  0  0  0
   40.7008   36.5716   39.9278 H   0  0  0  0  0  0  0  0  0  0  0  0
   42.8356   35.0003   42.8221 H   0  0  0  0  0  0  0  0  0  0  0  0
   43.5813   36.0444   41.5649 H   0  0  0  0  0  0  0  0  0  0  0  0
   41.8066   35.7666   41.5649 H   0  0  0  0  0  0  0  0  0  0  0  0
   45.0999   34.0529   41.2555 H   0  0  0  0  0  0  0  0  0  0  0  0
   44.5932   33.1637   39.7793 H   0  0  0  0  0  0  0  0  0  0  0  0
   44.6255   34.9597   39.7793 H   0  0  0  0  0  0  0  0  0  0  0  0
   42.8059   33.1139   42.7646 H   0  0  0  0  0  0  0  0  0  0  0  0
   41.7729   32.4261   41.4660 H   0  0  0  0  0  0  0  0  0  0  0  0
   43.5419   32.1146   41.4660 H   0  0  0  0  0  0  0  0  0  0  0  0
  1  2  2  0
  2  3  1  0
  4  3  2  0
  5  4  1  0
  6  5  2  0
  7  6  1  0
  8  7  2  0
  8  9  1  0
  9 10  2  0
 10  5  1  0
 10  1  1  0
 11 16  2  0
 12 11  1  0
 13 14  1  0
 13 12  2  0
 14 15  2  0
 15  1  1  0
 15 16  1  0
 17 13  1  0
 17 18  1  0
 18 21  1  0
 18 19  1  0
 20 18  1  0
  3 22  1  0
  6 23  1  0
  7 24  1  0
  8 25  1  0
  9 26  1  0
 11 27  1  0
 12 28  1  0
 19 29  1  0
 19 30  1  0
 19 31  1  0
 20 32  1  0
 20 33  1  0
 20 34  1  0
 21 35  1  0
 21 36  1  0
 21 37  1  0
M  ISO  8  22  14  23  14  24  14  25  14  26  14  27  14  28  14  29   8
M  ISO  8  30   8  31   8  32   8  33   8  34   8  35   8  36   8  37   8
M  END
>  <minimizedAffinity>  (1) 
-5.41028595

>  <minimizedRMSD>  (1) 
6.6232996

$$$$
