
     RDKit          3D

 36 39  0  0  0  0  0  0  0  0999 V2000
   36.1550   30.0640   41.0950 C   0  0  0  0  0  0  0  0  0  0  0  0
   38.7060   28.1800   42.7150 C   0  0  0  0  0  0  0  0  0  0  0  0
   37.5990   27.3970   42.9060 C   0  0  0  0  0  0  0  0  0  0  0  0
   36.5300   28.0430   42.2960 C   0  0  0  0  0  0  0  0  0  0  0  0
   37.0550   29.1750   41.7740 N   0  0  0  0  0  0  0  0  0  0  0  0
   38.3330   29.2590   42.0170 N   0  0  0  0  0  0  0  0  0  0  0  0
   41.6090   26.5270   44.3900 C   0  0  0  0  0  0  0  0  0  0  0  0
   40.3030   26.7430   43.9480 C   0  0  0  0  0  0  0  0  0  0  0  0
   40.0430   27.8990   43.1960 C   0  0  0  0  0  0  0  0  0  0  0  0
   41.0480   28.7700   42.9160 N   0  0  0  0  0  0  0  0  0  0  0  0
   42.3090   28.5140   43.3700 C   0  0  0  0  0  0  0  0  0  0  0  0
   42.5880   27.4130   44.0930 N   0  0  0  0  0  0  0  0  0  0  0  0
   35.3100   29.4770   40.0610 C   0  0  0  0  0  0  0  0  0  0  0  0
   35.8360   29.4430   38.7190 N   0  0  0  0  0  0  0  0  0  0  0  0
   37.1740   29.6180   38.4680 C   0  0  0  0  0  0  0  0  0  0  0  0
   37.4680   29.5360   37.1590 N   0  0  0  0  0  0  0  0  0  0  0  0
   36.3100   29.3040   36.5170 C   0  0  0  0  0  0  0  0  0  0  0  0
   36.0140   29.1380   35.1820 C   0  0  0  0  0  0  0  0  0  0  0  0
   34.7280   28.9210   34.8510 N   0  0  0  0  0  0  0  0  0  0  0  0
   33.7750   28.8740   35.8270 C   0  0  0  0  0  0  0  0  0  0  0  0
   34.1010   29.0390   37.1190 N   0  0  0  0  0  0  0  0  0  0  0  0
   35.3490   29.2550   37.4990 C   0  0  0  0  0  0  0  0  0  0  0  0
   37.0750   29.2040   34.2210 N   0  0  0  0  0  0  0  0  0  0  0  0
   35.4937   30.5109   41.8519 H   0  0  0  0  0  0  0  0  0  0  0  0
   36.8007   30.7816   40.5677 H   0  0  0  0  0  0  0  0  0  0  0  0
   37.5625   26.4369   43.4417 H   0  0  0  0  0  0  0  0  0  0  0  0
   35.4838   27.7065   42.2482 H   0  0  0  0  0  0  0  0  0  0  0  0
   41.8441   25.6311   44.9834 H   0  0  0  0  0  0  0  0  0  0  0  0
   39.5007   26.0279   44.1823 H   0  0  0  0  0  0  0  0  0  0  0  0
   43.1169   29.2241   43.1398 H   0  0  0  0  0  0  0  0  0  0  0  0
   35.0957   28.4399   40.3585 H   0  0  0  0  0  0  0  0  0  0  0  0
   34.4323   30.1376   40.0042 H   0  0  0  0  0  0  0  0  0  0  0  0
   37.9230   29.8047   39.2516 H   0  0  0  0  0  0  0  0  0  0  0  0
   32.7247   28.6984   35.5511 H   0  0  0  0  0  0  0  0  0  0  0  0
   36.8705   29.0820   33.2189 H   0  0  0  0  0  0  0  0  0  0  0  0
   38.0421   29.3735   34.5324 H   0  0  0  0  0  0  0  0  0  0  0  0
  1  5  1  0
  2  3  1  0
  2  9  1  0
  4  3  2  0
  5  6  1  0
  5  4  1  0
  6  2  2  0
  8  7  2  0
  9  8  1  0
 10  9  2  0
 10 11  1  0
 11 12  2  0
 12  7  1  0
 13  1  1  0
 14 13  1  0
 15 14  1  0
 16 15  2  0
 17 16  1  0
 17 22  2  0
 18 17  1  0
 19 18  2  0
 19 20  1  0
 20 21  2  0
 21 22  1  0
 22 14  1  0
 23 18  1  0
  1 24  1  0
  1 25  1  0
  3 26  1  0
  4 27  1  0
  7 28  1  0
  8 29  1  0
 11 30  1  0
 13 31  1  0
 13 32  1  0
 15 33  1  0
 20 34  1  0
 23 35  1  0
 23 36  1  0
M  ISO  8  24   8  25   8  26  14  27  14  28  14  29  14  30  14  31   8
M  ISO  3  32   8  33  14  34  14
M  END
>  <minimizedAffinity>  (1) 
-5.22165823

>  <minimizedRMSD>  (1) 
1.34466279

$$$$
