
     RDKit          3D

 24 25  0  0  0  0  0  0  0  0999 V2000
   38.7290   27.6380   42.3590 N   0  0  0  0  0  0  0  0  0  0  0  0
   38.7820   27.0640   43.6760 C   0  0  0  0  0  0  0  0  0  0  0  0
   40.2850   26.9640   43.9590 C   0  0  0  0  0  0  0  0  0  0  0  0
   40.9760   27.3230   42.6760 C   0  0  0  0  0  0  0  0  0  0  0  0
   39.8940   27.1430   41.6480 C   0  0  0  0  0  0  0  0  0  0  0  0
   37.8490   29.8920   41.8360 C   0  0  0  0  0  0  0  0  0  0  0  0
   37.7650   28.4970   41.8400 C   0  0  0  0  0  0  0  0  0  0  0  0
   36.6000   27.9970   41.2560 C   0  0  0  0  0  0  0  0  0  0  0  0
   35.6910   28.8570   40.7560 N   0  0  0  0  0  0  0  0  0  0  0  0
   35.8260   30.1810   40.7800 C   0  0  0  0  0  0  0  0  0  0  0  0
   36.9270   30.7150   41.3320 N   0  0  0  0  0  0  0  0  0  0  0  0
   39.0070   30.5120   42.4140 C   0  0  0  0  0  0  0  0  0  0  0  0
   39.9360   31.1370   42.9210 O   0  0  0  0  0  0  0  0  0  0  0  0
   38.2857   27.7160   44.4099 H   0  0  0  0  0  0  0  0  0  0  0  0
   38.2667   26.0945   43.7432 H   0  0  0  0  0  0  0  0  0  0  0  0
   40.5708   27.6664   44.7558 H   0  0  0  0  0  0  0  0  0  0  0  0
   40.5637   25.9548   44.2963 H   0  0  0  0  0  0  0  0  0  0  0  0
   41.3327   28.3633   42.6966 H   0  0  0  0  0  0  0  0  0  0  0  0
   41.8684   26.7111   42.4781 H   0  0  0  0  0  0  0  0  0  0  0  0
   39.7755   26.0850   41.3712 H   0  0  0  0  0  0  0  0  0  0  0  0
   40.0904   27.6599   40.6971 H   0  0  0  0  0  0  0  0  0  0  0  0
   36.4257   26.9121   41.2044 H   0  0  0  0  0  0  0  0  0  0  0  0
   35.0460   30.8287   40.3533 H   0  0  0  0  0  0  0  0  0  0  0  0
   39.6148   29.6025   42.2983 H   0  0  0  0  0  0  0  0  0  0  0  0
  1  2  1  0
  2  3  1  0
  4  3  1  0
  5  1  1  0
  5  4  1  0
  6  7  2  0
  6 12  1  0
  7  1  1  0
  8  7  1  0
  9 10  1  0
  9  8  2  0
 10 11  2  0
 11  6  1  0
 12 13  2  0
  2 14  1  0
  2 15  1  0
  3 16  1  0
  3 17  1  0
  4 18  1  0
  4 19  1  0
  5 20  1  0
  5 21  1  0
  8 22  1  0
 10 23  1  0
 12 24  1  0
M  ISO  8  14  13  15  13  16  13  17  13  18  13  19  13  20  13  21  13
M  ISO  3  22  14  23  14  24   6
M  END
>  <minimizedAffinity>  (1) 
-3.55061841

>  <minimizedRMSD>  (1) 
0.604456246

$$$$
