
     RDKit          3D

 32 34  0  0  0  0  0  0  0  0999 V2000
   37.7940   28.1100   43.1620 C   0  0  0  0  0  0  0  0  0  0  0  0
   37.6730   26.8940   42.4240 C   0  0  0  0  0  0  0  0  0  0  0  0
   36.9760   26.9180   41.2340 C   0  0  0  0  0  0  0  0  0  0  0  0
   36.4490   28.0930   40.8370 N   0  0  0  0  0  0  0  0  0  0  0  0
   36.5600   29.2200   41.5180 C   0  0  0  0  0  0  0  0  0  0  0  0
   37.2330   29.2450   42.6900 N   0  0  0  0  0  0  0  0  0  0  0  0
   36.9260   25.6210   40.5980 C   0  0  0  0  0  0  0  0  0  0  0  0
   37.0000   24.4480   41.4800 C   0  0  0  0  0  0  0  0  0  0  0  0
   37.8870   23.0580   40.6870 S   0  0  0  0  0  0  0  0  0  0  0  0
   35.9310   30.2550   40.8820 O   0  0  0  0  0  0  0  0  0  0  0  0
   36.7040   31.2200   40.2150 C   0  0  0  0  0  0  0  0  0  0  0  0
   36.8180   31.4960   38.8680 N   0  0  0  0  0  0  0  0  0  0  0  0
   37.6610   32.4890   38.7240 O   0  0  0  0  0  0  0  0  0  0  0  0
   38.0720   32.8370   39.9120 C   0  0  0  0  0  0  0  0  0  0  0  0
   37.5030   32.0780   40.8490 N   0  0  0  0  0  0  0  0  0  0  0  0
   39.0230   33.9110   40.1630 C   0  0  0  0  0  0  0  0  0  0  0  0
   38.8080   35.2710   40.0960 C   0  0  0  0  0  0  0  0  0  0  0  0
   39.9540   35.9580   40.4020 C   0  0  0  0  0  0  0  0  0  0  0  0
   40.8740   34.9520   40.6570 C   0  0  0  0  0  0  0  0  0  0  0  0
   40.2940   33.8190   40.5070 O   0  0  0  0  0  0  0  0  0  0  0  0
   42.2670   35.2000   41.0340 C   0  0  0  0  0  0  0  0  0  0  0  0
   42.5630   35.9280   42.0060 O   0  0  0  0  0  0  0  0  0  0  0  0
   38.3438   28.1230   44.1147 H   0  0  0  0  0  0  0  0  0  0  0  0
   38.1241   25.9618   42.7949 H   0  0  0  0  0  0  0  0  0  0  0  0
   35.9794   25.5596   40.0411 H   0  0  0  0  0  0  0  0  0  0  0  0
   37.8311   25.5705   39.9749 H   0  0  0  0  0  0  0  0  0  0  0  0
   37.5296   24.7287   42.4024 H   0  0  0  0  0  0  0  0  0  0  0  0
   35.9735   24.1188   41.6987 H   0  0  0  0  0  0  0  0  0  0  0  0
   38.4095   22.2392   41.6531 H   0  0  0  0  0  0  0  0  0  0  0  0
   37.8486   35.7404   39.8331 H   0  0  0  0  0  0  0  0  0  0  0  0
   40.1073   37.0467   40.4369 H   0  0  0  0  0  0  0  0  0  0  0  0
   43.0727   34.7343   40.4475 H   0  0  0  0  0  0  0  0  0  0  0  0
  2  1  2  0
  3  2  1  0
  4  3  2  0
  4  5  1  0
  5  6  2  0
  6  1  1  0
  7  3  1  0
  7  8  1  0
  9  8  1  0
 10  5  1  0
 11 15  1  0
 11 10  1  0
 12 11  2  0
 13 12  1  0
 13 14  1  0
 14 16  1  0
 14 15  2  0
 16 20  1  0
 17 16  2  0
 17 18  1  0
 18 19  2  0
 19 21  1  0
 20 19  1  0
 21 22  2  0
  1 23  1  0
  2 24  1  0
  7 25  1  0
  7 26  1  0
  8 27  1  0
  8 28  1  0
  9 29  1  0
 17 30  1  0
 18 31  1  0
 21 32  1  0
M  ISO  8  23  14  24  14  25   8  26   8  27   8  28   8  29  11  30  14
M  ISO  2  31  14  32   6
M  END
>  <minimizedAffinity>  (1) 
-5.40303516

>  <minimizedRMSD>  (1) 
0.71322304

$$$$
