
     RDKit          3D

 30 33  0  0  1  0  0  0  0  0999 V2000
   39.0370   32.1210   40.9750 C   0  0  0  0  0  0  0  0  0  0  0  0
   38.9540   30.8960   41.6620 C   0  0  0  0  0  0  0  0  0  0  0  0
   37.7140   30.2350   41.6300 C   0  0  0  0  0  0  0  0  0  0  0  0
   36.7050   30.7930   40.9630 N   0  0  0  0  0  0  0  0  0  0  0  0
   36.8240   31.9670   40.3180 C   0  0  0  0  0  0  0  0  0  0  0  0
   38.0000   32.6500   40.3150 N   0  0  0  0  0  0  0  0  0  0  0  0
   37.5620   28.9940   42.2940 N   0  0  0  0  0  0  0  0  0  0  0  0
   37.6030   28.7310   43.5780 C   0  0  0  0  0  0  0  0  0  0  0  0
   37.4210   27.3890   43.8070 N   0  0  0  0  0  0  0  0  0  0  0  0
   37.2590   26.7930   42.6160 C   0  0  0  0  0  0  0  0  0  0  0  0
   37.0470   25.5030   42.1820 C   0  0  0  0  0  0  0  0  0  0  0  0
   36.9310   25.2510   40.8670 N   0  0  0  0  0  0  0  0  0  0  0  0
   37.0240   26.2710   39.9930 C   0  0  0  0  0  0  0  0  0  0  0  0
   37.2280   27.5330   40.3520 N   0  0  0  0  0  0  0  0  0  0  0  0
   37.3500   27.8180   41.6760 C   0  0  0  0  0  0  0  0  0  0  0  0
   36.9100   25.9310   38.5450 C   0  0  1  0  0  0  0  0  0  0  0  0
   35.5160   26.0740   37.9040 C   0  0  0  0  0  0  0  0  0  0  0  0
   36.6740   26.9310   37.5250 C   0  0  2  0  0  0  0  0  0  0  0  0
   37.2920   26.8190   36.1890 C   0  0  0  0  0  0  0  0  0  0  0  0
   37.1330   28.0260   36.3700 O   0  0  0  0  0  0  0  0  0  0  0  0
   39.9926   32.6658   40.9806 H   0  0  0  0  0  0  0  0  0  0  0  0
   39.8177   30.4759   42.1982 H   0  0  0  0  0  0  0  0  0  0  0  0
   35.9561   32.3815   39.7842 H   0  0  0  0  0  0  0  0  0  0  0  0
   37.7616   29.4831   44.3649 H   0  0  0  0  0  0  0  0  0  0  0  0
   36.9729   24.6814   42.9097 H   0  0  0  0  0  0  0  0  0  0  0  0
   37.6757   25.1497   38.6607 H   0  0  0  0  0  0  0  0  0  0  0  0
   35.1390   25.3071   37.2113 H   0  0  0  0  0  0  0  0  0  0  0  0
   34.4893   26.2385   38.2629 H   0  0  0  0  0  0  0  0  0  0  0  0
   36.8326   28.0186   37.4813 H   0  0  0  0  0  0  0  0  0  0  0  0
   37.6714   26.0874   35.4605 H   0  0  0  0  0  0  0  0  0  0  0  0
  1  2  2  0
  3  2  1  0
  3  7  1  0
  4  3  2  0
  5  4  1  0
  6  5  2  0
  6  1  1  0
  7  8  1  0
  8  9  2  0
 10  9  1  0
 11 10  2  0
 12 11  1  0
 13 14  1  0
 13 12  2  0
 14 15  2  0
 15  7  1  0
 15 10  1  0
 16 13  1  0
 17 16  1  0
 18 17  1  0
 18 16  1  0
 19 20  2  0
 19 18  1  0
  1 21  1  0
  2 22  1  0
  5 23  1  0
  8 24  1  0
 11 25  1  0
 16 26  1  6
 17 27  1  0
 17 28  1  0
 18 29  1  1
 19 30  1  0
M  ISO  8  21  14  22  14  23  14  24  14  25  14  26  13  27  13  28  13
M  ISO  2  29  13  30   6
M  END
>  <minimizedAffinity>  (1) 
-4.65739727

>  <minimizedRMSD>  (1) 
0.161433131

$$$$
