
     RDKit          3D

 31 33  0  0  0  0  0  0  0  0999 V2000
   37.1190   29.5540   40.0080 C   0  0  0  0  0  0  0  0  0  0  0  0
   36.0460   29.2220   39.1830 C   0  0  0  0  0  0  0  0  0  0  0  0
   36.0750   29.7830   37.9360 C   0  0  0  0  0  0  0  0  0  0  0  0
   37.0290   30.5850   37.4990 N   0  0  0  0  0  0  0  0  0  0  0  0
   38.0480   30.8840   38.3150 C   0  0  0  0  0  0  0  0  0  0  0  0
   38.0840   30.3680   39.5590 N   0  0  0  0  0  0  0  0  0  0  0  0
   38.0960   29.0790   43.5200 C   0  0  0  0  0  0  0  0  0  0  0  0
   37.3060   27.9830   43.8970 C   0  0  0  0  0  0  0  0  0  0  0  0
   36.4500   27.4210   42.9470 C   0  0  0  0  0  0  0  0  0  0  0  0
   36.4220   27.9580   41.7080 N   0  0  0  0  0  0  0  0  0  0  0  0
   37.1950   29.0100   41.3800 C   0  0  0  0  0  0  0  0  0  0  0  0
   38.0340   29.5820   42.2670 N   0  0  0  0  0  0  0  0  0  0  0  0
   39.1930   31.7620   37.9770 C   0  0  0  0  0  0  0  0  0  0  0  0
   40.0000   32.0340   39.2470 C   0  0  0  0  0  0  0  0  0  0  0  0
   39.6640   33.3760   39.7870 C   0  0  0  0  0  0  0  0  0  0  0  0
   38.6980   33.7440   40.6210 N   0  0  0  0  0  0  0  0  0  0  0  0
   38.7780   35.0240   40.8220 O   0  0  0  0  0  0  0  0  0  0  0  0
   39.7600   35.5410   40.1580 C   0  0  0  0  0  0  0  0  0  0  0  0
   40.3110   34.5110   39.5130 N   0  0  0  0  0  0  0  0  0  0  0  0
   40.0840   36.9630   40.1970 C   0  0  0  0  0  0  0  0  0  0  0  0
   39.1930   37.7830   39.9350 O   0  0  0  0  0  0  0  0  0  0  0  0
   35.2340   28.5565   39.5112 H   0  0  0  0  0  0  0  0  0  0  0  0
   35.2471   29.5503   37.2501 H   0  0  0  0  0  0  0  0  0  0  0  0
   38.7757   29.5356   44.2545 H   0  0  0  0  0  0  0  0  0  0  0  0
   37.3593   27.5754   44.9173 H   0  0  0  0  0  0  0  0  0  0  0  0
   35.8134   26.5609   43.2020 H   0  0  0  0  0  0  0  0  0  0  0  0
   39.8323   31.2650   37.2325 H   0  0  0  0  0  0  0  0  0  0  0  0
   38.8248   32.7105   37.5590 H   0  0  0  0  0  0  0  0  0  0  0  0
   39.7620   31.2686   40.0003 H   0  0  0  0  0  0  0  0  0  0  0  0
   41.0728   32.0009   39.0061 H   0  0  0  0  0  0  0  0  0  0  0  0
   41.0990   37.3003   40.4539 H   0  0  0  0  0  0  0  0  0  0  0  0
  1 11  1  0
  2  1  2  0
  3  2  1  0
  4  3  2  0
  4  5  1  0
  5  6  2  0
  6  1  1  0
  7  8  2  0
  9  8  1  0
 10  9  2  0
 11 10  1  0
 11 12  2  0
 12  7  1  0
 13  5  1  0
 13 14  1  0
 14 15  1  0
 15 16  2  0
 16 17  1  0
 18 20  1  0
 18 17  1  0
 19 15  1  0
 19 18  2  0
 21 20  2  0
  2 22  1  0
  3 23  1  0
  7 24  1  0
  8 25  1  0
  9 26  1  0
 13 27  1  0
 13 28  1  0
 14 29  1  0
 14 30  1  0
 20 31  1  0
M  ISO  8  22  14  23  14  24  14  25  14  26  14  27   8  28   8  29   8
M  ISO  2  30   8  31   6
M  END
>  <minimizedAffinity>  (1) 
-5.28686571

>  <minimizedRMSD>  (1) 
0.691330314

$$$$
