
     RDKit          3D

 40 43  0  0  0  0  0  0  0  0999 V2000
   29.9640   27.9290   47.1570 C   0  0  0  0  0  0  0  0  0  0  0  0
   30.8200   28.6040   46.3480 C   0  0  0  0  0  0  0  0  0  0  0  0
   32.1090   28.9120   46.7070 C   0  0  0  0  0  0  0  0  0  0  0  0
   32.5690   28.5250   47.9380 C   0  0  0  0  0  0  0  0  0  0  0  0
   31.6890   27.8400   48.7480 C   0  0  0  0  0  0  0  0  0  0  0  0
   30.3990   27.5260   48.4010 C   0  0  0  0  0  0  0  0  0  0  0  0
   35.6660   29.9790   48.6720 C   0  0  0  0  0  0  0  0  0  0  0  0
   35.8050   28.8350   49.4460 C   0  0  0  0  0  0  0  0  0  0  0  0
   34.6660   28.0780   49.3130 C   0  0  0  0  0  0  0  0  0  0  0  0
   33.8660   28.7550   48.4770 N   0  0  0  0  0  0  0  0  0  0  0  0
   34.4460   29.8600   48.1030 N   0  0  0  0  0  0  0  0  0  0  0  0
   38.0890   32.6600   49.4470 C   0  0  0  0  0  0  0  0  0  0  0  0
   38.7270   32.7940   48.2200 C   0  0  0  0  0  0  0  0  0  0  0  0
   38.3290   31.9850   47.1660 C   0  0  0  0  0  0  0  0  0  0  0  0
   37.3240   31.0930   47.3950 N   0  0  0  0  0  0  0  0  0  0  0  0
   36.7210   30.9860   48.6070 C   0  0  0  0  0  0  0  0  0  0  0  0
   37.0870   31.7630   49.6560 N   0  0  0  0  0  0  0  0  0  0  0  0
   28.3140   27.5550   46.7160 S   0  0  0  0  0  0  0  0  0  0  0  0
   28.3080   26.3830   45.7810 O   0  0  0  0  0  0  0  0  0  0  0  0
   27.5560   27.2520   47.9610 O   0  0  0  0  0  0  0  0  0  0  0  0
   27.6360   28.9750   45.9720 C   0  0  0  0  0  0  0  0  0  0  0  0
   27.4390   30.1010   46.7560 C   0  0  0  0  0  0  0  0  0  0  0  0
   26.9040   31.2420   46.2010 C   0  0  0  0  0  0  0  0  0  0  0  0
   26.5640   31.2710   44.8670 C   0  0  0  0  0  0  0  0  0  0  0  0
   26.7650   30.1440   44.0970 C   0  0  0  0  0  0  0  0  0  0  0  0
   27.3000   29.0030   44.6540 C   0  0  0  0  0  0  0  0  0  0  0  0
   30.4635   28.9196   45.3564 H   0  0  0  0  0  0  0  0  0  0  0  0
   32.7637   29.4623   46.0152 H   0  0  0  0  0  0  0  0  0  0  0  0
   32.0448   27.5236   49.7396 H   0  0  0  0  0  0  0  0  0  0  0  0
   29.7393   26.9753   49.0876 H   0  0  0  0  0  0  0  0  0  0  0  0
   36.6794   28.5779   50.0619 H   0  0  0  0  0  0  0  0  0  0  0  0
   34.4536   27.1122   49.7948 H   0  0  0  0  0  0  0  0  0  0  0  0
   38.4058   33.3033   50.2811 H   0  0  0  0  0  0  0  0  0  0  0  0
   39.5342   33.5293   48.0867 H   0  0  0  0  0  0  0  0  0  0  0  0
   38.8081   32.0607   46.1787 H   0  0  0  0  0  0  0  0  0  0  0  0
   27.7101   30.0831   47.8219 H   0  0  0  0  0  0  0  0  0  0  0  0
   26.7476   32.1338   46.8258 H   0  0  0  0  0  0  0  0  0  0  0  0
   26.1374   32.1814   44.4208 H   0  0  0  0  0  0  0  0  0  0  0  0
   26.4961   30.1565   43.0304 H   0  0  0  0  0  0  0  0  0  0  0  0
   27.4562   28.1106   44.0301 H   0  0  0  0  0  0  0  0  0  0  0  0
  1  6  2  0
  2  3  2  0
  2  1  1  0
  3  4  1  0
  4 10  1  0
  4  5  2  0
  6  5  1  0
  7  8  1  0
  9  8  2  0
 10  9  1  0
 11 10  1  0
 11  7  2  0
 12 17  2  0
 13 12  1  0
 14 15  1  0
 14 13  2  0
 15 16  2  0
 16  7  1  0
 16 17  1  0
 18  1  1  0
 18 20  2  0
 19 18  2  0
 21 18  1  0
 21 22  2  0
 23 22  1  0
 24 23  2  0
 25 26  2  0
 25 24  1  0
 26 21  1  0
  2 27  1  0
  3 28  1  0
  5 29  1  0
  6 30  1  0
  8 31  1  0
  9 32  1  0
 12 33  1  0
 13 34  1  0
 14 35  1  0
 22 36  1  0
 23 37  1  0
 24 38  1  0
 25 39  1  0
 26 40  1  0
M  ISO  8  27  14  28  14  29  14  30  14  31  14  32  14  33  14  34  14
M  ISO  6  35  14  36  14  37  14  38  14  39  14  40  14
M  END
>  <minimizedAffinity>  (1) 
-5.98535156

>  <minimizedRMSD>  (1) 
1.56803858

$$$$
