
     RDKit          3D

 37 39  0  0  0  0  0  0  0  0999 V2000
   37.2220   31.2780   48.4850 C   0  0  0  0  0  0  0  0  0  0  0  0
   37.6530   32.3350   49.3060 C   0  0  0  0  0  0  0  0  0  0  0  0
   38.6590   33.1520   48.8150 C   0  0  0  0  0  0  0  0  0  0  0  0
   39.1680   32.8700   47.5570 N   0  0  0  0  0  0  0  0  0  0  0  0
   38.7180   31.8540   46.8280 C   0  0  0  0  0  0  0  0  0  0  0  0
   37.7270   31.0220   47.2710 N   0  0  0  0  0  0  0  0  0  0  0  0
   39.2830   31.5880   45.4990 C   0  0  0  0  0  0  0  0  0  0  0  0
   40.1030   32.4750   44.8400 C   0  0  0  0  0  0  0  0  0  0  0  0
   40.4410   31.8900   43.6200 C   0  0  0  0  0  0  0  0  0  0  0  0
   39.7960   30.6710   43.6200 C   0  0  0  0  0  0  0  0  0  0  0  0
   39.1210   30.5210   44.7400 O   0  0  0  0  0  0  0  0  0  0  0  0
   39.8100   29.6400   42.5660 C   0  0  0  0  0  0  0  0  0  0  0  0
   39.3810   28.2790   43.0010 C   0  0  0  0  0  0  0  0  0  0  0  0
   39.8750   27.4070   41.8650 C   0  0  0  0  0  0  0  0  0  0  0  0
   40.9650   28.2170   41.1510 C   0  0  0  0  0  0  0  0  0  0  0  0
   41.2540   29.3700   42.1220 C   0  0  0  0  0  0  0  0  0  0  0  0
   36.1570   30.4240   49.0180 C   0  0  0  0  0  0  0  0  0  0  0  0
   34.9480   30.6600   48.7350 O   0  0  0  0  0  0  0  0  0  0  0  0
   36.4880   29.3540   49.8360 O   0  0  0  0  0  0  0  0  0  0  0  0
   36.5180   29.4510   51.2360 C   0  0  0  0  0  0  0  0  0  0  0  0
   37.6820   29.7700   51.9570 N   0  0  0  0  0  0  0  0  0  0  0  0
   35.3970   29.2210   51.7640 O   0  0  0  0  0  0  0  0  0  0  0  0
   37.2096   32.5065   50.2980 H   0  0  0  0  0  0  0  0  0  0  0  0
   39.0416   33.9978   49.4052 H   0  0  0  0  0  0  0  0  0  0  0  0
   40.4301   33.4593   45.2062 H   0  0  0  0  0  0  0  0  0  0  0  0
   41.0819   32.3092   42.8304 H   0  0  0  0  0  0  0  0  0  0  0  0
   39.1285   30.0517   41.8070 H   0  0  0  0  0  0  0  0  0  0  0  0
   39.8535   27.9978   43.9537 H   0  0  0  0  0  0  0  0  0  0  0  0
   38.2994   28.1950   43.1828 H   0  0  0  0  0  0  0  0  0  0  0  0
   40.2924   26.4682   42.2579 H   0  0  0  0  0  0  0  0  0  0  0  0
   39.0580   27.1395   41.1787 H   0  0  0  0  0  0  0  0  0  0  0  0
   41.8650   27.6059   40.9883 H   0  0  0  0  0  0  0  0  0  0  0  0
   40.6546   28.5654   40.1549 H   0  0  0  0  0  0  0  0  0  0  0  0
   41.8964   29.0591   42.9591 H   0  0  0  0  0  0  0  0  0  0  0  0
   41.7998   30.2287   41.7040 H   0  0  0  0  0  0  0  0  0  0  0  0
   37.6512   29.8288   52.9849 H   0  0  0  0  0  0  0  0  0  0  0  0
   38.5656   29.9449   51.4574 H   0  0  0  0  0  0  0  0  0  0  0  0
  1 17  1  0
  1  2  2  0
  3  2  1  0
  4  3  2  0
  5  6  2  0
  5  4  1  0
  6  1  1  0
  7  5  1  0
  8  7  2  0
  9 10  2  0
  9  8  1  0
 10 11  1  0
 11  7  1  0
 12 13  1  0
 12 10  1  0
 14 13  1  0
 15 14  1  0
 15 16  1  0
 16 12  1  0
 17 19  1  0
 18 17  2  0
 19 20  1  0
 20 22  2  0
 20 21  1  0
  2 23  1  0
  3 24  1  0
  8 25  1  0
  9 26  1  0
 12 27  1  0
 13 28  1  0
 13 29  1  0
 14 30  1  0
 14 31  1  0
 15 32  1  0
 15 33  1  0
 16 34  1  0
 16 35  1  0
 21 36  1  0
 21 37  1  0
M  ISO  8  23  14  24  14  25  14  26  14  27  13  28  13  29  13  30  13
M  ISO  5  31  13  32  13  33  13  34  13  35  13
M  END
>  <minimizedAffinity>  (1) 
-5.88384533

>  <minimizedRMSD>  (1) 
2.79070783

$$$$
