
     RDKit          3D

 39 41  0  0  0  0  0  0  0  0999 V2000
   37.2440   31.4350   48.5570 C   0  0  0  0  0  0  0  0  0  0  0  0
   37.6920   32.4240   49.4720 C   0  0  0  0  0  0  0  0  0  0  0  0
   38.6780   33.3100   49.0340 C   0  0  0  0  0  0  0  0  0  0  0  0
   39.1480   33.1640   47.7460 N   0  0  0  0  0  0  0  0  0  0  0  0
   38.6850   32.2110   46.9310 C   0  0  0  0  0  0  0  0  0  0  0  0
   37.7240   31.3290   47.3220 N   0  0  0  0  0  0  0  0  0  0  0  0
   39.2120   32.0930   45.5720 C   0  0  0  0  0  0  0  0  0  0  0  0
   40.3740   31.3860   45.2820 C   0  0  0  0  0  0  0  0  0  0  0  0
   40.5800   31.4810   43.8900 C   0  0  0  0  0  0  0  0  0  0  0  0
   39.5200   32.2420   43.4510 C   0  0  0  0  0  0  0  0  0  0  0  0
   38.7470   32.5800   44.4480 O   0  0  0  0  0  0  0  0  0  0  0  0
   39.3590   32.5740   42.0770 N   0  0  0  0  0  0  0  0  0  0  0  0
   39.7080   31.5880   41.0660 C   0  0  0  0  0  0  0  0  0  0  0  0
   39.1650   31.9820   39.7100 C   0  0  0  0  0  0  0  0  0  0  0  0
   37.7360   32.4480   39.8790 C   0  0  0  0  0  0  0  0  0  0  0  0
   37.5980   33.6430   40.7700 C   0  0  0  0  0  0  0  0  0  0  0  0
   38.8610   33.8510   41.6030 C   0  0  0  0  0  0  0  0  0  0  0  0
   36.2100   30.5170   49.0340 C   0  0  0  0  0  0  0  0  0  0  0  0
   34.9940   30.7240   48.7250 O   0  0  0  0  0  0  0  0  0  0  0  0
   36.5760   29.4310   49.8200 O   0  0  0  0  0  0  0  0  0  0  0  0
   36.5530   29.4660   51.2080 C   0  0  0  0  0  0  0  0  0  0  0  0
   37.6970   29.7640   51.9880 N   0  0  0  0  0  0  0  0  0  0  0  0
   35.4210   29.2080   51.6950 O   0  0  0  0  0  0  0  0  0  0  0  0
   37.2774   32.4897   50.4887 H   0  0  0  0  0  0  0  0  0  0  0  0
   39.0672   34.0987   49.6947 H   0  0  0  0  0  0  0  0  0  0  0  0
   41.0121   30.8532   46.0024 H   0  0  0  0  0  0  0  0  0  0  0  0
   41.3970   31.0481   43.2941 H   0  0  0  0  0  0  0  0  0  0  0  0
   40.8034   31.5084   41.0050 H   0  0  0  0  0  0  0  0  0  0  0  0
   39.2654   30.6226   41.3523 H   0  0  0  0  0  0  0  0  0  0  0  0
   39.1946   31.1155   39.0330 H   0  0  0  0  0  0  0  0  0  0  0  0
   39.7755   32.7903   39.2812 H   0  0  0  0  0  0  0  0  0  0  0  0
   37.3342   32.7048   38.8877 H   0  0  0  0  0  0  0  0  0  0  0  0
   37.1818   31.6251   40.3540 H   0  0  0  0  0  0  0  0  0  0  0  0
   37.4239   34.5355   40.1510 H   0  0  0  0  0  0  0  0  0  0  0  0
   36.7509   33.4768   41.4518 H   0  0  0  0  0  0  0  0  0  0  0  0
   39.6304   34.3347   40.9833 H   0  0  0  0  0  0  0  0  0  0  0  0
   38.6225   34.4886   42.4671 H   0  0  0  0  0  0  0  0  0  0  0  0
   37.6302   29.7779   53.0157 H   0  0  0  0  0  0  0  0  0  0  0  0
   38.5957   29.9668   51.5275 H   0  0  0  0  0  0  0  0  0  0  0  0
  1 18  1  0
  1  2  2  0
  3  2  1  0
  4  3  2  0
  5  6  2  0
  5  4  1  0
  6  1  1  0
  7  5  1  0
  8  7  2  0
  9  8  1  0
 10  9  2  0
 10 11  1  0
 11  7  1  0
 12 10  1  0
 13 12  1  0
 14 15  1  0
 14 13  1  0
 15 16  1  0
 16 17  1  0
 17 12  1  0
 18 20  1  0
 19 18  2  0
 20 21  1  0
 21 23  2  0
 21 22  1  0
  2 24  1  0
  3 25  1  0
  8 26  1  0
  9 27  1  0
 13 28  1  0
 13 29  1  0
 14 30  1  0
 14 31  1  0
 15 32  1  0
 15 33  1  0
 16 34  1  0
 16 35  1  0
 17 36  1  0
 17 37  1  0
 22 38  1  0
 22 39  1  0
M  ISO  8  24  14  25  14  26  14  27  14  28  13  29  13  30  13  31  13
M  ISO  6  32  13  33  13  34  13  35  13  36  13  37  13
M  END
>  <minimizedAffinity>  (1) 
-5.79940271

>  <minimizedRMSD>  (1) 
0.896870017

$$$$
