
     RDKit          3D

 30 32  0  0  0  0  0  0  0  0999 V2000
   37.2550   31.4520   48.5650 C   0  0  0  0  0  0  0  0  0  0  0  0
   37.7380   32.3890   49.4950 C   0  0  0  0  0  0  0  0  0  0  0  0
   38.7210   33.2920   49.0690 C   0  0  0  0  0  0  0  0  0  0  0  0
   39.1460   33.1950   47.7590 N   0  0  0  0  0  0  0  0  0  0  0  0
   38.6500   32.2800   46.9150 C   0  0  0  0  0  0  0  0  0  0  0  0
   37.6980   31.3940   47.3010 N   0  0  0  0  0  0  0  0  0  0  0  0
   39.1380   32.2250   45.5440 C   0  0  0  0  0  0  0  0  0  0  0  0
   40.3290   31.5950   45.1940 C   0  0  0  0  0  0  0  0  0  0  0  0
   40.4960   31.7260   43.8190 C   0  0  0  0  0  0  0  0  0  0  0  0
   39.3700   32.4410   43.4180 C   0  0  0  0  0  0  0  0  0  0  0  0
   38.6150   32.7060   44.4560 O   0  0  0  0  0  0  0  0  0  0  0  0
   39.1230   32.8070   42.0660 N   0  0  0  0  0  0  0  0  0  0  0  0
   39.3420   31.9240   41.0500 C   0  0  0  0  0  0  0  0  0  0  0  0
   39.0420   32.4750   39.8370 N   0  0  0  0  0  0  0  0  0  0  0  0
   38.6270   33.7360   40.1520 C   0  0  0  0  0  0  0  0  0  0  0  0
   38.6840   33.9140   41.4980 N   0  0  0  0  0  0  0  0  0  0  0  0
   36.2330   30.5250   49.0320 C   0  0  0  0  0  0  0  0  0  0  0  0
   35.0180   30.7210   48.7240 O   0  0  0  0  0  0  0  0  0  0  0  0
   36.5990   29.4370   49.8070 O   0  0  0  0  0  0  0  0  0  0  0  0
   36.5580   29.4630   51.2060 C   0  0  0  0  0  0  0  0  0  0  0  0
   37.6990   29.7530   52.0040 N   0  0  0  0  0  0  0  0  0  0  0  0
   35.4320   29.2080   51.6780 O   0  0  0  0  0  0  0  0  0  0  0  0
   37.3557   32.4126   50.5262 H   0  0  0  0  0  0  0  0  0  0  0  0
   39.1374   34.0480   49.7510 H   0  0  0  0  0  0  0  0  0  0  0  0
   41.0170   31.0836   45.8833 H   0  0  0  0  0  0  0  0  0  0  0  0
   41.3221   31.3530   43.1958 H   0  0  0  0  0  0  0  0  0  0  0  0
   39.7132   30.8980   41.1898 H   0  0  0  0  0  0  0  0  0  0  0  0
   38.2964   34.4937   39.4264 H   0  0  0  0  0  0  0  0  0  0  0  0
   37.6207   29.7607   53.0310 H   0  0  0  0  0  0  0  0  0  0  0  0
   38.6036   29.9553   51.5549 H   0  0  0  0  0  0  0  0  0  0  0  0
  1 17  1  0
  1  2  2  0
  3  2  1  0
  4  3  2  0
  5  6  2  0
  5  4  1  0
  6  1  1  0
  7  5  1  0
  8  7  2  0
  9  8  1  0
 10  9  2  0
 10 11  1  0
 11  7  1  0
 12 10  1  0
 13 12  1  0
 14 15  1  0
 14 13  2  0
 15 16  2  0
 16 12  1  0
 17 19  1  0
 18 17  2  0
 19 20  1  0
 20 22  2  0
 20 21  1  0
  2 23  1  0
  3 24  1  0
  8 25  1  0
  9 26  1  0
 13 27  1  0
 15 28  1  0
 21 29  1  0
 21 30  1  0
M  ISO  6  23  14  24  14  25  14  26  14  27  14  28  14
M  END
>  <minimizedAffinity>  (1) 
-5.79885006

>  <minimizedRMSD>  (1) 
0.795333147

$$$$
