
     RDKit          3D

 38 40  0  0  0  0  0  0  0  0999 V2000
   37.1820   31.3800   48.5830 C   0  0  0  0  0  0  0  0  0  0  0  0
   37.5650   32.4150   49.4700 C   0  0  0  0  0  0  0  0  0  0  0  0
   38.5680   33.2910   49.0460 C   0  0  0  0  0  0  0  0  0  0  0  0
   39.1190   33.0880   47.7880 N   0  0  0  0  0  0  0  0  0  0  0  0
   38.7090   32.0910   47.0030 C   0  0  0  0  0  0  0  0  0  0  0  0
   37.7320   31.2150   47.3830 N   0  0  0  0  0  0  0  0  0  0  0  0
   39.3110   31.9080   45.6860 C   0  0  0  0  0  0  0  0  0  0  0  0
   40.4990   31.2100   45.4860 C   0  0  0  0  0  0  0  0  0  0  0  0
   40.7780   31.2340   44.1080 C   0  0  0  0  0  0  0  0  0  0  0  0
   39.7280   31.9510   43.5780 C   0  0  0  0  0  0  0  0  0  0  0  0
   38.8970   32.3290   44.5080 O   0  0  0  0  0  0  0  0  0  0  0  0
   39.5670   32.2450   42.1960 N   0  0  0  0  0  0  0  0  0  0  0  0
   40.0150   31.3520   41.1430 C   0  0  0  0  0  0  0  0  0  0  0  0
   38.7680   30.8360   40.4570 C   0  0  0  0  0  0  0  0  0  0  0  0
   37.8720   31.9110   40.1780 N   0  0  0  0  0  0  0  0  0  0  0  0
   38.4090   33.2290   40.3230 C   0  0  0  0  0  0  0  0  0  0  0  0
   38.9350   33.4710   41.7420 C   0  0  0  0  0  0  0  0  0  0  0  0
   36.1340   30.4820   49.0500 C   0  0  0  0  0  0  0  0  0  0  0  0
   34.9250   30.6970   48.7360 O   0  0  0  0  0  0  0  0  0  0  0  0
   36.4900   29.3890   49.8440 O   0  0  0  0  0  0  0  0  0  0  0  0
   36.5090   29.4420   51.2330 C   0  0  0  0  0  0  0  0  0  0  0  0
   37.6750   29.7290   51.9620 N   0  0  0  0  0  0  0  0  0  0  0  0
   35.4000   29.2130   51.7670 O   0  0  0  0  0  0  0  0  0  0  0  0
   37.0907   32.5255   50.4563 H   0  0  0  0  0  0  0  0  0  0  0  0
   38.9101   34.1154   49.6888 H   0  0  0  0  0  0  0  0  0  0  0  0
   41.1084   30.7275   46.2643 H   0  0  0  0  0  0  0  0  0  0  0  0
   41.6321   30.7864   43.5788 H   0  0  0  0  0  0  0  0  0  0  0  0
   40.6456   31.8971   40.4252 H   0  0  0  0  0  0  0  0  0  0  0  0
   40.6152   30.5255   41.5512 H   0  0  0  0  0  0  0  0  0  0  0  0
   39.0501   30.3453   39.5138 H   0  0  0  0  0  0  0  0  0  0  0  0
   38.2666   30.1174   41.1221 H   0  0  0  0  0  0  0  0  0  0  0  0
   37.0690   31.8259   40.8174 H   0  0  0  0  0  0  0  0  0  0  0  0
   39.2357   33.3582   39.6090 H   0  0  0  0  0  0  0  0  0  0  0  0
   37.6037   33.9521   40.1266 H   0  0  0  0  0  0  0  0  0  0  0  0
   39.6693   34.2900   41.7343 H   0  0  0  0  0  0  0  0  0  0  0  0
   38.1109   33.7506   42.4149 H   0  0  0  0  0  0  0  0  0  0  0  0
   37.6448   29.7583   52.9911 H   0  0  0  0  0  0  0  0  0  0  0  0
   38.5601   29.9101   51.4674 H   0  0  0  0  0  0  0  0  0  0  0  0
  1 18  1  0
  1  2  2  0
  3  2  1  0
  4  3  2  0
  5  6  2  0
  5  4  1  0
  6  1  1  0
  7  5  1  0
  8  7  2  0
  9  8  1  0
 10  9  2  0
 10 11  1  0
 11  7  1  0
 12 10  1  0
 13 12  1  0
 14 13  1  0
 15 16  1  0
 15 14  1  0
 16 17  1  0
 17 12  1  0
 18 20  1  0
 19 18  2  0
 20 21  1  0
 21 23  2  0
 21 22  1  0
  2 24  1  0
  3 25  1  0
  8 26  1  0
  9 27  1  0
 13 28  1  0
 13 29  1  0
 14 30  1  0
 14 31  1  0
 15 32  1  0
 16 33  1  0
 16 34  1  0
 17 35  1  0
 17 36  1  0
 22 37  1  0
 22 38  1  0
M  ISO  8  24  14  25  14  26  14  27  14  28  13  29  13  30  13  31  13
M  ISO  5  32   5  33  13  34  13  35  13  36  13
M  END
>  <minimizedAffinity>  (1) 
-5.79120684

>  <minimizedRMSD>  (1) 
0.911483228

$$$$
