
     RDKit          3D

 31 33  0  0  0  0  0  0  0  0999 V2000
   37.2480   31.4320   48.5580 C   0  0  0  0  0  0  0  0  0  0  0  0
   37.6950   32.4210   49.4760 C   0  0  0  0  0  0  0  0  0  0  0  0
   38.6870   33.3140   49.0370 C   0  0  0  0  0  0  0  0  0  0  0  0
   39.1480   33.1590   47.7490 N   0  0  0  0  0  0  0  0  0  0  0  0
   38.6990   32.2240   46.9340 C   0  0  0  0  0  0  0  0  0  0  0  0
   37.7360   31.3400   47.3260 N   0  0  0  0  0  0  0  0  0  0  0  0
   39.2150   32.0990   45.5800 C   0  0  0  0  0  0  0  0  0  0  0  0
   40.3820   31.4440   45.2590 C   0  0  0  0  0  0  0  0  0  0  0  0
   40.5780   31.5140   43.8840 C   0  0  0  0  0  0  0  0  0  0  0  0
   39.4870   32.2290   43.4450 C   0  0  0  0  0  0  0  0  0  0  0  0
   38.7260   32.5470   44.4540 O   0  0  0  0  0  0  0  0  0  0  0  0
   39.2250   32.5720   42.0760 C   0  0  0  0  0  0  0  0  0  0  0  0
   38.7150   33.6690   41.4970 C   0  0  0  0  0  0  0  0  0  0  0  0
   38.5610   33.7610   40.1410 C   0  0  0  0  0  0  0  0  0  0  0  0
   39.0060   32.5560   39.4240 C   0  0  0  0  0  0  0  0  0  0  0  0
   39.5790   31.4590   40.7280 S   0  0  0  0  0  0  0  0  0  0  0  0
   36.2230   30.5220   49.0370 C   0  0  0  0  0  0  0  0  0  0  0  0
   35.0020   30.7320   48.7360 O   0  0  0  0  0  0  0  0  0  0  0  0
   36.6060   29.4310   49.8230 O   0  0  0  0  0  0  0  0  0  0  0  0
   36.5610   29.4650   51.2060 C   0  0  0  0  0  0  0  0  0  0  0  0
   37.6960   29.7640   51.9900 N   0  0  0  0  0  0  0  0  0  0  0  0
   35.4300   29.2080   51.6870 O   0  0  0  0  0  0  0  0  0  0  0  0
   37.2796   32.4849   50.4926 H   0  0  0  0  0  0  0  0  0  0  0  0
   39.0788   34.1038   49.6948 H   0  0  0  0  0  0  0  0  0  0  0  0
   41.0520   30.9453   45.9749 H   0  0  0  0  0  0  0  0  0  0  0  0
   41.4055   31.0982   43.2904 H   0  0  0  0  0  0  0  0  0  0  0  0
   38.4127   34.5169   42.1291 H   0  0  0  0  0  0  0  0  0  0  0  0
   38.1462   34.6467   39.6374 H   0  0  0  0  0  0  0  0  0  0  0  0
   38.9915   32.3693   38.3401 H   0  0  0  0  0  0  0  0  0  0  0  0
   37.6227   29.7797   53.0173 H   0  0  0  0  0  0  0  0  0  0  0  0
   38.5975   29.9665   51.5348 H   0  0  0  0  0  0  0  0  0  0  0  0
  1 17  1  0
  1  2  2  0
  3  2  1  0
  4  3  2  0
  5  6  2  0
  5  4  1  0
  6  1  1  0
  7  5  1  0
  8  7  2  0
  9  8  1  0
 10  9  2  0
 10 11  1  0
 11  7  1  0
 12 10  1  0
 13 12  2  0
 14 13  1  0
 15 14  2  0
 15 16  1  0
 16 12  1  0
 17 19  1  0
 18 17  2  0
 19 20  1  0
 20 22  2  0
 20 21  1  0
  2 23  1  0
  3 24  1  0
  8 25  1  0
  9 26  1  0
 13 27  1  0
 14 28  1  0
 15 29  1  0
 21 30  1  0
 21 31  1  0
M  ISO  7  23  14  24  14  25  14  26  14  27  14  28  14  29  14
M  END
>  <minimizedAffinity>  (1) 
-5.78226423

>  <minimizedRMSD>  (1) 
0.812459588

$$$$
