
     RDKit          3D

 40 42  0  0  0  0  0  0  0  0999 V2000
   37.1470   31.4620   48.6870 C   0  0  0  0  0  0  0  0  0  0  0  0
   37.5410   32.4590   49.6040 C   0  0  0  0  0  0  0  0  0  0  0  0
   38.5410   33.3530   49.1890 C   0  0  0  0  0  0  0  0  0  0  0  0
   39.0640   33.1960   47.9220 N   0  0  0  0  0  0  0  0  0  0  0  0
   38.6500   32.2350   47.1040 C   0  0  0  0  0  0  0  0  0  0  0  0
   37.6840   31.3530   47.4760 N   0  0  0  0  0  0  0  0  0  0  0  0
   39.2300   32.1020   45.7710 C   0  0  0  0  0  0  0  0  0  0  0  0
   40.4240   31.4270   45.5300 C   0  0  0  0  0  0  0  0  0  0  0  0
   40.6940   31.4840   44.1660 C   0  0  0  0  0  0  0  0  0  0  0  0
   39.6130   32.2100   43.6600 C   0  0  0  0  0  0  0  0  0  0  0  0
   38.7990   32.5420   44.6230 O   0  0  0  0  0  0  0  0  0  0  0  0
   39.4470   32.5410   42.2160 C   0  0  0  0  0  0  0  0  0  0  0  0
   40.0100   31.4660   41.3530 C   0  0  0  0  0  0  0  0  0  0  0  0
   39.1800   31.0810   40.1700 C   0  0  0  0  0  0  0  0  0  0  0  0
   37.7140   30.9780   40.4230 C   0  0  0  0  0  0  0  0  0  0  0  0
   37.2770   31.5060   41.7690 C   0  0  0  0  0  0  0  0  0  0  0  0
   37.9780   32.8220   41.9950 C   0  0  0  0  0  0  0  0  0  0  0  0
   36.1080   30.5400   49.1330 C   0  0  0  0  0  0  0  0  0  0  0  0
   34.8920   30.7720   48.8380 O   0  0  0  0  0  0  0  0  0  0  0  0
   36.4520   29.4170   49.8760 O   0  0  0  0  0  0  0  0  0  0  0  0
   36.5010   29.4320   51.2680 C   0  0  0  0  0  0  0  0  0  0  0  0
   37.6870   29.6880   51.9920 N   0  0  0  0  0  0  0  0  0  0  0  0
   35.3980   29.1990   51.8100 O   0  0  0  0  0  0  0  0  0  0  0  0
   37.0841   32.5329   50.6019 H   0  0  0  0  0  0  0  0  0  0  0  0
   38.8966   34.1541   49.8537 H   0  0  0  0  0  0  0  0  0  0  0  0
   41.0479   30.9326   46.2891 H   0  0  0  0  0  0  0  0  0  0  0  0
   41.5497   31.0607   43.6196 H   0  0  0  0  0  0  0  0  0  0  0  0
   40.0169   33.4370   41.9289 H   0  0  0  0  0  0  0  0  0  0  0  0
   40.9879   31.8076   40.9827 H   0  0  0  0  0  0  0  0  0  0  0  0
   40.0611   30.5689   41.9875 H   0  0  0  0  0  0  0  0  0  0  0  0
   39.5322   30.1021   39.8125 H   0  0  0  0  0  0  0  0  0  0  0  0
   39.3046   31.8909   39.4361 H   0  0  0  0  0  0  0  0  0  0  0  0
   37.1888   31.5479   39.6423 H   0  0  0  0  0  0  0  0  0  0  0  0
   37.4665   29.9063   40.4095 H   0  0  0  0  0  0  0  0  0  0  0  0
   36.1873   31.6558   41.7768 H   0  0  0  0  0  0  0  0  0  0  0  0
   37.5334   30.7913   42.5649 H   0  0  0  0  0  0  0  0  0  0  0  0
   37.8506   33.4682   41.1140 H   0  0  0  0  0  0  0  0  0  0  0  0
   37.5526   33.3345   42.8704 H   0  0  0  0  0  0  0  0  0  0  0  0
   37.6718   29.6881   53.0219 H   0  0  0  0  0  0  0  0  0  0  0  0
   38.5668   29.8745   51.4899 H   0  0  0  0  0  0  0  0  0  0  0  0
  1 18  1  0
  1  2  2  0
  3  2  1  0
  4  3  2  0
  5  6  2  0
  5  4  1  0
  6  1  1  0
  7  5  1  0
  8  7  2  0
  9  8  1  0
 10  9  2  0
 10 11  1  0
 11  7  1  0
 12 10  1  0
 13 12  1  0
 14 15  1  0
 14 13  1  0
 15 16  1  0
 16 17  1  0
 17 12  1  0
 18 20  1  0
 19 18  2  0
 20 21  1  0
 21 23  2  0
 21 22  1  0
  2 24  1  0
  3 25  1  0
  8 26  1  0
  9 27  1  0
 12 28  1  0
 13 29  1  0
 13 30  1  0
 14 31  1  0
 14 32  1  0
 15 33  1  0
 15 34  1  0
 16 35  1  0
 16 36  1  0
 17 37  1  0
 17 38  1  0
 22 39  1  0
 22 40  1  0
M  ISO  8  24  14  25  14  26  14  27  14  28  13  29  13  30  13  31  13
M  ISO  7  32  13  33  13  34  13  35  13  36  13  37  13  38  13
M  END
>  <minimizedAffinity>  (1) 
-5.7795043

>  <minimizedRMSD>  (1) 
1.18072271

$$$$
