
     RDKit          3D

 31 33  0  0  0  0  0  0  0  0999 V2000
   37.2610   31.4320   48.5310 C   0  0  0  0  0  0  0  0  0  0  0  0
   37.7080   32.4130   49.4520 C   0  0  0  0  0  0  0  0  0  0  0  0
   38.6940   33.3040   49.0200 C   0  0  0  0  0  0  0  0  0  0  0  0
   39.1590   33.1610   47.7260 N   0  0  0  0  0  0  0  0  0  0  0  0
   38.7050   32.2270   46.9120 C   0  0  0  0  0  0  0  0  0  0  0  0
   37.7440   31.3400   47.2990 N   0  0  0  0  0  0  0  0  0  0  0  0
   39.2220   32.1060   45.5470 C   0  0  0  0  0  0  0  0  0  0  0  0
   40.3940   31.4530   45.2360 C   0  0  0  0  0  0  0  0  0  0  0  0
   40.5620   31.5410   43.8490 C   0  0  0  0  0  0  0  0  0  0  0  0
   39.4600   32.2530   43.4100 C   0  0  0  0  0  0  0  0  0  0  0  0
   38.7050   32.5630   44.4280 O   0  0  0  0  0  0  0  0  0  0  0  0
   39.2070   32.5920   42.0120 C   0  0  0  0  0  0  0  0  0  0  0  0
   39.4240   31.7690   40.9190 C   0  0  0  0  0  0  0  0  0  0  0  0
   39.0510   32.4940   39.8370 N   0  0  0  0  0  0  0  0  0  0  0  0
   38.6250   33.7150   40.2730 C   0  0  0  0  0  0  0  0  0  0  0  0
   38.7180   33.7820   41.6160 N   0  0  0  0  0  0  0  0  0  0  0  0
   36.2300   30.5140   49.0090 C   0  0  0  0  0  0  0  0  0  0  0  0
   35.0160   30.7120   48.7140 O   0  0  0  0  0  0  0  0  0  0  0  0
   36.6080   29.4220   49.7910 O   0  0  0  0  0  0  0  0  0  0  0  0
   36.5670   29.4640   51.1840 C   0  0  0  0  0  0  0  0  0  0  0  0
   37.6810   29.7630   51.9850 N   0  0  0  0  0  0  0  0  0  0  0  0
   35.4540   29.2130   51.6870 O   0  0  0  0  0  0  0  0  0  0  0  0
   37.2938   32.4706   50.4694 H   0  0  0  0  0  0  0  0  0  0  0  0
   39.0851   34.0889   49.6840 H   0  0  0  0  0  0  0  0  0  0  0  0
   41.0717   30.9552   45.9452 H   0  0  0  0  0  0  0  0  0  0  0  0
   41.3858   31.1349   43.2437 H   0  0  0  0  0  0  0  0  0  0  0  0
   39.8170   30.7416   40.9278 H   0  0  0  0  0  0  0  0  0  0  0  0
   38.2597   34.5248   39.6243 H   0  0  0  0  0  0  0  0  0  0  0  0
   38.4664   34.5803   42.2163 H   0  0  0  0  0  0  0  0  0  0  0  0
   37.5884   29.7789   53.0107 H   0  0  0  0  0  0  0  0  0  0  0  0
   38.5907   29.9665   51.5468 H   0  0  0  0  0  0  0  0  0  0  0  0
  1 17  1  0
  1  2  2  0
  3  2  1  0
  4  3  2  0
  5  6  2  0
  5  4  1  0
  6  1  1  0
  7  5  1  0
  8  7  2  0
  9  8  1  0
 10  9  2  0
 10 11  1  0
 11  7  1  0
 12 10  1  0
 13 12  2  0
 14 15  2  0
 14 13  1  0
 15 16  1  0
 16 12  1  0
 17 19  1  0
 18 17  2  0
 19 20  1  0
 20 22  2  0
 20 21  1  0
  2 23  1  0
  3 24  1  0
  8 25  1  0
  9 26  1  0
 13 27  1  0
 15 28  1  0
 16 29  1  0
 21 30  1  0
 21 31  1  0
M  ISO  7  23  14  24  14  25  14  26  14  27  14  28  14  29   9
M  END
>  <minimizedAffinity>  (1) 
-5.77747679

>  <minimizedRMSD>  (1) 
0.843202055

$$$$
