
     RDKit          3D

 31 33  0  0  0  0  0  0  0  0999 V2000
   37.1840   31.4490   48.6410 C   0  0  0  0  0  0  0  0  0  0  0  0
   37.5780   32.4040   49.6100 C   0  0  0  0  0  0  0  0  0  0  0  0
   38.5600   33.3220   49.2320 C   0  0  0  0  0  0  0  0  0  0  0  0
   39.0760   33.2360   47.9500 N   0  0  0  0  0  0  0  0  0  0  0  0
   38.6600   32.3080   47.0810 C   0  0  0  0  0  0  0  0  0  0  0  0
   37.7070   31.4050   47.4240 N   0  0  0  0  0  0  0  0  0  0  0  0
   39.2230   32.2440   45.7400 C   0  0  0  0  0  0  0  0  0  0  0  0
   40.3920   31.5560   45.4350 C   0  0  0  0  0  0  0  0  0  0  0  0
   40.6150   31.7170   44.0700 C   0  0  0  0  0  0  0  0  0  0  0  0
   39.5530   32.5050   43.6220 C   0  0  0  0  0  0  0  0  0  0  0  0
   38.7710   32.7850   44.6300 O   0  0  0  0  0  0  0  0  0  0  0  0
   39.2880   32.9870   42.2390 C   0  0  0  0  0  0  0  0  0  0  0  0
   37.8610   33.1350   41.8060 C   0  0  0  0  0  0  0  0  0  0  0  0
   38.6480   31.9780   41.3140 C   0  0  0  0  0  0  0  0  0  0  0  0
   36.1500   30.4910   49.0510 C   0  0  0  0  0  0  0  0  0  0  0  0
   34.9470   30.6640   48.6930 O   0  0  0  0  0  0  0  0  0  0  0  0
   36.5110   29.3940   49.8340 O   0  0  0  0  0  0  0  0  0  0  0  0
   36.5110   29.4270   51.2190 C   0  0  0  0  0  0  0  0  0  0  0  0
   37.6850   29.6850   51.9770 N   0  0  0  0  0  0  0  0  0  0  0  0
   35.3900   29.2130   51.7360 O   0  0  0  0  0  0  0  0  0  0  0  0
   37.1307   32.4217   50.6148 H   0  0  0  0  0  0  0  0  0  0  0  0
   38.9138   34.0921   49.9333 H   0  0  0  0  0  0  0  0  0  0  0  0
   41.0214   30.9915   46.1386 H   0  0  0  0  0  0  0  0  0  0  0  0
   41.4464   31.3118   43.4746 H   0  0  0  0  0  0  0  0  0  0  0  0
   40.1698   33.6443   42.2183 H   0  0  0  0  0  0  0  0  0  0  0  0
   37.0495   32.9764   42.5314 H   0  0  0  0  0  0  0  0  0  0  0  0
   37.2788   33.9343   41.3241 H   0  0  0  0  0  0  0  0  0  0  0  0
   38.4219   30.9647   41.6775 H   0  0  0  0  0  0  0  0  0  0  0  0
   38.8912   31.5683   40.3225 H   0  0  0  0  0  0  0  0  0  0  0  0
   37.6406   29.7005   53.0059 H   0  0  0  0  0  0  0  0  0  0  0  0
   38.5803   29.8566   51.4975 H   0  0  0  0  0  0  0  0  0  0  0  0
  1 15  1  0
  1  2  2  0
  3  2  1  0
  4  3  2  0
  5  6  2  0
  5  4  1  0
  6  1  1  0
  7  5  1  0
  8  7  2  0
  9  8  1  0
 10  9  2  0
 10 11  1  0
 11  7  1  0
 12 10  1  0
 13 12  1  0
 14 13  1  0
 14 12  1  0
 15 17  1  0
 16 15  2  0
 17 18  1  0
 18 20  2  0
 18 19  1  0
  2 21  1  0
  3 22  1  0
  8 23  1  0
  9 24  1  0
 12 25  1  0
 13 26  1  0
 13 27  1  0
 14 28  1  0
 14 29  1  0
 19 30  1  0
 19 31  1  0
M  ISO  8  21  14  22  14  23  14  24  14  25  13  26  13  27  13  28  13
M  ISO  1  29  13
M  END
>  <minimizedAffinity>  (1) 
-5.5565753

>  <minimizedRMSD>  (1) 
0.927817285

$$$$
