
     RDKit          3D

 26 27  0  0  0  0  0  0  0  0999 V2000
   37.2630   31.4480   48.5510 C   0  0  0  0  0  0  0  0  0  0  0  0
   37.7240   32.3980   49.4850 C   0  0  0  0  0  0  0  0  0  0  0  0
   38.7000   33.2910   49.0610 C   0  0  0  0  0  0  0  0  0  0  0  0
   39.1520   33.1880   47.7570 N   0  0  0  0  0  0  0  0  0  0  0  0
   38.6700   32.2610   46.9200 C   0  0  0  0  0  0  0  0  0  0  0  0
   37.7150   31.3740   47.3050 N   0  0  0  0  0  0  0  0  0  0  0  0
   39.1730   32.1850   45.5490 C   0  0  0  0  0  0  0  0  0  0  0  0
   40.3190   31.5010   45.2080 C   0  0  0  0  0  0  0  0  0  0  0  0
   40.5130   31.6270   43.8290 C   0  0  0  0  0  0  0  0  0  0  0  0
   39.4430   32.3980   43.4280 C   0  0  0  0  0  0  0  0  0  0  0  0
   38.6860   32.7020   44.4580 O   0  0  0  0  0  0  0  0  0  0  0  0
   39.1660   32.8300   42.0620 C   0  0  0  0  0  0  0  0  0  0  0  0
   38.9850   33.9960   41.6610 O   0  0  0  0  0  0  0  0  0  0  0  0
   36.2330   30.5170   49.0200 C   0  0  0  0  0  0  0  0  0  0  0  0
   35.0230   30.7100   48.7120 O   0  0  0  0  0  0  0  0  0  0  0  0
   36.5790   29.4290   49.7980 O   0  0  0  0  0  0  0  0  0  0  0  0
   36.5660   29.4650   51.2000 C   0  0  0  0  0  0  0  0  0  0  0  0
   37.6970   29.7570   51.9990 N   0  0  0  0  0  0  0  0  0  0  0  0
   35.4320   29.2100   51.6740 O   0  0  0  0  0  0  0  0  0  0  0  0
   37.3262   32.4309   50.5100 H   0  0  0  0  0  0  0  0  0  0  0  0
   39.1014   34.0567   49.7411 H   0  0  0  0  0  0  0  0  0  0  0  0
   40.9704   30.9497   45.9021 H   0  0  0  0  0  0  0  0  0  0  0  0
   41.3238   31.2112   43.2128 H   0  0  0  0  0  0  0  0  0  0  0  0
   39.1108   32.0377   41.3009 H   0  0  0  0  0  0  0  0  0  0  0  0
   37.6139   29.7658   53.0256 H   0  0  0  0  0  0  0  0  0  0  0  0
   38.6033   29.9607   51.5539 H   0  0  0  0  0  0  0  0  0  0  0  0
  1 14  1  0
  1  2  2  0
  3  2  1  0
  4  3  2  0
  5  6  2  0
  5  4  1  0
  6  1  1  0
  7  5  1  0
  8  7  2  0
  9  8  1  0
 10  9  2  0
 10 11  1  0
 11  7  1  0
 12 10  1  0
 13 12  2  0
 14 16  1  0
 15 14  2  0
 16 17  1  0
 17 19  2  0
 17 18  1  0
  2 20  1  0
  3 21  1  0
  8 22  1  0
  9 23  1  0
 12 24  1  0
 18 25  1  0
 18 26  1  0
M  ISO  5  20  14  21  14  22  14  23  14  24   6
M  END
>  <minimizedAffinity>  (1) 
-5.44449091

>  <minimizedRMSD>  (1) 
0.532996237

$$$$
