
     RDKit          3D

 39 42  0  0  0  0  0  0  0  0999 V2000
   39.1340   32.1480   45.5600 C   0  0  0  0  0  0  0  0  0  0  0  0
   40.3950   31.6450   45.2370 C   0  0  0  0  0  0  0  0  0  0  0  0
   40.5330   31.7020   43.8500 C   0  0  0  0  0  0  0  0  0  0  0  0
   39.3360   32.2410   43.4090 C   0  0  0  0  0  0  0  0  0  0  0  0
   38.5550   32.4830   44.4470 O   0  0  0  0  0  0  0  0  0  0  0  0
   37.2280   31.4590   48.5850 C   0  0  0  0  0  0  0  0  0  0  0  0
   37.7190   32.4220   49.5020 C   0  0  0  0  0  0  0  0  0  0  0  0
   38.7020   33.2930   49.0560 C   0  0  0  0  0  0  0  0  0  0  0  0
   39.1360   33.1640   47.7470 N   0  0  0  0  0  0  0  0  0  0  0  0
   38.6430   32.2410   46.9260 C   0  0  0  0  0  0  0  0  0  0  0  0
   37.6770   31.3720   47.3340 N   0  0  0  0  0  0  0  0  0  0  0  0
   36.1980   30.5520   49.0670 C   0  0  0  0  0  0  0  0  0  0  0  0
   34.9890   30.7560   48.7860 O   0  0  0  0  0  0  0  0  0  0  0  0
   36.5610   29.4530   49.8430 O   0  0  0  0  0  0  0  0  0  0  0  0
   36.5450   29.4650   51.2400 C   0  0  0  0  0  0  0  0  0  0  0  0
   37.7020   29.7510   52.0110 N   0  0  0  0  0  0  0  0  0  0  0  0
   35.4270   29.2020   51.7220 O   0  0  0  0  0  0  0  0  0  0  0  0
   38.9690   32.5100   42.0140 C   0  0  0  0  0  0  0  0  0  0  0  0
   39.5340   31.8550   40.9370 C   0  0  0  0  0  0  0  0  0  0  0  0
   38.8900   32.4300   39.8550 C   0  0  0  0  0  0  0  0  0  0  0  0
   37.9980   33.3660   40.2620 N   0  0  0  0  0  0  0  0  0  0  0  0
   38.0690   33.3930   41.5690 N   0  0  0  0  0  0  0  0  0  0  0  0
   37.1390   34.1830   39.4760 C   0  0  0  0  0  0  0  0  0  0  0  0
   37.3920   34.7710   38.2540 C   0  0  0  0  0  0  0  0  0  0  0  0
   36.3950   35.5370   37.6610 C   0  0  0  0  0  0  0  0  0  0  0  0
   35.2050   35.7010   38.2700 N   0  0  0  0  0  0  0  0  0  0  0  0
   34.9600   35.1230   39.4670 C   0  0  0  0  0  0  0  0  0  0  0  0
   35.9120   34.3940   40.0310 N   0  0  0  0  0  0  0  0  0  0  0  0
   41.1457   31.2706   45.9486 H   0  0  0  0  0  0  0  0  0  0  0  0
   41.3964   31.3897   43.2442 H   0  0  0  0  0  0  0  0  0  0  0  0
   37.3340   32.4766   50.5310 H   0  0  0  0  0  0  0  0  0  0  0  0
   39.1234   34.0616   49.7206 H   0  0  0  0  0  0  0  0  0  0  0  0
   37.6487   29.7499   53.0396 H   0  0  0  0  0  0  0  0  0  0  0  0
   38.5949   29.9597   51.5418 H   0  0  0  0  0  0  0  0  0  0  0  0
   40.3050   31.0705   40.9388 H   0  0  0  0  0  0  0  0  0  0  0  0
   39.0772   32.1629   38.8045 H   0  0  0  0  0  0  0  0  0  0  0  0
   38.3646   34.6362   37.7581 H   0  0  0  0  0  0  0  0  0  0  0  0
   36.5795   36.0130   36.6866 H   0  0  0  0  0  0  0  0  0  0  0  0
   33.9877   35.2554   39.9641 H   0  0  0  0  0  0  0  0  0  0  0  0
  1 10  1  0
  2  1  2  0
  3  2  1  0
  4  3  2  0
  4  5  1  0
  5  1  1  0
  6 12  1  0
  6  7  2  0
  8  7  1  0
  9  8  2  0
 10 11  2  0
 10  9  1  0
 11  6  1  0
 12 14  1  0
 13 12  2  0
 14 15  1  0
 15 17  2  0
 15 16  1  0
 18  4  1  0
 19 18  1  0
 20 21  1  0
 20 19  2  0
 21 22  1  0
 22 18  2  0
 23 28  1  0
 23 21  1  0
 24 23  2  0
 25 24  1  0
 25 26  2  0
 26 27  1  0
 27 28  2  0
  2 29  1  0
  3 30  1  0
  7 31  1  0
  8 32  1  0
 16 33  1  0
 16 34  1  0
 19 35  1  0
 20 36  1  0
 24 37  1  0
 25 38  1  0
 27 39  1  0
M  ISO  8  29  14  30  14  31  14  32  14  35  14  36  14  37  14  38  14
M  ISO  1  39  14
M  END
>  <minimizedAffinity>  (1) 
-6.03824711

>  <minimizedRMSD>  (1) 
0.876772642

$$$$
