
     RDKit          3D

 41 44  0  0  0  0  0  0  0  0999 V2000
   39.1270   32.1530   45.5580 C   0  0  0  0  0  0  0  0  0  0  0  0
   40.3860   31.6710   45.2380 C   0  0  0  0  0  0  0  0  0  0  0  0
   40.5270   31.7230   43.8560 C   0  0  0  0  0  0  0  0  0  0  0  0
   39.3060   32.2510   43.4120 C   0  0  0  0  0  0  0  0  0  0  0  0
   38.5470   32.4740   44.4500 O   0  0  0  0  0  0  0  0  0  0  0  0
   37.2310   31.4600   48.5890 C   0  0  0  0  0  0  0  0  0  0  0  0
   37.7190   32.4200   49.5070 C   0  0  0  0  0  0  0  0  0  0  0  0
   38.7020   33.2920   49.0530 C   0  0  0  0  0  0  0  0  0  0  0  0
   39.1340   33.1720   47.7600 N   0  0  0  0  0  0  0  0  0  0  0  0
   38.6380   32.2410   46.9230 C   0  0  0  0  0  0  0  0  0  0  0  0
   37.6840   31.3840   47.3370 N   0  0  0  0  0  0  0  0  0  0  0  0
   36.2070   30.5570   49.0740 C   0  0  0  0  0  0  0  0  0  0  0  0
   34.9880   30.7710   48.8040 O   0  0  0  0  0  0  0  0  0  0  0  0
   36.5820   29.4440   49.8470 O   0  0  0  0  0  0  0  0  0  0  0  0
   36.5530   29.4590   51.2330 C   0  0  0  0  0  0  0  0  0  0  0  0
   37.6900   29.7450   52.0130 N   0  0  0  0  0  0  0  0  0  0  0  0
   35.4450   29.2010   51.7280 O   0  0  0  0  0  0  0  0  0  0  0  0
   38.9600   32.5000   42.0240 C   0  0  0  0  0  0  0  0  0  0  0  0
   39.5180   31.8660   40.9370 C   0  0  0  0  0  0  0  0  0  0  0  0
   38.8740   32.4350   39.8650 C   0  0  0  0  0  0  0  0  0  0  0  0
   37.9770   33.3610   40.2670 N   0  0  0  0  0  0  0  0  0  0  0  0
   38.0400   33.3900   41.5880 N   0  0  0  0  0  0  0  0  0  0  0  0
   37.1120   34.1740   39.4830 C   0  0  0  0  0  0  0  0  0  0  0  0
   37.4150   34.7600   38.2710 C   0  0  0  0  0  0  0  0  0  0  0  0
   36.4920   35.5320   37.5960 C   0  0  0  0  0  0  0  0  0  0  0  0
   35.2190   35.7520   38.1060 C   0  0  0  0  0  0  0  0  0  0  0  0
   34.9200   35.1550   39.3310 C   0  0  0  0  0  0  0  0  0  0  0  0
   35.8300   34.3920   40.0000 C   0  0  0  0  0  0  0  0  0  0  0  0
   41.1412   31.3106   45.9520 H   0  0  0  0  0  0  0  0  0  0  0  0
   41.3946   31.4204   43.2513 H   0  0  0  0  0  0  0  0  0  0  0  0
   37.3365   32.4740   50.5369 H   0  0  0  0  0  0  0  0  0  0  0  0
   39.1229   34.0607   49.7178 H   0  0  0  0  0  0  0  0  0  0  0  0
   37.6227   29.7451   53.0408 H   0  0  0  0  0  0  0  0  0  0  0  0
   38.5889   29.9541   51.5557 H   0  0  0  0  0  0  0  0  0  0  0  0
   40.2955   31.0879   40.9286 H   0  0  0  0  0  0  0  0  0  0  0  0
   39.0645   32.1703   38.8145 H   0  0  0  0  0  0  0  0  0  0  0  0
   38.4130   34.6085   37.8340 H   0  0  0  0  0  0  0  0  0  0  0  0
   36.7706   35.9834   36.6323 H   0  0  0  0  0  0  0  0  0  0  0  0
   34.4818   36.3675   37.5697 H   0  0  0  0  0  0  0  0  0  0  0  0
   33.9221   35.3042   39.7691 H   0  0  0  0  0  0  0  0  0  0  0  0
   35.5518   33.9396   40.9633 H   0  0  0  0  0  0  0  0  0  0  0  0
  1 10  1  0
  2  1  2  0
  3  2  1  0
  4  3  2  0
  4  5  1  0
  5  1  1  0
  6 12  1  0
  6  7  2  0
  8  7  1  0
  9  8  2  0
 10 11  2  0
 10  9  1  0
 11  6  1  0
 12 14  1  0
 13 12  2  0
 14 15  1  0
 15 17  2  0
 15 16  1  0
 18  4  1  0
 19 18  1  0
 20 21  1  0
 20 19  2  0
 21 22  1  0
 22 18  2  0
 23 28  1  0
 23 21  1  0
 24 23  2  0
 25 26  2  0
 25 24  1  0
 26 27  1  0
 27 28  2  0
  2 29  1  0
  3 30  1  0
  7 31  1  0
  8 32  1  0
 16 33  1  0
 16 34  1  0
 19 35  1  0
 20 36  1  0
 24 37  1  0
 25 38  1  0
 26 39  1  0
 27 40  1  0
 28 41  1  0
M  ISO  8  29  14  30  14  31  14  32  14  35  14  36  14  37  14  38  14
M  ISO  3  39  14  40  14  41  14
M  END
>  <minimizedAffinity>  (1) 
-6.02832985

>  <minimizedRMSD>  (1) 
0.965521991

$$$$
