
     RDKit          3D

 43 46  0  0  0  0  0  0  0  0999 V2000
   30.0420   27.6810   47.1480 C   0  0  0  0  0  0  0  0  0  0  0  0
   30.8660   28.4060   46.3190 C   0  0  0  0  0  0  0  0  0  0  0  0
   32.1450   28.7700   46.6930 C   0  0  0  0  0  0  0  0  0  0  0  0
   32.6000   28.3940   47.9280 C   0  0  0  0  0  0  0  0  0  0  0  0
   31.7470   27.6600   48.7450 C   0  0  0  0  0  0  0  0  0  0  0  0
   30.4670   27.2840   48.3960 C   0  0  0  0  0  0  0  0  0  0  0  0
   35.6360   29.9810   48.6490 C   0  0  0  0  0  0  0  0  0  0  0  0
   35.7840   28.8860   49.4920 C   0  0  0  0  0  0  0  0  0  0  0  0
   34.6730   28.0820   49.3820 C   0  0  0  0  0  0  0  0  0  0  0  0
   33.8780   28.6740   48.4960 N   0  0  0  0  0  0  0  0  0  0  0  0
   34.4410   29.7840   48.0680 N   0  0  0  0  0  0  0  0  0  0  0  0
   37.9660   32.7670   49.3680 C   0  0  0  0  0  0  0  0  0  0  0  0
   38.6460   32.8440   48.1510 C   0  0  0  0  0  0  0  0  0  0  0  0
   38.2990   31.9630   47.1380 C   0  0  0  0  0  0  0  0  0  0  0  0
   37.3090   31.0620   47.3850 N   0  0  0  0  0  0  0  0  0  0  0  0
   36.6690   31.0060   48.5600 C   0  0  0  0  0  0  0  0  0  0  0  0
   36.9820   31.8520   49.5730 N   0  0  0  0  0  0  0  0  0  0  0  0
   28.4120   27.2540   46.6740 S   0  0  0  0  0  0  0  0  0  0  0  0
   28.2680   25.7630   46.7440 O   0  0  0  0  0  0  0  0  0  0  0  0
   27.4600   27.9260   47.6060 O   0  0  0  0  0  0  0  0  0  0  0  0
   28.0420   27.8420   45.0390 C   0  0  0  0  0  0  0  0  0  0  0  0
   26.8060   28.7080   45.0840 C   0  0  0  0  0  0  0  0  0  0  0  0
   25.7050   27.9200   44.3970 C   0  0  0  0  0  0  0  0  0  0  0  0
   26.3800   26.9300   43.5050 C   0  0  0  0  0  0  0  0  0  0  0  0
   27.6540   26.6130   44.2210 C   0  0  0  0  0  0  0  0  0  0  0  0
   30.4951   28.7052   45.3276 H   0  0  0  0  0  0  0  0  0  0  0  0
   32.7849   29.3503   46.0121 H   0  0  0  0  0  0  0  0  0  0  0  0
   32.1181   27.3592   49.7359 H   0  0  0  0  0  0  0  0  0  0  0  0
   29.8246   26.7023   49.0734 H   0  0  0  0  0  0  0  0  0  0  0  0
   36.6499   28.6932   50.1424 H   0  0  0  0  0  0  0  0  0  0  0  0
   34.4815   27.1408   49.9181 H   0  0  0  0  0  0  0  0  0  0  0  0
   38.2323   33.4617   50.1782 H   0  0  0  0  0  0  0  0  0  0  0  0
   39.4411   33.5887   47.9988 H   0  0  0  0  0  0  0  0  0  0  0  0
   38.8087   31.9914   46.1636 H   0  0  0  0  0  0  0  0  0  0  0  0
   28.8976   28.3987   44.6290 H   0  0  0  0  0  0  0  0  0  0  0  0
   26.5279   28.9202   46.1269 H   0  0  0  0  0  0  0  0  0  0  0  0
   26.9769   29.6730   44.5844 H   0  0  0  0  0  0  0  0  0  0  0  0
   25.0886   27.3988   45.1443 H   0  0  0  0  0  0  0  0  0  0  0  0
   25.0422   28.5837   43.8223 H   0  0  0  0  0  0  0  0  0  0  0  0
   26.5846   27.3686   42.5172 H   0  0  0  0  0  0  0  0  0  0  0  0
   25.7644   26.0377   43.3181 H   0  0  0  0  0  0  0  0  0  0  0  0
   27.5051   25.7506   44.8874 H   0  0  0  0  0  0  0  0  0  0  0  0
   28.4481   26.3605   43.5029 H   0  0  0  0  0  0  0  0  0  0  0  0
  1  6  2  0
  2  3  2  0
  2  1  1  0
  3  4  1  0
  4 10  1  0
  4  5  2  0
  6  5  1  0
  7  8  1  0
  9  8  2  0
 10  9  1  0
 11 10  1  0
 11  7  2  0
 12 17  2  0
 13 12  1  0
 14 15  1  0
 14 13  2  0
 15 16  2  0
 16  7  1  0
 16 17  1  0
 18 19  2  0
 18  1  1  0
 18 20  2  0
 21 22  1  0
 21 18  1  0
 23 22  1  0
 24 25  1  0
 24 23  1  0
 25 21  1  0
  2 26  1  0
  3 27  1  0
  5 28  1  0
  6 29  1  0
  8 30  1  0
  9 31  1  0
 12 32  1  0
 13 33  1  0
 14 34  1  0
 21 35  1  0
 22 36  1  0
 22 37  1  0
 23 38  1  0
 23 39  1  0
 24 40  1  0
 24 41  1  0
 25 42  1  0
 25 43  1  0
M  ISO  8  26  14  27  14  28  14  29  14  30  14  31  14  32  14  33  14
M  ISO  8  34  14  35  13  36  13  37  13  38  13  39  13  40  13  41  13
M  ISO  2  42  13  43  13
M  END
>  <minimizedAffinity>  (1) 
-5.89953232

>  <minimizedRMSD>  (1) 
0.679226518

$$$$
