
     RDKit          3D

 38 41  0  0  0  0  0  0  0  0999 V2000
   39.3110   31.8510   45.6680 C   0  0  0  0  0  0  0  0  0  0  0  0
   40.5880   31.2950   45.5040 C   0  0  0  0  0  0  0  0  0  0  0  0
   40.8490   31.2590   44.1380 C   0  0  0  0  0  0  0  0  0  0  0  0
   39.6980   31.8030   43.5470 C   0  0  0  0  0  0  0  0  0  0  0  0
   38.8540   32.1210   44.4890 O   0  0  0  0  0  0  0  0  0  0  0  0
   37.1710   31.3670   48.5770 C   0  0  0  0  0  0  0  0  0  0  0  0
   37.5690   32.4260   49.4580 C   0  0  0  0  0  0  0  0  0  0  0  0
   38.5680   33.2770   49.0130 C   0  0  0  0  0  0  0  0  0  0  0  0
   39.1160   33.0530   47.7600 N   0  0  0  0  0  0  0  0  0  0  0  0
   38.7070   32.0420   46.9710 C   0  0  0  0  0  0  0  0  0  0  0  0
   37.7280   31.1910   47.3800 N   0  0  0  0  0  0  0  0  0  0  0  0
   36.1250   30.4820   49.0520 C   0  0  0  0  0  0  0  0  0  0  0  0
   34.9270   30.7160   48.7500 O   0  0  0  0  0  0  0  0  0  0  0  0
   36.4670   29.3780   49.8450 O   0  0  0  0  0  0  0  0  0  0  0  0
   36.5090   29.4420   51.2400 C   0  0  0  0  0  0  0  0  0  0  0  0
   37.6750   29.7340   51.9560 N   0  0  0  0  0  0  0  0  0  0  0  0
   35.4070   29.2140   51.7760 O   0  0  0  0  0  0  0  0  0  0  0  0
   39.4890   31.9780   42.1230 C   0  0  0  0  0  0  0  0  0  0  0  0
   40.0840   31.2360   41.1370 C   0  0  0  0  0  0  0  0  0  0  0  0
   39.5860   31.7600   39.9650 C   0  0  0  0  0  0  0  0  0  0  0  0
   38.7320   32.7690   40.2260 N   0  0  0  0  0  0  0  0  0  0  0  0
   38.6850   32.8860   41.5480 N   0  0  0  0  0  0  0  0  0  0  0  0
   37.9510   33.6400   39.4170 C   0  0  0  0  0  0  0  0  0  0  0  0
   38.1090   34.3810   38.2650 C   0  0  0  0  0  0  0  0  0  0  0  0
   36.8970   35.0070   38.0510 C   0  0  0  0  0  0  0  0  0  0  0  0
   36.0580   34.6220   39.0770 C   0  0  0  0  0  0  0  0  0  0  0  0
   36.7160   33.8060   39.8740 O   0  0  0  0  0  0  0  0  0  0  0  0
   41.2582   30.9515   46.3058 H   0  0  0  0  0  0  0  0  0  0  0  0
   41.7538   30.8878   43.6344 H   0  0  0  0  0  0  0  0  0  0  0  0
   37.1013   32.5573   50.4449 H   0  0  0  0  0  0  0  0  0  0  0  0
   38.9178   34.1107   49.6396 H   0  0  0  0  0  0  0  0  0  0  0  0
   37.6522   29.7690   52.9852 H   0  0  0  0  0  0  0  0  0  0  0  0
   38.5562   29.9139   51.4540 H   0  0  0  0  0  0  0  0  0  0  0  0
   40.7986   30.4081   41.2550 H   0  0  0  0  0  0  0  0  0  0  0  0
   39.8484   31.4049   38.9575 H   0  0  0  0  0  0  0  0  0  0  0  0
   39.0140   34.4577   37.6444 H   0  0  0  0  0  0  0  0  0  0  0  0
   36.6476   35.6839   37.2206 H   0  0  0  0  0  0  0  0  0  0  0  0
   35.0140   34.9432   39.2072 H   0  0  0  0  0  0  0  0  0  0  0  0
  1 10  1  0
  2  1  2  0
  3  2  1  0
  4  3  2  0
  4  5  1  0
  5  1  1  0
  6 12  1  0
  6  7  2  0
  8  7  1  0
  9  8  2  0
 10 11  2  0
 10  9  1  0
 11  6  1  0
 12 14  1  0
 13 12  2  0
 14 15  1  0
 15 17  2  0
 15 16  1  0
 18  4  1  0
 19 18  1  0
 20 21  1  0
 20 19  2  0
 21 22  1  0
 22 18  2  0
 23 27  1  0
 23 21  1  0
 24 23  2  0
 25 24  1  0
 25 26  2  0
 26 27  1  0
  2 28  1  0
  3 29  1  0
  7 30  1  0
  8 31  1  0
 16 32  1  0
 16 33  1  0
 19 34  1  0
 20 35  1  0
 24 36  1  0
 25 37  1  0
 26 38  1  0
M  ISO  8  28  14  29  14  30  14  31  14  34  14  35  14  36  14  37  14
M  ISO  1  38  14
M  END
>  <minimizedAffinity>  (1) 
-5.91726255

>  <minimizedRMSD>  (1) 
0.869790614

$$$$
