
     RDKit          3D

 46 49  0  0  0  0  0  0  0  0999 V2000
   39.3130   31.8700   45.7010 C   0  0  0  0  0  0  0  0  0  0  0  0
   40.5630   31.2760   45.5300 C   0  0  0  0  0  0  0  0  0  0  0  0
   40.8410   31.2600   44.1660 C   0  0  0  0  0  0  0  0  0  0  0  0
   39.7340   31.8500   43.5810 C   0  0  0  0  0  0  0  0  0  0  0  0
   38.8700   32.1890   44.5210 O   0  0  0  0  0  0  0  0  0  0  0  0
   37.1660   31.3730   48.5980 C   0  0  0  0  0  0  0  0  0  0  0  0
   37.5490   32.4170   49.4810 C   0  0  0  0  0  0  0  0  0  0  0  0
   38.5540   33.2790   49.0450 C   0  0  0  0  0  0  0  0  0  0  0  0
   39.1010   33.0550   47.7940 N   0  0  0  0  0  0  0  0  0  0  0  0
   38.7000   32.0550   47.0070 C   0  0  0  0  0  0  0  0  0  0  0  0
   37.7210   31.1900   47.3940 N   0  0  0  0  0  0  0  0  0  0  0  0
   36.1190   30.4850   49.0640 C   0  0  0  0  0  0  0  0  0  0  0  0
   34.9160   30.7150   48.7570 O   0  0  0  0  0  0  0  0  0  0  0  0
   36.4440   29.3860   49.8490 O   0  0  0  0  0  0  0  0  0  0  0  0
   36.4860   29.4350   51.2370 C   0  0  0  0  0  0  0  0  0  0  0  0
   37.6720   29.7170   51.9520 N   0  0  0  0  0  0  0  0  0  0  0  0
   35.3970   29.2100   51.7880 O   0  0  0  0  0  0  0  0  0  0  0  0
   39.5250   32.0780   42.1580 C   0  0  0  0  0  0  0  0  0  0  0  0
   39.9650   31.2370   41.1630 C   0  0  0  0  0  0  0  0  0  0  0  0
   39.5450   31.8460   39.9940 C   0  0  0  0  0  0  0  0  0  0  0  0
   38.8890   32.9890   40.2790 N   0  0  0  0  0  0  0  0  0  0  0  0
   38.8870   33.1120   41.5860 N   0  0  0  0  0  0  0  0  0  0  0  0
   36.2070   34.1230   37.3070 N   0  0  0  0  0  0  0  0  0  0  0  0
   37.5550   33.8800   36.8890 C   0  0  0  0  0  0  0  0  0  0  0  0
   38.3170   33.1230   37.9560 C   0  0  0  0  0  0  0  0  0  0  0  0
   38.3210   33.8630   39.2700 C   0  0  0  0  0  0  0  0  0  0  0  0
   36.8710   34.1410   39.6260 C   0  0  0  0  0  0  0  0  0  0  0  0
   36.1760   34.8890   38.5160 C   0  0  0  0  0  0  0  0  0  0  0  0
   41.2126   30.8896   46.3292 H   0  0  0  0  0  0  0  0  0  0  0  0
   41.7384   30.8670   43.6658 H   0  0  0  0  0  0  0  0  0  0  0  0
   37.0737   32.5401   50.4654 H   0  0  0  0  0  0  0  0  0  0  0  0
   38.9011   34.1109   49.6755 H   0  0  0  0  0  0  0  0  0  0  0  0
   37.6587   29.7435   52.9816 H   0  0  0  0  0  0  0  0  0  0  0  0
   38.5497   29.8960   51.4435 H   0  0  0  0  0  0  0  0  0  0  0  0
   40.5232   30.2954   41.2717 H   0  0  0  0  0  0  0  0  0  0  0  0
   39.7204   31.4552   38.9808 H   0  0  0  0  0  0  0  0  0  0  0  0
   35.7361   33.2211   37.4673 H   0  0  0  0  0  0  0  0  0  0  0  0
   37.5446   33.2866   35.9628 H   0  0  0  0  0  0  0  0  0  0  0  0
   38.0520   34.8462   36.7172 H   0  0  0  0  0  0  0  0  0  0  0  0
   37.8447   32.1403   38.1018 H   0  0  0  0  0  0  0  0  0  0  0  0
   39.3590   33.0139   37.6208 H   0  0  0  0  0  0  0  0  0  0  0  0
   38.9010   34.7958   39.2099 H   0  0  0  0  0  0  0  0  0  0  0  0
   36.3527   33.1857   39.7956 H   0  0  0  0  0  0  0  0  0  0  0  0
   36.8457   34.7598   40.5351 H   0  0  0  0  0  0  0  0  0  0  0  0
   36.6860   35.8495   38.3505 H   0  0  0  0  0  0  0  0  0  0  0  0
   35.1285   35.0638   38.8027 H   0  0  0  0  0  0  0  0  0  0  0  0
  1 10  1  0
  2  1  2  0
  3  2  1  0
  4  3  2  0
  4  5  1  0
  5  1  1  0
  6 12  1  0
  6  7  2  0
  8  7  1  0
  9  8  2  0
 10 11  2  0
 10  9  1  0
 11  6  1  0
 12 14  1  0
 13 12  2  0
 14 15  1  0
 15 17  2  0
 15 16  1  0
 18  4  1  0
 19 18  1  0
 20 21  1  0
 20 19  2  0
 21 22  1  0
 22 18  2  0
 23 28  1  0
 24 23  1  0
 24 25  1  0
 25 26  1  0
 26 27  1  0
 26 21  1  0
 28 27  1  0
  2 29  1  0
  3 30  1  0
  7 31  1  0
  8 32  1  0
 16 33  1  0
 16 34  1  0
 19 35  1  0
 20 36  1  0
 23 37  1  0
 24 38  1  0
 24 39  1  0
 25 40  1  0
 25 41  1  0
 26 42  1  0
 27 43  1  0
 27 44  1  0
 28 45  1  0
 28 46  1  0
M  ISO  8  29  14  30  14  31  14  32  14  35  14  36  14  37   5  38  13
M  ISO  8  39  13  40  13  41  13  42  13  43  13  44  13  45  13  46  13
M  END
>  <minimizedAffinity>  (1) 
-5.87901306

>  <minimizedRMSD>  (1) 
0.994829118

$$$$
