
     RDKit          3D

 42 45  0  0  1  0  0  0  0  0999 V2000
   30.0280   27.6530   47.2290 C   0  0  0  0  0  0  0  0  0  0  0  0
   30.8570   28.3370   46.4030 C   0  0  0  0  0  0  0  0  0  0  0  0
   32.1370   28.7070   46.7720 C   0  0  0  0  0  0  0  0  0  0  0  0
   32.6020   28.3780   48.0170 C   0  0  0  0  0  0  0  0  0  0  0  0
   31.7470   27.6840   48.8430 C   0  0  0  0  0  0  0  0  0  0  0  0
   30.4750   27.3120   48.4850 C   0  0  0  0  0  0  0  0  0  0  0  0
   35.6440   29.9760   48.6710 C   0  0  0  0  0  0  0  0  0  0  0  0
   35.8150   28.8740   49.5040 C   0  0  0  0  0  0  0  0  0  0  0  0
   34.7020   28.0750   49.4080 C   0  0  0  0  0  0  0  0  0  0  0  0
   33.8840   28.6890   48.5350 N   0  0  0  0  0  0  0  0  0  0  0  0
   34.4310   29.7900   48.1090 N   0  0  0  0  0  0  0  0  0  0  0  0
   37.9610   32.7760   49.3480 C   0  0  0  0  0  0  0  0  0  0  0  0
   38.6350   32.8520   48.1180 C   0  0  0  0  0  0  0  0  0  0  0  0
   38.2870   31.9580   47.0990 C   0  0  0  0  0  0  0  0  0  0  0  0
   37.3050   31.0580   47.3660 N   0  0  0  0  0  0  0  0  0  0  0  0
   36.6680   31.0050   48.5650 C   0  0  0  0  0  0  0  0  0  0  0  0
   36.9820   31.8570   49.5710 N   0  0  0  0  0  0  0  0  0  0  0  0
   28.4020   27.1960   46.8040 S   0  0  0  0  0  0  0  0  0  0  0  0
   28.3360   25.7010   46.6310 O   0  0  0  0  0  0  0  0  0  0  0  0
   27.4830   27.6440   47.8820 O   0  0  0  0  0  0  0  0  0  0  0  0
   27.6090   26.6910   44.3900 N   0  0  0  0  0  0  0  0  0  0  0  0
   26.6900   27.1870   43.3950 C   0  0  0  0  0  0  0  0  0  0  0  0
   25.6730   27.8980   44.2770 C   0  0  0  0  0  0  0  0  0  0  0  0
   26.5910   28.5800   45.2810 C   0  0  0  0  0  0  0  0  0  0  0  0
   27.9010   27.8630   45.2300 C   0  0  1  0  0  0  0  0  0  0  0  0
   30.4972   28.6084   45.3996 H   0  0  0  0  0  0  0  0  0  0  0  0
   32.7772   29.2618   46.0703 H   0  0  0  0  0  0  0  0  0  0  0  0
   32.1034   27.4119   49.8475 H   0  0  0  0  0  0  0  0  0  0  0  0
   29.8309   26.7567   49.1828 H   0  0  0  0  0  0  0  0  0  0  0  0
   36.6947   28.6761   50.1340 H   0  0  0  0  0  0  0  0  0  0  0  0
   34.5177   27.1280   49.9364 H   0  0  0  0  0  0  0  0  0  0  0  0
   38.2312   33.4770   50.1515 H   0  0  0  0  0  0  0  0  0  0  0  0
   39.4236   33.6021   47.9582 H   0  0  0  0  0  0  0  0  0  0  0  0
   38.7888   31.9831   46.1205 H   0  0  0  0  0  0  0  0  0  0  0  0
   28.4687   26.3354   43.9479 H   0  0  0  0  0  0  0  0  0  0  0  0
   26.2287   26.3670   42.8251 H   0  0  0  0  0  0  0  0  0  0  0  0
   27.1510   27.8242   42.6260 H   0  0  0  0  0  0  0  0  0  0  0  0
   25.0836   28.6301   43.7055 H   0  0  0  0  0  0  0  0  0  0  0  0
   24.9193   27.2352   44.7271 H   0  0  0  0  0  0  0  0  0  0  0  0
   26.7280   29.6374   45.0105 H   0  0  0  0  0  0  0  0  0  0  0  0
   26.1623   28.5442   46.2934 H   0  0  0  0  0  0  0  0  0  0  0  0
   28.6890   28.5490   44.8858 H   0  0  0  0  0  0  0  0  0  0  0  0
  1  6  2  0
  2  3  2  0
  2  1  1  0
  3  4  1  0
  4 10  1  0
  4  5  2  0
  6  5  1  0
  7  8  1  0
  9  8  2  0
 10  9  1  0
 11 10  1  0
 11  7  2  0
 12 17  2  0
 13 12  1  0
 14 15  1  0
 14 13  2  0
 15 16  2  0
 16  7  1  0
 16 17  1  0
 18  1  1  0
 18 20  2  0
 19 18  2  0
 21 25  1  0
 22 23  1  0
 22 21  1  0
 23 24  1  0
 25 24  1  0
 25 18  1  0
  2 26  1  0
  3 27  1  0
  5 28  1  0
  6 29  1  0
  8 30  1  0
  9 31  1  0
 12 32  1  0
 13 33  1  0
 14 34  1  0
 21 35  1  0
 22 36  1  0
 22 37  1  0
 23 38  1  0
 23 39  1  0
 24 40  1  0
 24 41  1  0
 25 42  1  6
M  ISO  8  26  14  27  14  28  14  29  14  30  14  31  14  32  14  33  14
M  ISO  8  34  14  35   5  36  13  37  13  38  13  39  13  40  13  41  13
M  ISO  1  42  13
M  END
>  <minimizedAffinity>  (1) 
-5.81283998

>  <minimizedRMSD>  (1) 
0.422140867

$$$$
