
     RDKit          3D

 40 42  0  0  0  0  0  0  0  0999 V2000
   39.2930   31.8650   45.7040 C   0  0  0  0  0  0  0  0  0  0  0  0
   40.5420   31.2660   45.5320 C   0  0  0  0  0  0  0  0  0  0  0  0
   40.8220   31.2530   44.1680 C   0  0  0  0  0  0  0  0  0  0  0  0
   39.7030   31.8560   43.5860 C   0  0  0  0  0  0  0  0  0  0  0  0
   38.8570   32.1870   44.5250 O   0  0  0  0  0  0  0  0  0  0  0  0
   37.1550   31.3680   48.6000 C   0  0  0  0  0  0  0  0  0  0  0  0
   37.5460   32.4150   49.4860 C   0  0  0  0  0  0  0  0  0  0  0  0
   38.5500   33.2690   49.0480 C   0  0  0  0  0  0  0  0  0  0  0  0
   39.0980   33.0560   47.8000 N   0  0  0  0  0  0  0  0  0  0  0  0
   38.6840   32.0460   47.0090 C   0  0  0  0  0  0  0  0  0  0  0  0
   37.7120   31.1960   47.4010 N   0  0  0  0  0  0  0  0  0  0  0  0
   36.1050   30.4800   49.0660 C   0  0  0  0  0  0  0  0  0  0  0  0
   34.9040   30.7170   48.7620 O   0  0  0  0  0  0  0  0  0  0  0  0
   36.4480   29.3700   49.8490 O   0  0  0  0  0  0  0  0  0  0  0  0
   36.4870   29.4300   51.2390 C   0  0  0  0  0  0  0  0  0  0  0  0
   37.6770   29.7160   51.9550 N   0  0  0  0  0  0  0  0  0  0  0  0
   35.3960   29.2120   51.7880 O   0  0  0  0  0  0  0  0  0  0  0  0
   39.5120   32.0800   42.1640 C   0  0  0  0  0  0  0  0  0  0  0  0
   39.9320   31.2420   41.1650 C   0  0  0  0  0  0  0  0  0  0  0  0
   39.5370   31.8540   39.9960 C   0  0  0  0  0  0  0  0  0  0  0  0
   38.9080   33.0100   40.2810 N   0  0  0  0  0  0  0  0  0  0  0  0
   38.9010   33.1310   41.5890 N   0  0  0  0  0  0  0  0  0  0  0  0
   38.3800   33.8740   39.2440 C   0  0  0  0  0  0  0  0  0  0  0  0
   38.4590   33.2140   37.8800 C   0  0  0  0  0  0  0  0  0  0  0  0
   36.9030   34.1830   39.4660 C   0  0  0  0  0  0  0  0  0  0  0  0
   41.1891   30.8744   46.3307 H   0  0  0  0  0  0  0  0  0  0  0  0
   41.7172   30.8591   43.6645 H   0  0  0  0  0  0  0  0  0  0  0  0
   37.0738   32.5405   50.4716 H   0  0  0  0  0  0  0  0  0  0  0  0
   38.9004   34.0967   49.6821 H   0  0  0  0  0  0  0  0  0  0  0  0
   37.6629   29.7511   52.9843 H   0  0  0  0  0  0  0  0  0  0  0  0
   38.5555   29.8887   51.4458 H   0  0  0  0  0  0  0  0  0  0  0  0
   40.4682   30.2876   41.2730 H   0  0  0  0  0  0  0  0  0  0  0  0
   39.7091   31.4587   38.9840 H   0  0  0  0  0  0  0  0  0  0  0  0
   38.9895   34.7888   39.2858 H   0  0  0  0  0  0  0  0  0  0  0  0
   38.5889   32.1288   38.0047 H   0  0  0  0  0  0  0  0  0  0  0  0
   37.5309   33.4106   37.3232 H   0  0  0  0  0  0  0  0  0  0  0  0
   39.3145   33.6241   37.3232 H   0  0  0  0  0  0  0  0  0  0  0  0
   36.6957   34.2264   40.5454 H   0  0  0  0  0  0  0  0  0  0  0  0
   36.6580   35.1519   39.0063 H   0  0  0  0  0  0  0  0  0  0  0  0
   36.2901   33.3936   39.0063 H   0  0  0  0  0  0  0  0  0  0  0  0
  1 10  1  0
  2  1  2  0
  3  2  1  0
  4  3  2  0
  4  5  1  0
  5  1  1  0
  6 12  1  0
  6  7  2  0
  8  7  1  0
  9  8  2  0
 10 11  2  0
 10  9  1  0
 11  6  1  0
 12 14  1  0
 13 12  2  0
 14 15  1  0
 15 17  2  0
 15 16  1  0
 18  4  1  0
 19 18  1  0
 20 21  1  0
 20 19  2  0
 21 22  1  0
 22 18  2  0
 23 25  1  0
 23 21  1  0
 24 23  1  0
  2 26  1  0
  3 27  1  0
  7 28  1  0
  8 29  1  0
 16 30  1  0
 16 31  1  0
 19 32  1  0
 20 33  1  0
 23 34  1  0
 24 35  1  0
 24 36  1  0
 24 37  1  0
 25 38  1  0
 25 39  1  0
 25 40  1  0
M  ISO  8  26  14  27  14  28  14  29  14  32  14  33  14  34   8  35   8
M  ISO  5  36   8  37   8  38   8  39   8  40   8
M  END
>  <minimizedAffinity>  (1) 
-5.71737909

>  <minimizedRMSD>  (1) 
0.79094696

$$$$
