
     RDKit          3D

 26 28  0  0  0  0  0  0  0  0999 V2000
   37.6660   32.9360   49.8620 C   0  0  0  0  0  0  0  0  0  0  0  0
   38.5330   33.1750   48.7740 C   0  0  0  0  0  0  0  0  0  0  0  0
   38.4660   32.2970   47.6790 C   0  0  0  0  0  0  0  0  0  0  0  0
   37.5740   31.2670   47.7220 N   0  0  0  0  0  0  0  0  0  0  0  0
   36.7610   31.0760   48.7870 C   0  0  0  0  0  0  0  0  0  0  0  0
   36.8170   31.9070   49.8370 N   0  0  0  0  0  0  0  0  0  0  0  0
   35.8300   30.0200   48.8590 N   0  0  0  0  0  0  0  0  0  0  0  0
   35.8960   29.0540   49.7950 C   0  0  0  0  0  0  0  0  0  0  0  0
   34.8600   28.2000   49.5870 N   0  0  0  0  0  0  0  0  0  0  0  0
   34.1670   28.6480   48.5260 C   0  0  0  0  0  0  0  0  0  0  0  0
   33.0380   28.2020   47.8580 C   0  0  0  0  0  0  0  0  0  0  0  0
   32.5880   28.9100   46.7940 N   0  0  0  0  0  0  0  0  0  0  0  0
   33.1820   30.0240   46.3500 C   0  0  0  0  0  0  0  0  0  0  0  0
   34.2960   30.4990   46.9740 N   0  0  0  0  0  0  0  0  0  0  0  0
   34.7740   29.8130   48.0470 C   0  0  0  0  0  0  0  0  0  0  0  0
   39.3500   32.4670   46.4780 C   0  0  0  0  0  0  0  0  0  0  0  0
   38.6280   32.6560   45.3210 F   0  0  0  0  0  0  0  0  0  0  0  0
   40.1710   33.5710   46.6120 F   0  0  0  0  0  0  0  0  0  0  0  0
   40.0760   31.2930   46.2910 F   0  0  0  0  0  0  0  0  0  0  0  0
   32.3630   27.0420   48.2680 N   0  0  0  0  0  0  0  0  0  0  0  0
   37.6905   33.6027   50.7366 H   0  0  0  0  0  0  0  0  0  0  0  0
   39.2372   34.0200   48.7831 H   0  0  0  0  0  0  0  0  0  0  0  0
   36.6543   28.9711   50.5875 H   0  0  0  0  0  0  0  0  0  0  0  0
   32.7703   30.5568   45.4802 H   0  0  0  0  0  0  0  0  0  0  0  0
   31.5253   26.7263   47.7585 H   0  0  0  0  0  0  0  0  0  0  0  0
   32.7053   26.5062   49.0784 H   0  0  0  0  0  0  0  0  0  0  0  0
  2  1  2  0
  3  4  2  0
  3  2  1  0
  4  5  1  0
  5  7  1  0
  5  6  2  0
  6  1  1  0
  7  8  1  0
  9  8  2  0
 10  9  1  0
 11 20  1  0
 11 10  2  0
 12 11  1  0
 13 12  2  0
 13 14  1  0
 14 15  2  0
 15 10  1  0
 15  7  1  0
 16 18  1  0
 16  3  1  0
 17 16  1  0
 19 16  1  0
  1 21  1  0
  2 22  1  0
  8 23  1  0
 13 24  1  0
 20 25  1  0
 20 26  1  0
M  ISO  4  21  14  22  14  23  14  24  14
M  END
>  <minimizedAffinity>  (1) 
-6.32076883

>  <minimizedRMSD>  (1) 
1.87712348

$$$$
