
     RDKit          3D

 31 33  0  0  1  0  0  0  0  0999 V2000
   37.6880   29.8460   50.4500 C   0  0  0  0  0  0  0  0  0  0  0  0
   38.3120   31.1120   50.3850 C   0  0  0  0  0  0  0  0  0  0  0  0
   38.1010   31.8850   49.2460 C   0  0  0  0  0  0  0  0  0  0  0  0
   37.3050   31.3470   48.2870 N   0  0  0  0  0  0  0  0  0  0  0  0
   36.7190   30.1190   48.3850 C   0  0  0  0  0  0  0  0  0  0  0  0
   36.9290   29.4110   49.4560 N   0  0  0  0  0  0  0  0  0  0  0  0
   36.0630   30.1370   47.1230 C   0  0  0  0  0  0  0  0  0  0  0  0
   35.4970   30.1510   46.0360 N   0  0  0  0  0  0  0  0  0  0  0  0
   35.0850   30.2610   44.8980 C   0  0  0  0  0  0  0  0  0  0  0  0
   33.9720   29.5960   45.2100 N   0  0  0  0  0  0  0  0  0  0  0  0
   33.8230   29.1550   46.4950 C   0  0  0  0  0  0  0  0  0  0  0  0
   32.5880   28.4640   46.6950 C   0  0  0  0  0  0  0  0  0  0  0  0
   32.3660   27.9990   47.9580 C   0  0  0  0  0  0  0  0  0  0  0  0
   33.2180   28.1390   49.0330 C   0  0  0  0  0  0  0  0  0  0  0  0
   34.3490   28.8200   48.6690 C   0  0  0  0  0  0  0  0  0  0  0  0
   34.8430   29.4100   47.4610 C   0  0  0  0  0  0  0  0  0  0  0  0
   38.7260   33.2240   49.0730 C   0  0  0  0  0  0  0  0  0  0  0  0
   37.7600   34.2330   48.9890 F   0  0  0  0  0  0  0  0  0  0  0  0
   39.5430   33.5390   50.1230 F   0  0  0  0  0  0  0  0  0  0  0  0
   39.3790   33.2630   47.8400 F   0  0  0  0  0  0  0  0  0  0  0  0
   37.8346   29.2135   51.3379 H   0  0  0  0  0  0  0  0  0  0  0  0
   38.9446   31.4756   51.2082 H   0  0  0  0  0  0  0  0  0  0  0  0
   35.5728   31.0844   47.3913 H   0  0  0  0  0  0  0  0  0  0  0  0
   35.4041   29.1253   46.0195 H   0  0  0  0  0  0  0  0  0  0  0  0
   35.7101   29.7548   44.1477 H   0  0  0  0  0  0  0  0  0  0  0  0
   35.0160   31.2564   44.4349 H   0  0  0  0  0  0  0  0  0  0  0  0
   33.2448   29.4196   44.5022 H   0  0  0  0  0  0  0  0  0  0  0  0
   31.8622   28.3165   45.8817 H   0  0  0  0  0  0  0  0  0  0  0  0
   31.4215   27.4637   48.1350 H   0  0  0  0  0  0  0  0  0  0  0  0
   33.0168   27.7561   50.0444 H   0  0  0  0  0  0  0  0  0  0  0  0
   35.0484   28.9441   49.5089 H   0  0  0  0  0  0  0  0  0  0  0  0
  2  1  2  0
  3  2  1  0
  4  5  1  0
  4  3  2  0
  5  6  2  0
  6  1  1  0
  7 16  1  0
  7  5  1  0
  8  7  1  0
  9 10  1  0
  9  8  1  0
 10 11  1  0
 11 12  2  0
 11 16  1  0
 12 13  1  0
 13 14  2  0
 15 14  1  0
 16 15  2  0
 17  3  1  0
 17 19  1  0
 18 17  1  0
 20 17  1  0
  1 21  1  0
  2 22  1  0
  7 23  1  0
  8 24  1  0
  9 25  1  0
  9 26  1  0
 10 27  1  0
 12 28  1  0
 13 29  1  0
 14 30  1  0
 15 31  1  0
M  ISO  8  21  14  22  14  23  13  24   5  25  13  26  13  28  14  29  14
M  ISO  2  30  14  31  14
M  END
>  <minimizedAffinity>  (1) 
-6.09114313

>  <minimizedRMSD>  (1) 
2.03421068

$$$$
