
     RDKit          3D

 27 28  0  0  1  0  0  0  0  0999 V2000
   37.3940   29.7190   51.3120 C   0  0  0  0  0  0  0  0  0  0  0  0
   38.1540   30.8210   50.8630 C   0  0  0  0  0  0  0  0  0  0  0  0
   37.6450   31.5680   49.7690 C   0  0  0  0  0  0  0  0  0  0  0  0
   36.4700   31.1710   49.2350 N   0  0  0  0  0  0  0  0  0  0  0  0
   35.7800   30.1130   49.6960 C   0  0  0  0  0  0  0  0  0  0  0  0
   36.2400   29.3890   50.7290 N   0  0  0  0  0  0  0  0  0  0  0  0
   34.4800   29.6820   49.0960 C   0  0  1  0  0  0  0  0  0  0  0  0
   34.4670   30.1890   47.6970 C   0  0  0  0  0  0  0  0  0  0  0  0
   33.6340   29.4440   46.7270 C   0  0  0  0  0  0  0  0  0  0  0  0
   32.9260   28.2320   47.2840 C   0  0  0  0  0  0  0  0  0  0  0  0
   33.9630   27.4540   48.0330 C   0  0  0  0  0  0  0  0  0  0  0  0
   34.2860   28.2220   49.2800 C   0  0  0  0  0  0  0  0  0  0  0  0
   38.3640   32.7430   49.2210 C   0  0  0  0  0  0  0  0  0  0  0  0
   37.5380   33.8460   49.0910 F   0  0  0  0  0  0  0  0  0  0  0  0
   39.3940   33.1380   50.0700 F   0  0  0  0  0  0  0  0  0  0  0  0
   38.8290   32.4560   47.9460 F   0  0  0  0  0  0  0  0  0  0  0  0
   37.7605   29.1207   52.1592 H   0  0  0  0  0  0  0  0  0  0  0  0
   39.1060   31.0907   51.3437 H   0  0  0  0  0  0  0  0  0  0  0  0
   33.5990   30.1100   49.5967 H   0  0  0  0  0  0  0  0  0  0  0  0
   35.0480   31.0741   47.3986 H   0  0  0  0  0  0  0  0  0  0  0  0
   33.5374   29.7512   45.6752 H   0  0  0  0  0  0  0  0  0  0  0  0
   32.1165   28.5406   47.9619 H   0  0  0  0  0  0  0  0  0  0  0  0
   32.4708   27.6293   46.4843 H   0  0  0  0  0  0  0  0  0  0  0  0
   33.5712   26.4600   48.2945 H   0  0  0  0  0  0  0  0  0  0  0  0
   34.8643   27.3155   47.4177 H   0  0  0  0  0  0  0  0  0  0  0  0
   35.2125   27.8072   49.7036 H   0  0  0  0  0  0  0  0  0  0  0  0
   33.4115   28.1129   49.9383 H   0  0  0  0  0  0  0  0  0  0  0  0
  2  1  2  0
  3  2  1  0
  4  5  1  0
  4  3  2  0
  5  6  2  0
  6  1  1  0
  7 12  1  0
  7  5  1  0
  8  7  1  0
  9 10  1  0
  9  8  2  0
 10 11  1  0
 11 12  1  0
 13  3  1  0
 13 15  1  0
 14 13  1  0
 16 13  1  0
  1 17  1  0
  2 18  1  0
  7 19  1  1
  8 20  1  0
  9 21  1  0
 10 22  1  0
 10 23  1  0
 11 24  1  0
 11 25  1  0
 12 26  1  0
 12 27  1  0
M  ISO  8  17  14  18  14  19  13  20  13  21  13  22  13  23  13  24  13
M  ISO  3  25  13  26  13  27  13
M  END
>  <minimizedAffinity>  (1) 
-5.83128881

>  <minimizedRMSD>  (1) 
2.033535

$$$$
