
     RDKit          3D

 25 26  0  0  0  0  0  0  0  0999 V2000
   37.5370   29.2880   50.7400 C   0  0  0  0  0  0  0  0  0  0  0  0
   38.0810   30.5820   50.5620 C   0  0  0  0  0  0  0  0  0  0  0  0
   37.4720   31.4130   49.6070 C   0  0  0  0  0  0  0  0  0  0  0  0
   36.4090   30.9290   48.9190 N   0  0  0  0  0  0  0  0  0  0  0  0
   35.9230   29.6880   49.1210 C   0  0  0  0  0  0  0  0  0  0  0  0
   36.4870   28.8820   50.0250 N   0  0  0  0  0  0  0  0  0  0  0  0
   34.8060   29.2520   48.3630 N   0  0  0  0  0  0  0  0  0  0  0  0
   33.6400   28.5480   48.8960 C   0  0  0  0  0  0  0  0  0  0  0  0
   33.5470   27.4090   47.9020 C   0  0  0  0  0  0  0  0  0  0  0  0
   33.8540   28.1050   46.5820 C   0  0  0  0  0  0  0  0  0  0  0  0
   34.5610   29.3900   46.9540 C   0  0  0  0  0  0  0  0  0  0  0  0
   37.9700   32.7990   49.3420 C   0  0  0  0  0  0  0  0  0  0  0  0
   38.1470   33.0370   47.9950 F   0  0  0  0  0  0  0  0  0  0  0  0
   37.0630   33.7480   49.7790 F   0  0  0  0  0  0  0  0  0  0  0  0
   39.2070   32.9660   49.9490 F   0  0  0  0  0  0  0  0  0  0  0  0
   37.9863   28.6075   51.4783 H   0  0  0  0  0  0  0  0  0  0  0  0
   38.9467   30.9238   51.1483 H   0  0  0  0  0  0  0  0  0  0  0  0
   33.8148   28.1842   49.9193 H   0  0  0  0  0  0  0  0  0  0  0  0
   32.7303   29.1595   48.9880 H   0  0  0  0  0  0  0  0  0  0  0  0
   34.2884   26.6267   48.1219 H   0  0  0  0  0  0  0  0  0  0  0  0
   32.5756   26.8930   47.9126 H   0  0  0  0  0  0  0  0  0  0  0  0
   32.9235   28.3226   46.0372 H   0  0  0  0  0  0  0  0  0  0  0  0
   34.4722   27.4761   45.9245 H   0  0  0  0  0  0  0  0  0  0  0  0
   35.5060   29.4916   46.4002 H   0  0  0  0  0  0  0  0  0  0  0  0
   33.9705   30.2857   46.7110 H   0  0  0  0  0  0  0  0  0  0  0  0
  2  1  2  0
  3  2  1  0
  4  5  1  0
  4  3  2  0
  5  6  2  0
  6  1  1  0
  7  8  1  0
  7  5  1  0
  9  8  1  0
 10 11  1  0
 10  9  1  0
 11  7  1  0
 12  3  1  0
 12 14  1  0
 12 15  1  0
 13 12  1  0
  1 16  1  0
  2 17  1  0
  8 18  1  0
  8 19  1  0
  9 20  1  0
  9 21  1  0
 10 22  1  0
 10 23  1  0
 11 24  1  0
 11 25  1  0
M  ISO  8  16  14  17  14  18  13  19  13  20  13  21  13  22  13  23  13
M  ISO  2  24  13  25  13
M  END
>  <minimizedAffinity>  (1) 
-5.44400978

>  <minimizedRMSD>  (1) 
1.76143503

$$$$
