
     RDKit          3D

 21 22  0  0  0  0  0  0  0  0999 V2000
   37.4300   29.2810   50.7320 C   0  0  0  0  0  0  0  0  0  0  0  0
   38.0280   30.5580   50.5510 C   0  0  0  0  0  0  0  0  0  0  0  0
   37.4520   31.4330   49.6020 C   0  0  0  0  0  0  0  0  0  0  0  0
   36.3660   30.9890   48.9290 N   0  0  0  0  0  0  0  0  0  0  0  0
   35.8170   29.7720   49.1190 C   0  0  0  0  0  0  0  0  0  0  0  0
   36.3430   28.9290   50.0100 N   0  0  0  0  0  0  0  0  0  0  0  0
   34.6450   29.4210   48.3240 C   0  0  0  0  0  0  0  0  0  0  0  0
   33.9010   28.2870   48.6020 C   0  0  0  0  0  0  0  0  0  0  0  0
   32.8110   28.0470   47.7890 C   0  0  0  0  0  0  0  0  0  0  0  0
   32.4910   28.8800   46.7740 N   0  0  0  0  0  0  0  0  0  0  0  0
   33.2190   29.9680   46.5200 C   0  0  0  0  0  0  0  0  0  0  0  0
   34.3070   30.2470   47.2970 N   0  0  0  0  0  0  0  0  0  0  0  0
   37.9930   32.7850   49.3340 C   0  0  0  0  0  0  0  0  0  0  0  0
   38.1970   33.0210   47.9910 F   0  0  0  0  0  0  0  0  0  0  0  0
   37.0950   33.7690   49.7610 F   0  0  0  0  0  0  0  0  0  0  0  0
   39.2230   32.9220   49.9540 F   0  0  0  0  0  0  0  0  0  0  0  0
   37.8538   28.5764   51.4628 H   0  0  0  0  0  0  0  0  0  0  0  0
   38.9129   30.8564   51.1323 H   0  0  0  0  0  0  0  0  0  0  0  0
   34.1649   27.6112   49.4289 H   0  0  0  0  0  0  0  0  0  0  0  0
   32.1893   27.1581   47.9715 H   0  0  0  0  0  0  0  0  0  0  0  0
   32.9451   30.6362   45.6903 H   0  0  0  0  0  0  0  0  0  0  0  0
  2  1  2  0
  3  2  1  0
  4  5  1  0
  4  3  2  0
  5  6  2  0
  6  1  1  0
  7  8  2  0
  7  5  1  0
  9  8  1  0
 10  9  2  0
 11 10  1  0
 11 12  2  0
 12  7  1  0
 13  3  1  0
 13 15  1  0
 13 16  1  0
 14 13  1  0
  1 17  1  0
  2 18  1  0
  8 19  1  0
  9 20  1  0
 11 21  1  0
M  ISO  5  17  14  18  14  19  14  20  14  21  14
M  END
>  <minimizedAffinity>  (1) 
-5.39144993

>  <minimizedRMSD>  (1) 
2.14895535

$$$$
