
     RDKit          3D

 20 21  0  0  0  0  0  0  0  0999 V2000
   37.5210   30.4990   50.8660 C   0  0  0  0  0  0  0  0  0  0  0  0
   38.3260   31.2690   49.9990 C   0  0  0  0  0  0  0  0  0  0  0  0
   37.9890   31.3150   48.6330 C   0  0  0  0  0  0  0  0  0  0  0  0
   36.9070   30.6140   48.2370 N   0  0  0  0  0  0  0  0  0  0  0  0
   36.1600   29.8870   49.0950 C   0  0  0  0  0  0  0  0  0  0  0  0
   36.4560   29.8270   50.3880 N   0  0  0  0  0  0  0  0  0  0  0  0
   35.0130   29.1620   48.5850 C   0  0  0  0  0  0  0  0  0  0  0  0
   34.4230   27.9920   49.0160 C   0  0  0  0  0  0  0  0  0  0  0  0
   33.3290   27.5300   48.3310 C   0  0  0  0  0  0  0  0  0  0  0  0
   32.9020   28.2390   47.2880 C   0  0  0  0  0  0  0  0  0  0  0  0
   33.9430   29.6290   47.1140 S   0  0  0  0  0  0  0  0  0  0  0  0
   38.7910   32.1070   47.6520 C   0  0  0  0  0  0  0  0  0  0  0  0
   37.9900   32.5940   46.6250 F   0  0  0  0  0  0  0  0  0  0  0  0
   39.3600   33.2210   48.2510 F   0  0  0  0  0  0  0  0  0  0  0  0
   39.7350   31.2850   47.0730 F   0  0  0  0  0  0  0  0  0  0  0  0
   37.7647   30.4475   51.9374 H   0  0  0  0  0  0  0  0  0  0  0  0
   39.1971   31.8207   50.3822 H   0  0  0  0  0  0  0  0  0  0  0  0
   34.8190   27.4453   49.8845 H   0  0  0  0  0  0  0  0  0  0  0  0
   32.8201   26.6029   48.6335 H   0  0  0  0  0  0  0  0  0  0  0  0
   32.0426   27.9917   46.6474 H   0  0  0  0  0  0  0  0  0  0  0  0
  2  1  2  0
  3  2  1  0
  4  3  2  0
  4  5  1  0
  5  6  2  0
  6  1  1  0
  7  8  2  0
  7  5  1  0
  9  8  1  0
 10  9  2  0
 11 10  1  0
 11  7  1  0
 12 14  1  0
 12  3  1  0
 13 12  1  0
 15 12  1  0
  1 16  1  0
  2 17  1  0
  8 18  1  0
  9 19  1  0
 10 20  1  0
M  ISO  5  16  14  17  14  18  14  19  14  20  14
M  END
>  <minimizedAffinity>  (1) 
-5.22654867

>  <minimizedRMSD>  (1) 
0.999401152

$$$$
