
     RDKit          3D

 16 16  0  0  0  0  0  0  0  0999 V2000
   37.4140   30.1720   51.4150 C   0  0  0  0  0  0  0  0  0  0  0  0
   38.1430   30.8000   50.3830 C   0  0  0  0  0  0  0  0  0  0  0  0
   37.5970   30.7620   49.0870 C   0  0  0  0  0  0  0  0  0  0  0  0
   36.4080   30.1280   48.9050 N   0  0  0  0  0  0  0  0  0  0  0  0
   35.7490   29.5400   49.9310 C   0  0  0  0  0  0  0  0  0  0  0  0
   36.2500   29.5650   51.1710 N   0  0  0  0  0  0  0  0  0  0  0  0
   38.2760   31.3900   47.9260 C   0  0  0  0  0  0  0  0  0  0  0  0
   37.3900   32.1140   47.1290 F   0  0  0  0  0  0  0  0  0  0  0  0
   39.2190   32.3280   48.3550 F   0  0  0  0  0  0  0  0  0  0  0  0
   38.8320   30.4280   47.1190 F   0  0  0  0  0  0  0  0  0  0  0  0
   34.4750   28.8680   49.6960 C   0  0  0  0  0  0  0  0  0  0  0  0
   34.4240   27.7580   49.1080 O   0  0  0  0  0  0  0  0  0  0  0  0
   33.2670   29.3990   50.0960 O   0  0  0  0  0  0  0  0  0  0  0  0
   37.8123   30.1827   52.4403 H   0  0  0  0  0  0  0  0  0  0  0  0
   39.1018   31.3003   50.5841 H   0  0  0  0  0  0  0  0  0  0  0  0
   32.4264   28.9081   49.9156 H   0  0  0  0  0  0  0  0  0  0  0  0
  2  1  2  0
  3  2  1  0
  4  3  2  0
  4  5  1  0
  5  6  2  0
  6  1  1  0
  7  9  1  0
  7  3  1  0
  8  7  1  0
 10  7  1  0
 11  5  1  0
 11 13  1  0
 12 11  2  0
  1 14  1  0
  2 15  1  0
 13 16  1  0
M  ISO  3  14  14  15  14  16   3
M  END
>  <minimizedAffinity>  (1) 
-4.78028584

>  <minimizedRMSD>  (1) 
0.996524274

$$$$
