
     RDKit          3D

 15 15  0  0  0  0  0  0  0  0999 V2000
   37.5080   30.3120   51.1120 C   0  0  0  0  0  0  0  0  0  0  0  0
   38.2130   31.0700   50.1520 C   0  0  0  0  0  0  0  0  0  0  0  0
   37.8600   30.9220   48.7990 C   0  0  0  0  0  0  0  0  0  0  0  0
   36.8630   30.0610   48.5090 N   0  0  0  0  0  0  0  0  0  0  0  0
   36.2100   29.3540   49.4430 C   0  0  0  0  0  0  0  0  0  0  0  0
   36.5250   29.4760   50.7340 N   0  0  0  0  0  0  0  0  0  0  0  0
   35.1870   28.4970   48.9490 N   0  0  0  0  0  0  0  0  0  0  0  0
   38.5530   31.6840   47.7070 C   0  0  0  0  0  0  0  0  0  0  0  0
   37.6350   32.2530   46.8310 F   0  0  0  0  0  0  0  0  0  0  0  0
   39.2880   32.7320   48.2270 F   0  0  0  0  0  0  0  0  0  0  0  0
   39.3330   30.8110   46.9870 F   0  0  0  0  0  0  0  0  0  0  0  0
   37.7648   30.4060   52.1775 H   0  0  0  0  0  0  0  0  0  0  0  0
   39.0166   31.7577   50.4543 H   0  0  0  0  0  0  0  0  0  0  0  0
   34.6385   27.9199   49.6025 H   0  0  0  0  0  0  0  0  0  0  0  0
   34.9950   28.4538   47.9380 H   0  0  0  0  0  0  0  0  0  0  0  0
  2  1  2  0
  3  2  1  0
  4  3  2  0
  4  5  1  0
  5  6  2  0
  6  1  1  0
  7  5  1  0
  8 10  1  0
  8  3  1  0
  9  8  1  0
 11  8  1  0
  1 12  1  0
  2 13  1  0
  7 14  1  0
  7 15  1  0
M  ISO  2  12  14  13  14
M  END
>  <minimizedAffinity>  (1) 
-4.30145693

>  <minimizedRMSD>  (1) 
0.297422975

$$$$
