
     RDKit          3D

 24 26  0  0  0  0  0  0  0  0999 V2000
   37.4520   30.7350   50.5300 C   0  0  0  0  0  0  0  0  0  0  0  0
   38.1860   31.4820   49.5880 C   0  0  0  0  0  0  0  0  0  0  0  0
   37.7810   31.4080   48.2360 C   0  0  0  0  0  0  0  0  0  0  0  0
   36.7160   30.6310   47.9180 N   0  0  0  0  0  0  0  0  0  0  0  0
   36.0400   29.9310   48.8610 C   0  0  0  0  0  0  0  0  0  0  0  0
   36.4000   29.9790   50.1490 N   0  0  0  0  0  0  0  0  0  0  0  0
   34.9190   29.1010   48.5860 N   0  0  0  0  0  0  0  0  0  0  0  0
   34.6590   27.8770   49.0790 C   0  0  0  0  0  0  0  0  0  0  0  0
   33.4820   27.4600   48.5460 N   0  0  0  0  0  0  0  0  0  0  0  0
   32.9900   28.3890   47.7270 C   0  0  0  0  0  0  0  0  0  0  0  0
   31.8790   28.5630   46.9180 C   0  0  0  0  0  0  0  0  0  0  0  0
   31.0370   27.6240   46.8820 O   0  0  0  0  0  0  0  0  0  0  0  0
   31.7070   29.6870   46.1990 N   0  0  0  0  0  0  0  0  0  0  0  0
   32.6080   30.6930   46.2370 C   0  0  0  0  0  0  0  0  0  0  0  0
   32.4600   31.8970   45.4920 N   0  0  0  0  0  0  0  0  0  0  0  0
   33.7170   30.5760   47.0140 N   0  0  0  0  0  0  0  0  0  0  0  0
   33.9100   29.4430   47.7510 C   0  0  0  0  0  0  0  0  0  0  0  0
   37.7399   30.7680   51.5911 H   0  0  0  0  0  0  0  0  0  0  0  0
   39.0430   32.1003   49.8935 H   0  0  0  0  0  0  0  0  0  0  0  0
   38.3187   31.9692   47.4575 H   0  0  0  0  0  0  0  0  0  0  0  0
   35.2867   27.3152   49.7864 H   0  0  0  0  0  0  0  0  0  0  0  0
   30.8699   29.7827   45.6065 H   0  0  0  0  0  0  0  0  0  0  0  0
   33.1768   32.6339   45.5564 H   0  0  0  0  0  0  0  0  0  0  0  0
   31.6362   32.0312   44.8885 H   0  0  0  0  0  0  0  0  0  0  0  0
  2  1  2  0
  3  2  1  0
  4  3  2  0
  4  5  1  0
  5  6  2  0
  6  1  1  0
  7  5  1  0
  7  8  1  0
  9  8  2  0
 10 17  2  0
 10  9  1  0
 11 10  1  0
 12 11  2  0
 13 14  1  0
 13 11  1  0
 14 16  2  0
 15 14  1  0
 16 17  1  0
 17  7  1  0
  1 18  1  0
  2 19  1  0
  3 20  1  0
  8 21  1  0
 13 22  1  0
 15 23  1  0
 15 24  1  0
M  ISO  5  18  14  19  14  20  14  21  14  22   9
M  END
>  <minimizedAffinity>  (1) 
-5.12639284

>  <minimizedRMSD>  (1) 
1.48496556

$$$$
