
     RDKit          3D

 37 40  0  0  0  0  0  0  0  0999 V2000
   30.1040   27.8660   47.0410 C   0  0  0  0  0  0  0  0  0  0  0  0
   30.9650   28.5630   46.2590 C   0  0  0  0  0  0  0  0  0  0  0  0
   32.2390   28.8950   46.6590 C   0  0  0  0  0  0  0  0  0  0  0  0
   32.6710   28.5100   47.9010 C   0  0  0  0  0  0  0  0  0  0  0  0
   31.7860   27.8040   48.6850 C   0  0  0  0  0  0  0  0  0  0  0  0
   30.5140   27.4690   48.2930 C   0  0  0  0  0  0  0  0  0  0  0  0
   35.7400   30.0180   48.6650 C   0  0  0  0  0  0  0  0  0  0  0  0
   35.8610   28.8810   49.4830 C   0  0  0  0  0  0  0  0  0  0  0  0
   34.7290   28.1160   49.3380 C   0  0  0  0  0  0  0  0  0  0  0  0
   33.9520   28.7700   48.4630 N   0  0  0  0  0  0  0  0  0  0  0  0
   34.5400   29.8620   48.0820 N   0  0  0  0  0  0  0  0  0  0  0  0
   38.1910   32.6550   49.4830 C   0  0  0  0  0  0  0  0  0  0  0  0
   38.8100   32.8250   48.2330 C   0  0  0  0  0  0  0  0  0  0  0  0
   38.3720   32.0390   47.1620 C   0  0  0  0  0  0  0  0  0  0  0  0
   37.3730   31.1560   47.3910 N   0  0  0  0  0  0  0  0  0  0  0  0
   36.7950   31.0150   48.6120 C   0  0  0  0  0  0  0  0  0  0  0  0
   37.1810   31.7500   49.6790 N   0  0  0  0  0  0  0  0  0  0  0  0
   28.4690   27.4730   46.5480 S   0  0  0  0  0  0  0  0  0  0  0  0
   28.5360   26.4750   45.4190 O   0  0  0  0  0  0  0  0  0  0  0  0
   27.7630   26.8870   47.7180 O   0  0  0  0  0  0  0  0  0  0  0  0
   27.6620   28.8710   45.8830 C   0  0  0  0  0  0  0  0  0  0  0  0
   26.9950   28.9720   44.6690 C   0  0  0  0  0  0  0  0  0  0  0  0
   26.5280   30.2140   44.5570 N   0  0  0  0  0  0  0  0  0  0  0  0
   26.9020   30.8550   45.6780 C   0  0  0  0  0  0  0  0  0  0  0  0
   27.6060   30.0690   46.5290 N   0  0  0  0  0  0  0  0  0  0  0  0
   30.6298   28.8773   45.2596 H   0  0  0  0  0  0  0  0  0  0  0  0
   32.9025   29.4625   45.9899 H   0  0  0  0  0  0  0  0  0  0  0  0
   32.1184   27.4897   49.6854 H   0  0  0  0  0  0  0  0  0  0  0  0
   29.8450   26.9023   48.9573 H   0  0  0  0  0  0  0  0  0  0  0  0
   36.7181   28.6437   50.1304 H   0  0  0  0  0  0  0  0  0  0  0  0
   34.5059   27.1618   49.8378 H   0  0  0  0  0  0  0  0  0  0  0  0
   38.5282   33.2683   50.3316 H   0  0  0  0  0  0  0  0  0  0  0  0
   39.6192   33.5582   48.1000 H   0  0  0  0  0  0  0  0  0  0  0  0
   38.8257   32.1359   46.1646 H   0  0  0  0  0  0  0  0  0  0  0  0
   26.8737   28.1669   43.9294 H   0  0  0  0  0  0  0  0  0  0  0  0
   26.6616   31.9086   45.8835 H   0  0  0  0  0  0  0  0  0  0  0  0
   28.0038   30.3183   47.4458 H   0  0  0  0  0  0  0  0  0  0  0  0
  1  6  2  0
  2  3  2  0
  2  1  1  0
  3  4  1  0
  4 10  1  0
  4  5  2  0
  6  5  1  0
  7  8  1  0
  9  8  2  0
 10  9  1  0
 11 10  1  0
 11  7  2  0
 12 17  2  0
 13 12  1  0
 14 15  1  0
 14 13  2  0
 15 16  2  0
 16  7  1  0
 16 17  1  0
 18  1  1  0
 18 20  2  0
 19 18  2  0
 21 25  1  0
 21 18  1  0
 22 21  2  0
 23 22  1  0
 23 24  2  0
 24 25  1  0
  2 26  1  0
  3 27  1  0
  5 28  1  0
  6 29  1  0
  8 30  1  0
  9 31  1  0
 12 32  1  0
 13 33  1  0
 14 34  1  0
 22 35  1  0
 24 36  1  0
 25 37  1  0
M  ISO  8  26  14  27  14  28  14  29  14  30  14  31  14  32  14  33  14
M  ISO  4  34  14  35  14  36  14  37   9
M  END
>  <minimizedAffinity>  (1) 
-5.74351978

>  <minimizedRMSD>  (1) 
1.46064782

$$$$
