
     RDKit          3D

 26 27  0  0  0  0  0  0  0  0999 V2000
   37.6750   30.8440   50.6040 C   0  0  0  0  0  0  0  0  0  0  0  0
   38.5110   31.5330   49.6880 C   0  0  0  0  0  0  0  0  0  0  0  0
   38.1170   31.5600   48.3340 C   0  0  0  0  0  0  0  0  0  0  0  0
   36.9650   30.9320   47.9680 N   0  0  0  0  0  0  0  0  0  0  0  0
   36.1980   30.2860   48.8810 C   0  0  0  0  0  0  0  0  0  0  0  0
   36.5530   30.2460   50.1800 N   0  0  0  0  0  0  0  0  0  0  0  0
   32.6150   28.3400   47.7050 C   0  0  0  0  0  0  0  0  0  0  0  0
   33.1550   29.3050   46.8740 C   0  0  0  0  0  0  0  0  0  0  0  0
   34.3210   29.9050   47.3040 C   0  0  0  0  0  0  0  0  0  0  0  0
   34.9850   29.6270   48.4810 C   0  0  0  0  0  0  0  0  0  0  0  0
   34.3820   28.6530   49.2580 C   0  0  0  0  0  0  0  0  0  0  0  0
   33.2170   27.9990   48.9080 C   0  0  0  0  0  0  0  0  0  0  0  0
   31.1410   27.4900   47.2970 S   0  0  0  0  0  0  0  0  0  0  0  0
   29.9750   28.3740   47.5350 O   0  0  0  0  0  0  0  0  0  0  0  0
   31.0570   26.2260   48.1160 O   0  0  0  0  0  0  0  0  0  0  0  0
   38.9210   32.2540   47.2900 C   0  0  0  0  0  0  0  0  0  0  0  0
   38.1590   32.6910   46.2320 F   0  0  0  0  0  0  0  0  0  0  0  0
   39.5150   33.4070   47.8140 F   0  0  0  0  0  0  0  0  0  0  0  0
   39.8770   31.3960   46.7880 F   0  0  0  0  0  0  0  0  0  0  0  0
   37.9493   30.8003   51.6684 H   0  0  0  0  0  0  0  0  0  0  0  0
   39.4343   32.0289   50.0221 H   0  0  0  0  0  0  0  0  0  0  0  0
   32.6800   29.5797   45.9206 H   0  0  0  0  0  0  0  0  0  0  0  0
   34.7600   30.6731   46.6503 H   0  0  0  0  0  0  0  0  0  0  0  0
   34.8594   28.3836   50.2117 H   0  0  0  0  0  0  0  0  0  0  0  0
   32.7795   27.2311   49.5629 H   0  0  0  0  0  0  0  0  0  0  0  0
   31.1407   27.1444   45.9713 H   0  0  0  0  0  0  0  0  0  0  0  0
  2  1  2  0
  3  2  1  0
  4  3  2  0
  4  5  1  0
  5  6  2  0
  6  1  1  0
  7 12  2  0
  8  9  2  0
  8  7  1  0
  9 10  1  0
 10  5  1  0
 10 11  2  0
 12 11  1  0
 13 14  2  0
 13  7  1  0
 13 15  2  0
 16 18  1  0
 16  3  1  0
 17 16  1  0
 19 16  1  0
  1 20  1  0
  2 21  1  0
  8 22  1  0
  9 23  1  0
 11 24  1  0
 12 25  1  0
 13 26  1  0
M  ISO  7  20  14  21  14  22  14  23  14  24  14  25  14  26  11
M  END
>  <minimizedAffinity>  (1) 
-5.74273109

>  <minimizedRMSD>  (1) 
2.13831091

$$$$
