
     RDKit          3D

 40 43  0  0  0  0  0  0  0  0999 V2000
   32.6680   28.2960   47.7430 C   0  0  0  0  0  0  0  0  0  0  0  0
   33.2920   29.1680   46.8560 C   0  0  0  0  0  0  0  0  0  0  0  0
   34.4410   29.7950   47.2890 C   0  0  0  0  0  0  0  0  0  0  0  0
   35.0280   29.6360   48.5180 C   0  0  0  0  0  0  0  0  0  0  0  0
   34.3460   28.7510   49.3480 C   0  0  0  0  0  0  0  0  0  0  0  0
   33.1940   28.0840   48.9930 C   0  0  0  0  0  0  0  0  0  0  0  0
   37.7000   30.8680   50.6440 C   0  0  0  0  0  0  0  0  0  0  0  0
   38.5340   31.5680   49.7190 C   0  0  0  0  0  0  0  0  0  0  0  0
   38.1370   31.5910   48.3640 C   0  0  0  0  0  0  0  0  0  0  0  0
   36.9890   30.9550   47.9970 N   0  0  0  0  0  0  0  0  0  0  0  0
   36.2280   30.3010   48.9240 C   0  0  0  0  0  0  0  0  0  0  0  0
   36.5830   30.2620   50.2200 N   0  0  0  0  0  0  0  0  0  0  0  0
   38.9320   32.2880   47.3200 C   0  0  0  0  0  0  0  0  0  0  0  0
   38.1760   32.7090   46.2620 F   0  0  0  0  0  0  0  0  0  0  0  0
   39.5280   33.4370   47.8500 F   0  0  0  0  0  0  0  0  0  0  0  0
   39.8910   31.4260   46.8050 F   0  0  0  0  0  0  0  0  0  0  0  0
   31.1810   27.4840   47.3370 S   0  0  0  0  0  0  0  0  0  0  0  0
   30.4940   28.1620   46.2420 O   0  0  0  0  0  0  0  0  0  0  0  0
   30.2960   27.4770   48.5900 O   0  0  0  0  0  0  0  0  0  0  0  0
   31.5100   25.8130   46.9060 C   0  0  0  0  0  0  0  0  0  0  0  0
   32.6400   25.0310   47.0290 C   0  0  0  0  0  0  0  0  0  0  0  0
   32.4010   23.7970   46.5510 N   0  0  0  0  0  0  0  0  0  0  0  0
   31.1150   23.7420   46.1050 C   0  0  0  0  0  0  0  0  0  0  0  0
   30.3970   22.6950   45.5270 C   0  0  0  0  0  0  0  0  0  0  0  0
   29.0930   22.9960   45.1920 C   0  0  0  0  0  0  0  0  0  0  0  0
   28.4510   24.2070   45.3700 C   0  0  0  0  0  0  0  0  0  0  0  0
   29.2400   25.1960   45.9520 C   0  0  0  0  0  0  0  0  0  0  0  0
   30.5520   24.9830   46.3200 C   0  0  0  0  0  0  0  0  0  0  0  0
   32.8851   29.3496   45.8503 H   0  0  0  0  0  0  0  0  0  0  0  0
   34.9307   30.4845   46.5856 H   0  0  0  0  0  0  0  0  0  0  0  0
   34.7538   28.5723   50.3539 H   0  0  0  0  0  0  0  0  0  0  0  0
   32.7053   27.3950   49.6975 H   0  0  0  0  0  0  0  0  0  0  0  0
   37.9760   30.8265   51.7080 H   0  0  0  0  0  0  0  0  0  0  0  0
   39.4538   32.0718   50.0509 H   0  0  0  0  0  0  0  0  0  0  0  0
   33.5964   25.3676   47.4556 H   0  0  0  0  0  0  0  0  0  0  0  0
   33.0784   23.0215   46.5262 H   0  0  0  0  0  0  0  0  0  0  0  0
   30.8380   21.7027   45.3513 H   0  0  0  0  0  0  0  0  0  0  0  0
   28.5026   22.1879   44.7356 H   0  0  0  0  0  0  0  0  0  0  0  0
   27.4044   24.3755   45.0765 H   0  0  0  0  0  0  0  0  0  0  0  0
   28.7984   26.1884   46.1254 H   0  0  0  0  0  0  0  0  0  0  0  0
  1  6  2  0
  2  3  2  0
  2  1  1  0
  3  4  1  0
  4 11  1  0
  4  5  2  0
  6  5  1  0
  8  7  2  0
  9  8  1  0
 10  9  2  0
 10 11  1  0
 11 12  2  0
 12  7  1  0
 13 15  1  0
 13  9  1  0
 14 13  1  0
 16 13  1  0
 17  1  1  0
 17 19  2  0
 18 17  2  0
 20 21  2  0
 20 17  1  0
 22 21  1  0
 23 28  2  0
 23 22  1  0
 24 23  1  0
 25 26  1  0
 25 24  2  0
 26 27  2  0
 27 28  1  0
 28 20  1  0
  2 29  1  0
  3 30  1  0
  5 31  1  0
  6 32  1  0
  7 33  1  0
  8 34  1  0
 21 35  1  0
 22 36  1  0
 24 37  1  0
 25 38  1  0
 26 39  1  0
 27 40  1  0
M  ISO  8  29  14  30  14  31  14  32  14  33  14  34  14  35  14  36   9
M  ISO  4  37  14  38  14  39  14  40  14
M  END
>  <minimizedAffinity>  (1) 
-6.53063917

>  <minimizedRMSD>  (1) 
1.50790632

$$$$
