
     RDKit          3D

 42 44  0  0  0  0  0  0  0  0999 V2000
   33.3410   28.4160   47.8690 C   0  0  0  0  0  0  0  0  0  0  0  0
   33.7090   29.2680   46.8650 C   0  0  0  0  0  0  0  0  0  0  0  0
   34.7750   30.1110   47.0800 C   0  0  0  0  0  0  0  0  0  0  0  0
   35.5200   30.1800   48.2270 C   0  0  0  0  0  0  0  0  0  0  0  0
   35.1040   29.2940   49.2150 C   0  0  0  0  0  0  0  0  0  0  0  0
   34.0430   28.4190   49.0700 C   0  0  0  0  0  0  0  0  0  0  0  0
   37.8560   32.4460   49.8360 C   0  0  0  0  0  0  0  0  0  0  0  0
   38.7620   32.7540   48.7910 C   0  0  0  0  0  0  0  0  0  0  0  0
   38.5350   32.1600   47.5330 C   0  0  0  0  0  0  0  0  0  0  0  0
   37.4730   31.3300   47.3830 N   0  0  0  0  0  0  0  0  0  0  0  0
   36.6290   31.0630   48.4160 C   0  0  0  0  0  0  0  0  0  0  0  0
   36.8250   31.6160   49.6230 N   0  0  0  0  0  0  0  0  0  0  0  0
   39.4240   32.4110   46.3540 C   0  0  0  0  0  0  0  0  0  0  0  0
   38.7270   32.6470   45.1960 F   0  0  0  0  0  0  0  0  0  0  0  0
   40.1930   33.5700   46.5700 F   0  0  0  0  0  0  0  0  0  0  0  0
   40.2300   31.3220   46.1310 F   0  0  0  0  0  0  0  0  0  0  0  0
   31.9820   27.3400   47.7500 S   0  0  0  0  0  0  0  0  0  0  0  0
   31.1140   27.7280   46.6270 O   0  0  0  0  0  0  0  0  0  0  0  0
   31.1640   27.4580   49.0550 O   0  0  0  0  0  0  0  0  0  0  0  0
   32.3820   25.6370   47.6550 C   0  0  0  0  0  0  0  0  0  0  0  0
   33.6810   25.2750   47.0350 C   0  0  0  0  0  0  0  0  0  0  0  0
   34.0560   23.9090   47.6440 C   0  0  0  0  0  0  0  0  0  0  0  0
   32.8390   23.0390   47.4130 C   0  0  0  0  0  0  0  0  0  0  0  0
   31.9040   23.6020   46.3570 C   0  0  0  0  0  0  0  0  0  0  0  0
   31.3240   24.9420   46.7330 C   0  0  0  0  0  0  0  0  0  0  0  0
   33.1660   29.2793   45.9085 H   0  0  0  0  0  0  0  0  0  0  0  0
   35.0530   30.7884   46.2592 H   0  0  0  0  0  0  0  0  0  0  0  0
   35.6517   29.2889   50.1689 H   0  0  0  0  0  0  0  0  0  0  0  0
   33.7600   27.7394   49.8874 H   0  0  0  0  0  0  0  0  0  0  0  0
   37.9999   32.8920   50.8312 H   0  0  0  0  0  0  0  0  0  0  0  0
   39.6121   33.4324   48.9556 H   0  0  0  0  0  0  0  0  0  0  0  0
   32.4137   25.3224   48.7086 H   0  0  0  0  0  0  0  0  0  0  0  0
   34.4461   26.0275   47.2764 H   0  0  0  0  0  0  0  0  0  0  0  0
   33.6134   25.2302   45.9380 H   0  0  0  0  0  0  0  0  0  0  0  0
   34.9365   23.4869   47.1375 H   0  0  0  0  0  0  0  0  0  0  0  0
   34.3169   23.9857   48.7099 H   0  0  0  0  0  0  0  0  0  0  0  0
   33.1755   22.0430   47.0893 H   0  0  0  0  0  0  0  0  0  0  0  0
   32.2802   22.9937   48.3594 H   0  0  0  0  0  0  0  0  0  0  0  0
   31.0770   22.8922   46.2076 H   0  0  0  0  0  0  0  0  0  0  0  0
   32.4943   23.7462   45.4401 H   0  0  0  0  0  0  0  0  0  0  0  0
   31.1485   25.5474   45.8315 H   0  0  0  0  0  0  0  0  0  0  0  0
   30.3585   24.8290   47.2478 H   0  0  0  0  0  0  0  0  0  0  0  0
  1  6  2  0
  2  3  2  0
  2  1  1  0
  3  4  1  0
  4 11  1  0
  4  5  2  0
  6  5  1  0
  8  7  2  0
  9  8  1  0
 10  9  2  0
 10 11  1  0
 11 12  2  0
 12  7  1  0
 13 15  1  0
 13  9  1  0
 14 13  1  0
 16 13  1  0
 17  1  1  0
 17 19  2  0
 18 17  2  0
 20 17  1  0
 21 22  1  0
 21 20  1  0
 23 22  1  0
 24 25  1  0
 24 23  1  0
 25 20  1  0
  2 26  1  0
  3 27  1  0
  5 28  1  0
  6 29  1  0
  7 30  1  0
  8 31  1  0
 20 32  1  0
 21 33  1  0
 21 34  1  0
 22 35  1  0
 22 36  1  0
 23 37  1  0
 23 38  1  0
 24 39  1  0
 24 40  1  0
 25 41  1  0
 25 42  1  0
M  ISO  8  26  14  27  14  28  14  29  14  30  14  31  14  32  13  33  13
M  ISO  8  34  13  35  13  36  13  37  13  38  13  39  13  40  13  41  13
M  ISO  1  42  13
M  END
>  <minimizedAffinity>  (1) 
-6.34101391

>  <minimizedRMSD>  (1) 
2.21510339

$$$$
