
     RDKit          3D

 39 41  0  0  0  0  0  0  0  0999 V2000
   33.6010   28.6380   47.8190 C   0  0  0  0  0  0  0  0  0  0  0  0
   34.1630   29.2570   46.7050 C   0  0  0  0  0  0  0  0  0  0  0  0
   35.2180   30.1160   46.9200 C   0  0  0  0  0  0  0  0  0  0  0  0
   35.7680   30.4200   48.1350 C   0  0  0  0  0  0  0  0  0  0  0  0
   35.1580   29.7690   49.2020 C   0  0  0  0  0  0  0  0  0  0  0  0
   34.0980   28.8930   49.0730 C   0  0  0  0  0  0  0  0  0  0  0  0
   38.1000   32.7000   49.7300 C   0  0  0  0  0  0  0  0  0  0  0  0
   38.9980   33.0190   48.6710 C   0  0  0  0  0  0  0  0  0  0  0  0
   38.7630   32.4240   47.4110 C   0  0  0  0  0  0  0  0  0  0  0  0
   37.7020   31.5850   47.2700 N   0  0  0  0  0  0  0  0  0  0  0  0
   36.8730   31.3130   48.3120 C   0  0  0  0  0  0  0  0  0  0  0  0
   37.0720   31.8640   49.5220 N   0  0  0  0  0  0  0  0  0  0  0  0
   39.6380   32.6870   46.2390 C   0  0  0  0  0  0  0  0  0  0  0  0
   38.9360   32.9370   45.0910 F   0  0  0  0  0  0  0  0  0  0  0  0
   40.4310   33.8120   46.4610 F   0  0  0  0  0  0  0  0  0  0  0  0
   40.4340   31.5770   45.9820 F   0  0  0  0  0  0  0  0  0  0  0  0
   32.2340   27.5700   47.6830 S   0  0  0  0  0  0  0  0  0  0  0  0
   31.3480   27.9970   46.6040 O   0  0  0  0  0  0  0  0  0  0  0  0
   31.4810   27.6090   49.0200 O   0  0  0  0  0  0  0  0  0  0  0  0
   33.7260   23.3520   46.8820 C   0  0  0  0  0  0  0  0  0  0  0  0
   32.4960   23.5250   47.4870 C   0  0  0  0  0  0  0  0  0  0  0  0
   31.9910   24.8000   47.7560 C   0  0  0  0  0  0  0  0  0  0  0  0
   32.7420   25.9070   47.4060 C   0  0  0  0  0  0  0  0  0  0  0  0
   33.9840   25.7050   46.7950 C   0  0  0  0  0  0  0  0  0  0  0  0
   34.4780   24.4460   46.5330 C   0  0  0  0  0  0  0  0  0  0  0  0
   34.3590   21.7600   46.5450 S   0  0  0  0  0  0  0  0  0  0  0  0
   35.0900   21.7330   45.2290 O   0  0  0  0  0  0  0  0  0  0  0  0
   35.3370   21.3040   47.5890 O   0  0  0  0  0  0  0  0  0  0  0  0
   33.7789   29.0670   45.6919 H   0  0  0  0  0  0  0  0  0  0  0  0
   35.6575   30.6008   46.0358 H   0  0  0  0  0  0  0  0  0  0  0  0
   35.5444   29.9643   50.2132 H   0  0  0  0  0  0  0  0  0  0  0  0
   33.6603   28.4088   49.9584 H   0  0  0  0  0  0  0  0  0  0  0  0
   38.2509   33.1426   50.7257 H   0  0  0  0  0  0  0  0  0  0  0  0
   39.8441   33.7040   48.8285 H   0  0  0  0  0  0  0  0  0  0  0  0
   31.9021   22.6411   47.7626 H   0  0  0  0  0  0  0  0  0  0  0  0
   31.0103   24.9212   48.2392 H   0  0  0  0  0  0  0  0  0  0  0  0
   34.5867   26.5813   46.5142 H   0  0  0  0  0  0  0  0  0  0  0  0
   35.4591   24.3195   46.0519 H   0  0  0  0  0  0  0  0  0  0  0  0
   33.2695   20.9297   46.5249 H   0  0  0  0  0  0  0  0  0  0  0  0
  1  6  2  0
  2  3  2  0
  2  1  1  0
  3  4  1  0
  4 11  1  0
  4  5  2  0
  6  5  1  0
  8  7  2  0
  9  8  1  0
 10  9  2  0
 10 11  1  0
 11 12  2  0
 12  7  1  0
 13 15  1  0
 13  9  1  0
 14 13  1  0
 16 13  1  0
 17  1  1  0
 17 19  2  0
 18 17  2  0
 20 21  2  0
 21 22  1  0
 23 17  1  0
 23 22  2  0
 24 23  1  0
 25 24  2  0
 25 20  1  0
 26 20  1  0
 26 28  2  0
 27 26  2  0
  2 29  1  0
  3 30  1  0
  5 31  1  0
  6 32  1  0
  7 33  1  0
  8 34  1  0
 21 35  1  0
 22 36  1  0
 24 37  1  0
 25 38  1  0
 26 39  1  0
M  ISO  8  29  14  30  14  31  14  32  14  33  14  34  14  35  14  36  14
M  ISO  3  37  14  38  14  39  11
M  END
>  <minimizedAffinity>  (1) 
-6.21832943

>  <minimizedRMSD>  (1) 
3.31765103

$$$$
