
     RDKit          3D

 36 38  0  0  0  0  0  0  0  0999 V2000
   32.5170   28.2760   47.7500 C   0  0  0  0  0  0  0  0  0  0  0  0
   33.1980   29.0830   46.8430 C   0  0  0  0  0  0  0  0  0  0  0  0
   34.3580   29.6900   47.2760 C   0  0  0  0  0  0  0  0  0  0  0  0
   34.9020   29.5700   48.5260 C   0  0  0  0  0  0  0  0  0  0  0  0
   34.1690   28.7500   49.3790 C   0  0  0  0  0  0  0  0  0  0  0  0
   33.0030   28.1080   49.0240 C   0  0  0  0  0  0  0  0  0  0  0  0
   37.6150   30.7190   50.6530 C   0  0  0  0  0  0  0  0  0  0  0  0
   38.4460   31.4260   49.7350 C   0  0  0  0  0  0  0  0  0  0  0  0
   38.0360   31.4850   48.3860 C   0  0  0  0  0  0  0  0  0  0  0  0
   36.8750   30.8720   48.0260 N   0  0  0  0  0  0  0  0  0  0  0  0
   36.1140   30.2070   48.9460 C   0  0  0  0  0  0  0  0  0  0  0  0
   36.4820   30.1360   50.2320 N   0  0  0  0  0  0  0  0  0  0  0  0
   38.8320   32.1950   47.3540 C   0  0  0  0  0  0  0  0  0  0  0  0
   38.0750   32.6270   46.3030 F   0  0  0  0  0  0  0  0  0  0  0  0
   39.4300   33.3300   47.8850 F   0  0  0  0  0  0  0  0  0  0  0  0
   39.7970   31.3430   46.8300 F   0  0  0  0  0  0  0  0  0  0  0  0
   31.0110   27.4980   47.3400 S   0  0  0  0  0  0  0  0  0  0  0  0
   30.3910   28.1380   46.1830 O   0  0  0  0  0  0  0  0  0  0  0  0
   30.0880   27.6080   48.5600 O   0  0  0  0  0  0  0  0  0  0  0  0
   31.2990   25.7980   47.0200 C   0  0  0  0  0  0  0  0  0  0  0  0
   30.4080   25.2080   46.1200 C   0  0  0  0  0  0  0  0  0  0  0  0
   30.5360   23.8630   45.7880 C   0  0  0  0  0  0  0  0  0  0  0  0
   31.5520   23.1010   46.3530 C   0  0  0  0  0  0  0  0  0  0  0  0
   32.4170   23.7210   47.2410 C   0  0  0  0  0  0  0  0  0  0  0  0
   32.3020   25.0540   47.5790 C   0  0  0  0  0  0  0  0  0  0  0  0
   32.8247   29.2310   45.8189 H   0  0  0  0  0  0  0  0  0  0  0  0
   34.8922   30.3255   46.5544 H   0  0  0  0  0  0  0  0  0  0  0  0
   34.5450   28.6053   50.4026 H   0  0  0  0  0  0  0  0  0  0  0  0
   32.4709   27.4726   49.7472 H   0  0  0  0  0  0  0  0  0  0  0  0
   37.9042   30.6511   51.7121 H   0  0  0  0  0  0  0  0  0  0  0  0
   39.3763   31.9097   50.0675 H   0  0  0  0  0  0  0  0  0  0  0  0
   29.6026   25.8089   45.6724 H   0  0  0  0  0  0  0  0  0  0  0  0
   29.8330   23.4025   45.0782 H   0  0  0  0  0  0  0  0  0  0  0  0
   31.6663   22.0360   46.1025 H   0  0  0  0  0  0  0  0  0  0  0  0
   33.2256   23.1281   47.6934 H   0  0  0  0  0  0  0  0  0  0  0  0
   33.0071   25.5122   48.2882 H   0  0  0  0  0  0  0  0  0  0  0  0
  1  6  2  0
  2  3  2  0
  2  1  1  0
  3  4  1  0
  4 11  1  0
  4  5  2  0
  6  5  1  0
  8  7  2  0
  9  8  1  0
 10  9  2  0
 10 11  1  0
 11 12  2  0
 12  7  1  0
 13 15  1  0
 13  9  1  0
 14 13  1  0
 16 13  1  0
 17  1  1  0
 17 19  2  0
 18 17  2  0
 20 17  1  0
 20 25  1  0
 21 20  2  0
 22 21  1  0
 22 23  2  0
 23 24  1  0
 24 25  2  0
  2 26  1  0
  3 27  1  0
  5 28  1  0
  6 29  1  0
  7 30  1  0
  8 31  1  0
 21 32  1  0
 22 33  1  0
 23 34  1  0
 24 35  1  0
 25 36  1  0
M  ISO  8  26  14  27  14  28  14  29  14  30  14  31  14  32  14  33  14
M  ISO  3  34  14  35  14  36  14
M  END
>  <minimizedAffinity>  (1) 
-6.14350986

>  <minimizedRMSD>  (1) 
1.72569418

$$$$
