
     RDKit          3D

 39 41  0  0  0  0  0  0  0  0999 V2000
   33.0140   28.2690   47.6210 C   0  0  0  0  0  0  0  0  0  0  0  0
   33.2440   29.3710   46.8030 C   0  0  0  0  0  0  0  0  0  0  0  0
   34.3170   30.1830   47.1130 C   0  0  0  0  0  0  0  0  0  0  0  0
   35.1720   29.9890   48.1630 C   0  0  0  0  0  0  0  0  0  0  0  0
   34.8890   28.8800   48.9360 C   0  0  0  0  0  0  0  0  0  0  0  0
   33.8340   28.0170   48.6930 C   0  0  0  0  0  0  0  0  0  0  0  0
   37.4560   32.1370   50.0150 C   0  0  0  0  0  0  0  0  0  0  0  0
   38.4210   32.4860   49.0320 C   0  0  0  0  0  0  0  0  0  0  0  0
   38.2490   31.9630   47.7430 C   0  0  0  0  0  0  0  0  0  0  0  0
   37.1840   31.1560   47.4880 N   0  0  0  0  0  0  0  0  0  0  0  0
   36.2860   30.8510   48.4620 C   0  0  0  0  0  0  0  0  0  0  0  0
   36.4300   31.3370   49.6980 N   0  0  0  0  0  0  0  0  0  0  0  0
   39.2050   32.2690   46.6410 C   0  0  0  0  0  0  0  0  0  0  0  0
   38.5670   32.5720   45.4520 F   0  0  0  0  0  0  0  0  0  0  0  0
   39.9510   33.4170   46.9430 F   0  0  0  0  0  0  0  0  0  0  0  0
   40.0140   31.1940   46.3970 F   0  0  0  0  0  0  0  0  0  0  0  0
   31.6670   27.1990   47.3520 S   0  0  0  0  0  0  0  0  0  0  0  0
   30.5870   27.8850   46.6500 O   0  0  0  0  0  0  0  0  0  0  0  0
   31.1730   26.7250   48.7260 O   0  0  0  0  0  0  0  0  0  0  0  0
   32.1750   25.6900   46.5400 C   0  0  0  0  0  0  0  0  0  0  0  0
   32.5180   24.6990   47.6420 C   0  0  0  0  0  0  0  0  0  0  0  0
   33.5760   23.7900   47.0520 C   0  0  0  0  0  0  0  0  0  0  0  0
   34.4040   24.7810   46.2630 C   0  0  0  0  0  0  0  0  0  0  0  0
   33.4460   25.8630   45.7820 C   0  0  0  0  0  0  0  0  0  0  0  0
   32.5952   29.5872   45.9415 H   0  0  0  0  0  0  0  0  0  0  0  0
   34.4983   31.0534   46.4653 H   0  0  0  0  0  0  0  0  0  0  0  0
   35.5411   28.6697   49.7966 H   0  0  0  0  0  0  0  0  0  0  0  0
   33.6567   27.1486   49.3444 H   0  0  0  0  0  0  0  0  0  0  0  0
   37.5521   32.5253   51.0397 H   0  0  0  0  0  0  0  0  0  0  0  0
   39.2706   33.1416   49.2735 H   0  0  0  0  0  0  0  0  0  0  0  0
   31.3690   25.3765   45.8602 H   0  0  0  0  0  0  0  0  0  0  0  0
   32.9116   25.2255   48.5240 H   0  0  0  0  0  0  0  0  0  0  0  0
   31.6339   24.1351   47.9742 H   0  0  0  0  0  0  0  0  0  0  0  0
   34.1715   23.3011   47.8371 H   0  0  0  0  0  0  0  0  0  0  0  0
   33.1756   22.9577   46.4545 H   0  0  0  0  0  0  0  0  0  0  0  0
   35.1822   25.2208   46.9041 H   0  0  0  0  0  0  0  0  0  0  0  0
   34.9074   24.2918   45.4161 H   0  0  0  0  0  0  0  0  0  0  0  0
   33.8708   26.8583   45.9794 H   0  0  0  0  0  0  0  0  0  0  0  0
   33.2712   25.7786   44.6993 H   0  0  0  0  0  0  0  0  0  0  0  0
  1  6  2  0
  2  3  2  0
  2  1  1  0
  3  4  1  0
  4 11  1  0
  4  5  2  0
  6  5  1  0
  8  7  2  0
  9  8  1  0
 10  9  2  0
 10 11  1  0
 11 12  2  0
 12  7  1  0
 13 15  1  0
 13  9  1  0
 14 13  1  0
 16 13  1  0
 17  1  1  0
 17 19  2  0
 18 17  2  0
 20 17  1  0
 20 21  1  0
 22 21  1  0
 23 22  1  0
 24 23  1  0
 24 20  1  0
  2 25  1  0
  3 26  1  0
  5 27  1  0
  6 28  1  0
  7 29  1  0
  8 30  1  0
 20 31  1  0
 21 32  1  0
 21 33  1  0
 22 34  1  0
 22 35  1  0
 23 36  1  0
 23 37  1  0
 24 38  1  0
 24 39  1  0
M  ISO  8  25  14  26  14  27  14  28  14  29  14  30  14  31  13  32  13
M  ISO  7  33  13  34  13  35  13  36  13  37  13  38  13  39  13
M  END
>  <minimizedAffinity>  (1) 
-6.07673883

>  <minimizedRMSD>  (1) 
1.27971852

$$$$
