
     RDKit          3D

 39 41  0  0  0  0  0  0  0  0999 V2000
   35.5670   29.9530   48.6480 C   0  0  0  0  0  0  0  0  0  0  0  0
   35.7260   28.8450   49.4950 C   0  0  0  0  0  0  0  0  0  0  0  0
   34.6050   28.0550   49.3930 C   0  0  0  0  0  0  0  0  0  0  0  0
   33.8020   28.6680   48.5140 N   0  0  0  0  0  0  0  0  0  0  0  0
   34.3610   29.7610   48.0880 N   0  0  0  0  0  0  0  0  0  0  0  0
   29.9530   27.6420   47.1780 C   0  0  0  0  0  0  0  0  0  0  0  0
   30.7830   28.3430   46.3660 C   0  0  0  0  0  0  0  0  0  0  0  0
   32.0570   28.7150   46.7360 C   0  0  0  0  0  0  0  0  0  0  0  0
   32.5160   28.3620   47.9860 C   0  0  0  0  0  0  0  0  0  0  0  0
   31.6620   27.6500   48.8000 C   0  0  0  0  0  0  0  0  0  0  0  0
   30.3920   27.2790   48.4310 C   0  0  0  0  0  0  0  0  0  0  0  0
   28.3210   27.1990   46.7250 S   0  0  0  0  0  0  0  0  0  0  0  0
   28.3640   26.5310   45.3730 O   0  0  0  0  0  0  0  0  0  0  0  0
   27.7940   26.2620   47.7510 O   0  0  0  0  0  0  0  0  0  0  0  0
   27.2940   28.6360   46.4720 C   0  0  0  0  0  0  0  0  0  0  0  0
   26.3820   28.3240   45.3030 C   0  0  0  0  0  0  0  0  0  0  0  0
   26.4030   28.7490   47.6920 C   0  0  0  0  0  0  0  0  0  0  0  0
   37.9160   32.7190   49.3430 C   0  0  0  0  0  0  0  0  0  0  0  0
   38.5850   32.7900   48.1110 C   0  0  0  0  0  0  0  0  0  0  0  0
   38.2250   31.9080   47.0910 C   0  0  0  0  0  0  0  0  0  0  0  0
   37.2320   31.0140   47.3440 N   0  0  0  0  0  0  0  0  0  0  0  0
   36.6020   30.9690   48.5470 C   0  0  0  0  0  0  0  0  0  0  0  0
   36.9260   31.8090   49.5600 N   0  0  0  0  0  0  0  0  0  0  0  0
   36.5994   28.6429   50.1324 H   0  0  0  0  0  0  0  0  0  0  0  0
   34.4082   27.1124   49.9247 H   0  0  0  0  0  0  0  0  0  0  0  0
   30.4226   28.6275   45.3664 H   0  0  0  0  0  0  0  0  0  0  0  0
   32.6966   29.2840   46.0452 H   0  0  0  0  0  0  0  0  0  0  0  0
   32.0170   27.3628   49.8008 H   0  0  0  0  0  0  0  0  0  0  0  0
   29.7460   26.7096   49.1155 H   0  0  0  0  0  0  0  0  0  0  0  0
   27.8901   29.5447   46.3017 H   0  0  0  0  0  0  0  0  0  0  0  0
   25.4042   27.9895   45.6799 H   0  0  0  0  0  0  0  0  0  0  0  0
   26.2491   29.2278   44.6902 H   0  0  0  0  0  0  0  0  0  0  0  0
   26.8306   27.5282   44.6902 H   0  0  0  0  0  0  0  0  0  0  0  0
   27.0159   28.6713   48.6021 H   0  0  0  0  0  0  0  0  0  0  0  0
   25.8861   29.7199   47.6799 H   0  0  0  0  0  0  0  0  0  0  0  0
   25.6601   27.9379   47.6799 H   0  0  0  0  0  0  0  0  0  0  0  0
   38.1969   33.4123   50.1495 H   0  0  0  0  0  0  0  0  0  0  0  0
   39.3823   33.5309   47.9516 H   0  0  0  0  0  0  0  0  0  0  0  0
   38.7285   31.9351   46.1134 H   0  0  0  0  0  0  0  0  0  0  0  0
  1  2  1  0
  3  2  2  0
  4  3  1  0
  5  4  1  0
  5  1  2  0
  6 11  2  0
  7  8  2  0
  7  6  1  0
  8  9  1  0
  9  4  1  0
  9 10  2  0
 11 10  1  0
 12  6  1  0
 12 14  2  0
 13 12  2  0
 15 12  1  0
 15 17  1  0
 16 15  1  0
 18 23  2  0
 19 18  1  0
 20 21  1  0
 20 19  2  0
 21 22  2  0
 22  1  1  0
 22 23  1  0
  2 24  1  0
  3 25  1  0
  7 26  1  0
  8 27  1  0
 10 28  1  0
 11 29  1  0
 15 30  1  0
 16 31  1  0
 16 32  1  0
 16 33  1  0
 17 34  1  0
 17 35  1  0
 17 36  1  0
 18 37  1  0
 19 38  1  0
 20 39  1  0
M  ISO  8  24  14  25  14  26  14  27  14  28  14  29  14  30   8  31   8
M  ISO  8  32   8  33   8  34   8  35   8  36   8  37  14  38  14  39  14
M  END
>  <minimizedAffinity>  (1) 
-5.67183542

>  <minimizedRMSD>  (1) 
1.15355062

$$$$
