
     RDKit          3D

 29 30  0  0  0  0  0  0  0  0999 V2000
   32.5910   28.3100   47.7160 C   0  0  0  0  0  0  0  0  0  0  0  0
   33.1580   29.2600   46.8790 C   0  0  0  0  0  0  0  0  0  0  0  0
   34.3120   29.8760   47.3120 C   0  0  0  0  0  0  0  0  0  0  0  0
   34.9530   29.6380   48.4980 C   0  0  0  0  0  0  0  0  0  0  0  0
   34.3280   28.6780   49.2850 C   0  0  0  0  0  0  0  0  0  0  0  0
   33.1690   28.0120   48.9240 C   0  0  0  0  0  0  0  0  0  0  0  0
   37.6470   30.8350   50.6200 C   0  0  0  0  0  0  0  0  0  0  0  0
   38.4830   31.5270   49.7000 C   0  0  0  0  0  0  0  0  0  0  0  0
   38.0800   31.5610   48.3510 C   0  0  0  0  0  0  0  0  0  0  0  0
   36.9260   30.9380   47.9970 N   0  0  0  0  0  0  0  0  0  0  0  0
   36.1600   30.2890   48.9120 C   0  0  0  0  0  0  0  0  0  0  0  0
   36.5200   30.2420   50.2000 N   0  0  0  0  0  0  0  0  0  0  0  0
   38.8810   32.2570   47.3030 C   0  0  0  0  0  0  0  0  0  0  0  0
   38.1300   32.6690   46.2380 F   0  0  0  0  0  0  0  0  0  0  0  0
   39.4850   33.3950   47.8280 F   0  0  0  0  0  0  0  0  0  0  0  0
   39.8480   31.3930   46.8000 F   0  0  0  0  0  0  0  0  0  0  0  0
   31.1150   27.4860   47.3050 S   0  0  0  0  0  0  0  0  0  0  0  0
   30.4200   28.1610   46.2150 O   0  0  0  0  0  0  0  0  0  0  0  0
   30.2320   27.4500   48.5580 O   0  0  0  0  0  0  0  0  0  0  0  0
   31.4460   25.7660   46.9670 C   0  0  0  0  0  0  0  0  0  0  0  0
   30.3320   25.2000   46.4090 F   0  0  0  0  0  0  0  0  0  0  0  0
   31.7480   25.1640   48.1680 F   0  0  0  0  0  0  0  0  0  0  0  0
   32.5200   25.6940   46.1110 F   0  0  0  0  0  0  0  0  0  0  0  0
   32.7046   29.5114   45.9088 H   0  0  0  0  0  0  0  0  0  0  0  0
   34.7587   30.6272   46.6441 H   0  0  0  0  0  0  0  0  0  0  0  0
   34.7827   28.4318   50.2559 H   0  0  0  0  0  0  0  0  0  0  0  0
   32.7215   27.2605   49.5911 H   0  0  0  0  0  0  0  0  0  0  0  0
   37.9269   30.7861   51.6827 H   0  0  0  0  0  0  0  0  0  0  0  0
   39.4104   32.0176   50.0304 H   0  0  0  0  0  0  0  0  0  0  0  0
  1  6  2  0
  2  3  2  0
  2  1  1  0
  3  4  1  0
  4 11  1  0
  4  5  2  0
  6  5  1  0
  8  7  2  0
  9  8  1  0
 10  9  2  0
 10 11  1  0
 11 12  2  0
 12  7  1  0
 13 15  1  0
 13  9  1  0
 14 13  1  0
 16 13  1  0
 17  1  1  0
 17 19  2  0
 18 17  2  0
 20 17  1  0
 20 22  1  0
 21 20  1  0
 23 20  1  0
  2 24  1  0
  3 25  1  0
  5 26  1  0
  6 27  1  0
  7 28  1  0
  8 29  1  0
M  ISO  6  24  14  25  14  26  14  27  14  28  14  29  14
M  END
>  <minimizedAffinity>  (1) 
-5.91171217

>  <minimizedRMSD>  (1) 
0.997096598

$$$$
