
     RDKit          3D

 33 35  0  0  0  0  0  0  0  0999 V2000
   32.6260   28.2900   47.7920 C   0  0  0  0  0  0  0  0  0  0  0  0
   33.2520   29.1370   46.8910 C   0  0  0  0  0  0  0  0  0  0  0  0
   34.4110   29.7640   47.3010 C   0  0  0  0  0  0  0  0  0  0  0  0
   34.9970   29.6180   48.5300 C   0  0  0  0  0  0  0  0  0  0  0  0
   34.3180   28.7540   49.3860 C   0  0  0  0  0  0  0  0  0  0  0  0
   33.1550   28.0930   49.0430 C   0  0  0  0  0  0  0  0  0  0  0  0
   37.6980   30.8500   50.6280 C   0  0  0  0  0  0  0  0  0  0  0  0
   38.5240   31.5350   49.6990 C   0  0  0  0  0  0  0  0  0  0  0  0
   38.1160   31.5560   48.3410 C   0  0  0  0  0  0  0  0  0  0  0  0
   36.9650   30.9230   48.0070 N   0  0  0  0  0  0  0  0  0  0  0  0
   36.2040   30.2780   48.9320 C   0  0  0  0  0  0  0  0  0  0  0  0
   36.5730   30.2490   50.2170 N   0  0  0  0  0  0  0  0  0  0  0  0
   38.9090   32.2450   47.3000 C   0  0  0  0  0  0  0  0  0  0  0  0
   38.1360   32.6700   46.2340 F   0  0  0  0  0  0  0  0  0  0  0  0
   39.4970   33.4120   47.8100 F   0  0  0  0  0  0  0  0  0  0  0  0
   39.8540   31.3960   46.7900 F   0  0  0  0  0  0  0  0  0  0  0  0
   31.1330   27.4760   47.3910 S   0  0  0  0  0  0  0  0  0  0  0  0
   30.3430   28.2710   46.4540 O   0  0  0  0  0  0  0  0  0  0  0  0
   30.3550   27.2800   48.7000 O   0  0  0  0  0  0  0  0  0  0  0  0
   31.6340   24.1100   45.6010 N   0  0  0  0  0  0  0  0  0  0  0  0
   31.2000   25.3660   45.6940 N   0  0  0  0  0  0  0  0  0  0  0  0
   31.5290   25.8560   46.8880 C   0  0  0  0  0  0  0  0  0  0  0  0
   32.1950   24.9030   47.6010 C   0  0  0  0  0  0  0  0  0  0  0  0
   32.2540   23.8060   46.7770 C   0  0  0  0  0  0  0  0  0  0  0  0
   32.8397   29.3035   45.8849 H   0  0  0  0  0  0  0  0  0  0  0  0
   34.9039   30.4353   46.5825 H   0  0  0  0  0  0  0  0  0  0  0  0
   34.7315   28.5889   50.3919 H   0  0  0  0  0  0  0  0  0  0  0  0
   32.6613   27.4204   49.7599 H   0  0  0  0  0  0  0  0  0  0  0  0
   37.9825   30.8123   51.6899 H   0  0  0  0  0  0  0  0  0  0  0  0
   39.4501   32.0332   50.0217 H   0  0  0  0  0  0  0  0  0  0  0  0
   31.5220   23.4841   44.7907 H   0  0  0  0  0  0  0  0  0  0  0  0
   32.5992   24.9938   48.6200 H   0  0  0  0  0  0  0  0  0  0  0  0
   32.7233   22.8424   47.0244 H   0  0  0  0  0  0  0  0  0  0  0  0
  1  6  2  0
  2  3  2  0
  2  1  1  0
  3  4  1  0
  4 11  1  0
  4  5  2  0
  6  5  1  0
  8  7  2  0
  9  8  1  0
 10  9  2  0
 10 11  1  0
 11 12  2  0
 12  7  1  0
 13 15  1  0
 13  9  1  0
 14 13  1  0
 16 13  1  0
 17  1  1  0
 17 19  2  0
 18 17  2  0
 20 21  1  0
 20 24  1  0
 21 22  2  0
 22 17  1  0
 22 23  1  0
 24 23  2  0
  2 25  1  0
  3 26  1  0
  5 27  1  0
  6 28  1  0
  7 29  1  0
  8 30  1  0
 20 31  1  0
 23 32  1  0
 24 33  1  0
M  ISO  8  25  14  26  14  27  14  28  14  29  14  30  14  31   9  32  14
M  ISO  1  33  14
M  END
>  <minimizedAffinity>  (1) 
-5.89746761

>  <minimizedRMSD>  (1) 
1.315732

$$$$
