
     RDKit          3D

 38 39  0  0  0  0  0  0  0  0999 V2000
   32.6280   28.2970   47.7580 C   0  0  0  0  0  0  0  0  0  0  0  0
   33.1800   29.2610   46.9240 C   0  0  0  0  0  0  0  0  0  0  0  0
   34.3280   29.8890   47.3420 C   0  0  0  0  0  0  0  0  0  0  0  0
   34.9850   29.6470   48.5190 C   0  0  0  0  0  0  0  0  0  0  0  0
   34.3830   28.6730   49.3090 C   0  0  0  0  0  0  0  0  0  0  0  0
   33.2290   27.9980   48.9570 C   0  0  0  0  0  0  0  0  0  0  0  0
   37.6920   30.8630   50.6220 C   0  0  0  0  0  0  0  0  0  0  0  0
   38.5180   31.5460   49.6960 C   0  0  0  0  0  0  0  0  0  0  0  0
   38.1090   31.5730   48.3430 C   0  0  0  0  0  0  0  0  0  0  0  0
   36.9510   30.9470   47.9910 N   0  0  0  0  0  0  0  0  0  0  0  0
   36.1950   30.3040   48.9260 C   0  0  0  0  0  0  0  0  0  0  0  0
   36.5630   30.2660   50.2150 N   0  0  0  0  0  0  0  0  0  0  0  0
   38.9040   32.2620   47.2820 C   0  0  0  0  0  0  0  0  0  0  0  0
   38.1470   32.6720   46.2240 F   0  0  0  0  0  0  0  0  0  0  0  0
   39.5130   33.4020   47.7890 F   0  0  0  0  0  0  0  0  0  0  0  0
   39.8630   31.3930   46.7770 F   0  0  0  0  0  0  0  0  0  0  0  0
   31.1550   27.4540   47.3530 S   0  0  0  0  0  0  0  0  0  0  0  0
   30.2870   28.3090   46.5450 O   0  0  0  0  0  0  0  0  0  0  0  0
   30.4430   27.1120   48.6720 O   0  0  0  0  0  0  0  0  0  0  0  0
   31.4520   25.8540   46.6350 C   0  0  0  0  0  0  0  0  0  0  0  0
   32.1340   24.9030   47.5830 C   0  0  0  0  0  0  0  0  0  0  0  0
   30.1850   25.2820   46.0610 C   0  0  0  0  0  0  0  0  0  0  0  0
   32.3740   26.1000   45.4430 C   0  0  0  0  0  0  0  0  0  0  0  0
   32.7132   29.5132   45.9604 H   0  0  0  0  0  0  0  0  0  0  0  0
   34.7561   30.6513   46.6744 H   0  0  0  0  0  0  0  0  0  0  0  0
   34.8536   28.4249   50.2718 H   0  0  0  0  0  0  0  0  0  0  0  0
   32.8000   27.2359   49.6242 H   0  0  0  0  0  0  0  0  0  0  0  0
   37.9792   30.8222   51.6831 H   0  0  0  0  0  0  0  0  0  0  0  0
   39.4468   32.0390   50.0189 H   0  0  0  0  0  0  0  0  0  0  0  0
   31.9196   25.2020   48.6197 H   0  0  0  0  0  0  0  0  0  0  0  0
   31.7604   23.8828   47.4109 H   0  0  0  0  0  0  0  0  0  0  0  0
   33.2201   24.9296   47.4109 H   0  0  0  0  0  0  0  0  0  0  0  0
   29.5154   24.9797   46.8797 H   0  0  0  0  0  0  0  0  0  0  0  0
   29.6869   26.0426   45.4418 H   0  0  0  0  0  0  0  0  0  0  0  0
   30.4260   24.4054   45.4418 H   0  0  0  0  0  0  0  0  0  0  0  0
   33.3777   26.3678   45.8049 H   0  0  0  0  0  0  0  0  0  0  0  0
   32.4358   25.1869   44.8327 H   0  0  0  0  0  0  0  0  0  0  0  0
   31.9727   26.9225   44.8327 H   0  0  0  0  0  0  0  0  0  0  0  0
  1  6  2  0
  2  3  2  0
  2  1  1  0
  3  4  1  0
  4 11  1  0
  4  5  2  0
  6  5  1  0
  8  7  2  0
  9  8  1  0
 10  9  2  0
 10 11  1  0
 11 12  2  0
 12  7  1  0
 13 15  1  0
 13  9  1  0
 14 13  1  0
 16 13  1  0
 17  1  1  0
 17 19  2  0
 18 17  2  0
 20 17  1  0
 20 21  1  0
 22 20  1  0
 23 20  1  0
  2 24  1  0
  3 25  1  0
  5 26  1  0
  6 27  1  0
  7 28  1  0
  8 29  1  0
 21 30  1  0
 21 31  1  0
 21 32  1  0
 22 33  1  0
 22 34  1  0
 22 35  1  0
 23 36  1  0
 23 37  1  0
 23 38  1  0
M  ISO  8  24  14  25  14  26  14  27  14  28  14  29  14  30   8  31   8
M  ISO  7  32   8  33   8  34   8  35   8  36   8  37   8  38   8
M  END
>  <minimizedAffinity>  (1) 
-5.88342953

>  <minimizedRMSD>  (1) 
0.795441866

$$$$
