
     RDKit          3D

 23 25  0  0  0  0  0  0  0  0999 V2000
   38.3350   32.1800   48.0250 C   0  0  0  0  0  0  0  0  0  0  0  0
   38.5030   33.1530   48.8020 O   0  0  0  0  0  0  0  0  0  0  0  0
   36.3680   29.4160   51.2380 N   0  0  0  0  0  0  0  0  0  0  0  0
   37.4610   30.0520   51.7010 C   0  0  0  0  0  0  0  0  0  0  0  0
   37.9550   30.8190   50.7120 N   0  0  0  0  0  0  0  0  0  0  0  0
   37.1740   30.6600   49.6410 C   0  0  0  0  0  0  0  0  0  0  0  0
   37.2660   31.2350   48.3780 C   0  0  0  0  0  0  0  0  0  0  0  0
   36.3080   30.8640   47.5090 N   0  0  0  0  0  0  0  0  0  0  0  0
   35.3300   30.0130   47.8020 C   0  0  0  0  0  0  0  0  0  0  0  0
   35.2210   29.4480   49.0080 N   0  0  0  0  0  0  0  0  0  0  0  0
   36.1440   29.7680   49.9390 C   0  0  0  0  0  0  0  0  0  0  0  0
   39.0930   31.9140   46.8270 C   0  0  0  0  0  0  0  0  0  0  0  0
   39.8520   32.9650   46.3210 C   0  0  0  0  0  0  0  0  0  0  0  0
   40.6070   32.7310   45.1450 C   0  0  0  0  0  0  0  0  0  0  0  0
   40.5300   31.4860   44.5980 N   0  0  0  0  0  0  0  0  0  0  0  0
   39.7820   30.5050   45.1260 C   0  0  0  0  0  0  0  0  0  0  0  0
   39.0640   30.7030   46.2320 N   0  0  0  0  0  0  0  0  0  0  0  0
   35.7881   28.7619   51.7828 H   0  0  0  0  0  0  0  0  0  0  0  0
   37.8786   29.9602   52.7145 H   0  0  0  0  0  0  0  0  0  0  0  0
   34.5879   29.7664   47.0284 H   0  0  0  0  0  0  0  0  0  0  0  0
   39.8654   33.9461   46.8182 H   0  0  0  0  0  0  0  0  0  0  0  0
   41.2275   33.5195   44.6940 H   0  0  0  0  0  0  0  0  0  0  0  0
   39.7608   29.5196   44.6376 H   0  0  0  0  0  0  0  0  0  0  0  0
  1  7  1  0
  1  2  2  0
  3  4  1  0
  5  4  2  0
  6 11  2  0
  6  5  1  0
  7  6  1  0
  8  9  1  0
  8  7  2  0
  9 10  2  0
 10 11  1  0
 11  3  1  0
 12  1  1  0
 13 12  2  0
 14 13  1  0
 15 16  1  0
 15 14  2  0
 16 17  2  0
 17 12  1  0
  3 18  1  0
  4 19  1  0
  9 20  1  0
 13 21  1  0
 14 22  1  0
 16 23  1  0
M  ISO  6  18   9  19  14  20  14  21  14  22  14  23  14
M  END
>  <minimizedAffinity>  (1) 
-5.66119432

>  <minimizedRMSD>  (1) 
4.02432537

$$$$
