
     RDKit          3D

 36 38  0  0  0  0  0  0  0  0999 V2000
   35.6860   29.9980   48.6830 C   0  0  0  0  0  0  0  0  0  0  0  0
   35.8500   28.9170   49.5550 C   0  0  0  0  0  0  0  0  0  0  0  0
   34.7380   28.1120   49.4700 C   0  0  0  0  0  0  0  0  0  0  0  0
   33.9310   28.6960   48.5710 N   0  0  0  0  0  0  0  0  0  0  0  0
   34.4790   29.7950   48.1100 N   0  0  0  0  0  0  0  0  0  0  0  0
   30.1030   27.6060   47.2270 C   0  0  0  0  0  0  0  0  0  0  0  0
   30.9290   28.2950   46.4080 C   0  0  0  0  0  0  0  0  0  0  0  0
   32.2000   28.6850   46.7840 C   0  0  0  0  0  0  0  0  0  0  0  0
   32.6570   28.3600   48.0540 C   0  0  0  0  0  0  0  0  0  0  0  0
   31.8060   27.6580   48.8780 C   0  0  0  0  0  0  0  0  0  0  0  0
   30.5450   27.2670   48.5120 C   0  0  0  0  0  0  0  0  0  0  0  0
   28.5010   27.1090   46.7770 S   0  0  0  0  0  0  0  0  0  0  0  0
   28.4950   25.6640   46.4190 O   0  0  0  0  0  0  0  0  0  0  0  0
   27.5990   27.3510   47.9740 O   0  0  0  0  0  0  0  0  0  0  0  0
   27.8980   28.1400   45.4830 C   0  0  0  0  0  0  0  0  0  0  0  0
   26.4010   28.2720   45.6030 C   0  0  0  0  0  0  0  0  0  0  0  0
   38.0000   32.8110   49.3330 C   0  0  0  0  0  0  0  0  0  0  0  0
   38.6640   32.8810   48.0970 C   0  0  0  0  0  0  0  0  0  0  0  0
   38.3020   31.9750   47.0940 C   0  0  0  0  0  0  0  0  0  0  0  0
   37.3290   31.0770   47.3720 N   0  0  0  0  0  0  0  0  0  0  0  0
   36.7060   31.0250   48.5560 C   0  0  0  0  0  0  0  0  0  0  0  0
   37.0360   31.8860   49.5400 N   0  0  0  0  0  0  0  0  0  0  0  0
   36.7226   28.7401   50.2010 H   0  0  0  0  0  0  0  0  0  0  0  0
   34.5491   27.1811   50.0248 H   0  0  0  0  0  0  0  0  0  0  0  0
   30.5743   28.5560   45.4000 H   0  0  0  0  0  0  0  0  0  0  0  0
   32.8407   29.2451   46.0870 H   0  0  0  0  0  0  0  0  0  0  0  0
   32.1584   27.3965   49.8867 H   0  0  0  0  0  0  0  0  0  0  0  0
   29.9009   26.7053   49.2046 H   0  0  0  0  0  0  0  0  0  0  0  0
   28.1500   27.6928   44.5101 H   0  0  0  0  0  0  0  0  0  0  0  0
   28.3615   29.1346   45.5600 H   0  0  0  0  0  0  0  0  0  0  0  0
   26.1191   28.2969   46.6660 H   0  0  0  0  0  0  0  0  0  0  0  0
   26.0747   29.2024   45.1153 H   0  0  0  0  0  0  0  0  0  0  0  0
   25.9169   27.4131   45.1153 H   0  0  0  0  0  0  0  0  0  0  0  0
   38.2660   33.5129   50.1371 H   0  0  0  0  0  0  0  0  0  0  0  0
   39.4500   33.6304   47.9218 H   0  0  0  0  0  0  0  0  0  0  0  0
   38.7933   31.9923   46.1100 H   0  0  0  0  0  0  0  0  0  0  0  0
  1  2  1  0
  3  2  2  0
  4  3  1  0
  5  4  1  0
  5  1  2  0
  6 11  2  0
  7  8  2  0
  7  6  1  0
  8  9  1  0
  9  4  1  0
  9 10  2  0
 11 10  1  0
 12  6  1  0
 12 14  2  0
 13 12  2  0
 15 16  1  0
 15 12  1  0
 17 22  2  0
 18 17  1  0
 19 20  1  0
 19 18  2  0
 20 21  2  0
 21  1  1  0
 21 22  1  0
  2 23  1  0
  3 24  1  0
  7 25  1  0
  8 26  1  0
 10 27  1  0
 11 28  1  0
 15 29  1  0
 15 30  1  0
 16 31  1  0
 16 32  1  0
 16 33  1  0
 17 34  1  0
 18 35  1  0
 19 36  1  0
M  ISO  8  23  14  24  14  25  14  26  14  27  14  28  14  29   8  30   8
M  ISO  6  31   8  32   8  33   8  34  14  35  14  36  14
M  END
>  <minimizedAffinity>  (1) 
-5.37115574

>  <minimizedRMSD>  (1) 
0.383778274

$$$$
