
     RDKit          3D

 19 20  0  0  0  0  0  0  0  0999 V2000
   38.3460   32.3320   48.1030 C   0  0  0  0  0  0  0  0  0  0  0  0
   38.5830   33.2720   49.1050 C   0  0  0  0  0  0  0  0  0  0  0  0
   39.5590   34.2630   48.8370 C   0  0  0  0  0  0  0  0  0  0  0  0
   40.1990   34.2430   47.6440 N   0  0  0  0  0  0  0  0  0  0  0  0
   39.9370   33.3170   46.7110 C   0  0  0  0  0  0  0  0  0  0  0  0
   39.0200   32.3780   46.9490 N   0  0  0  0  0  0  0  0  0  0  0  0
   37.3520   31.3190   48.3730 C   0  0  0  0  0  0  0  0  0  0  0  0
   36.4320   30.9890   47.5680 O   0  0  0  0  0  0  0  0  0  0  0  0
   37.3500   30.5820   49.6440 C   0  0  0  0  0  0  0  0  0  0  0  0
   37.4880   29.2100   49.7560 C   0  0  0  0  0  0  0  0  0  0  0  0
   37.4410   28.8730   51.0800 N   0  0  0  0  0  0  0  0  0  0  0  0
   37.2760   30.0090   51.7810 C   0  0  0  0  0  0  0  0  0  0  0  0
   37.2220   31.0320   50.9070 N   0  0  0  0  0  0  0  0  0  0  0  0
   38.0372   33.2453   50.0597 H   0  0  0  0  0  0  0  0  0  0  0  0
   39.7928   35.0351   49.5848 H   0  0  0  0  0  0  0  0  0  0  0  0
   40.4763   33.3314   45.7524 H   0  0  0  0  0  0  0  0  0  0  0  0
   37.6145   28.5074   48.9191 H   0  0  0  0  0  0  0  0  0  0  0  0
   37.1988   30.0884   52.8754 H   0  0  0  0  0  0  0  0  0  0  0  0
   37.0998   32.0209   51.1680 H   0  0  0  0  0  0  0  0  0  0  0  0
  1  7  1  0
  1  2  2  0
  3  2  1  0
  4  3  2  0
  5  6  2  0
  5  4  1  0
  6  1  1  0
  7  9  1  0
  8  7  2  0
  9 10  2  0
  9 13  1  0
 10 11  1  0
 11 12  2  0
 13 12  1  0
  2 14  1  0
  3 15  1  0
  5 16  1  0
 10 17  1  0
 12 18  1  0
 13 19  1  0
M  ISO  6  14  14  15  14  16  14  17  14  18  14  19   9
M  END
>  <minimizedAffinity>  (1) 
-3.97102237

>  <minimizedRMSD>  (1) 
3.20821166

$$$$
