
     RDKit          3D

 41 45  0  0  1  0  0  0  0  0999 V2000
   39.0650   31.8900   46.6290 C   0  0  0  0  0  0  0  0  0  0  0  0
   39.8730   32.9720   46.2430 C   0  0  0  0  0  0  0  0  0  0  0  0
   40.6130   32.9060   45.0110 C   0  0  0  0  0  0  0  0  0  0  0  0
   40.4600   31.7620   44.3010 N   0  0  0  0  0  0  0  0  0  0  0  0
   39.6630   30.7370   44.7070 C   0  0  0  0  0  0  0  0  0  0  0  0
   38.9880   30.8040   45.8370 N   0  0  0  0  0  0  0  0  0  0  0  0
   39.5710   29.5780   43.8780 N   0  0  0  0  0  0  0  0  0  0  0  0
   38.7710   28.5070   44.0920 C   0  0  0  0  0  0  0  0  0  0  0  0
   38.9330   27.5780   43.1060 N   0  0  0  0  0  0  0  0  0  0  0  0
   39.8610   28.0720   42.2410 C   0  0  0  0  0  0  0  0  0  0  0  0
   40.3840   27.5370   41.0820 C   0  0  0  0  0  0  0  0  0  0  0  0
   41.3040   28.2540   40.4120 N   0  0  0  0  0  0  0  0  0  0  0  0
   41.6630   29.4700   40.9200 C   0  0  0  0  0  0  0  0  0  0  0  0
   41.1550   30.0090   42.0620 N   0  0  0  0  0  0  0  0  0  0  0  0
   40.2450   29.3160   42.7370 C   0  0  0  0  0  0  0  0  0  0  0  0
   39.9520   26.2650   40.6270 N   0  0  0  0  0  0  0  0  0  0  0  0
   38.5330   32.0860   47.9450 C   0  0  2  0  0  0  0  0  0  0  0  0
   37.8650   31.2050   48.9000 C   0  0  0  0  0  0  0  0  0  0  0  0
   38.3770   31.0810   50.1260 N   0  0  0  0  0  0  0  0  0  0  0  0
   37.8300   30.2770   51.0710 C   0  0  0  0  0  0  0  0  0  0  0  0
   36.7370   29.5490   50.8480 N   0  0  0  0  0  0  0  0  0  0  0  0
   36.1400   29.6050   49.6390 C   0  0  0  0  0  0  0  0  0  0  0  0
   35.0160   28.8640   49.3630 C   0  0  0  0  0  0  0  0  0  0  0  0
   34.4090   28.9060   48.1440 C   0  0  0  0  0  0  0  0  0  0  0  0
   34.9820   29.7310   47.2040 C   0  0  0  0  0  0  0  0  0  0  0  0
   36.1060   30.4600   47.5080 C   0  0  0  0  0  0  0  0  0  0  0  0
   36.7330   30.4340   48.7220 C   0  0  0  0  0  0  0  0  0  0  0  0
   38.1480   33.2950   48.3530 O   0  0  0  0  0  0  0  0  0  0  0  0
   39.9398   33.8663   46.8801 H   0  0  0  0  0  0  0  0  0  0  0  0
   41.2589   33.7280   44.6688 H   0  0  0  0  0  0  0  0  0  0  0  0
   38.0841   28.4003   44.9445 H   0  0  0  0  0  0  0  0  0  0  0  0
   42.4144   30.0539   40.3682 H   0  0  0  0  0  0  0  0  0  0  0  0
   40.3438   25.8673   39.7614 H   0  0  0  0  0  0  0  0  0  0  0  0
   39.2465   25.7389   41.1622 H   0  0  0  0  0  0  0  0  0  0  0  0
   39.5324   31.6399   47.8346 H   0  0  0  0  0  0  0  0  0  0  0  0
   38.3075   30.2239   52.0605 H   0  0  0  0  0  0  0  0  0  0  0  0
   34.5947   28.2190   50.1482 H   0  0  0  0  0  0  0  0  0  0  0  0
   33.5095   28.3124   47.9234 H   0  0  0  0  0  0  0  0  0  0  0  0
   34.5367   29.8075   46.2011 H   0  0  0  0  0  0  0  0  0  0  0  0
   36.5283   31.1059   46.7242 H   0  0  0  0  0  0  0  0  0  0  0  0
   38.1394   33.3221   49.3426 H   0  0  0  0  0  0  0  0  0  0  0  0
  1 17  1  0
  2  1  2  0
  3  2  1  0
  4  5  1  0
  4  3  2  0
  5  6  2  0
  6  1  1  0
  7  8  1  0
  7  5  1  0
  9  8  2  0
 10 15  2  0
 10  9  1  0
 11 10  1  0
 12 13  1  0
 12 11  2  0
 13 14  2  0
 14 15  1  0
 15  7  1  0
 16 11  1  0
 17 28  1  0
 17 18  1  0
 18 19  2  0
 19 20  1  0
 21 20  2  0
 22 21  1  0
 23 22  2  0
 24 23  1  0
 25 26  1  0
 25 24  2  0
 26 27  2  0
 27 18  1  0
 27 22  1  0
  2 29  1  0
  3 30  1  0
  8 31  1  0
 13 32  1  0
 16 33  1  0
 16 34  1  0
 17 35  1  1
 20 36  1  0
 23 37  1  0
 24 38  1  0
 25 39  1  0
 26 40  1  0
 28 41  1  0
M  ISO  8  29  14  30  14  31  14  32  14  35   8  36  14  37  14  38  14
M  ISO  3  39  14  40  14  41   3
M  END
>  <minimizedAffinity>  (1) 
-8.1882782

>  <minimizedRMSD>  (1) 
0.654630661

$$$$
