
     RDKit          3D

 42 46  0  0  1  0  0  0  0  0999 V2000
   38.4880   32.2120   48.0620 C   0  0  1  0  0  0  0  0  0  0  0  0
   37.8620   31.2840   49.0030 C   0  0  0  0  0  0  0  0  0  0  0  0
   38.3990   31.1390   50.2130 N   0  0  0  0  0  0  0  0  0  0  0  0
   37.9030   30.2800   51.1460 C   0  0  0  0  0  0  0  0  0  0  0  0
   36.8320   29.5100   50.9160 N   0  0  0  0  0  0  0  0  0  0  0  0
   36.2210   29.5850   49.7270 C   0  0  0  0  0  0  0  0  0  0  0  0
   35.1180   28.8250   49.4160 C   0  0  0  0  0  0  0  0  0  0  0  0
   34.4800   28.8830   48.2260 C   0  0  0  0  0  0  0  0  0  0  0  0
   34.9990   29.7610   47.3210 C   0  0  0  0  0  0  0  0  0  0  0  0
   36.1010   30.5200   47.6250 C   0  0  0  0  0  0  0  0  0  0  0  0
   36.7620   30.4750   48.8160 C   0  0  0  0  0  0  0  0  0  0  0  0
   38.9430   32.0730   46.7050 C   0  0  0  0  0  0  0  0  0  0  0  0
   39.9330   33.0250   46.4160 C   0  0  0  0  0  0  0  0  0  0  0  0
   40.6220   32.9640   45.1570 C   0  0  0  0  0  0  0  0  0  0  0  0
   40.2500   31.9650   44.3230 N   0  0  0  0  0  0  0  0  0  0  0  0
   39.2790   31.0630   44.6420 C   0  0  0  0  0  0  0  0  0  0  0  0
   38.6500   31.1200   45.7960 N   0  0  0  0  0  0  0  0  0  0  0  0
   38.9150   30.0030   43.7010 C   0  0  0  0  0  0  0  0  0  0  0  0
   37.6990   29.3590   43.5730 C   0  0  0  0  0  0  0  0  0  0  0  0
   37.7660   28.4450   42.5910 N   0  0  0  0  0  0  0  0  0  0  0  0
   39.0100   28.4870   42.0780 C   0  0  0  0  0  0  0  0  0  0  0  0
   39.5900   27.7650   41.0650 C   0  0  0  0  0  0  0  0  0  0  0  0
   40.9020   27.9760   40.6960 C   0  0  0  0  0  0  0  0  0  0  0  0
   41.6790   28.9380   41.3520 C   0  0  0  0  0  0  0  0  0  0  0  0
   41.0630   29.6440   42.3640 C   0  0  0  0  0  0  0  0  0  0  0  0
   39.7460   29.4460   42.7480 C   0  0  0  0  0  0  0  0  0  0  0  0
   38.1490   33.3970   48.5520 O   0  0  0  0  0  0  0  0  0  0  0  0
   39.4796   31.7741   47.8751 H   0  0  0  0  0  0  0  0  0  0  0  0
   38.4007   30.2163   52.1249 H   0  0  0  0  0  0  0  0  0  0  0  0
   34.7336   28.1313   50.1782 H   0  0  0  0  0  0  0  0  0  0  0  0
   33.5997   28.2625   48.0022 H   0  0  0  0  0  0  0  0  0  0  0  0
   34.5272   29.8624   46.3325 H   0  0  0  0  0  0  0  0  0  0  0  0
   36.4761   31.2111   46.8558 H   0  0  0  0  0  0  0  0  0  0  0  0
   40.1788   33.8100   47.1463 H   0  0  0  0  0  0  0  0  0  0  0  0
   41.4059   33.6868   44.8866 H   0  0  0  0  0  0  0  0  0  0  0  0
   36.8082   29.5645   44.1847 H   0  0  0  0  0  0  0  0  0  0  0  0
   37.0032   27.8240   42.2855 H   0  0  0  0  0  0  0  0  0  0  0  0
   38.9970   27.0035   40.5373 H   0  0  0  0  0  0  0  0  0  0  0  0
   41.3413   27.3837   39.8798 H   0  0  0  0  0  0  0  0  0  0  0  0
   42.7275   29.1215   41.0745 H   0  0  0  0  0  0  0  0  0  0  0  0
   41.6498   30.4071   42.8963 H   0  0  0  0  0  0  0  0  0  0  0  0
   38.1595   33.3603   49.5413 H   0  0  0  0  0  0  0  0  0  0  0  0
  1 27  1  0
  1  2  1  0
  2  3  2  0
  3  4  1  0
  5  4  2  0
  6  5  1  0
  7  6  2  0
  8  7  1  0
  9 10  1  0
  9  8  2  0
 10 11  2  0
 11  2  1  0
 11  6  1  0
 12  1  1  0
 13 12  2  0
 14 13  1  0
 15 16  1  0
 15 14  2  0
 16 17  2  0
 17 12  1  0
 18 16  1  0
 19 18  2  0
 20 19  1  0
 21 20  1  0
 21 26  2  0
 22 21  1  0
 23 22  2  0
 23 24  1  0
 24 25  2  0
 25 26  1  0
 26 18  1  0
  1 28  1  1
  4 29  1  0
  7 30  1  0
  8 31  1  0
  9 32  1  0
 10 33  1  0
 13 34  1  0
 14 35  1  0
 19 36  1  0
 20 37  1  0
 22 38  1  0
 23 39  1  0
 24 40  1  0
 25 41  1  0
 27 42  1  0
M  ISO  8  28   8  29  14  30  14  31  14  32  14  33  14  34  14  35  14
M  ISO  7  36  14  37   9  38  14  39  14  40  14  41  14  42   3
M  END
>  <minimizedAffinity>  (1) 
-7.7522378

>  <minimizedRMSD>  (1) 
0.938431859

$$$$
