
     RDKit          3D

 44 47  0  0  1  0  0  0  0  0999 V2000
   38.5340   32.0670   48.0530 C   0  0  1  0  0  0  0  0  0  0  0  0
   37.8330   31.2030   49.0000 C   0  0  0  0  0  0  0  0  0  0  0  0
   38.3240   31.0660   50.2320 N   0  0  0  0  0  0  0  0  0  0  0  0
   37.7530   30.2740   51.1710 C   0  0  0  0  0  0  0  0  0  0  0  0
   36.6480   29.5670   50.9340 N   0  0  0  0  0  0  0  0  0  0  0  0
   36.0730   29.6380   49.7270 C   0  0  0  0  0  0  0  0  0  0  0  0
   34.9310   28.9260   49.4180 C   0  0  0  0  0  0  0  0  0  0  0  0
   34.3340   28.9810   48.2030 C   0  0  0  0  0  0  0  0  0  0  0  0
   34.9350   29.7970   47.2740 C   0  0  0  0  0  0  0  0  0  0  0  0
   36.0720   30.5000   47.5890 C   0  0  0  0  0  0  0  0  0  0  0  0
   36.6890   30.4590   48.8020 C   0  0  0  0  0  0  0  0  0  0  0  0
   39.0420   31.8650   46.7250 C   0  0  0  0  0  0  0  0  0  0  0  0
   39.8210   32.9600   46.3170 C   0  0  0  0  0  0  0  0  0  0  0  0
   40.5370   32.8940   45.0670 C   0  0  0  0  0  0  0  0  0  0  0  0
   40.3910   31.7420   44.3700 N   0  0  0  0  0  0  0  0  0  0  0  0
   39.6230   30.7050   44.8020 C   0  0  0  0  0  0  0  0  0  0  0  0
   38.9680   30.7660   45.9450 N   0  0  0  0  0  0  0  0  0  0  0  0
   39.5840   29.5250   43.8970 C   0  0  0  0  0  0  0  0  0  0  0  0
   38.1720   29.1820   43.4450 C   0  0  0  0  0  0  0  0  0  0  0  0
   38.2070   27.8080   42.8380 C   0  0  0  0  0  0  0  0  0  0  0  0
   39.5900   27.3130   42.5710 C   0  0  0  0  0  0  0  0  0  0  0  0
   40.4870   28.3450   41.9740 C   0  0  0  0  0  0  0  0  0  0  0  0
   40.5070   29.6550   42.7110 C   0  0  0  0  0  0  0  0  0  0  0  0
   38.2160   33.2860   48.4820 O   0  0  0  0  0  0  0  0  0  0  0  0
   39.5102   31.5750   47.9305 H   0  0  0  0  0  0  0  0  0  0  0  0
   38.2183   30.2120   52.1658 H   0  0  0  0  0  0  0  0  0  0  0  0
   34.4858   28.2852   50.1933 H   0  0  0  0  0  0  0  0  0  0  0  0
   33.4237   28.4076   47.9738 H   0  0  0  0  0  0  0  0  0  0  0  0
   34.5005   29.8878   46.2675 H   0  0  0  0  0  0  0  0  0  0  0  0
   36.5134   31.1385   46.8096 H   0  0  0  0  0  0  0  0  0  0  0  0
   39.8845   33.8604   46.9456 H   0  0  0  0  0  0  0  0  0  0  0  0
   41.1604   33.7243   44.7037 H   0  0  0  0  0  0  0  0  0  0  0  0
   39.9552   28.6871   44.5054 H   0  0  0  0  0  0  0  0  0  0  0  0
   37.4896   29.1931   44.3076 H   0  0  0  0  0  0  0  0  0  0  0  0
   37.8133   29.9183   42.7106 H   0  0  0  0  0  0  0  0  0  0  0  0
   37.7137   27.1088   43.5292 H   0  0  0  0  0  0  0  0  0  0  0  0
   37.6907   27.8679   41.8686 H   0  0  0  0  0  0  0  0  0  0  0  0
   40.0295   26.9780   43.5221 H   0  0  0  0  0  0  0  0  0  0  0  0
   39.5054   26.4959   41.8395 H   0  0  0  0  0  0  0  0  0  0  0  0
   41.5109   27.9433   41.9594 H   0  0  0  0  0  0  0  0  0  0  0  0
   40.0940   28.5575   40.9688 H   0  0  0  0  0  0  0  0  0  0  0  0
   41.5285   29.8773   43.0532 H   0  0  0  0  0  0  0  0  0  0  0  0
   40.1783   30.4733   42.0535 H   0  0  0  0  0  0  0  0  0  0  0  0
   38.2131   33.2971   49.4719 H   0  0  0  0  0  0  0  0  0  0  0  0
  1 24  1  0
  1  2  1  0
  2  3  2  0
  3  4  1  0
  5  4  2  0
  6  5  1  0
  7  6  2  0
  8  7  1  0
  9 10  1  0
  9  8  2  0
 10 11  2  0
 11  2  1  0
 11  6  1  0
 12  1  1  0
 13 12  2  0
 14 13  1  0
 15 16  1  0
 15 14  2  0
 16 17  2  0
 17 12  1  0
 18 16  1  0
 19 18  1  0
 20 19  1  0
 21 20  1  0
 22 21  1  0
 22 23  1  0
 23 18  1  0
  1 25  1  1
  4 26  1  0
  7 27  1  0
  8 28  1  0
  9 29  1  0
 10 30  1  0
 13 31  1  0
 14 32  1  0
 18 33  1  0
 19 34  1  0
 19 35  1  0
 20 36  1  0
 20 37  1  0
 21 38  1  0
 21 39  1  0
 22 40  1  0
 22 41  1  0
 23 42  1  0
 23 43  1  0
 24 44  1  0
M  ISO  8  25   8  26  14  27  14  28  14  29  14  30  14  31  14  32  14
M  ISO  8  33  13  34  13  35  13  36  13  37  13  38  13  39  13  40  13
M  ISO  4  41  13  42  13  43  13  44   3
M  END
>  <minimizedAffinity>  (1) 
-7.52555943

>  <minimizedRMSD>  (1) 
0.663739741

$$$$
