
     RDKit          3D

 37 40  0  0  1  0  0  0  0  0999 V2000
   38.6030   32.2990   48.0680 C   0  0  1  0  0  0  0  0  0  0  0  0
   37.9500   31.3170   48.9300 C   0  0  0  0  0  0  0  0  0  0  0  0
   38.4350   31.1130   50.1580 N   0  0  0  0  0  0  0  0  0  0  0  0
   37.8940   30.2210   51.0240 C   0  0  0  0  0  0  0  0  0  0  0  0
   36.8320   29.4780   50.7130 N   0  0  0  0  0  0  0  0  0  0  0  0
   36.2600   29.6090   49.4910 C   0  0  0  0  0  0  0  0  0  0  0  0
   35.1840   28.8490   49.1590 C   0  0  0  0  0  0  0  0  0  0  0  0
   34.6030   28.9630   47.9170 C   0  0  0  0  0  0  0  0  0  0  0  0
   35.1710   29.8820   47.0400 C   0  0  0  0  0  0  0  0  0  0  0  0
   36.2570   30.6200   47.4350 C   0  0  0  0  0  0  0  0  0  0  0  0
   36.8530   30.5240   48.6650 C   0  0  0  0  0  0  0  0  0  0  0  0
   39.1010   32.2500   46.7240 C   0  0  0  0  0  0  0  0  0  0  0  0
   39.6900   33.4740   46.3640 C   0  0  0  0  0  0  0  0  0  0  0  0
   40.3830   33.5820   45.1150 C   0  0  0  0  0  0  0  0  0  0  0  0
   40.4140   32.4610   44.3610 N   0  0  0  0  0  0  0  0  0  0  0  0
   39.8300   31.2950   44.7420 C   0  0  0  0  0  0  0  0  0  0  0  0
   39.1850   31.1850   45.8970 N   0  0  0  0  0  0  0  0  0  0  0  0
   39.9020   30.1140   43.8670 C   0  0  0  0  0  0  0  0  0  0  0  0
   39.0180   29.0600   43.9740 C   0  0  0  0  0  0  0  0  0  0  0  0
   39.0150   27.9360   43.2090 C   0  0  0  0  0  0  0  0  0  0  0  0
   40.0070   27.8790   42.2410 C   0  0  0  0  0  0  0  0  0  0  0  0
   40.8940   28.9230   42.1250 C   0  0  0  0  0  0  0  0  0  0  0  0
   40.8440   30.0060   42.9110 N   0  0  0  0  0  0  0  0  0  0  0  0
   38.2450   33.4550   48.6260 O   0  0  0  0  0  0  0  0  0  0  0  0
   39.5953   31.8653   47.8749 H   0  0  0  0  0  0  0  0  0  0  0  0
   38.3480   30.1063   52.0194 H   0  0  0  0  0  0  0  0  0  0  0  0
   34.7737   28.1363   49.8895 H   0  0  0  0  0  0  0  0  0  0  0  0
   33.7310   28.3565   47.6309 H   0  0  0  0  0  0  0  0  0  0  0  0
   34.7499   30.0160   46.0327 H   0  0  0  0  0  0  0  0  0  0  0  0
   36.6783   31.3377   46.7157 H   0  0  0  0  0  0  0  0  0  0  0  0
   39.6195   34.3421   47.0359 H   0  0  0  0  0  0  0  0  0  0  0  0
   40.8599   34.5185   44.7901 H   0  0  0  0  0  0  0  0  0  0  0  0
   38.2431   29.1362   44.7510 H   0  0  0  0  0  0  0  0  0  0  0  0
   38.2792   27.1302   43.3476 H   0  0  0  0  0  0  0  0  0  0  0  0
   40.0831   27.0080   41.5735 H   0  0  0  0  0  0  0  0  0  0  0  0
   41.6772   28.8663   41.3547 H   0  0  0  0  0  0  0  0  0  0  0  0
   38.2720   33.3679   49.6118 H   0  0  0  0  0  0  0  0  0  0  0  0
  1 24  1  0
  1  2  1  0
  2  3  2  0
  3  4  1  0
  5  4  2  0
  6  5  1  0
  7  6  2  0
  8  7  1  0
  9 10  1  0
  9  8  2  0
 10 11  2  0
 11  2  1  0
 11  6  1  0
 12  1  1  0
 13 12  2  0
 14 13  1  0
 15 16  1  0
 15 14  2  0
 16 17  2  0
 17 12  1  0
 18 19  2  0
 18 16  1  0
 20 19  1  0
 21 20  2  0
 22 21  1  0
 22 23  2  0
 23 18  1  0
  1 25  1  1
  4 26  1  0
  7 27  1  0
  8 28  1  0
  9 29  1  0
 10 30  1  0
 13 31  1  0
 14 32  1  0
 19 33  1  0
 20 34  1  0
 21 35  1  0
 22 36  1  0
 24 37  1  0
M  ISO  8  25   8  26  14  27  14  28  14  29  14  30  14  31  14  32  14
M  ISO  5  33  14  34  14  35  14  36  14  37   3
M  END
>  <minimizedAffinity>  (1) 
-7.24192619

>  <minimizedRMSD>  (1) 
0.898062289

$$$$
