
     RDKit          3D

 41 44  0  0  1  0  0  0  0  0999 V2000
   38.4710   32.0190   48.1240 C   0  0  1  0  0  0  0  0  0  0  0  0
   37.7660   31.1670   49.0780 C   0  0  0  0  0  0  0  0  0  0  0  0
   38.2660   31.0240   50.3020 N   0  0  0  0  0  0  0  0  0  0  0  0
   37.6850   30.2460   51.2540 C   0  0  0  0  0  0  0  0  0  0  0  0
   36.5630   29.5660   51.0260 N   0  0  0  0  0  0  0  0  0  0  0  0
   35.9780   29.6430   49.8270 C   0  0  0  0  0  0  0  0  0  0  0  0
   34.8190   28.9510   49.5310 C   0  0  0  0  0  0  0  0  0  0  0  0
   34.2180   29.0170   48.3110 C   0  0  0  0  0  0  0  0  0  0  0  0
   34.8250   29.8130   47.3810 C   0  0  0  0  0  0  0  0  0  0  0  0
   35.9770   30.4940   47.6850 C   0  0  0  0  0  0  0  0  0  0  0  0
   36.6040   30.4460   48.8980 C   0  0  0  0  0  0  0  0  0  0  0  0
   38.9830   31.8000   46.8010 C   0  0  0  0  0  0  0  0  0  0  0  0
   39.8640   32.8260   46.4270 C   0  0  0  0  0  0  0  0  0  0  0  0
   40.5930   32.7100   45.1930 C   0  0  0  0  0  0  0  0  0  0  0  0
   40.3660   31.5880   44.4660 N   0  0  0  0  0  0  0  0  0  0  0  0
   39.4990   30.6210   44.8690 C   0  0  0  0  0  0  0  0  0  0  0  0
   38.8250   30.7210   46.0030 N   0  0  0  0  0  0  0  0  0  0  0  0
   39.3690   29.4570   43.9470 C   0  0  0  0  0  0  0  0  0  0  0  0
   40.1910   29.6500   42.6990 C   0  0  0  0  0  0  0  0  0  0  0  0
   39.2420   29.6900   41.5240 C   0  0  0  0  0  0  0  0  0  0  0  0
   37.9400   29.0910   42.0090 C   0  0  0  0  0  0  0  0  0  0  0  0
   37.9390   29.2640   43.4950 C   0  0  0  0  0  0  0  0  0  0  0  0
   38.1610   33.2450   48.5370 O   0  0  0  0  0  0  0  0  0  0  0  0
   39.4429   31.5165   48.0104 H   0  0  0  0  0  0  0  0  0  0  0  0
   38.1573   30.1761   52.2450 H   0  0  0  0  0  0  0  0  0  0  0  0
   34.3645   28.3226   50.3111 H   0  0  0  0  0  0  0  0  0  0  0  0
   33.2958   28.4609   48.0867 H   0  0  0  0  0  0  0  0  0  0  0  0
   34.3853   29.9090   46.3773 H   0  0  0  0  0  0  0  0  0  0  0  0
   36.4255   31.1203   46.8997 H   0  0  0  0  0  0  0  0  0  0  0  0
   39.9954   33.7086   47.0702 H   0  0  0  0  0  0  0  0  0  0  0  0
   41.2952   33.4875   44.8577 H   0  0  0  0  0  0  0  0  0  0  0  0
   39.7191   28.5830   44.5159 H   0  0  0  0  0  0  0  0  0  0  0  0
   40.7499   30.5954   42.7613 H   0  0  0  0  0  0  0  0  0  0  0  0
   40.9128   28.8281   42.5828 H   0  0  0  0  0  0  0  0  0  0  0  0
   39.6452   29.0990   40.6885 H   0  0  0  0  0  0  0  0  0  0  0  0
   39.0982   30.7184   41.1611 H   0  0  0  0  0  0  0  0  0  0  0  0
   37.0853   29.6194   41.5615 H   0  0  0  0  0  0  0  0  0  0  0  0
   37.8515   28.0320   41.7251 H   0  0  0  0  0  0  0  0  0  0  0  0
   37.3398   30.1454   43.7672 H   0  0  0  0  0  0  0  0  0  0  0  0
   37.5020   28.3793   43.9811 H   0  0  0  0  0  0  0  0  0  0  0  0
   38.1551   33.2682   49.5267 H   0  0  0  0  0  0  0  0  0  0  0  0
  1 23  1  0
  1  2  1  0
  2  3  2  0
  3  4  1  0
  5  4  2  0
  6  5  1  0
  7  6  2  0
  8  7  1  0
  9 10  1  0
  9  8  2  0
 10 11  2  0
 11  2  1  0
 11  6  1  0
 12  1  1  0
 13 12  2  0
 14 13  1  0
 15 16  1  0
 15 14  2  0
 16 17  2  0
 17 12  1  0
 18 16  1  0
 19 18  1  0
 20 21  1  0
 20 19  1  0
 21 22  1  0
 22 18  1  0
  1 24  1  1
  4 25  1  0
  7 26  1  0
  8 27  1  0
  9 28  1  0
 10 29  1  0
 13 30  1  0
 14 31  1  0
 18 32  1  0
 19 33  1  0
 19 34  1  0
 20 35  1  0
 20 36  1  0
 21 37  1  0
 21 38  1  0
 22 39  1  0
 22 40  1  0
 23 41  1  0
M  ISO  8  24   8  25  14  26  14  27  14  28  14  29  14  30  14  31  14
M  ISO  8  32  13  33  13  34  13  35  13  36  13  37  13  38  13  39  13
M  ISO  2  40  13  41   3
M  END
>  <minimizedAffinity>  (1) 
-7.12227678

>  <minimizedRMSD>  (1) 
1.20565057

$$$$
