
     RDKit          3D

 35 38  0  0  1  0  0  0  0  0999 V2000
   38.6090   32.2240   48.0300 C   0  0  1  0  0  0  0  0  0  0  0  0
   37.9400   31.2810   48.9260 C   0  0  0  0  0  0  0  0  0  0  0  0
   38.4230   31.1080   50.1560 N   0  0  0  0  0  0  0  0  0  0  0  0
   37.8750   30.2450   51.0480 C   0  0  0  0  0  0  0  0  0  0  0  0
   36.8080   29.5020   50.7590 N   0  0  0  0  0  0  0  0  0  0  0  0
   36.2350   29.6020   49.5350 C   0  0  0  0  0  0  0  0  0  0  0  0
   35.1410   28.8520   49.2050 C   0  0  0  0  0  0  0  0  0  0  0  0
   34.5590   28.9460   47.9720 C   0  0  0  0  0  0  0  0  0  0  0  0
   35.1300   29.8300   47.0910 C   0  0  0  0  0  0  0  0  0  0  0  0
   36.2320   30.5680   47.4560 C   0  0  0  0  0  0  0  0  0  0  0  0
   36.8320   30.4920   48.6780 C   0  0  0  0  0  0  0  0  0  0  0  0
   39.1210   32.1150   46.6940 C   0  0  0  0  0  0  0  0  0  0  0  0
   39.7860   33.2970   46.3200 C   0  0  0  0  0  0  0  0  0  0  0  0
   40.4910   33.3470   45.0690 C   0  0  0  0  0  0  0  0  0  0  0  0
   40.4530   32.2130   44.3310 N   0  0  0  0  0  0  0  0  0  0  0  0
   39.7950   31.0900   44.7260 C   0  0  0  0  0  0  0  0  0  0  0  0
   39.1480   31.0440   45.8740 N   0  0  0  0  0  0  0  0  0  0  0  0
   39.7720   29.8840   43.9010 C   0  0  0  0  0  0  0  0  0  0  0  0
   38.8650   28.8190   43.8510 C   0  0  0  0  0  0  0  0  0  0  0  0
   39.3520   27.9510   42.8740 C   0  0  0  0  0  0  0  0  0  0  0  0
   40.4860   28.4630   42.3660 N   0  0  0  0  0  0  0  0  0  0  0  0
   40.7300   29.6000   42.9730 N   0  0  0  0  0  0  0  0  0  0  0  0
   38.2440   33.4030   48.5310 O   0  0  0  0  0  0  0  0  0  0  0  0
   39.6063   31.7860   47.8767 H   0  0  0  0  0  0  0  0  0  0  0  0
   38.3284   30.1557   52.0462 H   0  0  0  0  0  0  0  0  0  0  0  0
   34.7201   28.1581   49.9475 H   0  0  0  0  0  0  0  0  0  0  0  0
   33.6790   28.3446   47.7000 H   0  0  0  0  0  0  0  0  0  0  0  0
   34.7028   29.9494   46.0844 H   0  0  0  0  0  0  0  0  0  0  0  0
   36.6556   31.2628   46.7158 H   0  0  0  0  0  0  0  0  0  0  0  0
   39.7664   34.1764   46.9804 H   0  0  0  0  0  0  0  0  0  0  0  0
   41.0263   34.2474   44.7332 H   0  0  0  0  0  0  0  0  0  0  0  0
   37.9558   28.6927   44.4572 H   0  0  0  0  0  0  0  0  0  0  0  0
   38.8847   27.0030   42.5693 H   0  0  0  0  0  0  0  0  0  0  0  0
   41.0637   28.0364   41.6276 H   0  0  0  0  0  0  0  0  0  0  0  0
   38.2574   33.3597   49.5200 H   0  0  0  0  0  0  0  0  0  0  0  0
  1 23  1  0
  1  2  1  0
  2  3  2  0
  3  4  1  0
  5  4  2  0
  6  5  1  0
  7  6  2  0
  8  7  1  0
  9 10  1  0
  9  8  2  0
 10 11  2  0
 11  2  1  0
 11  6  1  0
 12  1  1  0
 13 12  2  0
 14 13  1  0
 15 16  1  0
 15 14  2  0
 16 17  2  0
 17 12  1  0
 18 16  1  0
 19 18  1  0
 20 19  2  0
 21 20  1  0
 21 22  1  0
 22 18  2  0
  1 24  1  1
  4 25  1  0
  7 26  1  0
  8 27  1  0
  9 28  1  0
 10 29  1  0
 13 30  1  0
 14 31  1  0
 19 32  1  0
 20 33  1  0
 21 34  1  0
 23 35  1  0
M  ISO  8  24   8  25  14  26  14  27  14  28  14  29  14  30  14  31  14
M  ISO  4  32  14  33  14  34   9  35   3
M  END
>  <minimizedAffinity>  (1) 
-7.012218

>  <minimizedRMSD>  (1) 
0.698334038

$$$$
