
     RDKit          3D

 34 37  0  0  1  0  0  0  0  0999 V2000
   38.5810   32.2980   48.1000 C   0  0  1  0  0  0  0  0  0  0  0  0
   37.9290   31.3090   48.9550 C   0  0  0  0  0  0  0  0  0  0  0  0
   38.4160   31.0950   50.1760 N   0  0  0  0  0  0  0  0  0  0  0  0
   37.8870   30.1880   51.0360 C   0  0  0  0  0  0  0  0  0  0  0  0
   36.8310   29.4400   50.7210 N   0  0  0  0  0  0  0  0  0  0  0  0
   36.2570   29.5820   49.4990 C   0  0  0  0  0  0  0  0  0  0  0  0
   35.1720   28.8270   49.1290 C   0  0  0  0  0  0  0  0  0  0  0  0
   34.5880   28.9540   47.9090 C   0  0  0  0  0  0  0  0  0  0  0  0
   35.1470   29.8840   47.0650 C   0  0  0  0  0  0  0  0  0  0  0  0
   36.2330   30.6240   47.4620 C   0  0  0  0  0  0  0  0  0  0  0  0
   36.8370   30.5170   48.6750 C   0  0  0  0  0  0  0  0  0  0  0  0
   39.0850   32.2620   46.7570 C   0  0  0  0  0  0  0  0  0  0  0  0
   39.7180   33.4690   46.4240 C   0  0  0  0  0  0  0  0  0  0  0  0
   40.4240   33.5950   45.1820 C   0  0  0  0  0  0  0  0  0  0  0  0
   40.4160   32.4880   44.4080 N   0  0  0  0  0  0  0  0  0  0  0  0
   39.7900   31.3290   44.7540 C   0  0  0  0  0  0  0  0  0  0  0  0
   39.1450   31.2260   45.8970 N   0  0  0  0  0  0  0  0  0  0  0  0
   39.8190   30.1630   43.8610 C   0  0  0  0  0  0  0  0  0  0  0  0
   40.7270   30.0320   42.7650 C   0  0  0  0  0  0  0  0  0  0  0  0
   40.2690   28.4090   42.0680 S   0  0  0  0  0  0  0  0  0  0  0  0
   38.9130   28.1760   43.3840 C   0  0  0  0  0  0  0  0  0  0  0  0
   38.9760   29.1590   44.0440 N   0  0  0  0  0  0  0  0  0  0  0  0
   38.2110   33.4490   48.6540 O   0  0  0  0  0  0  0  0  0  0  0  0
   39.5757   31.8625   47.9244 H   0  0  0  0  0  0  0  0  0  0  0  0
   38.3466   30.0664   52.0280 H   0  0  0  0  0  0  0  0  0  0  0  0
   34.7627   28.0965   49.8424 H   0  0  0  0  0  0  0  0  0  0  0  0
   33.7187   28.3481   47.6138 H   0  0  0  0  0  0  0  0  0  0  0  0
   34.7203   30.0366   46.0627 H   0  0  0  0  0  0  0  0  0  0  0  0
   36.6429   31.3543   46.7489 H   0  0  0  0  0  0  0  0  0  0  0  0
   39.6727   34.3214   47.1178 H   0  0  0  0  0  0  0  0  0  0  0  0
   40.9334   34.5228   44.8824 H   0  0  0  0  0  0  0  0  0  0  0  0
   41.5050   30.7324   42.4271 H   0  0  0  0  0  0  0  0  0  0  0  0
   38.2277   27.3241   43.5045 H   0  0  0  0  0  0  0  0  0  0  0  0
   38.2382   33.3644   49.6400 H   0  0  0  0  0  0  0  0  0  0  0  0
  1 23  1  0
  1  2  1  0
  2  3  2  0
  3  4  1  0
  5  4  2  0
  6  5  1  0
  7  6  2  0
  8  7  1  0
  9 10  1  0
  9  8  2  0
 10 11  2  0
 11  2  1  0
 11  6  1  0
 12  1  1  0
 13 12  2  0
 14 13  1  0
 15 16  1  0
 15 14  2  0
 16 17  2  0
 17 12  1  0
 18 22  1  0
 18 16  1  0
 19 18  2  0
 20 19  1  0
 20 21  1  0
 21 22  2  0
  1 24  1  1
  4 25  1  0
  7 26  1  0
  8 27  1  0
  9 28  1  0
 10 29  1  0
 13 30  1  0
 14 31  1  0
 19 32  1  0
 21 33  1  0
 23 34  1  0
M  ISO  8  24   8  25  14  26  14  27  14  28  14  29  14  30  14  31  14
M  ISO  3  32  14  33  14  34   3
M  END
>  <minimizedAffinity>  (1) 
-6.89262295

>  <minimizedRMSD>  (1) 
0.797442913

$$$$
