
     RDKit          3D

 35 38  0  0  1  0  0  0  0  0999 V2000
   37.7230   31.1540   49.1580 C   0  0  0  0  0  0  0  0  0  0  0  0
   38.2550   31.0000   50.3700 N   0  0  0  0  0  0  0  0  0  0  0  0
   37.6820   30.2350   51.3340 C   0  0  0  0  0  0  0  0  0  0  0  0
   36.5400   29.5790   51.1380 N   0  0  0  0  0  0  0  0  0  0  0  0
   35.9250   29.6720   49.9540 C   0  0  0  0  0  0  0  0  0  0  0  0
   34.7400   29.0070   49.6990 C   0  0  0  0  0  0  0  0  0  0  0  0
   34.1010   29.0860   48.5030 C   0  0  0  0  0  0  0  0  0  0  0  0
   34.7040   29.8730   47.5440 C   0  0  0  0  0  0  0  0  0  0  0  0
   35.8820   30.5240   47.8130 C   0  0  0  0  0  0  0  0  0  0  0  0
   36.5410   30.4590   49.0060 C   0  0  0  0  0  0  0  0  0  0  0  0
   38.4220   31.9860   48.1830 C   0  0  1  0  0  0  0  0  0  0  0  0
   38.9220   31.7500   46.8600 C   0  0  0  0  0  0  0  0  0  0  0  0
   39.8090   32.7680   46.4680 C   0  0  0  0  0  0  0  0  0  0  0  0
   40.5270   32.6340   45.2240 C   0  0  0  0  0  0  0  0  0  0  0  0
   40.2790   31.5050   44.5160 N   0  0  0  0  0  0  0  0  0  0  0  0
   39.4080   30.5490   44.9360 C   0  0  0  0  0  0  0  0  0  0  0  0
   38.7460   30.6640   46.0750 N   0  0  0  0  0  0  0  0  0  0  0  0
   39.2030   29.3430   44.0810 C   0  0  0  0  0  0  0  0  0  0  0  0
   38.0940   29.3610   43.0460 C   0  0  0  0  0  0  0  0  0  0  0  0
   39.5430   29.3590   42.6440 C   0  0  0  0  0  0  0  0  0  0  0  0
   38.1010   33.2200   48.5750 O   0  0  0  0  0  0  0  0  0  0  0  0
   38.1789   30.1542   52.3120 H   0  0  0  0  0  0  0  0  0  0  0  0
   34.2977   28.3903   50.4952 H   0  0  0  0  0  0  0  0  0  0  0  0
   33.1579   28.5536   48.3105 H   0  0  0  0  0  0  0  0  0  0  0  0
   34.2363   29.9799   46.5541 H   0  0  0  0  0  0  0  0  0  0  0  0
   36.3237   31.1383   47.0146 H   0  0  0  0  0  0  0  0  0  0  0  0
   39.3960   31.4852   48.0805 H   0  0  0  0  0  0  0  0  0  0  0  0
   39.9536   33.6553   47.1018 H   0  0  0  0  0  0  0  0  0  0  0  0
   41.2324   33.4009   44.8716 H   0  0  0  0  0  0  0  0  0  0  0  0
   39.4861   28.6958   44.9242 H   0  0  0  0  0  0  0  0  0  0  0  0
   37.4729   28.4677   42.8840 H   0  0  0  0  0  0  0  0  0  0  0  0
   37.2215   29.9982   42.8394 H   0  0  0  0  0  0  0  0  0  0  0  0
   39.9791   28.4644   42.1754 H   0  0  0  0  0  0  0  0  0  0  0  0
   40.1670   30.0028   42.0067 H   0  0  0  0  0  0  0  0  0  0  0  0
   38.0906   33.2598   49.5641 H   0  0  0  0  0  0  0  0  0  0  0  0
  1  2  2  0
  2  3  1  0
  4  3  2  0
  5  4  1  0
  6  5  2  0
  7  6  1  0
  8  9  1  0
  8  7  2  0
  9 10  2  0
 10  1  1  0
 10  5  1  0
 11 21  1  0
 11  1  1  0
 12 11  1  0
 13 12  2  0
 14 13  1  0
 15 16  1  0
 15 14  2  0
 16 17  2  0
 17 12  1  0
 18 16  1  0
 19 18  1  0
 20 19  1  0
 20 18  1  0
  3 22  1  0
  6 23  1  0
  7 24  1  0
  8 25  1  0
  9 26  1  0
 11 27  1  1
 13 28  1  0
 14 29  1  0
 18 30  1  0
 19 31  1  0
 19 32  1  0
 20 33  1  0
 20 34  1  0
 21 35  1  0
M  ISO  8  22  14  23  14  24  14  25  14  26  14  27   8  28  14  29  14
M  ISO  6  30  13  31  13  32  13  33  13  34  13  35   3
M  END
>  <minimizedAffinity>  (1) 
-6.82368422

>  <minimizedRMSD>  (1) 
0.457063794

$$$$
