
     RDKit          3D

 34 36  0  0  1  0  0  0  0  0999 V2000
   37.7560   31.1560   49.0740 C   0  0  0  0  0  0  0  0  0  0  0  0
   38.2600   31.0230   50.2980 N   0  0  0  0  0  0  0  0  0  0  0  0
   37.6810   30.2560   51.2590 C   0  0  0  0  0  0  0  0  0  0  0  0
   36.5560   29.5770   51.0410 N   0  0  0  0  0  0  0  0  0  0  0  0
   35.9660   29.6470   49.8370 C   0  0  0  0  0  0  0  0  0  0  0  0
   34.8030   28.9560   49.5580 C   0  0  0  0  0  0  0  0  0  0  0  0
   34.1950   29.0110   48.3430 C   0  0  0  0  0  0  0  0  0  0  0  0
   34.8050   29.7990   47.3990 C   0  0  0  0  0  0  0  0  0  0  0  0
   35.9630   30.4790   47.6900 C   0  0  0  0  0  0  0  0  0  0  0  0
   36.5920   30.4390   48.8970 C   0  0  0  0  0  0  0  0  0  0  0  0
   38.4640   31.9920   48.1080 C   0  0  1  0  0  0  0  0  0  0  0  0
   38.9620   31.7650   46.7820 C   0  0  0  0  0  0  0  0  0  0  0  0
   39.8500   32.7820   46.3940 C   0  0  0  0  0  0  0  0  0  0  0  0
   40.5690   32.6630   45.1520 C   0  0  0  0  0  0  0  0  0  0  0  0
   40.3180   31.5400   44.4360 N   0  0  0  0  0  0  0  0  0  0  0  0
   39.4460   30.5810   44.8470 C   0  0  0  0  0  0  0  0  0  0  0  0
   38.7870   30.6870   45.9850 N   0  0  0  0  0  0  0  0  0  0  0  0
   39.1950   29.3610   44.0320 C   0  0  0  0  0  0  0  0  0  0  0  0
   37.7540   29.4080   43.5240 C   0  0  0  0  0  0  0  0  0  0  0  0
   38.1620   33.2240   48.5160 O   0  0  0  0  0  0  0  0  0  0  0  0
   38.1568   30.1939   52.2488 H   0  0  0  0  0  0  0  0  0  0  0  0
   34.3518   28.3381   50.3483 H   0  0  0  0  0  0  0  0  0  0  0  0
   33.2691   28.4568   48.1292 H   0  0  0  0  0  0  0  0  0  0  0  0
   34.3610   29.8873   46.3965 H   0  0  0  0  0  0  0  0  0  0  0  0
   36.4108   31.0955   46.8967 H   0  0  0  0  0  0  0  0  0  0  0  0
   39.4296   31.4777   47.9934 H   0  0  0  0  0  0  0  0  0  0  0  0
   39.9953   33.6640   47.0351 H   0  0  0  0  0  0  0  0  0  0  0  0
   41.2752   33.4327   44.8072 H   0  0  0  0  0  0  0  0  0  0  0  0
   39.8890   29.3349   43.1789 H   0  0  0  0  0  0  0  0  0  0  0  0
   39.3511   28.4597   44.6429 H   0  0  0  0  0  0  0  0  0  0  0  0
   37.0639   29.4305   44.3803 H   0  0  0  0  0  0  0  0  0  0  0  0
   37.6099   30.3113   42.9131 H   0  0  0  0  0  0  0  0  0  0  0  0
   37.5513   28.5160   42.9131 H   0  0  0  0  0  0  0  0  0  0  0  0
   38.1553   33.2515   49.5056 H   0  0  0  0  0  0  0  0  0  0  0  0
  1  2  2  0
  2  3  1  0
  4  3  2  0
  5  4  1  0
  6  5  2  0
  7  6  1  0
  8  9  1  0
  8  7  2  0
  9 10  2  0
 10  1  1  0
 10  5  1  0
 11 20  1  0
 11  1  1  0
 12 11  1  0
 13 12  2  0
 14 13  1  0
 15 16  1  0
 15 14  2  0
 16 17  2  0
 17 12  1  0
 18 16  1  0
 19 18  1  0
  3 21  1  0
  6 22  1  0
  7 23  1  0
  8 24  1  0
  9 25  1  0
 11 26  1  1
 13 27  1  0
 14 28  1  0
 18 29  1  0
 18 30  1  0
 19 31  1  0
 19 32  1  0
 19 33  1  0
 20 34  1  0
M  ISO  8  21  14  22  14  23  14  24  14  25  14  26   8  27  14  28  14
M  ISO  6  29   8  30   8  31   8  32   8  33   8  34   3
M  END
>  <minimizedAffinity>  (1) 
-6.70780277

>  <minimizedRMSD>  (1) 
0.468975544

$$$$
