
     RDKit          3D

 30 32  0  0  1  0  0  0  0  0999 V2000
   37.7590   31.1550   49.0730 C   0  0  0  0  0  0  0  0  0  0  0  0
   38.2780   31.0190   50.2920 N   0  0  0  0  0  0  0  0  0  0  0  0
   37.7060   30.2530   51.2600 C   0  0  0  0  0  0  0  0  0  0  0  0
   36.5750   29.5820   51.0510 N   0  0  0  0  0  0  0  0  0  0  0  0
   35.9600   29.6530   49.8460 C   0  0  0  0  0  0  0  0  0  0  0  0
   34.7980   28.9730   49.6000 C   0  0  0  0  0  0  0  0  0  0  0  0
   34.1750   29.0360   48.3910 C   0  0  0  0  0  0  0  0  0  0  0  0
   34.7800   29.8230   47.4330 C   0  0  0  0  0  0  0  0  0  0  0  0
   35.9450   30.4910   47.7100 C   0  0  0  0  0  0  0  0  0  0  0  0
   36.5890   30.4410   48.9190 C   0  0  0  0  0  0  0  0  0  0  0  0
   38.4570   31.9930   48.1020 C   0  0  1  0  0  0  0  0  0  0  0  0
   38.9490   31.7640   46.7740 C   0  0  0  0  0  0  0  0  0  0  0  0
   39.8400   32.7810   46.3880 C   0  0  0  0  0  0  0  0  0  0  0  0
   40.5560   32.6490   45.1500 C   0  0  0  0  0  0  0  0  0  0  0  0
   40.3110   31.5270   44.4320 N   0  0  0  0  0  0  0  0  0  0  0  0
   39.4360   30.5710   44.8450 C   0  0  0  0  0  0  0  0  0  0  0  0
   38.7670   30.6800   45.9860 N   0  0  0  0  0  0  0  0  0  0  0  0
   39.2210   29.3890   44.0150 C   0  0  0  0  0  0  0  0  0  0  0  0
   39.8720   29.2000   42.9550 O   0  0  0  0  0  0  0  0  0  0  0  0
   38.1490   33.2250   48.5080 O   0  0  0  0  0  0  0  0  0  0  0  0
   38.1922   30.1860   52.2444 H   0  0  0  0  0  0  0  0  0  0  0  0
   34.3562   28.3600   50.3994 H   0  0  0  0  0  0  0  0  0  0  0  0
   33.2416   28.4900   48.1894 H   0  0  0  0  0  0  0  0  0  0  0  0
   34.3231   29.9156   46.4367 H   0  0  0  0  0  0  0  0  0  0  0  0
   36.3901   31.1047   46.9130 H   0  0  0  0  0  0  0  0  0  0  0  0
   39.4273   31.4879   47.9859 H   0  0  0  0  0  0  0  0  0  0  0  0
   39.9866   33.6654   47.0254 H   0  0  0  0  0  0  0  0  0  0  0  0
   41.2640   33.4165   44.8042 H   0  0  0  0  0  0  0  0  0  0  0  0
   38.4715   28.6456   44.3241 H   0  0  0  0  0  0  0  0  0  0  0  0
   38.1417   33.2542   49.4975 H   0  0  0  0  0  0  0  0  0  0  0  0
  1  2  2  0
  2  3  1  0
  4  3  2  0
  5  4  1  0
  6  5  2  0
  7  6  1  0
  8  9  1  0
  8  7  2  0
  9 10  2  0
 10  1  1  0
 10  5  1  0
 11 20  1  0
 11  1  1  0
 12 11  1  0
 13 12  2  0
 14 13  1  0
 15 16  1  0
 15 14  2  0
 16 17  2  0
 17 12  1  0
 18 16  1  0
 19 18  2  0
  3 21  1  0
  6 22  1  0
  7 23  1  0
  8 24  1  0
  9 25  1  0
 11 26  1  1
 13 27  1  0
 14 28  1  0
 18 29  1  0
 20 30  1  0
M  ISO  8  21  14  22  14  23  14  24  14  25  14  26   8  27  14  28  14
M  ISO  2  29   6  30   3
M  END
>  <minimizedAffinity>  (1) 
-6.62473488

>  <minimizedRMSD>  (1) 
0.514209151

$$$$
