
     RDKit          3D

 35 37  0  0  1  0  0  0  0  0999 V2000
   38.6530   31.7830   48.1190 C   0  0  1  0  0  0  0  0  0  0  0  0
   37.8560   31.0200   49.0890 C   0  0  0  0  0  0  0  0  0  0  0  0
   38.3120   30.8510   50.3260 N   0  0  0  0  0  0  0  0  0  0  0  0
   37.6290   30.1620   51.2660 C   0  0  0  0  0  0  0  0  0  0  0  0
   36.4560   29.6000   51.0340 N   0  0  0  0  0  0  0  0  0  0  0  0
   35.8850   29.7000   49.8200 C   0  0  0  0  0  0  0  0  0  0  0  0
   34.6810   29.1260   49.5460 C   0  0  0  0  0  0  0  0  0  0  0  0
   34.1090   29.2210   48.3190 C   0  0  0  0  0  0  0  0  0  0  0  0
   34.8170   29.9320   47.3650 C   0  0  0  0  0  0  0  0  0  0  0  0
   36.0280   30.5010   47.6700 C   0  0  0  0  0  0  0  0  0  0  0  0
   36.6180   30.4140   48.8930 C   0  0  0  0  0  0  0  0  0  0  0  0
   39.0460   31.5110   46.7700 C   0  0  0  0  0  0  0  0  0  0  0  0
   40.0030   32.4650   46.3510 C   0  0  0  0  0  0  0  0  0  0  0  0
   40.6490   32.3080   45.0820 C   0  0  0  0  0  0  0  0  0  0  0  0
   40.2820   31.2420   44.3790 N   0  0  0  0  0  0  0  0  0  0  0  0
   39.3460   30.3320   44.8090 C   0  0  0  0  0  0  0  0  0  0  0  0
   38.7500   30.4750   45.9760 N   0  0  0  0  0  0  0  0  0  0  0  0
   38.9520   29.1540   43.9800 C   0  0  0  0  0  0  0  0  0  0  0  0
   38.4110   33.0540   48.5270 O   0  0  0  0  0  0  0  0  0  0  0  0
   39.2230   34.0000   49.0790 C   0  0  0  0  0  0  0  0  0  0  0  0
   39.7390   35.1530   48.3780 N   0  0  0  0  0  0  0  0  0  0  0  0
   39.5720   33.9090   50.2710 O   0  0  0  0  0  0  0  0  0  0  0  0
   39.6324   31.2838   48.0786 H   0  0  0  0  0  0  0  0  0  0  0  0
   38.0691   30.0645   52.2694 H   0  0  0  0  0  0  0  0  0  0  0  0
   34.1587   28.5712   50.3394 H   0  0  0  0  0  0  0  0  0  0  0  0
   33.1364   28.7586   48.0948 H   0  0  0  0  0  0  0  0  0  0  0  0
   34.4042   30.0420   46.3513 H   0  0  0  0  0  0  0  0  0  0  0  0
   36.5519   31.0596   46.8803 H   0  0  0  0  0  0  0  0  0  0  0  0
   40.2495   33.3217   46.9954 H   0  0  0  0  0  0  0  0  0  0  0  0
   41.3995   33.0230   44.7139 H   0  0  0  0  0  0  0  0  0  0  0  0
   38.6727   28.3188   44.6391 H   0  0  0  0  0  0  0  0  0  0  0  0
   38.0948   29.4226   43.3451 H   0  0  0  0  0  0  0  0  0  0  0  0
   39.7983   28.8529   43.3451 H   0  0  0  0  0  0  0  0  0  0  0  0
   40.3485   35.8234   48.8679 H   0  0  0  0  0  0  0  0  0  0  0  0
   39.4974   35.3047   47.3883 H   0  0  0  0  0  0  0  0  0  0  0  0
  1 19  1  0
  1  2  1  0
  2  3  2  0
  3  4  1  0
  5  4  2  0
  6  5  1  0
  7  6  2  0
  8  7  1  0
  9 10  1  0
  9  8  2  0
 10 11  2  0
 11  2  1  0
 11  6  1  0
 12  1  1  0
 13 12  2  0
 14 13  1  0
 15 16  1  0
 15 14  2  0
 16 17  2  0
 17 12  1  0
 18 16  1  0
 19 20  1  0
 20 22  2  0
 21 20  1  0
  1 23  1  1
  4 24  1  0
  7 25  1  0
  8 26  1  0
  9 27  1  0
 10 28  1  0
 13 29  1  0
 14 30  1  0
 18 31  1  0
 18 32  1  0
 18 33  1  0
 21 34  1  0
 21 35  1  0
M  ISO  8  23   8  24  14  25  14  26  14  27  14  28  14  29  14  30  14
M  ISO  3  31   8  32   8  33   8
M  END
>  <minimizedAffinity>  (1) 
-6.97062254

>  <minimizedRMSD>  (1) 
0.511177063

$$$$
