
     RDKit          3D

 26 27  0  0  0  0  0  0  0  0999 V2000
   40.3860   31.5560   45.8030 C   0  0  0  0  0  0  0  0  0  0  0  0
   40.0490   32.4780   44.7760 C   0  0  0  0  0  0  0  0  0  0  0  0
   38.7000   32.7820   44.6030 C   0  0  0  0  0  0  0  0  0  0  0  0
   37.8000   32.1760   45.4290 N   0  0  0  0  0  0  0  0  0  0  0  0
   38.1460   31.3080   46.3890 C   0  0  0  0  0  0  0  0  0  0  0  0
   39.4290   30.9980   46.5800 N   0  0  0  0  0  0  0  0  0  0  0  0
   37.1520   30.7130   47.2160 N   0  0  0  0  0  0  0  0  0  0  0  0
   35.9420   30.3890   46.7110 C   0  0  0  0  0  0  0  0  0  0  0  0
   34.9560   29.8090   47.4860 C   0  0  0  0  0  0  0  0  0  0  0  0
   35.3020   29.5920   48.7950 C   0  0  0  0  0  0  0  0  0  0  0  0
   34.4720   29.0700   49.5790 O   0  0  0  0  0  0  0  0  0  0  0  0
   36.4880   29.8950   49.3500 N   0  0  0  0  0  0  0  0  0  0  0  0
   37.4100   30.4640   48.5190 C   0  0  0  0  0  0  0  0  0  0  0  0
   38.5230   30.7560   49.0080 O   0  0  0  0  0  0  0  0  0  0  0  0
   33.6180   29.4370   46.9830 C   0  0  0  0  0  0  0  0  0  0  0  0
   36.7810   29.6360   50.7390 C   0  0  0  0  0  0  0  0  0  0  0  0
   37.7310   28.6590   50.8360 F   0  0  0  0  0  0  0  0  0  0  0  0
   37.2610   30.7830   51.3820 F   0  0  0  0  0  0  0  0  0  0  0  0
   35.6130   29.2500   51.3890 F   0  0  0  0  0  0  0  0  0  0  0  0
   41.4408   31.2918   45.9690 H   0  0  0  0  0  0  0  0  0  0  0  0
   40.8232   32.9344   44.1417 H   0  0  0  0  0  0  0  0  0  0  0  0
   38.3719   33.4877   43.8256 H   0  0  0  0  0  0  0  0  0  0  0  0
   35.7351   30.5931   45.6501 H   0  0  0  0  0  0  0  0  0  0  0  0
   32.9456   29.2500   47.8332 H   0  0  0  0  0  0  0  0  0  0  0  0
   33.2154   30.2573   46.3706 H   0  0  0  0  0  0  0  0  0  0  0  0
   33.6966   28.5266   46.3706 H   0  0  0  0  0  0  0  0  0  0  0  0
  1  6  2  0
  2  1  1  0
  3  2  2  0
  3  4  1  0
  4  5  2  0
  5  6  1  0
  5  7  1  0
  7 13  1  0
  8  7  1  0
  8  9  2  0
  9 10  1  0
 10 12  1  0
 10 11  2  0
 12 16  1  0
 13 14  2  0
 13 12  1  0
 15  9  1  0
 16 17  1  0
 16 18  1  0
 16 19  1  0
  1 20  1  0
  2 21  1  0
  3 22  1  0
  8 23  1  0
 15 24  1  0
 15 25  1  0
 15 26  1  0
M  ISO  7  20  14  21  14  22  14  23  14  24   8  25   8  26   8
M  END
>  <minimizedAffinity>  (1) 
-6.4406395

>  <minimizedRMSD>  (1) 
4.25282669

$$$$
