
     RDKit          3D

 45 48  0  0  1  0  0  0  0  0999 V2000
   38.6840   31.8070   48.1700 C   0  0  1  0  0  0  0  0  0  0  0  0
   37.8790   31.0550   49.1200 C   0  0  0  0  0  0  0  0  0  0  0  0
   38.3130   30.8850   50.3620 N   0  0  0  0  0  0  0  0  0  0  0  0
   37.6210   30.1930   51.2840 C   0  0  0  0  0  0  0  0  0  0  0  0
   36.4540   29.6220   51.0340 N   0  0  0  0  0  0  0  0  0  0  0  0
   35.8910   29.7170   49.8100 C   0  0  0  0  0  0  0  0  0  0  0  0
   34.6980   29.1390   49.5170 C   0  0  0  0  0  0  0  0  0  0  0  0
   34.1460   29.2350   48.2900 C   0  0  0  0  0  0  0  0  0  0  0  0
   34.8630   29.9580   47.3510 C   0  0  0  0  0  0  0  0  0  0  0  0
   36.0680   30.5310   47.6810 C   0  0  0  0  0  0  0  0  0  0  0  0
   36.6360   30.4400   48.9000 C   0  0  0  0  0  0  0  0  0  0  0  0
   39.0310   31.5940   46.7980 C   0  0  0  0  0  0  0  0  0  0  0  0
   39.7590   32.7050   46.3020 C   0  0  0  0  0  0  0  0  0  0  0  0
   40.3100   32.6440   44.9800 C   0  0  0  0  0  0  0  0  0  0  0  0
   40.0930   31.5360   44.3060 N   0  0  0  0  0  0  0  0  0  0  0  0
   39.3780   30.4750   44.8140 C   0  0  0  0  0  0  0  0  0  0  0  0
   38.8730   30.5250   46.0260 N   0  0  0  0  0  0  0  0  0  0  0  0
   39.1210   29.2400   44.0130 C   0  0  0  0  0  0  0  0  0  0  0  0
   37.7580   29.2410   43.4710 C   0  0  0  0  0  0  0  0  0  0  0  0
   36.8010   30.0830   44.0460 C   0  0  0  0  0  0  0  0  0  0  0  0
   35.4820   30.1460   43.5920 C   0  0  0  0  0  0  0  0  0  0  0  0
   35.0860   29.3410   42.5200 C   0  0  0  0  0  0  0  0  0  0  0  0
   36.0660   28.5300   41.9870 C   0  0  0  0  0  0  0  0  0  0  0  0
   37.3800   28.4290   42.3970 C   0  0  0  0  0  0  0  0  0  0  0  0
   38.4180   33.1020   48.5770 O   0  0  0  0  0  0  0  0  0  0  0  0
   39.2570   34.0350   49.1470 C   0  0  0  0  0  0  0  0  0  0  0  0
   39.7240   35.2050   48.4060 N   0  0  0  0  0  0  0  0  0  0  0  0
   39.6570   33.9230   50.3330 O   0  0  0  0  0  0  0  0  0  0  0  0
   39.6528   31.2864   48.1919 H   0  0  0  0  0  0  0  0  0  0  0  0
   38.0454   30.0970   52.2943 H   0  0  0  0  0  0  0  0  0  0  0  0
   34.1678   28.5778   50.3006 H   0  0  0  0  0  0  0  0  0  0  0  0
   33.1809   28.7656   48.0487 H   0  0  0  0  0  0  0  0  0  0  0  0
   34.4646   30.0746   46.3323 H   0  0  0  0  0  0  0  0  0  0  0  0
   36.6009   31.0980   46.9035 H   0  0  0  0  0  0  0  0  0  0  0  0
   39.8991   33.6018   46.9234 H   0  0  0  0  0  0  0  0  0  0  0  0
   40.8837   33.4794   44.5523 H   0  0  0  0  0  0  0  0  0  0  0  0
   39.8392   29.1945   43.1811 H   0  0  0  0  0  0  0  0  0  0  0  0
   39.2371   28.3651   44.6696 H   0  0  0  0  0  0  0  0  0  0  0  0
   37.0994   30.7217   44.8904 H   0  0  0  0  0  0  0  0  0  0  0  0
   34.7611   30.8230   44.0736 H   0  0  0  0  0  0  0  0  0  0  0  0
   34.0588   29.3535   42.1268 H   0  0  0  0  0  0  0  0  0  0  0  0
   35.7672   27.8931   41.1414 H   0  0  0  0  0  0  0  0  0  0  0  0
   38.0905   27.7476   41.9062 H   0  0  0  0  0  0  0  0  0  0  0  0
   40.3508   35.8852   48.8592 H   0  0  0  0  0  0  0  0  0  0  0  0
   39.4263   35.3494   47.4306 H   0  0  0  0  0  0  0  0  0  0  0  0
  1 25  1  0
  1  2  1  0
  2  3  2  0
  3  4  1  0
  5  4  2  0
  6  5  1  0
  7  6  2  0
  8  7  1  0
  9 10  1  0
  9  8  2  0
 10 11  2  0
 11  2  1  0
 11  6  1  0
 12  1  1  0
 13 12  2  0
 14 13  1  0
 15 16  1  0
 15 14  2  0
 16 17  2  0
 17 12  1  0
 18 16  1  0
 19 18  1  0
 19 20  2  0
 21 20  1  0
 22 21  2  0
 23 24  2  0
 23 22  1  0
 24 19  1  0
 25 26  1  0
 26 28  2  0
 27 26  1  0
  1 29  1  1
  4 30  1  0
  7 31  1  0
  8 32  1  0
  9 33  1  0
 10 34  1  0
 13 35  1  0
 14 36  1  0
 18 37  1  0
 18 38  1  0
 20 39  1  0
 21 40  1  0
 22 41  1  0
 23 42  1  0
 24 43  1  0
 27 44  1  0
 27 45  1  0
M  ISO  8  29   8  30  14  31  14  32  14  33  14  34  14  35  14  36  14
M  ISO  7  37   8  38   8  39  14  40  14  41  14  42  14  43  14
M  END
>  <minimizedAffinity>  (1) 
-7.0106473

>  <minimizedRMSD>  (1) 
0.450841606

$$$$
