
     RDKit          3D

 42 45  0  0  1  0  0  0  0  0999 V2000
   38.7070   31.8000   48.1560 C   0  0  1  0  0  0  0  0  0  0  0  0
   37.8950   31.0550   49.1040 C   0  0  0  0  0  0  0  0  0  0  0  0
   38.3240   30.8790   50.3430 N   0  0  0  0  0  0  0  0  0  0  0  0
   37.6320   30.1820   51.2650 C   0  0  0  0  0  0  0  0  0  0  0  0
   36.4700   29.6160   51.0120 N   0  0  0  0  0  0  0  0  0  0  0  0
   35.9120   29.7150   49.7950 C   0  0  0  0  0  0  0  0  0  0  0  0
   34.7040   29.1460   49.4790 C   0  0  0  0  0  0  0  0  0  0  0  0
   34.1520   29.2590   48.2590 C   0  0  0  0  0  0  0  0  0  0  0  0
   34.8690   29.9830   47.3380 C   0  0  0  0  0  0  0  0  0  0  0  0
   36.0800   30.5480   47.6640 C   0  0  0  0  0  0  0  0  0  0  0  0
   36.6530   30.4420   48.8800 C   0  0  0  0  0  0  0  0  0  0  0  0
   39.0690   31.5780   46.7880 C   0  0  0  0  0  0  0  0  0  0  0  0
   39.8690   32.6510   46.3140 C   0  0  0  0  0  0  0  0  0  0  0  0
   40.4290   32.5740   44.9980 C   0  0  0  0  0  0  0  0  0  0  0  0
   40.1540   31.4860   44.3040 N   0  0  0  0  0  0  0  0  0  0  0  0
   39.3750   30.4640   44.7920 C   0  0  0  0  0  0  0  0  0  0  0  0
   38.8570   30.5280   46.0010 N   0  0  0  0  0  0  0  0  0  0  0  0
   39.0570   29.2470   43.9830 C   0  0  0  0  0  0  0  0  0  0  0  0
   37.6870   29.2590   43.4380 C   0  0  0  0  0  0  0  0  0  0  0  0
   37.1020   28.7390   42.3030 C   0  0  0  0  0  0  0  0  0  0  0  0
   35.7900   29.0650   42.3250 N   0  0  0  0  0  0  0  0  0  0  0  0
   35.5260   29.7840   43.4530 C   0  0  0  0  0  0  0  0  0  0  0  0
   36.6910   29.8890   44.1140 N   0  0  0  0  0  0  0  0  0  0  0  0
   38.4280   33.0970   48.5480 O   0  0  0  0  0  0  0  0  0  0  0  0
   39.2490   34.0370   49.1320 C   0  0  0  0  0  0  0  0  0  0  0  0
   39.7220   35.2080   48.4010 N   0  0  0  0  0  0  0  0  0  0  0  0
   39.6260   33.9270   50.3270 O   0  0  0  0  0  0  0  0  0  0  0  0
   39.6775   31.2836   48.1933 H   0  0  0  0  0  0  0  0  0  0  0  0
   38.0566   30.0810   52.2747 H   0  0  0  0  0  0  0  0  0  0  0  0
   34.1679   28.5766   50.2525 H   0  0  0  0  0  0  0  0  0  0  0  0
   33.1836   28.7991   48.0126 H   0  0  0  0  0  0  0  0  0  0  0  0
   34.4678   30.1133   46.3221 H   0  0  0  0  0  0  0  0  0  0  0  0
   36.6114   31.1190   46.8884 H   0  0  0  0  0  0  0  0  0  0  0  0
   40.0562   33.5296   46.9489 H   0  0  0  0  0  0  0  0  0  0  0  0
   41.0555   33.3796   44.5874 H   0  0  0  0  0  0  0  0  0  0  0  0
   39.7671   29.1878   43.1450 H   0  0  0  0  0  0  0  0  0  0  0  0
   39.1374   28.3773   44.6517 H   0  0  0  0  0  0  0  0  0  0  0  0
   37.6124   28.1611   41.5184 H   0  0  0  0  0  0  0  0  0  0  0  0
   34.5534   30.1958   43.7605 H   0  0  0  0  0  0  0  0  0  0  0  0
   36.8125   30.3802   45.0111 H   0  0  0  0  0  0  0  0  0  0  0  0
   40.3350   35.8926   48.8663 H   0  0  0  0  0  0  0  0  0  0  0  0
   39.4429   35.3500   47.4198 H   0  0  0  0  0  0  0  0  0  0  0  0
  1 24  1  0
  1  2  1  0
  2  3  2  0
  3  4  1  0
  5  4  2  0
  6  5  1  0
  7  6  2  0
  8  7  1  0
  9 10  1  0
  9  8  2  0
 10 11  2  0
 11  2  1  0
 11  6  1  0
 12  1  1  0
 13 12  2  0
 14 13  1  0
 15 16  1  0
 15 14  2  0
 16 17  2  0
 17 12  1  0
 18 16  1  0
 19 18  1  0
 19 23  1  0
 20 21  1  0
 20 19  2  0
 21 22  2  0
 22 23  1  0
 24 25  1  0
 25 27  2  0
 26 25  1  0
  1 28  1  1
  4 29  1  0
  7 30  1  0
  8 31  1  0
  9 32  1  0
 10 33  1  0
 13 34  1  0
 14 35  1  0
 18 36  1  0
 18 37  1  0
 20 38  1  0
 22 39  1  0
 23 40  1  0
 26 41  1  0
 26 42  1  0
M  ISO  8  28   8  29  14  30  14  31  14  32  14  33  14  34  14  35  14
M  ISO  5  36   8  37   8  38  14  39  14  40   9
M  END
>  <minimizedAffinity>  (1) 
-6.82816648

>  <minimizedRMSD>  (1) 
0.379107267

$$$$
