
     RDKit          3D

 42 45  0  0  1  0  0  0  0  0999 V2000
   38.7030   31.7910   48.1400 C   0  0  1  0  0  0  0  0  0  0  0  0
   37.8860   31.0490   49.0860 C   0  0  0  0  0  0  0  0  0  0  0  0
   38.3170   30.8800   50.3300 N   0  0  0  0  0  0  0  0  0  0  0  0
   37.6130   30.1900   51.2490 C   0  0  0  0  0  0  0  0  0  0  0  0
   36.4450   29.6260   50.9960 N   0  0  0  0  0  0  0  0  0  0  0  0
   35.8860   29.7250   49.7660 C   0  0  0  0  0  0  0  0  0  0  0  0
   34.6950   29.1520   49.4820 C   0  0  0  0  0  0  0  0  0  0  0  0
   34.1440   29.2530   48.2410 C   0  0  0  0  0  0  0  0  0  0  0  0
   34.8680   29.9700   47.3050 C   0  0  0  0  0  0  0  0  0  0  0  0
   36.0780   30.5360   47.6420 C   0  0  0  0  0  0  0  0  0  0  0  0
   36.6400   30.4410   48.8630 C   0  0  0  0  0  0  0  0  0  0  0  0
   39.0670   31.5630   46.7740 C   0  0  0  0  0  0  0  0  0  0  0  0
   39.8810   32.6250   46.3030 C   0  0  0  0  0  0  0  0  0  0  0  0
   40.4470   32.5480   44.9860 C   0  0  0  0  0  0  0  0  0  0  0  0
   40.1530   31.4560   44.2950 N   0  0  0  0  0  0  0  0  0  0  0  0
   39.3630   30.4530   44.7790 C   0  0  0  0  0  0  0  0  0  0  0  0
   38.8430   30.5180   45.9870 N   0  0  0  0  0  0  0  0  0  0  0  0
   38.9880   29.2820   43.9450 C   0  0  0  0  0  0  0  0  0  0  0  0
   37.6730   29.6430   43.3890 N   0  0  0  0  0  0  0  0  0  0  0  0
   36.4700   29.4040   43.9030 N   0  0  0  0  0  0  0  0  0  0  0  0
   35.5090   29.8780   43.1180 C   0  0  0  0  0  0  0  0  0  0  0  0
   36.1230   30.4530   42.0370 C   0  0  0  0  0  0  0  0  0  0  0  0
   37.4950   30.3000   42.2180 C   0  0  0  0  0  0  0  0  0  0  0  0
   38.4250   33.0910   48.5310 O   0  0  0  0  0  0  0  0  0  0  0  0
   39.2450   34.0260   49.1190 C   0  0  0  0  0  0  0  0  0  0  0  0
   39.7320   35.1940   48.3890 N   0  0  0  0  0  0  0  0  0  0  0  0
   39.6100   33.9170   50.3180 O   0  0  0  0  0  0  0  0  0  0  0  0
   39.6751   31.2777   48.1801 H   0  0  0  0  0  0  0  0  0  0  0  0
   38.0320   30.0913   52.2613 H   0  0  0  0  0  0  0  0  0  0  0  0
   34.1621   28.5948   50.2666 H   0  0  0  0  0  0  0  0  0  0  0  0
   33.1767   28.7901   47.9961 H   0  0  0  0  0  0  0  0  0  0  0  0
   34.4747   30.0890   46.2846 H   0  0  0  0  0  0  0  0  0  0  0  0
   36.6182   31.0998   46.8672 H   0  0  0  0  0  0  0  0  0  0  0  0
   40.0767   33.4994   46.9410 H   0  0  0  0  0  0  0  0  0  0  0  0
   41.0846   33.3452   44.5762 H   0  0  0  0  0  0  0  0  0  0  0  0
   39.7219   29.1243   43.1409 H   0  0  0  0  0  0  0  0  0  0  0  0
   38.9600   28.3453   44.5210 H   0  0  0  0  0  0  0  0  0  0  0  0
   34.4259   29.8198   43.3012 H   0  0  0  0  0  0  0  0  0  0  0  0
   35.6261   30.9430   41.1867 H   0  0  0  0  0  0  0  0  0  0  0  0
   38.2862   30.6476   41.5374 H   0  0  0  0  0  0  0  0  0  0  0  0
   40.3449   35.8759   48.8583 H   0  0  0  0  0  0  0  0  0  0  0  0
   39.4625   35.3356   47.4050 H   0  0  0  0  0  0  0  0  0  0  0  0
  1 24  1  0
  1  2  1  0
  2  3  2  0
  3  4  1  0
  5  4  2  0
  6  5  1  0
  7  6  2  0
  8  7  1  0
  9 10  1  0
  9  8  2  0
 10 11  2  0
 11  2  1  0
 11  6  1  0
 12  1  1  0
 13 12  2  0
 14 13  1  0
 15 16  1  0
 15 14  2  0
 16 17  2  0
 17 12  1  0
 18 16  1  0
 19 20  1  0
 19 18  1  0
 21 20  2  0
 22 23  2  0
 22 21  1  0
 23 19  1  0
 24 25  1  0
 25 27  2  0
 26 25  1  0
  1 28  1  1
  4 29  1  0
  7 30  1  0
  8 31  1  0
  9 32  1  0
 10 33  1  0
 13 34  1  0
 14 35  1  0
 18 36  1  0
 18 37  1  0
 21 38  1  0
 22 39  1  0
 23 40  1  0
 26 41  1  0
 26 42  1  0
M  ISO  8  28   8  29  14  30  14  31  14  32  14  33  14  34  14  35  14
M  ISO  5  36   8  37   8  38  14  39  14  40  14
M  END
>  <minimizedAffinity>  (1) 
-6.80099726

>  <minimizedRMSD>  (1) 
0.273114055

$$$$
