
     RDKit          3D

 42 45  0  0  1  0  0  0  0  0999 V2000
   38.6690   31.8100   48.1510 C   0  0  1  0  0  0  0  0  0  0  0  0
   37.8700   31.0560   49.1140 C   0  0  0  0  0  0  0  0  0  0  0  0
   38.3060   30.8820   50.3540 N   0  0  0  0  0  0  0  0  0  0  0  0
   37.6160   30.1930   51.2800 C   0  0  0  0  0  0  0  0  0  0  0  0
   36.4420   29.6290   51.0360 N   0  0  0  0  0  0  0  0  0  0  0  0
   35.8810   29.7290   49.8190 C   0  0  0  0  0  0  0  0  0  0  0  0
   34.6870   29.1460   49.5210 C   0  0  0  0  0  0  0  0  0  0  0  0
   34.1380   29.2340   48.2780 C   0  0  0  0  0  0  0  0  0  0  0  0
   34.8580   29.9510   47.3400 C   0  0  0  0  0  0  0  0  0  0  0  0
   36.0620   30.5290   47.6780 C   0  0  0  0  0  0  0  0  0  0  0  0
   36.6240   30.4470   48.9020 C   0  0  0  0  0  0  0  0  0  0  0  0
   39.0170   31.5660   46.7870 C   0  0  0  0  0  0  0  0  0  0  0  0
   39.8420   32.6110   46.3120 C   0  0  0  0  0  0  0  0  0  0  0  0
   40.4650   32.5170   45.0300 C   0  0  0  0  0  0  0  0  0  0  0  0
   40.2010   31.4190   44.3700 N   0  0  0  0  0  0  0  0  0  0  0  0
   39.3890   30.4140   44.8390 C   0  0  0  0  0  0  0  0  0  0  0  0
   38.8200   30.4990   46.0210 N   0  0  0  0  0  0  0  0  0  0  0  0
   39.0090   29.2450   44.0010 C   0  0  0  0  0  0  0  0  0  0  0  0
   37.7760   29.7010   43.2190 C   0  0  0  0  0  0  0  0  0  0  0  0
   36.4250   29.3220   43.6460 C   0  0  0  0  0  0  0  0  0  0  0  0
   37.0260   28.6220   42.4510 C   0  0  0  0  0  0  0  0  0  0  0  0
   38.3980   33.1020   48.5540 O   0  0  0  0  0  0  0  0  0  0  0  0
   39.2410   34.0280   49.1310 C   0  0  0  0  0  0  0  0  0  0  0  0
   39.7360   35.1910   48.3890 N   0  0  0  0  0  0  0  0  0  0  0  0
   39.6300   33.9260   50.3230 O   0  0  0  0  0  0  0  0  0  0  0  0
   39.6534   31.3191   48.1580 H   0  0  0  0  0  0  0  0  0  0  0  0
   38.0464   30.0929   52.2874 H   0  0  0  0  0  0  0  0  0  0  0  0
   34.1521   28.5895   50.3047 H   0  0  0  0  0  0  0  0  0  0  0  0
   33.1754   28.7611   48.0336 H   0  0  0  0  0  0  0  0  0  0  0  0
   34.4670   30.0605   46.3177 H   0  0  0  0  0  0  0  0  0  0  0  0
   36.5990   31.0929   46.9011 H   0  0  0  0  0  0  0  0  0  0  0  0
   40.0055   33.5032   46.9343 H   0  0  0  0  0  0  0  0  0  0  0  0
   41.1166   33.3072   44.6287 H   0  0  0  0  0  0  0  0  0  0  0  0
   39.8262   28.9802   43.3139 H   0  0  0  0  0  0  0  0  0  0  0  0
   38.8051   28.3508   44.6083 H   0  0  0  0  0  0  0  0  0  0  0  0
   38.2419   30.6710   42.9907 H   0  0  0  0  0  0  0  0  0  0  0  0
   36.2846   28.7711   44.5877 H   0  0  0  0  0  0  0  0  0  0  0  0
   35.4911   29.8754   43.8236 H   0  0  0  0  0  0  0  0  0  0  0  0
   36.6446   28.8233   41.4391 H   0  0  0  0  0  0  0  0  0  0  0  0
   37.2200   27.5787   42.1615 H   0  0  0  0  0  0  0  0  0  0  0  0
   40.3648   35.8653   48.8481 H   0  0  0  0  0  0  0  0  0  0  0  0
   39.4550   35.3340   47.4084 H   0  0  0  0  0  0  0  0  0  0  0  0
  1 22  1  0
  1  2  1  0
  2  3  2  0
  3  4  1  0
  5  4  2  0
  6  5  1  0
  7  6  2  0
  8  7  1  0
  9 10  1  0
  9  8  2  0
 10 11  2  0
 11  2  1  0
 11  6  1  0
 12  1  1  0
 13 12  2  0
 14 13  1  0
 15 16  1  0
 15 14  2  0
 16 17  2  0
 17 12  1  0
 18 16  1  0
 19 20  1  0
 19 18  1  0
 21 19  1  0
 21 20  1  0
 22 23  1  0
 23 25  2  0
 24 23  1  0
  1 26  1  1
  4 27  1  0
  7 28  1  0
  8 29  1  0
  9 30  1  0
 10 31  1  0
 13 32  1  0
 14 33  1  0
 18 34  1  0
 18 35  1  0
 19 36  1  0
 20 37  1  0
 20 38  1  0
 21 39  1  0
 21 40  1  0
 24 41  1  0
 24 42  1  0
M  ISO  8  26   8  27  14  28  14  29  14  30  14  31  14  32  14  33  14
M  ISO  7  34   8  35   8  36  13  37  13  38  13  39  13  40  13
M  END
>  <minimizedAffinity>  (1) 
-6.77699232

>  <minimizedRMSD>  (1) 
0.575301528

$$$$
