
     RDKit          3D

 40 43  0  0  1  0  0  0  0  0999 V2000
   38.5910   31.6670   47.8290 C   0  0  1  0  0  0  0  0  0  0  0  0
   37.8340   30.8050   48.7360 C   0  0  0  0  0  0  0  0  0  0  0  0
   38.3240   30.4970   49.9300 N   0  0  0  0  0  0  0  0  0  0  0  0
   37.6730   29.7030   50.7990 C   0  0  0  0  0  0  0  0  0  0  0  0
   36.4950   29.1610   50.5450 N   0  0  0  0  0  0  0  0  0  0  0  0
   35.8860   29.3920   49.3750 C   0  0  0  0  0  0  0  0  0  0  0  0
   34.6820   28.8320   49.0620 C   0  0  0  0  0  0  0  0  0  0  0  0
   34.0780   29.0530   47.8550 C   0  0  0  0  0  0  0  0  0  0  0  0
   34.7560   29.8770   46.9770 C   0  0  0  0  0  0  0  0  0  0  0  0
   35.9700   30.4250   47.3270 C   0  0  0  0  0  0  0  0  0  0  0  0
   36.5840   30.2130   48.5100 C   0  0  0  0  0  0  0  0  0  0  0  0
   38.9200   31.5540   46.4420 C   0  0  0  0  0  0  0  0  0  0  0  0
   40.1500   32.2030   46.1920 C   0  0  0  0  0  0  0  0  0  0  0  0
   40.7840   32.0850   44.9160 C   0  0  0  0  0  0  0  0  0  0  0  0
   40.1370   31.3560   44.0480 N   0  0  0  0  0  0  0  0  0  0  0  0
   38.9350   30.7360   44.2990 C   0  0  0  0  0  0  0  0  0  0  0  0
   38.3550   30.8430   45.4740 N   0  0  0  0  0  0  0  0  0  0  0  0
   38.1700   30.0150   43.2420 C   0  0  0  0  0  0  0  0  0  0  0  0
   38.8540   28.7640   42.8280 C   0  0  0  0  0  0  0  0  0  0  0  0
   39.8230   28.6640   41.8970 N   0  0  0  0  0  0  0  0  0  0  0  0
   40.1960   27.4260   41.7880 O   0  0  0  0  0  0  0  0  0  0  0  0
   39.4970   26.6990   42.6250 C   0  0  0  0  0  0  0  0  0  0  0  0
   38.6460   27.5180   43.2910 N   0  0  0  0  0  0  0  0  0  0  0  0
   38.2880   32.9080   48.3480 O   0  0  0  0  0  0  0  0  0  0  0  0
   39.1130   33.8090   48.9890 C   0  0  0  0  0  0  0  0  0  0  0  0
   39.7790   34.8920   48.2630 N   0  0  0  0  0  0  0  0  0  0  0  0
   39.3340   33.7490   50.2260 O   0  0  0  0  0  0  0  0  0  0  0  0
   39.5905   31.2107   47.7765 H   0  0  0  0  0  0  0  0  0  0  0  0
   38.1452   29.4943   51.7703 H   0  0  0  0  0  0  0  0  0  0  0  0
   34.1839   28.1858   49.7998 H   0  0  0  0  0  0  0  0  0  0  0  0
   33.1086   28.6010   47.5980 H   0  0  0  0  0  0  0  0  0  0  0  0
   34.3224   30.0971   45.9903 H   0  0  0  0  0  0  0  0  0  0  0  0
   36.4709   31.0768   46.5961 H   0  0  0  0  0  0  0  0  0  0  0  0
   40.6226   32.8026   46.9839 H   0  0  0  0  0  0  0  0  0  0  0  0
   41.7430   32.5711   44.6837 H   0  0  0  0  0  0  0  0  0  0  0  0
   37.1725   29.7640   43.6320 H   0  0  0  0  0  0  0  0  0  0  0  0
   38.0949   30.6725   42.3633 H   0  0  0  0  0  0  0  0  0  0  0  0
   39.5855   25.6113   42.7634 H   0  0  0  0  0  0  0  0  0  0  0  0
   40.3898   35.5506   48.7671 H   0  0  0  0  0  0  0  0  0  0  0  0
   39.6368   34.9953   47.2481 H   0  0  0  0  0  0  0  0  0  0  0  0
  1 24  1  0
  1  2  1  0
  2  3  2  0
  3  4  1  0
  5  4  2  0
  6  5  1  0
  7  6  2  0
  8  7  1  0
  9 10  1  0
  9  8  2  0
 10 11  2  0
 11  2  1  0
 11  6  1  0
 12  1  1  0
 13 12  2  0
 14 13  1  0
 15 16  1  0
 15 14  2  0
 16 17  2  0
 17 12  1  0
 18 16  1  0
 19 18  1  0
 19 23  1  0
 20 19  2  0
 21 20  1  0
 21 22  1  0
 22 23  2  0
 24 25  1  0
 25 27  2  0
 26 25  1  0
  1 28  1  1
  4 29  1  0
  7 30  1  0
  8 31  1  0
  9 32  1  0
 10 33  1  0
 13 34  1  0
 14 35  1  0
 18 36  1  0
 18 37  1  0
 22 38  1  0
 26 39  1  0
 26 40  1  0
M  ISO  8  28   8  29  14  30  14  31  14  32  14  33  14  34  14  35  14
M  ISO  3  36   8  37   8  38  14
M  END
>  <minimizedAffinity>  (1) 
-6.67695141

>  <minimizedRMSD>  (1) 
1.11221135

$$$$
