
     RDKit          3D

 42 45  0  0  1  0  0  0  0  0999 V2000
   38.5500   31.3910   47.6660 C   0  0  1  0  0  0  0  0  0  0  0  0
   37.7670   30.5930   48.6080 C   0  0  0  0  0  0  0  0  0  0  0  0
   38.2790   30.2600   49.7850 N   0  0  0  0  0  0  0  0  0  0  0  0
   37.6060   29.5230   50.6870 C   0  0  0  0  0  0  0  0  0  0  0  0
   36.3790   29.0680   50.4820 N   0  0  0  0  0  0  0  0  0  0  0  0
   35.7380   29.3340   49.3250 C   0  0  0  0  0  0  0  0  0  0  0  0
   34.4900   28.8650   49.0740 C   0  0  0  0  0  0  0  0  0  0  0  0
   33.8590   29.1230   47.8940 C   0  0  0  0  0  0  0  0  0  0  0  0
   34.5620   29.8880   46.9750 C   0  0  0  0  0  0  0  0  0  0  0  0
   35.8260   30.3430   47.2740 C   0  0  0  0  0  0  0  0  0  0  0  0
   36.4680   30.0940   48.4340 C   0  0  0  0  0  0  0  0  0  0  0  0
   38.9100   31.1870   46.2980 C   0  0  0  0  0  0  0  0  0  0  0  0
   40.2360   31.6250   46.0860 C   0  0  0  0  0  0  0  0  0  0  0  0
   40.8930   31.3710   44.8420 C   0  0  0  0  0  0  0  0  0  0  0  0
   40.1730   30.7260   43.9620 N   0  0  0  0  0  0  0  0  0  0  0  0
   38.8770   30.3120   44.1770 C   0  0  0  0  0  0  0  0  0  0  0  0
   38.2770   30.5440   45.3230 N   0  0  0  0  0  0  0  0  0  0  0  0
   38.0600   29.6960   43.1010 C   0  0  0  0  0  0  0  0  0  0  0  0
   38.5980   28.4440   42.6240 N   0  0  0  0  0  0  0  0  0  0  0  0
   38.9070   27.2900   43.1980 C   0  0  0  0  0  0  0  0  0  0  0  0
   39.4030   26.3770   42.2920 C   0  0  0  0  0  0  0  0  0  0  0  0
   39.3790   27.0450   41.1180 N   0  0  0  0  0  0  0  0  0  0  0  0
   38.9020   28.2740   41.3070 C   0  0  0  0  0  0  0  0  0  0  0  0
   38.2370   32.6660   48.0930 O   0  0  0  0  0  0  0  0  0  0  0  0
   39.0270   33.5790   48.7580 C   0  0  0  0  0  0  0  0  0  0  0  0
   39.8400   34.5660   48.0420 N   0  0  0  0  0  0  0  0  0  0  0  0
   39.0920   33.6150   50.0140 O   0  0  0  0  0  0  0  0  0  0  0  0
   39.5492   30.9311   47.6729 H   0  0  0  0  0  0  0  0  0  0  0  0
   38.0988   29.2866   51.6416 H   0  0  0  0  0  0  0  0  0  0  0  0
   33.9767   28.2639   49.8390 H   0  0  0  0  0  0  0  0  0  0  0  0
   32.8478   28.7454   47.6820 H   0  0  0  0  0  0  0  0  0  0  0  0
   34.1075   30.1320   46.0035 H   0  0  0  0  0  0  0  0  0  0  0  0
   36.3466   30.9491   46.5179 H   0  0  0  0  0  0  0  0  0  0  0  0
   40.7668   32.1653   46.8837 H   0  0  0  0  0  0  0  0  0  0  0  0
   41.9252   31.6936   44.6407 H   0  0  0  0  0  0  0  0  0  0  0  0
   37.0474   29.5154   43.4909 H   0  0  0  0  0  0  0  0  0  0  0  0
   38.0574   30.3952   42.2518 H   0  0  0  0  0  0  0  0  0  0  0  0
   38.7823   27.0848   44.2715 H   0  0  0  0  0  0  0  0  0  0  0  0
   39.7393   25.3468   42.4806 H   0  0  0  0  0  0  0  0  0  0  0  0
   38.7735   29.0336   40.5218 H   0  0  0  0  0  0  0  0  0  0  0  0
   40.4199   35.2349   48.5685 H   0  0  0  0  0  0  0  0  0  0  0  0
   39.8315   34.5908   47.0123 H   0  0  0  0  0  0  0  0  0  0  0  0
  1 24  1  0
  1  2  1  0
  2  3  2  0
  3  4  1  0
  5  4  2  0
  6  5  1  0
  7  6  2  0
  8  7  1  0
  9 10  1  0
  9  8  2  0
 10 11  2  0
 11  2  1  0
 11  6  1  0
 12  1  1  0
 13 12  2  0
 14 13  1  0
 15 16  1  0
 15 14  2  0
 16 17  2  0
 17 12  1  0
 18 16  1  0
 19 18  1  0
 19 20  1  0
 21 20  2  0
 22 23  2  0
 22 21  1  0
 23 19  1  0
 24 25  1  0
 25 27  2  0
 26 25  1  0
  1 28  1  1
  4 29  1  0
  7 30  1  0
  8 31  1  0
  9 32  1  0
 10 33  1  0
 13 34  1  0
 14 35  1  0
 18 36  1  0
 18 37  1  0
 20 38  1  0
 21 39  1  0
 23 40  1  0
 26 41  1  0
 26 42  1  0
M  ISO  8  28   8  29  14  30  14  31  14  32  14  33  14  34  14  35  14
M  ISO  5  36   8  37   8  38  14  39  14  40  14
M  END
>  <minimizedAffinity>  (1) 
-6.5240593

>  <minimizedRMSD>  (1) 
1.35023797

$$$$
