
     RDKit          3D

 42 45  0  0  0  0  0  0  0  0999 V2000
   35.5300   29.3930   49.2290 C   0  0  0  0  0  0  0  0  0  0  0  0
   35.5960   29.1430   50.6110 C   0  0  0  0  0  0  0  0  0  0  0  0
   36.5250   29.6750   51.4520 C   0  0  0  0  0  0  0  0  0  0  0  0
   37.4830   30.5200   50.9520 C   0  0  0  0  0  0  0  0  0  0  0  0
   37.4810   30.8070   49.6230 C   0  0  0  0  0  0  0  0  0  0  0  0
   38.4660   31.6630   49.1640 C   0  0  0  0  0  0  0  0  0  0  0  0
   38.5260   31.9970   47.8360 C   0  0  0  0  0  0  0  0  0  0  0  0
   37.5750   31.4480   46.9960 C   0  0  0  0  0  0  0  0  0  0  0  0
   36.6210   30.6050   47.5010 C   0  0  0  0  0  0  0  0  0  0  0  0
   36.5240   30.2470   48.8060 C   0  0  0  0  0  0  0  0  0  0  0  0
   33.5960   26.7320   47.8020 C   0  0  0  0  0  0  0  0  0  0  0  0
   32.7160   27.2780   46.8800 C   0  0  0  0  0  0  0  0  0  0  0  0
   32.7950   28.6520   46.7430 C   0  0  0  0  0  0  0  0  0  0  0  0
   33.6830   29.3300   47.4820 N   0  0  0  0  0  0  0  0  0  0  0  0
   34.5290   28.8100   48.3660 C   0  0  0  0  0  0  0  0  0  0  0  0
   34.4350   27.5030   48.4800 N   0  0  0  0  0  0  0  0  0  0  0  0
   31.9710   29.4760   45.8320 C   0  0  0  0  0  0  0  0  0  0  0  0
   30.5120   29.4420   46.1340 C   0  0  0  0  0  0  0  0  0  0  0  0
   29.7560   30.1700   45.0750 C   0  0  0  0  0  0  0  0  0  0  0  0
   30.3110   31.4970   44.6820 C   0  0  0  0  0  0  0  0  0  0  0  0
   31.8010   31.5960   44.6780 C   0  0  0  0  0  0  0  0  0  0  0  0
   32.4000   30.9460   45.9070 C   0  0  0  0  0  0  0  0  0  0  0  0
   34.8425   28.4687   51.0441 H   0  0  0  0  0  0  0  0  0  0  0  0
   36.5076   29.4292   52.5240 H   0  0  0  0  0  0  0  0  0  0  0  0
   38.2417   30.9590   51.6166 H   0  0  0  0  0  0  0  0  0  0  0  0
   39.2036   32.0770   49.8672 H   0  0  0  0  0  0  0  0  0  0  0  0
   39.3017   32.6764   47.4529 H   0  0  0  0  0  0  0  0  0  0  0  0
   37.5846   31.6881   45.9226 H   0  0  0  0  0  0  0  0  0  0  0  0
   35.8822   30.1894   46.7999 H   0  0  0  0  0  0  0  0  0  0  0  0
   33.5981   25.6454   47.9731 H   0  0  0  0  0  0  0  0  0  0  0  0
   32.0090   26.6651   46.3016 H   0  0  0  0  0  0  0  0  0  0  0  0
   32.1343   29.0406   44.8351 H   0  0  0  0  0  0  0  0  0  0  0  0
   30.1718   28.3966   46.1713 H   0  0  0  0  0  0  0  0  0  0  0  0
   30.3323   29.9271   47.1048 H   0  0  0  0  0  0  0  0  0  0  0  0
   29.7332   29.5339   44.1779 H   0  0  0  0  0  0  0  0  0  0  0  0
   28.7629   30.3743   45.5017 H   0  0  0  0  0  0  0  0  0  0  0  0
   29.9536   31.7266   43.6674 H   0  0  0  0  0  0  0  0  0  0  0  0
   29.9636   32.2076   45.4464 H   0  0  0  0  0  0  0  0  0  0  0  0
   32.1909   31.0929   43.7808 H   0  0  0  0  0  0  0  0  0  0  0  0
   32.0777   32.6606   44.6792 H   0  0  0  0  0  0  0  0  0  0  0  0
   32.0091   31.4160   46.8215 H   0  0  0  0  0  0  0  0  0  0  0  0
   33.4942   31.0545   45.9382 H   0  0  0  0  0  0  0  0  0  0  0  0
  1  2  2  0
  2  3  1  0
  4  3  2  0
  5  4  1  0
  6  5  2  0
  7  6  1  0
  8  9  1  0
  8  7  2  0
  9 10  2  0
 10  1  1  0
 10  5  1  0
 11 16  2  0
 12 11  1  0
 13 12  2  0
 13 14  1  0
 14 15  2  0
 15 16  1  0
 15  1  1  0
 17 22  1  0
 17 18  1  0
 17 13  1  0
 19 18  1  0
 20 19  1  0
 21 20  1  0
 21 22  1  0
  2 23  1  0
  3 24  1  0
  4 25  1  0
  6 26  1  0
  7 27  1  0
  8 28  1  0
  9 29  1  0
 11 30  1  0
 12 31  1  0
 17 32  1  0
 18 33  1  0
 18 34  1  0
 19 35  1  0
 19 36  1  0
 20 37  1  0
 20 38  1  0
 21 39  1  0
 21 40  1  0
 22 41  1  0
 22 42  1  0
M  ISO  8  23  14  24  14  25  14  26  14  27  14  28  14  29  14  30  14
M  ISO  8  31  14  32  13  33  13  34  13  35  13  36  13  37  13  38  13
M  ISO  4  39  13  40  13  41  13  42  13
M  END
>  <minimizedAffinity>  (1) 
-6.9030962

>  <minimizedRMSD>  (1) 
0.57546258

$$$$
