
     RDKit          3D

 34 37  0  0  0  0  0  0  0  0999 V2000
   35.5740   29.5220   49.3350 C   0  0  0  0  0  0  0  0  0  0  0  0
   35.6240   29.1780   50.7020 C   0  0  0  0  0  0  0  0  0  0  0  0
   36.5640   29.6120   51.5890 C   0  0  0  0  0  0  0  0  0  0  0  0
   37.5600   30.4600   51.1490 C   0  0  0  0  0  0  0  0  0  0  0  0
   37.5780   30.8370   49.8430 C   0  0  0  0  0  0  0  0  0  0  0  0
   38.5920   31.6800   49.4590 C   0  0  0  0  0  0  0  0  0  0  0  0
   38.6760   32.1010   48.1620 C   0  0  0  0  0  0  0  0  0  0  0  0
   37.7100   31.6520   47.2600 C   0  0  0  0  0  0  0  0  0  0  0  0
   36.7220   30.8080   47.7150 C   0  0  0  0  0  0  0  0  0  0  0  0
   36.6020   30.3650   48.9910 C   0  0  0  0  0  0  0  0  0  0  0  0
   33.6390   27.0270   47.6430 C   0  0  0  0  0  0  0  0  0  0  0  0
   32.7390   27.6790   46.8180 C   0  0  0  0  0  0  0  0  0  0  0  0
   32.7990   29.0560   46.8440 C   0  0  0  0  0  0  0  0  0  0  0  0
   33.6980   29.6190   47.6420 N   0  0  0  0  0  0  0  0  0  0  0  0
   34.5640   29.0390   48.4350 C   0  0  0  0  0  0  0  0  0  0  0  0
   34.4930   27.7050   48.3980 N   0  0  0  0  0  0  0  0  0  0  0  0
   31.9130   29.8790   46.0280 C   0  0  0  0  0  0  0  0  0  0  0  0
   30.6530   29.4200   45.7110 C   0  0  0  0  0  0  0  0  0  0  0  0
   29.8950   30.2730   44.9370 C   0  0  0  0  0  0  0  0  0  0  0  0
   30.2890   31.4850   44.4840 N   0  0  0  0  0  0  0  0  0  0  0  0
   31.5410   31.8800   44.8310 C   0  0  0  0  0  0  0  0  0  0  0  0
   32.3280   31.0900   45.5840 N   0  0  0  0  0  0  0  0  0  0  0  0
   34.8415   28.5054   51.0831 H   0  0  0  0  0  0  0  0  0  0  0  0
   36.5291   29.2908   52.6405 H   0  0  0  0  0  0  0  0  0  0  0  0
   38.3288   30.8258   51.8455 H   0  0  0  0  0  0  0  0  0  0  0  0
   39.3365   32.0162   50.1957 H   0  0  0  0  0  0  0  0  0  0  0  0
   39.4825   32.7751   47.8376 H   0  0  0  0  0  0  0  0  0  0  0  0
   37.7376   31.9663   46.2062 H   0  0  0  0  0  0  0  0  0  0  0  0
   35.9716   30.4665   46.9868 H   0  0  0  0  0  0  0  0  0  0  0  0
   33.6461   25.9274   47.6730 H   0  0  0  0  0  0  0  0  0  0  0  0
   32.0236   27.1348   46.1839 H   0  0  0  0  0  0  0  0  0  0  0  0
   30.2787   28.4431   46.0510 H   0  0  0  0  0  0  0  0  0  0  0  0
   28.8829   29.9391   44.6645 H   0  0  0  0  0  0  0  0  0  0  0  0
   31.9162   32.8571   44.4926 H   0  0  0  0  0  0  0  0  0  0  0  0
  1  2  2  0
  2  3  1  0
  4  3  2  0
  5  4  1  0
  6  5  2  0
  7  6  1  0
  8  9  1  0
  8  7  2  0
  9 10  2  0
 10  1  1  0
 10  5  1  0
 11 16  2  0
 12 13  2  0
 12 11  1  0
 13 14  1  0
 14 15  2  0
 15  1  1  0
 16 15  1  0
 17 13  1  0
 18 17  2  0
 19 18  1  0
 20 21  1  0
 20 19  2  0
 21 22  2  0
 22 17  1  0
  2 23  1  0
  3 24  1  0
  4 25  1  0
  6 26  1  0
  7 27  1  0
  8 28  1  0
  9 29  1  0
 11 30  1  0
 12 31  1  0
 18 32  1  0
 19 33  1  0
 21 34  1  0
M  ISO  8  23  14  24  14  25  14  26  14  27  14  28  14  29  14  30  14
M  ISO  4  31  14  32  14  33  14  34  14
M  END
>  <minimizedAffinity>  (1) 
-6.76774502

>  <minimizedRMSD>  (1) 
0.44489342

$$$$
