
     RDKit          3D

 39 42  0  0  0  0  0  0  0  0999 V2000
   35.5900   29.5210   49.1690 C   0  0  0  0  0  0  0  0  0  0  0  0
   35.5380   29.1330   50.5110 C   0  0  0  0  0  0  0  0  0  0  0  0
   36.3980   29.5570   51.4800 C   0  0  0  0  0  0  0  0  0  0  0  0
   37.4030   30.4300   51.1540 C   0  0  0  0  0  0  0  0  0  0  0  0
   37.5160   30.8510   49.8670 C   0  0  0  0  0  0  0  0  0  0  0  0
   38.5410   31.7310   49.5780 C   0  0  0  0  0  0  0  0  0  0  0  0
   38.7200   32.1990   48.3120 C   0  0  0  0  0  0  0  0  0  0  0  0
   37.8350   31.7590   47.3300 C   0  0  0  0  0  0  0  0  0  0  0  0
   36.8360   30.8870   47.6690 C   0  0  0  0  0  0  0  0  0  0  0  0
   36.6250   30.3990   48.9140 C   0  0  0  0  0  0  0  0  0  0  0  0
   33.6010   27.0660   47.4640 C   0  0  0  0  0  0  0  0  0  0  0  0
   32.9220   27.6990   46.4290 C   0  0  0  0  0  0  0  0  0  0  0  0
   33.1700   29.0700   46.3120 C   0  0  0  0  0  0  0  0  0  0  0  0
   34.0090   29.6490   47.1730 N   0  0  0  0  0  0  0  0  0  0  0  0
   34.6580   29.0520   48.1620 C   0  0  0  0  0  0  0  0  0  0  0  0
   34.4110   27.7420   48.2580 N   0  0  0  0  0  0  0  0  0  0  0  0
   32.5650   29.8570   45.3220 N   0  0  0  0  0  0  0  0  0  0  0  0
   32.4660   29.4080   43.9300 C   0  0  0  0  0  0  0  0  0  0  0  0
   33.3140   30.3950   43.1200 C   0  0  0  0  0  0  0  0  0  0  0  0
   33.2510   31.6750   43.6290 O   0  0  0  0  0  0  0  0  0  0  0  0
   32.0360   31.9290   44.2820 C   0  0  0  0  0  0  0  0  0  0  0  0
   32.0030   31.1640   45.6110 C   0  0  0  0  0  0  0  0  0  0  0  0
   34.7432   28.4327   50.8074 H   0  0  0  0  0  0  0  0  0  0  0  0
   36.2863   29.2014   52.5149 H   0  0  0  0  0  0  0  0  0  0  0  0
   38.1067   30.7841   51.9217 H   0  0  0  0  0  0  0  0  0  0  0  0
   39.2200   32.0572   50.3796 H   0  0  0  0  0  0  0  0  0  0  0  0
   39.5340   32.8992   48.0731 H   0  0  0  0  0  0  0  0  0  0  0  0
   37.9382   32.1090   46.2923 H   0  0  0  0  0  0  0  0  0  0  0  0
   36.1541   30.5584   46.8708 H   0  0  0  0  0  0  0  0  0  0  0  0
   33.4614   25.9866   47.6237 H   0  0  0  0  0  0  0  0  0  0  0  0
   32.2408   27.1615   45.7529 H   0  0  0  0  0  0  0  0  0  0  0  0
   32.8611   28.3866   43.8265 H   0  0  0  0  0  0  0  0  0  0  0  0
   31.4228   29.3849   43.5819 H   0  0  0  0  0  0  0  0  0  0  0  0
   32.9486   30.4078   42.0825 H   0  0  0  0  0  0  0  0  0  0  0  0
   34.3612   30.0621   43.1712 H   0  0  0  0  0  0  0  0  0  0  0  0
   31.9424   33.0076   44.4768 H   0  0  0  0  0  0  0  0  0  0  0  0
   31.2010   31.5986   43.6467 H   0  0  0  0  0  0  0  0  0  0  0  0
   30.9687   31.0661   45.9723 H   0  0  0  0  0  0  0  0  0  0  0  0
   32.5693   31.6865   46.3961 H   0  0  0  0  0  0  0  0  0  0  0  0
  1  2  2  0
  2  3  1  0
  4  3  2  0
  5  4  1  0
  6  5  2  0
  7  6  1  0
  8  9  1  0
  8  7  2  0
  9 10  2  0
 10  1  1  0
 10  5  1  0
 11 16  2  0
 12 11  1  0
 13 12  2  0
 13 14  1  0
 14 15  2  0
 15 16  1  0
 15  1  1  0
 17 22  1  0
 17 13  1  0
 18 17  1  0
 19 20  1  0
 19 18  1  0
 20 21  1  0
 21 22  1  0
  2 23  1  0
  3 24  1  0
  4 25  1  0
  6 26  1  0
  7 27  1  0
  8 28  1  0
  9 29  1  0
 11 30  1  0
 12 31  1  0
 18 32  1  0
 18 33  1  0
 19 34  1  0
 19 35  1  0
 21 36  1  0
 21 37  1  0
 22 38  1  0
 22 39  1  0
M  ISO  8  23  14  24  14  25  14  26  14  27  14  28  14  29  14  30  14
M  ISO  8  31  14  32  13  33  13  34  13  35  13  36  13  37  13  38  13
M  ISO  1  39  13
M  END
>  <minimizedAffinity>  (1) 
-6.68626547

>  <minimizedRMSD>  (1) 
0.489682376

$$$$
