
     RDKit          3D

 32 35  0  0  0  0  0  0  0  0999 V2000
   35.6210   29.5110   49.4350 C   0  0  0  0  0  0  0  0  0  0  0  0
   35.6730   29.1640   50.7900 C   0  0  0  0  0  0  0  0  0  0  0  0
   36.6150   29.6160   51.6740 C   0  0  0  0  0  0  0  0  0  0  0  0
   37.5880   30.4640   51.2440 C   0  0  0  0  0  0  0  0  0  0  0  0
   37.6050   30.8470   49.9410 C   0  0  0  0  0  0  0  0  0  0  0  0
   38.6070   31.7090   49.5470 C   0  0  0  0  0  0  0  0  0  0  0  0
   38.6860   32.1350   48.2560 C   0  0  0  0  0  0  0  0  0  0  0  0
   37.7220   31.6730   47.3500 C   0  0  0  0  0  0  0  0  0  0  0  0
   36.7460   30.8160   47.8020 C   0  0  0  0  0  0  0  0  0  0  0  0
   36.6340   30.3710   49.0750 C   0  0  0  0  0  0  0  0  0  0  0  0
   33.6180   26.9810   47.8640 C   0  0  0  0  0  0  0  0  0  0  0  0
   32.7750   27.6190   46.9470 C   0  0  0  0  0  0  0  0  0  0  0  0
   32.9120   28.9890   46.8740 C   0  0  0  0  0  0  0  0  0  0  0  0
   33.8090   29.5940   47.6570 N   0  0  0  0  0  0  0  0  0  0  0  0
   34.6090   29.0170   48.5240 C   0  0  0  0  0  0  0  0  0  0  0  0
   34.4690   27.6880   48.5860 N   0  0  0  0  0  0  0  0  0  0  0  0
   32.1380   29.7720   46.0020 N   0  0  0  0  0  0  0  0  0  0  0  0
   31.1290   29.4300   45.1850 C   0  0  0  0  0  0  0  0  0  0  0  0
   30.6850   30.5390   44.5310 N   0  0  0  0  0  0  0  0  0  0  0  0
   31.4430   31.5800   44.9620 C   0  0  0  0  0  0  0  0  0  0  0  0
   32.3260   31.0920   45.8620 N   0  0  0  0  0  0  0  0  0  0  0  0
   34.9016   28.4790   51.1717 H   0  0  0  0  0  0  0  0  0  0  0  0
   36.5855   29.2955   52.7259 H   0  0  0  0  0  0  0  0  0  0  0  0
   38.3518   30.8350   51.9432 H   0  0  0  0  0  0  0  0  0  0  0  0
   39.3486   32.0553   50.2819 H   0  0  0  0  0  0  0  0  0  0  0  0
   39.4829   32.8214   47.9339 H   0  0  0  0  0  0  0  0  0  0  0  0
   37.7455   31.9899   46.2969 H   0  0  0  0  0  0  0  0  0  0  0  0
   35.9999   30.4657   47.0735 H   0  0  0  0  0  0  0  0  0  0  0  0
   33.5719   25.8885   47.9839 H   0  0  0  0  0  0  0  0  0  0  0  0
   32.0534   27.0660   46.3277 H   0  0  0  0  0  0  0  0  0  0  0  0
   30.7247   28.4143   45.0631 H   0  0  0  0  0  0  0  0  0  0  0  0
   31.3548   32.6276   44.6384 H   0  0  0  0  0  0  0  0  0  0  0  0
  1  2  2  0
  2  3  1  0
  4  3  2  0
  5  4  1  0
  6  5  2  0
  7  6  1  0
  8  9  1  0
  8  7  2  0
  9 10  2  0
 10  1  1  0
 10  5  1  0
 11 16  2  0
 12 11  1  0
 13 12  2  0
 13 14  1  0
 14 15  2  0
 15 16  1  0
 15  1  1  0
 17 13  1  0
 18 17  1  0
 19 20  1  0
 19 18  2  0
 20 21  2  0
 21 17  1  0
  2 22  1  0
  3 23  1  0
  4 24  1  0
  6 25  1  0
  7 26  1  0
  8 27  1  0
  9 28  1  0
 11 29  1  0
 12 30  1  0
 18 31  1  0
 20 32  1  0
M  ISO  8  22  14  23  14  24  14  25  14  26  14  27  14  28  14  29  14
M  ISO  3  30  14  31  14  32  14
M  END
>  <minimizedAffinity>  (1) 
-6.66394424

>  <minimizedRMSD>  (1) 
0.372907519

$$$$
