
     RDKit          3D

 32 35  0  0  0  0  0  0  0  0999 V2000
   35.5460   29.5500   49.2840 C   0  0  0  0  0  0  0  0  0  0  0  0
   35.5650   29.1720   50.6430 C   0  0  0  0  0  0  0  0  0  0  0  0
   36.5060   29.5830   51.5480 C   0  0  0  0  0  0  0  0  0  0  0  0
   37.5080   30.4130   51.1530 C   0  0  0  0  0  0  0  0  0  0  0  0
   37.5590   30.8290   49.8400 C   0  0  0  0  0  0  0  0  0  0  0  0
   38.5900   31.6660   49.4900 C   0  0  0  0  0  0  0  0  0  0  0  0
   38.7010   32.1130   48.2100 C   0  0  0  0  0  0  0  0  0  0  0  0
   37.7410   31.6930   47.2900 C   0  0  0  0  0  0  0  0  0  0  0  0
   36.7390   30.8600   47.7000 C   0  0  0  0  0  0  0  0  0  0  0  0
   36.5910   30.3900   48.9630 C   0  0  0  0  0  0  0  0  0  0  0  0
   33.6280   27.1220   47.4880 C   0  0  0  0  0  0  0  0  0  0  0  0
   32.7370   27.7880   46.6660 C   0  0  0  0  0  0  0  0  0  0  0  0
   32.7990   29.1700   46.7320 C   0  0  0  0  0  0  0  0  0  0  0  0
   33.6970   29.7090   47.5670 N   0  0  0  0  0  0  0  0  0  0  0  0
   34.5470   29.1010   48.3530 C   0  0  0  0  0  0  0  0  0  0  0  0
   34.4640   27.7820   48.2680 N   0  0  0  0  0  0  0  0  0  0  0  0
   31.9170   30.0370   45.9180 C   0  0  0  0  0  0  0  0  0  0  0  0
   30.6400   29.5840   45.5600 C   0  0  0  0  0  0  0  0  0  0  0  0
   29.9520   30.9680   44.5870 S   0  0  0  0  0  0  0  0  0  0  0  0
   31.5560   31.9590   44.8350 C   0  0  0  0  0  0  0  0  0  0  0  0
   32.1670   31.2470   45.4520 N   0  0  0  0  0  0  0  0  0  0  0  0
   34.7694   28.5013   50.9996 H   0  0  0  0  0  0  0  0  0  0  0  0
   36.4518   29.2426   52.5926 H   0  0  0  0  0  0  0  0  0  0  0  0
   38.2690   30.7485   51.8729 H   0  0  0  0  0  0  0  0  0  0  0  0
   39.3270   31.9754   50.2457 H   0  0  0  0  0  0  0  0  0  0  0  0
   39.5204   32.7831   47.9108 H   0  0  0  0  0  0  0  0  0  0  0  0
   37.7901   32.0293   46.2438 H   0  0  0  0  0  0  0  0  0  0  0  0
   35.9975   30.5475   46.9500 H   0  0  0  0  0  0  0  0  0  0  0  0
   33.6403   26.0221   47.4919 H   0  0  0  0  0  0  0  0  0  0  0  0
   32.0313   27.2591   46.0085 H   0  0  0  0  0  0  0  0  0  0  0  0
   30.1649   28.6230   45.8065 H   0  0  0  0  0  0  0  0  0  0  0  0
   31.8163   32.9637   44.4705 H   0  0  0  0  0  0  0  0  0  0  0  0
  1  2  2  0
  2  3  1  0
  4  3  2  0
  5  4  1  0
  6  5  2  0
  7  6  1  0
  8  9  1  0
  8  7  2  0
  9 10  2  0
 10  1  1  0
 10  5  1  0
 11 16  2  0
 12 13  2  0
 12 11  1  0
 13 14  1  0
 14 15  2  0
 15  1  1  0
 16 15  1  0
 17 13  1  0
 18 17  2  0
 19 20  1  0
 19 18  1  0
 20 21  2  0
 21 17  1  0
  2 22  1  0
  3 23  1  0
  4 24  1  0
  6 25  1  0
  7 26  1  0
  8 27  1  0
  9 28  1  0
 11 29  1  0
 12 30  1  0
 18 31  1  0
 20 32  1  0
M  ISO  8  22  14  23  14  24  14  25  14  26  14  27  14  28  14  29  14
M  ISO  3  30  14  31  14  32  14
M  END
>  <minimizedAffinity>  (1) 
-6.65287685

>  <minimizedRMSD>  (1) 
0.770358205

$$$$
