
     RDKit          3D

 29 31  0  0  0  0  0  0  0  0999 V2000
   35.5440   29.5650   49.2750 C   0  0  0  0  0  0  0  0  0  0  0  0
   35.5560   29.1750   50.6270 C   0  0  0  0  0  0  0  0  0  0  0  0
   36.4900   29.5720   51.5420 C   0  0  0  0  0  0  0  0  0  0  0  0
   37.5010   30.4050   51.1600 C   0  0  0  0  0  0  0  0  0  0  0  0
   37.5530   30.8240   49.8690 C   0  0  0  0  0  0  0  0  0  0  0  0
   38.5940   31.6660   49.5420 C   0  0  0  0  0  0  0  0  0  0  0  0
   38.7150   32.1350   48.2560 C   0  0  0  0  0  0  0  0  0  0  0  0
   37.7670   31.7360   47.3170 C   0  0  0  0  0  0  0  0  0  0  0  0
   36.7520   30.8910   47.7180 C   0  0  0  0  0  0  0  0  0  0  0  0
   36.5910   30.4030   48.9720 C   0  0  0  0  0  0  0  0  0  0  0  0
   33.6520   27.1300   47.4420 C   0  0  0  0  0  0  0  0  0  0  0  0
   32.7700   27.8320   46.6070 C   0  0  0  0  0  0  0  0  0  0  0  0
   32.8370   29.2070   46.6880 C   0  0  0  0  0  0  0  0  0  0  0  0
   33.7140   29.7680   47.5320 N   0  0  0  0  0  0  0  0  0  0  0  0
   34.5460   29.1340   48.3190 C   0  0  0  0  0  0  0  0  0  0  0  0
   34.4710   27.8060   48.2300 N   0  0  0  0  0  0  0  0  0  0  0  0
   31.9700   30.0560   45.8710 C   0  0  0  0  0  0  0  0  0  0  0  0
   32.2950   31.3970   46.1190 F   0  0  0  0  0  0  0  0  0  0  0  0
   30.6350   29.9440   46.2280 F   0  0  0  0  0  0  0  0  0  0  0  0
   32.0930   29.7730   44.5400 F   0  0  0  0  0  0  0  0  0  0  0  0
   34.7566   28.5027   50.9718 H   0  0  0  0  0  0  0  0  0  0  0  0
   36.4271   29.2214   52.5827 H   0  0  0  0  0  0  0  0  0  0  0  0
   38.2609   30.7316   51.8852 H   0  0  0  0  0  0  0  0  0  0  0  0
   39.3258   31.9617   50.3082 H   0  0  0  0  0  0  0  0  0  0  0  0
   39.5389   32.8078   47.9756 H   0  0  0  0  0  0  0  0  0  0  0  0
   37.8260   32.0874   46.2763 H   0  0  0  0  0  0  0  0  0  0  0  0
   36.0149   30.5896   46.9591 H   0  0  0  0  0  0  0  0  0  0  0  0
   33.6622   26.0300   47.4413 H   0  0  0  0  0  0  0  0  0  0  0  0
   32.0701   27.3187   45.9312 H   0  0  0  0  0  0  0  0  0  0  0  0
  1  2  2  0
  2  3  1  0
  4  3  2  0
  5  4  1  0
  6  5  2  0
  7  6  1  0
  8  9  1  0
  8  7  2  0
  9 10  2  0
 10  1  1  0
 10  5  1  0
 11 16  2  0
 12 13  2  0
 12 11  1  0
 13 14  1  0
 14 15  2  0
 15  1  1  0
 16 15  1  0
 17 18  1  0
 17 19  1  0
 17 13  1  0
 20 17  1  0
  2 21  1  0
  3 22  1  0
  4 23  1  0
  6 24  1  0
  7 25  1  0
  8 26  1  0
  9 27  1  0
 11 28  1  0
 12 29  1  0
M  ISO  8  21  14  22  14  23  14  24  14  25  14  26  14  27  14  28  14
M  ISO  1  29  14
M  END
>  <minimizedAffinity>  (1) 
-6.58090401

>  <minimizedRMSD>  (1) 
0.314856231

$$$$
