
     RDKit          3D

 29 31  0  0  0  0  0  0  0  0999 V2000
   35.5230   29.6340   49.1960 C   0  0  0  0  0  0  0  0  0  0  0  0
   35.4460   29.1690   50.5150 C   0  0  0  0  0  0  0  0  0  0  0  0
   36.3380   29.4950   51.5070 C   0  0  0  0  0  0  0  0  0  0  0  0
   37.3900   30.3300   51.2310 C   0  0  0  0  0  0  0  0  0  0  0  0
   37.5190   30.8150   49.9690 C   0  0  0  0  0  0  0  0  0  0  0  0
   38.5910   31.6550   49.7490 C   0  0  0  0  0  0  0  0  0  0  0  0
   38.7890   32.1950   48.5000 C   0  0  0  0  0  0  0  0  0  0  0  0
   37.8860   31.8670   47.4900 C   0  0  0  0  0  0  0  0  0  0  0  0
   36.8410   31.0210   47.7910 C   0  0  0  0  0  0  0  0  0  0  0  0
   36.5980   30.4560   49.0160 C   0  0  0  0  0  0  0  0  0  0  0  0
   33.6350   27.3800   47.1370 C   0  0  0  0  0  0  0  0  0  0  0  0
   32.8420   28.1360   46.2900 C   0  0  0  0  0  0  0  0  0  0  0  0
   32.9680   29.4990   46.4410 C   0  0  0  0  0  0  0  0  0  0  0  0
   33.8160   29.9960   47.3590 N   0  0  0  0  0  0  0  0  0  0  0  0
   34.5710   29.2770   48.1650 C   0  0  0  0  0  0  0  0  0  0  0  0
   34.4430   27.9580   48.0120 N   0  0  0  0  0  0  0  0  0  0  0  0
   32.1980   30.4270   45.6220 C   0  0  0  0  0  0  0  0  0  0  0  0
   31.3800   29.9520   44.7720 O   0  0  0  0  0  0  0  0  0  0  0  0
   32.3420   31.7880   45.7530 O   0  0  0  0  0  0  0  0  0  0  0  0
   34.6145   28.4970   50.7739 H   0  0  0  0  0  0  0  0  0  0  0  0
   36.2088   29.0873   52.5204 H   0  0  0  0  0  0  0  0  0  0  0  0
   38.1133   30.6010   52.0142 H   0  0  0  0  0  0  0  0  0  0  0  0
   39.2845   31.8918   50.5693 H   0  0  0  0  0  0  0  0  0  0  0  0
   39.6369   32.8675   48.3032 H   0  0  0  0  0  0  0  0  0  0  0  0
   38.0051   32.2745   46.4752 H   0  0  0  0  0  0  0  0  0  0  0  0
   36.1411   30.7780   46.9779 H   0  0  0  0  0  0  0  0  0  0  0  0
   33.5929   26.2822   47.0819 H   0  0  0  0  0  0  0  0  0  0  0  0
   32.1632   27.6824   45.5528 H   0  0  0  0  0  0  0  0  0  0  0  0
   31.8083   32.3991   45.1858 H   0  0  0  0  0  0  0  0  0  0  0  0
  1  2  2  0
  2  3  1  0
  4  3  2  0
  5  4  1  0
  6  5  2  0
  7  6  1  0
  8  9  1  0
  8  7  2  0
  9 10  2  0
 10  1  1  0
 10  5  1  0
 11 16  2  0
 12 13  2  0
 12 11  1  0
 13 14  1  0
 14 15  2  0
 15  1  1  0
 16 15  1  0
 17 19  1  0
 17 13  1  0
 18 17  2  0
  2 20  1  0
  3 21  1  0
  4 22  1  0
  6 23  1  0
  7 24  1  0
  8 25  1  0
  9 26  1  0
 11 27  1  0
 12 28  1  0
 19 29  1  0
M  ISO  8  20  14  21  14  22  14  23  14  24  14  25  14  26  14  27  14
M  ISO  2  28  14  29   3
M  END
>  <minimizedAffinity>  (1) 
-6.53688478

>  <minimizedRMSD>  (1) 
0.337299973

$$$$
