
     RDKit          3D

 26 28  0  0  0  0  0  0  0  0999 V2000
   37.4470   30.2990   49.6050 C   0  0  0  0  0  0  0  0  0  0  0  0
   38.1280   31.3400   50.2590 C   0  0  0  0  0  0  0  0  0  0  0  0
   38.6310   32.3900   49.4710 C   0  0  0  0  0  0  0  0  0  0  0  0
   38.4280   32.3300   48.1350 N   0  0  0  0  0  0  0  0  0  0  0  0
   37.7670   31.3100   47.5440 C   0  0  0  0  0  0  0  0  0  0  0  0
   37.2790   30.3010   48.2690 N   0  0  0  0  0  0  0  0  0  0  0  0
   37.6020   31.3340   46.1290 N   0  0  0  0  0  0  0  0  0  0  0  0
   36.7000   30.6610   45.3930 C   0  0  0  0  0  0  0  0  0  0  0  0
   36.8810   30.9640   44.0790 N   0  0  0  0  0  0  0  0  0  0  0  0
   37.8960   31.8330   43.9550 C   0  0  0  0  0  0  0  0  0  0  0  0
   38.5480   32.5000   42.9160 C   0  0  0  0  0  0  0  0  0  0  0  0
   39.5590   33.3140   43.2220 N   0  0  0  0  0  0  0  0  0  0  0  0
   40.0070   33.5460   44.4700 C   0  0  0  0  0  0  0  0  0  0  0  0
   39.3600   32.8900   45.4440 N   0  0  0  0  0  0  0  0  0  0  0  0
   38.3270   32.0450   45.2450 C   0  0  0  0  0  0  0  0  0  0  0  0
   36.9080   29.1780   50.4390 C   0  0  0  0  0  0  0  0  0  0  0  0
   35.9760   28.4650   49.7220 F   0  0  0  0  0  0  0  0  0  0  0  0
   37.9570   28.4230   50.8740 F   0  0  0  0  0  0  0  0  0  0  0  0
   36.2510   29.7410   51.5210 F   0  0  0  0  0  0  0  0  0  0  0  0
   38.0830   32.2610   41.5930 N   0  0  0  0  0  0  0  0  0  0  0  0
   38.2629   31.3334   51.3507 H   0  0  0  0  0  0  0  0  0  0  0  0
   39.1720   33.2328   49.9260 H   0  0  0  0  0  0  0  0  0  0  0  0
   35.9374   29.9749   45.7900 H   0  0  0  0  0  0  0  0  0  0  0  0
   40.8460   34.2268   44.6765 H   0  0  0  0  0  0  0  0  0  0  0  0
   37.2949   31.6175   41.4325 H   0  0  0  0  0  0  0  0  0  0  0  0
   38.5344   32.7314   40.7956 H   0  0  0  0  0  0  0  0  0  0  0  0
  1  2  2  0
  1 16  1  0
  3  2  1  0
  4  3  2  0
  5  4  1  0
  5  6  2  0
  6  1  1  0
  7  5  1  0
  8  7  1  0
  9  8  2  0
 10  9  1  0
 10 15  2  0
 11 12  2  0
 11 10  1  0
 12 13  1  0
 13 14  2  0
 15 14  1  0
 15  7  1  0
 16 18  1  0
 16 19  1  0
 17 16  1  0
 20 11  1  0
  2 21  1  0
  3 22  1  0
  8 23  1  0
 13 24  1  0
 20 25  1  0
 20 26  1  0
M  ISO  4  21  14  22  14  23  14  24  14
M  END
>  <minimizedAffinity>  (1) 
-6.50987196

>  <minimizedRMSD>  (1) 
2.03044581

$$$$
