
     RDKit          3D

 35 37  0  0  1  0  0  0  0  0999 V2000
   37.7520   30.0950   50.4880 C   0  0  0  0  0  0  0  0  0  0  0  0
   38.4380   31.2980   50.2130 C   0  0  0  0  0  0  0  0  0  0  0  0
   38.0550   32.0180   49.0800 C   0  0  0  0  0  0  0  0  0  0  0  0
   37.0460   31.5080   48.3210 N   0  0  0  0  0  0  0  0  0  0  0  0
   36.4080   30.3700   48.5960 C   0  0  0  0  0  0  0  0  0  0  0  0
   36.7670   29.6780   49.6710 N   0  0  0  0  0  0  0  0  0  0  0  0
   35.3650   29.9040   47.7540 N   0  0  0  0  0  0  0  0  0  0  0  0
   35.4060   30.0880   46.4220 C   0  0  0  0  0  0  0  0  0  0  0  0
   34.4190   29.6530   45.5760 C   0  0  0  0  0  0  0  0  0  0  0  0
   33.3780   29.0100   46.2040 C   0  0  0  0  0  0  0  0  0  0  0  0
   32.4130   28.5690   45.5090 O   0  0  0  0  0  0  0  0  0  0  0  0
   33.2760   28.7960   47.5200 N   0  0  0  0  0  0  0  0  0  0  0  0
   34.2940   29.2570   48.2830 C   0  0  0  0  0  0  0  0  0  0  0  0
   34.2380   29.0770   49.5220 O   0  0  0  0  0  0  0  0  0  0  0  0
   30.8810   28.6110   47.8420 N   0  0  0  0  0  0  0  0  0  0  0  0
   29.9940   27.4840   47.7430 C   0  0  0  0  0  0  0  0  0  0  0  0
   30.7470   26.3140   48.3940 C   0  0  0  0  0  0  0  0  0  0  0  0
   32.1490   26.6220   47.8720 C   0  0  0  0  0  0  0  0  0  0  0  0
   32.1850   28.1250   48.1480 C   0  0  1  0  0  0  0  0  0  0  0  0
   34.4160   29.8290   44.1090 C   0  0  0  0  0  0  0  0  0  0  0  0
   38.0229   29.4978   51.3711 H   0  0  0  0  0  0  0  0  0  0  0  0
   39.2459   31.6554   50.8685 H   0  0  0  0  0  0  0  0  0  0  0  0
   38.5501   32.9625   48.8103 H   0  0  0  0  0  0  0  0  0  0  0  0
   36.2721   30.6121   45.9916 H   0  0  0  0  0  0  0  0  0  0  0  0
   30.5600   29.2429   48.5894 H   0  0  0  0  0  0  0  0  0  0  0  0
   29.0555   27.6845   48.2806 H   0  0  0  0  0  0  0  0  0  0  0  0
   29.7238   27.2665   46.6991 H   0  0  0  0  0  0  0  0  0  0  0  0
   30.6973   26.3500   49.4923 H   0  0  0  0  0  0  0  0  0  0  0  0
   30.3617   25.3108   48.1594 H   0  0  0  0  0  0  0  0  0  0  0  0
   32.2480   26.3975   46.7997 H   0  0  0  0  0  0  0  0  0  0  0  0
   32.9617   26.0385   48.3292 H   0  0  0  0  0  0  0  0  0  0  0  0
   32.4047   28.3421   49.2037 H   0  0  0  0  0  0  0  0  0  0  0  0
   34.3977   30.9022   43.8685 H   0  0  0  0  0  0  0  0  0  0  0  0
   35.3220   29.3732   43.6832 H   0  0  0  0  0  0  0  0  0  0  0  0
   33.5260   29.3426   43.6832 H   0  0  0  0  0  0  0  0  0  0  0  0
  2  1  2  0
  3  2  1  0
  4  5  1  0
  4  3  2  0
  5  6  2  0
  6  1  1  0
  7 13  1  0
  7  5  1  0
  8  7  1  0
  9 10  1  0
  9  8  2  0
 10 12  1  0
 11 10  2  0
 12 13  1  0
 13 14  2  0
 15 19  1  0
 16 15  1  0
 16 17  1  0
 18 19  1  0
 18 17  1  0
 19 12  1  0
 20  9  1  0
  1 21  1  0
  2 22  1  0
  3 23  1  0
  8 24  1  0
 15 25  1  0
 16 26  1  0
 16 27  1  0
 17 28  1  0
 17 29  1  0
 18 30  1  0
 18 31  1  0
 19 32  1  1
 20 33  1  0
 20 34  1  0
 20 35  1  0
M  ISO  8  21  14  22  14  23  14  24  14  25   5  26  13  27  13  28  13
M  ISO  7  29  13  30  13  31  13  32  13  33   8  34   8  35   8
M  END
>  <minimizedAffinity>  (1) 
-5.26612663

>  <minimizedRMSD>  (1) 
2.18974781

$$$$
