
     RDKit          3D

 23 24  0  0  0  0  0  0  0  0999 V2000
   36.9090   31.2350   49.0450 C   0  0  0  0  0  0  0  0  0  0  0  0
   37.2050   32.3120   49.8860 C   0  0  0  0  0  0  0  0  0  0  0  0
   38.1940   33.2060   49.4910 C   0  0  0  0  0  0  0  0  0  0  0  0
   38.8210   32.9830   48.3040 N   0  0  0  0  0  0  0  0  0  0  0  0
   38.5090   31.9250   47.5110 C   0  0  0  0  0  0  0  0  0  0  0  0
   37.5590   31.0710   47.8960 N   0  0  0  0  0  0  0  0  0  0  0  0
   39.1620   31.6860   46.2690 N   0  0  0  0  0  0  0  0  0  0  0  0
   38.8250   30.4750   45.7420 C   0  0  0  0  0  0  0  0  0  0  0  0
   39.3410   30.0330   44.5400 C   0  0  0  0  0  0  0  0  0  0  0  0
   40.2270   30.8770   43.8770 C   0  0  0  0  0  0  0  0  0  0  0  0
   40.7260   30.5190   42.7720 O   0  0  0  0  0  0  0  0  0  0  0  0
   40.5320   32.0600   44.4300 N   0  0  0  0  0  0  0  0  0  0  0  0
   40.0160   32.4710   45.6040 C   0  0  0  0  0  0  0  0  0  0  0  0
   40.2620   33.5650   46.1720 O   0  0  0  0  0  0  0  0  0  0  0  0
   35.8350   30.2540   49.4610 C   0  0  0  0  0  0  0  0  0  0  0  0
   34.5990   30.8570   49.3810 F   0  0  0  0  0  0  0  0  0  0  0  0
   35.9840   29.1290   48.7150 F   0  0  0  0  0  0  0  0  0  0  0  0
   36.0720   29.9600   50.8120 F   0  0  0  0  0  0  0  0  0  0  0  0
   36.6687   32.4487   50.8366 H   0  0  0  0  0  0  0  0  0  0  0  0
   38.4617   34.0681   50.1195 H   0  0  0  0  0  0  0  0  0  0  0  0
   38.1215   29.8311   46.2902 H   0  0  0  0  0  0  0  0  0  0  0  0
   39.0631   29.0536   44.1234 H   0  0  0  0  0  0  0  0  0  0  0  0
   41.1888   32.6807   43.9358 H   0  0  0  0  0  0  0  0  0  0  0  0
  1 15  1  0
  1  2  2  0
  3  2  1  0
  4  3  2  0
  5  6  2  0
  5  4  1  0
  6  1  1  0
  7  5  1  0
  8  7  1  0
  9  8  2  0
 10 12  1  0
 10  9  1  0
 11 10  2  0
 12 13  1  0
 13 14  2  0
 13  7  1  0
 15 18  1  0
 16 15  1  0
 17 15  1  0
  2 19  1  0
  3 20  1  0
  8 21  1  0
  9 22  1  0
 12 23  1  0
M  ISO  5  19  14  20  14  21  14  22  14  23   9
M  END
>  <minimizedAffinity>  (1) 
-6.45387793

>  <minimizedRMSD>  (1) 
3.6665833

$$$$
