
     RDKit          3D

 24 25  0  0  0  0  0  0  0  0999 V2000
   36.9180   31.2280   49.0580 C   0  0  0  0  0  0  0  0  0  0  0  0
   37.2310   32.3250   49.8830 C   0  0  0  0  0  0  0  0  0  0  0  0
   38.2300   33.2090   49.4450 C   0  0  0  0  0  0  0  0  0  0  0  0
   38.8370   32.9530   48.2520 N   0  0  0  0  0  0  0  0  0  0  0  0
   38.5040   31.8870   47.4920 C   0  0  0  0  0  0  0  0  0  0  0  0
   37.5580   31.0350   47.8900 N   0  0  0  0  0  0  0  0  0  0  0  0
   39.1270   31.6040   46.2430 N   0  0  0  0  0  0  0  0  0  0  0  0
   38.8010   30.4100   45.7130 C   0  0  0  0  0  0  0  0  0  0  0  0
   39.3210   29.9710   44.4910 C   0  0  0  0  0  0  0  0  0  0  0  0
   40.1880   30.8150   43.8470 C   0  0  0  0  0  0  0  0  0  0  0  0
   40.7480   30.4330   42.6110 N   0  0  0  0  0  0  0  0  0  0  0  0
   40.4830   31.9820   44.4020 N   0  0  0  0  0  0  0  0  0  0  0  0
   39.9930   32.4170   45.5720 C   0  0  0  0  0  0  0  0  0  0  0  0
   40.2470   33.5100   46.1290 O   0  0  0  0  0  0  0  0  0  0  0  0
   35.8510   30.2710   49.5100 C   0  0  0  0  0  0  0  0  0  0  0  0
   34.6250   30.8810   49.4370 F   0  0  0  0  0  0  0  0  0  0  0  0
   35.9680   29.1360   48.7730 F   0  0  0  0  0  0  0  0  0  0  0  0
   36.1020   30.0020   50.8530 F   0  0  0  0  0  0  0  0  0  0  0  0
   36.7103   32.4842   50.8388 H   0  0  0  0  0  0  0  0  0  0  0  0
   38.5148   34.0838   50.0480 H   0  0  0  0  0  0  0  0  0  0  0  0
   38.1028   29.7584   46.2589 H   0  0  0  0  0  0  0  0  0  0  0  0
   39.0469   28.9939   44.0666 H   0  0  0  0  0  0  0  0  0  0  0  0
   40.5064   29.5219   42.1958 H   0  0  0  0  0  0  0  0  0  0  0  0
   41.3987   31.0650   42.1231 H   0  0  0  0  0  0  0  0  0  0  0  0
  1 15  1  0
  1  2  2  0
  3  2  1  0
  4  3  2  0
  5  6  2  0
  5  4  1  0
  6  1  1  0
  7  5  1  0
  8  7  1  0
  9  8  2  0
 10 12  2  0
 10  9  1  0
 11 10  1  0
 12 13  1  0
 13 14  2  0
 13  7  1  0
 15 18  1  0
 16 15  1  0
 17 15  1  0
  2 19  1  0
  3 20  1  0
  8 21  1  0
  9 22  1  0
 11 23  1  0
 11 24  1  0
M  ISO  4  19  14  20  14  21  14  22  14
M  END
>  <minimizedAffinity>  (1) 
-6.42155361

>  <minimizedRMSD>  (1) 
3.62764549

$$$$
