
     RDKit          3D

 27 29  0  0  0  0  0  0  0  0999 V2000
   37.3880   30.2490   50.1160 C   0  0  0  0  0  0  0  0  0  0  0  0
   38.3040   31.2860   50.1040 C   0  0  0  0  0  0  0  0  0  0  0  0
   38.4270   32.0250   48.9300 C   0  0  0  0  0  0  0  0  0  0  0  0
   37.6580   31.6970   47.8800 N   0  0  0  0  0  0  0  0  0  0  0  0
   36.7710   30.6860   47.9010 C   0  0  0  0  0  0  0  0  0  0  0  0
   36.6800   30.0070   49.0290 N   0  0  0  0  0  0  0  0  0  0  0  0
   35.8480   30.1780   46.8750 C   0  0  0  0  0  0  0  0  0  0  0  0
   36.0000   30.4090   45.5410 N   0  0  0  0  0  0  0  0  0  0  0  0
   35.1950   29.9680   44.5920 C   0  0  0  0  0  0  0  0  0  0  0  0
   34.1140   29.2230   44.9120 N   0  0  0  0  0  0  0  0  0  0  0  0
   33.8470   28.9200   46.2020 C   0  0  0  0  0  0  0  0  0  0  0  0
   32.7460   28.1580   46.5280 C   0  0  0  0  0  0  0  0  0  0  0  0
   32.4690   27.8450   47.8410 C   0  0  0  0  0  0  0  0  0  0  0  0
   33.3440   28.3290   48.8090 C   0  0  0  0  0  0  0  0  0  0  0  0
   34.4280   29.0840   48.4220 C   0  0  0  0  0  0  0  0  0  0  0  0
   34.7340   29.4160   47.1250 C   0  0  0  0  0  0  0  0  0  0  0  0
   37.2190   29.4210   51.3630 C   0  0  0  0  0  0  0  0  0  0  0  0
   35.8700   29.1630   51.5860 F   0  0  0  0  0  0  0  0  0  0  0  0
   37.9590   28.2900   51.2380 F   0  0  0  0  0  0  0  0  0  0  0  0
   37.6730   30.2050   52.4230 F   0  0  0  0  0  0  0  0  0  0  0  0
   38.9132   31.5184   50.9899 H   0  0  0  0  0  0  0  0  0  0  0  0
   39.1397   32.8603   48.8646 H   0  0  0  0  0  0  0  0  0  0  0  0
   35.4046   30.2074   43.5390 H   0  0  0  0  0  0  0  0  0  0  0  0
   32.0805   27.7954   45.7307 H   0  0  0  0  0  0  0  0  0  0  0  0
   31.5929   27.2379   48.1127 H   0  0  0  0  0  0  0  0  0  0  0  0
   33.1710   28.1103   49.8731 H   0  0  0  0  0  0  0  0  0  0  0  0
   35.1006   29.4494   49.2120 H   0  0  0  0  0  0  0  0  0  0  0  0
  1 17  1  0
  2  1  2  0
  3  2  1  0
  4  5  1  0
  4  3  2  0
  5  6  2  0
  6  1  1  0
  7 16  1  0
  7  5  1  0
  8  7  2  0
  9 10  2  0
  9  8  1  0
 10 11  1  0
 11 12  1  0
 11 16  2  0
 12 13  2  0
 13 14  1  0
 15 14  2  0
 16 15  1  0
 17 18  1  0
 17 20  1  0
 19 17  1  0
  2 21  1  0
  3 22  1  0
  9 23  1  0
 12 24  1  0
 13 25  1  0
 14 26  1  0
 15 27  1  0
M  ISO  7  21  14  22  14  23  14  24  14  25  14  26  14  27  14
M  END
>  <minimizedAffinity>  (1) 
-6.16505146

>  <minimizedRMSD>  (1) 
0.312853038

$$$$
