
     RDKit          3D

 26 27  0  0  0  0  0  0  0  0999 V2000
   37.2080   30.5970   49.2950 C   0  0  0  0  0  0  0  0  0  0  0  0
   37.2420   31.7710   50.0600 C   0  0  0  0  0  0  0  0  0  0  0  0
   37.8180   32.9100   49.4920 C   0  0  0  0  0  0  0  0  0  0  0  0
   38.3130   32.8110   48.2200 N   0  0  0  0  0  0  0  0  0  0  0  0
   38.2590   31.6560   47.5160 C   0  0  0  0  0  0  0  0  0  0  0  0
   37.7130   30.5660   48.0510 N   0  0  0  0  0  0  0  0  0  0  0  0
   38.8090   31.6800   46.2020 N   0  0  0  0  0  0  0  0  0  0  0  0
   40.0830   31.0600   45.9460 C   0  0  0  0  0  0  0  0  0  0  0  0
   40.8550   32.0600   45.0740 C   0  0  0  0  0  0  0  0  0  0  0  0
   40.1330   32.0320   43.7440 C   0  0  0  0  0  0  0  0  0  0  0  0
   38.7870   32.6440   43.9200 C   0  0  0  0  0  0  0  0  0  0  0  0
   38.0700   32.3230   45.1750 C   0  0  0  0  0  0  0  0  0  0  0  0
   36.5910   29.3590   49.8980 C   0  0  0  0  0  0  0  0  0  0  0  0
   35.9350   28.6410   48.9060 F   0  0  0  0  0  0  0  0  0  0  0  0
   37.5780   28.6650   50.5330 F   0  0  0  0  0  0  0  0  0  0  0  0
   35.6220   29.7800   50.7930 F   0  0  0  0  0  0  0  0  0  0  0  0
   36.8270   31.7948   51.0784 H   0  0  0  0  0  0  0  0  0  0  0  0
   37.8720   33.8566   50.0497 H   0  0  0  0  0  0  0  0  0  0  0  0
   40.6189   30.8780   46.8892 H   0  0  0  0  0  0  0  0  0  0  0  0
   39.9710   30.0851   45.4490 H   0  0  0  0  0  0  0  0  0  0  0  0
   40.8219   33.0675   45.5142 H   0  0  0  0  0  0  0  0  0  0  0  0
   41.9198   31.8007   44.9796 H   0  0  0  0  0  0  0  0  0  0  0  0
   40.0252   30.9918   43.4029 H   0  0  0  0  0  0  0  0  0  0  0  0
   40.7065   32.5959   42.9936 H   0  0  0  0  0  0  0  0  0  0  0  0
   38.3473   33.3017   43.1558 H   0  0  0  0  0  0  0  0  0  0  0  0
   37.0068   32.5729   45.3062 H   0  0  0  0  0  0  0  0  0  0  0  0
  1 13  1  0
  1  2  2  0
  3  2  1  0
  4  3  2  0
  5  6  2  0
  5  4  1  0
  6  1  1  0
  7  5  1  0
  8  7  1  0
  9  8  1  0
 10 11  1  0
 10  9  1  0
 11 12  2  0
 12  7  1  0
 13 15  1  0
 13 16  1  0
 14 13  1  0
  2 17  1  0
  3 18  1  0
  8 19  1  0
  8 20  1  0
  9 21  1  0
  9 22  1  0
 10 23  1  0
 10 24  1  0
 11 25  1  0
 12 26  1  0
M  ISO  8  17  14  18  14  19  13  20  13  21  13  22  13  23  13  24  13
M  ISO  2  25  13  26  13
M  END
>  <minimizedAffinity>  (1) 
-6.12035799

>  <minimizedRMSD>  (1) 
2.83323145

$$$$
