
     RDKit          3D

 27 29  0  0  0  0  0  0  0  0999 V2000
   37.5590   30.4680   49.8910 C   0  0  0  0  0  0  0  0  0  0  0  0
   38.1120   31.6830   50.3160 C   0  0  0  0  0  0  0  0  0  0  0  0
   38.5280   32.5910   49.3510 C   0  0  0  0  0  0  0  0  0  0  0  0
   38.3750   32.2450   48.0350 N   0  0  0  0  0  0  0  0  0  0  0  0
   37.8380   31.0640   47.6590 C   0  0  0  0  0  0  0  0  0  0  0  0
   37.4370   30.1930   48.5960 N   0  0  0  0  0  0  0  0  0  0  0  0
   37.7150   30.7850   46.2320 C   0  0  0  0  0  0  0  0  0  0  0  0
   36.5260   30.4480   45.6170 C   0  0  0  0  0  0  0  0  0  0  0  0
   36.7810   30.2640   44.3190 N   0  0  0  0  0  0  0  0  0  0  0  0
   38.0900   30.4690   44.0770 C   0  0  0  0  0  0  0  0  0  0  0  0
   38.7890   30.3900   42.8900 C   0  0  0  0  0  0  0  0  0  0  0  0
   40.1490   30.6600   42.9550 C   0  0  0  0  0  0  0  0  0  0  0  0
   40.7840   30.9950   44.1440 C   0  0  0  0  0  0  0  0  0  0  0  0
   40.0620   31.0700   45.3350 C   0  0  0  0  0  0  0  0  0  0  0  0
   38.7160   30.8050   45.2820 C   0  0  0  0  0  0  0  0  0  0  0  0
   37.1010   29.4720   50.9310 C   0  0  0  0  0  0  0  0  0  0  0  0
   35.7520   29.2030   50.7550 F   0  0  0  0  0  0  0  0  0  0  0  0
   37.9080   28.3890   50.8640 F   0  0  0  0  0  0  0  0  0  0  0  0
   37.2190   30.1090   52.1680 F   0  0  0  0  0  0  0  0  0  0  0  0
   38.2141   31.9120   51.3870 H   0  0  0  0  0  0  0  0  0  0  0  0
   38.9671   33.5587   49.6352 H   0  0  0  0  0  0  0  0  0  0  0  0
   35.5462   30.3490   46.1071 H   0  0  0  0  0  0  0  0  0  0  0  0
   36.0813   30.0042   43.6092 H   0  0  0  0  0  0  0  0  0  0  0  0
   38.2950   30.1271   41.9430 H   0  0  0  0  0  0  0  0  0  0  0  0
   40.7451   30.6068   42.0320 H   0  0  0  0  0  0  0  0  0  0  0  0
   41.8642   31.2027   44.1464 H   0  0  0  0  0  0  0  0  0  0  0  0
   40.5538   31.3322   46.2834 H   0  0  0  0  0  0  0  0  0  0  0  0
  1  2  2  0
  1 16  1  0
  3  2  1  0
  4  3  2  0
  5  4  1  0
  5  6  2  0
  6  1  1  0
  7  5  1  0
  8  7  2  0
  9  8  1  0
 10  9  1  0
 10 15  2  0
 11 12  2  0
 11 10  1  0
 12 13  1  0
 13 14  2  0
 15 14  1  0
 15  7  1  0
 16 19  1  0
 17 16  1  0
 18 16  1  0
  2 20  1  0
  3 21  1  0
  8 22  1  0
  9 23  1  0
 11 24  1  0
 12 25  1  0
 13 26  1  0
 14 27  1  0
M  ISO  8  20  14  21  14  22  14  23   9  24  14  25  14  26  14  27  14
M  END
>  <minimizedAffinity>  (1) 
-6.10377073

>  <minimizedRMSD>  (1) 
1.79432678

$$$$
