
     RDKit          3D

 29 30  0  0  0  0  0  0  0  0999 V2000
   37.2500   30.5160   49.4340 C   0  0  0  0  0  0  0  0  0  0  0  0
   37.0090   31.7600   50.0340 C   0  0  0  0  0  0  0  0  0  0  0  0
   37.5980   32.8930   49.4730 C   0  0  0  0  0  0  0  0  0  0  0  0
   38.3770   32.7250   48.3710 N   0  0  0  0  0  0  0  0  0  0  0  0
   38.5870   31.4930   47.8170 C   0  0  0  0  0  0  0  0  0  0  0  0
   38.0290   30.4120   48.3460 N   0  0  0  0  0  0  0  0  0  0  0  0
   39.4450   31.3660   46.6170 C   0  0  0  0  0  0  0  0  0  0  0  0
   38.7670   30.5870   45.5410 C   0  0  0  0  0  0  0  0  0  0  0  0
   39.6750   30.4890   44.3430 C   0  0  0  0  0  0  0  0  0  0  0  0
   39.9030   31.9180   43.8490 C   0  0  0  0  0  0  0  0  0  0  0  0
   40.6880   32.6370   44.9220 C   0  0  0  0  0  0  0  0  0  0  0  0
   39.7490   32.7640   46.1210 C   0  0  0  0  0  0  0  0  0  0  0  0
   36.6140   29.3030   50.0400 C   0  0  0  0  0  0  0  0  0  0  0  0
   35.9050   28.6150   49.0760 F   0  0  0  0  0  0  0  0  0  0  0  0
   37.5840   28.5660   50.6610 F   0  0  0  0  0  0  0  0  0  0  0  0
   35.6840   29.7460   50.9790 F   0  0  0  0  0  0  0  0  0  0  0  0
   36.3705   31.8406   50.9261 H   0  0  0  0  0  0  0  0  0  0  0  0
   37.4376   33.8905   49.9080 H   0  0  0  0  0  0  0  0  0  0  0  0
   40.3671   30.8274   46.8810 H   0  0  0  0  0  0  0  0  0  0  0  0
   38.5363   29.5766   45.9097 H   0  0  0  0  0  0  0  0  0  0  0  0
   37.8344   31.0945   45.2534 H   0  0  0  0  0  0  0  0  0  0  0  0
   40.6324   30.0291   44.6291 H   0  0  0  0  0  0  0  0  0  0  0  0
   39.2272   29.8642   43.5562 H   0  0  0  0  0  0  0  0  0  0  0  0
   40.4728   31.9060   42.9082 H   0  0  0  0  0  0  0  0  0  0  0  0
   38.9455   32.4244   43.6575 H   0  0  0  0  0  0  0  0  0  0  0  0
   41.5807   32.0557   45.1961 H   0  0  0  0  0  0  0  0  0  0  0  0
   41.0328   33.6224   44.5755 H   0  0  0  0  0  0  0  0  0  0  0  0
   40.2349   33.3468   46.9174 H   0  0  0  0  0  0  0  0  0  0  0  0
   38.8219   33.2805   45.8316 H   0  0  0  0  0  0  0  0  0  0  0  0
  1  2  2  0
  1 13  1  0
  3  2  1  0
  4  3  2  0
  5  6  2  0
  5  4  1  0
  6  1  1  0
  7  5  1  0
  8  7  1  0
  9  8  1  0
 10  9  1  0
 10 11  1  0
 11 12  1  0
 12  7  1  0
 13 15  1  0
 13 16  1  0
 14 13  1  0
  2 17  1  0
  3 18  1  0
  7 19  1  0
  8 20  1  0
  8 21  1  0
  9 22  1  0
  9 23  1  0
 10 24  1  0
 10 25  1  0
 11 26  1  0
 11 27  1  0
 12 28  1  0
 12 29  1  0
M  ISO  8  17  14  18  14  19  13  20  13  21  13  22  13  23  13  24  13
M  ISO  5  25  13  26  13  27  13  28  13  29  13
M  END
>  <minimizedAffinity>  (1) 
-6.08060503

>  <minimizedRMSD>  (1) 
2.92759824

$$$$
