
     RDKit          3D

 20 20  0  0  0  0  0  0  0  0999 V2000
   37.1800   30.2140   50.0940 C   0  0  0  0  0  0  0  0  0  0  0  0
   38.2850   31.0640   49.9470 C   0  0  0  0  0  0  0  0  0  0  0  0
   38.3930   31.7850   48.7510 C   0  0  0  0  0  0  0  0  0  0  0  0
   37.4320   31.6230   47.8110 N   0  0  0  0  0  0  0  0  0  0  0  0
   36.3760   30.7850   48.0010 C   0  0  0  0  0  0  0  0  0  0  0  0
   36.2650   30.0980   49.1300 N   0  0  0  0  0  0  0  0  0  0  0  0
   35.3800   30.6360   46.9950 N   0  0  0  0  0  0  0  0  0  0  0  0
   34.0170   30.3230   47.3390 C   0  0  0  0  0  0  0  0  0  0  0  0
   33.8160   29.6150   48.3860 N   0  0  0  0  0  0  0  0  0  0  0  0
   32.9430   30.8090   46.5110 N   0  0  0  0  0  0  0  0  0  0  0  0
   32.9110   29.3100   48.7600 H   0  0  0  0  0  0  0  0  0  0  0  0
   37.0530   29.4360   51.3730 C   0  0  0  0  0  0  0  0  0  0  0  0
   35.7230   29.1450   51.6140 F   0  0  0  0  0  0  0  0  0  0  0  0
   37.8560   28.3480   51.3070 F   0  0  0  0  0  0  0  0  0  0  0  0
   37.4710   30.2790   52.4110 F   0  0  0  0  0  0  0  0  0  0  0  0
   39.0394   31.1612   50.7416 H   0  0  0  0  0  0  0  0  0  0  0  0
   39.2389   32.4670   48.5794 H   0  0  0  0  0  0  0  0  0  0  0  0
   35.6383   30.7540   46.0049 H   0  0  0  0  0  0  0  0  0  0  0  0
   31.9663   30.5882   46.7523 H   0  0  0  0  0  0  0  0  0  0  0  0
   33.1518   31.3773   45.6777 H   0  0  0  0  0  0  0  0  0  0  0  0
  1 12  1  0
  2  1  2  0
  3  2  1  0
  4  5  1  0
  4  3  2  0
  5  6  2  0
  6  1  1  0
  7  8  1  0
  7  5  1  0
  8  9  2  0
  9 11  1  0
 10  8  1  0
 12 13  1  0
 12 15  1  0
 14 12  1  0
  2 16  1  0
  3 17  1  0
  7 18  1  0
 10 19  1  0
 10 20  1  0
M  ISO  2  16  14  17  14
M  END
>  <minimizedAffinity>  (1) 
-5.9995532

>  <minimizedRMSD>  (1) 
0.64587611

$$$$
