
     RDKit          3D

 26 27  0  0  0  0  0  0  0  0999 V2000
   37.2220   30.6190   49.2670 C   0  0  0  0  0  0  0  0  0  0  0  0
   37.2550   31.7760   50.0510 C   0  0  0  0  0  0  0  0  0  0  0  0
   37.8370   32.9230   49.4860 C   0  0  0  0  0  0  0  0  0  0  0  0
   38.3260   32.8400   48.2250 N   0  0  0  0  0  0  0  0  0  0  0  0
   38.2710   31.6970   47.5040 C   0  0  0  0  0  0  0  0  0  0  0  0
   37.7190   30.6020   48.0360 N   0  0  0  0  0  0  0  0  0  0  0  0
   38.8060   31.6950   46.1930 N   0  0  0  0  0  0  0  0  0  0  0  0
   40.0670   31.0600   45.9170 C   0  0  0  0  0  0  0  0  0  0  0  0
   40.9510   32.0630   45.2180 C   0  0  0  0  0  0  0  0  0  0  0  0
   40.2720   32.8850   44.3540 O   0  0  0  0  0  0  0  0  0  0  0  0
   39.0460   32.3930   43.9360 C   0  0  0  0  0  0  0  0  0  0  0  0
   38.0760   32.3390   45.1180 C   0  0  0  0  0  0  0  0  0  0  0  0
   36.5980   29.3760   49.8620 C   0  0  0  0  0  0  0  0  0  0  0  0
   35.9570   28.6600   48.8800 F   0  0  0  0  0  0  0  0  0  0  0  0
   37.5740   28.6800   50.5120 F   0  0  0  0  0  0  0  0  0  0  0  0
   35.6400   29.7970   50.7750 F   0  0  0  0  0  0  0  0  0  0  0  0
   36.8415   31.7878   51.0703 H   0  0  0  0  0  0  0  0  0  0  0  0
   37.8943   33.8641   50.0526 H   0  0  0  0  0  0  0  0  0  0  0  0
   40.5376   30.7397   46.8583 H   0  0  0  0  0  0  0  0  0  0  0  0
   39.9179   30.1742   45.2821 H   0  0  0  0  0  0  0  0  0  0  0  0
   41.4393   32.6873   45.9807 H   0  0  0  0  0  0  0  0  0  0  0  0
   41.6754   31.4922   44.6184 H   0  0  0  0  0  0  0  0  0  0  0  0
   38.6351   33.0518   43.1568 H   0  0  0  0  0  0  0  0  0  0  0  0
   39.1815   31.3788   43.5321 H   0  0  0  0  0  0  0  0  0  0  0  0
   37.7741   33.3546   45.4135 H   0  0  0  0  0  0  0  0  0  0  0  0
   37.1565   31.7907   44.8650 H   0  0  0  0  0  0  0  0  0  0  0  0
  1 13  1  0
  1  2  2  0
  3  2  1  0
  4  3  2  0
  5  6  2  0
  5  4  1  0
  6  1  1  0
  7  5  1  0
  8  7  1  0
  9  8  1  0
 10  9  1  0
 11 10  1  0
 11 12  1  0
 12  7  1  0
 13 15  1  0
 13 16  1  0
 14 13  1  0
  2 17  1  0
  3 18  1  0
  8 19  1  0
  8 20  1  0
  9 21  1  0
  9 22  1  0
 11 23  1  0
 11 24  1  0
 12 25  1  0
 12 26  1  0
M  ISO  8  17  14  18  14  19  13  20  13  21  13  22  13  23  13  24  13
M  ISO  2  25  13  26  13
M  END
>  <minimizedAffinity>  (1) 
-5.93353271

>  <minimizedRMSD>  (1) 
2.80967522

$$$$
