
     RDKit          3D

 23 24  0  0  0  0  0  0  0  0999 V2000
   37.4040   30.2870   50.0830 C   0  0  0  0  0  0  0  0  0  0  0  0
   38.3010   31.3470   50.1790 C   0  0  0  0  0  0  0  0  0  0  0  0
   38.5470   32.1290   49.0550 C   0  0  0  0  0  0  0  0  0  0  0  0
   37.8900   31.8070   47.9180 N   0  0  0  0  0  0  0  0  0  0  0  0
   37.0110   30.7620   47.8410 C   0  0  0  0  0  0  0  0  0  0  0  0
   36.7800   30.0140   48.9280 N   0  0  0  0  0  0  0  0  0  0  0  0
   36.3540   30.4960   46.5710 C   0  0  0  0  0  0  0  0  0  0  0  0
   35.0830   29.9560   46.5830 C   0  0  0  0  0  0  0  0  0  0  0  0
   34.5360   29.7370   45.3340 C   0  0  0  0  0  0  0  0  0  0  0  0
   35.1290   30.0010   44.1180 C   0  0  0  0  0  0  0  0  0  0  0  0
   36.4000   30.5390   44.2020 C   0  0  0  0  0  0  0  0  0  0  0  0
   37.0320   30.7950   45.4010 C   0  0  0  0  0  0  0  0  0  0  0  0
   37.1320   29.4370   51.2910 C   0  0  0  0  0  0  0  0  0  0  0  0
   35.7890   29.1960   51.4150 F   0  0  0  0  0  0  0  0  0  0  0  0
   37.9030   28.3080   51.2000 F   0  0  0  0  0  0  0  0  0  0  0  0
   37.5320   30.1760   52.4030 F   0  0  0  0  0  0  0  0  0  0  0  0
   38.8085   31.5634   51.1306 H   0  0  0  0  0  0  0  0  0  0  0  0
   39.2483   32.9758   49.0899 H   0  0  0  0  0  0  0  0  0  0  0  0
   34.5482   29.7189   47.5145 H   0  0  0  0  0  0  0  0  0  0  0  0
   33.5235   29.3080   45.3068 H   0  0  0  0  0  0  0  0  0  0  0  0
   34.6311   29.7999   43.1580 H   0  0  0  0  0  0  0  0  0  0  0  0
   36.9323   30.7740   43.2685 H   0  0  0  0  0  0  0  0  0  0  0  0
   38.0446   31.2240   45.4271 H   0  0  0  0  0  0  0  0  0  0  0  0
  1  2  2  0
  1 13  1  0
  3  2  1  0
  4  3  2  0
  5  4  1  0
  5  6  2  0
  6  1  1  0
  7  8  2  0
  7  5  1  0
  9  8  1  0
 10 11  1  0
 10  9  2  0
 11 12  2  0
 12  7  1  0
 13 14  1  0
 13 16  1  0
 15 13  1  0
  2 17  1  0
  3 18  1  0
  8 19  1  0
  9 20  1  0
 10 21  1  0
 11 22  1  0
 12 23  1  0
M  ISO  7  17  14  18  14  19  14  20  14  21  14  22  14  23  14
M  END
>  <minimizedAffinity>  (1) 
-5.44950438

>  <minimizedRMSD>  (1) 
0.386792809

$$$$
