
     RDKit          3D

 34 37  0  0  0  0  0  0  0  0999 V2000
   37.9280   31.4420   49.9680 C   0  0  0  0  0  0  0  0  0  0  0  0
   38.7740   32.5400   49.7210 C   0  0  0  0  0  0  0  0  0  0  0  0
   38.8690   32.9900   48.3930 C   0  0  0  0  0  0  0  0  0  0  0  0
   38.1440   32.3440   47.4300 N   0  0  0  0  0  0  0  0  0  0  0  0
   37.3450   31.2920   47.7180 C   0  0  0  0  0  0  0  0  0  0  0  0
   37.2410   30.8520   48.9690 N   0  0  0  0  0  0  0  0  0  0  0  0
   36.6120   30.6610   46.6650 N   0  0  0  0  0  0  0  0  0  0  0  0
   37.1320   30.5300   45.4320 C   0  0  0  0  0  0  0  0  0  0  0  0
   36.4360   29.9240   44.4120 C   0  0  0  0  0  0  0  0  0  0  0  0
   35.1860   29.4690   44.7440 C   0  0  0  0  0  0  0  0  0  0  0  0
   34.4940   28.9020   43.8550 O   0  0  0  0  0  0  0  0  0  0  0  0
   34.6220   29.5760   45.9620 N   0  0  0  0  0  0  0  0  0  0  0  0
   35.3690   30.1870   46.9190 C   0  0  0  0  0  0  0  0  0  0  0  0
   34.8660   30.2970   48.0570 O   0  0  0  0  0  0  0  0  0  0  0  0
   29.9890   30.0800   45.6830 N   0  0  0  0  0  0  0  0  0  0  0  0
   30.6400   31.1530   45.1460 C   0  0  0  0  0  0  0  0  0  0  0  0
   31.9850   30.9570   45.2530 N   0  0  0  0  0  0  0  0  0  0  0  0
   32.1750   29.7640   45.8540 C   0  0  0  0  0  0  0  0  0  0  0  0
   33.3150   29.0710   46.2090 C   0  0  0  0  0  0  0  0  0  0  0  0
   33.1400   27.8800   46.8080 N   0  0  0  0  0  0  0  0  0  0  0  0
   31.9570   27.3210   47.0840 C   0  0  0  0  0  0  0  0  0  0  0  0
   30.8470   28.0200   46.7260 N   0  0  0  0  0  0  0  0  0  0  0  0
   30.9370   29.2210   46.1210 C   0  0  0  0  0  0  0  0  0  0  0  0
   36.9690   29.7550   43.0340 C   0  0  0  0  0  0  0  0  0  0  0  0
   37.8257   31.0588   50.9940 H   0  0  0  0  0  0  0  0  0  0  0  0
   39.3364   33.0248   50.5326 H   0  0  0  0  0  0  0  0  0  0  0  0
   39.5127   33.8435   48.1337 H   0  0  0  0  0  0  0  0  0  0  0  0
   38.1419   30.9182   45.2335 H   0  0  0  0  0  0  0  0  0  0  0  0
   28.9691   29.9495   45.7431 H   0  0  0  0  0  0  0  0  0  0  0  0
   30.1570   32.0343   44.6988 H   0  0  0  0  0  0  0  0  0  0  0  0
   31.8851   26.3408   47.5779 H   0  0  0  0  0  0  0  0  0  0  0  0
   38.0165   29.4229   43.0842 H   0  0  0  0  0  0  0  0  0  0  0  0
   36.3709   29.0024   42.4993 H   0  0  0  0  0  0  0  0  0  0  0  0
   36.9139   30.7147   42.4993 H   0  0  0  0  0  0  0  0  0  0  0  0
  2  1  2  0
  3  2  1  0
  4  5  1  0
  4  3  2  0
  5  6  2  0
  6  1  1  0
  7 13  1  0
  7  5  1  0
  8  7  1  0
  9 10  1  0
  9  8  2  0
 10 12  1  0
 11 10  2  0
 12 19  1  0
 12 13  1  0
 13 14  2  0
 15 23  1  0
 16 17  2  0
 16 15  1  0
 17 18  1  0
 18 23  2  0
 18 19  1  0
 19 20  2  0
 20 21  1  0
 22 21  2  0
 23 22  1  0
 24  9  1  0
  1 25  1  0
  2 26  1  0
  3 27  1  0
  8 28  1  0
 15 29  1  0
 16 30  1  0
 21 31  1  0
 24 32  1  0
 24 33  1  0
 24 34  1  0
M  ISO  8  25  14  26  14  27  14  28  14  29   9  30  14  31  14  32   8
M  ISO  2  33   8  34   8
M  END
>  <minimizedAffinity>  (1) 
-5.20300245

>  <minimizedRMSD>  (1) 
4.07615089

$$$$
