
     RDKit          3D

 16 16  0  0  0  0  0  0  0  0999 V2000
   36.7690   29.9320   49.6860 C   0  0  0  0  0  0  0  0  0  0  0  0
   37.9100   30.4730   49.0900 C   0  0  0  0  0  0  0  0  0  0  0  0
   37.7990   30.8730   47.7480 C   0  0  0  0  0  0  0  0  0  0  0  0
   36.6100   30.7120   47.1200 N   0  0  0  0  0  0  0  0  0  0  0  0
   35.5300   30.1810   47.7460 C   0  0  0  0  0  0  0  0  0  0  0  0
   35.6300   29.8010   49.0160 N   0  0  0  0  0  0  0  0  0  0  0  0
   36.8520   29.4910   51.1310 C   0  0  0  0  0  0  0  0  0  0  0  0
   35.5980   29.1580   51.5930 F   0  0  0  0  0  0  0  0  0  0  0  0
   37.7770   28.4870   51.2200 F   0  0  0  0  0  0  0  0  0  0  0  0
   37.2880   30.5970   51.8570 F   0  0  0  0  0  0  0  0  0  0  0  0
   34.2390   29.9980   47.0910 C   0  0  0  0  0  0  0  0  0  0  0  0
   33.8950   28.9210   46.5370 O   0  0  0  0  0  0  0  0  0  0  0  0
   33.2500   30.9480   46.9900 O   0  0  0  0  0  0  0  0  0  0  0  0
   38.8529   30.5810   49.6461 H   0  0  0  0  0  0  0  0  0  0  0  0
   38.6596   31.3078   47.2185 H   0  0  0  0  0  0  0  0  0  0  0  0
   32.4027   30.7330   46.5252 H   0  0  0  0  0  0  0  0  0  0  0  0
  1  7  1  0
  2  1  2  0
  3  2  1  0
  4  5  1  0
  4  3  2  0
  5  6  2  0
  6  1  1  0
  7  9  1  0
  7  8  1  0
  7 10  1  0
 11  5  1  0
 12 11  2  0
 13 11  1  0
  2 14  1  0
  3 15  1  0
 13 16  1  0
M  ISO  3  14  14  15  14  16   3
M  END
>  <minimizedAffinity>  (1) 
-4.93118954

>  <minimizedRMSD>  (1) 
1.65607953

$$$$
