
     RDKit          3D

 19 19  0  0  0  0  0  0  0  0999 V2000
   37.2990   30.2370   50.0350 C   0  0  0  0  0  0  0  0  0  0  0  0
   38.2800   31.2300   50.0310 C   0  0  0  0  0  0  0  0  0  0  0  0
   38.4500   31.9570   48.8360 C   0  0  0  0  0  0  0  0  0  0  0  0
   37.6690   31.6590   47.7740 N   0  0  0  0  0  0  0  0  0  0  0  0
   36.7240   30.6780   47.8330 C   0  0  0  0  0  0  0  0  0  0  0  0
   36.5410   29.9750   48.9520 N   0  0  0  0  0  0  0  0  0  0  0  0
   37.0910   29.4400   51.3020 C   0  0  0  0  0  0  0  0  0  0  0  0
   35.7540   29.1620   51.4700 F   0  0  0  0  0  0  0  0  0  0  0  0
   37.8860   28.3330   51.2400 F   0  0  0  0  0  0  0  0  0  0  0  0
   37.5010   30.2490   52.3570 F   0  0  0  0  0  0  0  0  0  0  0  0
   35.8450   30.3200   46.6900 C   0  0  0  0  0  0  0  0  0  0  0  0
   34.4330   30.0250   47.1260 C   0  0  0  0  0  0  0  0  0  0  0  0
   38.8929   31.4358   50.9209 H   0  0  0  0  0  0  0  0  0  0  0  0
   39.2056   32.7536   48.7686 H   0  0  0  0  0  0  0  0  0  0  0  0
   36.2556   29.4285   46.1934 H   0  0  0  0  0  0  0  0  0  0  0  0
   35.8135   31.1813   46.0065 H   0  0  0  0  0  0  0  0  0  0  0  0
   34.3832   30.0146   48.2248 H   0  0  0  0  0  0  0  0  0  0  0  0
   33.7589   30.8017   46.7357 H   0  0  0  0  0  0  0  0  0  0  0  0
   34.1263   29.0434   46.7357 H   0  0  0  0  0  0  0  0  0  0  0  0
  1  7  1  0
  2  1  2  0
  3  2  1  0
  4  5  1  0
  4  3  2  0
  5  6  2  0
  6  1  1  0
  7  8  1  0
  7 10  1  0
  9  7  1  0
 11 12  1  0
 11  5  1  0
  2 13  1  0
  3 14  1  0
 11 15  1  0
 11 16  1  0
 12 17  1  0
 12 18  1  0
 12 19  1  0
M  ISO  7  13  14  14  14  15   8  16   8  17   8  18   8  19   8
M  END
>  <minimizedAffinity>  (1) 
-4.69937801

>  <minimizedRMSD>  (1) 
0.425520867

$$$$
