
     RDKit          3D

 31 33  0  0  0  0  0  0  0  0999 V2000
   36.4910   30.5690   46.5780 C   0  0  0  0  0  0  0  0  0  0  0  0
   35.1940   30.0700   46.5080 C   0  0  0  0  0  0  0  0  0  0  0  0
   34.5540   29.7490   45.3280 C   0  0  0  0  0  0  0  0  0  0  0  0
   35.2270   29.9270   44.1430 C   0  0  0  0  0  0  0  0  0  0  0  0
   36.5320   30.4260   44.1760 C   0  0  0  0  0  0  0  0  0  0  0  0
   37.1360   30.7360   45.3860 C   0  0  0  0  0  0  0  0  0  0  0  0
   37.4210   30.3240   50.0970 C   0  0  0  0  0  0  0  0  0  0  0  0
   38.1980   31.4670   50.2920 C   0  0  0  0  0  0  0  0  0  0  0  0
   38.4010   32.3230   49.1970 C   0  0  0  0  0  0  0  0  0  0  0  0
   37.8320   31.9870   48.0290 N   0  0  0  0  0  0  0  0  0  0  0  0
   37.0830   30.8730   47.8680 C   0  0  0  0  0  0  0  0  0  0  0  0
   36.8970   30.0660   48.9120 N   0  0  0  0  0  0  0  0  0  0  0  0
   37.2100   29.4110   51.2830 C   0  0  0  0  0  0  0  0  0  0  0  0
   35.8640   29.1530   51.4230 F   0  0  0  0  0  0  0  0  0  0  0  0
   37.9370   28.2720   51.0520 F   0  0  0  0  0  0  0  0  0  0  0  0
   37.6500   30.0790   52.4160 F   0  0  0  0  0  0  0  0  0  0  0  0
   38.4930   31.2610   45.3100 C   0  0  0  0  0  0  0  0  0  0  0  0
   39.6950   30.6150   45.5420 C   0  0  0  0  0  0  0  0  0  0  0  0
   40.8760   31.3140   45.4020 C   0  0  0  0  0  0  0  0  0  0  0  0
   40.8620   32.6230   45.0420 N   0  0  0  0  0  0  0  0  0  0  0  0
   39.6900   33.2540   44.8170 C   0  0  0  0  0  0  0  0  0  0  0  0
   38.5340   32.5740   44.9520 N   0  0  0  0  0  0  0  0  0  0  0  0
   34.6456   29.9224   47.4500 H   0  0  0  0  0  0  0  0  0  0  0  0
   33.5257   29.3585   45.3359 H   0  0  0  0  0  0  0  0  0  0  0  0
   34.7465   29.6808   43.1846 H   0  0  0  0  0  0  0  0  0  0  0  0
   37.0841   30.5740   43.2362 H   0  0  0  0  0  0  0  0  0  0  0  0
   38.6386   31.6909   51.2747 H   0  0  0  0  0  0  0  0  0  0  0  0
   39.0054   33.2370   49.2935 H   0  0  0  0  0  0  0  0  0  0  0  0
   39.7084   29.5548   45.8351 H   0  0  0  0  0  0  0  0  0  0  0  0
   41.8355   30.8075   45.5832 H   0  0  0  0  0  0  0  0  0  0  0  0
   39.6785   34.3147   44.5258 H   0  0  0  0  0  0  0  0  0  0  0  0
  1 11  1  0
  2  1  2  0
  3  2  1  0
  4  5  1  0
  4  3  2  0
  5  6  2  0
  6  1  1  0
  7  8  2  0
  7 13  1  0
  9  8  1  0
 10  9  2  0
 11 10  1  0
 11 12  2  0
 12  7  1  0
 13 14  1  0
 13 16  1  0
 15 13  1  0
 17  6  1  0
 17 18  2  0
 19 18  1  0
 20 19  2  0
 21 22  2  0
 21 20  1  0
 22 17  1  0
  2 23  1  0
  3 24  1  0
  4 25  1  0
  5 26  1  0
  8 27  1  0
  9 28  1  0
 18 29  1  0
 19 30  1  0
 21 31  1  0
M  ISO  8  23  14  24  14  25  14  26  14  27  14  28  14  29  14  30  14
M  ISO  1  31  14
M  END
>  <minimizedAffinity>  (1) 
-7.0141263

>  <minimizedRMSD>  (1) 
0.2803123

$$$$
