
     RDKit          3D

 36 38  0  0  0  0  0  0  0  0999 V2000
   36.6120   30.6510   46.6210 C   0  0  0  0  0  0  0  0  0  0  0  0
   35.3580   30.0350   46.5230 C   0  0  0  0  0  0  0  0  0  0  0  0
   34.7460   29.7320   45.3270 C   0  0  0  0  0  0  0  0  0  0  0  0
   35.3920   30.0480   44.1500 C   0  0  0  0  0  0  0  0  0  0  0  0
   36.6290   30.6540   44.2320 C   0  0  0  0  0  0  0  0  0  0  0  0
   37.2630   30.9680   45.4470 C   0  0  0  0  0  0  0  0  0  0  0  0
   37.4460   30.3290   50.1580 C   0  0  0  0  0  0  0  0  0  0  0  0
   38.2090   31.4590   50.4110 C   0  0  0  0  0  0  0  0  0  0  0  0
   38.4370   32.3460   49.3410 C   0  0  0  0  0  0  0  0  0  0  0  0
   37.8960   32.0330   48.1460 N   0  0  0  0  0  0  0  0  0  0  0  0
   37.1580   30.9180   47.9420 C   0  0  0  0  0  0  0  0  0  0  0  0
   36.9430   30.0800   48.9560 N   0  0  0  0  0  0  0  0  0  0  0  0
   37.1950   29.3900   51.3130 C   0  0  0  0  0  0  0  0  0  0  0  0
   35.8240   29.1630   51.4190 F   0  0  0  0  0  0  0  0  0  0  0  0
   37.9020   28.2580   51.1130 F   0  0  0  0  0  0  0  0  0  0  0  0
   37.5800   30.0500   52.4840 F   0  0  0  0  0  0  0  0  0  0  0  0
   38.5640   31.6140   45.4500 C   0  0  0  0  0  0  0  0  0  0  0  0
   39.7030   30.7670   44.9120 C   0  0  0  0  0  0  0  0  0  0  0  0
   40.8020   31.8340   44.8550 C   0  0  0  0  0  0  0  0  0  0  0  0
   40.0540   33.1400   44.5560 C   0  0  0  0  0  0  0  0  0  0  0  0
   38.5980   32.6920   44.3380 C   0  0  0  0  0  0  0  0  0  0  0  0
   34.8319   29.7786   47.4544 H   0  0  0  0  0  0  0  0  0  0  0  0
   33.7591   29.2464   45.3107 H   0  0  0  0  0  0  0  0  0  0  0  0
   34.9347   29.8236   43.1750 H   0  0  0  0  0  0  0  0  0  0  0  0
   37.1477   30.9053   43.2951 H   0  0  0  0  0  0  0  0  0  0  0  0
   38.6214   31.6556   51.4116 H   0  0  0  0  0  0  0  0  0  0  0  0
   39.0341   33.2600   49.4751 H   0  0  0  0  0  0  0  0  0  0  0  0
   38.6847   31.9143   46.5013 H   0  0  0  0  0  0  0  0  0  0  0  0
   39.9628   29.9456   45.5959 H   0  0  0  0  0  0  0  0  0  0  0  0
   39.4976   30.2533   43.9613 H   0  0  0  0  0  0  0  0  0  0  0  0
   41.3302   31.9000   45.8176 H   0  0  0  0  0  0  0  0  0  0  0  0
   41.5667   31.6070   44.0975 H   0  0  0  0  0  0  0  0  0  0  0  0
   40.1264   33.8355   45.4051 H   0  0  0  0  0  0  0  0  0  0  0  0
   40.4670   33.6760   43.6887 H   0  0  0  0  0  0  0  0  0  0  0  0
   37.8769   33.5033   44.5161 H   0  0  0  0  0  0  0  0  0  0  0  0
   38.3312   32.3614   43.3234 H   0  0  0  0  0  0  0  0  0  0  0  0
  1 11  1  0
  2  1  2  0
  3  2  1  0
  4  5  1  0
  4  3  2  0
  5  6  2  0
  6 17  1  0
  6  1  1  0
  7  8  2  0
  7 13  1  0
  9  8  1  0
 10  9  2  0
 11 10  1  0
 11 12  2  0
 12  7  1  0
 13 14  1  0
 13 16  1  0
 15 13  1  0
 18 17  1  0
 19 18  1  0
 20 19  1  0
 21 20  1  0
 21 17  1  0
  2 22  1  0
  3 23  1  0
  4 24  1  0
  5 25  1  0
  8 26  1  0
  9 27  1  0
 17 28  1  0
 18 29  1  0
 18 30  1  0
 19 31  1  0
 19 32  1  0
 20 33  1  0
 20 34  1  0
 21 35  1  0
 21 36  1  0
M  ISO  8  22  14  23  14  24  14  25  14  26  14  27  14  28  13  29  13
M  ISO  7  30  13  31  13  32  13  33  13  34  13  35  13  36  13
M  END
>  <minimizedAffinity>  (1) 
-6.75237656

>  <minimizedRMSD>  (1) 
0.481588632

$$$$
