
     RDKit          3D

 38 40  0  0  0  0  0  0  0  0999 V2000
   36.0960   30.4440   46.6720 C   0  0  0  0  0  0  0  0  0  0  0  0
   34.7900   30.0010   46.7390 C   0  0  0  0  0  0  0  0  0  0  0  0
   34.0290   29.6880   45.6460 C   0  0  0  0  0  0  0  0  0  0  0  0
   34.5830   29.8170   44.3890 C   0  0  0  0  0  0  0  0  0  0  0  0
   35.9050   30.2630   44.2750 C   0  0  0  0  0  0  0  0  0  0  0  0
   36.6320   30.5670   45.4200 C   0  0  0  0  0  0  0  0  0  0  0  0
   37.3680   30.2440   50.0840 C   0  0  0  0  0  0  0  0  0  0  0  0
   38.2360   31.3370   50.1630 C   0  0  0  0  0  0  0  0  0  0  0  0
   38.3810   32.1440   49.0280 C   0  0  0  0  0  0  0  0  0  0  0  0
   37.6770   31.8240   47.9250 N   0  0  0  0  0  0  0  0  0  0  0  0
   36.8450   30.7570   47.8840 C   0  0  0  0  0  0  0  0  0  0  0  0
   36.7040   29.9830   48.9690 N   0  0  0  0  0  0  0  0  0  0  0  0
   37.2200   29.3870   51.3070 C   0  0  0  0  0  0  0  0  0  0  0  0
   35.8660   29.1340   51.5200 F   0  0  0  0  0  0  0  0  0  0  0  0
   37.9420   28.2600   51.1270 F   0  0  0  0  0  0  0  0  0  0  0  0
   37.6780   30.1080   52.4060 F   0  0  0  0  0  0  0  0  0  0  0  0
   37.9690   31.0090   45.2170 N   0  0  0  0  0  0  0  0  0  0  0  0
   39.2820   30.3990   45.2870 C   0  0  0  0  0  0  0  0  0  0  0  0
   39.8570   30.4190   43.8750 C   0  0  0  0  0  0  0  0  0  0  0  0
   40.1680   31.8680   43.5910 C   0  0  0  0  0  0  0  0  0  0  0  0
   39.4100   32.8350   44.4330 C   0  0  0  0  0  0  0  0  0  0  0  0
   38.0450   32.4160   44.8460 C   0  0  0  0  0  0  0  0  0  0  0  0
   34.3327   29.8929   47.7336 H   0  0  0  0  0  0  0  0  0  0  0  0
   32.9928   29.3393   45.7673 H   0  0  0  0  0  0  0  0  0  0  0  0
   33.9957   29.5734   43.4914 H   0  0  0  0  0  0  0  0  0  0  0  0
   36.3669   30.3725   43.2827 H   0  0  0  0  0  0  0  0  0  0  0  0
   38.7883   31.5564   51.0887 H   0  0  0  0  0  0  0  0  0  0  0  0
   39.0517   33.0158   49.0368 H   0  0  0  0  0  0  0  0  0  0  0  0
   39.9294   30.9722   45.9670 H   0  0  0  0  0  0  0  0  0  0  0  0
   39.2176   29.3701   45.6708 H   0  0  0  0  0  0  0  0  0  0  0  0
   40.7725   29.8113   43.8234 H   0  0  0  0  0  0  0  0  0  0  0  0
   39.1540   29.9993   43.1404 H   0  0  0  0  0  0  0  0  0  0  0  0
   41.2423   32.0298   43.7633 H   0  0  0  0  0  0  0  0  0  0  0  0
   39.8685   32.0557   42.5493 H   0  0  0  0  0  0  0  0  0  0  0  0
   39.9961   33.0164   45.3460 H   0  0  0  0  0  0  0  0  0  0  0  0
   39.2667   33.7251   43.8027 H   0  0  0  0  0  0  0  0  0  0  0  0
   37.7384   33.0234   45.7103 H   0  0  0  0  0  0  0  0  0  0  0  0
   37.3799   32.5649   43.9826 H   0  0  0  0  0  0  0  0  0  0  0  0
  1  2  2  0
  1 11  1  0
  3  2  1  0
  4  3  2  0
  5  4  1  0
  5  6  2  0
  6  1  1  0
  7  8  2  0
  7 13  1  0
  9  8  1  0
 10  9  2  0
 11 10  1  0
 11 12  2  0
 12  7  1  0
 13 14  1  0
 13 16  1  0
 15 13  1  0
 17 18  1  0
 17  6  1  0
 19 18  1  0
 20 19  1  0
 20 21  1  0
 21 22  1  0
 22 17  1  0
  2 23  1  0
  3 24  1  0
  4 25  1  0
  5 26  1  0
  8 27  1  0
  9 28  1  0
 18 29  1  0
 18 30  1  0
 19 31  1  0
 19 32  1  0
 20 33  1  0
 20 34  1  0
 21 35  1  0
 21 36  1  0
 22 37  1  0
 22 38  1  0
M  ISO  8  23  14  24  14  25  14  26  14  27  14  28  14  29  13  30  13
M  ISO  8  31  13  32  13  33  13  34  13  35  13  36  13  37  13  38  13
M  END
>  <minimizedAffinity>  (1) 
-6.68408489

>  <minimizedRMSD>  (1) 
0.377327681

$$$$
