
     RDKit          3D

 31 33  0  0  0  0  0  0  0  0999 V2000
   37.5830   30.3260   50.1820 C   0  0  0  0  0  0  0  0  0  0  0  0
   38.4780   31.4310   50.1970 C   0  0  0  0  0  0  0  0  0  0  0  0
   38.5800   32.1900   49.0310 C   0  0  0  0  0  0  0  0  0  0  0  0
   37.8260   31.8440   47.9370 N   0  0  0  0  0  0  0  0  0  0  0  0
   36.9850   30.7860   47.9610 C   0  0  0  0  0  0  0  0  0  0  0  0
   36.8670   30.0350   49.0740 N   0  0  0  0  0  0  0  0  0  0  0  0
   36.2200   30.4500   46.8210 N   0  0  0  0  0  0  0  0  0  0  0  0
   36.7360   30.6060   45.5810 C   0  0  0  0  0  0  0  0  0  0  0  0
   36.0350   30.2950   44.4320 C   0  0  0  0  0  0  0  0  0  0  0  0
   34.7590   29.8080   44.6660 C   0  0  0  0  0  0  0  0  0  0  0  0
   34.0320   29.4910   43.6840 O   0  0  0  0  0  0  0  0  0  0  0  0
   34.1940   29.6320   45.8880 N   0  0  0  0  0  0  0  0  0  0  0  0
   34.9710   29.9710   46.9440 C   0  0  0  0  0  0  0  0  0  0  0  0
   34.4740   29.8180   48.0770 O   0  0  0  0  0  0  0  0  0  0  0  0
   32.8720   29.1240   46.0170 C   0  0  0  0  0  0  0  0  0  0  0  0
   31.8250   30.0230   45.9570 C   0  0  0  0  0  0  0  0  0  0  0  0
   30.5020   29.6100   46.0750 C   0  0  0  0  0  0  0  0  0  0  0  0
   30.2030   28.2900   46.2560 N   0  0  0  0  0  0  0  0  0  0  0  0
   31.2660   27.4360   46.3110 C   0  0  0  0  0  0  0  0  0  0  0  0
   32.5360   27.8160   46.2000 N   0  0  0  0  0  0  0  0  0  0  0  0
   36.5360   30.4410   43.0610 C   0  0  0  0  0  0  0  0  0  0  0  0
   37.4726   29.7022   51.0813 H   0  0  0  0  0  0  0  0  0  0  0  0
   39.0668   31.6776   51.0929 H   0  0  0  0  0  0  0  0  0  0  0  0
   39.2569   33.0560   48.9885 H   0  0  0  0  0  0  0  0  0  0  0  0
   37.7591   30.9979   45.4828 H   0  0  0  0  0  0  0  0  0  0  0  0
   32.0428   31.0915   45.8124 H   0  0  0  0  0  0  0  0  0  0  0  0
   29.6913   30.3516   46.0222 H   0  0  0  0  0  0  0  0  0  0  0  0
   31.0596   26.3654   46.4564 H   0  0  0  0  0  0  0  0  0  0  0  0
   37.5918   30.7487   43.0872 H   0  0  0  0  0  0  0  0  0  0  0  0
   36.4472   29.4796   42.5339 H   0  0  0  0  0  0  0  0  0  0  0  0
   35.9447   31.2042   42.5339 H   0  0  0  0  0  0  0  0  0  0  0  0
  1  2  2  0
  3  2  1  0
  4  5  1  0
  4  3  2  0
  5  6  2  0
  6  1  1  0
  7 13  1  0
  7  5  1  0
  8  7  1  0
  9 10  1  0
  9  8  2  0
 10 12  1  0
 11 10  2  0
 12 15  1  0
 12 13  1  0
 13 14  2  0
 15 20  1  0
 16 15  2  0
 16 17  1  0
 17 18  2  0
 18 19  1  0
 20 19  2  0
 21  9  1  0
  1 22  1  0
  2 23  1  0
  3 24  1  0
  8 25  1  0
 16 26  1  0
 17 27  1  0
 19 28  1  0
 21 29  1  0
 21 30  1  0
 21 31  1  0
M  ISO  8  22  14  23  14  24  14  25  14  26  14  27  14  28  14  29   8
M  ISO  2  30   8  31   8
M  END
>  <minimizedAffinity>  (1) 
-4.93346214

>  <minimizedRMSD>  (1) 
3.7829349

$$$$
