
     RDKit          3D

 37 39  0  0  0  0  0  0  0  0999 V2000
   36.4670   30.5380   46.5410 C   0  0  0  0  0  0  0  0  0  0  0  0
   35.1890   30.0140   46.4790 C   0  0  0  0  0  0  0  0  0  0  0  0
   34.5480   29.6960   45.3050 C   0  0  0  0  0  0  0  0  0  0  0  0
   35.1940   29.9010   44.1080 C   0  0  0  0  0  0  0  0  0  0  0  0
   36.4870   30.4290   44.1320 C   0  0  0  0  0  0  0  0  0  0  0  0
   37.0940   30.7340   45.3420 C   0  0  0  0  0  0  0  0  0  0  0  0
   37.4370   30.3070   50.0470 C   0  0  0  0  0  0  0  0  0  0  0  0
   38.2330   31.4400   50.2340 C   0  0  0  0  0  0  0  0  0  0  0  0
   38.4340   32.2910   49.1260 C   0  0  0  0  0  0  0  0  0  0  0  0
   37.8460   31.9550   47.9670 N   0  0  0  0  0  0  0  0  0  0  0  0
   37.0800   30.8510   47.8170 C   0  0  0  0  0  0  0  0  0  0  0  0
   36.8920   30.0460   48.8710 N   0  0  0  0  0  0  0  0  0  0  0  0
   37.2230   29.4010   51.2300 C   0  0  0  0  0  0  0  0  0  0  0  0
   35.8570   29.1730   51.3850 F   0  0  0  0  0  0  0  0  0  0  0  0
   37.9520   28.2800   51.0330 F   0  0  0  0  0  0  0  0  0  0  0  0
   37.6610   30.0830   52.3670 F   0  0  0  0  0  0  0  0  0  0  0  0
   38.4120   31.2670   45.2880 N   0  0  0  0  0  0  0  0  0  0  0  0
   39.7510   30.7440   45.4780 C   0  0  0  0  0  0  0  0  0  0  0  0
   40.4280   30.6690   44.1050 C   0  0  0  0  0  0  0  0  0  0  0  0
   40.1640   31.9010   43.4270 N   0  0  0  0  0  0  0  0  0  0  0  0
   39.7720   32.9910   44.2990 C   0  0  0  0  0  0  0  0  0  0  0  0
   38.4310   32.7010   44.9580 C   0  0  0  0  0  0  0  0  0  0  0  0
   34.6537   29.8414   47.4244 H   0  0  0  0  0  0  0  0  0  0  0  0
   33.5291   29.2819   45.3227 H   0  0  0  0  0  0  0  0  0  0  0  0
   34.7040   29.6550   43.1544 H   0  0  0  0  0  0  0  0  0  0  0  0
   37.0256   30.6035   43.1889 H   0  0  0  0  0  0  0  0  0  0  0  0
   38.6874   31.6612   51.2111 H   0  0  0  0  0  0  0  0  0  0  0  0
   39.0509   33.1979   49.2093 H   0  0  0  0  0  0  0  0  0  0  0  0
   40.3222   31.4113   46.1402 H   0  0  0  0  0  0  0  0  0  0  0  0
   39.7102   29.7464   45.9396 H   0  0  0  0  0  0  0  0  0  0  0  0
   41.5126   30.5331   44.2281 H   0  0  0  0  0  0  0  0  0  0  0  0
   40.0386   29.8178   43.5272 H   0  0  0  0  0  0  0  0  0  0  0  0
   41.0179   32.1816   42.9241 H   0  0  0  0  0  0  0  0  0  0  0  0
   40.5364   33.1214   45.0792 H   0  0  0  0  0  0  0  0  0  0  0  0
   39.6783   33.9072   43.6975 H   0  0  0  0  0  0  0  0  0  0  0  0
   38.3233   33.3004   45.8740 H   0  0  0  0  0  0  0  0  0  0  0  0
   37.6001   32.9588   44.2848 H   0  0  0  0  0  0  0  0  0  0  0  0
  1 11  1  0
  2  1  2  0
  3  2  1  0
  4  5  1  0
  4  3  2  0
  5  6  2  0
  6  1  1  0
  7  8  2  0
  7 13  1  0
  9  8  1  0
 10  9  2  0
 11 10  1  0
 11 12  2  0
 12  7  1  0
 13 14  1  0
 13 16  1  0
 15 13  1  0
 17  6  1  0
 17 18  1  0
 19 18  1  0
 20 19  1  0
 20 21  1  0
 21 22  1  0
 22 17  1  0
  2 23  1  0
  3 24  1  0
  4 25  1  0
  5 26  1  0
  8 27  1  0
  9 28  1  0
 18 29  1  0
 18 30  1  0
 19 31  1  0
 19 32  1  0
 20 33  1  0
 21 34  1  0
 21 35  1  0
 22 36  1  0
 22 37  1  0
M  ISO  8  23  14  24  14  25  14  26  14  27  14  28  14  29  13  30  13
M  ISO  7  31  13  32  13  33   5  34  13  35  13  36  13  37  13
M  END
>  <minimizedAffinity>  (1) 
-6.59833765

>  <minimizedRMSD>  (1) 
0.155609801

$$$$
