
     RDKit          3D

 29 31  0  0  0  0  0  0  0  0999 V2000
   36.3210   30.5090   46.6080 C   0  0  0  0  0  0  0  0  0  0  0  0
   35.0260   30.0290   46.6000 C   0  0  0  0  0  0  0  0  0  0  0  0
   34.3350   29.7170   45.4480 C   0  0  0  0  0  0  0  0  0  0  0  0
   34.9570   29.8900   44.2260 C   0  0  0  0  0  0  0  0  0  0  0  0
   36.2700   30.3770   44.2030 C   0  0  0  0  0  0  0  0  0  0  0  0
   36.9200   30.6750   45.3930 C   0  0  0  0  0  0  0  0  0  0  0  0
   37.4050   30.2920   50.0860 C   0  0  0  0  0  0  0  0  0  0  0  0
   38.2200   31.4040   50.2300 C   0  0  0  0  0  0  0  0  0  0  0  0
   38.4050   32.2440   49.1260 C   0  0  0  0  0  0  0  0  0  0  0  0
   37.7720   31.9120   47.9750 N   0  0  0  0  0  0  0  0  0  0  0  0
   36.9810   30.8150   47.8650 C   0  0  0  0  0  0  0  0  0  0  0  0
   36.8230   30.0400   48.9250 N   0  0  0  0  0  0  0  0  0  0  0  0
   37.2100   29.3890   51.2800 C   0  0  0  0  0  0  0  0  0  0  0  0
   35.8560   29.1490   51.4500 F   0  0  0  0  0  0  0  0  0  0  0  0
   37.9400   28.2660   51.0950 F   0  0  0  0  0  0  0  0  0  0  0  0
   37.6670   30.0900   52.4010 F   0  0  0  0  0  0  0  0  0  0  0  0
   38.2900   31.1850   45.2610 C   0  0  0  0  0  0  0  0  0  0  0  0
   39.4930   30.4250   45.4300 C   0  0  0  0  0  0  0  0  0  0  0  0
   40.7920   31.7640   45.0860 S   0  0  0  0  0  0  0  0  0  0  0  0
   39.4260   33.0520   44.7900 C   0  0  0  0  0  0  0  0  0  0  0  0
   38.4030   32.4620   44.9480 N   0  0  0  0  0  0  0  0  0  0  0  0
   34.5179   29.8878   47.5654 H   0  0  0  0  0  0  0  0  0  0  0  0
   33.3044   29.3362   45.5009 H   0  0  0  0  0  0  0  0  0  0  0  0
   34.4313   29.6500   43.2900 H   0  0  0  0  0  0  0  0  0  0  0  0
   36.7859   30.5233   43.2426 H   0  0  0  0  0  0  0  0  0  0  0  0
   38.7103   31.6213   51.1904 H   0  0  0  0  0  0  0  0  0  0  0  0
   39.0402   33.1398   49.1903 H   0  0  0  0  0  0  0  0  0  0  0  0
   39.6259   29.3637   45.6869 H   0  0  0  0  0  0  0  0  0  0  0  0
   39.5526   34.1131   44.5291 H   0  0  0  0  0  0  0  0  0  0  0  0
  1 11  1  0
  2  1  2  0
  3  2  1  0
  4  3  2  0
  5  4  1  0
  5  6  2  0
  6  1  1  0
  7  8  2  0
  7 13  1  0
  9  8  1  0
 10  9  2  0
 11 10  1  0
 11 12  2  0
 12  7  1  0
 13 14  1  0
 13 16  1  0
 15 13  1  0
 17  6  1  0
 17 18  2  0
 19 18  1  0
 20 21  2  0
 20 19  1  0
 21 17  1  0
  2 22  1  0
  3 23  1  0
  4 24  1  0
  5 25  1  0
  8 26  1  0
  9 27  1  0
 18 28  1  0
 20 29  1  0
M  ISO  8  22  14  23  14  24  14  25  14  26  14  27  14  28  14  29  14
M  END
>  <minimizedAffinity>  (1) 
-6.5420742

>  <minimizedRMSD>  (1) 
0.638581216

$$$$
