
     RDKit          3D

 37 40  0  0  0  0  0  0  0  0999 V2000
   35.5630   30.2870   46.2610 C   0  0  0  0  0  0  0  0  0  0  0  0
   34.3000   29.8070   46.6250 C   0  0  0  0  0  0  0  0  0  0  0  0
   33.2990   29.5000   45.7390 C   0  0  0  0  0  0  0  0  0  0  0  0
   33.5460   29.6750   44.3930 C   0  0  0  0  0  0  0  0  0  0  0  0
   34.7980   30.1530   43.9920 C   0  0  0  0  0  0  0  0  0  0  0  0
   35.7940   30.4550   44.9230 C   0  0  0  0  0  0  0  0  0  0  0  0
   37.1040   30.9550   44.5180 C   0  0  0  0  0  0  0  0  0  0  0  0
   37.3620   32.3150   44.6990 C   0  0  0  0  0  0  0  0  0  0  0  0
   38.6140   32.5440   44.2620 N   0  0  0  0  0  0  0  0  0  0  0  0
   39.1340   31.3990   43.8250 C   0  0  0  0  0  0  0  0  0  0  0  0
   40.3610   31.0360   43.2740 C   0  0  0  0  0  0  0  0  0  0  0  0
   40.5910   29.7080   42.9100 C   0  0  0  0  0  0  0  0  0  0  0  0
   39.6310   28.7220   43.0780 C   0  0  0  0  0  0  0  0  0  0  0  0
   38.3890   29.0580   43.6280 C   0  0  0  0  0  0  0  0  0  0  0  0
   38.2260   30.3850   43.9660 C   0  0  0  0  0  0  0  0  0  0  0  0
   37.3600   30.2560   49.4410 C   0  0  0  0  0  0  0  0  0  0  0  0
   38.4040   31.1650   49.2150 C   0  0  0  0  0  0  0  0  0  0  0  0
   38.4730   31.7810   47.9620 C   0  0  0  0  0  0  0  0  0  0  0  0
   37.5380   31.4670   47.0440 N   0  0  0  0  0  0  0  0  0  0  0  0
   36.5310   30.5720   47.3010 C   0  0  0  0  0  0  0  0  0  0  0  0
   36.4660   29.9880   48.4910 N   0  0  0  0  0  0  0  0  0  0  0  0
   37.2840   29.5900   50.7950 C   0  0  0  0  0  0  0  0  0  0  0  0
   35.9530   29.4500   51.1550 F   0  0  0  0  0  0  0  0  0  0  0  0
   37.9380   28.4070   50.7120 F   0  0  0  0  0  0  0  0  0  0  0  0
   37.8790   30.4520   51.7190 F   0  0  0  0  0  0  0  0  0  0  0  0
   34.0957   29.6660   47.6966 H   0  0  0  0  0  0  0  0  0  0  0  0
   32.3269   29.1249   46.0916 H   0  0  0  0  0  0  0  0  0  0  0  0
   32.7713   29.4425   43.6475 H   0  0  0  0  0  0  0  0  0  0  0  0
   35.0023   30.2940   42.9204 H   0  0  0  0  0  0  0  0  0  0  0  0
   36.6710   33.0601   45.1201 H   0  0  0  0  0  0  0  0  0  0  0  0
   39.0920   33.4564   44.2651 H   0  0  0  0  0  0  0  0  0  0  0  0
   41.1455   31.7928   43.1263 H   0  0  0  0  0  0  0  0  0  0  0  0
   41.5644   29.4354   42.4763 H   0  0  0  0  0  0  0  0  0  0  0  0
   39.8439   27.6843   42.7814 H   0  0  0  0  0  0  0  0  0  0  0  0
   37.5947   28.3125   43.7807 H   0  0  0  0  0  0  0  0  0  0  0  0
   39.1442   31.3859   49.9981 H   0  0  0  0  0  0  0  0  0  0  0  0
   39.2699   32.5033   47.7315 H   0  0  0  0  0  0  0  0  0  0  0  0
  1  2  2  0
  1 20  1  0
  3  2  1  0
  4  3  2  0
  5  4  1  0
  5  6  2  0
  6  1  1  0
  7  8  2  0
  7  6  1  0
  9  8  1  0
 10 15  2  0
 10  9  1  0
 11 10  1  0
 12 13  1  0
 12 11  2  0
 13 14  2  0
 14 15  1  0
 15  7  1  0
 16 22  1  0
 17 16  2  0
 18 17  1  0
 19 20  1  0
 19 18  2  0
 20 21  2  0
 21 16  1  0
 22 23  1  0
 22 25  1  0
 24 22  1  0
  2 26  1  0
  3 27  1  0
  4 28  1  0
  5 29  1  0
  8 30  1  0
  9 31  1  0
 11 32  1  0
 12 33  1  0
 13 34  1  0
 14 35  1  0
 17 36  1  0
 18 37  1  0
M  ISO  8  26  14  27  14  28  14  29  14  30  14  31   9  32  14  33  14
M  ISO  4  34  14  35  14  36  14  37  14
M  END
>  <minimizedAffinity>  (1) 
-6.26284695

>  <minimizedRMSD>  (1) 
1.38097394

$$$$
