
     RDKit          3D

 23 24  0  0  0  0  0  0  0  0999 V2000
   35.8070   29.5670   48.6880 C   0  0  0  0  0  0  0  0  0  0  0  0
   35.3650   29.8800   47.4250 C   0  0  0  0  0  0  0  0  0  0  0  0
   36.2310   30.6380   46.6380 C   0  0  0  0  0  0  0  0  0  0  0  0
   37.4690   31.0660   47.0710 C   0  0  0  0  0  0  0  0  0  0  0  0
   37.8660   30.7190   48.3610 C   0  0  0  0  0  0  0  0  0  0  0  0
   37.0190   29.9590   49.1720 C   0  0  0  0  0  0  0  0  0  0  0  0
   40.3010   33.1140   45.9610 C   0  0  0  0  0  0  0  0  0  0  0  0
   40.0010   33.3660   44.5990 C   0  0  0  0  0  0  0  0  0  0  0  0
   38.8160   32.8200   44.0810 C   0  0  0  0  0  0  0  0  0  0  0  0
   38.0200   32.0830   44.9030 N   0  0  0  0  0  0  0  0  0  0  0  0
   38.3390   31.8660   46.1920 C   0  0  0  0  0  0  0  0  0  0  0  0
   39.4620   32.3730   46.7140 N   0  0  0  0  0  0  0  0  0  0  0  0
   34.8100   28.6150   49.7790 S   0  0  0  0  0  0  0  0  0  0  0  0
   33.8960   29.5450   50.5260 O   0  0  0  0  0  0  0  0  0  0  0  0
   34.0040   27.6880   48.9040 O   0  0  0  0  0  0  0  0  0  0  0  0
   34.3826   29.5508   47.0555 H   0  0  0  0  0  0  0  0  0  0  0  0
   35.9111   30.9083   45.6209 H   0  0  0  0  0  0  0  0  0  0  0  0
   38.8461   31.0433   48.7408 H   0  0  0  0  0  0  0  0  0  0  0  0
   37.3274   29.6801   50.1904 H   0  0  0  0  0  0  0  0  0  0  0  0
   41.2202   33.5236   46.4052 H   0  0  0  0  0  0  0  0  0  0  0  0
   40.6730   33.9682   43.9699 H   0  0  0  0  0  0  0  0  0  0  0  0
   38.5359   32.9848   43.0301 H   0  0  0  0  0  0  0  0  0  0  0  0
   35.5536   27.9099   50.6882 H   0  0  0  0  0  0  0  0  0  0  0  0
  1  6  2  0
  1 13  1  0
  2  1  1  0
  3  4  1  0
  3  2  2  0
  4  5  2  0
  5  6  1  0
  7 12  2  0
  8  7  1  0
  9  8  2  0
  9 10  1  0
 10 11  2  0
 11 12  1  0
 11  4  1  0
 13 14  2  0
 15 13  2  0
  2 16  1  0
  3 17  1  0
  5 18  1  0
  6 19  1  0
  7 20  1  0
  8 21  1  0
  9 22  1  0
 13 23  1  0
M  ISO  8  16  14  17  14  18  14  19  14  20  14  21  14  22  14  23  11
M  END
>  <minimizedAffinity>  (1) 
-5.04654837

>  <minimizedRMSD>  (1) 
5.23371601

$$$$
