
     RDKit          3D

 35 36  0  0  0  0  0  0  0  0999 V2000
   36.3550   30.5020   46.4680 C   0  0  0  0  0  0  0  0  0  0  0  0
   35.0160   30.0930   46.4350 C   0  0  0  0  0  0  0  0  0  0  0  0
   34.3700   29.7220   45.2730 C   0  0  0  0  0  0  0  0  0  0  0  0
   35.0740   29.7530   44.0770 C   0  0  0  0  0  0  0  0  0  0  0  0
   36.3910   30.1540   44.1000 C   0  0  0  0  0  0  0  0  0  0  0  0
   37.0400   30.5300   45.2850 C   0  0  0  0  0  0  0  0  0  0  0  0
   37.3860   30.3560   49.9660 C   0  0  0  0  0  0  0  0  0  0  0  0
   38.0760   31.5480   50.1370 C   0  0  0  0  0  0  0  0  0  0  0  0
   38.1830   32.4010   49.0290 C   0  0  0  0  0  0  0  0  0  0  0  0
   37.6140   32.0060   47.8870 N   0  0  0  0  0  0  0  0  0  0  0  0
   36.9510   30.8470   47.7380 C   0  0  0  0  0  0  0  0  0  0  0  0
   36.8590   30.0530   48.7940 N   0  0  0  0  0  0  0  0  0  0  0  0
   37.2520   29.4450   51.1680 C   0  0  0  0  0  0  0  0  0  0  0  0
   35.8980   29.1790   51.3730 F   0  0  0  0  0  0  0  0  0  0  0  0
   37.9760   28.3330   50.9430 F   0  0  0  0  0  0  0  0  0  0  0  0
   37.7090   30.1490   52.2790 F   0  0  0  0  0  0  0  0  0  0  0  0
   38.4160   31.0110   45.0500 C   0  0  0  0  0  0  0  0  0  0  0  0
   39.4460   30.5570   46.0560 C   0  0  0  0  0  0  0  0  0  0  0  0
   38.4750   32.5230   45.0170 C   0  0  0  0  0  0  0  0  0  0  0  0
   38.8790   30.6110   43.6330 C   0  0  0  0  0  0  0  0  0  0  0  0
   34.4527   30.0662   47.3794 H   0  0  0  0  0  0  0  0  0  0  0  0
   33.3162   29.4074   45.2943 H   0  0  0  0  0  0  0  0  0  0  0  0
   34.5906   29.4637   43.1322 H   0  0  0  0  0  0  0  0  0  0  0  0
   36.9541   30.1804   43.1554 H   0  0  0  0  0  0  0  0  0  0  0  0
   38.5227   31.8140   51.1064 H   0  0  0  0  0  0  0  0  0  0  0  0
   38.7162   33.3606   49.0979 H   0  0  0  0  0  0  0  0  0  0  0  0
   39.0638   30.7255   47.0736 H   0  0  0  0  0  0  0  0  0  0  0  0
   39.6501   29.4855   45.9137 H   0  0  0  0  0  0  0  0  0  0  0  0
   40.3746   31.1292   45.9137 H   0  0  0  0  0  0  0  0  0  0  0  0
   38.4902   32.9119   46.0459 H   0  0  0  0  0  0  0  0  0  0  0  0
   39.3863   32.8430   44.4906 H   0  0  0  0  0  0  0  0  0  0  0  0
   37.5914   32.9130   44.4906 H   0  0  0  0  0  0  0  0  0  0  0  0
   39.7095   29.8935   43.7075 H   0  0  0  0  0  0  0  0  0  0  0  0
   38.0416   30.1476   43.0908 H   0  0  0  0  0  0  0  0  0  0  0  0
   39.2159   31.5068   43.0908 H   0  0  0  0  0  0  0  0  0  0  0  0
  1 11  1  0
  2  1  2  0
  3  2  1  0
  4  5  1  0
  4  3  2  0
  5  6  2  0
  6  1  1  0
  7  8  2  0
  7 13  1  0
  9  8  1  0
 10  9  2  0
 11 10  1  0
 11 12  2  0
 12  7  1  0
 13 14  1  0
 13 16  1  0
 15 13  1  0
 17  6  1  0
 17 18  1  0
 19 17  1  0
 20 17  1  0
  2 21  1  0
  3 22  1  0
  4 23  1  0
  5 24  1  0
  8 25  1  0
  9 26  1  0
 18 27  1  0
 18 28  1  0
 18 29  1  0
 19 30  1  0
 19 31  1  0
 19 32  1  0
 20 33  1  0
 20 34  1  0
 20 35  1  0
M  ISO  8  21  14  22  14  23  14  24  14  25  14  26  14  27   8  28   8
M  ISO  7  29   8  30   8  31   8  32   8  33   8  34   8  35   8
M  END
>  <minimizedAffinity>  (1) 
-5.92523766

>  <minimizedRMSD>  (1) 
0.62525475

$$$$
