
     RDKit          3D

 30 32  0  0  0  0  0  0  0  0999 V2000
   37.6510   30.6210   50.1350 C   0  0  0  0  0  0  0  0  0  0  0  0
   38.5330   31.7110   50.0780 C   0  0  0  0  0  0  0  0  0  0  0  0
   38.6450   32.3840   48.8580 C   0  0  0  0  0  0  0  0  0  0  0  0
   37.9000   31.9590   47.7820 N   0  0  0  0  0  0  0  0  0  0  0  0
   37.0660   30.9020   47.8940 C   0  0  0  0  0  0  0  0  0  0  0  0
   36.9490   30.2520   49.0470 N   0  0  0  0  0  0  0  0  0  0  0  0
   36.3070   30.4870   46.7560 N   0  0  0  0  0  0  0  0  0  0  0  0
   36.8300   30.5580   45.5160 C   0  0  0  0  0  0  0  0  0  0  0  0
   36.1250   30.1660   44.3970 C   0  0  0  0  0  0  0  0  0  0  0  0
   34.8650   29.7040   44.6420 C   0  0  0  0  0  0  0  0  0  0  0  0
   34.1370   29.3210   43.6880 O   0  0  0  0  0  0  0  0  0  0  0  0
   34.3060   29.6170   45.8530 N   0  0  0  0  0  0  0  0  0  0  0  0
   35.0580   30.0200   46.9050 C   0  0  0  0  0  0  0  0  0  0  0  0
   34.5510   29.9470   48.0570 O   0  0  0  0  0  0  0  0  0  0  0  0
   32.9550   29.1160   46.0530 C   0  0  0  0  0  0  0  0  0  0  0  0
   32.6090   27.8160   46.4700 C   0  0  0  0  0  0  0  0  0  0  0  0
   31.2930   27.5360   46.6010 C   0  0  0  0  0  0  0  0  0  0  0  0
   30.3440   28.4940   46.3310 C   0  0  0  0  0  0  0  0  0  0  0  0
   31.2730   29.9620   45.8430 S   0  0  0  0  0  0  0  0  0  0  0  0
   36.6550   30.2220   43.0100 C   0  0  0  0  0  0  0  0  0  0  0  0
   37.5323   30.0637   51.0759 H   0  0  0  0  0  0  0  0  0  0  0  0
   39.1133   32.0235   50.9587 H   0  0  0  0  0  0  0  0  0  0  0  0
   39.3222   33.2451   48.7590 H   0  0  0  0  0  0  0  0  0  0  0  0
   37.8535   30.9414   45.3920 H   0  0  0  0  0  0  0  0  0  0  0  0
   33.3787   27.0589   46.6806 H   0  0  0  0  0  0  0  0  0  0  0  0
   30.9785   26.5334   46.9263 H   0  0  0  0  0  0  0  0  0  0  0  0
   29.2512   28.3880   46.3982 H   0  0  0  0  0  0  0  0  0  0  0  0
   37.7485   30.3375   43.0397 H   0  0  0  0  0  0  0  0  0  0  0  0
   36.3988   29.2918   42.4817 H   0  0  0  0  0  0  0  0  0  0  0  0
   36.2101   31.0781   42.4817 H   0  0  0  0  0  0  0  0  0  0  0  0
  2  1  2  0
  3  2  1  0
  4  5  1  0
  4  3  2  0
  5  6  2  0
  6  1  1  0
  7 13  1  0
  7  5  1  0
  8  7  1  0
  9 10  1  0
  9  8  2  0
 10 12  1  0
 11 10  2  0
 12 15  1  0
 12 13  1  0
 13 14  2  0
 15 16  2  0
 16 17  1  0
 18 17  2  0
 19 15  1  0
 19 18  1  0
 20  9  1  0
  1 21  1  0
  2 22  1  0
  3 23  1  0
  8 24  1  0
 16 25  1  0
 17 26  1  0
 18 27  1  0
 20 28  1  0
 20 29  1  0
 20 30  1  0
M  ISO  8  21  14  22  14  23  14  24  14  25  14  26  14  27  14  28   8
M  ISO  2  29   8  30   8
M  END
>  <minimizedAffinity>  (1) 
-4.72352409

>  <minimizedRMSD>  (1) 
3.6974659

$$$$
