
     RDKit          3D

 33 35  0  0  1  0  0  0  0  0999 V2000
   35.8890   30.1210   49.7260 C   0  0  2  0  0  0  0  0  0  0  0  0
   36.9570   31.0400   49.1960 C   0  0  0  0  0  0  0  0  0  0  0  0
   37.0840   32.2990   49.8230 C   0  0  0  0  0  0  0  0  0  0  0  0
   38.0770   33.1610   49.3160 C   0  0  0  0  0  0  0  0  0  0  0  0
   38.8480   32.7370   48.2630 N   0  0  0  0  0  0  0  0  0  0  0  0
   38.6870   31.5180   47.6940 C   0  0  0  0  0  0  0  0  0  0  0  0
   37.7460   30.6700   48.1560 N   0  0  0  0  0  0  0  0  0  0  0  0
   36.3500   29.5620   51.0850 C   0  0  0  0  0  0  0  0  0  0  0  0
   35.6400   28.9930   48.7900 C   0  0  0  0  0  0  0  0  0  0  0  0
   34.4950   29.2560   47.8810 C   0  0  0  0  0  0  0  0  0  0  0  0
   34.1070   30.4310   47.3590 N   0  0  0  0  0  0  0  0  0  0  0  0
   33.0580   30.5910   46.5740 C   0  0  0  0  0  0  0  0  0  0  0  0
   32.2810   29.5390   46.2360 N   0  0  0  0  0  0  0  0  0  0  0  0
   32.5950   28.3230   46.7140 C   0  0  0  0  0  0  0  0  0  0  0  0
   31.7600   27.3110   46.3220 C   0  0  0  0  0  0  0  0  0  0  0  0
   32.0220   26.0340   46.7700 C   0  0  0  0  0  0  0  0  0  0  0  0
   33.1100   25.8310   47.5890 C   0  0  0  0  0  0  0  0  0  0  0  0
   33.9340   26.8680   47.9670 C   0  0  0  0  0  0  0  0  0  0  0  0
   33.6950   28.1590   47.5340 C   0  0  0  0  0  0  0  0  0  0  0  0
   34.9537   30.6893   49.8363 H   0  0  0  0  0  0  0  0  0  0  0  0
   36.4400   32.5922   50.6651 H   0  0  0  0  0  0  0  0  0  0  0  0
   38.2314   34.1569   49.7569 H   0  0  0  0  0  0  0  0  0  0  0  0
   39.3271   31.2186   46.8510 H   0  0  0  0  0  0  0  0  0  0  0  0
   35.8775   30.1349   51.8965 H   0  0  0  0  0  0  0  0  0  0  0  0
   36.0580   28.5045   51.1646 H   0  0  0  0  0  0  0  0  0  0  0  0
   37.4438   29.6473   51.1646 H   0  0  0  0  0  0  0  0  0  0  0  0
   36.5432   28.8310   48.1833 H   0  0  0  0  0  0  0  0  0  0  0  0
   35.3948   28.1051   49.3913 H   0  0  0  0  0  0  0  0  0  0  0  0
   32.8137   31.5927   46.1906 H   0  0  0  0  0  0  0  0  0  0  0  0
   30.9008   27.5123   45.6653 H   0  0  0  0  0  0  0  0  0  0  0  0
   31.3746   25.1937   46.4789 H   0  0  0  0  0  0  0  0  0  0  0  0
   33.3267   24.8150   47.9506 H   0  0  0  0  0  0  0  0  0  0  0  0
   34.7941   26.6662   48.6224 H   0  0  0  0  0  0  0  0  0  0  0  0
  1  8  1  0
  2  1  1  0
  2  3  2  0
  4  3  1  0
  5  4  2  0
  6  7  2  0
  6  5  1  0
  7  2  1  0
  9  1  1  0
 10  9  1  0
 11 10  2  0
 12 11  1  0
 13 12  2  0
 13 14  1  0
 14 19  2  0
 15 14  1  0
 15 16  2  0
 16 17  1  0
 17 18  2  0
 19 10  1  0
 19 18  1  0
  1 20  1  1
  3 21  1  0
  4 22  1  0
  6 23  1  0
  8 24  1  0
  8 25  1  0
  8 26  1  0
  9 27  1  0
  9 28  1  0
 12 29  1  0
 15 30  1  0
 16 31  1  0
 17 32  1  0
 18 33  1  0
M  ISO  8  20   8  21  14  22  14  23  14  24   8  25   8  26   8  27   8
M  ISO  6  28   8  29  14  30  14  31  14  32  14  33  14
M  END
>  <minimizedAffinity>  (1) 
-5.40700722

>  <minimizedRMSD>  (1) 
1.60583007

$$$$
