
     RDKit          3D

 32 33  0  0  1  0  0  0  0  0999 V2000
   36.6110   30.6260   49.7820 C   0  0  2  0  0  0  0  0  0  0  0  0
   37.5760   31.5160   49.0900 C   0  0  0  0  0  0  0  0  0  0  0  0
   37.8290   32.7810   49.6110 C   0  0  0  0  0  0  0  0  0  0  0  0
   38.7400   33.5860   48.9220 C   0  0  0  0  0  0  0  0  0  0  0  0
   39.3310   33.1010   47.7860 N   0  0  0  0  0  0  0  0  0  0  0  0
   39.0610   31.8570   47.3030 C   0  0  0  0  0  0  0  0  0  0  0  0
   38.1790   31.0930   47.9810 N   0  0  0  0  0  0  0  0  0  0  0  0
   37.1880   30.2140   51.1610 C   0  0  0  0  0  0  0  0  0  0  0  0
   36.2380   29.4190   49.0190 C   0  0  0  0  0  0  0  0  0  0  0  0
   35.1680   29.4780   48.0970 N   0  0  0  0  0  0  0  0  0  0  0  0
   34.9960   29.9010   46.8470 C   0  0  0  0  0  0  0  0  0  0  0  0
   33.8330   29.8230   46.1220 C   0  0  0  0  0  0  0  0  0  0  0  0
   33.8250   30.3500   44.7360 C   0  0  0  0  0  0  0  0  0  0  0  0
   32.7190   29.2620   46.7040 C   0  0  0  0  0  0  0  0  0  0  0  0
   31.6690   29.1990   46.0330 O   0  0  0  0  0  0  0  0  0  0  0  0
   32.8500   28.8290   47.9460 N   0  0  0  0  0  0  0  0  0  0  0  0
   34.0200   28.9290   48.6160 C   0  0  0  0  0  0  0  0  0  0  0  0
   33.9290   28.4500   49.8000 O   0  0  0  0  0  0  0  0  0  0  0  0
   35.6846   31.2083   49.8951 H   0  0  0  0  0  0  0  0  0  0  0  0
   37.3325   33.1329   50.5273 H   0  0  0  0  0  0  0  0  0  0  0  0
   38.9791   34.5957   49.2873 H   0  0  0  0  0  0  0  0  0  0  0  0
   39.5468   31.4861   46.3884 H   0  0  0  0  0  0  0  0  0  0  0  0
   36.5738   30.6525   51.9613 H   0  0  0  0  0  0  0  0  0  0  0  0
   37.1778   29.1177   51.2500 H   0  0  0  0  0  0  0  0  0  0  0  0
   38.2217   30.5795   51.2500 H   0  0  0  0  0  0  0  0  0  0  0  0
   37.1298   29.1102   48.4539 H   0  0  0  0  0  0  0  0  0  0  0  0
   35.8723   28.7285   49.7932 H   0  0  0  0  0  0  0  0  0  0  0  0
   35.8656   30.3548   46.3491 H   0  0  0  0  0  0  0  0  0  0  0  0
   33.8083   31.4496   44.7619 H   0  0  0  0  0  0  0  0  0  0  0  0
   34.7284   30.0093   44.2090 H   0  0  0  0  0  0  0  0  0  0  0  0
   32.9323   29.9821   44.2090 H   0  0  0  0  0  0  0  0  0  0  0  0
   32.0383   28.4037   48.4163 H   0  0  0  0  0  0  0  0  0  0  0  0
  1  8  1  0
  2  3  2  0
  2  1  1  0
  4  3  1  0
  5  4  2  0
  6  5  1  0
  6  7  2  0
  7  2  1  0
  9  1  1  0
 10 17  1  0
 10  9  1  0
 11 10  1  0
 12 14  1  0
 12 11  2  0
 13 12  1  0
 14 16  1  0
 15 14  2  0
 16 17  1  0
 17 18  2  0
  1 19  1  1
  3 20  1  0
  4 21  1  0
  6 22  1  0
  8 23  1  0
  8 24  1  0
  8 25  1  0
  9 26  1  0
  9 27  1  0
 11 28  1  0
 13 29  1  0
 13 30  1  0
 13 31  1  0
 16 32  1  0
M  ISO  8  19   8  20  14  21  14  22  14  23   8  24   8  25   8  26   8
M  ISO  6  27   8  28  14  29   8  30   8  31   8  32   9
M  END
>  <minimizedAffinity>  (1) 
-5.27145576

>  <minimizedRMSD>  (1) 
1.48150003

$$$$
