
     RDKit          3D

 28 29  0  0  1  0  0  0  0  0999 V2000
   36.5570   30.3190   50.1100 C   0  0  2  0  0  0  0  0  0  0  0  0
   37.4460   31.2470   49.3500 C   0  0  0  0  0  0  0  0  0  0  0  0
   37.5330   32.5830   49.8060 C   0  0  0  0  0  0  0  0  0  0  0  0
   38.3510   33.4560   49.0740 C   0  0  0  0  0  0  0  0  0  0  0  0
   39.0170   32.9780   47.9710 N   0  0  0  0  0  0  0  0  0  0  0  0
   38.9050   31.6850   47.5670 C   0  0  0  0  0  0  0  0  0  0  0  0
   38.1190   30.8110   48.2540 N   0  0  0  0  0  0  0  0  0  0  0  0
   37.1350   30.1130   51.5260 C   0  0  0  0  0  0  0  0  0  0  0  0
   36.3980   29.0120   49.4250 C   0  0  0  0  0  0  0  0  0  0  0  0
   35.1430   28.9380   48.6630 C   0  0  0  0  0  0  0  0  0  0  0  0
   34.3080   27.9290   49.0540 C   0  0  0  0  0  0  0  0  0  0  0  0
   33.0730   27.7230   48.4290 C   0  0  0  0  0  0  0  0  0  0  0  0
   32.7740   28.6030   47.4060 C   0  0  0  0  0  0  0  0  0  0  0  0
   33.6210   29.6250   47.0120 C   0  0  0  0  0  0  0  0  0  0  0  0
   34.7930   29.7610   47.6610 N   0  0  0  0  0  0  0  0  0  0  0  0
   35.5573   30.7738   50.1714 H   0  0  0  0  0  0  0  0  0  0  0  0
   36.9830   32.9226   50.6961 H   0  0  0  0  0  0  0  0  0  0  0  0
   38.4579   34.5077   49.3782 H   0  0  0  0  0  0  0  0  0  0  0  0
   39.4539   31.3419   46.6776 H   0  0  0  0  0  0  0  0  0  0  0  0
   36.3760   30.3835   52.2748 H   0  0  0  0  0  0  0  0  0  0  0  0
   37.4190   29.0583   51.6563 H   0  0  0  0  0  0  0  0  0  0  0  0
   38.0220   30.7503   51.6563 H   0  0  0  0  0  0  0  0  0  0  0  0
   37.2418   28.8683   48.7341 H   0  0  0  0  0  0  0  0  0  0  0  0
   36.3749   28.2261   50.1943 H   0  0  0  0  0  0  0  0  0  0  0  0
   34.6130   27.2655   49.8766 H   0  0  0  0  0  0  0  0  0  0  0  0
   32.3880   26.9170   48.7308 H   0  0  0  0  0  0  0  0  0  0  0  0
   31.8157   28.4856   46.8788 H   0  0  0  0  0  0  0  0  0  0  0  0
   33.3447   30.3056   46.1932 H   0  0  0  0  0  0  0  0  0  0  0  0
  1  8  1  0
  2  3  2  0
  2  1  1  0
  4  3  1  0
  5  4  2  0
  6  5  1  0
  6  7  2  0
  7  2  1  0
  9  1  1  0
 10 11  2  0
 10  9  1  0
 12 11  1  0
 13 12  2  0
 14 13  1  0
 14 15  2  0
 15 10  1  0
  1 16  1  1
  3 17  1  0
  4 18  1  0
  6 19  1  0
  8 20  1  0
  8 21  1  0
  8 22  1  0
  9 23  1  0
  9 24  1  0
 11 25  1  0
 12 26  1  0
 13 27  1  0
 14 28  1  0
M  ISO  8  16   8  17  14  18  14  19  14  20   8  21   8  22   8  23   8
M  ISO  5  24   8  25  14  26  14  27  14  28  14
M  END
>  <minimizedAffinity>  (1) 
-5.20194292

>  <minimizedRMSD>  (1) 
0.826340914

$$$$
