
     RDKit          3D

 27 28  0  0  1  0  0  0  0  0999 V2000
   36.5990   30.3600   50.1090 C   0  0  2  0  0  0  0  0  0  0  0  0
   37.4980   31.2560   49.3150 C   0  0  0  0  0  0  0  0  0  0  0  0
   37.6400   32.5750   49.7480 C   0  0  0  0  0  0  0  0  0  0  0  0
   38.4760   33.4020   48.9510 C   0  0  0  0  0  0  0  0  0  0  0  0
   39.0760   32.8730   47.8400 N   0  0  0  0  0  0  0  0  0  0  0  0
   38.8990   31.5780   47.4680 C   0  0  0  0  0  0  0  0  0  0  0  0
   38.0980   30.7690   48.2230 N   0  0  0  0  0  0  0  0  0  0  0  0
   37.2390   30.1300   51.4980 C   0  0  0  0  0  0  0  0  0  0  0  0
   36.3470   29.0510   49.4610 C   0  0  0  0  0  0  0  0  0  0  0  0
   35.1130   28.9730   48.6830 C   0  0  0  0  0  0  0  0  0  0  0  0
   34.1930   28.0470   49.1750 C   0  0  0  0  0  0  0  0  0  0  0  0
   32.9680   27.8560   48.5430 C   0  0  0  0  0  0  0  0  0  0  0  0
   32.6900   28.5950   47.4310 N   0  0  0  0  0  0  0  0  0  0  0  0
   33.5900   29.4850   46.9690 C   0  0  0  0  0  0  0  0  0  0  0  0
   34.7720   29.6800   47.5650 N   0  0  0  0  0  0  0  0  0  0  0  0
   35.6230   30.8610   50.1892 H   0  0  0  0  0  0  0  0  0  0  0  0
   37.1359   32.9510   50.6505 H   0  0  0  0  0  0  0  0  0  0  0  0
   38.6393   34.4552   49.2234 H   0  0  0  0  0  0  0  0  0  0  0  0
   39.3955   31.1853   46.5684 H   0  0  0  0  0  0  0  0  0  0  0  0
   36.5142   30.3905   52.2834 H   0  0  0  0  0  0  0  0  0  0  0  0
   37.5253   29.0727   51.5993 H   0  0  0  0  0  0  0  0  0  0  0  0
   38.1328   30.7632   51.5993 H   0  0  0  0  0  0  0  0  0  0  0  0
   37.1893   28.8366   48.7868 H   0  0  0  0  0  0  0  0  0  0  0  0
   36.2422   28.3202   50.2764 H   0  0  0  0  0  0  0  0  0  0  0  0
   34.4387   27.4610   50.0729 H   0  0  0  0  0  0  0  0  0  0  0  0
   32.2416   27.1267   48.9309 H   0  0  0  0  0  0  0  0  0  0  0  0
   33.3446   30.0713   46.0712 H   0  0  0  0  0  0  0  0  0  0  0  0
  1  8  1  0
  2  3  2  0
  2  1  1  0
  4  3  1  0
  5  4  2  0
  6  5  1  0
  6  7  2  0
  7  2  1  0
  9  1  1  0
 10 11  2  0
 10  9  1  0
 12 11  1  0
 13 12  2  0
 14 13  1  0
 14 15  2  0
 15 10  1  0
  1 16  1  1
  3 17  1  0
  4 18  1  0
  6 19  1  0
  8 20  1  0
  8 21  1  0
  8 22  1  0
  9 23  1  0
  9 24  1  0
 11 25  1  0
 12 26  1  0
 14 27  1  0
M  ISO  8  16   8  17  14  18  14  19  14  20   8  21   8  22   8  23   8
M  ISO  4  24   8  25  14  26  14  27  14
M  END
>  <minimizedAffinity>  (1) 
-5.1565032

>  <minimizedRMSD>  (1) 
0.662312508

$$$$
