
     RDKit          3D

 34 35  0  0  1  0  0  0  0  0999 V2000
   36.7120   30.5400   49.8850 C   0  0  2  0  0  0  0  0  0  0  0  0
   37.6510   31.4520   49.1540 C   0  0  0  0  0  0  0  0  0  0  0  0
   37.8870   32.7130   49.7050 C   0  0  0  0  0  0  0  0  0  0  0  0
   38.7600   33.5580   48.9760 C   0  0  0  0  0  0  0  0  0  0  0  0
   39.2990   33.0970   47.8120 N   0  0  0  0  0  0  0  0  0  0  0  0
   39.0370   31.8600   47.3150 C   0  0  0  0  0  0  0  0  0  0  0  0
   38.2060   31.0480   48.0060 N   0  0  0  0  0  0  0  0  0  0  0  0
   37.2400   30.2920   51.3110 C   0  0  0  0  0  0  0  0  0  0  0  0
   36.5010   29.2480   49.2030 C   0  0  0  0  0  0  0  0  0  0  0  0
   35.2460   29.0250   48.5690 N   0  0  0  0  0  0  0  0  0  0  0  0
   34.7980   30.0740   47.7120 C   0  0  0  0  0  0  0  0  0  0  0  0
   33.5120   29.6680   47.0450 C   0  0  0  0  0  0  0  0  0  0  0  0
   33.1130   28.2440   47.2600 C   0  0  0  0  0  0  0  0  0  0  0  0
   33.0070   28.0130   48.7480 C   0  0  0  0  0  0  0  0  0  0  0  0
   34.2360   28.5130   49.4640 C   0  0  0  0  0  0  0  0  0  0  0  0
   35.7356   31.0458   49.9134 H   0  0  0  0  0  0  0  0  0  0  0  0
   37.4224   33.0318   50.6497 H   0  0  0  0  0  0  0  0  0  0  0  0
   38.9984   34.5673   49.3426 H   0  0  0  0  0  0  0  0  0  0  0  0
   39.4914   31.5263   46.3704 H   0  0  0  0  0  0  0  0  0  0  0  0
   36.4968   30.6411   52.0430 H   0  0  0  0  0  0  0  0  0  0  0  0
   37.4182   29.2160   51.4540 H   0  0  0  0  0  0  0  0  0  0  0  0
   38.1819   30.8419   51.4540 H   0  0  0  0  0  0  0  0  0  0  0  0
   37.2789   29.1546   48.4309 H   0  0  0  0  0  0  0  0  0  0  0  0
   36.5380   28.5015   50.0101 H   0  0  0  0  0  0  0  0  0  0  0  0
   34.6306   30.9849   48.3054 H   0  0  0  0  0  0  0  0  0  0  0  0
   35.5613   30.2690   46.9443 H   0  0  0  0  0  0  0  0  0  0  0  0
   33.6218   29.8323   45.9629 H   0  0  0  0  0  0  0  0  0  0  0  0
   32.7212   30.2818   47.5010 H   0  0  0  0  0  0  0  0  0  0  0  0
   32.1414   28.0515   46.7815 H   0  0  0  0  0  0  0  0  0  0  0  0
   33.8580   27.5658   46.8184 H   0  0  0  0  0  0  0  0  0  0  0  0
   32.1253   28.5466   49.1324 H   0  0  0  0  0  0  0  0  0  0  0  0
   32.9136   26.9318   48.9279 H   0  0  0  0  0  0  0  0  0  0  0  0
   34.6680   27.6812   50.0397 H   0  0  0  0  0  0  0  0  0  0  0  0
   33.9215   29.3442   50.1122 H   0  0  0  0  0  0  0  0  0  0  0  0
  1  8  1  0
  2  3  2  0
  2  1  1  0
  4  3  1  0
  5  4  2  0
  6  5  1  0
  6  7  2  0
  7  2  1  0
  9  1  1  0
 10  9  1  0
 10 15  1  0
 11 10  1  0
 12 13  1  0
 12 11  1  0
 13 14  1  0
 14 15  1  0
  1 16  1  1
  3 17  1  0
  4 18  1  0
  6 19  1  0
  8 20  1  0
  8 21  1  0
  8 22  1  0
  9 23  1  0
  9 24  1  0
 11 25  1  0
 11 26  1  0
 12 27  1  0
 12 28  1  0
 13 29  1  0
 13 30  1  0
 14 31  1  0
 14 32  1  0
 15 33  1  0
 15 34  1  0
M  ISO  8  16   8  17  14  18  14  19  14  20   8  21   8  22   8  23   8
M  ISO  8  24   8  25  13  26  13  27  13  28  13  29  13  30  13  31  13
M  ISO  3  32  13  33  13  34  13
M  END
>  <minimizedAffinity>  (1) 
-4.98581791

>  <minimizedRMSD>  (1) 
1.15470481

$$$$
