
     RDKit          3D

 32 33  0  0  1  0  0  0  0  0999 V2000
   36.5690   30.6130   50.1740 C   0  0  2  0  0  0  0  0  0  0  0  0
   37.5120   31.3820   49.3010 C   0  0  0  0  0  0  0  0  0  0  0  0
   37.8050   32.7110   49.6880 C   0  0  0  0  0  0  0  0  0  0  0  0
   38.6700   33.4340   48.8670 C   0  0  0  0  0  0  0  0  0  0  0  0
   39.1780   32.8360   47.7570 N   0  0  0  0  0  0  0  0  0  0  0  0
   38.8790   31.5550   47.4080 C   0  0  0  0  0  0  0  0  0  0  0  0
   38.0380   30.8180   48.1860 N   0  0  0  0  0  0  0  0  0  0  0  0
   37.3370   30.1480   51.4370 C   0  0  0  0  0  0  0  0  0  0  0  0
   36.0110   29.4300   49.4720 C   0  0  0  0  0  0  0  0  0  0  0  0
   34.6510   29.5720   49.0530 N   0  0  0  0  0  0  0  0  0  0  0  0
   33.9190   28.3730   49.3190 C   0  0  0  0  0  0  0  0  0  0  0  0
   33.9010   27.4170   48.1450 C   0  0  0  0  0  0  0  0  0  0  0  0
   33.3010   27.9570   47.0300 O   0  0  0  0  0  0  0  0  0  0  0  0
   33.3730   29.3320   46.9660 C   0  0  0  0  0  0  0  0  0  0  0  0
   34.6450   29.8170   47.6230 C   0  0  0  0  0  0  0  0  0  0  0  0
   35.7277   31.2681   50.4443 H   0  0  0  0  0  0  0  0  0  0  0  0
   37.3700   33.1542   50.5959 H   0  0  0  0  0  0  0  0  0  0  0  0
   38.9370   34.4721   49.1139 H   0  0  0  0  0  0  0  0  0  0  0  0
   39.3157   31.1154   46.4991 H   0  0  0  0  0  0  0  0  0  0  0  0
   36.7956   30.4758   52.3367 H   0  0  0  0  0  0  0  0  0  0  0  0
   37.4151   29.0508   51.4354 H   0  0  0  0  0  0  0  0  0  0  0  0
   38.3454   30.5874   51.4354 H   0  0  0  0  0  0  0  0  0  0  0  0
   36.6263   29.2385   48.5805 H   0  0  0  0  0  0  0  0  0  0  0  0
   36.0290   28.6015   50.1954 H   0  0  0  0  0  0  0  0  0  0  0  0
   34.3804   27.8641   50.1782 H   0  0  0  0  0  0  0  0  0  0  0  0
   32.8776   28.6622   49.5233 H   0  0  0  0  0  0  0  0  0  0  0  0
   34.9378   27.1501   47.8924 H   0  0  0  0  0  0  0  0  0  0  0  0
   33.3154   26.5349   48.4434 H   0  0  0  0  0  0  0  0  0  0  0  0
   33.3644   29.6481   45.9124 H   0  0  0  0  0  0  0  0  0  0  0  0
   32.5089   29.7626   47.4932 H   0  0  0  0  0  0  0  0  0  0  0  0
   35.4996   29.2930   47.1702 H   0  0  0  0  0  0  0  0  0  0  0  0
   34.7130   30.9037   47.4662 H   0  0  0  0  0  0  0  0  0  0  0  0
  1  8  1  0
  2  3  2  0
  2  1  1  0
  4  3  1  0
  5  4  2  0
  6  5  1  0
  6  7  2  0
  7  2  1  0
  9  1  1  0
 10 11  1  0
 10  9  1  0
 12 11  1  0
 13 12  1  0
 14 13  1  0
 14 15  1  0
 15 10  1  0
  1 16  1  1
  3 17  1  0
  4 18  1  0
  6 19  1  0
  8 20  1  0
  8 21  1  0
  8 22  1  0
  9 23  1  0
  9 24  1  0
 11 25  1  0
 11 26  1  0
 12 27  1  0
 12 28  1  0
 14 29  1  0
 14 30  1  0
 15 31  1  0
 15 32  1  0
M  ISO  8  16   8  17  14  18  14  19  14  20   8  21   8  22   8  23   8
M  ISO  8  24   8  25  13  26  13  27  13  28  13  29  13  30  13  31  13
M  ISO  1  32  13
M  END
>  <minimizedAffinity>  (1) 
-4.82871675

>  <minimizedRMSD>  (1) 
1.81220973

$$$$
