
     RDKit          3D

 33 35  0  0  0  0  0  0  0  0999 V2000
   25.2430   31.8410   42.0950 C   0  0  0  0  0  0  0  0  0  0  0  0
   25.1680   33.2420   42.0020 C   0  0  0  0  0  0  0  0  0  0  0  0
   25.5650   33.9890   43.1300 C   0  0  0  0  0  0  0  0  0  0  0  0
   25.9960   33.3090   44.2380 N   0  0  0  0  0  0  0  0  0  0  0  0
   26.0510   31.9680   44.2800 C   0  0  0  0  0  0  0  0  0  0  0  0
   25.6770   31.2380   43.2150 N   0  0  0  0  0  0  0  0  0  0  0  0
   26.5110   31.3360   45.4690 N   0  0  0  0  0  0  0  0  0  0  0  0
   26.2370   31.8300   46.6800 C   0  0  0  0  0  0  0  0  0  0  0  0
   26.6720   31.2350   47.8500 C   0  0  0  0  0  0  0  0  0  0  0  0
   27.4060   30.1000   47.6640 C   0  0  0  0  0  0  0  0  0  0  0  0
   27.8500   29.4810   48.6740 O   0  0  0  0  0  0  0  0  0  0  0  0
   27.7150   29.5550   46.4810 N   0  0  0  0  0  0  0  0  0  0  0  0
   27.2480   30.2010   45.3730 C   0  0  0  0  0  0  0  0  0  0  0  0
   27.5220   29.7120   44.2530 O   0  0  0  0  0  0  0  0  0  0  0  0
   28.4830   28.3670   46.3220 C   0  0  0  0  0  0  0  0  0  0  0  0
   29.8520   28.2700   46.1480 C   0  0  0  0  0  0  0  0  0  0  0  0
   30.4440   27.0330   46.0070 C   0  0  0  0  0  0  0  0  0  0  0  0
   29.7340   25.8460   46.0300 C   0  0  0  0  0  0  0  0  0  0  0  0
   28.3680   25.9650   46.2040 C   0  0  0  0  0  0  0  0  0  0  0  0
   27.7200   27.1940   46.3510 C   0  0  0  0  0  0  0  0  0  0  0  0
   26.3950   31.7430   49.2090 C   0  0  0  0  0  0  0  0  0  0  0  0
   24.9405   31.2265   41.2343 H   0  0  0  0  0  0  0  0  0  0  0  0
   24.8135   33.7358   41.0852 H   0  0  0  0  0  0  0  0  0  0  0  0
   25.5295   35.0884   43.1204 H   0  0  0  0  0  0  0  0  0  0  0  0
   25.6390   32.7506   46.7492 H   0  0  0  0  0  0  0  0  0  0  0  0
   30.4686   29.1806   46.1221 H   0  0  0  0  0  0  0  0  0  0  0  0
   31.5344   26.9876   45.8695 H   0  0  0  0  0  0  0  0  0  0  0  0
   30.2258   24.8686   45.9169 H   0  0  0  0  0  0  0  0  0  0  0  0
   27.7616   25.0475   46.2279 H   0  0  0  0  0  0  0  0  0  0  0  0
   26.6294   27.2389   46.4871 H   0  0  0  0  0  0  0  0  0  0  0  0
   26.7830   31.0314   49.9526 H   0  0  0  0  0  0  0  0  0  0  0  0
   26.8864   32.7180   49.3432 H   0  0  0  0  0  0  0  0  0  0  0  0
   25.3093   31.8580   49.3432 H   0  0  0  0  0  0  0  0  0  0  0  0
  1  6  2  0
  2  1  1  0
  2  3  2  0
  3  4  1  0
  4  5  2  0
  5  7  1  0
  6  5  1  0
  7  8  1  0
  8  9  2  0
  9 21  1  0
 10  9  1  0
 10 11  2  0
 12 10  1  0
 13  7  1  0
 13 12  1  0
 14 13  2  0
 15 20  1  0
 15 12  1  0
 16 15  2  0
 17 18  2  0
 17 16  1  0
 18 19  1  0
 19 20  2  0
  1 22  1  0
  2 23  1  0
  3 24  1  0
  8 25  1  0
 16 26  1  0
 17 27  1  0
 18 28  1  0
 19 29  1  0
 20 30  1  0
 21 31  1  0
 21 32  1  0
 21 33  1  0
M  ISO  8  22  14  23  14  24  14  25  14  26  14  27  14  28  14  29  14
M  ISO  4  30  14  31   8  32   8  33   8
M  END
>  <minimizedAffinity>  (1) 
-4.55084181

>  <minimizedRMSD>  (1) 
9.35596561

$$$$
