
     RDKit          3D

 21 21  0  0  1  0  0  0  0  0999 V2000
   36.5240   30.2990   50.2300 C   0  0  2  0  0  0  0  0  0  0  0  0
   37.4010   31.1110   49.3330 C   0  0  0  0  0  0  0  0  0  0  0  0
   37.6580   32.4500   49.7140 C   0  0  0  0  0  0  0  0  0  0  0  0
   38.4620   33.2130   48.8610 C   0  0  0  0  0  0  0  0  0  0  0  0
   38.9550   32.6360   47.7150 N   0  0  0  0  0  0  0  0  0  0  0  0
   38.6820   31.3430   47.3860 C   0  0  0  0  0  0  0  0  0  0  0  0
   37.9000   30.5800   48.2040 N   0  0  0  0  0  0  0  0  0  0  0  0
   37.2660   30.0490   51.5640 C   0  0  0  0  0  0  0  0  0  0  0  0
   36.1580   28.9960   49.6200 C   0  0  0  0  0  0  0  0  0  0  0  0
   35.2340   29.0690   48.5410 N   0  0  0  0  0  0  0  0  0  0  0  0
   35.5939   30.8615   50.3987 H   0  0  0  0  0  0  0  0  0  0  0  0
   37.2432   32.8722   50.6412 H   0  0  0  0  0  0  0  0  0  0  0  0
   38.6965   34.2599   49.1038 H   0  0  0  0  0  0  0  0  0  0  0  0
   39.0921   30.9132   46.4602 H   0  0  0  0  0  0  0  0  0  0  0  0
   36.5943   30.2753   52.4052 H   0  0  0  0  0  0  0  0  0  0  0  0
   37.5789   28.9958   51.6177 H   0  0  0  0  0  0  0  0  0  0  0  0
   38.1525   30.6981   51.6177 H   0  0  0  0  0  0  0  0  0  0  0  0
   37.0792   28.5243   49.2474 H   0  0  0  0  0  0  0  0  0  0  0  0
   35.6571   28.4192   50.4114 H   0  0  0  0  0  0  0  0  0  0  0  0
   34.2766   29.1446   48.9133 H   0  0  0  0  0  0  0  0  0  0  0  0
   35.4444   29.8960   47.9642 H   0  0  0  0  0  0  0  0  0  0  0  0
  1  8  1  0
  2  3  2  0
  2  1  1  0
  4  3  1  0
  5  4  2  0
  6  5  1  0
  6  7  2  0
  7  2  1  0
  9  1  1  0
 10  9  1  0
  1 11  1  1
  3 12  1  0
  4 13  1  0
  6 14  1  0
  8 15  1  0
  8 16  1  0
  8 17  1  0
  9 18  1  0
  9 19  1  0
 10 20  1  0
 10 21  1  0
M  ISO  8  11   8  12  14  13  14  14  14  15   8  16   8  17   8  18   8
M  ISO  3  19   8  20   5  21   5
M  END
>  <minimizedAffinity>  (1) 
-4.04054451

>  <minimizedRMSD>  (1) 
0.27196452

$$$$
