
     RDKit          3D

 26 27  0  0  0  0  0  0  0  0999 V2000
   37.4180   30.1240   50.3560 C   0  0  0  0  0  0  0  0  0  0  0  0
   38.3720   31.1710   50.3610 C   0  0  0  0  0  0  0  0  0  0  0  0
   38.5040   31.9400   49.1930 C   0  0  0  0  0  0  0  0  0  0  0  0
   37.7080   31.6400   48.1190 N   0  0  0  0  0  0  0  0  0  0  0  0
   36.8130   30.6360   48.1550 C   0  0  0  0  0  0  0  0  0  0  0  0
   36.6750   29.8970   49.2520 N   0  0  0  0  0  0  0  0  0  0  0  0
   36.0190   30.3800   47.0010 N   0  0  0  0  0  0  0  0  0  0  0  0
   36.4990   30.5150   45.7670 C   0  0  0  0  0  0  0  0  0  0  0  0
   35.7660   30.2790   44.6280 C   0  0  0  0  0  0  0  0  0  0  0  0
   34.4630   29.8810   44.8780 C   0  0  0  0  0  0  0  0  0  0  0  0
   33.7120   29.6390   43.8960 O   0  0  0  0  0  0  0  0  0  0  0  0
   33.9230   29.7260   46.0900 N   0  0  0  0  0  0  0  0  0  0  0  0
   34.7250   29.9830   47.1590 C   0  0  0  0  0  0  0  0  0  0  0  0
   34.2440   29.8470   48.3040 O   0  0  0  0  0  0  0  0  0  0  0  0
   36.2570   30.4160   43.2460 C   0  0  0  0  0  0  0  0  0  0  0  0
   32.5660   29.3110   46.3290 C   0  0  0  0  0  0  0  0  0  0  0  0
   37.2828   29.4972   51.2498 H   0  0  0  0  0  0  0  0  0  0  0  0
   38.9883   31.3749   51.2490 H   0  0  0  0  0  0  0  0  0  0  0  0
   39.2302   32.7646   49.1418 H   0  0  0  0  0  0  0  0  0  0  0  0
   37.5452   30.8346   45.6514 H   0  0  0  0  0  0  0  0  0  0  0  0
   37.3164   30.7116   43.2609 H   0  0  0  0  0  0  0  0  0  0  0  0
   36.1520   29.4543   42.7225 H   0  0  0  0  0  0  0  0  0  0  0  0
   35.6692   31.1845   42.7225 H   0  0  0  0  0  0  0  0  0  0  0  0
   32.3850   29.2556   47.4126 H   0  0  0  0  0  0  0  0  0  0  0  0
   31.8752   30.0389   45.8786 H   0  0  0  0  0  0  0  0  0  0  0  0
   32.4005   28.3212   45.8786 H   0  0  0  0  0  0  0  0  0  0  0  0
  1  2  2  0
  3  2  1  0
  4  5  1  0
  4  3  2  0
  5  6  2  0
  6  1  1  0
  7 13  1  0
  7  5  1  0
  8  7  1  0
  9 10  1  0
  9  8  2  0
 10 12  1  0
 11 10  2  0
 12 16  1  0
 12 13  1  0
 13 14  2  0
 15  9  1  0
  1 17  1  0
  2 18  1  0
  3 19  1  0
  8 20  1  0
 15 21  1  0
 15 22  1  0
 15 23  1  0
 16 24  1  0
 16 25  1  0
 16 26  1  0
M  ISO  8  17  14  18  14  19  14  20  14  21   8  22   8  23   8  24   8
M  ISO  2  25   8  26   8
M  END
>  <minimizedAffinity>  (1) 
-4.44704199

>  <minimizedRMSD>  (1) 
2.90799189

$$$$
