
     RDKit          3D

 32 33  0  0  1  0  0  0  0  0999 V2000
   36.1130   30.2000   49.8550 C   0  0  2  0  0  0  0  0  0  0  0  0
   37.1160   31.1190   49.2600 C   0  0  0  0  0  0  0  0  0  0  0  0
   37.2530   32.4010   49.7970 C   0  0  0  0  0  0  0  0  0  0  0  0
   38.2050   33.2340   49.1780 C   0  0  0  0  0  0  0  0  0  0  0  0
   38.9230   32.7550   48.1120 N   0  0  0  0  0  0  0  0  0  0  0  0
   38.7520   31.4920   47.6230 C   0  0  0  0  0  0  0  0  0  0  0  0
   37.8400   30.6820   48.2110 N   0  0  0  0  0  0  0  0  0  0  0  0
   36.7320   29.5690   51.1440 C   0  0  0  0  0  0  0  0  0  0  0  0
   35.6940   29.1260   48.9560 C   0  0  0  0  0  0  0  0  0  0  0  0
   34.6310   29.3600   48.0170 C   0  0  0  0  0  0  0  0  0  0  0  0
   34.1380   30.4210   47.2880 C   0  0  0  0  0  0  0  0  0  0  0  0
   33.0800   30.0410   46.5430 N   0  0  0  0  0  0  0  0  0  0  0  0
   32.8730   28.7390   46.7770 C   0  0  0  0  0  0  0  0  0  0  0  0
   33.7960   28.3390   47.6530 N   0  0  0  0  0  0  0  0  0  0  0  0
   33.8250   26.9410   48.1070 C   0  0  0  0  0  0  0  0  0  0  0  0
   33.8340   25.9590   46.9540 C   0  0  0  0  0  0  0  0  0  0  0  0
   35.2140   30.7949   50.0737 H   0  0  0  0  0  0  0  0  0  0  0  0
   36.6522   32.7404   50.6537 H   0  0  0  0  0  0  0  0  0  0  0  0
   38.3709   34.2575   49.5454 H   0  0  0  0  0  0  0  0  0  0  0  0
   39.3446   31.1385   46.7664 H   0  0  0  0  0  0  0  0  0  0  0  0
   36.2783   30.0315   52.0329 H   0  0  0  0  0  0  0  0  0  0  0  0
   36.5355   28.4867   51.1531 H   0  0  0  0  0  0  0  0  0  0  0  0
   37.8178   29.7446   51.1531 H   0  0  0  0  0  0  0  0  0  0  0  0
   36.5790   28.8358   48.3708 H   0  0  0  0  0  0  0  0  0  0  0  0
   35.2745   28.3702   49.6363 H   0  0  0  0  0  0  0  0  0  0  0  0
   34.5517   31.4400   47.3108 H   0  0  0  0  0  0  0  0  0  0  0  0
   32.0863   28.1140   46.3291 H   0  0  0  0  0  0  0  0  0  0  0  0
   34.7308   26.7846   48.7111 H   0  0  0  0  0  0  0  0  0  0  0  0
   32.9125   26.7603   48.6940 H   0  0  0  0  0  0  0  0  0  0  0  0
   33.8434   24.9318   47.3473 H   0  0  0  0  0  0  0  0  0  0  0  0
   32.9345   26.1078   46.3386 H   0  0  0  0  0  0  0  0  0  0  0  0
   34.7307   26.1242   46.3386 H   0  0  0  0  0  0  0  0  0  0  0  0
  1  8  1  0
  2  3  2  0
  2  1  1  0
  4  3  1  0
  5  4  2  0
  6  5  1  0
  6  7  2  0
  7  2  1  0
  9  1  1  0
 10  9  1  0
 11 10  2  0
 12 13  2  0
 12 11  1  0
 13 14  1  0
 14 10  1  0
 14 15  1  0
 16 15  1  0
  1 17  1  1
  3 18  1  0
  4 19  1  0
  6 20  1  0
  8 21  1  0
  8 22  1  0
  8 23  1  0
  9 24  1  0
  9 25  1  0
 11 26  1  0
 13 27  1  0
 15 28  1  0
 15 29  1  0
 16 30  1  0
 16 31  1  0
 16 32  1  0
M  ISO  8  17   8  18  14  19  14  20  14  21   8  22   8  23   8  24   8
M  ISO  8  25   8  26  14  27  14  28   8  29   8  30   8  31   8  32   8
M  END
>  <minimizedAffinity>  (1) 
-4.74785566

>  <minimizedRMSD>  (1) 
1.42339826

$$$$
