
     RDKit          3D

 29 30  0  0  1  0  0  0  0  0999 V2000
   36.1450   30.3010   49.8060 C   0  0  2  0  0  0  0  0  0  0  0  0
   37.1740   31.2400   49.2440 C   0  0  0  0  0  0  0  0  0  0  0  0
   37.2470   32.5240   49.7910 C   0  0  0  0  0  0  0  0  0  0  0  0
   38.2100   33.3780   49.2170 C   0  0  0  0  0  0  0  0  0  0  0  0
   38.9850   32.9250   48.2050 N   0  0  0  0  0  0  0  0  0  0  0  0
   38.8810   31.6550   47.6960 C   0  0  0  0  0  0  0  0  0  0  0  0
   37.9580   30.8140   48.2350 N   0  0  0  0  0  0  0  0  0  0  0  0
   36.7140   29.6960   51.1260 C   0  0  0  0  0  0  0  0  0  0  0  0
   35.8130   29.2040   48.8990 C   0  0  0  0  0  0  0  0  0  0  0  0
   34.8850   29.4270   47.8350 C   0  0  0  0  0  0  0  0  0  0  0  0
   34.8520   30.0560   46.6130 C   0  0  0  0  0  0  0  0  0  0  0  0
   33.6540   29.8920   46.0020 N   0  0  0  0  0  0  0  0  0  0  0  0
   32.8830   29.1550   46.8110 C   0  0  0  0  0  0  0  0  0  0  0  0
   33.6350   28.8820   47.9110 N   0  0  0  0  0  0  0  0  0  0  0  0
   33.0490   28.0770   48.9990 C   0  0  0  0  0  0  0  0  0  0  0  0
   35.2225   30.8766   49.9723 H   0  0  0  0  0  0  0  0  0  0  0  0
   36.5951   32.8471   50.6160 H   0  0  0  0  0  0  0  0  0  0  0  0
   38.3306   34.4060   49.5894 H   0  0  0  0  0  0  0  0  0  0  0  0
   39.5292   31.3247   46.8710 H   0  0  0  0  0  0  0  0  0  0  0  0
   36.2464   30.1932   51.9886 H   0  0  0  0  0  0  0  0  0  0  0  0
   36.4942   28.6187   51.1602 H   0  0  0  0  0  0  0  0  0  0  0  0
   37.8027   29.8494   51.1602 H   0  0  0  0  0  0  0  0  0  0  0  0
   36.7554   28.8739   48.4377 H   0  0  0  0  0  0  0  0  0  0  0  0
   35.2950   28.4812   49.5465 H   0  0  0  0  0  0  0  0  0  0  0  0
   35.6928   30.6215   46.1850 H   0  0  0  0  0  0  0  0  0  0  0  0
   31.8477   28.8341   46.6235 H   0  0  0  0  0  0  0  0  0  0  0  0
   33.3536   28.4954   49.9697 H   0  0  0  0  0  0  0  0  0  0  0  0
   31.9521   28.0962   48.9194 H   0  0  0  0  0  0  0  0  0  0  0  0
   33.4043   27.0390   48.9194 H   0  0  0  0  0  0  0  0  0  0  0  0
  1  8  1  0
  2  3  2  0
  2  1  1  0
  4  3  1  0
  5  4  2  0
  6  5  1  0
  6  7  2  0
  7  2  1  0
  9  1  1  0
 10 14  1  0
 10  9  1  0
 11 10  2  0
 12 11  1  0
 12 13  2  0
 13 14  1  0
 14 15  1  0
  1 16  1  1
  3 17  1  0
  4 18  1  0
  6 19  1  0
  8 20  1  0
  8 21  1  0
  8 22  1  0
  9 23  1  0
  9 24  1  0
 11 25  1  0
 13 26  1  0
 15 27  1  0
 15 28  1  0
 15 29  1  0
M  ISO  8  16   8  17  14  18  14  19  14  20   8  21   8  22   8  23   8
M  ISO  6  24   8  25  14  26  14  27   8  28   8  29   8
M  END
>  <minimizedAffinity>  (1) 
-4.71714211

>  <minimizedRMSD>  (1) 
1.14763844

$$$$
