
     RDKit          3D

 42 45  0  0  1  0  0  0  0  0999 V2000
   33.9680   29.2610   47.8300 C   0  0  0  0  0  0  0  0  0  0  0  0
   33.9030   30.1670   46.8070 C   0  0  0  0  0  0  0  0  0  0  0  0
   32.8030   29.9950   46.0330 N   0  0  0  0  0  0  0  0  0  0  0  0
   32.1260   28.9630   46.5450 C   0  0  0  0  0  0  0  0  0  0  0  0
   32.8350   28.5270   47.6260 N   0  0  0  0  0  0  0  0  0  0  0  0
   34.8320   28.9380   48.9090 C   0  0  0  0  0  0  0  0  0  0  0  0
   35.2620   29.9770   49.8310 C   0  0  2  0  0  0  0  0  0  0  0  0
   36.4720   30.7330   49.3260 C   0  0  0  0  0  0  0  0  0  0  0  0
   36.7690   31.9470   49.9330 C   0  0  0  0  0  0  0  0  0  0  0  0
   37.8920   32.6220   49.4100 C   0  0  0  0  0  0  0  0  0  0  0  0
   38.5940   32.0770   48.3870 N   0  0  0  0  0  0  0  0  0  0  0  0
   38.2630   30.8650   47.8120 C   0  0  0  0  0  0  0  0  0  0  0  0
   37.1850   30.1980   48.3010 N   0  0  0  0  0  0  0  0  0  0  0  0
   35.6890   29.2710   51.1740 C   0  0  0  0  0  0  0  0  0  0  0  0
   32.3200   27.3760   48.3940 C   0  0  0  0  0  0  0  0  0  0  0  0
   30.9530   27.5400   48.7880 N   0  0  0  0  0  0  0  0  0  0  0  0
   30.3630   28.1450   49.8140 C   0  0  0  0  0  0  0  0  0  0  0  0
   29.0220   28.0450   49.7810 N   0  0  0  0  0  0  0  0  0  0  0  0
   28.7110   27.3420   48.6890 C   0  0  0  0  0  0  0  0  0  0  0  0
   27.5180   26.9240   48.1370 C   0  0  0  0  0  0  0  0  0  0  0  0
   27.5440   26.2100   46.9920 N   0  0  0  0  0  0  0  0  0  0  0  0
   28.7060   25.9020   46.3870 C   0  0  0  0  0  0  0  0  0  0  0  0
   29.8590   26.3110   46.9270 N   0  0  0  0  0  0  0  0  0  0  0  0
   29.9000   27.0320   48.0790 C   0  0  0  0  0  0  0  0  0  0  0  0
   26.2740   27.2360   48.7540 N   0  0  0  0  0  0  0  0  0  0  0  0
   34.6583   30.9474   46.6320 H   0  0  0  0  0  0  0  0  0  0  0  0
   31.1805   28.5459   46.1681 H   0  0  0  0  0  0  0  0  0  0  0  0
   34.3180   28.1730   49.5096 H   0  0  0  0  0  0  0  0  0  0  0  0
   35.7651   28.6430   48.4067 H   0  0  0  0  0  0  0  0  0  0  0  0
   34.4316   30.6876   49.9550 H   0  0  0  0  0  0  0  0  0  0  0  0
   36.1711   32.3529   50.7623 H   0  0  0  0  0  0  0  0  0  0  0  0
   38.1977   33.5905   49.8325 H   0  0  0  0  0  0  0  0  0  0  0  0
   38.8552   30.4520   46.9822 H   0  0  0  0  0  0  0  0  0  0  0  0
   35.3310   29.8629   52.0293 H   0  0  0  0  0  0  0  0  0  0  0  0
   35.2485   28.2639   51.2150 H   0  0  0  0  0  0  0  0  0  0  0  0
   36.7855   29.1935   51.2150 H   0  0  0  0  0  0  0  0  0  0  0  0
   32.4005   26.4731   47.7708 H   0  0  0  0  0  0  0  0  0  0  0  0
   32.9218   27.2932   49.3110 H   0  0  0  0  0  0  0  0  0  0  0  0
   30.9137   28.6722   50.6070 H   0  0  0  0  0  0  0  0  0  0  0  0
   28.7073   25.3179   45.4549 H   0  0  0  0  0  0  0  0  0  0  0  0
   25.3929   26.9155   48.3275 H   0  0  0  0  0  0  0  0  0  0  0  0
   26.2548   27.7823   49.6270 H   0  0  0  0  0  0  0  0  0  0  0  0
  1  6  1  0
  2  1  2  0
  3  4  2  0
  3  2  1  0
  4  5  1  0
  5  1  1  0
  5 15  1  0
  6  7  1  0
  7 14  1  0
  8  7  1  0
  8  9  2  0
 10  9  1  0
 11 10  2  0
 12 13  2  0
 12 11  1  0
 13  8  1  0
 15 16  1  0
 16 17  1  0
 18 17  2  0
 19 18  1  0
 20 19  2  0
 20 25  1  0
 21 20  1  0
 22 23  1  0
 22 21  2  0
 23 24  2  0
 24 19  1  0
 24 16  1  0
  2 26  1  0
  4 27  1  0
  6 28  1  0
  6 29  1  0
  7 30  1  1
  9 31  1  0
 10 32  1  0
 12 33  1  0
 14 34  1  0
 14 35  1  0
 14 36  1  0
 15 37  1  0
 15 38  1  0
 17 39  1  0
 22 40  1  0
 25 41  1  0
 25 42  1  0
M  ISO  8  26  14  27  14  28   8  29   8  30   8  31  14  32  14  33  14
M  ISO  7  34   8  35   8  36   8  37   8  38   8  39  14  40  14
M  END
>  <minimizedAffinity>  (1) 
-6.2777667

>  <minimizedRMSD>  (1) 
2.67542839

$$$$
