
     RDKit          3D

 45 48  0  0  1  0  0  0  0  0999 V2000
   34.2270   29.4500   47.8510 C   0  0  0  0  0  0  0  0  0  0  0  0
   34.1880   30.3870   46.8580 C   0  0  0  0  0  0  0  0  0  0  0  0
   33.0780   30.2770   46.0820 N   0  0  0  0  0  0  0  0  0  0  0  0
   32.3650   29.2430   46.5710 C   0  0  0  0  0  0  0  0  0  0  0  0
   33.0840   28.7680   47.6340 N   0  0  0  0  0  0  0  0  0  0  0  0
   35.0870   29.0710   48.9160 C   0  0  0  0  0  0  0  0  0  0  0  0
   35.5760   30.0710   49.8530 C   0  0  2  0  0  0  0  0  0  0  0  0
   36.7370   30.8710   49.3010 C   0  0  0  0  0  0  0  0  0  0  0  0
   36.9590   32.1290   49.8520 C   0  0  0  0  0  0  0  0  0  0  0  0
   38.0410   32.8400   49.2770 C   0  0  0  0  0  0  0  0  0  0  0  0
   38.7650   32.2970   48.2830 N   0  0  0  0  0  0  0  0  0  0  0  0
   38.5040   31.0450   47.7730 C   0  0  0  0  0  0  0  0  0  0  0  0
   37.4730   30.3300   48.2960 N   0  0  0  0  0  0  0  0  0  0  0  0
   36.1140   29.3030   51.1230 C   0  0  0  0  0  0  0  0  0  0  0  0
   32.5510   27.6030   48.3800 C   0  0  0  0  0  0  0  0  0  0  0  0
   32.4870   26.4000   47.5790 C   0  0  0  0  0  0  0  0  0  0  0  0
   33.6470   25.6740   47.3060 C   0  0  0  0  0  0  0  0  0  0  0  0
   33.5840   24.5260   46.5410 C   0  0  0  0  0  0  0  0  0  0  0  0
   32.3860   24.0690   46.0320 C   0  0  0  0  0  0  0  0  0  0  0  0
   31.2250   24.7780   46.2950 C   0  0  0  0  0  0  0  0  0  0  0  0
   29.9850   24.3870   45.8220 C   0  0  0  0  0  0  0  0  0  0  0  0
   28.8250   25.0990   46.0870 C   0  0  0  0  0  0  0  0  0  0  0  0
   28.8920   26.2600   46.8600 C   0  0  0  0  0  0  0  0  0  0  0  0
   30.1320   26.6100   47.3070 C   0  0  0  0  0  0  0  0  0  0  0  0
   31.2910   25.9390   47.0680 C   0  0  0  0  0  0  0  0  0  0  0  0
   34.9686   31.1465   46.7036 H   0  0  0  0  0  0  0  0  0  0  0  0
   31.4050   28.8606   46.1941 H   0  0  0  0  0  0  0  0  0  0  0  0
   34.5445   28.3199   49.5090 H   0  0  0  0  0  0  0  0  0  0  0  0
   36.0007   28.7459   48.3969 H   0  0  0  0  0  0  0  0  0  0  0  0
   34.7491   30.7627   50.0717 H   0  0  0  0  0  0  0  0  0  0  0  0
   36.3446   32.5382   50.6675 H   0  0  0  0  0  0  0  0  0  0  0  0
   38.2909   33.8453   49.6472 H   0  0  0  0  0  0  0  0  0  0  0  0
   39.1174   30.6317   46.9588 H   0  0  0  0  0  0  0  0  0  0  0  0
   35.7603   29.8080   52.0340 H   0  0  0  0  0  0  0  0  0  0  0  0
   35.7427   28.2676   51.1100 H   0  0  0  0  0  0  0  0  0  0  0  0
   37.2139   29.2983   51.1100 H   0  0  0  0  0  0  0  0  0  0  0  0
   33.2024   27.4134   49.2458 H   0  0  0  0  0  0  0  0  0  0  0  0
   31.5235   27.8500   48.6854 H   0  0  0  0  0  0  0  0  0  0  0  0
   34.6145   26.0171   47.7013 H   0  0  0  0  0  0  0  0  0  0  0  0
   34.5071   23.9650   46.3334 H   0  0  0  0  0  0  0  0  0  0  0  0
   32.3529   23.1526   45.4245 H   0  0  0  0  0  0  0  0  0  0  0  0
   29.9166   23.4747   45.2112 H   0  0  0  0  0  0  0  0  0  0  0  0
   27.8592   24.7518   45.6912 H   0  0  0  0  0  0  0  0  0  0  0  0
   27.9981   26.8566   47.0944 H   0  0  0  0  0  0  0  0  0  0  0  0
   30.2016   27.5214   47.9189 H   0  0  0  0  0  0  0  0  0  0  0  0
  1  6  1  0
  2  1  2  0
  3  4  2  0
  3  2  1  0
  4  5  1  0
  5  1  1  0
  5 15  1  0
  6  7  1  0
  7 14  1  0
  8  9  2  0
  8  7  1  0
 10  9  1  0
 11 10  2  0
 12 11  1  0
 12 13  2  0
 13  8  1  0
 16 15  1  0
 17 16  2  0
 18 17  1  0
 19 20  1  0
 19 18  2  0
 20 25  2  0
 21 22  2  0
 21 20  1  0
 22 23  1  0
 23 24  2  0
 25 24  1  0
 25 16  1  0
  2 26  1  0
  4 27  1  0
  6 28  1  0
  6 29  1  0
  7 30  1  1
  9 31  1  0
 10 32  1  0
 12 33  1  0
 14 34  1  0
 14 35  1  0
 14 36  1  0
 15 37  1  0
 15 38  1  0
 17 39  1  0
 18 40  1  0
 19 41  1  0
 21 42  1  0
 22 43  1  0
 23 44  1  0
 24 45  1  0
M  ISO  8  26  14  27  14  28   8  29   8  30   8  31  14  32  14  33  14
M  ISO  8  34   8  35   8  36   8  37   8  38   8  39  14  40  14  41  14
M  ISO  4  42  14  43  14  44  14  45  14
M  END
>  <minimizedAffinity>  (1) 
-5.56999779

>  <minimizedRMSD>  (1) 
1.39785588

$$$$
