
     RDKit          3D

 38 40  0  0  1  0  0  0  0  0999 V2000
   34.7570   28.9520   48.8030 C   0  0  0  0  0  0  0  0  0  0  0  0
   33.8520   29.2870   47.7600 C   0  0  0  0  0  0  0  0  0  0  0  0
   33.7210   30.2410   46.7930 C   0  0  0  0  0  0  0  0  0  0  0  0
   32.6230   30.0650   46.0270 N   0  0  0  0  0  0  0  0  0  0  0  0
   32.0020   28.9670   46.4890 C   0  0  0  0  0  0  0  0  0  0  0  0
   32.7570   28.5050   47.5400 N   0  0  0  0  0  0  0  0  0  0  0  0
   32.3200   27.3070   48.2470 C   0  0  0  0  0  0  0  0  0  0  0  0
   30.9210   27.4260   48.7100 C   0  0  0  0  0  0  0  0  0  0  0  0
   30.4050   28.0410   49.8220 C   0  0  0  0  0  0  0  0  0  0  0  0
   29.0500   28.0320   50.0620 C   0  0  0  0  0  0  0  0  0  0  0  0
   28.1480   27.4150   49.2130 C   0  0  0  0  0  0  0  0  0  0  0  0
   28.7050   26.8080   48.1070 C   0  0  0  0  0  0  0  0  0  0  0  0
   30.0240   26.8190   47.8770 N   0  0  0  0  0  0  0  0  0  0  0  0
   35.1880   29.9770   49.7440 C   0  0  2  0  0  0  0  0  0  0  0  0
   36.4270   30.7010   49.2670 C   0  0  0  0  0  0  0  0  0  0  0  0
   36.7950   31.8630   49.9260 C   0  0  0  0  0  0  0  0  0  0  0  0
   37.9420   32.5200   49.4320 C   0  0  0  0  0  0  0  0  0  0  0  0
   38.6000   31.9930   48.3720 N   0  0  0  0  0  0  0  0  0  0  0  0
   38.2070   30.8380   47.7420 C   0  0  0  0  0  0  0  0  0  0  0  0
   37.1050   30.1930   48.2050 N   0  0  0  0  0  0  0  0  0  0  0  0
   35.5620   29.2610   51.0920 C   0  0  0  0  0  0  0  0  0  0  0  0
   35.6650   28.5584   48.3228 H   0  0  0  0  0  0  0  0  0  0  0  0
   34.1784   28.2573   49.4296 H   0  0  0  0  0  0  0  0  0  0  0  0
   34.4346   31.0663   46.6524 H   0  0  0  0  0  0  0  0  0  0  0  0
   31.0721   28.5248   46.1021 H   0  0  0  0  0  0  0  0  0  0  0  0
   32.3992   26.4441   47.5694 H   0  0  0  0  0  0  0  0  0  0  0  0
   32.9635   27.1752   49.1293 H   0  0  0  0  0  0  0  0  0  0  0  0
   31.0803   28.5460   50.5284 H   0  0  0  0  0  0  0  0  0  0  0  0
   28.6692   28.5346   50.9633 H   0  0  0  0  0  0  0  0  0  0  0  0
   27.0651   27.4091   49.4063 H   0  0  0  0  0  0  0  0  0  0  0  0
   28.0442   26.2982   47.3905 H   0  0  0  0  0  0  0  0  0  0  0  0
   34.3720   30.7063   49.8551 H   0  0  0  0  0  0  0  0  0  0  0  0
   36.2263   32.2507   50.7841 H   0  0  0  0  0  0  0  0  0  0  0  0
   38.2973   33.4488   49.9021 H   0  0  0  0  0  0  0  0  0  0  0  0
   38.7709   30.4447   46.8833 H   0  0  0  0  0  0  0  0  0  0  0  0
   35.2374   29.8824   51.9396 H   0  0  0  0  0  0  0  0  0  0  0  0
   35.0591   28.2839   51.1400 H   0  0  0  0  0  0  0  0  0  0  0  0
   36.6513   29.1155   51.1400 H   0  0  0  0  0  0  0  0  0  0  0  0
  1 14  1  0
  2  1  1  0
  3  2  2  0
  4  5  2  0
  4  3  1  0
  5  6  1  0
  6  2  1  0
  6  7  1  0
  7  8  1  0
  8  9  2  0
  9 10  1  0
 11 10  2  0
 12 11  1  0
 13 12  2  0
 13  8  1  0
 14 21  1  0
 15 14  1  0
 15 16  2  0
 17 16  1  0
 18 17  2  0
 19 20  2  0
 19 18  1  0
 20 15  1  0
  1 22  1  0
  1 23  1  0
  3 24  1  0
  5 25  1  0
  7 26  1  0
  7 27  1  0
  9 28  1  0
 10 29  1  0
 11 30  1  0
 12 31  1  0
 14 32  1  1
 16 33  1  0
 17 34  1  0
 19 35  1  0
 21 36  1  0
 21 37  1  0
 21 38  1  0
M  ISO  8  22   8  23   8  24  14  25  14  26   8  27   8  28  14  29  14
M  ISO  8  30  14  31  14  32   8  33  14  34  14  35  14  36   8  37   8
M  ISO  1  38   8
M  END
>  <minimizedAffinity>  (1) 
-5.47940397

>  <minimizedRMSD>  (1) 
2.16273403

$$$$
