
     RDKit          3D

 39 41  0  0  1  0  0  0  0  0999 V2000
   33.6490   29.4250   47.4060 C   0  0  0  0  0  0  0  0  0  0  0  0
   33.4210   30.3790   46.4570 C   0  0  0  0  0  0  0  0  0  0  0  0
   32.2350   30.1920   45.8270 N   0  0  0  0  0  0  0  0  0  0  0  0
   31.6580   29.0960   46.3610 C   0  0  0  0  0  0  0  0  0  0  0  0
   32.5310   28.6430   47.3180 N   0  0  0  0  0  0  0  0  0  0  0  0
   34.6690   29.1040   48.3450 C   0  0  0  0  0  0  0  0  0  0  0  0
   35.0600   30.0740   49.3570 C   0  0  2  0  0  0  0  0  0  0  0  0
   36.2640   30.8780   48.9680 C   0  0  0  0  0  0  0  0  0  0  0  0
   36.7600   31.7940   49.8870 C   0  0  0  0  0  0  0  0  0  0  0  0
   37.8830   32.5380   49.4400 C   0  0  0  0  0  0  0  0  0  0  0  0
   38.3880   32.3270   48.2070 N   0  0  0  0  0  0  0  0  0  0  0  0
   37.8590   31.4080   47.3370 C   0  0  0  0  0  0  0  0  0  0  0  0
   36.7830   30.6770   47.7300 N   0  0  0  0  0  0  0  0  0  0  0  0
   35.4230   29.2740   50.6670 C   0  0  0  0  0  0  0  0  0  0  0  0
   32.1840   27.4480   48.0750 C   0  0  0  0  0  0  0  0  0  0  0  0
   30.7770   27.3220   48.3920 C   0  0  0  0  0  0  0  0  0  0  0  0
   30.5270   27.8440   49.6660 C   0  0  0  0  0  0  0  0  0  0  0  0
   29.2460   27.8470   50.2320 C   0  0  0  0  0  0  0  0  0  0  0  0
   28.1710   27.3270   49.5420 C   0  0  0  0  0  0  0  0  0  0  0  0
   28.4140   26.8120   48.2870 C   0  0  0  0  0  0  0  0  0  0  0  0
   29.6780   26.8140   47.7410 C   0  0  0  0  0  0  0  0  0  0  0  0
   34.1160   31.2010   46.2304 H   0  0  0  0  0  0  0  0  0  0  0  0
   30.6880   28.6561   46.0861 H   0  0  0  0  0  0  0  0  0  0  0  0
   34.3347   28.2036   48.8811 H   0  0  0  0  0  0  0  0  0  0  0  0
   35.5692   29.0160   47.7190 H   0  0  0  0  0  0  0  0  0  0  0  0
   34.2216   30.7729   49.4933 H   0  0  0  0  0  0  0  0  0  0  0  0
   36.3166   31.9321   50.8842 H   0  0  0  0  0  0  0  0  0  0  0  0
   38.3425   33.2882   50.1003 H   0  0  0  0  0  0  0  0  0  0  0  0
   38.2981   31.2652   46.3386 H   0  0  0  0  0  0  0  0  0  0  0  0
   35.1515   29.8724   51.5492 H   0  0  0  0  0  0  0  0  0  0  0  0
   34.8675   28.3247   50.6827 H   0  0  0  0  0  0  0  0  0  0  0  0
   36.5032   29.0670   50.6827 H   0  0  0  0  0  0  0  0  0  0  0  0
   32.4826   26.5692   47.4845 H   0  0  0  0  0  0  0  0  0  0  0  0
   32.7142   27.5231   49.0358 H   0  0  0  0  0  0  0  0  0  0  0  0
   31.3640   28.2658   50.2418 H   0  0  0  0  0  0  0  0  0  0  0  0
   29.0957   28.2683   51.2369 H   0  0  0  0  0  0  0  0  0  0  0  0
   27.1602   27.3235   49.9760 H   0  0  0  0  0  0  0  0  0  0  0  0
   27.5792   26.3898   47.7084 H   0  0  0  0  0  0  0  0  0  0  0  0
   29.8149   26.3888   46.7358 H   0  0  0  0  0  0  0  0  0  0  0  0
  1  6  1  0
  2  1  2  0
  3  4  2  0
  3  2  1  0
  4  5  1  0
  5  1  1  0
  5 15  1  0
  6  7  1  0
  7 14  1  0
  8  7  1  0
  8  9  2  0
 10  9  1  0
 11 10  2  0
 12 13  2  0
 12 11  1  0
 13  8  1  0
 15 16  1  0
 16 17  2  0
 17 18  1  0
 19 18  2  0
 20 19  1  0
 21 20  2  0
 21 16  1  0
  2 22  1  0
  4 23  1  0
  6 24  1  0
  6 25  1  0
  7 26  1  1
  9 27  1  0
 10 28  1  0
 12 29  1  0
 14 30  1  0
 14 31  1  0
 14 32  1  0
 15 33  1  0
 15 34  1  0
 17 35  1  0
 18 36  1  0
 19 37  1  0
 20 38  1  0
 21 39  1  0
M  ISO  8  22  14  23  14  24   8  25   8  26   8  27  14  28  14  29  14
M  ISO  8  30   8  31   8  32   8  33   8  34   8  35  14  36  14  37  14
M  ISO  2  38  14  39  14
M  END
>  <minimizedAffinity>  (1) 
-5.46624708

>  <minimizedRMSD>  (1) 
2.71600485

$$$$
