
     RDKit          3D

 37 39  0  0  1  0  0  0  0  0999 V2000
   34.5340   28.9020   48.5710 C   0  0  0  0  0  0  0  0  0  0  0  0
   33.5810   29.1940   47.5580 C   0  0  0  0  0  0  0  0  0  0  0  0
   33.4280   30.0990   46.5460 C   0  0  0  0  0  0  0  0  0  0  0  0
   32.2720   29.9060   45.8510 N   0  0  0  0  0  0  0  0  0  0  0  0
   31.6590   28.8600   46.4160 C   0  0  0  0  0  0  0  0  0  0  0  0
   32.4520   28.4410   47.4380 N   0  0  0  0  0  0  0  0  0  0  0  0
   32.0360   27.2840   48.2550 C   0  0  0  0  0  0  0  0  0  0  0  0
   30.6160   27.2820   48.5520 C   0  0  0  0  0  0  0  0  0  0  0  0
   30.2900   27.8940   49.7390 C   0  0  0  0  0  0  0  0  0  0  0  0
   29.0030   28.0130   50.2280 C   0  0  0  0  0  0  0  0  0  0  0  0
   27.9780   27.4970   49.5030 N   0  0  0  0  0  0  0  0  0  0  0  0
   28.3060   26.8960   48.3360 C   0  0  0  0  0  0  0  0  0  0  0  0
   29.5740   26.7870   47.8670 N   0  0  0  0  0  0  0  0  0  0  0  0
   34.8560   29.9030   49.5770 C   0  0  2  0  0  0  0  0  0  0  0  0
   36.2070   30.5450   49.3520 C   0  0  0  0  0  0  0  0  0  0  0  0
   37.0600   30.6530   50.4410 C   0  0  0  0  0  0  0  0  0  0  0  0
   38.2960   31.2820   50.1850 C   0  0  0  0  0  0  0  0  0  0  0  0
   38.5730   31.7280   48.9360 N   0  0  0  0  0  0  0  0  0  0  0  0
   37.6980   31.6010   47.8810 C   0  0  0  0  0  0  0  0  0  0  0  0
   36.5010   30.9980   48.1060 N   0  0  0  0  0  0  0  0  0  0  0  0
   34.9210   29.1740   50.9720 C   0  0  0  0  0  0  0  0  0  0  0  0
   35.4750   28.6519   48.0592 H   0  0  0  0  0  0  0  0  0  0  0  0
   34.0481   28.1053   49.1534 H   0  0  0  0  0  0  0  0  0  0  0  0
   34.1549   30.8926   46.3183 H   0  0  0  0  0  0  0  0  0  0  0  0
   30.6968   28.4222   46.1119 H   0  0  0  0  0  0  0  0  0  0  0  0
   32.2811   26.3619   47.7076 H   0  0  0  0  0  0  0  0  0  0  0  0
   32.5728   27.3473   49.2130 H   0  0  0  0  0  0  0  0  0  0  0  0
   31.1084   28.3173   50.3398 H   0  0  0  0  0  0  0  0  0  0  0  0
   28.8127   28.5167   51.1872 H   0  0  0  0  0  0  0  0  0  0  0  0
   27.4935   26.4691   47.7297 H   0  0  0  0  0  0  0  0  0  0  0  0
   34.0860   30.6870   49.5279 H   0  0  0  0  0  0  0  0  0  0  0  0
   36.7902   30.2733   51.4375 H   0  0  0  0  0  0  0  0  0  0  0  0
   39.0303   31.4097   50.9940 H   0  0  0  0  0  0  0  0  0  0  0  0
   37.9608   31.9779   46.8816 H   0  0  0  0  0  0  0  0  0  0  0  0
   34.8546   29.9191   51.7785 H   0  0  0  0  0  0  0  0  0  0  0  0
   34.0823   28.4672   51.0558 H   0  0  0  0  0  0  0  0  0  0  0  0
   35.8715   28.6267   51.0558 H   0  0  0  0  0  0  0  0  0  0  0  0
  1 14  1  0
  2  1  1  0
  3  2  2  0
  4  5  2  0
  4  3  1  0
  5  6  1  0
  6  2  1  0
  6  7  1  0
  7  8  1  0
  8  9  2  0
  9 10  1  0
 11 10  2  0
 12 11  1  0
 13 12  2  0
 13  8  1  0
 14 21  1  0
 15 14  1  0
 15 16  2  0
 17 16  1  0
 18 17  2  0
 19 20  2  0
 19 18  1  0
 20 15  1  0
  1 22  1  0
  1 23  1  0
  3 24  1  0
  5 25  1  0
  7 26  1  0
  7 27  1  0
  9 28  1  0
 10 29  1  0
 12 30  1  0
 14 31  1  1
 16 32  1  0
 17 33  1  0
 19 34  1  0
 21 35  1  0
 21 36  1  0
 21 37  1  0
M  ISO  8  22   8  23   8  24  14  25  14  26   8  27   8  28  14  29  14
M  ISO  8  30  14  31   8  32  14  33  14  34  14  35   8  36   8  37   8
M  END
>  <minimizedAffinity>  (1) 
-5.33925915

>  <minimizedRMSD>  (1) 
3.01333308

$$$$
