
     RDKit          3D

 36 38  0  0  1  0  0  0  0  0999 V2000
   34.7490   28.9580   48.7490 C   0  0  0  0  0  0  0  0  0  0  0  0
   33.8130   29.2740   47.7290 C   0  0  0  0  0  0  0  0  0  0  0  0
   33.6490   30.2170   46.7580 C   0  0  0  0  0  0  0  0  0  0  0  0
   32.5250   30.0250   46.0200 N   0  0  0  0  0  0  0  0  0  0  0  0
   31.9260   28.9300   46.5110 C   0  0  0  0  0  0  0  0  0  0  0  0
   32.7130   28.4840   47.5450 N   0  0  0  0  0  0  0  0  0  0  0  0
   32.3190   27.2860   48.2810 C   0  0  0  0  0  0  0  0  0  0  0  0
   30.9750   27.4180   48.7890 N   0  0  0  0  0  0  0  0  0  0  0  0
   30.4520   28.1020   49.8210 C   0  0  0  0  0  0  0  0  0  0  0  0
   29.1010   27.9040   49.8940 C   0  0  0  0  0  0  0  0  0  0  0  0
   28.7780   27.0750   48.8810 N   0  0  0  0  0  0  0  0  0  0  0  0
   29.9020   26.7880   48.2250 C   0  0  0  0  0  0  0  0  0  0  0  0
   35.1800   29.9860   49.6830 C   0  0  2  0  0  0  0  0  0  0  0  0
   36.4280   30.7000   49.2220 C   0  0  0  0  0  0  0  0  0  0  0  0
   36.8170   31.8360   49.9140 C   0  0  0  0  0  0  0  0  0  0  0  0
   37.9720   32.4830   49.4260 C   0  0  0  0  0  0  0  0  0  0  0  0
   38.6190   31.9740   48.3420 N   0  0  0  0  0  0  0  0  0  0  0  0
   38.2010   30.8440   47.6840 C   0  0  0  0  0  0  0  0  0  0  0  0
   37.0900   30.2110   48.1420 N   0  0  0  0  0  0  0  0  0  0  0  0
   35.5410   29.2660   51.0420 C   0  0  0  0  0  0  0  0  0  0  0  0
   35.6538   28.5863   48.2459 H   0  0  0  0  0  0  0  0  0  0  0  0
   34.1991   28.2505   49.3870 H   0  0  0  0  0  0  0  0  0  0  0  0
   34.3526   31.0457   46.5900 H   0  0  0  0  0  0  0  0  0  0  0  0
   30.9884   28.4777   46.1555 H   0  0  0  0  0  0  0  0  0  0  0  0
   32.3670   26.4170   47.6083 H   0  0  0  0  0  0  0  0  0  0  0  0
   33.0059   27.1505   49.1295 H   0  0  0  0  0  0  0  0  0  0  0  0
   31.0306   28.7335   50.5112 H   0  0  0  0  0  0  0  0  0  0  0  0
   28.4122   28.3366   50.6346 H   0  0  0  0  0  0  0  0  0  0  0  0
   29.9584   26.1303   47.3451 H   0  0  0  0  0  0  0  0  0  0  0  0
   34.3690   30.7233   49.7763 H   0  0  0  0  0  0  0  0  0  0  0  0
   36.2614   32.2090   50.7870 H   0  0  0  0  0  0  0  0  0  0  0  0
   38.3470   33.3925   49.9182 H   0  0  0  0  0  0  0  0  0  0  0  0
   38.7502   30.4621   46.8107 H   0  0  0  0  0  0  0  0  0  0  0  0
   35.2249   29.8964   51.8862 H   0  0  0  0  0  0  0  0  0  0  0  0
   35.0219   28.2976   51.0931 H   0  0  0  0  0  0  0  0  0  0  0  0
   36.6276   29.1027   51.0931 H   0  0  0  0  0  0  0  0  0  0  0  0
  1 13  1  0
  2  1  1  0
  3  2  2  0
  4  5  2  0
  4  3  1  0
  5  6  1  0
  6  2  1  0
  6  7  1  0
  7  8  1  0
  8  9  1  0
  9 10  2  0
 11 10  1  0
 12  8  1  0
 12 11  2  0
 13 20  1  0
 14 13  1  0
 14 15  2  0
 16 15  1  0
 17 16  2  0
 18 19  2  0
 18 17  1  0
 19 14  1  0
  1 21  1  0
  1 22  1  0
  3 23  1  0
  5 24  1  0
  7 25  1  0
  7 26  1  0
  9 27  1  0
 10 28  1  0
 12 29  1  0
 13 30  1  1
 15 31  1  0
 16 32  1  0
 18 33  1  0
 20 34  1  0
 20 35  1  0
 20 36  1  0
M  ISO  8  21   8  22   8  23  14  24  14  25   8  26   8  27  14  28  14
M  ISO  8  29  14  30   8  31  14  32  14  33  14  34   8  35   8  36   8
M  END
>  <minimizedAffinity>  (1) 
-5.14565516

>  <minimizedRMSD>  (1) 
1.96310675

$$$$
