
     RDKit          3D

 37 39  0  0  1  0  0  0  0  0999 V2000
   35.5750   29.1870   48.7990 C   0  0  0  0  0  0  0  0  0  0  0  0
   34.6570   29.5040   47.7640 C   0  0  0  0  0  0  0  0  0  0  0  0
   34.5890   30.3270   46.6770 C   0  0  0  0  0  0  0  0  0  0  0  0
   33.4130   30.1980   46.0080 N   0  0  0  0  0  0  0  0  0  0  0  0
   32.6950   29.2780   46.6580 C   0  0  0  0  0  0  0  0  0  0  0  0
   33.4460   28.8640   47.7120 N   0  0  0  0  0  0  0  0  0  0  0  0
   32.8990   27.8350   48.6120 C   0  0  0  0  0  0  0  0  0  0  0  0
   32.6780   26.5760   47.8600 C   0  0  0  0  0  0  0  0  0  0  0  0
   33.8460   25.9260   47.4590 C   0  0  0  0  0  0  0  0  0  0  0  0
   33.8480   24.7520   46.7540 C   0  0  0  0  0  0  0  0  0  0  0  0
   32.6660   24.1930   46.4280 N   0  0  0  0  0  0  0  0  0  0  0  0
   31.5340   24.8310   46.8210 C   0  0  0  0  0  0  0  0  0  0  0  0
   31.5410   25.9710   47.5060 N   0  0  0  0  0  0  0  0  0  0  0  0
   35.9440   30.2020   49.7710 C   0  0  2  0  0  0  0  0  0  0  0  0
   37.0170   31.1330   49.2570 C   0  0  0  0  0  0  0  0  0  0  0  0
   37.1020   32.3970   49.8240 C   0  0  0  0  0  0  0  0  0  0  0  0
   38.1030   33.2310   49.2870 C   0  0  0  0  0  0  0  0  0  0  0  0
   38.8980   32.7860   48.2930 N   0  0  0  0  0  0  0  0  0  0  0  0
   38.7810   31.5200   47.7550 C   0  0  0  0  0  0  0  0  0  0  0  0
   37.8230   30.6960   48.2550 N   0  0  0  0  0  0  0  0  0  0  0  0
   36.5440   29.4630   51.0280 C   0  0  0  0  0  0  0  0  0  0  0  0
   36.5050   28.8598   48.3111 H   0  0  0  0  0  0  0  0  0  0  0  0
   35.0345   28.4414   49.4006 H   0  0  0  0  0  0  0  0  0  0  0  0
   35.3931   31.0151   46.3772 H   0  0  0  0  0  0  0  0  0  0  0  0
   31.6885   28.9234   46.3911 H   0  0  0  0  0  0  0  0  0  0  0  0
   33.6097   27.6511   49.4312 H   0  0  0  0  0  0  0  0  0  0  0  0
   31.9410   28.1849   49.0240 H   0  0  0  0  0  0  0  0  0  0  0  0
   34.8131   26.3792   47.7223 H   0  0  0  0  0  0  0  0  0  0  0  0
   34.7947   24.2752   46.4600 H   0  0  0  0  0  0  0  0  0  0  0  0
   30.5637   24.3833   46.5602 H   0  0  0  0  0  0  0  0  0  0  0  0
   35.0452   30.7938   49.9987 H   0  0  0  0  0  0  0  0  0  0  0  0
   36.4352   32.7246   50.6352 H   0  0  0  0  0  0  0  0  0  0  0  0
   38.2364   34.2495   49.6805 H   0  0  0  0  0  0  0  0  0  0  0  0
   39.4451   31.1873   46.9437 H   0  0  0  0  0  0  0  0  0  0  0  0
   36.1624   29.9330   51.9464 H   0  0  0  0  0  0  0  0  0  0  0  0
   36.2468   28.4041   51.0073 H   0  0  0  0  0  0  0  0  0  0  0  0
   37.6414   29.5363   51.0073 H   0  0  0  0  0  0  0  0  0  0  0  0
  1 14  1  0
  2  1  1  0
  3  2  2  0
  4  5  2  0
  4  3  1  0
  5  6  1  0
  6  2  1  0
  6  7  1  0
  8  7  1  0
  9  8  2  0
 10  9  1  0
 11 10  2  0
 11 12  1  0
 12 13  2  0
 13  8  1  0
 14 21  1  0
 15 14  1  0
 15 16  2  0
 17 16  1  0
 18 17  2  0
 19 20  2  0
 19 18  1  0
 20 15  1  0
  1 22  1  0
  1 23  1  0
  3 24  1  0
  5 25  1  0
  7 26  1  0
  7 27  1  0
  9 28  1  0
 10 29  1  0
 12 30  1  0
 14 31  1  1
 16 32  1  0
 17 33  1  0
 19 34  1  0
 21 35  1  0
 21 36  1  0
 21 37  1  0
M  ISO  8  22   8  23   8  24  14  25  14  26   8  27   8  28  14  29  14
M  ISO  8  30  14  31   8  32  14  33  14  34  14  35   8  36   8  37   8
M  END
>  <minimizedAffinity>  (1) 
-4.95396137

>  <minimizedRMSD>  (1) 
0.968141317

$$$$
