
     RDKit          3D

 42 44  0  0  1  0  0  0  0  0999 V2000
   33.3070   29.3510   46.1500 C   0  0  0  0  0  0  0  0  0  0  0  0
   33.3880   30.4510   45.3300 C   0  0  0  0  0  0  0  0  0  0  0  0
   32.3730   30.4990   44.4390 N   0  0  0  0  0  0  0  0  0  0  0  0
   31.6070   29.4230   44.6640 C   0  0  0  0  0  0  0  0  0  0  0  0
   32.1870   28.7380   45.7030 N   0  0  0  0  0  0  0  0  0  0  0  0
   34.0410   28.7760   47.2210 C   0  0  0  0  0  0  0  0  0  0  0  0
   34.1250   29.4650   48.4990 C   0  0  2  0  0  0  0  0  0  0  0  0
   35.5540   29.7180   48.9290 C   0  0  0  0  0  0  0  0  0  0  0  0
   36.4060   30.3090   48.0030 C   0  0  0  0  0  0  0  0  0  0  0  0
   37.7340   30.4990   48.4480 C   0  0  0  0  0  0  0  0  0  0  0  0
   38.0930   30.1130   49.6980 N   0  0  0  0  0  0  0  0  0  0  0  0
   37.2080   29.5290   50.5830 C   0  0  0  0  0  0  0  0  0  0  0  0
   35.9250   29.3370   50.1780 N   0  0  0  0  0  0  0  0  0  0  0  0
   33.4740   28.5360   49.5890 C   0  0  0  0  0  0  0  0  0  0  0  0
   31.5520   27.4990   46.1470 C   0  0  0  0  0  0  0  0  0  0  0  0
   30.6450   27.6690   47.2410 N   0  0  0  0  0  0  0  0  0  0  0  0
   29.6770   28.5890   47.4000 C   0  0  0  0  0  0  0  0  0  0  0  0
   28.8440   28.7010   48.4700 C   0  0  0  0  0  0  0  0  0  0  0  0
   27.8180   29.7920   48.4740 C   0  0  0  0  0  0  0  0  0  0  0  0
   29.0180   27.7750   49.4910 C   0  0  0  0  0  0  0  0  0  0  0  0
   28.2470   27.8740   50.4860 O   0  0  0  0  0  0  0  0  0  0  0  0
   29.9870   26.8420   49.3510 N   0  0  0  0  0  0  0  0  0  0  0  0
   30.7770   26.7820   48.2710 C   0  0  0  0  0  0  0  0  0  0  0  0
   31.5980   25.8420   48.3600 O   0  0  0  0  0  0  0  0  0  0  0  0
   34.1865   31.2050   45.3918 H   0  0  0  0  0  0  0  0  0  0  0  0
   30.6917   29.1430   44.1219 H   0  0  0  0  0  0  0  0  0  0  0  0
   33.5928   27.7914   47.4202 H   0  0  0  0  0  0  0  0  0  0  0  0
   35.0782   28.7956   46.8552 H   0  0  0  0  0  0  0  0  0  0  0  0
   33.6147   30.4337   48.3930 H   0  0  0  0  0  0  0  0  0  0  0  0
   36.0714   30.6067   46.9983 H   0  0  0  0  0  0  0  0  0  0  0  0
   38.4768   30.9601   47.7804 H   0  0  0  0  0  0  0  0  0  0  0  0
   37.5332   29.2271   51.5895 H   0  0  0  0  0  0  0  0  0  0  0  0
   33.7346   28.9079   50.5909 H   0  0  0  0  0  0  0  0  0  0  0  0
   32.3806   28.5407   49.4691 H   0  0  0  0  0  0  0  0  0  0  0  0
   33.8516   27.5098   49.4691 H   0  0  0  0  0  0  0  0  0  0  0  0
   30.9954   27.0726   45.2994 H   0  0  0  0  0  0  0  0  0  0  0  0
   32.3569   26.8381   46.5009 H   0  0  0  0  0  0  0  0  0  0  0  0
   29.5464   29.3199   46.5884 H   0  0  0  0  0  0  0  0  0  0  0  0
   27.5687   30.0571   49.5121 H   0  0  0  0  0  0  0  0  0  0  0  0
   28.2201   30.6754   47.9564 H   0  0  0  0  0  0  0  0  0  0  0  0
   26.9116   29.4448   47.9564 H   0  0  0  0  0  0  0  0  0  0  0  0
   30.1226   26.1516   50.1032 H   0  0  0  0  0  0  0  0  0  0  0  0
  1  6  1  0
  2  1  2  0
  3  4  2  0
  3  2  1  0
  4  5  1  0
  5 15  1  0
  5  1  1  0
  6  7  1  0
  7  8  1  0
  7 14  1  0
  8 13  2  0
  9 10  2  0
  9  8  1  0
 10 11  1  0
 11 12  2  0
 13 12  1  0
 15 16  1  0
 16 17  1  0
 16 23  1  0
 17 18  2  0
 18 19  1  0
 18 20  1  0
 20 21  2  0
 22 20  1  0
 23 24  2  0
 23 22  1  0
  2 25  1  0
  4 26  1  0
  6 27  1  0
  6 28  1  0
  7 29  1  6
  9 30  1  0
 10 31  1  0
 12 32  1  0
 14 33  1  0
 14 34  1  0
 14 35  1  0
 15 36  1  0
 15 37  1  0
 17 38  1  0
 19 39  1  0
 19 40  1  0
 19 41  1  0
 22 42  1  0
M  ISO  8  25  14  26  14  27   8  28   8  29   8  30  14  31  14  32  14
M  ISO  8  33   8  34   8  35   8  36   8  37   8  38  14  39   8  40   8
M  ISO  2  41   8  42   9
M  END
>  <minimizedAffinity>  (1) 
-4.91653109

>  <minimizedRMSD>  (1) 
3.45282626

$$$$
