
     RDKit          3D

 34 36  0  0  1  0  0  0  0  0999 V2000
   35.7630   29.2350   48.8310 C   0  0  0  0  0  0  0  0  0  0  0  0
   34.8880   29.5100   47.7490 C   0  0  0  0  0  0  0  0  0  0  0  0
   34.8980   30.1890   46.5640 C   0  0  0  0  0  0  0  0  0  0  0  0
   33.7200   30.0910   45.8960 N   0  0  0  0  0  0  0  0  0  0  0  0
   32.9110   29.3330   46.6530 C   0  0  0  0  0  0  0  0  0  0  0  0
   33.6280   28.9970   47.7520 N   0  0  0  0  0  0  0  0  0  0  0  0
   32.9950   28.1400   48.7790 C   0  0  0  0  0  0  0  0  0  0  0  0
   32.8250   26.8090   48.1490 C   0  0  0  0  0  0  0  0  0  0  0  0
   31.6120   26.2190   48.1360 N   0  0  0  0  0  0  0  0  0  0  0  0
   31.7080   25.0800   47.5410 O   0  0  0  0  0  0  0  0  0  0  0  0
   32.9340   24.8770   47.1510 C   0  0  0  0  0  0  0  0  0  0  0  0
   33.6440   25.9550   47.5280 N   0  0  0  0  0  0  0  0  0  0  0  0
   36.1100   30.2850   49.7730 C   0  0  2  0  0  0  0  0  0  0  0  0
   37.1520   31.2390   49.2360 C   0  0  0  0  0  0  0  0  0  0  0  0
   37.2070   32.5090   49.7910 C   0  0  0  0  0  0  0  0  0  0  0  0
   38.1830   33.3680   49.2400 C   0  0  0  0  0  0  0  0  0  0  0  0
   38.9820   32.9270   48.2390 N   0  0  0  0  0  0  0  0  0  0  0  0
   38.8930   31.6520   47.7160 C   0  0  0  0  0  0  0  0  0  0  0  0
   37.9600   30.8100   48.2330 N   0  0  0  0  0  0  0  0  0  0  0  0
   36.7360   29.5890   51.0440 C   0  0  0  0  0  0  0  0  0  0  0  0
   36.7066   28.8779   48.3927 H   0  0  0  0  0  0  0  0  0  0  0  0
   35.1884   28.5260   49.4451 H   0  0  0  0  0  0  0  0  0  0  0  0
   35.7655   30.7535   46.1915 H   0  0  0  0  0  0  0  0  0  0  0  0
   31.8744   29.0431   46.4264 H   0  0  0  0  0  0  0  0  0  0  0  0
   33.6418   28.0639   49.6655 H   0  0  0  0  0  0  0  0  0  0  0  0
   32.0325   28.5544   49.1135 H   0  0  0  0  0  0  0  0  0  0  0  0
   33.3150   23.9943   46.6165 H   0  0  0  0  0  0  0  0  0  0  0  0
   35.1965   30.8592   49.9871 H   0  0  0  0  0  0  0  0  0  0  0  0
   36.5368   32.8251   50.6040 H   0  0  0  0  0  0  0  0  0  0  0  0
   38.2942   34.3932   49.6229 H   0  0  0  0  0  0  0  0  0  0  0  0
   39.5591   31.3269   46.9032 H   0  0  0  0  0  0  0  0  0  0  0  0
   36.3230   30.0482   51.9543 H   0  0  0  0  0  0  0  0  0  0  0  0
   36.4928   28.5163   51.0317 H   0  0  0  0  0  0  0  0  0  0  0  0
   37.8284   29.7175   51.0317 H   0  0  0  0  0  0  0  0  0  0  0  0
  1 13  1  0
  2  6  1  0
  2  1  1  0
  3  2  2  0
  4  3  1  0
  4  5  2  0
  5  6  1  0
  6  7  1  0
  8  7  1  0
  9  8  2  0
 10  9  1  0
 11 12  2  0
 11 10  1  0
 12  8  1  0
 13 20  1  0
 14 13  1  0
 14 15  2  0
 16 15  1  0
 17 16  2  0
 18 19  2  0
 18 17  1  0
 19 14  1  0
  1 21  1  0
  1 22  1  0
  3 23  1  0
  5 24  1  0
  7 25  1  0
  7 26  1  0
 11 27  1  0
 13 28  1  1
 15 29  1  0
 16 30  1  0
 18 31  1  0
 20 32  1  0
 20 33  1  0
 20 34  1  0
M  ISO  8  21   8  22   8  23  14  24  14  25   8  26   8  27  14  28   8
M  ISO  6  29  14  30  14  31  14  32   8  33   8  34   8
M  END
>  <minimizedAffinity>  (1) 
-4.90654469

>  <minimizedRMSD>  (1) 
0.67367214

$$$$
