
     RDKit          3D

 38 40  0  0  1  0  0  0  0  0999 V2000
   37.7040   31.6030   47.4340 C   0  0  1  0  0  0  0  0  0  0  0  0
   38.7890   31.6020   46.3860 C   0  0  0  0  0  0  0  0  0  0  0  0
   39.6430   32.6940   46.3310 C   0  0  0  0  0  0  0  0  0  0  0  0
   40.6280   32.6490   45.3100 C   0  0  0  0  0  0  0  0  0  0  0  0
   40.6800   31.5870   44.4790 N   0  0  0  0  0  0  0  0  0  0  0  0
   39.8160   30.5140   44.5590 C   0  0  0  0  0  0  0  0  0  0  0  0
   38.8660   30.5380   45.5290 N   0  0  0  0  0  0  0  0  0  0  0  0
   36.9920   30.3500   47.5060 C   0  0  0  0  0  0  0  0  0  0  0  0
   35.7180   30.2160   46.9070 C   0  0  0  0  0  0  0  0  0  0  0  0
   35.2090   30.0320   45.6620 C   0  0  0  0  0  0  0  0  0  0  0  0
   33.8500   29.9650   45.6750 N   0  0  0  0  0  0  0  0  0  0  0  0
   33.4460   30.1030   46.9270 C   0  0  0  0  0  0  0  0  0  0  0  0
   34.5870   30.2550   47.6750 N   0  0  0  0  0  0  0  0  0  0  0  0
   34.4920   30.4360   49.1510 C   0  0  0  0  0  0  0  0  0  0  0  0
   33.7990   29.3430   49.7680 N   0  0  0  0  0  0  0  0  0  0  0  0
   38.4250   31.8330   48.8170 C   0  0  0  0  0  0  0  0  0  0  0  0
   38.0670   30.7810   49.7660 C   0  0  0  0  0  0  0  0  0  0  0  0
   37.4810   31.1710   50.9530 C   0  0  0  0  0  0  0  0  0  0  0  0
   37.2230   30.0410   51.7000 C   0  0  0  0  0  0  0  0  0  0  0  0
   37.6380   28.9970   50.9950 N   0  0  0  0  0  0  0  0  0  0  0  0
   38.1260   29.4410   49.8730 N   0  0  0  0  0  0  0  0  0  0  0  0
   36.9684   32.3816   47.1838 H   0  0  0  0  0  0  0  0  0  0  0  0
   39.5622   33.5381   47.0317 H   0  0  0  0  0  0  0  0  0  0  0  0
   41.3451   33.4754   45.1967 H   0  0  0  0  0  0  0  0  0  0  0  0
   39.8942   29.6678   43.8606 H   0  0  0  0  0  0  0  0  0  0  0  0
   37.6401   29.5915   47.0427 H   0  0  0  0  0  0  0  0  0  0  0  0
   36.7740   30.2491   48.5795 H   0  0  0  0  0  0  0  0  0  0  0  0
   35.8215   29.9473   44.7522 H   0  0  0  0  0  0  0  0  0  0  0  0
   32.4089   30.0972   47.2935 H   0  0  0  0  0  0  0  0  0  0  0  0
   35.5071   30.4986   49.5701 H   0  0  0  0  0  0  0  0  0  0  0  0
   33.9297   31.3600   49.3512 H   0  0  0  0  0  0  0  0  0  0  0  0
   33.8568   29.4342   50.7923 H   0  0  0  0  0  0  0  0  0  0  0  0
   32.8109   29.3551   49.4775 H   0  0  0  0  0  0  0  0  0  0  0  0
   39.5141   31.8249   48.6625 H   0  0  0  0  0  0  0  0  0  0  0  0
   38.1054   32.8028   49.2261 H   0  0  0  0  0  0  0  0  0  0  0  0
   37.2580   32.2058   51.2520 H   0  0  0  0  0  0  0  0  0  0  0  0
   36.7587   30.0110   52.6967 H   0  0  0  0  0  0  0  0  0  0  0  0
   37.5837   28.0099   51.2841 H   0  0  0  0  0  0  0  0  0  0  0  0
  1  8  1  0
  1 16  1  0
  2  1  1  0
  3  2  2  0
  4  3  1  0
  5  6  1  0
  5  4  2  0
  6  7  2  0
  7  2  1  0
  9  8  1  0
  9 13  1  0
 10 11  1  0
 10  9  2  0
 11 12  2  0
 12 13  1  0
 13 14  1  0
 14 15  1  0
 16 17  1  0
 17 21  2  0
 17 18  1  0
 18 19  2  0
 20 19  1  0
 21 20  1  0
  1 22  1  6
  3 23  1  0
  4 24  1  0
  6 25  1  0
  8 26  1  0
  8 27  1  0
 10 28  1  0
 12 29  1  0
 14 30  1  0
 14 31  1  0
 15 32  1  0
 15 33  1  0
 16 34  1  0
 16 35  1  0
 18 36  1  0
 19 37  1  0
 20 38  1  0
M  ISO  8  22   8  23  14  24  14  25  14  26   8  27   8  28  14  29  14
M  ISO  8  30   8  31   8  32   5  33   5  34   8  35   8  36  14  37  14
M  ISO  1  38   9
M  END
>  <minimizedAffinity>  (1) 
-5.36236

>  <minimizedRMSD>  (1) 
2.90499568

$$$$
