
     RDKit          3D

 43 45  0  0  1  0  0  0  0  0999 V2000
   35.7920   30.3510   47.1390 C   0  0  1  0  0  0  0  0  0  0  0  0
   37.0310   30.7600   46.3610 C   0  0  0  0  0  0  0  0  0  0  0  0
   38.2450   30.7580   47.0080 C   0  0  0  0  0  0  0  0  0  0  0  0
   39.3650   31.1680   46.2550 C   0  0  0  0  0  0  0  0  0  0  0  0
   39.1960   31.5330   44.9740 N   0  0  0  0  0  0  0  0  0  0  0  0
   37.9720   31.5300   44.3350 C   0  0  0  0  0  0  0  0  0  0  0  0
   36.9010   31.1380   45.0530 N   0  0  0  0  0  0  0  0  0  0  0  0
   34.9730   29.4160   46.3900 C   0  0  0  0  0  0  0  0  0  0  0  0
   33.6030   29.6980   46.1810 C   0  0  0  0  0  0  0  0  0  0  0  0
   32.8630   30.5640   45.4310 C   0  0  0  0  0  0  0  0  0  0  0  0
   31.5210   30.3890   45.6230 N   0  0  0  0  0  0  0  0  0  0  0  0
   31.3650   29.4050   46.5040 C   0  0  0  0  0  0  0  0  0  0  0  0
   32.6270   28.9960   46.8350 N   0  0  0  0  0  0  0  0  0  0  0  0
   32.8020   27.8980   47.8040 C   0  0  0  0  0  0  0  0  0  0  0  0
   32.5800   28.3160   49.1540 N   0  0  0  0  0  0  0  0  0  0  0  0
   36.3250   29.5690   48.4110 C   0  0  0  0  0  0  0  0  0  0  0  0
   35.7220   30.2610   49.5360 N   0  0  0  0  0  0  0  0  0  0  0  0
   36.5650   31.3690   49.9720 C   0  0  0  0  0  0  0  0  0  0  0  0
   37.4320   30.8820   51.0730 C   0  0  0  0  0  0  0  0  0  0  0  0
   37.0650   29.4260   51.3110 C   0  0  0  0  0  0  0  0  0  0  0  0
   35.6740   29.3700   50.6970 C   0  0  0  0  0  0  0  0  0  0  0  0
   35.1895   31.2416   47.3708 H   0  0  0  0  0  0  0  0  0  0  0  0
   38.3377   30.4518   48.0605 H   0  0  0  0  0  0  0  0  0  0  0  0
   40.3654   31.1885   46.7120 H   0  0  0  0  0  0  0  0  0  0  0  0
   37.8750   31.8352   43.2826 H   0  0  0  0  0  0  0  0  0  0  0  0
   35.4331   29.3136   45.3961 H   0  0  0  0  0  0  0  0  0  0  0  0
   34.9564   28.5205   47.0285 H   0  0  0  0  0  0  0  0  0  0  0  0
   33.2948   31.3142   44.7522 H   0  0  0  0  0  0  0  0  0  0  0  0
   30.4157   29.0028   46.8876 H   0  0  0  0  0  0  0  0  0  0  0  0
   32.0885   27.0967   47.5613 H   0  0  0  0  0  0  0  0  0  0  0  0
   33.8429   27.5502   47.7295 H   0  0  0  0  0  0  0  0  0  0  0  0
   32.9566   27.6070   49.7993 H   0  0  0  0  0  0  0  0  0  0  0  0
   33.0545   29.2155   49.3174 H   0  0  0  0  0  0  0  0  0  0  0  0
   36.0053   28.5168   48.3839 H   0  0  0  0  0  0  0  0  0  0  0  0
   37.4235   29.5549   48.4660 H   0  0  0  0  0  0  0  0  0  0  0  0
   37.1866   31.7170   49.1338 H   0  0  0  0  0  0  0  0  0  0  0  0
   35.9434   32.2078   50.3185 H   0  0  0  0  0  0  0  0  0  0  0  0
   38.4906   30.9634   50.7855 H   0  0  0  0  0  0  0  0  0  0  0  0
   37.2850   31.4798   51.9846 H   0  0  0  0  0  0  0  0  0  0  0  0
   37.7603   28.7455   50.7977 H   0  0  0  0  0  0  0  0  0  0  0  0
   37.1068   29.1155   52.3655 H   0  0  0  0  0  0  0  0  0  0  0  0
   34.9210   29.7194   51.4187 H   0  0  0  0  0  0  0  0  0  0  0  0
   35.3946   28.3447   50.4130 H   0  0  0  0  0  0  0  0  0  0  0  0
  1 16  1  0
  2  3  2  0
  2  1  1  0
  4  3  1  0
  5  4  2  0
  6  5  1  0
  6  7  2  0
  7  2  1  0
  8  1  1  0
  9  8  1  0
  9 13  1  0
 10 11  1  0
 10  9  2  0
 11 12  2  0
 12 13  1  0
 13 14  1  0
 14 15  1  0
 16 17  1  0
 17 18  1  0
 17 21  1  0
 18 19  1  0
 19 20  1  0
 21 20  1  0
  1 22  1  1
  3 23  1  0
  4 24  1  0
  6 25  1  0
  8 26  1  0
  8 27  1  0
 10 28  1  0
 12 29  1  0
 14 30  1  0
 14 31  1  0
 15 32  1  0
 15 33  1  0
 16 34  1  0
 16 35  1  0
 18 36  1  0
 18 37  1  0
 19 38  1  0
 19 39  1  0
 20 40  1  0
 20 41  1  0
 21 42  1  0
 21 43  1  0
M  ISO  8  22   8  23  14  24  14  25  14  26   8  27   8  28  14  29  14
M  ISO  8  30   8  31   8  32   5  33   5  34   8  35   8  36  13  37  13
M  ISO  6  38  13  39  13  40  13  41  13  42  13  43  13
M  END
>  <minimizedAffinity>  (1) 
-4.69128895

>  <minimizedRMSD>  (1) 
2.70856524

$$$$
