
     RDKit          3D

 32 34  0  0  0  0  0  0  0  0999 V2000
   38.2720   31.9680   47.9660 C   0  0  0  0  0  0  0  0  0  0  0  0
   38.3630   32.9160   48.9490 C   0  0  0  0  0  0  0  0  0  0  0  0
   39.2620   33.9780   48.8600 C   0  0  0  0  0  0  0  0  0  0  0  0
   40.0830   34.0790   47.7490 C   0  0  0  0  0  0  0  0  0  0  0  0
   39.9840   33.1140   46.7580 C   0  0  0  0  0  0  0  0  0  0  0  0
   40.7680   33.1290   45.6050 C   0  0  0  0  0  0  0  0  0  0  0  0
   40.6140   32.1290   44.6540 C   0  0  0  0  0  0  0  0  0  0  0  0
   39.7060   31.1060   44.8050 C   0  0  0  0  0  0  0  0  0  0  0  0
   38.9300   31.0870   45.9430 C   0  0  0  0  0  0  0  0  0  0  0  0
   39.0950   32.0810   46.8680 C   0  0  0  0  0  0  0  0  0  0  0  0
   36.0470   30.7050   47.6640 C   0  0  0  0  0  0  0  0  0  0  0  0
   37.2680   30.9640   48.2830 C   0  0  0  0  0  0  0  0  0  0  0  0
   37.5760   30.1210   49.3920 C   0  0  0  0  0  0  0  0  0  0  0  0
   36.7050   29.1500   49.7750 N   0  0  0  0  0  0  0  0  0  0  0  0
   35.5360   28.9660   49.1170 C   0  0  0  0  0  0  0  0  0  0  0  0
   35.2240   29.7380   48.0790 N   0  0  0  0  0  0  0  0  0  0  0  0
   34.5290   27.9320   49.4680 C   0  0  0  0  0  0  0  0  0  0  0  0
   33.8750   27.3520   48.2180 C   0  0  0  0  0  0  0  0  0  0  0  0
   37.7106   32.8381   49.8312 H   0  0  0  0  0  0  0  0  0  0  0  0
   39.3186   34.7274   49.6632 H   0  0  0  0  0  0  0  0  0  0  0  0
   40.7994   34.9083   47.6546 H   0  0  0  0  0  0  0  0  0  0  0  0
   41.5057   33.9300   45.4494 H   0  0  0  0  0  0  0  0  0  0  0  0
   41.2390   32.1554   43.7492 H   0  0  0  0  0  0  0  0  0  0  0  0
   39.6027   30.3246   44.0377 H   0  0  0  0  0  0  0  0  0  0  0  0
   38.1918   30.2877   46.1047 H   0  0  0  0  0  0  0  0  0  0  0  0
   35.7496   31.3196   46.8015 H   0  0  0  0  0  0  0  0  0  0  0  0
   38.5208   30.2571   49.9387 H   0  0  0  0  0  0  0  0  0  0  0  0
   35.0251   27.1216   50.0223 H   0  0  0  0  0  0  0  0  0  0  0  0
   33.7478   28.4016   50.0838 H   0  0  0  0  0  0  0  0  0  0  0  0
   33.0819   26.6487   48.5119 H   0  0  0  0  0  0  0  0  0  0  0  0
   33.4398   28.1665   47.6203 H   0  0  0  0  0  0  0  0  0  0  0  0
   34.6316   26.8226   47.6203 H   0  0  0  0  0  0  0  0  0  0  0  0
  1 12  1  0
  1  2  2  0
  3  2  1  0
  4  3  2  0
  5 10  2  0
  5  4  1  0
  6  5  1  0
  7  8  1  0
  7  6  2  0
  8  9  2  0
  9 10  1  0
 10  1  1  0
 11 16  2  0
 11 12  1  0
 12 13  2  0
 13 14  1  0
 15 17  1  0
 15 14  2  0
 16 15  1  0
 18 17  1  0
  2 19  1  0
  3 20  1  0
  4 21  1  0
  6 22  1  0
  7 23  1  0
  8 24  1  0
  9 25  1  0
 11 26  1  0
 13 27  1  0
 17 28  1  0
 17 29  1  0
 18 30  1  0
 18 31  1  0
 18 32  1  0
M  ISO  8  19  14  20  14  21  14  22  14  23  14  24  14  25  14  26  14
M  ISO  6  27  14  28   8  29   8  30   8  31   8  32   8
M  END
>  <minimizedAffinity>  (1) 
-6.48140287

>  <minimizedRMSD>  (1) 
1.29897368

$$$$
