
     RDKit          3D

 43 47  0  0  1  0  0  0  0  0999 V2000
   35.6190   30.4780   47.3110 C   0  0  0  0  0  0  0  0  0  0  0  0
   36.6720   30.6980   48.1820 C   0  0  0  0  0  0  0  0  0  0  0  0
   36.7750   29.7410   49.2390 C   0  0  0  0  0  0  0  0  0  0  0  0
   35.8780   28.7200   49.3250 N   0  0  0  0  0  0  0  0  0  0  0  0
   34.8920   28.5790   48.4430 C   0  0  0  0  0  0  0  0  0  0  0  0
   34.7610   29.4540   47.4400 N   0  0  0  0  0  0  0  0  0  0  0  0
   37.6760   31.7420   48.1870 C   0  0  0  0  0  0  0  0  0  0  0  0
   37.6530   32.4610   49.3450 C   0  0  0  0  0  0  0  0  0  0  0  0
   38.5370   33.5210   49.5660 C   0  0  0  0  0  0  0  0  0  0  0  0
   39.4590   33.8490   48.5840 C   0  0  0  0  0  0  0  0  0  0  0  0
   39.4680   33.1060   47.4120 C   0  0  0  0  0  0  0  0  0  0  0  0
   40.3600   33.3630   46.3680 C   0  0  0  0  0  0  0  0  0  0  0  0
   40.3170   32.5860   45.2240 C   0  0  0  0  0  0  0  0  0  0  0  0
   39.4260   31.5600   45.0670 C   0  0  0  0  0  0  0  0  0  0  0  0
   38.5430   31.3060   46.1030 C   0  0  0  0  0  0  0  0  0  0  0  0
   38.5900   32.0780   47.2290 C   0  0  0  0  0  0  0  0  0  0  0  0
   33.9390   27.4420   48.5980 C   0  0  1  0  0  0  0  0  0  0  0  0
   32.4780   27.7170   48.6470 C   0  0  0  0  0  0  0  0  0  0  0  0
   33.0720   27.0410   47.4400 C   0  0  2  0  0  0  0  0  0  0  0  0
   32.8630   25.5990   47.2260 C   0  0  0  0  0  0  0  0  0  0  0  0
   31.6260   25.1610   46.7430 C   0  0  0  0  0  0  0  0  0  0  0  0
   31.4240   23.7930   46.5390 C   0  0  0  0  0  0  0  0  0  0  0  0
   32.4850   22.9300   46.8340 C   0  0  0  0  0  0  0  0  0  0  0  0
   33.7090   23.3680   47.3110 C   0  0  0  0  0  0  0  0  0  0  0  0
   33.8900   24.7200   47.5060 C   0  0  0  0  0  0  0  0  0  0  0  0
   35.4786   31.1761   46.4726 H   0  0  0  0  0  0  0  0  0  0  0  0
   37.5797   29.8295   49.9837 H   0  0  0  0  0  0  0  0  0  0  0  0
   36.9213   32.2008   50.1241 H   0  0  0  0  0  0  0  0  0  0  0  0
   38.5015   34.0881   50.5079 H   0  0  0  0  0  0  0  0  0  0  0  0
   40.1665   34.6784   48.7304 H   0  0  0  0  0  0  0  0  0  0  0  0
   41.0927   34.1788   46.4550 H   0  0  0  0  0  0  0  0  0  0  0  0
   41.0255   32.8013   44.4106 H   0  0  0  0  0  0  0  0  0  0  0  0
   39.4114   30.9563   44.1476 H   0  0  0  0  0  0  0  0  0  0  0  0
   37.8102   30.4898   46.0200 H   0  0  0  0  0  0  0  0  0  0  0  0
   34.6517   26.9157   49.2500 H   0  0  0  0  0  0  0  0  0  0  0  0
   31.8346   27.1481   49.3343 H   0  0  0  0  0  0  0  0  0  0  0  0
   31.8615   28.6132   48.8104 H   0  0  0  0  0  0  0  0  0  0  0  0
   33.0409   27.2402   46.3586 H   0  0  0  0  0  0  0  0  0  0  0  0
   30.8240   25.8821   46.5268 H   0  0  0  0  0  0  0  0  0  0  0  0
   30.4654   23.4088   46.1602 H   0  0  0  0  0  0  0  0  0  0  0  0
   32.3397   21.8506   46.6794 H   0  0  0  0  0  0  0  0  0  0  0  0
   34.5170   22.6541   47.5289 H   0  0  0  0  0  0  0  0  0  0  0  0
   34.8512   25.0983   47.8841 H   0  0  0  0  0  0  0  0  0  0  0  0
  1  6  2  0
  1  2  1  0
  2  7  1  0
  2  3  2  0
  3  4  1  0
  5 17  1  0
  5  4  2  0
  6  5  1  0
  7  8  2  0
  8  9  1  0
 10  9  2  0
 11 10  1  0
 12 11  2  0
 13 12  1  0
 14 13  2  0
 14 15  1  0
 15 16  2  0
 16 11  1  0
 16  7  1  0
 17 18  1  0
 19 17  1  0
 19 18  1  0
 20 19  1  0
 20 25  1  0
 21 20  2  0
 22 21  1  0
 22 23  2  0
 23 24  1  0
 24 25  2  0
  1 26  1  0
  3 27  1  0
  8 28  1  0
  9 29  1  0
 10 30  1  0
 12 31  1  0
 13 32  1  0
 14 33  1  0
 15 34  1  0
 17 35  1  1
 18 36  1  0
 18 37  1  0
 19 38  1  6
 21 39  1  0
 22 40  1  0
 23 41  1  0
 24 42  1  0
 25 43  1  0
M  ISO  8  26  14  27  14  28  14  29  14  30  14  31  14  32  14  33  14
M  ISO  8  34  14  35  13  36  13  37  13  38  13  39  14  40  14  41  14
M  ISO  2  42  14  43  14
M  END
>  <minimizedAffinity>  (1) 
-6.88629627

>  <minimizedRMSD>  (1) 
1.02352154

$$$$
