
     RDKit          3D

 36 39  0  0  1  0  0  0  0  0999 V2000
   35.5960   30.4730   47.3440 C   0  0  0  0  0  0  0  0  0  0  0  0
   36.6720   30.6920   48.1850 C   0  0  0  0  0  0  0  0  0  0  0  0
   36.7960   29.7460   49.2520 C   0  0  0  0  0  0  0  0  0  0  0  0
   35.8930   28.7350   49.3730 N   0  0  0  0  0  0  0  0  0  0  0  0
   34.8830   28.5920   48.5210 C   0  0  0  0  0  0  0  0  0  0  0  0
   34.7340   29.4590   47.5100 N   0  0  0  0  0  0  0  0  0  0  0  0
   37.6880   31.7260   48.1550 C   0  0  0  0  0  0  0  0  0  0  0  0
   37.6680   32.4880   49.2880 C   0  0  0  0  0  0  0  0  0  0  0  0
   38.5640   33.5410   49.4690 C   0  0  0  0  0  0  0  0  0  0  0  0
   39.4890   33.8160   48.4880 C   0  0  0  0  0  0  0  0  0  0  0  0
   39.5000   33.0380   47.3460 C   0  0  0  0  0  0  0  0  0  0  0  0
   40.4000   33.2410   46.2930 C   0  0  0  0  0  0  0  0  0  0  0  0
   40.3550   32.4250   45.1760 C   0  0  0  0  0  0  0  0  0  0  0  0
   39.4450   31.3950   45.0470 C   0  0  0  0  0  0  0  0  0  0  0  0
   38.5560   31.1990   46.0970 C   0  0  0  0  0  0  0  0  0  0  0  0
   38.6150   32.0210   47.1990 C   0  0  0  0  0  0  0  0  0  0  0  0
   33.9220   27.4660   48.7080 C   0  0  1  0  0  0  0  0  0  0  0  0
   32.4610   27.7450   48.6780 C   0  0  0  0  0  0  0  0  0  0  0  0
   33.1050   26.9860   47.5450 C   0  0  2  0  0  0  0  0  0  0  0  0
   32.9070   25.4890   47.4450 C   0  0  0  0  0  0  0  0  0  0  0  0
   32.5900   25.2370   46.1040 F   0  0  0  0  0  0  0  0  0  0  0  0
   31.7900   25.0680   48.1490 F   0  0  0  0  0  0  0  0  0  0  0  0
   34.0470   24.7980   47.7660 F   0  0  0  0  0  0  0  0  0  0  0  0
   35.4401   31.1618   46.5006 H   0  0  0  0  0  0  0  0  0  0  0  0
   37.6210   29.8361   49.9740 H   0  0  0  0  0  0  0  0  0  0  0  0
   36.9304   32.2667   50.0735 H   0  0  0  0  0  0  0  0  0  0  0  0
   38.5317   34.1460   50.3871 H   0  0  0  0  0  0  0  0  0  0  0  0
   40.2068   34.6404   48.6107 H   0  0  0  0  0  0  0  0  0  0  0  0
   41.1434   34.0495   46.3534 H   0  0  0  0  0  0  0  0  0  0  0  0
   41.0712   32.6039   44.3605 H   0  0  0  0  0  0  0  0  0  0  0  0
   39.4244   30.7567   44.1514 H   0  0  0  0  0  0  0  0  0  0  0  0
   37.8101   30.3921   46.0475 H   0  0  0  0  0  0  0  0  0  0  0  0
   34.6061   26.9837   49.4217 H   0  0  0  0  0  0  0  0  0  0  0  0
   31.7876   27.2251   49.3753 H   0  0  0  0  0  0  0  0  0  0  0  0
   31.8409   28.6504   48.7536 H   0  0  0  0  0  0  0  0  0  0  0  0
   33.1149   27.1102   46.4521 H   0  0  0  0  0  0  0  0  0  0  0  0
  1  6  2  0
  1  2  1  0
  2  3  2  0
  3  4  1  0
  5 17  1  0
  5  4  2  0
  6  5  1  0
  7  2  1  0
  7  8  2  0
  8  9  1  0
 10  9  2  0
 11 10  1  0
 12 11  2  0
 13 12  1  0
 14 13  2  0
 14 15  1  0
 15 16  2  0
 16 11  1  0
 16  7  1  0
 18 17  1  0
 19 18  1  0
 19 17  1  0
 20 19  1  0
 20 23  1  0
 20 22  1  0
 21 20  1  0
  1 24  1  0
  3 25  1  0
  8 26  1  0
  9 27  1  0
 10 28  1  0
 12 29  1  0
 13 30  1  0
 14 31  1  0
 15 32  1  0
 17 33  1  1
 18 34  1  0
 18 35  1  0
 19 36  1  6
M  ISO  8  24  14  25  14  26  14  27  14  28  14  29  14  30  14  31  14
M  ISO  5  32  14  33  13  34  13  35  13  36  13
M  END
>  <minimizedAffinity>  (1) 
-6.78488398

>  <minimizedRMSD>  (1) 
0.744518101

$$$$
