
     RDKit          3D

 40 44  0  0  1  0  0  0  0  0999 V2000
   35.4210   30.3320   47.2110 C   0  0  0  0  0  0  0  0  0  0  0  0
   36.4410   30.5250   48.1250 C   0  0  0  0  0  0  0  0  0  0  0  0
   36.5020   29.5430   49.1630 C   0  0  0  0  0  0  0  0  0  0  0  0
   35.5980   28.5240   49.1920 N   0  0  0  0  0  0  0  0  0  0  0  0
   34.6350   28.4150   48.2580 C   0  0  0  0  0  0  0  0  0  0  0  0
   34.5530   29.3130   47.2820 N   0  0  0  0  0  0  0  0  0  0  0  0
   37.4460   31.5640   48.1910 C   0  0  0  0  0  0  0  0  0  0  0  0
   37.3980   32.2220   49.3960 C   0  0  0  0  0  0  0  0  0  0  0  0
   38.2850   33.2720   49.6790 C   0  0  0  0  0  0  0  0  0  0  0  0
   39.2180   33.6450   48.7300 C   0  0  0  0  0  0  0  0  0  0  0  0
   39.2470   32.9680   47.5270 C   0  0  0  0  0  0  0  0  0  0  0  0
   40.1560   33.2710   46.4990 C   0  0  0  0  0  0  0  0  0  0  0  0
   40.1280   32.5540   45.3230 C   0  0  0  0  0  0  0  0  0  0  0  0
   39.2370   31.5400   45.1080 C   0  0  0  0  0  0  0  0  0  0  0  0
   38.3350   31.2310   46.1130 C   0  0  0  0  0  0  0  0  0  0  0  0
   38.3780   31.9530   47.2740 C   0  0  0  0  0  0  0  0  0  0  0  0
   33.6810   27.2750   48.3600 C   0  0  1  0  0  0  0  0  0  0  0  0
   32.2240   27.5690   48.4450 C   0  0  0  0  0  0  0  0  0  0  0  0
   32.7960   26.9530   47.1980 C   0  0  2  0  0  0  0  0  0  0  0  0
   32.3840   25.5210   46.9960 C   0  0  0  0  0  0  0  0  0  0  0  0
   33.0410   24.3870   47.4590 C   0  0  0  0  0  0  0  0  0  0  0  0
   32.5000   23.1680   47.1640 C   0  0  0  0  0  0  0  0  0  0  0  0
   31.3000   23.1070   46.4060 C   0  0  0  0  0  0  0  0  0  0  0  0
   30.9720   24.9600   46.1230 S   0  0  0  0  0  0  0  0  0  0  0  0
   35.3169   31.0505   46.3846 H   0  0  0  0  0  0  0  0  0  0  0  0
   37.2793   29.6104   49.9384 H   0  0  0  0  0  0  0  0  0  0  0  0
   36.6544   31.9218   50.1490 H   0  0  0  0  0  0  0  0  0  0  0  0
   38.2382   33.7931   50.6466 H   0  0  0  0  0  0  0  0  0  0  0  0
   39.9236   34.4651   48.9292 H   0  0  0  0  0  0  0  0  0  0  0  0
   40.8892   34.0799   46.6332 H   0  0  0  0  0  0  0  0  0  0  0  0
   40.8473   32.8062   44.5299 H   0  0  0  0  0  0  0  0  0  0  0  0
   39.2362   30.9827   44.1596 H   0  0  0  0  0  0  0  0  0  0  0  0
   37.6005   30.4230   45.9803 H   0  0  0  0  0  0  0  0  0  0  0  0
   34.3965   26.7001   48.9664 H   0  0  0  0  0  0  0  0  0  0  0  0
   31.5802   26.9723   49.1079 H   0  0  0  0  0  0  0  0  0  0  0  0
   31.6223   28.4630   48.6656 H   0  0  0  0  0  0  0  0  0  0  0  0
   32.8417   27.1917   46.1252 H   0  0  0  0  0  0  0  0  0  0  0  0
   33.9683   24.4688   48.0451 H   0  0  0  0  0  0  0  0  0  0  0  0
   32.9877   22.2444   47.5093 H   0  0  0  0  0  0  0  0  0  0  0  0
   30.7214   22.2320   46.0748 H   0  0  0  0  0  0  0  0  0  0  0  0
  1  6  2  0
  1  2  1  0
  2  7  1  0
  2  3  2  0
  3  4  1  0
  5 17  1  0
  5  4  2  0
  6  5  1  0
  7  8  2  0
  8  9  1  0
 10  9  2  0
 11 10  1  0
 12 11  2  0
 13 12  1  0
 14 13  2  0
 14 15  1  0
 15 16  2  0
 16 11  1  0
 16  7  1  0
 17 18  1  0
 19 17  1  0
 19 18  1  0
 20 19  1  0
 20 21  2  0
 22 21  1  0
 23 22  2  0
 24 23  1  0
 24 20  1  0
  1 25  1  0
  3 26  1  0
  8 27  1  0
  9 28  1  0
 10 29  1  0
 12 30  1  0
 13 31  1  0
 14 32  1  0
 15 33  1  0
 17 34  1  1
 18 35  1  0
 18 36  1  0
 19 37  1  6
 21 38  1  0
 22 39  1  0
 23 40  1  0
M  ISO  8  25  14  26  14  27  14  28  14  29  14  30  14  31  14  32  14
M  ISO  8  33  14  34  13  35  13  36  13  37  13  38  14  39  14  40  14
M  END
>  <minimizedAffinity>  (1) 
-6.65497208

>  <minimizedRMSD>  (1) 
1.26734483

$$$$
