
     RDKit          3D

 49 52  0  0  0  0  0  0  0  0999 V2000
   32.6010   32.7250   42.5740 C   0  0  0  0  0  0  0  0  0  0  0  0
   33.0330   33.9720   42.0770 C   0  0  0  0  0  0  0  0  0  0  0  0
   32.0590   34.9680   41.8580 C   0  0  0  0  0  0  0  0  0  0  0  0
   30.7680   34.6450   42.1450 N   0  0  0  0  0  0  0  0  0  0  0  0
   30.3830   33.4460   42.6190 C   0  0  0  0  0  0  0  0  0  0  0  0
   31.2890   32.5090   42.8270 N   0  0  0  0  0  0  0  0  0  0  0  0
   29.0040   33.2140   42.8860 N   0  0  0  0  0  0  0  0  0  0  0  0
   28.0420   33.7260   42.1190 C   0  0  0  0  0  0  0  0  0  0  0  0
   26.7090   33.5070   42.3670 C   0  0  0  0  0  0  0  0  0  0  0  0
   26.4450   32.7230   43.4620 C   0  0  0  0  0  0  0  0  0  0  0  0
   25.2450   32.4590   43.7800 O   0  0  0  0  0  0  0  0  0  0  0  0
   27.3580   32.1840   44.2660 N   0  0  0  0  0  0  0  0  0  0  0  0
   28.6710   32.4410   43.9610 C   0  0  0  0  0  0  0  0  0  0  0  0
   29.5600   31.9550   44.6900 O   0  0  0  0  0  0  0  0  0  0  0  0
   26.5890   29.3690   47.2860 C   0  0  0  0  0  0  0  0  0  0  0  0
   26.5530   30.6980   47.6100 C   0  0  0  0  0  0  0  0  0  0  0  0
   26.7910   31.6980   46.6930 C   0  0  0  0  0  0  0  0  0  0  0  0
   27.0790   31.3710   45.3940 C   0  0  0  0  0  0  0  0  0  0  0  0
   27.1210   30.0200   45.0350 C   0  0  0  0  0  0  0  0  0  0  0  0
   26.8750   29.0200   45.9860 C   0  0  0  0  0  0  0  0  0  0  0  0
   26.2770   28.1560   48.4840 S   0  0  0  0  0  0  0  0  0  0  0  0
   27.3980   27.9610   49.4360 O   0  0  0  0  0  0  0  0  0  0  0  0
   25.0320   28.5610   49.2440 O   0  0  0  0  0  0  0  0  0  0  0  0
   25.5930   34.0380   41.5600 C   0  0  0  0  0  0  0  0  0  0  0  0
   25.5490   33.5140   40.2350 N   0  0  0  0  0  0  0  0  0  0  0  0
   25.2430   32.1050   40.2260 C   0  0  0  0  0  0  0  0  0  0  0  0
   23.7810   31.8360   40.5130 C   0  0  0  0  0  0  0  0  0  0  0  0
   23.0370   32.9870   40.7040 O   0  0  0  0  0  0  0  0  0  0  0  0
   23.1750   33.7670   39.5840 C   0  0  0  0  0  0  0  0  0  0  0  0
   24.6110   34.1990   39.3820 C   0  0  0  0  0  0  0  0  0  0  0  0
   33.3332   31.9247   42.7568 H   0  0  0  0  0  0  0  0  0  0  0  0
   34.0959   34.1618   41.8668 H   0  0  0  0  0  0  0  0  0  0  0  0
   32.3303   35.9618   41.4724 H   0  0  0  0  0  0  0  0  0  0  0  0
   28.3258   34.3464   41.2561 H   0  0  0  0  0  0  0  0  0  0  0  0
   26.3240   30.9802   48.6482 H   0  0  0  0  0  0  0  0  0  0  0  0
   26.7501   32.7530   47.0018 H   0  0  0  0  0  0  0  0  0  0  0  0
   27.3493   29.7394   43.9962 H   0  0  0  0  0  0  0  0  0  0  0  0
   26.9105   27.9600   45.6941 H   0  0  0  0  0  0  0  0  0  0  0  0
   26.1150   26.9596   47.8364 H   0  0  0  0  0  0  0  0  0  0  0  0
   24.6484   33.7875   42.0649 H   0  0  0  0  0  0  0  0  0  0  0  0
   25.7449   35.1240   41.4733 H   0  0  0  0  0  0  0  0  0  0  0  0
   25.4911   31.6948   39.2359 H   0  0  0  0  0  0  0  0  0  0  0  0
   25.8367   31.6252   41.0180 H   0  0  0  0  0  0  0  0  0  0  0  0
   23.3550   31.2826   39.6631 H   0  0  0  0  0  0  0  0  0  0  0  0
   23.7347   31.2606   41.4494 H   0  0  0  0  0  0  0  0  0  0  0  0
   22.8479   33.1917   38.7053 H   0  0  0  0  0  0  0  0  0  0  0  0
   22.5585   34.6687   39.7136 H   0  0  0  0  0  0  0  0  0  0  0  0
   24.8878   34.0046   38.3353 H   0  0  0  0  0  0  0  0  0  0  0  0
   24.6639   35.2671   39.6396 H   0  0  0  0  0  0  0  0  0  0  0  0
  1  6  2  0
  2  1  1  0
  3  2  2  0
  3  4  1  0
  4  5  2  0
  5  6  1  0
  5  7  1  0
  7 13  1  0
  8  9  2  0
  8  7  1  0
  9 10  1  0
 10 11  2  0
 10 12  1  0
 12 18  1  0
 13 12  1  0
 13 14  2  0
 15 16  2  0
 15 21  1  0
 17 16  1  0
 18 17  2  0
 19 18  1  0
 19 20  2  0
 20 15  1  0
 21 23  2  0
 21 22  2  0
 24  9  1  0
 25 24  1  0
 26 25  1  0
 26 27  1  0
 27 28  1  0
 29 28  1  0
 30 29  1  0
 30 25  1  0
  1 31  1  0
  2 32  1  0
  3 33  1  0
  8 34  1  0
 16 35  1  0
 17 36  1  0
 19 37  1  0
 20 38  1  0
 21 39  1  0
 24 40  1  0
 24 41  1  0
 26 42  1  0
 26 43  1  0
 27 44  1  0
 27 45  1  0
 29 46  1  0
 29 47  1  0
 30 48  1  0
 30 49  1  0
M  ISO  8  31  14  32  14  33  14  34  14  35  14  36  14  37  14  38  14
M  ISO  8  39  11  40   8  41   8  42  13  43  13  44  13  45  13  46  13
M  ISO  3  47  13  48  13  49  13
M  END
>  <minimizedAffinity>  (1) 
-5.41750288

>  <minimizedRMSD>  (1) 
3.61568165

$$$$
