
     RDKit          3D

 48 52  0  0  1  0  0  0  0  0999 V2000
   35.8150   30.6060   47.3450 C   0  0  0  0  0  0  0  0  0  0  0  0
   36.8900   30.8590   48.1770 C   0  0  0  0  0  0  0  0  0  0  0  0
   37.0230   29.9530   49.2760 C   0  0  0  0  0  0  0  0  0  0  0  0
   36.1250   28.9380   49.4340 N   0  0  0  0  0  0  0  0  0  0  0  0
   35.1160   28.7550   48.5940 C   0  0  0  0  0  0  0  0  0  0  0  0
   34.9650   29.5900   47.5530 N   0  0  0  0  0  0  0  0  0  0  0  0
   37.8980   31.8980   48.1110 C   0  0  0  0  0  0  0  0  0  0  0  0
   37.9660   32.6130   49.2800 C   0  0  0  0  0  0  0  0  0  0  0  0
   38.8720   33.6650   49.4340 C   0  0  0  0  0  0  0  0  0  0  0  0
   39.7190   33.9930   48.3860 C   0  0  0  0  0  0  0  0  0  0  0  0
   39.6340   33.2640   47.2200 C   0  0  0  0  0  0  0  0  0  0  0  0
   40.4460   33.5160   46.1020 C   0  0  0  0  0  0  0  0  0  0  0  0
   40.3110   32.7480   44.9660 C   0  0  0  0  0  0  0  0  0  0  0  0
   39.4040   31.7300   44.8760 C   0  0  0  0  0  0  0  0  0  0  0  0
   38.5960   31.4700   45.9730 C   0  0  0  0  0  0  0  0  0  0  0  0
   38.7400   32.2350   47.0880 C   0  0  0  0  0  0  0  0  0  0  0  0
   34.1640   27.6370   48.8120 C   0  0  1  0  0  0  0  0  0  0  0  0
   32.7080   27.9210   48.9180 C   0  0  0  0  0  0  0  0  0  0  0  0
   33.2510   27.2060   47.7050 C   0  0  2  0  0  0  0  0  0  0  0  0
   32.7910   25.8610   47.5760 N   0  0  0  0  0  0  0  0  0  0  0  0
   33.7920   24.8630   47.4080 C   0  0  0  0  0  0  0  0  0  0  0  0
   33.4780   24.0190   46.1750 C   0  0  0  0  0  0  0  0  0  0  0  0
   33.3880   24.9960   45.0100 C   0  0  0  0  0  0  0  0  0  0  0  0
   32.1460   25.8200   45.2080 C   0  0  0  0  0  0  0  0  0  0  0  0
   31.6950   25.7970   46.6410 C   0  0  0  0  0  0  0  0  0  0  0  0
   35.6507   31.2638   46.4788 H   0  0  0  0  0  0  0  0  0  0  0  0
   37.8484   30.0745   49.9929 H   0  0  0  0  0  0  0  0  0  0  0  0
   37.2945   32.3530   50.1115 H   0  0  0  0  0  0  0  0  0  0  0  0
   38.9133   34.2282   50.3780 H   0  0  0  0  0  0  0  0  0  0  0  0
   40.4420   34.8162   48.4834 H   0  0  0  0  0  0  0  0  0  0  0  0
   41.1894   34.3262   46.1333 H   0  0  0  0  0  0  0  0  0  0  0  0
   40.9561   32.9619   44.1011 H   0  0  0  0  0  0  0  0  0  0  0  0
   39.3168   31.1319   43.9569 H   0  0  0  0  0  0  0  0  0  0  0  0
   37.8525   30.6600   45.9416 H   0  0  0  0  0  0  0  0  0  0  0  0
   34.9023   27.1253   49.4469 H   0  0  0  0  0  0  0  0  0  0  0  0
   32.0929   27.3752   49.6486 H   0  0  0  0  0  0  0  0  0  0  0  0
   32.1016   28.8240   49.0820 H   0  0  0  0  0  0  0  0  0  0  0  0
   33.3056   27.3418   46.6148 H   0  0  0  0  0  0  0  0  0  0  0  0
   34.7718   25.3463   47.2800 H   0  0  0  0  0  0  0  0  0  0  0  0
   33.8120   24.2150   48.2966 H   0  0  0  0  0  0  0  0  0  0  0  0
   34.2796   23.2867   45.9987 H   0  0  0  0  0  0  0  0  0  0  0  0
   32.5425   23.4542   46.3007 H   0  0  0  0  0  0  0  0  0  0  0  0
   33.3254   24.4440   44.0606 H   0  0  0  0  0  0  0  0  0  0  0  0
   34.2791   25.6399   44.9738 H   0  0  0  0  0  0  0  0  0  0  0  0
   32.3558   26.8594   44.9156 H   0  0  0  0  0  0  0  0  0  0  0  0
   31.3450   25.3935   44.5863 H   0  0  0  0  0  0  0  0  0  0  0  0
   31.0347   26.6594   46.8149 H   0  0  0  0  0  0  0  0  0  0  0  0
   31.1746   24.8423   46.8077 H   0  0  0  0  0  0  0  0  0  0  0  0
  1  6  2  0
  1  2  1  0
  2  3  2  0
  3  4  1  0
  5 17  1  0
  5  4  2  0
  6  5  1  0
  7  2  1  0
  7  8  2  0
  8  9  1  0
 10  9  2  0
 11 10  1  0
 12 11  2  0
 13 12  1  0
 14 13  2  0
 14 15  1  0
 15 16  2  0
 16 11  1  0
 16  7  1  0
 17 18  1  0
 19 17  1  0
 19 18  1  0
 20 19  1  0
 21 20  1  0
 22 21  1  0
 23 24  1  0
 23 22  1  0
 24 25  1  0
 25 20  1  0
  1 26  1  0
  3 27  1  0
  8 28  1  0
  9 29  1  0
 10 30  1  0
 12 31  1  0
 13 32  1  0
 14 33  1  0
 15 34  1  0
 17 35  1  1
 18 36  1  0
 18 37  1  0
 19 38  1  6
 21 39  1  0
 21 40  1  0
 22 41  1  0
 22 42  1  0
 23 43  1  0
 23 44  1  0
 24 45  1  0
 24 46  1  0
 25 47  1  0
 25 48  1  0
M  ISO  8  26  14  27  14  28  14  29  14  30  14  31  14  32  14  33  14
M  ISO  8  34  14  35  13  36  13  37  13  38  13  39  13  40  13  41  13
M  ISO  7  42  13  43  13  44  13  45  13  46  13  47  13  48  13
M  END
>  <minimizedAffinity>  (1) 
-6.60630894

>  <minimizedRMSD>  (1) 
0.815427721

$$$$
