
     RDKit          3D

 34 37  0  0  1  0  0  0  0  0999 V2000
   37.9080   31.8980   48.1350 C   0  0  0  0  0  0  0  0  0  0  0  0
   37.9760   32.6160   49.2940 C   0  0  0  0  0  0  0  0  0  0  0  0
   38.8780   33.6760   49.4400 C   0  0  0  0  0  0  0  0  0  0  0  0
   39.7170   34.0000   48.3890 C   0  0  0  0  0  0  0  0  0  0  0  0
   39.6340   33.2570   47.2150 C   0  0  0  0  0  0  0  0  0  0  0  0
   40.4400   33.5120   46.1020 C   0  0  0  0  0  0  0  0  0  0  0  0
   40.3080   32.7390   44.9690 C   0  0  0  0  0  0  0  0  0  0  0  0
   39.4000   31.7090   44.8860 C   0  0  0  0  0  0  0  0  0  0  0  0
   38.6020   31.4580   45.9920 C   0  0  0  0  0  0  0  0  0  0  0  0
   38.7470   32.2350   47.1040 C   0  0  0  0  0  0  0  0  0  0  0  0
   35.8180   30.6040   47.3930 C   0  0  0  0  0  0  0  0  0  0  0  0
   36.9070   30.8540   48.2100 C   0  0  0  0  0  0  0  0  0  0  0  0
   37.0600   29.9370   49.2970 C   0  0  0  0  0  0  0  0  0  0  0  0
   36.1680   28.9210   49.4550 N   0  0  0  0  0  0  0  0  0  0  0  0
   35.1350   28.7480   48.6140 C   0  0  0  0  0  0  0  0  0  0  0  0
   34.9670   29.5850   47.5960 N   0  0  0  0  0  0  0  0  0  0  0  0
   34.2010   27.6140   48.8570 C   0  0  1  0  0  0  0  0  0  0  0  0
   32.7380   27.8460   48.7040 C   0  0  0  0  0  0  0  0  0  0  0  0
   33.4830   26.9950   47.6920 C   0  0  2  0  0  0  0  0  0  0  0  0
   33.3440   25.6280   47.6910 O   0  0  0  0  0  0  0  0  0  0  0  0
   37.3090   32.3564   50.1293 H   0  0  0  0  0  0  0  0  0  0  0  0
   38.9194   34.2453   50.3803 H   0  0  0  0  0  0  0  0  0  0  0  0
   40.4353   34.8282   48.4793 H   0  0  0  0  0  0  0  0  0  0  0  0
   41.1777   34.3275   46.1304 H   0  0  0  0  0  0  0  0  0  0  0  0
   40.9502   32.9527   44.1019 H   0  0  0  0  0  0  0  0  0  0  0  0
   39.3098   31.1040   43.9718 H   0  0  0  0  0  0  0  0  0  0  0  0
   37.8625   30.6439   45.9730 H   0  0  0  0  0  0  0  0  0  0  0  0
   35.6412   31.2716   46.5368 H   0  0  0  0  0  0  0  0  0  0  0  0
   37.8957   30.0524   50.0029 H   0  0  0  0  0  0  0  0  0  0  0  0
   34.8436   27.2244   49.6603 H   0  0  0  0  0  0  0  0  0  0  0  0
   32.0304   27.3764   49.4031 H   0  0  0  0  0  0  0  0  0  0  0  0
   32.0926   28.7351   48.6484 H   0  0  0  0  0  0  0  0  0  0  0  0
   33.5697   27.0117   46.5955 H   0  0  0  0  0  0  0  0  0  0  0  0
   33.3105   25.2990   48.6241 H   0  0  0  0  0  0  0  0  0  0  0  0
  1 12  1  0
  1  2  2  0
  2  3  1  0
  4  3  2  0
  5  4  1  0
  6  5  2  0
  7  6  1  0
  8  7  2  0
  8  9  1  0
  9 10  2  0
 10  5  1  0
 10  1  1  0
 11 16  2  0
 11 12  1  0
 12 13  2  0
 13 14  1  0
 15 17  1  0
 15 14  2  0
 16 15  1  0
 18 17  1  0
 19 18  1  0
 19 17  1  0
 20 19  1  0
  2 21  1  0
  3 22  1  0
  4 23  1  0
  6 24  1  0
  7 25  1  0
  8 26  1  0
  9 27  1  0
 11 28  1  0
 13 29  1  0
 17 30  1  1
 18 31  1  0
 18 32  1  0
 19 33  1  6
 20 34  1  0
M  ISO  8  21  14  22  14  23  14  24  14  25  14  26  14  27  14  28  14
M  ISO  6  29  14  30  13  31  13  32  13  33  13  34   3
M  END
>  <minimizedAffinity>  (1) 
-6.57795906

>  <minimizedRMSD>  (1) 
0.353792816

$$$$
