
     RDKit          3D

 45 49  0  0  1  0  0  0  0  0999 V2000
   35.8410   30.6660   47.4350 C   0  0  0  0  0  0  0  0  0  0  0  0
   37.0290   30.8720   48.1120 C   0  0  0  0  0  0  0  0  0  0  0  0
   37.2730   29.9650   49.1900 C   0  0  0  0  0  0  0  0  0  0  0  0
   36.3620   28.9940   49.4730 N   0  0  0  0  0  0  0  0  0  0  0  0
   35.2410   28.8570   48.7780 C   0  0  0  0  0  0  0  0  0  0  0  0
   34.9780   29.6920   47.7560 N   0  0  0  0  0  0  0  0  0  0  0  0
   38.0690   31.8610   47.9060 C   0  0  0  0  0  0  0  0  0  0  0  0
   38.1380   32.7510   48.9350 C   0  0  0  0  0  0  0  0  0  0  0  0
   39.0750   33.7910   48.9420 C   0  0  0  0  0  0  0  0  0  0  0  0
   39.9500   33.9160   47.8800 C   0  0  0  0  0  0  0  0  0  0  0  0
   39.8710   33.0060   46.8390 C   0  0  0  0  0  0  0  0  0  0  0  0
   40.7130   33.0530   45.7220 C   0  0  0  0  0  0  0  0  0  0  0  0
   40.5830   32.1150   44.7210 C   0  0  0  0  0  0  0  0  0  0  0  0
   39.6400   31.1180   44.7740 C   0  0  0  0  0  0  0  0  0  0  0  0
   38.8040   31.0670   45.8760 C   0  0  0  0  0  0  0  0  0  0  0  0
   38.9500   32.0010   46.8530 C   0  0  0  0  0  0  0  0  0  0  0  0
   34.2930   27.7750   49.1400 C   0  0  1  0  0  0  0  0  0  0  0  0
   32.8140   28.0290   48.9780 C   0  0  0  0  0  0  0  0  0  0  0  0
   33.5270   27.0590   48.0710 C   0  0  1  0  0  0  0  0  0  0  0  0
   33.6270   27.4680   46.7080 N   0  0  0  0  0  0  0  0  0  0  0  0
   32.3670   28.0610   46.3170 C   0  0  0  0  0  0  0  0  0  0  0  0
   31.7870   27.2790   45.1910 C   0  0  0  0  0  0  0  0  0  0  0  0
   32.6670   26.0670   45.0680 C   0  0  0  0  0  0  0  0  0  0  0  0
   33.9400   26.4030   45.7980 C   0  0  0  0  0  0  0  0  0  0  0  0
   35.5930   31.3316   46.5950 H   0  0  0  0  0  0  0  0  0  0  0  0
   38.1924   30.0515   49.7877 H   0  0  0  0  0  0  0  0  0  0  0  0
   37.4412   32.6501   49.7801 H   0  0  0  0  0  0  0  0  0  0  0  0
   39.1142   34.4997   49.7823 H   0  0  0  0  0  0  0  0  0  0  0  0
   40.6962   34.7240   47.8617 H   0  0  0  0  0  0  0  0  0  0  0  0
   41.4787   33.8388   45.6432 H   0  0  0  0  0  0  0  0  0  0  0  0
   41.2557   32.1664   43.8522 H   0  0  0  0  0  0  0  0  0  0  0  0
   39.5515   30.3802   43.9629 H   0  0  0  0  0  0  0  0  0  0  0  0
   38.0352   30.2847   45.9597 H   0  0  0  0  0  0  0  0  0  0  0  0
   34.9499   27.4517   49.9610 H   0  0  0  0  0  0  0  0  0  0  0  0
   32.1050   27.6585   49.7331 H   0  0  0  0  0  0  0  0  0  0  0  0
   32.1867   28.9203   48.8290 H   0  0  0  0  0  0  0  0  0  0  0  0
   33.4450   25.9963   47.7992 H   0  0  0  0  0  0  0  0  0  0  0  0
   31.6732   28.0471   47.1705 H   0  0  0  0  0  0  0  0  0  0  0  0
   32.5308   29.1012   45.9990 H   0  0  0  0  0  0  0  0  0  0  0  0
   30.7517   26.9842   45.4174 H   0  0  0  0  0  0  0  0  0  0  0  0
   31.7509   27.8608   44.2582 H   0  0  0  0  0  0  0  0  0  0  0  0
   32.1815   25.1938   45.5283 H   0  0  0  0  0  0  0  0  0  0  0  0
   32.8608   25.8149   44.0150 H   0  0  0  0  0  0  0  0  0  0  0  0
   34.3016   25.5247   46.3528 H   0  0  0  0  0  0  0  0  0  0  0  0
   34.7307   26.7039   45.0950 H   0  0  0  0  0  0  0  0  0  0  0  0
  1  6  2  0
  1  2  1  0
  2  3  2  0
  3  4  1  0
  5 17  1  0
  5  4  2  0
  6  5  1  0
  7  2  1  0
  7  8  2  0
  8  9  1  0
 10  9  2  0
 11 16  2  0
 11 10  1  0
 12 11  1  0
 13 14  1  0
 13 12  2  0
 14 15  2  0
 15 16  1  0
 16  7  1  0
 18 17  1  0
 19 18  1  0
 19 17  1  0
 20 21  1  0
 20 19  1  0
 22 21  1  0
 23 22  1  0
 23 24  1  0
 24 20  1  0
  1 25  1  0
  3 26  1  0
  8 27  1  0
  9 28  1  0
 10 29  1  0
 12 30  1  0
 13 31  1  0
 14 32  1  0
 15 33  1  0
 17 34  1  1
 18 35  1  0
 18 36  1  0
 19 37  1  6
 21 38  1  0
 21 39  1  0
 22 40  1  0
 22 41  1  0
 23 42  1  0
 23 43  1  0
 24 44  1  0
 24 45  1  0
M  ISO  8  25  14  26  14  27  14  28  14  29  14  30  14  31  14  32  14
M  ISO  8  33  14  34  13  35  13  36  13  37  13  38  13  39  13  40  13
M  ISO  5  41  13  42  13  43  13  44  13  45  13
M  END
>  <minimizedAffinity>  (1) 
-6.55544949

>  <minimizedRMSD>  (1) 
0.262779623

$$$$
