
     RDKit          3D

 36 39  0  0  1  0  0  0  0  0999 V2000
   35.6060   30.4720   47.3260 C   0  0  0  0  0  0  0  0  0  0  0  0
   36.6690   30.6950   48.1880 C   0  0  0  0  0  0  0  0  0  0  0  0
   36.7840   29.7420   49.2490 C   0  0  0  0  0  0  0  0  0  0  0  0
   35.8880   28.7200   49.3490 N   0  0  0  0  0  0  0  0  0  0  0  0
   34.8870   28.5760   48.4700 C   0  0  0  0  0  0  0  0  0  0  0  0
   34.7500   29.4480   47.4670 N   0  0  0  0  0  0  0  0  0  0  0  0
   37.6740   31.7350   48.1850 C   0  0  0  0  0  0  0  0  0  0  0  0
   37.6560   32.4630   49.3460 C   0  0  0  0  0  0  0  0  0  0  0  0
   38.5420   33.5190   49.5570 C   0  0  0  0  0  0  0  0  0  0  0  0
   39.4550   33.8360   48.5780 C   0  0  0  0  0  0  0  0  0  0  0  0
   39.4680   33.0930   47.4000 C   0  0  0  0  0  0  0  0  0  0  0  0
   40.3570   33.3410   46.3510 C   0  0  0  0  0  0  0  0  0  0  0  0
   40.3110   32.5630   45.2150 C   0  0  0  0  0  0  0  0  0  0  0  0
   39.4130   31.5390   45.0740 C   0  0  0  0  0  0  0  0  0  0  0  0
   38.5320   31.2880   46.1060 C   0  0  0  0  0  0  0  0  0  0  0  0
   38.5930   32.0680   47.2200 C   0  0  0  0  0  0  0  0  0  0  0  0
   33.9420   27.4410   48.6400 C   0  0  1  0  0  0  0  0  0  0  0  0
   32.4790   27.7070   48.6050 C   0  0  0  0  0  0  0  0  0  0  0  0
   33.1370   26.9650   47.4680 C   0  0  2  0  0  0  0  0  0  0  0  0
   32.7620   25.5270   47.4190 C   0  0  0  0  0  0  0  0  0  0  0  0
   33.6780   24.6570   47.6070 O   0  0  0  0  0  0  0  0  0  0  0  0
   31.5010   25.0070   47.1900 O   0  0  0  0  0  0  0  0  0  0  0  0
   35.4573   31.1674   46.4868 H   0  0  0  0  0  0  0  0  0  0  0  0
   37.5965   29.8343   49.9848 H   0  0  0  0  0  0  0  0  0  0  0  0
   36.9264   32.2087   50.1289 H   0  0  0  0  0  0  0  0  0  0  0  0
   38.5112   34.0919   50.4955 H   0  0  0  0  0  0  0  0  0  0  0  0
   40.1643   34.6641   48.7234 H   0  0  0  0  0  0  0  0  0  0  0  0
   41.0919   34.1555   46.4320 H   0  0  0  0  0  0  0  0  0  0  0  0
   41.0166   32.7706   44.3970 H   0  0  0  0  0  0  0  0  0  0  0  0
   39.3943   30.9299   44.1582 H   0  0  0  0  0  0  0  0  0  0  0  0
   37.7956   30.4744   46.0300 H   0  0  0  0  0  0  0  0  0  0  0  0
   34.6270   26.9573   49.3519 H   0  0  0  0  0  0  0  0  0  0  0  0
   31.8066   27.1740   49.2933 H   0  0  0  0  0  0  0  0  0  0  0  0
   31.8500   28.6058   48.6862 H   0  0  0  0  0  0  0  0  0  0  0  0
   33.2467   27.0794   46.3795 H   0  0  0  0  0  0  0  0  0  0  0  0
   31.3644   24.0265   47.1789 H   0  0  0  0  0  0  0  0  0  0  0  0
  1  6  2  0
  1  2  1  0
  2  3  2  0
  3  4  1  0
  5 17  1  0
  5  4  2  0
  6  5  1  0
  7  2  1  0
  7  8  2  0
  8  9  1  0
 10  9  2  0
 11 10  1  0
 12 11  2  0
 13 12  1  0
 14 13  2  0
 14 15  1  0
 15 16  2  0
 16 11  1  0
 16  7  1  0
 18 17  1  0
 19 18  1  0
 19 17  1  0
 20 19  1  0
 20 21  2  0
 22 20  1  0
  1 23  1  0
  3 24  1  0
  8 25  1  0
  9 26  1  0
 10 27  1  0
 12 28  1  0
 13 29  1  0
 14 30  1  0
 15 31  1  0
 17 32  1  1
 18 33  1  0
 18 34  1  0
 19 35  1  6
 22 36  1  0
M  ISO  8  23  14  24  14  25  14  26  14  27  14  28  14  29  14  30  14
M  ISO  6  31  14  32  13  33  13  34  13  35  13  36   3
M  END
>  <minimizedAffinity>  (1) 
-6.52734852

>  <minimizedRMSD>  (1) 
0.733296096

$$$$
