
     RDKit          3D

 50 53  0  0  0  0  0  0  0  0999 V2000
   32.7530   32.4290   42.9920 C   0  0  0  0  0  0  0  0  0  0  0  0
   32.9970   33.5430   42.1310 C   0  0  0  0  0  0  0  0  0  0  0  0
   31.9070   34.1120   41.4560 C   0  0  0  0  0  0  0  0  0  0  0  0
   30.6680   33.5640   41.6630 N   0  0  0  0  0  0  0  0  0  0  0  0
   30.4760   32.5050   42.4890 C   0  0  0  0  0  0  0  0  0  0  0  0
   31.4950   31.9560   43.1350 N   0  0  0  0  0  0  0  0  0  0  0  0
   29.1610   31.9960   42.6500 N   0  0  0  0  0  0  0  0  0  0  0  0
   28.2890   31.9460   41.6400 C   0  0  0  0  0  0  0  0  0  0  0  0
   27.0060   31.4520   41.7860 C   0  0  0  0  0  0  0  0  0  0  0  0
   26.6970   31.0170   43.0480 C   0  0  0  0  0  0  0  0  0  0  0  0
   25.5440   30.5440   43.2850 O   0  0  0  0  0  0  0  0  0  0  0  0
   27.5180   31.0390   44.0970 N   0  0  0  0  0  0  0  0  0  0  0  0
   28.7650   31.5400   43.8760 C   0  0  0  0  0  0  0  0  0  0  0  0
   29.5610   31.5760   44.8370 O   0  0  0  0  0  0  0  0  0  0  0  0
   26.6380   29.2040   47.7600 C   0  0  0  0  0  0  0  0  0  0  0  0
   26.5180   30.5670   47.6770 C   0  0  0  0  0  0  0  0  0  0  0  0
   26.7820   31.2700   46.5190 C   0  0  0  0  0  0  0  0  0  0  0  0
   27.1830   30.5820   45.4040 C   0  0  0  0  0  0  0  0  0  0  0  0
   27.3140   29.1890   45.4620 C   0  0  0  0  0  0  0  0  0  0  0  0
   27.0400   28.4970   46.6490 C   0  0  0  0  0  0  0  0  0  0  0  0
   26.2850   28.3960   49.2550 S   0  0  0  0  0  0  0  0  0  0  0  0
   27.2290   28.7220   50.3520 O   0  0  0  0  0  0  0  0  0  0  0  0
   24.8780   28.7560   49.6750 O   0  0  0  0  0  0  0  0  0  0  0  0
   26.0060   31.3720   40.7050 C   0  0  0  0  0  0  0  0  0  0  0  0
   25.4070   32.6480   40.3690 N   0  0  0  0  0  0  0  0  0  0  0  0
   24.9210   33.3510   41.5210 C   0  0  0  0  0  0  0  0  0  0  0  0
   23.4940   33.0960   41.8720 C   0  0  0  0  0  0  0  0  0  0  0  0
   22.5970   33.1160   40.7160 N   0  0  0  0  0  0  0  0  0  0  0  0
   23.0860   32.0400   39.8580 C   0  0  0  0  0  0  0  0  0  0  0  0
   24.4240   32.5020   39.3240 C   0  0  0  0  0  0  0  0  0  0  0  0
   33.5853   31.9585   43.5360 H   0  0  0  0  0  0  0  0  0  0  0  0
   34.0131   33.9439   42.0009 H   0  0  0  0  0  0  0  0  0  0  0  0
   32.0423   34.9707   40.7820 H   0  0  0  0  0  0  0  0  0  0  0  0
   28.6042   32.3126   40.6519 H   0  0  0  0  0  0  0  0  0  0  0  0
   26.1981   31.1235   48.5703 H   0  0  0  0  0  0  0  0  0  0  0  0
   26.6723   32.3642   46.4917 H   0  0  0  0  0  0  0  0  0  0  0  0
   27.6346   28.6336   44.5683 H   0  0  0  0  0  0  0  0  0  0  0  0
   27.1447   27.4029   46.6928 H   0  0  0  0  0  0  0  0  0  0  0  0
   26.4174   27.0514   49.0280 H   0  0  0  0  0  0  0  0  0  0  0  0
   26.4978   30.9719   39.8061 H   0  0  0  0  0  0  0  0  0  0  0  0
   25.1953   30.7215   41.0650 H   0  0  0  0  0  0  0  0  0  0  0  0
   25.5396   33.0591   42.3825 H   0  0  0  0  0  0  0  0  0  0  0  0
   24.9852   34.4206   41.2723 H   0  0  0  0  0  0  0  0  0  0  0  0
   23.4241   32.1078   42.3501 H   0  0  0  0  0  0  0  0  0  0  0  0
   23.1755   33.9071   42.5433 H   0  0  0  0  0  0  0  0  0  0  0  0
   21.6249   32.9377   41.0059 H   0  0  0  0  0  0  0  0  0  0  0  0
   23.2064   31.1137   40.4389 H   0  0  0  0  0  0  0  0  0  0  0  0
   22.3805   31.8259   39.0416 H   0  0  0  0  0  0  0  0  0  0  0  0
   24.7888   31.7631   38.5953 H   0  0  0  0  0  0  0  0  0  0  0  0
   24.2790   33.4873   38.8569 H   0  0  0  0  0  0  0  0  0  0  0  0
  1  6  2  0
  2  1  1  0
  3  4  1  0
  3  2  2  0
  4  5  2  0
  5  7  1  0
  5  6  1  0
  7 13  1  0
  8  9  2  0
  8  7  1  0
  9 10  1  0
 10 11  2  0
 10 12  1  0
 12 18  1  0
 13 12  1  0
 13 14  2  0
 15 21  1  0
 16 15  2  0
 17 16  1  0
 18 19  1  0
 18 17  2  0
 19 20  2  0
 20 15  1  0
 21 23  2  0
 21 22  2  0
 24  9  1  0
 25 24  1  0
 25 26  1  0
 26 27  1  0
 28 27  1  0
 29 28  1  0
 30 29  1  0
 30 25  1  0
  1 31  1  0
  2 32  1  0
  3 33  1  0
  8 34  1  0
 16 35  1  0
 17 36  1  0
 19 37  1  0
 20 38  1  0
 21 39  1  0
 24 40  1  0
 24 41  1  0
 26 42  1  0
 26 43  1  0
 27 44  1  0
 27 45  1  0
 28 46  1  0
 29 47  1  0
 29 48  1  0
 30 49  1  0
 30 50  1  0
M  ISO  8  31  14  32  14  33  14  34  14  35  14  36  14  37  14  38  14
M  ISO  8  39  11  40   8  41   8  42  13  43  13  44  13  45  13  46   5
M  ISO  4  47  13  48  13  49  13  50  13
M  END
>  <minimizedAffinity>  (1) 
-5.40227032

>  <minimizedRMSD>  (1) 
2.8054142

$$$$
