
     RDKit          3D

 41 45  0  0  1  0  0  0  0  0999 V2000
   34.4120   30.3970   47.6870 C   0  0  0  0  0  0  0  0  0  0  0  0
   35.6450   30.2390   48.2940 C   0  0  0  0  0  0  0  0  0  0  0  0
   35.8070   29.0330   49.0480 C   0  0  0  0  0  0  0  0  0  0  0  0
   34.7810   28.1430   49.1250 N   0  0  0  0  0  0  0  0  0  0  0  0
   33.6220   28.3530   48.5180 C   0  0  0  0  0  0  0  0  0  0  0  0
   33.4580   29.4610   47.8190 N   0  0  0  0  0  0  0  0  0  0  0  0
   36.8040   31.1130   48.2860 C   0  0  0  0  0  0  0  0  0  0  0  0
   36.9080   31.8240   49.4680 C   0  0  0  0  0  0  0  0  0  0  0  0
   37.9540   32.7260   49.6690 C   0  0  0  0  0  0  0  0  0  0  0  0
   38.9010   32.9140   48.6770 C   0  0  0  0  0  0  0  0  0  0  0  0
   38.7790   32.1930   47.5010 C   0  0  0  0  0  0  0  0  0  0  0  0
   39.6840   32.3180   46.4480 C   0  0  0  0  0  0  0  0  0  0  0  0
   39.5050   31.5680   45.2980 C   0  0  0  0  0  0  0  0  0  0  0  0
   38.4570   30.6910   45.1490 C   0  0  0  0  0  0  0  0  0  0  0  0
   37.5590   30.5690   46.1960 C   0  0  0  0  0  0  0  0  0  0  0  0
   37.7510   31.3140   47.3170 C   0  0  0  0  0  0  0  0  0  0  0  0
   32.5330   27.3640   48.6340 C   0  0  1  0  0  0  0  0  0  0  0  0
   31.1670   27.6700   48.1330 C   0  0  0  0  0  0  0  0  0  0  0  0
   32.0050   26.6450   47.4220 C   0  0  1  0  0  0  0  0  0  0  0  0
   32.7000   26.9540   46.1600 C   0  0  0  0  0  0  0  0  0  0  0  0
   33.9100   26.4670   45.6540 C   0  0  0  0  0  0  0  0  0  0  0  0
   34.3760   26.8810   44.4310 C   0  0  0  0  0  0  0  0  0  0  0  0
   33.6920   27.7530   43.7020 N   0  0  0  0  0  0  0  0  0  0  0  0
   32.5320   28.2350   44.1620 C   0  0  0  0  0  0  0  0  0  0  0  0
   32.0670   27.8450   45.3420 N   0  0  0  0  0  0  0  0  0  0  0  0
   34.2108   31.2987   47.0900 H   0  0  0  0  0  0  0  0  0  0  0  0
   36.7569   28.8268   49.5629 H   0  0  0  0  0  0  0  0  0  0  0  0
   36.1576   31.6768   50.2587 H   0  0  0  0  0  0  0  0  0  0  0  0
   38.0256   33.2859   50.6131 H   0  0  0  0  0  0  0  0  0  0  0  0
   39.7320   33.6204   48.8197 H   0  0  0  0  0  0  0  0  0  0  0  0
   40.5359   33.0089   46.5303 H   0  0  0  0  0  0  0  0  0  0  0  0
   40.2265   31.6777   44.4750 H   0  0  0  0  0  0  0  0  0  0  0  0
   38.3355   30.1042   44.2265 H   0  0  0  0  0  0  0  0  0  0  0  0
   36.7043   29.8806   46.1220 H   0  0  0  0  0  0  0  0  0  0  0  0
   32.9537   27.0488   49.6003 H   0  0  0  0  0  0  0  0  0  0  0  0
   30.2866   27.3535   48.7115 H   0  0  0  0  0  0  0  0  0  0  0  0
   30.6400   28.5865   47.8291 H   0  0  0  0  0  0  0  0  0  0  0  0
   31.8051   25.6113   47.1035 H   0  0  0  0  0  0  0  0  0  0  0  0
   34.4943   25.7444   46.2426 H   0  0  0  0  0  0  0  0  0  0  0  0
   35.3289   26.4845   44.0505 H   0  0  0  0  0  0  0  0  0  0  0  0
   31.9615   28.9574   43.5598 H   0  0  0  0  0  0  0  0  0  0  0  0
  1  6  2  0
  1  2  1  0
  2  3  2  0
  3  4  1  0
  5 17  1  0
  5  4  2  0
  6  5  1  0
  7  2  1  0
  7  8  2  0
  8  9  1  0
 10  9  2  0
 11 10  1  0
 12 11  2  0
 13 12  1  0
 14 13  2  0
 14 15  1  0
 15 16  2  0
 16 11  1  0
 16  7  1  0
 18 17  1  0
 19 18  1  0
 19 17  1  0
 20 19  1  0
 21 20  2  0
 22 21  1  0
 23 24  1  0
 23 22  2  0
 24 25  2  0
 25 20  1  0
  1 26  1  0
  3 27  1  0
  8 28  1  0
  9 29  1  0
 10 30  1  0
 12 31  1  0
 13 32  1  0
 14 33  1  0
 15 34  1  0
 17 35  1  1
 18 36  1  0
 18 37  1  0
 19 38  1  1
 21 39  1  0
 22 40  1  0
 24 41  1  0
M  ISO  8  26  14  27  14  28  14  29  14  30  14  31  14  32  14  33  14
M  ISO  8  34  14  35  13  36  13  37  13  38  13  39  14  40  14  41  14
M  END
>  <minimizedAffinity>  (1) 
-6.27720404

>  <minimizedRMSD>  (1) 
1.64795339

$$$$
