
     RDKit          3D

 34 37  0  0  1  0  0  0  0  0999 V2000
   37.6150   31.5880   48.0780 C   0  0  0  0  0  0  0  0  0  0  0  0
   37.5720   32.4010   49.1760 C   0  0  0  0  0  0  0  0  0  0  0  0
   38.4750   33.4520   49.3440 C   0  0  0  0  0  0  0  0  0  0  0  0
   39.4360   33.6790   48.3820 C   0  0  0  0  0  0  0  0  0  0  0  0
   39.4650   32.8520   47.2850 C   0  0  0  0  0  0  0  0  0  0  0  0
   40.4020   32.9940   46.2430 C   0  0  0  0  0  0  0  0  0  0  0  0
   40.3810   32.1340   45.1660 C   0  0  0  0  0  0  0  0  0  0  0  0
   39.4690   31.1220   45.0600 C   0  0  0  0  0  0  0  0  0  0  0  0
   38.5420   30.9670   46.0710 C   0  0  0  0  0  0  0  0  0  0  0  0
   38.5730   31.8290   47.1390 C   0  0  0  0  0  0  0  0  0  0  0  0
   35.5050   30.3680   47.2630 C   0  0  0  0  0  0  0  0  0  0  0  0
   36.5840   30.5750   48.1210 C   0  0  0  0  0  0  0  0  0  0  0  0
   36.6750   29.6470   49.2000 C   0  0  0  0  0  0  0  0  0  0  0  0
   35.7470   28.6580   49.3240 N   0  0  0  0  0  0  0  0  0  0  0  0
   34.7360   28.5230   48.4590 C   0  0  0  0  0  0  0  0  0  0  0  0
   34.6240   29.3720   47.4430 N   0  0  0  0  0  0  0  0  0  0  0  0
   33.7560   27.4240   48.6640 C   0  0  1  0  0  0  0  0  0  0  0  0
   32.3020   27.7350   48.6650 C   0  0  0  0  0  0  0  0  0  0  0  0
   32.9050   26.9730   47.5110 C   0  0  2  0  0  0  0  0  0  0  0  0
   32.6160   25.1890   47.3650 S   0  0  0  0  0  0  0  0  0  0  0  0
   36.8070   32.2226   49.9461 H   0  0  0  0  0  0  0  0  0  0  0  0
   38.4203   34.0934   50.2360 H   0  0  0  0  0  0  0  0  0  0  0  0
   40.1601   34.5000   48.4897 H   0  0  0  0  0  0  0  0  0  0  0  0
   41.1543   33.7952   46.2889 H   0  0  0  0  0  0  0  0  0  0  0  0
   41.1232   32.2668   44.3651 H   0  0  0  0  0  0  0  0  0  0  0  0
   39.4734   30.4478   44.1909 H   0  0  0  0  0  0  0  0  0  0  0  0
   37.7903   30.1654   46.0217 H   0  0  0  0  0  0  0  0  0  0  0  0
   35.3709   31.0459   46.4072 H   0  0  0  0  0  0  0  0  0  0  0  0
   37.4931   29.7299   49.9306 H   0  0  0  0  0  0  0  0  0  0  0  0
   34.4407   26.9226   49.3638 H   0  0  0  0  0  0  0  0  0  0  0  0
   31.6311   27.2232   49.3707 H   0  0  0  0  0  0  0  0  0  0  0  0
   31.7043   28.6534   48.7616 H   0  0  0  0  0  0  0  0  0  0  0  0
   32.8995   27.1073   46.4192 H   0  0  0  0  0  0  0  0  0  0  0  0
   32.5266   24.6370   48.6157 H   0  0  0  0  0  0  0  0  0  0  0  0
  1 12  1  0
  1  2  2  0
  2  3  1  0
  4  3  2  0
  5  4  1  0
  6  5  2  0
  7  6  1  0
  8  7  2  0
  8  9  1  0
  9 10  2  0
 10  5  1  0
 10  1  1  0
 11 16  2  0
 11 12  1  0
 12 13  2  0
 13 14  1  0
 15 17  1  0
 15 14  2  0
 16 15  1  0
 17 18  1  0
 19 17  1  0
 19 18  1  0
 20 19  1  0
  2 21  1  0
  3 22  1  0
  4 23  1  0
  6 24  1  0
  7 25  1  0
  8 26  1  0
  9 27  1  0
 11 28  1  0
 13 29  1  0
 17 30  1  1
 18 31  1  0
 18 32  1  0
 19 33  1  6
 20 34  1  0
M  ISO  8  21  14  22  14  23  14  24  14  25  14  26  14  27  14  28  14
M  ISO  6  29  14  30  13  31  13  32  13  33  13  34  11
M  END
>  <minimizedAffinity>  (1) 
-6.5522542

>  <minimizedRMSD>  (1) 
0.748894811

$$$$
