
     RDKit          3D

 50 54  0  0  1  0  0  0  0  0999 V2000
   34.0550   30.1010   47.2560 C   0  0  0  0  0  0  0  0  0  0  0  0
   35.0930   29.9590   48.1670 C   0  0  0  0  0  0  0  0  0  0  0  0
   34.9220   28.8900   49.1060 C   0  0  0  0  0  0  0  0  0  0  0  0
   33.8010   28.1170   49.0440 N   0  0  0  0  0  0  0  0  0  0  0  0
   32.8410   28.3220   48.1270 C   0  0  0  0  0  0  0  0  0  0  0  0
   32.9770   29.3030   47.2520 N   0  0  0  0  0  0  0  0  0  0  0  0
   36.3140   30.7200   48.3170 C   0  0  0  0  0  0  0  0  0  0  0  0
   36.4370   31.2430   49.5650 C   0  0  0  0  0  0  0  0  0  0  0  0
   37.5440   32.0160   49.9280 C   0  0  0  0  0  0  0  0  0  0  0  0
   38.5290   32.2550   49.0080 C   0  0  0  0  0  0  0  0  0  0  0  0
   38.3950   31.7190   47.7400 C   0  0  0  0  0  0  0  0  0  0  0  0
   39.3470   31.9020   46.7130 C   0  0  0  0  0  0  0  0  0  0  0  0
   39.1500   31.3440   45.4780 C   0  0  0  0  0  0  0  0  0  0  0  0
   38.0460   30.6020   45.1940 C   0  0  0  0  0  0  0  0  0  0  0  0
   37.1000   30.4090   46.1840 C   0  0  0  0  0  0  0  0  0  0  0  0
   37.3050   30.9720   47.4170 C   0  0  0  0  0  0  0  0  0  0  0  0
   31.6470   27.4290   48.1170 C   0  0  1  0  0  0  0  0  0  0  0  0
   30.6730   27.5400   49.2520 C   0  0  0  0  0  0  0  0  0  0  0  0
   30.2930   27.9970   47.8790 C   0  0  2  0  0  0  0  0  0  0  0  0
   29.1770   27.0180   46.8470 S   0  0  0  0  0  0  0  0  0  0  0  0
   27.4370   27.4680   47.1140 C   0  0  0  0  0  0  0  0  0  0  0  0
   26.9640   26.9410   48.4200 C   0  0  0  0  0  0  0  0  0  0  0  0
   27.0850   27.8460   49.5920 C   0  0  0  0  0  0  0  0  0  0  0  0
   26.2760   29.1030   49.2500 C   0  0  0  0  0  0  0  0  0  0  0  0
   27.0300   29.7550   48.1300 C   0  0  0  0  0  0  0  0  0  0  0  0
   27.2030   28.9380   46.9050 C   0  0  0  0  0  0  0  0  0  0  0  0
   34.1195   30.9024   46.5053 H   0  0  0  0  0  0  0  0  0  0  0  0
   35.6888   28.6949   49.8702 H   0  0  0  0  0  0  0  0  0  0  0  0
   35.6473   31.0538   50.3070 H   0  0  0  0  0  0  0  0  0  0  0  0
   37.6228   32.4287   50.9446 H   0  0  0  0  0  0  0  0  0  0  0  0
   39.4086   32.8606   49.2716 H   0  0  0  0  0  0  0  0  0  0  0  0
   40.2522   32.4963   46.9063 H   0  0  0  0  0  0  0  0  0  0  0  0
   39.9055   31.5002   44.6939 H   0  0  0  0  0  0  0  0  0  0  0  0
   37.9081   30.1633   44.1947 H   0  0  0  0  0  0  0  0  0  0  0  0
   36.1971   29.8130   45.9852 H   0  0  0  0  0  0  0  0  0  0  0  0
   32.2297   26.6192   47.6537 H   0  0  0  0  0  0  0  0  0  0  0  0
   30.2167   26.6340   49.6775 H   0  0  0  0  0  0  0  0  0  0  0  0
   30.6880   27.9995   50.2513 H   0  0  0  0  0  0  0  0  0  0  0  0
   29.8744   28.9374   47.4911 H   0  0  0  0  0  0  0  0  0  0  0  0
   26.8130   26.9834   46.3487 H   0  0  0  0  0  0  0  0  0  0  0  0
   25.9009   26.6814   48.3086 H   0  0  0  0  0  0  0  0  0  0  0  0
   27.6256   26.0911   48.6436 H   0  0  0  0  0  0  0  0  0  0  0  0
   26.6752   27.3621   50.4909 H   0  0  0  0  0  0  0  0  0  0  0  0
   28.1367   28.0917   49.8007 H   0  0  0  0  0  0  0  0  0  0  0  0
   25.2598   28.8330   48.9267 H   0  0  0  0  0  0  0  0  0  0  0  0
   26.1630   29.7709   50.1167 H   0  0  0  0  0  0  0  0  0  0  0  0
   26.4915   30.6724   47.8502 H   0  0  0  0  0  0  0  0  0  0  0  0
   28.0447   29.9310   48.5166 H   0  0  0  0  0  0  0  0  0  0  0  0
   28.0655   29.3397   46.3529 H   0  0  0  0  0  0  0  0  0  0  0  0
   26.2465   29.0097   46.3664 H   0  0  0  0  0  0  0  0  0  0  0  0
  1  2  2  0
  2  7  1  0
  2  3  1  0
  4  3  2  0
  5  4  1  0
  6  1  1  0
  6  5  2  0
  7  8  2  0
  8  9  1  0
 10  9  2  0
 11 10  1  0
 12 11  2  0
 13 12  1  0
 14 13  2  0
 14 15  1  0
 15 16  2  0
 16 11  1  0
 16  7  1  0
 17  5  1  0
 17 18  1  0
 19 17  1  0
 19 18  1  0
 20 21  1  0
 20 19  1  0
 21 22  1  0
 22 23  1  0
 24 23  1  0
 25 24  1  0
 26 21  1  0
 26 25  1  0
  1 27  1  0
  3 28  1  0
  8 29  1  0
  9 30  1  0
 10 31  1  0
 12 32  1  0
 13 33  1  0
 14 34  1  0
 15 35  1  0
 17 36  1  6
 18 37  1  0
 18 38  1  0
 19 39  1  1
 21 40  1  0
 22 41  1  0
 22 42  1  0
 23 43  1  0
 23 44  1  0
 24 45  1  0
 24 46  1  0
 25 47  1  0
 25 48  1  0
 26 49  1  0
 26 50  1  0
M  ISO  8  27  14  28  14  29  14  30  14  31  14  32  14  33  14  34  14
M  ISO  8  35  14  36  13  37  13  38  13  39  13  40  13  41  13  42  13
M  ISO  8  43  13  44  13  45  13  46  13  47  13  48  13  49  13  50  13
M  END
>  <minimizedAffinity>  (1) 
-7.50315619

>  <minimizedRMSD>  (1) 
3.11263728

$$$$
