
     RDKit          3D

 47 51  0  0  1  0  0  0  0  0999 V2000
   34.6560   30.3090   47.4480 C   0  0  0  0  0  0  0  0  0  0  0  0
   35.7990   30.2770   48.2360 C   0  0  0  0  0  0  0  0  0  0  0  0
   35.8810   29.1390   49.1000 C   0  0  0  0  0  0  0  0  0  0  0  0
   34.8880   28.2120   49.0940 N   0  0  0  0  0  0  0  0  0  0  0  0
   33.8230   28.3160   48.3080 C   0  0  0  0  0  0  0  0  0  0  0  0
   33.7040   29.3640   47.4830 N   0  0  0  0  0  0  0  0  0  0  0  0
   36.8960   31.2100   48.3140 C   0  0  0  0  0  0  0  0  0  0  0  0
   36.8960   31.8830   49.5100 C   0  0  0  0  0  0  0  0  0  0  0  0
   37.8710   32.8380   49.8010 C   0  0  0  0  0  0  0  0  0  0  0  0
   38.8510   33.1130   48.8730 C   0  0  0  0  0  0  0  0  0  0  0  0
   38.8280   32.4260   47.6850 C   0  0  0  0  0  0  0  0  0  0  0  0
   39.7840   32.6260   46.6630 C   0  0  0  0  0  0  0  0  0  0  0  0
   39.7150   31.9100   45.4890 C   0  0  0  0  0  0  0  0  0  0  0  0
   38.7350   30.9920   45.2710 C   0  0  0  0  0  0  0  0  0  0  0  0
   37.7870   30.7790   46.2600 C   0  0  0  0  0  0  0  0  0  0  0  0
   37.8700   31.4970   47.4170 C   0  0  0  0  0  0  0  0  0  0  0  0
   32.7750   27.2550   48.3550 C   0  0  1  0  0  0  0  0  0  0  0  0
   31.4070   27.6200   48.8450 C   0  0  0  0  0  0  0  0  0  0  0  0
   31.6420   27.2900   47.3890 C   0  0  2  0  0  0  0  0  0  0  0  0
   31.0650   25.7310   46.7010 S   0  0  0  0  0  0  0  0  0  0  0  0
   29.6270   26.0860   45.6520 C   0  0  0  0  0  0  0  0  0  0  0  0
   29.2740   27.5450   45.6580 C   0  0  0  0  0  0  0  0  0  0  0  0
   28.2600   27.7040   46.7440 C   0  0  0  0  0  0  0  0  0  0  0  0
   27.9630   26.3410   47.2920 C   0  0  0  0  0  0  0  0  0  0  0  0
   28.4410   25.3660   46.2540 C   0  0  0  0  0  0  0  0  0  0  0  0
   34.5238   31.1551   46.7576 H   0  0  0  0  0  0  0  0  0  0  0  0
   36.7464   29.0152   49.7676 H   0  0  0  0  0  0  0  0  0  0  0  0
   36.1138   31.6658   50.2522 H   0  0  0  0  0  0  0  0  0  0  0  0
   37.8570   33.3676   50.7650 H   0  0  0  0  0  0  0  0  0  0  0  0
   39.6300   33.8620   49.0782 H   0  0  0  0  0  0  0  0  0  0  0  0
   40.5903   33.3603   46.8070 H   0  0  0  0  0  0  0  0  0  0  0  0
   40.4704   32.0844   44.7086 H   0  0  0  0  0  0  0  0  0  0  0  0
   38.6954   30.4288   44.3270 H   0  0  0  0  0  0  0  0  0  0  0  0
   36.9819   30.0438   46.1143 H   0  0  0  0  0  0  0  0  0  0  0  0
   33.5259   26.4989   48.6279 H   0  0  0  0  0  0  0  0  0  0  0  0
   30.8460   26.9233   49.4852 H   0  0  0  0  0  0  0  0  0  0  0  0
   30.9740   28.4691   49.3942 H   0  0  0  0  0  0  0  0  0  0  0  0
   31.4231   27.8068   46.4430 H   0  0  0  0  0  0  0  0  0  0  0  0
   29.8649   25.7713   44.6252 H   0  0  0  0  0  0  0  0  0  0  0  0
   30.1641   28.1554   45.8704 H   0  0  0  0  0  0  0  0  0  0  0  0
   28.8848   27.8755   44.6837 H   0  0  0  0  0  0  0  0  0  0  0  0
   28.6612   28.3487   47.5399 H   0  0  0  0  0  0  0  0  0  0  0  0
   27.3441   28.1697   46.3513 H   0  0  0  0  0  0  0  0  0  0  0  0
   28.4994   26.1845   48.2395 H   0  0  0  0  0  0  0  0  0  0  0  0
   26.8904   26.2148   47.5006 H   0  0  0  0  0  0  0  0  0  0  0  0
   27.6645   25.1774   45.4980 H   0  0  0  0  0  0  0  0  0  0  0  0
   28.6901   24.3759   46.6634 H   0  0  0  0  0  0  0  0  0  0  0  0
  1  6  2  0
  1  2  1  0
  2  7  1  0
  2  3  2  0
  4  3  1  0
  5 17  1  0
  5  4  2  0
  6  5  1  0
  7  8  2  0
  8  9  1  0
 10  9  2  0
 11 10  1  0
 12 11  2  0
 13 12  1  0
 14 13  2  0
 14 15  1  0
 15 16  2  0
 16 11  1  0
 16  7  1  0
 17 18  1  0
 19 17  1  0
 19 18  1  0
 20 19  1  0
 21 22  1  0
 21 25  1  0
 21 20  1  0
 22 23  1  0
 23 24  1  0
 25 24  1  0
  1 26  1  0
  3 27  1  0
  8 28  1  0
  9 29  1  0
 10 30  1  0
 12 31  1  0
 13 32  1  0
 14 33  1  0
 15 34  1  0
 17 35  1  1
 18 36  1  0
 18 37  1  0
 19 38  1  6
 21 39  1  0
 22 40  1  0
 22 41  1  0
 23 42  1  0
 23 43  1  0
 24 44  1  0
 24 45  1  0
 25 46  1  0
 25 47  1  0
M  ISO  8  26  14  27  14  28  14  29  14  30  14  31  14  32  14  33  14
M  ISO  8  34  14  35  13  36  13  37  13  38  13  39  13  40  13  41  13
M  ISO  6  42  13  43  13  44  13  45  13  46  13  47  13
M  END
>  <minimizedAffinity>  (1) 
-6.75627375

>  <minimizedRMSD>  (1) 
1.74337804

$$$$
