
     RDKit          3D

 44 47  0  0  0  0  0  0  0  0999 V2000
   33.4990   30.4140   44.1460 C   0  0  0  0  0  0  0  0  0  0  0  0
   33.7580   31.4750   43.2450 C   0  0  0  0  0  0  0  0  0  0  0  0
   32.6680   32.1130   42.6380 C   0  0  0  0  0  0  0  0  0  0  0  0
   31.4160   31.6620   42.9620 N   0  0  0  0  0  0  0  0  0  0  0  0
   31.1960   30.6550   43.8210 C   0  0  0  0  0  0  0  0  0  0  0  0
   32.2300   30.0460   44.4000 N   0  0  0  0  0  0  0  0  0  0  0  0
   29.8670   30.2520   44.1020 N   0  0  0  0  0  0  0  0  0  0  0  0
   28.9210   30.2440   43.1600 C   0  0  0  0  0  0  0  0  0  0  0  0
   27.6200   29.8570   43.4150 C   0  0  0  0  0  0  0  0  0  0  0  0
   27.3810   29.4860   44.7030 C   0  0  0  0  0  0  0  0  0  0  0  0
   26.2160   29.1150   45.0370 O   0  0  0  0  0  0  0  0  0  0  0  0
   28.2730   29.4680   45.6950 N   0  0  0  0  0  0  0  0  0  0  0  0
   29.5400   29.8620   45.3730 C   0  0  0  0  0  0  0  0  0  0  0  0
   30.4030   29.8610   46.2690 O   0  0  0  0  0  0  0  0  0  0  0  0
   27.5880   27.7870   49.4730 C   0  0  0  0  0  0  0  0  0  0  0  0
   27.4480   29.1480   49.3310 C   0  0  0  0  0  0  0  0  0  0  0  0
   27.6510   29.7990   48.1330 C   0  0  0  0  0  0  0  0  0  0  0  0
   28.0060   29.0660   47.0330 C   0  0  0  0  0  0  0  0  0  0  0  0
   28.1540   27.6810   47.1580 C   0  0  0  0  0  0  0  0  0  0  0  0
   27.9460   27.0280   48.3760 C   0  0  0  0  0  0  0  0  0  0  0  0
   27.3200   27.0430   51.0140 S   0  0  0  0  0  0  0  0  0  0  0  0
   28.5290   27.0150   51.8850 O   0  0  0  0  0  0  0  0  0  0  0  0
   26.2020   27.7850   51.7130 O   0  0  0  0  0  0  0  0  0  0  0  0
   26.5520   29.8280   42.4120 C   0  0  0  0  0  0  0  0  0  0  0  0
   25.7130   31.0310   42.3430 C   0  0  0  0  0  0  0  0  0  0  0  0
   25.7010   32.2200   43.0280 C   0  0  0  0  0  0  0  0  0  0  0  0
   24.7840   33.2100   42.7590 C   0  0  0  0  0  0  0  0  0  0  0  0
   23.8500   33.0410   41.7950 N   0  0  0  0  0  0  0  0  0  0  0  0
   23.8520   31.8800   41.1160 C   0  0  0  0  0  0  0  0  0  0  0  0
   24.7390   30.9270   41.3820 N   0  0  0  0  0  0  0  0  0  0  0  0
   34.3333   29.8918   44.6372 H   0  0  0  0  0  0  0  0  0  0  0  0
   34.7890   31.7906   43.0270 H   0  0  0  0  0  0  0  0  0  0  0  0
   32.8120   32.9424   41.9300 H   0  0  0  0  0  0  0  0  0  0  0  0
   29.1884   30.5581   42.1403 H   0  0  0  0  0  0  0  0  0  0  0  0
   27.1618   29.7424   50.2112 H   0  0  0  0  0  0  0  0  0  0  0  0
   27.5296   30.8900   48.0622 H   0  0  0  0  0  0  0  0  0  0  0  0
   28.4414   27.0907   46.2754 H   0  0  0  0  0  0  0  0  0  0  0  0
   28.0644   25.9375   48.4589 H   0  0  0  0  0  0  0  0  0  0  0  0
   26.9900   25.7330   50.7861 H   0  0  0  0  0  0  0  0  0  0  0  0
   27.0177   29.6833   41.4260 H   0  0  0  0  0  0  0  0  0  0  0  0
   25.8805   29.0098   42.7114 H   0  0  0  0  0  0  0  0  0  0  0  0
   26.4485   32.3870   43.8175 H   0  0  0  0  0  0  0  0  0  0  0  0
   24.8106   34.1478   43.3333 H   0  0  0  0  0  0  0  0  0  0  0  0
   23.1050   31.7162   40.3253 H   0  0  0  0  0  0  0  0  0  0  0  0
  1  6  2  0
  2  1  1  0
  3  4  1  0
  3  2  2  0
  4  5  2  0
  5  7  1  0
  5  6  1  0
  7 13  1  0
  8  9  2  0
  8  7  1  0
  9 10  1  0
 10 11  2  0
 10 12  1  0
 12 18  1  0
 13 12  1  0
 13 14  2  0
 15 21  1  0
 16 15  2  0
 17 16  1  0
 18 19  1  0
 18 17  2  0
 19 20  2  0
 20 15  1  0
 21 23  2  0
 21 22  2  0
 24  9  1  0
 25 24  1  0
 25 26  2  0
 27 26  1  0
 28 27  2  0
 29 30  2  0
 29 28  1  0
 30 25  1  0
  1 31  1  0
  2 32  1  0
  3 33  1  0
  8 34  1  0
 16 35  1  0
 17 36  1  0
 19 37  1  0
 20 38  1  0
 21 39  1  0
 24 40  1  0
 24 41  1  0
 26 42  1  0
 27 43  1  0
 29 44  1  0
M  ISO  8  31  14  32  14  33  14  34  14  35  14  36  14  37  14  38  14
M  ISO  6  39  11  40   8  41   8  42  14  43  14  44  14
M  END
>  <minimizedAffinity>  (1) 
-5.23233509

>  <minimizedRMSD>  (1) 
0.439160734

$$$$
