
     RDKit          3D

 41 45  0  0  1  0  0  0  0  0999 V2000
   35.5560   30.3410   47.2450 C   0  0  0  0  0  0  0  0  0  0  0  0
   36.6100   30.5770   48.1170 C   0  0  0  0  0  0  0  0  0  0  0  0
   36.6840   29.6710   49.2250 C   0  0  0  0  0  0  0  0  0  0  0  0
   35.7610   28.6810   49.3540 N   0  0  0  0  0  0  0  0  0  0  0  0
   34.7690   28.5270   48.4570 C   0  0  0  0  0  0  0  0  0  0  0  0
   34.6660   29.3500   47.4120 N   0  0  0  0  0  0  0  0  0  0  0  0
   37.6300   31.5940   48.0750 C   0  0  0  0  0  0  0  0  0  0  0  0
   37.5800   32.4100   49.1770 C   0  0  0  0  0  0  0  0  0  0  0  0
   38.4760   33.4650   49.3450 C   0  0  0  0  0  0  0  0  0  0  0  0
   39.4380   33.6990   48.3800 C   0  0  0  0  0  0  0  0  0  0  0  0
   39.4760   32.8680   47.2740 C   0  0  0  0  0  0  0  0  0  0  0  0
   40.4080   33.0180   46.2380 C   0  0  0  0  0  0  0  0  0  0  0  0
   40.3930   32.1570   45.1600 C   0  0  0  0  0  0  0  0  0  0  0  0
   39.4920   31.1470   45.0590 C   0  0  0  0  0  0  0  0  0  0  0  0
   38.5630   30.9870   46.0750 C   0  0  0  0  0  0  0  0  0  0  0  0
   38.5840   31.8510   47.1500 C   0  0  0  0  0  0  0  0  0  0  0  0
   33.8010   27.4110   48.6680 C   0  0  1  0  0  0  0  0  0  0  0  0
   32.3390   27.7420   48.7160 C   0  0  0  0  0  0  0  0  0  0  0  0
   32.9060   26.9880   47.5550 C   0  0  2  0  0  0  0  0  0  0  0  0
   32.6040   25.2200   47.3380 S   0  0  0  0  0  0  0  0  0  0  0  0
   34.0630   24.3550   46.7780 C   0  0  0  0  0  0  0  0  0  0  0  0
   34.3910   23.2600   47.5750 C   0  0  0  0  0  0  0  0  0  0  0  0
   35.5120   22.6740   47.0610 N   0  0  0  0  0  0  0  0  0  0  0  0
   35.8620   23.3930   45.9760 C   0  0  0  0  0  0  0  0  0  0  0  0
   35.0000   24.4110   45.7900 N   0  0  0  0  0  0  0  0  0  0  0  0
   35.4443   31.0004   46.3717 H   0  0  0  0  0  0  0  0  0  0  0  0
   37.4864   29.7764   49.9700 H   0  0  0  0  0  0  0  0  0  0  0  0
   36.8150   32.2275   49.9461 H   0  0  0  0  0  0  0  0  0  0  0  0
   38.4180   34.1055   50.2374 H   0  0  0  0  0  0  0  0  0  0  0  0
   40.1557   34.5255   48.4887 H   0  0  0  0  0  0  0  0  0  0  0  0
   41.1540   33.8250   46.2845 H   0  0  0  0  0  0  0  0  0  0  0  0
   41.1336   32.2932   44.3582 H   0  0  0  0  0  0  0  0  0  0  0  0
   39.4989   30.4712   44.1911 H   0  0  0  0  0  0  0  0  0  0  0  0
   37.8172   30.1800   46.0246 H   0  0  0  0  0  0  0  0  0  0  0  0
   34.5112   26.8866   49.3242 H   0  0  0  0  0  0  0  0  0  0  0  0
   31.6820   27.2323   49.4361 H   0  0  0  0  0  0  0  0  0  0  0  0
   31.7516   28.6644   48.8351 H   0  0  0  0  0  0  0  0  0  0  0  0
   32.8636   27.1359   46.4658 H   0  0  0  0  0  0  0  0  0  0  0  0
   33.8405   22.9248   48.4664 H   0  0  0  0  0  0  0  0  0  0  0  0
   36.7288   23.1787   45.3335 H   0  0  0  0  0  0  0  0  0  0  0  0
   35.0416   25.1092   45.0339 H   0  0  0  0  0  0  0  0  0  0  0  0
  1  6  2  0
  1  2  1  0
  2  3  2  0
  3  4  1  0
  5 17  1  0
  5  4  2  0
  6  5  1  0
  7  2  1  0
  7  8  2  0
  8  9  1  0
 10  9  2  0
 11 10  1  0
 12 11  2  0
 13 12  1  0
 14 13  2  0
 14 15  1  0
 15 16  2  0
 16 11  1  0
 16  7  1  0
 17 18  1  0
 19 17  1  0
 19 18  1  0
 20 19  1  0
 21 20  1  0
 21 22  2  0
 23 22  1  0
 24 23  2  0
 25 24  1  0
 25 21  1  0
  1 26  1  0
  3 27  1  0
  8 28  1  0
  9 29  1  0
 10 30  1  0
 12 31  1  0
 13 32  1  0
 14 33  1  0
 15 34  1  0
 17 35  1  1
 18 36  1  0
 18 37  1  0
 19 38  1  6
 22 39  1  0
 24 40  1  0
 25 41  1  0
M  ISO  8  26  14  27  14  28  14  29  14  30  14  31  14  32  14  33  14
M  ISO  8  34  14  35  13  36  13  37  13  38  13  39  14  40  14  41   9
M  END
>  <minimizedAffinity>  (1) 
-6.49230909

>  <minimizedRMSD>  (1) 
0.112693973

$$$$
