
     RDKit          3D

 39 43  0  0  1  0  0  0  0  0999 V2000
   35.5100   30.3460   47.2600 C   0  0  0  0  0  0  0  0  0  0  0  0
   36.5800   30.5640   48.1130 C   0  0  0  0  0  0  0  0  0  0  0  0
   36.6720   29.6380   49.1970 C   0  0  0  0  0  0  0  0  0  0  0  0
   35.7500   28.6440   49.3250 N   0  0  0  0  0  0  0  0  0  0  0  0
   34.7390   28.5040   48.4510 C   0  0  0  0  0  0  0  0  0  0  0  0
   34.6340   29.3460   47.4410 N   0  0  0  0  0  0  0  0  0  0  0  0
   37.6040   31.5770   48.0750 C   0  0  0  0  0  0  0  0  0  0  0  0
   37.5600   32.3820   49.1670 C   0  0  0  0  0  0  0  0  0  0  0  0
   38.4630   33.4410   49.3500 C   0  0  0  0  0  0  0  0  0  0  0  0
   39.4250   33.6710   48.3900 C   0  0  0  0  0  0  0  0  0  0  0  0
   39.4540   32.8450   47.2910 C   0  0  0  0  0  0  0  0  0  0  0  0
   40.3930   32.9900   46.2510 C   0  0  0  0  0  0  0  0  0  0  0  0
   40.3800   32.1320   45.1670 C   0  0  0  0  0  0  0  0  0  0  0  0
   39.4700   31.1260   45.0610 C   0  0  0  0  0  0  0  0  0  0  0  0
   38.5390   30.9650   46.0690 C   0  0  0  0  0  0  0  0  0  0  0  0
   38.5630   31.8190   47.1360 C   0  0  0  0  0  0  0  0  0  0  0  0
   33.7760   27.3860   48.6580 C   0  0  1  0  0  0  0  0  0  0  0  0
   32.3100   27.6980   48.6040 C   0  0  0  0  0  0  0  0  0  0  0  0
   32.9620   26.8990   47.5100 C   0  0  2  0  0  0  0  0  0  0  0  0
   32.6850   25.1270   47.3510 S   0  0  0  0  0  0  0  0  0  0  0  0
   34.1700   24.4090   46.6150 C   0  0  0  0  0  0  0  0  0  0  0  0
   34.8130   24.8600   45.5420 N   0  0  0  0  0  0  0  0  0  0  0  0
   35.8370   24.0890   45.3070 O   0  0  0  0  0  0  0  0  0  0  0  0
   35.8710   23.1470   46.2010 C   0  0  0  0  0  0  0  0  0  0  0  0
   34.8490   23.3200   47.0260 N   0  0  0  0  0  0  0  0  0  0  0  0
   35.3734   31.0192   46.4008 H   0  0  0  0  0  0  0  0  0  0  0  0
   37.4883   29.7280   49.9289 H   0  0  0  0  0  0  0  0  0  0  0  0
   36.7922   32.1986   49.9330 H   0  0  0  0  0  0  0  0  0  0  0  0
   38.4039   34.0773   50.2454 H   0  0  0  0  0  0  0  0  0  0  0  0
   40.1489   34.4919   48.4999 H   0  0  0  0  0  0  0  0  0  0  0  0
   41.1432   33.7929   46.3018 H   0  0  0  0  0  0  0  0  0  0  0  0
   41.1251   32.2662   44.3690 H   0  0  0  0  0  0  0  0  0  0  0  0
   39.4755   30.4542   44.1900 H   0  0  0  0  0  0  0  0  0  0  0  0
   37.7897   30.1616   46.0137 H   0  0  0  0  0  0  0  0  0  0  0  0
   34.4481   26.9026   49.3822 H   0  0  0  0  0  0  0  0  0  0  0  0
   31.6162   27.2103   49.3046 H   0  0  0  0  0  0  0  0  0  0  0  0
   31.7047   28.6155   48.6465 H   0  0  0  0  0  0  0  0  0  0  0  0
   32.9938   26.9966   46.4148 H   0  0  0  0  0  0  0  0  0  0  0  0
   36.6199   22.3436   46.2624 H   0  0  0  0  0  0  0  0  0  0  0  0
  1  6  2  0
  1  2  1  0
  2  3  2  0
  3  4  1  0
  5 17  1  0
  5  4  2  0
  6  5  1  0
  7  2  1  0
  7  8  2  0
  8  9  1  0
 10  9  2  0
 11 10  1  0
 12 11  2  0
 13 12  1  0
 14 13  2  0
 14 15  1  0
 15 16  2  0
 16 11  1  0
 16  7  1  0
 18 17  1  0
 19 18  1  0
 19 17  1  0
 20 19  1  0
 21 25  1  0
 21 20  1  0
 22 21  2  0
 23 22  1  0
 23 24  1  0
 24 25  2  0
  1 26  1  0
  3 27  1  0
  8 28  1  0
  9 29  1  0
 10 30  1  0
 12 31  1  0
 13 32  1  0
 14 33  1  0
 15 34  1  0
 17 35  1  1
 18 36  1  0
 18 37  1  0
 19 38  1  6
 24 39  1  0
M  ISO  8  26  14  27  14  28  14  29  14  30  14  31  14  32  14  33  14
M  ISO  6  34  14  35  13  36  13  37  13  38  13  39  14
M  END
>  <minimizedAffinity>  (1) 
-6.47058725

>  <minimizedRMSD>  (1) 
0.309677899

$$$$
