
     RDKit          3D

 37 40  0  0  1  0  0  0  0  0999 V2000
   34.5400   30.2560   47.4210 C   0  0  0  0  0  0  0  0  0  0  0  0
   35.6730   30.2110   48.2320 C   0  0  0  0  0  0  0  0  0  0  0  0
   35.7420   29.0870   49.1090 C   0  0  0  0  0  0  0  0  0  0  0  0
   34.7420   28.1620   49.1030 N   0  0  0  0  0  0  0  0  0  0  0  0
   33.6890   28.2700   48.3000 C   0  0  0  0  0  0  0  0  0  0  0  0
   33.5920   29.3130   47.4650 N   0  0  0  0  0  0  0  0  0  0  0  0
   36.7860   31.1360   48.3160 C   0  0  0  0  0  0  0  0  0  0  0  0
   36.8280   31.7600   49.5270 C   0  0  0  0  0  0  0  0  0  0  0  0
   37.8270   32.6980   49.8230 C   0  0  0  0  0  0  0  0  0  0  0  0
   38.7770   32.9940   48.8830 C   0  0  0  0  0  0  0  0  0  0  0  0
   38.7190   32.3570   47.6710 C   0  0  0  0  0  0  0  0  0  0  0  0
   39.6430   32.5840   46.6270 C   0  0  0  0  0  0  0  0  0  0  0  0
   39.5280   31.9120   45.4360 C   0  0  0  0  0  0  0  0  0  0  0  0
   38.5340   31.0090   45.2020 C   0  0  0  0  0  0  0  0  0  0  0  0
   37.6160   30.7700   46.2120 C   0  0  0  0  0  0  0  0  0  0  0  0
   37.7430   31.4440   47.3890 C   0  0  0  0  0  0  0  0  0  0  0  0
   32.6340   27.2250   48.3270 C   0  0  1  0  0  0  0  0  0  0  0  0
   31.2690   27.5870   48.8300 C   0  0  0  0  0  0  0  0  0  0  0  0
   31.4860   27.2670   47.3840 C   0  0  2  0  0  0  0  0  0  0  0  0
   30.9430   25.6850   46.6790 S   0  0  0  0  0  0  0  0  0  0  0  0
   32.2140   24.4040   46.8020 C   0  0  0  0  0  0  0  0  0  0  0  0
   31.7740   23.3310   46.0530 F   0  0  0  0  0  0  0  0  0  0  0  0
   33.4460   24.8740   46.4120 F   0  0  0  0  0  0  0  0  0  0  0  0
   32.2820   24.0340   48.1310 F   0  0  0  0  0  0  0  0  0  0  0  0
   34.4213   31.0959   46.7207 H   0  0  0  0  0  0  0  0  0  0  0  0
   36.5997   28.9681   49.7874 H   0  0  0  0  0  0  0  0  0  0  0  0
   36.0659   31.5239   50.2842 H   0  0  0  0  0  0  0  0  0  0  0  0
   37.8473   33.1933   50.8050 H   0  0  0  0  0  0  0  0  0  0  0  0
   39.5693   33.7268   49.0957 H   0  0  0  0  0  0  0  0  0  0  0  0
   40.4613   33.3052   46.7698 H   0  0  0  0  0  0  0  0  0  0  0  0
   40.2637   32.1089   44.6423 H   0  0  0  0  0  0  0  0  0  0  0  0
   38.4626   30.4844   44.2378 H   0  0  0  0  0  0  0  0  0  0  0  0
   36.7987   30.0484   46.0659 H   0  0  0  0  0  0  0  0  0  0  0  0
   33.3917   26.4668   48.5740 H   0  0  0  0  0  0  0  0  0  0  0  0
   30.7145   26.8871   49.4725 H   0  0  0  0  0  0  0  0  0  0  0  0
   30.8412   28.4338   49.3867 H   0  0  0  0  0  0  0  0  0  0  0  0
   31.2336   27.7944   46.4522 H   0  0  0  0  0  0  0  0  0  0  0  0
  1  6  2  0
  1  2  1  0
  2  7  1  0
  2  3  2  0
  4  3  1  0
  5 17  1  0
  5  4  2  0
  6  5  1  0
  7  8  2  0
  8  9  1  0
 10  9  2  0
 11 10  1  0
 12 11  2  0
 13 12  1  0
 14 13  2  0
 14 15  1  0
 15 16  2  0
 16 11  1  0
 16  7  1  0
 17 18  1  0
 19 17  1  0
 19 18  1  0
 20 21  1  0
 20 19  1  0
 21 24  1  0
 22 21  1  0
 23 21  1  0
  1 25  1  0
  3 26  1  0
  8 27  1  0
  9 28  1  0
 10 29  1  0
 12 30  1  0
 13 31  1  0
 14 32  1  0
 15 33  1  0
 17 34  1  1
 18 35  1  0
 18 36  1  0
 19 37  1  6
M  ISO  8  25  14  26  14  27  14  28  14  29  14  30  14  31  14  32  14
M  ISO  5  33  14  34  13  35  13  36  13  37  13
M  END
>  <minimizedAffinity>  (1) 
-6.36774731

>  <minimizedRMSD>  (1) 
1.47640073

$$$$
