
     RDKit          3D

 43 46  0  0  1  0  0  0  0  0999 V2000
   35.4950   30.4020   47.2920 C   0  0  0  0  0  0  0  0  0  0  0  0
   36.5880   30.5910   48.1290 C   0  0  0  0  0  0  0  0  0  0  0  0
   36.6820   29.6530   49.1910 C   0  0  0  0  0  0  0  0  0  0  0  0
   35.7450   28.6740   49.3220 N   0  0  0  0  0  0  0  0  0  0  0  0
   34.7210   28.5570   48.4750 C   0  0  0  0  0  0  0  0  0  0  0  0
   34.6020   29.4170   47.4680 N   0  0  0  0  0  0  0  0  0  0  0  0
   37.6230   31.5930   48.0730 C   0  0  0  0  0  0  0  0  0  0  0  0
   37.5830   32.4190   49.1720 C   0  0  0  0  0  0  0  0  0  0  0  0
   38.4940   33.4660   49.3280 C   0  0  0  0  0  0  0  0  0  0  0  0
   39.4530   33.6810   48.3640 C   0  0  0  0  0  0  0  0  0  0  0  0
   39.4780   32.8420   47.2650 C   0  0  0  0  0  0  0  0  0  0  0  0
   40.4150   32.9700   46.2200 C   0  0  0  0  0  0  0  0  0  0  0  0
   40.3880   32.1050   45.1550 C   0  0  0  0  0  0  0  0  0  0  0  0
   39.4720   31.1080   45.0660 C   0  0  0  0  0  0  0  0  0  0  0  0
   38.5420   30.9630   46.0830 C   0  0  0  0  0  0  0  0  0  0  0  0
   38.5810   31.8300   47.1370 C   0  0  0  0  0  0  0  0  0  0  0  0
   33.7360   27.4540   48.6800 C   0  0  1  0  0  0  0  0  0  0  0  0
   32.2870   27.8100   48.8180 C   0  0  0  0  0  0  0  0  0  0  0  0
   32.7950   27.0940   47.5830 C   0  0  2  0  0  0  0  0  0  0  0  0
   32.4310   25.3500   47.3230 S   0  0  0  0  0  0  0  0  0  0  0  0
   31.1050   25.2680   46.0750 C   0  0  0  0  0  0  0  0  0  0  0  0
   30.7350   23.8080   45.9150 C   0  0  0  0  0  0  0  0  0  0  0  0
   29.8960   25.9840   46.6390 C   0  0  0  0  0  0  0  0  0  0  0  0
   35.3559   31.0918   46.4465 H   0  0  0  0  0  0  0  0  0  0  0  0
   37.5130   29.7175   49.9088 H   0  0  0  0  0  0  0  0  0  0  0  0
   36.8176   32.2515   49.9441 H   0  0  0  0  0  0  0  0  0  0  0  0
   38.4456   34.1145   50.2152 H   0  0  0  0  0  0  0  0  0  0  0  0
   40.1809   34.4994   48.4654 H   0  0  0  0  0  0  0  0  0  0  0  0
   41.1718   33.7673   46.2583 H   0  0  0  0  0  0  0  0  0  0  0  0
   41.1295   32.2232   44.3512 H   0  0  0  0  0  0  0  0  0  0  0  0
   39.4677   30.4271   44.2021 H   0  0  0  0  0  0  0  0  0  0  0  0
   37.7866   30.1645   46.0419 H   0  0  0  0  0  0  0  0  0  0  0  0
   34.4605   26.8871   49.2831 H   0  0  0  0  0  0  0  0  0  0  0  0
   31.6544   27.2778   49.5437 H   0  0  0  0  0  0  0  0  0  0  0  0
   31.7235   28.7351   49.0097 H   0  0  0  0  0  0  0  0  0  0  0  0
   32.7226   27.2893   46.5029 H   0  0  0  0  0  0  0  0  0  0  0  0
   31.4211   25.7152   45.1210 H   0  0  0  0  0  0  0  0  0  0  0  0
   30.6185   23.3484   46.9076 H   0  0  0  0  0  0  0  0  0  0  0  0
   29.7883   23.7283   45.3606 H   0  0  0  0  0  0  0  0  0  0  0  0
   31.5295   23.2870   45.3606 H   0  0  0  0  0  0  0  0  0  0  0  0
   29.9356   25.9605   47.7380 H   0  0  0  0  0  0  0  0  0  0  0  0
   29.8947   27.0286   46.2944 H   0  0  0  0  0  0  0  0  0  0  0  0
   28.9793   25.4830   46.2944 H   0  0  0  0  0  0  0  0  0  0  0  0
  1  6  2  0
  1  2  1  0
  2  3  2  0
  3  4  1  0
  5 17  1  0
  5  4  2  0
  6  5  1  0
  7  2  1  0
  7  8  2  0
  8  9  1  0
 10  9  2  0
 11 10  1  0
 12 11  2  0
 13 12  1  0
 14 13  2  0
 14 15  1  0
 15 16  2  0
 16 11  1  0
 16  7  1  0
 17 18  1  0
 19 17  1  0
 19 18  1  0
 20 19  1  0
 21 23  1  0
 21 20  1  0
 22 21  1  0
  1 24  1  0
  3 25  1  0
  8 26  1  0
  9 27  1  0
 10 28  1  0
 12 29  1  0
 13 30  1  0
 14 31  1  0
 15 32  1  0
 17 33  1  1
 18 34  1  0
 18 35  1  0
 19 36  1  6
 21 37  1  0
 22 38  1  0
 22 39  1  0
 22 40  1  0
 23 41  1  0
 23 42  1  0
 23 43  1  0
M  ISO  8  24  14  25  14  26  14  27  14  28  14  29  14  30  14  31  14
M  ISO  8  32  14  33  13  34  13  35  13  36  13  37   8  38   8  39   8
M  ISO  4  40   8  41   8  42   8  43   8
M  END
>  <minimizedAffinity>  (1) 
-6.27561188

>  <minimizedRMSD>  (1) 
0.434547037

$$$$
