
     RDKit          3D

 37 40  0  0  0  0  0  0  0  0999 V2000
   37.5370   31.1840   48.2730 N   0  0  0  0  0  0  0  0  0  0  0  0
   38.5680   32.0610   48.2830 C   0  0  0  0  0  0  0  0  0  0  0  0
   38.8780   32.4700   47.0430 N   0  0  0  0  0  0  0  0  0  0  0  0
   38.0270   31.8400   46.1990 C   0  0  0  0  0  0  0  0  0  0  0  0
   37.8390   31.8350   44.8480 C   0  0  0  0  0  0  0  0  0  0  0  0
   36.8930   31.0990   44.2210 N   0  0  0  0  0  0  0  0  0  0  0  0
   36.1110   30.3410   45.0160 C   0  0  0  0  0  0  0  0  0  0  0  0
   36.2940   30.3440   46.3410 N   0  0  0  0  0  0  0  0  0  0  0  0
   37.2110   31.0510   47.0010 C   0  0  0  0  0  0  0  0  0  0  0  0
   35.6650   30.1020   49.3580 C   0  0  0  0  0  0  0  0  0  0  0  0
   36.9780   30.5760   49.4040 C   0  0  0  0  0  0  0  0  0  0  0  0
   37.6900   30.4270   50.5820 C   0  0  0  0  0  0  0  0  0  0  0  0
   37.0670   29.8220   51.6380 N   0  0  0  0  0  0  0  0  0  0  0  0
   35.7980   29.3750   51.5650 C   0  0  0  0  0  0  0  0  0  0  0  0
   35.1020   29.5150   50.4300 N   0  0  0  0  0  0  0  0  0  0  0  0
   38.7510   32.7070   44.0400 C   0  0  0  0  0  0  0  0  0  0  0  0
   38.2600   32.8790   42.6190 C   0  0  0  0  0  0  0  0  0  0  0  0
   39.3740   32.6170   41.6300 C   0  0  0  0  0  0  0  0  0  0  0  0
   39.7910   31.1580   41.8210 C   0  0  0  0  0  0  0  0  0  0  0  0
   40.3850   30.9790   43.1900 C   0  0  0  0  0  0  0  0  0  0  0  0
   40.1670   32.1820   44.0630 C   0  0  0  0  0  0  0  0  0  0  0  0
   39.0866   32.3964   49.1932 H   0  0  0  0  0  0  0  0  0  0  0  0
   35.3198   29.7180   44.5734 H   0  0  0  0  0  0  0  0  0  0  0  0
   35.0823   30.2102   48.4313 H   0  0  0  0  0  0  0  0  0  0  0  0
   38.7267   30.7849   50.6659 H   0  0  0  0  0  0  0  0  0  0  0  0
   35.3335   28.8946   52.4388 H   0  0  0  0  0  0  0  0  0  0  0  0
   38.7457   33.7020   44.5090 H   0  0  0  0  0  0  0  0  0  0  0  0
   37.4389   32.1711   42.4331 H   0  0  0  0  0  0  0  0  0  0  0  0
   37.9102   33.9139   42.4898 H   0  0  0  0  0  0  0  0  0  0  0  0
   40.2249   33.2847   41.8306 H   0  0  0  0  0  0  0  0  0  0  0  0
   39.0415   32.8036   40.5982 H   0  0  0  0  0  0  0  0  0  0  0  0
   38.9094   30.5085   41.7166 H   0  0  0  0  0  0  0  0  0  0  0  0
   40.5385   30.8889   41.0602 H   0  0  0  0  0  0  0  0  0  0  0  0
   39.9181   30.1050   43.6676 H   0  0  0  0  0  0  0  0  0  0  0  0
   41.4696   30.8381   43.0726 H   0  0  0  0  0  0  0  0  0  0  0  0
   40.8390   32.9834   43.7222 H   0  0  0  0  0  0  0  0  0  0  0  0
   40.3740   31.8678   45.0967 H   0  0  0  0  0  0  0  0  0  0  0  0
  1  2  1  0
  1 11  1  0
  3  2  2  0
  4  9  2  0
  4  3  1  0
  5  4  1  0
  6  5  2  0
  6  7  1  0
  7  8  2  0
  8  9  1  0
  9  1  1  0
 10 11  2  0
 10 15  1  0
 11 12  1  0
 12 13  2  0
 14 13  1  0
 15 14  2  0
 16 21  1  0
 16  5  1  0
 17 16  1  0
 18 19  1  0
 18 17  1  0
 19 20  1  0
 20 21  1  0
  2 22  1  0
  7 23  1  0
 10 24  1  0
 12 25  1  0
 14 26  1  0
 16 27  1  0
 17 28  1  0
 17 29  1  0
 18 30  1  0
 18 31  1  0
 19 32  1  0
 19 33  1  0
 20 34  1  0
 20 35  1  0
 21 36  1  0
 21 37  1  0
M  ISO  8  22  14  23  14  24  14  25  14  26  14  27  13  28  13  29  13
M  ISO  8  30  13  31  13  32  13  33  13  34  13  35  13  36  13  37  13
M  END
>  <minimizedAffinity>  (1) 
-5.66484451

>  <minimizedRMSD>  (1) 
2.70565629

$$$$
