
     RDKit          3D

 24 26  0  0  0  0  0  0  0  0999 V2000
   37.5600   31.3820   48.4700 N   0  0  0  0  0  0  0  0  0  0  0  0
   38.4990   32.3040   48.7160 C   0  0  0  0  0  0  0  0  0  0  0  0
   39.0170   32.8080   47.5910 N   0  0  0  0  0  0  0  0  0  0  0  0
   38.3920   32.1940   46.5660 C   0  0  0  0  0  0  0  0  0  0  0  0
   38.4490   32.2470   45.1940 C   0  0  0  0  0  0  0  0  0  0  0  0
   37.7030   31.5140   44.3670 N   0  0  0  0  0  0  0  0  0  0  0  0
   36.8340   30.6640   44.9600 C   0  0  0  0  0  0  0  0  0  0  0  0
   36.7570   30.5920   46.2960 N   0  0  0  0  0  0  0  0  0  0  0  0
   37.4840   31.3050   47.1390 C   0  0  0  0  0  0  0  0  0  0  0  0
   35.4460   30.4650   49.2450 C   0  0  0  0  0  0  0  0  0  0  0  0
   36.8280   30.6670   49.4380 C   0  0  0  0  0  0  0  0  0  0  0  0
   37.4320   30.1600   50.5720 C   0  0  0  0  0  0  0  0  0  0  0  0
   36.6060   29.4780   51.4460 N   0  0  0  0  0  0  0  0  0  0  0  0
   35.3000   29.2980   51.2430 C   0  0  0  0  0  0  0  0  0  0  0  0
   34.7220   29.7860   50.1530 N   0  0  0  0  0  0  0  0  0  0  0  0
   39.4070   33.1850   44.6100 C   0  0  0  0  0  0  0  0  0  0  0  0
   39.7300   33.1090   43.3820 O   0  0  0  0  0  0  0  0  0  0  0  0
   40.0250   34.2030   45.3220 O   0  0  0  0  0  0  0  0  0  0  0  0
   38.8084   32.6112   49.7259 H   0  0  0  0  0  0  0  0  0  0  0  0
   36.1854   30.0268   44.3409 H   0  0  0  0  0  0  0  0  0  0  0  0
   34.9562   30.8656   48.3452 H   0  0  0  0  0  0  0  0  0  0  0  0
   38.5064   30.2911   50.7680 H   0  0  0  0  0  0  0  0  0  0  0  0
   34.7010   28.7439   51.9807 H   0  0  0  0  0  0  0  0  0  0  0  0
   40.6656   34.8062   44.8682 H   0  0  0  0  0  0  0  0  0  0  0  0
  1  2  1  0
  1 11  1  0
  3  2  2  0
  4  9  2  0
  4  3  1  0
  5  4  1  0
  6  7  1  0
  6  5  2  0
  7  8  2  0
  8  9  1  0
  9  1  1  0
 10 11  2  0
 10 15  1  0
 11 12  1  0
 12 13  2  0
 14 13  1  0
 15 14  2  0
 16  5  1  0
 16 18  1  0
 17 16  2  0
  2 19  1  0
  7 20  1  0
 10 21  1  0
 12 22  1  0
 14 23  1  0
 18 24  1  0
M  ISO  6  19  14  20  14  21  14  22  14  23  14  24   3
M  END
>  <minimizedAffinity>  (1) 
-5.52487898

>  <minimizedRMSD>  (1) 
1.53008139

$$$$
