
     RDKit          3D

 23 25  0  0  0  0  0  0  0  0999 V2000
   37.7480   31.7570   49.0260 N   0  0  0  0  0  0  0  0  0  0  0  0
   38.1590   32.9890   49.3950 C   0  0  0  0  0  0  0  0  0  0  0  0
   38.9110   33.5700   48.4560 N   0  0  0  0  0  0  0  0  0  0  0  0
   39.0030   32.7000   47.4410 C   0  0  0  0  0  0  0  0  0  0  0  0
   39.6120   32.6770   46.2100 C   0  0  0  0  0  0  0  0  0  0  0  0
   39.5560   31.6600   45.3450 N   0  0  0  0  0  0  0  0  0  0  0  0
   38.8330   30.5890   45.7520 C   0  0  0  0  0  0  0  0  0  0  0  0
   38.2290   30.5790   46.9410 N   0  0  0  0  0  0  0  0  0  0  0  0
   38.2630   31.5690   47.8240 C   0  0  0  0  0  0  0  0  0  0  0  0
   40.3510   33.8460   45.8650 N   0  0  0  0  0  0  0  0  0  0  0  0
   35.6370   30.6260   49.3790 C   0  0  0  0  0  0  0  0  0  0  0  0
   36.9540   30.9070   49.7860 C   0  0  0  0  0  0  0  0  0  0  0  0
   37.4070   30.3110   50.9480 C   0  0  0  0  0  0  0  0  0  0  0  0
   36.5610   29.4830   51.6430 N   0  0  0  0  0  0  0  0  0  0  0  0
   35.2990   29.2390   51.2170 C   0  0  0  0  0  0  0  0  0  0  0  0
   34.8500   29.8040   50.1030 N   0  0  0  0  0  0  0  0  0  0  0  0
   37.9045   33.4593   50.3563 H   0  0  0  0  0  0  0  0  0  0  0  0
   38.7427   29.7140   45.0915 H   0  0  0  0  0  0  0  0  0  0  0  0
   40.8346   33.9003   44.9572 H   0  0  0  0  0  0  0  0  0  0  0  0
   40.4014   34.6364   46.5235 H   0  0  0  0  0  0  0  0  0  0  0  0
   35.2440   31.0825   48.4586 H   0  0  0  0  0  0  0  0  0  0  0  0
   38.4289   30.4972   51.3099 H   0  0  0  0  0  0  0  0  0  0  0  0
   34.6442   28.5708   51.7956 H   0  0  0  0  0  0  0  0  0  0  0  0
  1  2  1  0
  1 12  1  0
  3  2  2  0
  4  9  2  0
  4  3  1  0
  5  4  1  0
  6  7  1  0
  6  5  2  0
  7  8  2  0
  8  9  1  0
  9  1  1  0
 10  5  1  0
 11 12  2  0
 11 16  1  0
 12 13  1  0
 13 14  2  0
 15 14  1  0
 16 15  2  0
  2 17  1  0
  7 18  1  0
 10 19  1  0
 10 20  1  0
 11 21  1  0
 13 22  1  0
 15 23  1  0
M  ISO  5  17  14  18  14  21  14  22  14  23  14
M  END
>  <minimizedAffinity>  (1) 
-5.3069191

>  <minimizedRMSD>  (1) 
0.166713879

$$$$
