
     RDKit          3D

 24 26  0  0  0  0  0  0  0  0999 V2000
   37.7890   31.6810   48.9500 N   0  0  0  0  0  0  0  0  0  0  0  0
   38.2930   32.8810   49.3070 C   0  0  0  0  0  0  0  0  0  0  0  0
   39.0490   33.4050   48.3260 N   0  0  0  0  0  0  0  0  0  0  0  0
   39.0460   32.5410   47.3090 C   0  0  0  0  0  0  0  0  0  0  0  0
   39.6080   32.4980   46.0660 C   0  0  0  0  0  0  0  0  0  0  0  0
   39.4480   31.4760   45.1940 N   0  0  0  0  0  0  0  0  0  0  0  0
   38.6730   30.4520   45.6220 C   0  0  0  0  0  0  0  0  0  0  0  0
   38.1200   30.4870   46.8320 N   0  0  0  0  0  0  0  0  0  0  0  0
   38.2480   31.4580   47.7140 C   0  0  0  0  0  0  0  0  0  0  0  0
   35.6490   30.6280   49.3450 C   0  0  0  0  0  0  0  0  0  0  0  0
   36.9640   30.8670   49.7350 C   0  0  0  0  0  0  0  0  0  0  0  0
   37.4260   30.2860   50.9050 C   0  0  0  0  0  0  0  0  0  0  0  0
   36.5400   29.5010   51.6120 N   0  0  0  0  0  0  0  0  0  0  0  0
   35.2800   29.2930   51.2040 C   0  0  0  0  0  0  0  0  0  0  0  0
   34.8360   29.8530   50.0780 N   0  0  0  0  0  0  0  0  0  0  0  0
   40.4540   33.6420   45.6320 C   0  0  0  0  0  0  0  0  0  0  0  0
   38.1090   33.3679   50.2760 H   0  0  0  0  0  0  0  0  0  0  0  0
   38.4994   29.5862   44.9661 H   0  0  0  0  0  0  0  0  0  0  0  0
   35.2697   31.0833   48.4183 H   0  0  0  0  0  0  0  0  0  0  0  0
   38.4567   30.4444   51.2552 H   0  0  0  0  0  0  0  0  0  0  0  0
   34.6092   28.6575   51.8008 H   0  0  0  0  0  0  0  0  0  0  0  0
   40.8424   34.1673   46.5170 H   0  0  0  0  0  0  0  0  0  0  0  0
   41.2947   33.2683   45.0290 H   0  0  0  0  0  0  0  0  0  0  0  0
   39.8504   34.3364   45.0290 H   0  0  0  0  0  0  0  0  0  0  0  0
  1  2  1  0
  1 11  1  0
  3  2  2  0
  4  9  2  0
  4  3  1  0
  5  4  1  0
  6  7  1  0
  6  5  2  0
  7  8  2  0
  8  9  1  0
  9  1  1  0
 10 11  2  0
 10 15  1  0
 11 12  1  0
 12 13  2  0
 14 13  1  0
 15 14  2  0
 16  5  1  0
  2 17  1  0
  7 18  1  0
 10 19  1  0
 12 20  1  0
 14 21  1  0
 16 22  1  0
 16 23  1  0
 16 24  1  0
M  ISO  8  17  14  18  14  19  14  20  14  21  14  22   8  23   8  24   8
M  END
>  <minimizedAffinity>  (1) 
-5.2128582

>  <minimizedRMSD>  (1) 
0.227715299

$$$$
