
     RDKit          3D

 22 24  0  0  0  0  0  0  0  0999 V2000
   37.6230   31.4510   48.5310 N   0  0  0  0  0  0  0  0  0  0  0  0
   38.5310   32.3830   48.8530 C   0  0  0  0  0  0  0  0  0  0  0  0
   39.1200   32.8910   47.7630 N   0  0  0  0  0  0  0  0  0  0  0  0
   38.5840   32.2750   46.7030 C   0  0  0  0  0  0  0  0  0  0  0  0
   38.7640   32.3550   45.3550 C   0  0  0  0  0  0  0  0  0  0  0  0
   38.0820   31.6040   44.4590 N   0  0  0  0  0  0  0  0  0  0  0  0
   37.1800   30.7390   44.9760 C   0  0  0  0  0  0  0  0  0  0  0  0
   37.0000   30.6600   46.2970 N   0  0  0  0  0  0  0  0  0  0  0  0
   37.6480   31.3760   47.2090 C   0  0  0  0  0  0  0  0  0  0  0  0
   35.4650   30.5590   49.2010 C   0  0  0  0  0  0  0  0  0  0  0  0
   36.8340   30.7290   49.4340 C   0  0  0  0  0  0  0  0  0  0  0  0
   37.3820   30.1590   50.5860 C   0  0  0  0  0  0  0  0  0  0  0  0
   36.5210   29.4680   51.4110 N   0  0  0  0  0  0  0  0  0  0  0  0
   35.2190   29.3300   51.1520 C   0  0  0  0  0  0  0  0  0  0  0  0
   34.6780   29.8740   50.0460 N   0  0  0  0  0  0  0  0  0  0  0  0
   39.9630   33.5040   44.6950 S   0  0  0  0  0  0  0  0  0  0  0  0
   38.7631   32.6917   49.8830 H   0  0  0  0  0  0  0  0  0  0  0  0
   36.5912   30.0968   44.3046 H   0  0  0  0  0  0  0  0  0  0  0  0
   35.0195   31.0003   48.2973 H   0  0  0  0  0  0  0  0  0  0  0  0
   38.4515   30.2573   50.8236 H   0  0  0  0  0  0  0  0  0  0  0  0
   34.5818   28.7662   51.8492 H   0  0  0  0  0  0  0  0  0  0  0  0
   40.6138   34.1277   45.7267 H   0  0  0  0  0  0  0  0  0  0  0  0
  1  2  1  0
  1 11  1  0
  3  2  2  0
  4  9  2  0
  4  3  1  0
  5  4  1  0
  6  7  1  0
  6  5  2  0
  7  8  2  0
  8  9  1  0
  9  1  1  0
 10 11  2  0
 10 15  1  0
 11 12  1  0
 12 13  2  0
 14 13  1  0
 15 14  2  0
 16  5  1  0
  2 17  1  0
  7 18  1  0
 10 19  1  0
 12 20  1  0
 14 21  1  0
 16 22  1  0
M  ISO  6  17  14  18  14  19  14  20  14  21  14  22  11
M  END
>  <minimizedAffinity>  (1) 
-5.0709548

>  <minimizedRMSD>  (1) 
1.05800629

$$$$
