
     RDKit          3D

 52 55  0  0  0  0  0  0  0  0999 V2000
   33.8390   30.0210   44.3120 C   0  0  0  0  0  0  0  0  0  0  0  0
   34.2300   31.0840   43.4660 C   0  0  0  0  0  0  0  0  0  0  0  0
   33.2160   31.8620   42.8730 C   0  0  0  0  0  0  0  0  0  0  0  0
   31.9030   31.5490   43.1470 N   0  0  0  0  0  0  0  0  0  0  0  0
   31.5940   30.5140   43.9700 C   0  0  0  0  0  0  0  0  0  0  0  0
   32.5330   29.7670   44.5380 N   0  0  0  0  0  0  0  0  0  0  0  0
   30.2170   30.2510   44.2140 N   0  0  0  0  0  0  0  0  0  0  0  0
   29.2850   30.3860   43.2700 C   0  0  0  0  0  0  0  0  0  0  0  0
   27.9360   30.1500   43.4920 C   0  0  0  0  0  0  0  0  0  0  0  0
   27.6340   29.7610   44.7710 C   0  0  0  0  0  0  0  0  0  0  0  0
   26.4330   29.5190   45.0860 O   0  0  0  0  0  0  0  0  0  0  0  0
   28.5080   29.6030   45.7610 N   0  0  0  0  0  0  0  0  0  0  0  0
   29.8190   29.8570   45.4640 C   0  0  0  0  0  0  0  0  0  0  0  0
   30.6720   29.7190   46.3730 O   0  0  0  0  0  0  0  0  0  0  0  0
   27.6370   27.8670   49.4860 C   0  0  0  0  0  0  0  0  0  0  0  0
   27.5240   29.2310   49.3530 C   0  0  0  0  0  0  0  0  0  0  0  0
   27.7890   29.8880   48.1770 C   0  0  0  0  0  0  0  0  0  0  0  0
   28.1840   29.1770   47.0760 C   0  0  0  0  0  0  0  0  0  0  0  0
   28.3060   27.7840   47.1910 C   0  0  0  0  0  0  0  0  0  0  0  0
   28.0370   27.1150   48.3870 C   0  0  0  0  0  0  0  0  0  0  0  0
   27.2940   27.0870   50.9930 S   0  0  0  0  0  0  0  0  0  0  0  0
   28.4500   27.0150   51.9130 O   0  0  0  0  0  0  0  0  0  0  0  0
   26.1480   27.8200   51.6500 O   0  0  0  0  0  0  0  0  0  0  0  0
   26.8800   30.2660   42.4850 C   0  0  0  0  0  0  0  0  0  0  0  0
   26.7290   31.5560   41.7810 C   0  0  0  0  0  0  0  0  0  0  0  0
   25.5060   31.5890   40.8860 C   0  0  0  0  0  0  0  0  0  0  0  0
   24.2200   31.9460   41.4990 C   0  0  0  0  0  0  0  0  0  0  0  0
   24.3060   33.1130   42.4610 C   0  0  0  0  0  0  0  0  0  0  0  0
   25.4170   32.9260   43.4470 C   0  0  0  0  0  0  0  0  0  0  0  0
   26.7060   32.7260   42.7040 C   0  0  0  0  0  0  0  0  0  0  0  0
   34.6065   29.3950   44.7906 H   0  0  0  0  0  0  0  0  0  0  0  0
   35.2924   31.2970   43.2767 H   0  0  0  0  0  0  0  0  0  0  0  0
   33.4672   32.7002   42.2064 H   0  0  0  0  0  0  0  0  0  0  0  0
   29.6017   30.7003   42.2646 H   0  0  0  0  0  0  0  0  0  0  0  0
   27.2078   29.8208   50.2260 H   0  0  0  0  0  0  0  0  0  0  0  0
   27.6843   30.9815   48.1197 H   0  0  0  0  0  0  0  0  0  0  0  0
   28.6229   27.2017   46.3132 H   0  0  0  0  0  0  0  0  0  0  0  0
   28.1389   26.0220   48.4577 H   0  0  0  0  0  0  0  0  0  0  0  0
   26.9694   25.7845   50.7193 H   0  0  0  0  0  0  0  0  0  0  0  0
   27.0708   29.4975   41.7215 H   0  0  0  0  0  0  0  0  0  0  0  0
   25.9454   30.1536   43.0541 H   0  0  0  0  0  0  0  0  0  0  0  0
   27.6268   31.6388   41.1508 H   0  0  0  0  0  0  0  0  0  0  0  0
   25.3934   30.5868   40.4467 H   0  0  0  0  0  0  0  0  0  0  0  0
   25.7072   32.4000   40.1706 H   0  0  0  0  0  0  0  0  0  0  0  0
   23.5142   32.2085   40.6971 H   0  0  0  0  0  0  0  0  0  0  0  0
   23.8888   31.0736   42.0814 H   0  0  0  0  0  0  0  0  0  0  0  0
   24.4858   34.0356   41.8896 H   0  0  0  0  0  0  0  0  0  0  0  0
   23.3578   33.1762   43.0150 H   0  0  0  0  0  0  0  0  0  0  0  0
   25.4953   33.8173   44.0868 H   0  0  0  0  0  0  0  0  0  0  0  0
   25.2110   32.0462   44.0743 H   0  0  0  0  0  0  0  0  0  0  0  0
   27.5086   32.5919   43.4441 H   0  0  0  0  0  0  0  0  0  0  0  0
   26.8368   33.6170   42.0723 H   0  0  0  0  0  0  0  0  0  0  0  0
  1  6  2  0
  2  1  1  0
  3  4  1  0
  3  2  2  0
  4  5  2  0
  5  7  1  0
  5  6  1  0
  7 13  1  0
  8  9  2  0
  8  7  1  0
  9 10  1  0
 10 11  2  0
 10 12  1  0
 12 18  1  0
 13 12  1  0
 13 14  2  0
 15 21  1  0
 16 15  2  0
 17 16  1  0
 18 19  1  0
 18 17  2  0
 19 20  2  0
 20 15  1  0
 21 23  2  0
 21 22  2  0
 24  9  1  0
 25 24  1  0
 25 30  1  0
 26 27  1  0
 26 25  1  0
 27 28  1  0
 28 29  1  0
 30 29  1  0
  1 31  1  0
  2 32  1  0
  3 33  1  0
  8 34  1  0
 16 35  1  0
 17 36  1  0
 19 37  1  0
 20 38  1  0
 21 39  1  0
 24 40  1  0
 24 41  1  0
 25 42  1  0
 26 43  1  0
 26 44  1  0
 27 45  1  0
 27 46  1  0
 28 47  1  0
 28 48  1  0
 29 49  1  0
 29 50  1  0
 30 51  1  0
 30 52  1  0
M  ISO  8  31  14  32  14  33  14  34  14  35  14  36  14  37  14  38  14
M  ISO  8  39  11  40   8  41   8  42  13  43  13  44  13  45  13  46  13
M  ISO  6  47  13  48  13  49  13  50  13  51  13  52  13
M  END
>  <minimizedAffinity>  (1) 
-5.15748882

>  <minimizedRMSD>  (1) 
1.40689707

$$$$
