
     RDKit          3D

 43 46  0  0  1  0  0  0  0  0999 V2000
   37.8900   31.4130   47.7270 N   0  0  0  0  0  0  0  0  0  0  0  0
   38.7870   32.3910   47.5780 C   0  0  0  0  0  0  0  0  0  0  0  0
   38.8480   32.8040   46.3030 N   0  0  0  0  0  0  0  0  0  0  0  0
   37.9610   32.0690   45.5980 C   0  0  0  0  0  0  0  0  0  0  0  0
   37.6030   32.0150   44.2880 C   0  0  0  0  0  0  0  0  0  0  0  0
   36.6700   31.1360   43.8020 N   0  0  0  0  0  0  0  0  0  0  0  0
   36.1090   30.3080   44.7100 C   0  0  0  0  0  0  0  0  0  0  0  0
   36.4750   30.3770   45.9920 N   0  0  0  0  0  0  0  0  0  0  0  0
   37.3720   31.2070   46.5060 C   0  0  0  0  0  0  0  0  0  0  0  0
   36.6600   29.6900   48.9220 C   0  0  0  0  0  0  0  0  0  0  0  0
   37.5680   30.7320   48.9200 C   0  0  0  0  0  0  0  0  0  0  0  0
   38.1770   31.1100   50.1190 C   0  0  0  0  0  0  0  0  0  0  0  0
   37.8260   30.4060   51.2490 N   0  0  0  0  0  0  0  0  0  0  0  0
   36.9350   29.3930   51.2140 C   0  0  0  0  0  0  0  0  0  0  0  0
   36.3560   29.0340   50.0690 N   0  0  0  0  0  0  0  0  0  0  0  0
   38.1210   32.9930   43.2920 C   0  0  2  0  0  0  0  0  0  0  0  0
   37.5510   32.8630   41.9430 C   0  0  0  0  0  0  0  0  0  0  0  0
   39.6840   32.8710   43.2540 C   0  0  0  0  0  0  0  0  0  0  0  0
   40.0960   31.6190   42.7120 N   0  0  0  0  0  0  0  0  0  0  0  0
   39.8930   31.3560   41.3880 C   0  0  0  0  0  0  0  0  0  0  0  0
   40.2780   30.1500   40.8110 C   0  0  0  0  0  0  0  0  0  0  0  0
   40.0480   29.8780   39.3620 C   0  0  0  0  0  0  0  0  0  0  0  0
   40.8830   29.1640   41.5460 C   0  0  0  0  0  0  0  0  0  0  0  0
   41.2440   28.0740   41.0760 O   0  0  0  0  0  0  0  0  0  0  0  0
   41.0730   29.4450   42.8460 N   0  0  0  0  0  0  0  0  0  0  0  0
   40.6930   30.6080   43.3680 C   0  0  0  0  0  0  0  0  0  0  0  0
   40.9130   30.7800   44.5930 O   0  0  0  0  0  0  0  0  0  0  0  0
   39.3968   32.8044   48.3948 H   0  0  0  0  0  0  0  0  0  0  0  0
   35.3506   29.5769   44.3931 H   0  0  0  0  0  0  0  0  0  0  0  0
   36.1775   29.3889   47.9804 H   0  0  0  0  0  0  0  0  0  0  0  0
   38.9049   31.9338   50.1586 H   0  0  0  0  0  0  0  0  0  0  0  0
   36.6839   28.8575   52.1415 H   0  0  0  0  0  0  0  0  0  0  0  0
   37.8039   33.9928   43.6234 H   0  0  0  0  0  0  0  0  0  0  0  0
   36.4811   32.6190   42.0190 H   0  0  0  0  0  0  0  0  0  0  0  0
   37.6730   33.8120   41.4004 H   0  0  0  0  0  0  0  0  0  0  0  0
   38.0724   32.0607   41.4004 H   0  0  0  0  0  0  0  0  0  0  0  0
   40.0910   33.6815   42.6316 H   0  0  0  0  0  0  0  0  0  0  0  0
   40.0614   32.9424   44.2847 H   0  0  0  0  0  0  0  0  0  0  0  0
   39.4113   32.1194   40.7593 H   0  0  0  0  0  0  0  0  0  0  0  0
   39.3412   29.0421   39.2535 H   0  0  0  0  0  0  0  0  0  0  0  0
   39.6308   30.7756   38.8821 H   0  0  0  0  0  0  0  0  0  0  0  0
   41.0024   29.6157   38.8821 H   0  0  0  0  0  0  0  0  0  0  0  0
   41.5230   28.7442   43.4520 H   0  0  0  0  0  0  0  0  0  0  0  0
  1 11  1  0
  2  1  1  0
  3  2  2  0
  4  3  1  0
  4  9  2  0
  5  4  1  0
  6  5  2  0
  6  7  1  0
  7  8  2  0
  8  9  1  0
  9  1  1  0
 10 15  2  0
 11 10  1  0
 11 12  2  0
 12 13  1  0
 14 13  2  0
 15 14  1  0
 16  5  1  0
 17 16  1  0
 18 16  1  0
 19 18  1  0
 19 26  1  0
 20 19  1  0
 21 20  2  0
 21 23  1  0
 22 21  1  0
 23 25  1  0
 24 23  2  0
 25 26  1  0
 26 27  2  0
  2 28  1  0
  7 29  1  0
 10 30  1  0
 12 31  1  0
 14 32  1  0
 16 33  1  1
 17 34  1  0
 17 35  1  0
 17 36  1  0
 18 37  1  0
 18 38  1  0
 20 39  1  0
 22 40  1  0
 22 41  1  0
 22 42  1  0
 25 43  1  0
M  ISO  8  28  14  29  14  30  14  31  14  32  14  33   8  34   8  35   8
M  ISO  8  36   8  37   8  38   8  39  14  40   8  41   8  42   8  43   9
M  END
>  <minimizedAffinity>  (1) 
-6.15021324

>  <minimizedRMSD>  (1) 
1.96737254

$$$$
