
     RDKit          3D

 43 47  0  0  1  0  0  0  0  0999 V2000
   38.4250   32.7260   43.5230 C   0  0  2  0  0  0  0  0  0  0  0  0
   37.8120   31.2550   47.9650 N   0  0  0  0  0  0  0  0  0  0  0  0
   38.8460   32.0970   47.8380 C   0  0  0  0  0  0  0  0  0  0  0  0
   39.0100   32.4770   46.5620 N   0  0  0  0  0  0  0  0  0  0  0  0
   38.0530   31.8640   45.8320 C   0  0  0  0  0  0  0  0  0  0  0  0
   37.7380   31.8430   44.5110 C   0  0  0  0  0  0  0  0  0  0  0  0
   36.7050   31.0960   44.0000 N   0  0  0  0  0  0  0  0  0  0  0  0
   36.0020   30.3690   44.8890 C   0  0  0  0  0  0  0  0  0  0  0  0
   36.3250   30.4010   46.1900 N   0  0  0  0  0  0  0  0  0  0  0  0
   37.3110   31.1040   46.7230 C   0  0  0  0  0  0  0  0  0  0  0  0
   36.2850   29.7830   49.1440 C   0  0  0  0  0  0  0  0  0  0  0  0
   37.3610   30.6500   49.1530 C   0  0  0  0  0  0  0  0  0  0  0  0
   38.0000   30.9170   50.3580 C   0  0  0  0  0  0  0  0  0  0  0  0
   37.5070   30.2850   51.4780 N   0  0  0  0  0  0  0  0  0  0  0  0
   36.4530   29.4440   51.4270 C   0  0  0  0  0  0  0  0  0  0  0  0
   35.8330   29.1850   50.2680 N   0  0  0  0  0  0  0  0  0  0  0  0
   37.7890   32.7850   42.2000 C   0  0  0  0  0  0  0  0  0  0  0  0
   39.9160   32.2460   43.4080 C   0  0  0  0  0  0  0  0  0  0  0  0
   39.9900   30.9410   42.8310 N   0  0  0  0  0  0  0  0  0  0  0  0
   39.7960   29.8370   43.5810 C   0  0  0  0  0  0  0  0  0  0  0  0
   39.9200   28.7360   42.7910 N   0  0  0  0  0  0  0  0  0  0  0  0
   40.1900   29.1490   41.5520 C   0  0  0  0  0  0  0  0  0  0  0  0
   40.4240   28.5850   40.3160 C   0  0  0  0  0  0  0  0  0  0  0  0
   40.6800   29.2790   39.1910 N   0  0  0  0  0  0  0  0  0  0  0  0
   40.7120   30.6360   39.2700 C   0  0  0  0  0  0  0  0  0  0  0  0
   40.4850   31.2200   40.4690 N   0  0  0  0  0  0  0  0  0  0  0  0
   40.2310   30.5340   41.5830 C   0  0  0  0  0  0  0  0  0  0  0  0
   40.3970   27.1680   40.2100 N   0  0  0  0  0  0  0  0  0  0  0  0
   38.3574   33.7578   43.8984 H   0  0  0  0  0  0  0  0  0  0  0  0
   39.4790   32.4334   48.6724 H   0  0  0  0  0  0  0  0  0  0  0  0
   35.1611   29.7476   44.5473 H   0  0  0  0  0  0  0  0  0  0  0  0
   35.7796   29.5727   48.1899 H   0  0  0  0  0  0  0  0  0  0  0  0
   38.8595   31.6012   50.4146 H   0  0  0  0  0  0  0  0  0  0  0  0
   36.0976   28.9640   52.3507 H   0  0  0  0  0  0  0  0  0  0  0  0
   36.7003   32.8860   42.3207 H   0  0  0  0  0  0  0  0  0  0  0  0
   38.1782   33.6509   41.6444 H   0  0  0  0  0  0  0  0  0  0  0  0
   38.0123   31.8623   41.6444 H   0  0  0  0  0  0  0  0  0  0  0  0
   40.4734   32.9517   42.7745 H   0  0  0  0  0  0  0  0  0  0  0  0
   40.3512   32.2084   44.4175 H   0  0  0  0  0  0  0  0  0  0  0  0
   39.5733   29.8280   44.6582 H   0  0  0  0  0  0  0  0  0  0  0  0
   40.9181   31.2459   38.3781 H   0  0  0  0  0  0  0  0  0  0  0  0
   40.5680   26.7163   39.3003 H   0  0  0  0  0  0  0  0  0  0  0  0
   40.2065   26.5928   41.0429 H   0  0  0  0  0  0  0  0  0  0  0  0
  1  6  1  0
  2 12  1  0
  3  2  1  0
  4  3  2  0
  5  4  1  0
  5 10  2  0
  6  5  1  0
  7  6  2  0
  7  8  1  0
  8  9  2  0
  9 10  1  0
 10  2  1  0
 11 12  2  0
 11 16  1  0
 12 13  1  0
 13 14  2  0
 15 14  1  0
 16 15  2  0
 17  1  1  0
 18  1  1  0
 19 18  1  0
 19 20  1  0
 21 20  2  0
 22 27  2  0
 22 21  1  0
 23 22  1  0
 24 25  1  0
 24 23  2  0
 25 26  2  0
 26 27  1  0
 27 19  1  0
 28 23  1  0
  1 29  1  1
  3 30  1  0
  8 31  1  0
 11 32  1  0
 13 33  1  0
 15 34  1  0
 17 35  1  0
 17 36  1  0
 17 37  1  0
 18 38  1  0
 18 39  1  0
 20 40  1  0
 25 41  1  0
 28 42  1  0
 28 43  1  0
M  ISO  8  29   8  30  14  31  14  32  14  33  14  34  14  35   8  36   8
M  ISO  5  37   8  38   8  39   8  40  14  41  14
M  END
>  <minimizedAffinity>  (1) 
-5.94032717

>  <minimizedRMSD>  (1) 
1.89723635

$$$$
