
     RDKit          3D

 36 39  0  0  1  0  0  0  0  0999 V2000
   37.8420   31.2630   47.9880 N   0  0  0  0  0  0  0  0  0  0  0  0
   38.8740   32.1150   47.8760 C   0  0  0  0  0  0  0  0  0  0  0  0
   39.0470   32.5000   46.6010 N   0  0  0  0  0  0  0  0  0  0  0  0
   38.1000   31.8810   45.8620 C   0  0  0  0  0  0  0  0  0  0  0  0
   37.8030   31.8590   44.5370 C   0  0  0  0  0  0  0  0  0  0  0  0
   36.7870   31.1040   44.0090 N   0  0  0  0  0  0  0  0  0  0  0  0
   36.0790   30.3690   44.8900 C   0  0  0  0  0  0  0  0  0  0  0  0
   36.3820   30.4000   46.1930 N   0  0  0  0  0  0  0  0  0  0  0  0
   37.3560   31.1140   46.7400 C   0  0  0  0  0  0  0  0  0  0  0  0
   36.2940   29.7890   49.1310 C   0  0  0  0  0  0  0  0  0  0  0  0
   37.3750   30.6520   49.1710 C   0  0  0  0  0  0  0  0  0  0  0  0
   38.0020   30.9120   50.3890 C   0  0  0  0  0  0  0  0  0  0  0  0
   37.4800   30.2690   51.4930 N   0  0  0  0  0  0  0  0  0  0  0  0
   36.4380   29.4420   51.4230 C   0  0  0  0  0  0  0  0  0  0  0  0
   35.8400   29.1950   50.2610 N   0  0  0  0  0  0  0  0  0  0  0  0
   38.4770   32.7560   43.5600 C   0  0  2  0  0  0  0  0  0  0  0  0
   37.8290   32.8620   42.2500 C   0  0  0  0  0  0  0  0  0  0  0  0
   39.9670   32.2840   43.4210 C   0  0  0  0  0  0  0  0  0  0  0  0
   40.0200   31.0030   42.6740 C   0  0  0  0  0  0  0  0  0  0  0  0
   40.2950   31.1400   41.2810 C   0  0  0  0  0  0  0  0  0  0  0  0
   40.2800   29.4580   40.7390 S   0  0  0  0  0  0  0  0  0  0  0  0
   39.9020   28.7810   42.4750 C   0  0  0  0  0  0  0  0  0  0  0  0
   39.8470   29.7850   43.1340 N   0  0  0  0  0  0  0  0  0  0  0  0
   39.4959   32.4531   48.7179 H   0  0  0  0  0  0  0  0  0  0  0  0
   35.2483   29.7408   44.5360 H   0  0  0  0  0  0  0  0  0  0  0  0
   35.7978   29.5829   48.1712 H   0  0  0  0  0  0  0  0  0  0  0  0
   38.8639   31.5912   50.4656 H   0  0  0  0  0  0  0  0  0  0  0  0
   36.0674   28.9571   52.3381 H   0  0  0  0  0  0  0  0  0  0  0  0
   38.4102   33.7782   43.9607 H   0  0  0  0  0  0  0  0  0  0  0  0
   36.7519   33.0382   42.3869 H   0  0  0  0  0  0  0  0  0  0  0  0
   38.2693   33.7001   41.6898 H   0  0  0  0  0  0  0  0  0  0  0  0
   37.9794   31.9273   41.6898 H   0  0  0  0  0  0  0  0  0  0  0  0
   40.5430   33.0477   42.8779 H   0  0  0  0  0  0  0  0  0  0  0  0
   40.3973   32.1387   44.4229 H   0  0  0  0  0  0  0  0  0  0  0  0
   40.4707   32.0549   40.6961 H   0  0  0  0  0  0  0  0  0  0  0  0
   39.7679   27.7371   42.7948 H   0  0  0  0  0  0  0  0  0  0  0  0
  1 11  1  0
  2  1  1  0
  3  2  2  0
  4  3  1  0
  4  9  2  0
  5  4  1  0
  6  5  2  0
  6  7  1  0
  7  8  2  0
  8  9  1  0
  9  1  1  0
 10 11  2  0
 10 15  1  0
 11 12  1  0
 12 13  2  0
 14 13  1  0
 15 14  2  0
 16  5  1  0
 17 16  1  0
 18 16  1  0
 19 23  1  0
 19 18  1  0
 20 19  2  0
 21 20  1  0
 21 22  1  0
 22 23  2  0
  2 24  1  0
  7 25  1  0
 10 26  1  0
 12 27  1  0
 14 28  1  0
 16 29  1  1
 17 30  1  0
 17 31  1  0
 17 32  1  0
 18 33  1  0
 18 34  1  0
 20 35  1  0
 22 36  1  0
M  ISO  8  24  14  25  14  26  14  27  14  28  14  29   8  30   8  31   8
M  ISO  5  32   8  33   8  34   8  35  14  36  14
M  END
>  <minimizedAffinity>  (1) 
-5.48607349

>  <minimizedRMSD>  (1) 
1.75353026

$$$$
