
     RDKit          3D

 40 43  0  0  1  0  0  0  0  0999 V2000
   37.6060   31.2110   47.8830 N   0  0  0  0  0  0  0  0  0  0  0  0
   38.6410   32.0450   47.8250 C   0  0  0  0  0  0  0  0  0  0  0  0
   38.8940   32.4150   46.5660 N   0  0  0  0  0  0  0  0  0  0  0  0
   38.0030   31.8090   45.7690 C   0  0  0  0  0  0  0  0  0  0  0  0
   37.7790   31.7810   44.4270 C   0  0  0  0  0  0  0  0  0  0  0  0
   36.7820   31.0370   43.8580 N   0  0  0  0  0  0  0  0  0  0  0  0
   36.0240   30.3260   44.6870 C   0  0  0  0  0  0  0  0  0  0  0  0
   36.2500   30.3570   45.9980 N   0  0  0  0  0  0  0  0  0  0  0  0
   37.2040   31.0600   46.6160 C   0  0  0  0  0  0  0  0  0  0  0  0
   35.6870   30.4890   49.1880 C   0  0  0  0  0  0  0  0  0  0  0  0
   37.0540   30.6000   49.0340 C   0  0  0  0  0  0  0  0  0  0  0  0
   37.8950   30.0990   50.0260 C   0  0  0  0  0  0  0  0  0  0  0  0
   37.2910   29.5140   51.1150 N   0  0  0  0  0  0  0  0  0  0  0  0
   35.9670   29.4190   51.2390 C   0  0  0  0  0  0  0  0  0  0  0  0
   35.1480   29.9030   50.2820 N   0  0  0  0  0  0  0  0  0  0  0  0
   38.5450   32.6400   43.4850 C   0  0  2  0  0  0  0  0  0  0  0  0
   37.8360   32.9590   42.2390 C   0  0  0  0  0  0  0  0  0  0  0  0
   39.9510   32.0970   43.2760 C   0  0  0  0  0  0  0  0  0  0  0  0
   40.1440   30.9020   42.5300 C   0  0  0  0  0  0  0  0  0  0  0  0
   39.9970   29.6370   43.0390 C   0  0  0  0  0  0  0  0  0  0  0  0
   40.1770   28.4430   42.3370 C   0  0  0  0  0  0  0  0  0  0  0  0
   40.5400   28.6110   40.9970 C   0  0  0  0  0  0  0  0  0  0  0  0
   40.7030   29.8550   40.4290 C   0  0  0  0  0  0  0  0  0  0  0  0
   40.5050   30.9750   41.1920 C   0  0  0  0  0  0  0  0  0  0  0  0
   39.2141   32.3858   48.6999 H   0  0  0  0  0  0  0  0  0  0  0  0
   35.2058   29.7089   44.2872 H   0  0  0  0  0  0  0  0  0  0  0  0
   35.0225   30.8848   48.4058 H   0  0  0  0  0  0  0  0  0  0  0  0
   38.9896   30.1680   49.9423 H   0  0  0  0  0  0  0  0  0  0  0  0
   35.5374   28.9407   52.1315 H   0  0  0  0  0  0  0  0  0  0  0  0
   38.6461   33.6231   43.9680 H   0  0  0  0  0  0  0  0  0  0  0  0
   36.8566   33.3997   42.4769 H   0  0  0  0  0  0  0  0  0  0  0  0
   38.4287   33.6772   41.6534 H   0  0  0  0  0  0  0  0  0  0  0  0
   37.6917   32.0391   41.6534 H   0  0  0  0  0  0  0  0  0  0  0  0
   40.5246   32.8859   42.7675 H   0  0  0  0  0  0  0  0  0  0  0  0
   40.2698   31.8179   44.2911 H   0  0  0  0  0  0  0  0  0  0  0  0
   39.7109   29.5552   44.0980 H   0  0  0  0  0  0  0  0  0  0  0  0
   40.0444   27.4537   42.7993 H   0  0  0  0  0  0  0  0  0  0  0  0
   40.7010   27.7183   40.3748 H   0  0  0  0  0  0  0  0  0  0  0  0
   40.9899   29.9483   39.3712 H   0  0  0  0  0  0  0  0  0  0  0  0
   40.6364   31.9643   40.7293 H   0  0  0  0  0  0  0  0  0  0  0  0
  1 11  1  0
  2  1  1  0
  3  2  2  0
  4  3  1  0
  4  9  2  0
  5  4  1  0
  6  5  2  0
  6  7  1  0
  7  8  2  0
  8  9  1  0
  9  1  1  0
 10 15  2  0
 11 10  1  0
 11 12  2  0
 12 13  1  0
 13 14  2  0
 15 14  1  0
 16  5  1  0
 17 16  1  0
 18 16  1  0
 19 20  2  0
 19 18  1  0
 21 20  1  0
 22 21  2  0
 23 22  1  0
 23 24  2  0
 24 19  1  0
  2 25  1  0
  7 26  1  0
 10 27  1  0
 12 28  1  0
 14 29  1  0
 16 30  1  1
 17 31  1  0
 17 32  1  0
 17 33  1  0
 18 34  1  0
 18 35  1  0
 20 36  1  0
 21 37  1  0
 22 38  1  0
 23 39  1  0
 24 40  1  0
M  ISO  8  25  14  26  14  27  14  28  14  29  14  30   8  31   8  32   8
M  ISO  8  33   8  34   8  35   8  36  14  37  14  38  14  39  14  40  14
M  END
>  <minimizedAffinity>  (1) 
-5.4737854

>  <minimizedRMSD>  (1) 
1.97932374

$$$$
