
     RDKit          3D

 37 39  0  0  1  0  0  0  0  0999 V2000
   37.4820   31.1920   48.2360 N   0  0  0  0  0  0  0  0  0  0  0  0
   38.5200   32.0240   48.3720 C   0  0  0  0  0  0  0  0  0  0  0  0
   38.9750   32.4230   47.1830 N   0  0  0  0  0  0  0  0  0  0  0  0
   38.2140   31.8340   46.2340 C   0  0  0  0  0  0  0  0  0  0  0  0
   38.2210   31.8330   44.8760 C   0  0  0  0  0  0  0  0  0  0  0  0
   37.3410   31.1020   44.1240 N   0  0  0  0  0  0  0  0  0  0  0  0
   36.4400   30.3650   44.8120 C   0  0  0  0  0  0  0  0  0  0  0  0
   36.4440   30.3740   46.1430 N   0  0  0  0  0  0  0  0  0  0  0  0
   37.2810   31.0650   46.9100 C   0  0  0  0  0  0  0  0  0  0  0  0
   35.3850   30.4330   49.1860 C   0  0  0  0  0  0  0  0  0  0  0  0
   36.7580   30.5690   49.2750 C   0  0  0  0  0  0  0  0  0  0  0  0
   37.4150   30.0810   50.3990 C   0  0  0  0  0  0  0  0  0  0  0  0
   36.6390   29.4830   51.3680 N   0  0  0  0  0  0  0  0  0  0  0  0
   35.3160   29.3670   51.2540 C   0  0  0  0  0  0  0  0  0  0  0  0
   34.6720   29.8390   50.1660 N   0  0  0  0  0  0  0  0  0  0  0  0
   39.1200   32.7280   44.0900 C   0  0  2  0  0  0  0  0  0  0  0  0
   38.6360   33.0440   42.7400 C   0  0  0  0  0  0  0  0  0  0  0  0
   40.5310   32.0500   44.0150 C   0  0  0  0  0  0  0  0  0  0  0  0
   40.4460   30.6320   44.1000 N   0  0  0  0  0  0  0  0  0  0  0  0
   40.5010   29.8710   42.9030 C   0  0  0  0  0  0  0  0  0  0  0  0
   40.9860   30.3620   41.8110 N   0  0  0  0  0  0  0  0  0  0  0  0
   40.0290   28.5320   42.8390 N   0  0  0  0  0  0  0  0  0  0  0  0
   41.3330   31.3410   41.8520 H   0  0  0  0  0  0  0  0  0  0  0  0
   38.9432   32.3382   49.3375 H   0  0  0  0  0  0  0  0  0  0  0  0
   35.7014   29.7561   44.2700 H   0  0  0  0  0  0  0  0  0  0  0  0
   34.8626   30.8171   48.2975 H   0  0  0  0  0  0  0  0  0  0  0  0
   38.5059   30.1684   50.5098 H   0  0  0  0  0  0  0  0  0  0  0  0
   34.7421   28.8806   52.0566 H   0  0  0  0  0  0  0  0  0  0  0  0
   39.1575   33.6957   44.6116 H   0  0  0  0  0  0  0  0  0  0  0  0
   37.7169   33.6441   42.8111 H   0  0  0  0  0  0  0  0  0  0  0  0
   39.4053   33.6143   42.1988 H   0  0  0  0  0  0  0  0  0  0  0  0
   38.4233   32.1103   42.1988 H   0  0  0  0  0  0  0  0  0  0  0  0
   41.0049   32.3208   43.0600 H   0  0  0  0  0  0  0  0  0  0  0  0
   41.1253   32.4067   44.8692 H   0  0  0  0  0  0  0  0  0  0  0  0
   40.3464   30.1664   45.0133 H   0  0  0  0  0  0  0  0  0  0  0  0
   40.0840   28.0083   41.9538 H   0  0  0  0  0  0  0  0  0  0  0  0
   39.6319   28.0853   43.6778 H   0  0  0  0  0  0  0  0  0  0  0  0
  1  2  1  0
  1 11  1  0
  3  2  2  0
  4  9  2  0
  4  3  1  0
  5  4  1  0
  6  7  1  0
  6  5  2  0
  7  8  2  0
  8  9  1  0
  9  1  1  0
 10 11  2  0
 10 15  1  0
 11 12  1  0
 12 13  2  0
 14 13  1  0
 15 14  2  0
 16  5  1  0
 17 16  1  0
 18 16  1  0
 18 19  1  0
 20 19  1  0
 21 23  1  0
 21 20  2  0
 22 20  1  0
  2 24  1  0
  7 25  1  0
 10 26  1  0
 12 27  1  0
 14 28  1  0
 16 29  1  1
 17 30  1  0
 17 31  1  0
 17 32  1  0
 18 33  1  0
 18 34  1  0
 19 35  1  0
 22 36  1  0
 22 37  1  0
M  ISO  8  24  14  25  14  26  14  27  14  28  14  29   8  30   8  31   8
M  ISO  3  32   8  33   8  34   8
M  END
>  <minimizedAffinity>  (1) 
-5.45655489

>  <minimizedRMSD>  (1) 
0.887513816

$$$$
