
     RDKit          3D

 34 37  0  0  0  0  0  0  0  0999 V2000
   36.5770   30.4000   47.4010 N   0  0  0  0  0  0  0  0  0  0  0  0
   35.3150   30.1530   46.9790 C   0  0  0  0  0  0  0  0  0  0  0  0
   35.0380   30.1230   45.6220 C   0  0  0  0  0  0  0  0  0  0  0  0
   36.1060   30.3550   44.7980 C   0  0  0  0  0  0  0  0  0  0  0  0
   35.8570   30.3280   43.5520 O   0  0  0  0  0  0  0  0  0  0  0  0
   37.3650   30.6020   45.1680 N   0  0  0  0  0  0  0  0  0  0  0  0
   37.5720   30.6180   46.5120 C   0  0  0  0  0  0  0  0  0  0  0  0
   38.7220   30.8420   46.9410 O   0  0  0  0  0  0  0  0  0  0  0  0
   38.4160   30.8310   44.2360 C   0  0  0  0  0  0  0  0  0  0  0  0
   38.8520   32.1090   43.9640 C   0  0  0  0  0  0  0  0  0  0  0  0
   39.8390   31.9830   43.0550 N   0  0  0  0  0  0  0  0  0  0  0  0
   40.0340   30.6700   42.7510 C   0  0  0  0  0  0  0  0  0  0  0  0
   40.8760   29.9630   41.9180 C   0  0  0  0  0  0  0  0  0  0  0  0
   40.8210   28.5900   41.8340 C   0  0  0  0  0  0  0  0  0  0  0  0
   39.9110   27.8840   42.5920 C   0  0  0  0  0  0  0  0  0  0  0  0
   39.0350   28.5380   43.4510 C   0  0  0  0  0  0  0  0  0  0  0  0
   39.1380   29.9120   43.4900 C   0  0  0  0  0  0  0  0  0  0  0  0
   36.7280   29.1610   49.4080 C   0  0  0  0  0  0  0  0  0  0  0  0
   36.8100   30.4210   48.7860 C   0  0  0  0  0  0  0  0  0  0  0  0
   37.1040   31.5190   49.5740 C   0  0  0  0  0  0  0  0  0  0  0  0
   37.3010   31.3610   50.9000 N   0  0  0  0  0  0  0  0  0  0  0  0
   37.2180   30.1310   51.4910 C   0  0  0  0  0  0  0  0  0  0  0  0
   36.9320   29.0560   50.7300 N   0  0  0  0  0  0  0  0  0  0  0  0
   34.5126   29.9768   47.7105 H   0  0  0  0  0  0  0  0  0  0  0  0
   34.0281   29.9261   45.2330 H   0  0  0  0  0  0  0  0  0  0  0  0
   38.4713   33.0441   44.4007 H   0  0  0  0  0  0  0  0  0  0  0  0
   40.3694   32.7669   42.6487 H   0  0  0  0  0  0  0  0  0  0  0  0
   41.6089   30.5093   41.3062 H   0  0  0  0  0  0  0  0  0  0  0  0
   41.5054   28.0543   41.1598 H   0  0  0  0  0  0  0  0  0  0  0  0
   39.8776   26.7871   42.5160 H   0  0  0  0  0  0  0  0  0  0  0  0
   38.3029   27.9912   44.0634 H   0  0  0  0  0  0  0  0  0  0  0  0
   36.4975   28.2654   48.8123 H   0  0  0  0  0  0  0  0  0  0  0  0
   37.1771   32.5188   49.1211 H   0  0  0  0  0  0  0  0  0  0  0  0
   37.3824   30.0202   52.5730 H   0  0  0  0  0  0  0  0  0  0  0  0
  1 19  1  0
  2  1  1  0
  3  2  2  0
  4  6  1  0
  4  3  1  0
  5  4  2  0
  6  7  1  0
  7  8  2  0
  7  1  1  0
  9  6  1  0
 10  9  2  0
 11 10  1  0
 12 11  1  0
 12 17  2  0
 13 12  1  0
 14 13  2  0
 14 15  1  0
 15 16  2  0
 16 17  1  0
 17  9  1  0
 18 23  2  0
 19 18  1  0
 19 20  2  0
 20 21  1  0
 21 22  2  0
 23 22  1  0
  2 24  1  0
  3 25  1  0
 10 26  1  0
 11 27  1  0
 13 28  1  0
 14 29  1  0
 15 30  1  0
 16 31  1  0
 18 32  1  0
 20 33  1  0
 22 34  1  0
M  ISO  8  24  14  25  14  26  14  27   9  28  14  29  14  30  14  31  14
M  ISO  3  32  14  33  14  34  14
M  END
>  <minimizedAffinity>  (1) 
-5.66095638

>  <minimizedRMSD>  (1) 
5.59821749

$$$$
