
     RDKit          3D

 32 34  0  0  1  0  0  0  0  0999 V2000
   36.0640   30.3800   46.9730 N   0  0  0  0  0  0  0  0  0  0  0  0
   36.1240   30.4430   45.6210 C   0  0  0  0  0  0  0  0  0  0  0  0
   37.1050   31.1880   45.0030 C   0  0  0  0  0  0  0  0  0  0  0  0
   37.9690   31.8270   45.8500 C   0  0  0  0  0  0  0  0  0  0  0  0
   38.8860   32.5230   45.3120 O   0  0  0  0  0  0  0  0  0  0  0  0
   37.9470   31.7940   47.1860 N   0  0  0  0  0  0  0  0  0  0  0  0
   36.9600   31.0440   47.7390 C   0  0  0  0  0  0  0  0  0  0  0  0
   36.8650   30.9570   48.9730 O   0  0  0  0  0  0  0  0  0  0  0  0
   35.4120   28.8900   48.6940 C   0  0  0  0  0  0  0  0  0  0  0  0
   35.0330   29.5970   47.5510 C   0  0  0  0  0  0  0  0  0  0  0  0
   33.7270   29.4770   47.0930 C   0  0  0  0  0  0  0  0  0  0  0  0
   32.8680   28.6820   47.7690 N   0  0  0  0  0  0  0  0  0  0  0  0
   33.2640   27.9990   48.8880 C   0  0  0  0  0  0  0  0  0  0  0  0
   34.5360   28.1120   49.3400 N   0  0  0  0  0  0  0  0  0  0  0  0
   39.7770   33.3620   47.4070 N   0  0  0  0  0  0  0  0  0  0  0  0
   39.8700   34.5490   48.2030 C   0  0  0  0  0  0  0  0  0  0  0  0
   39.3510   34.1510   49.5880 C   0  0  0  0  0  0  0  0  0  0  0  0
   38.1760   33.2620   49.1600 C   0  0  0  0  0  0  0  0  0  0  0  0
   38.8550   32.4650   48.0640 C   0  0  1  0  0  0  0  0  0  0  0  0
   35.3866   29.8972   45.0140 H   0  0  0  0  0  0  0  0  0  0  0  0
   37.1874   31.2634   43.9087 H   0  0  0  0  0  0  0  0  0  0  0  0
   36.4432   28.9737   49.0677 H   0  0  0  0  0  0  0  0  0  0  0  0
   33.3974   30.0200   46.1950 H   0  0  0  0  0  0  0  0  0  0  0  0
   32.5474   27.3570   49.4211 H   0  0  0  0  0  0  0  0  0  0  0  0
   40.7032   32.9181   47.3292 H   0  0  0  0  0  0  0  0  0  0  0  0
   40.9142   34.8892   48.2663 H   0  0  0  0  0  0  0  0  0  0  0  0
   39.2899   35.3779   47.7712 H   0  0  0  0  0  0  0  0  0  0  0  0
   40.1024   33.5916   50.1646 H   0  0  0  0  0  0  0  0  0  0  0  0
   39.0923   34.9876   50.2537 H   0  0  0  0  0  0  0  0  0  0  0  0
   37.8280   32.6178   49.9809 H   0  0  0  0  0  0  0  0  0  0  0  0
   37.2671   33.8008   48.8540 H   0  0  0  0  0  0  0  0  0  0  0  0
   39.4099   31.6189   48.4955 H   0  0  0  0  0  0  0  0  0  0  0  0
  1 10  1  0
  1  7  1  0
  2  1  1  0
  3  2  2  0
  3  4  1  0
  4  6  1  0
  5  4  2  0
  6  7  1  0
  7  8  2  0
  9 14  2  0
 10  9  1  0
 11 10  2  0
 11 12  1  0
 12 13  2  0
 13 14  1  0
 15 19  1  0
 15 16  1  0
 16 17  1  0
 18 17  1  0
 19  6  1  0
 19 18  1  0
  2 20  1  0
  3 21  1  0
  9 22  1  0
 11 23  1  0
 13 24  1  0
 15 25  1  0
 16 26  1  0
 16 27  1  0
 17 28  1  0
 17 29  1  0
 18 30  1  0
 18 31  1  0
 19 32  1  1
M  ISO  8  20  14  21  14  22  14  23  14  24  14  25   5  26  13  27  13
M  ISO  5  28  13  29  13  30  13  31  13  32  13
M  END
>  <minimizedAffinity>  (1) 
-5.4717865

>  <minimizedRMSD>  (1) 
2.6009531

$$$$
