
     RDKit          3D

 36 39  0  0  0  0  0  0  0  0999 V2000
   36.1630   30.4090   46.9060 N   0  0  0  0  0  0  0  0  0  0  0  0
   34.9690   29.9350   46.4780 C   0  0  0  0  0  0  0  0  0  0  0  0
   34.6610   29.8870   45.1370 C   0  0  0  0  0  0  0  0  0  0  0  0
   35.6480   30.3490   44.3070 C   0  0  0  0  0  0  0  0  0  0  0  0
   35.4230   30.3300   43.0530 O   0  0  0  0  0  0  0  0  0  0  0  0
   36.8450   30.8280   44.6640 N   0  0  0  0  0  0  0  0  0  0  0  0
   37.0630   30.8380   46.0080 C   0  0  0  0  0  0  0  0  0  0  0  0
   38.1650   31.2730   46.4340 O   0  0  0  0  0  0  0  0  0  0  0  0
   37.8110   31.2880   43.7280 C   0  0  0  0  0  0  0  0  0  0  0  0
   37.9470   32.6090   43.3300 C   0  0  0  0  0  0  0  0  0  0  0  0
   38.9240   32.9450   42.4090 C   0  0  0  0  0  0  0  0  0  0  0  0
   39.7650   31.9880   41.8830 C   0  0  0  0  0  0  0  0  0  0  0  0
   39.6020   30.6770   42.3010 C   0  0  0  0  0  0  0  0  0  0  0  0
   40.4660   29.7300   41.7520 C   0  0  0  0  0  0  0  0  0  0  0  0
   40.3290   28.3980   42.1540 C   0  0  0  0  0  0  0  0  0  0  0  0
   39.3710   28.0070   43.0680 C   0  0  0  0  0  0  0  0  0  0  0  0
   38.5240   28.9680   43.6000 C   0  0  0  0  0  0  0  0  0  0  0  0
   38.6320   30.2940   43.2260 C   0  0  0  0  0  0  0  0  0  0  0  0
   37.7350   30.1940   48.6460 C   0  0  0  0  0  0  0  0  0  0  0  0
   36.4100   30.4300   48.2840 C   0  0  0  0  0  0  0  0  0  0  0  0
   35.4940   30.6550   49.2950 C   0  0  0  0  0  0  0  0  0  0  0  0
   35.9110   30.6380   50.5860 N   0  0  0  0  0  0  0  0  0  0  0  0
   37.2020   30.4080   50.9160 C   0  0  0  0  0  0  0  0  0  0  0  0
   38.1070   30.1860   49.9320 N   0  0  0  0  0  0  0  0  0  0  0  0
   34.2322   29.5821   47.2146 H   0  0  0  0  0  0  0  0  0  0  0  0
   33.6989   29.5078   44.7619 H   0  0  0  0  0  0  0  0  0  0  0  0
   37.2840   33.3836   43.7427 H   0  0  0  0  0  0  0  0  0  0  0  0
   39.0310   33.9928   42.0917 H   0  0  0  0  0  0  0  0  0  0  0  0
   40.5426   32.2570   41.1530 H   0  0  0  0  0  0  0  0  0  0  0  0
   41.2349   30.0232   41.0220 H   0  0  0  0  0  0  0  0  0  0  0  0
   41.0038   27.6398   41.7299 H   0  0  0  0  0  0  0  0  0  0  0  0
   39.2811   26.9528   43.3688 H   0  0  0  0  0  0  0  0  0  0  0  0
   37.7561   28.6707   44.3293 H   0  0  0  0  0  0  0  0  0  0  0  0
   38.4863   30.0116   47.8635 H   0  0  0  0  0  0  0  0  0  0  0  0
   34.4376   30.8459   49.0550 H   0  0  0  0  0  0  0  0  0  0  0  0
   37.5140   30.4012   51.9708 H   0  0  0  0  0  0  0  0  0  0  0  0
  1 20  1  0
  2  1  1  0
  3  2  2  0
  4  6  1  0
  4  3  1  0
  5  4  2  0
  6  7  1  0
  7  8  2  0
  7  1  1  0
  9  6  1  0
 10  9  2  0
 11 10  1  0
 12 13  1  0
 12 11  2  0
 13 18  2  0
 14 15  2  0
 14 13  1  0
 15 16  1  0
 16 17  2  0
 18 17  1  0
 18  9  1  0
 19 24  2  0
 20 19  1  0
 20 21  2  0
 21 22  1  0
 22 23  2  0
 24 23  1  0
  2 25  1  0
  3 26  1  0
 10 27  1  0
 11 28  1  0
 12 29  1  0
 14 30  1  0
 15 31  1  0
 16 32  1  0
 17 33  1  0
 19 34  1  0
 21 35  1  0
 23 36  1  0
M  ISO  8  25  14  26  14  27  14  28  14  29  14  30  14  31  14  32  14
M  ISO  4  33  14  34  14  35  14  36  14
M  END
>  <minimizedAffinity>  (1) 
-5.42499876

>  <minimizedRMSD>  (1) 
5.67331362

$$$$
