
     RDKit          3D

 27 29  0  0  0  0  0  0  0  0999 V2000
   34.7420   29.9790   46.0870 N   0  0  0  0  0  0  0  0  0  0  0  0
   35.3290   30.1440   44.8750 C   0  0  0  0  0  0  0  0  0  0  0  0
   36.6510   30.5350   44.7690 C   0  0  0  0  0  0  0  0  0  0  0  0
   37.2780   30.7290   45.9740 C   0  0  0  0  0  0  0  0  0  0  0  0
   38.4960   31.0890   45.9300 O   0  0  0  0  0  0  0  0  0  0  0  0
   36.7510   30.5820   47.2020 N   0  0  0  0  0  0  0  0  0  0  0  0
   35.4470   30.1960   47.2110 C   0  0  0  0  0  0  0  0  0  0  0  0
   34.8750   30.0350   48.3100 O   0  0  0  0  0  0  0  0  0  0  0  0
   37.4840   30.8070   48.3890 C   0  0  0  0  0  0  0  0  0  0  0  0
   38.1180   32.0290   48.5490 C   0  0  0  0  0  0  0  0  0  0  0  0
   38.7520   31.9800   49.7830 C   0  0  0  0  0  0  0  0  0  0  0  0
   38.4940   30.7570   50.3330 N   0  0  0  0  0  0  0  0  0  0  0  0
   37.7280   30.0620   49.4790 N   0  0  0  0  0  0  0  0  0  0  0  0
   33.2150   28.1900   46.2510 C   0  0  0  0  0  0  0  0  0  0  0  0
   33.4000   29.5820   46.1140 C   0  0  0  0  0  0  0  0  0  0  0  0
   32.2750   30.3800   46.0240 C   0  0  0  0  0  0  0  0  0  0  0  0
   31.0520   29.8090   46.0690 N   0  0  0  0  0  0  0  0  0  0  0  0
   30.8830   28.4720   46.2000 C   0  0  0  0  0  0  0  0  0  0  0  0
   31.9790   27.6750   46.2900 N   0  0  0  0  0  0  0  0  0  0  0  0
   34.7434   29.9637   43.9614 H   0  0  0  0  0  0  0  0  0  0  0  0
   37.1563   30.6781   43.8025 H   0  0  0  0  0  0  0  0  0  0  0  0
   38.1187   32.8698   47.8398 H   0  0  0  0  0  0  0  0  0  0  0  0
   39.3537   32.7817   50.2360 H   0  0  0  0  0  0  0  0  0  0  0  0
   38.8304   30.4247   51.2481 H   0  0  0  0  0  0  0  0  0  0  0  0
   34.0884   27.5256   46.3260 H   0  0  0  0  0  0  0  0  0  0  0  0
   32.3750   31.4702   45.9167 H   0  0  0  0  0  0  0  0  0  0  0  0
   29.8729   28.0377   46.2330 H   0  0  0  0  0  0  0  0  0  0  0  0
  1 15  1  0
  1  7  1  0
  2  1  1  0
  3  2  2  0
  3  4  1  0
  4  6  1  0
  5  4  2  0
  6  7  1  0
  6  9  1  0
  7  8  2  0
  9 10  1  0
  9 13  2  0
 10 11  2  0
 11 12  1  0
 13 12  1  0
 14 19  2  0
 15 14  1  0
 16 17  1  0
 16 15  2  0
 17 18  2  0
 18 19  1  0
  2 20  1  0
  3 21  1  0
 10 22  1  0
 11 23  1  0
 12 24  1  0
 14 25  1  0
 16 26  1  0
 18 27  1  0
M  ISO  8  20  14  21  14  22  14  23  14  24   9  25  14  26  14  27  14
M  END
>  <minimizedAffinity>  (1) 
-5.14864635

>  <minimizedRMSD>  (1) 
4.89874935

$$$$
