
     RDKit          3D

 27 29  0  0  0  0  0  0  0  0999 V2000
   36.1680   30.4370   47.0200 N   0  0  0  0  0  0  0  0  0  0  0  0
   36.3420   30.3010   45.6760 C   0  0  0  0  0  0  0  0  0  0  0  0
   37.3130   31.0480   45.0260 C   0  0  0  0  0  0  0  0  0  0  0  0
   38.0380   31.8880   45.8280 C   0  0  0  0  0  0  0  0  0  0  0  0
   38.9300   32.5780   45.2390 O   0  0  0  0  0  0  0  0  0  0  0  0
   37.9050   32.0570   47.1470 N   0  0  0  0  0  0  0  0  0  0  0  0
   36.9310   31.2910   47.7240 C   0  0  0  0  0  0  0  0  0  0  0  0
   36.7480   31.3930   48.9500 O   0  0  0  0  0  0  0  0  0  0  0  0
   35.5800   28.9520   48.7540 C   0  0  0  0  0  0  0  0  0  0  0  0
   35.1710   29.6610   47.6300 C   0  0  0  0  0  0  0  0  0  0  0  0
   33.8370   29.5500   47.2090 C   0  0  0  0  0  0  0  0  0  0  0  0
   33.0180   28.7450   47.9370 N   0  0  0  0  0  0  0  0  0  0  0  0
   33.4370   28.0630   49.0270 C   0  0  0  0  0  0  0  0  0  0  0  0
   34.7110   28.1780   49.4170 N   0  0  0  0  0  0  0  0  0  0  0  0
   38.7050   32.9580   47.9050 C   0  0  0  0  0  0  0  0  0  0  0  0
   38.4490   33.1810   49.2620 C   0  0  0  0  0  0  0  0  0  0  0  0
   39.3990   34.1050   49.7090 C   0  0  0  0  0  0  0  0  0  0  0  0
   40.1660   34.3810   48.5960 C   0  0  0  0  0  0  0  0  0  0  0  0
   39.7250   33.6830   47.5500 O   0  0  0  0  0  0  0  0  0  0  0  0
   35.7135   29.6000   45.1072 H   0  0  0  0  0  0  0  0  0  0  0  0
   37.4883   30.9710   43.9428 H   0  0  0  0  0  0  0  0  0  0  0  0
   36.6214   29.0271   49.1001 H   0  0  0  0  0  0  0  0  0  0  0  0
   33.4687   30.0923   46.3257 H   0  0  0  0  0  0  0  0  0  0  0  0
   32.7390   27.4220   49.5855 H   0  0  0  0  0  0  0  0  0  0  0  0
   37.6525   32.7180   49.8629 H   0  0  0  0  0  0  0  0  0  0  0  0
   39.5099   34.5192   50.7220 H   0  0  0  0  0  0  0  0  0  0  0  0
   41.0180   35.0764   48.5750 H   0  0  0  0  0  0  0  0  0  0  0  0
  1 10  1  0
  1  7  1  0
  2  1  1  0
  3  2  2  0
  3  4  1  0
  4  6  1  0
  5  4  2  0
  6  7  1  0
  6 15  1  0
  7  8  2  0
  9 14  2  0
 10  9  1  0
 11 10  2  0
 11 12  1  0
 12 13  2  0
 13 14  1  0
 15 16  2  0
 16 17  1  0
 18 17  2  0
 19 15  1  0
 19 18  1  0
  2 20  1  0
  3 21  1  0
  9 22  1  0
 11 23  1  0
 13 24  1  0
 16 25  1  0
 17 26  1  0
 18 27  1  0
M  ISO  8  20  14  21  14  22  14  23  14  24  14  25  14  26  14  27  14
M  END
>  <minimizedAffinity>  (1) 
-5.00391722

>  <minimizedRMSD>  (1) 
2.44785213

$$$$
