
     RDKit          3D

 30 32  0  0  0  0  0  0  0  0999 V2000
   35.8000   30.1050   47.3820 N   0  0  0  0  0  0  0  0  0  0  0  0
   34.9570   29.7150   46.3960 C   0  0  0  0  0  0  0  0  0  0  0  0
   35.2730   29.9280   45.0680 C   0  0  0  0  0  0  0  0  0  0  0  0
   36.4780   30.5480   44.8650 C   0  0  0  0  0  0  0  0  0  0  0  0
   36.8050   30.7620   43.6510 O   0  0  0  0  0  0  0  0  0  0  0  0
   37.3520   30.9570   45.7910 N   0  0  0  0  0  0  0  0  0  0  0  0
   36.9650   30.7100   47.0730 C   0  0  0  0  0  0  0  0  0  0  0  0
   37.7280   31.0620   48.0030 O   0  0  0  0  0  0  0  0  0  0  0  0
   36.3860   29.1830   49.4730 C   0  0  0  0  0  0  0  0  0  0  0  0
   35.4220   29.8620   48.7080 C   0  0  0  0  0  0  0  0  0  0  0  0
   34.2340   30.2070   49.3280 C   0  0  0  0  0  0  0  0  0  0  0  0
   34.0470   29.8840   50.6270 N   0  0  0  0  0  0  0  0  0  0  0  0
   34.9850   29.2310   51.3520 C   0  0  0  0  0  0  0  0  0  0  0  0
   36.1560   28.8850   50.7580 N   0  0  0  0  0  0  0  0  0  0  0  0
   38.5770   31.5900   45.5080 C   0  0  0  0  0  0  0  0  0  0  0  0
   38.7250   32.9180   45.1430 C   0  0  0  0  0  0  0  0  0  0  0  0
   39.9910   33.4080   44.8930 C   0  0  0  0  0  0  0  0  0  0  0  0
   41.1240   32.6240   44.9930 C   0  0  0  0  0  0  0  0  0  0  0  0
   40.9590   31.3160   45.3540 C   0  0  0  0  0  0  0  0  0  0  0  0
   39.7100   30.7850   45.6130 C   0  0  0  0  0  0  0  0  0  0  0  0
   34.0085   29.2223   46.6560 H   0  0  0  0  0  0  0  0  0  0  0  0
   34.6123   29.6251   44.2424 H   0  0  0  0  0  0  0  0  0  0  0  0
   37.3409   28.8929   49.0105 H   0  0  0  0  0  0  0  0  0  0  0  0
   33.4497   30.7388   48.7693 H   0  0  0  0  0  0  0  0  0  0  0  0
   34.8012   28.9840   52.4080 H   0  0  0  0  0  0  0  0  0  0  0  0
   37.8458   33.5730   45.0536 H   0  0  0  0  0  0  0  0  0  0  0  0
   40.1020   34.4633   44.6030 H   0  0  0  0  0  0  0  0  0  0  0  0
   42.1228   33.0374   44.7895 H   0  0  0  0  0  0  0  0  0  0  0  0
   41.8443   30.6688   45.4406 H   0  0  0  0  0  0  0  0  0  0  0  0
   39.6099   29.7283   45.9017 H   0  0  0  0  0  0  0  0  0  0  0  0
  1 10  1  0
  2  1  1  0
  3  2  2  0
  4  3  1  0
  4  6  1  0
  5  4  2  0
  6  7  1  0
  7  1  1  0
  7  8  2  0
  9 14  2  0
 10 11  2  0
 10  9  1  0
 11 12  1  0
 12 13  2  0
 14 13  1  0
 15 20  1  0
 15  6  1  0
 16 15  2  0
 17 18  2  0
 17 16  1  0
 18 19  1  0
 19 20  2  0
  2 21  1  0
  3 22  1  0
  9 23  1  0
 11 24  1  0
 13 25  1  0
 16 26  1  0
 17 27  1  0
 18 28  1  0
 19 29  1  0
 20 30  1  0
M  ISO  8  21  14  22  14  23  14  24  14  25  14  26  14  27  14  28  14
M  ISO  2  29  14  30  14
M  END
>  <minimizedAffinity>  (1) 
-4.92611313

>  <minimizedRMSD>  (1) 
3.60918808

$$$$
