
     RDKit          3D

 35 37  0  0  0  0  0  0  0  0999 V2000
   35.7390   30.0890   47.2320 N   0  0  0  0  0  0  0  0  0  0  0  0
   34.8100   29.7490   46.3220 C   0  0  0  0  0  0  0  0  0  0  0  0
   34.9920   29.9550   44.9740 C   0  0  0  0  0  0  0  0  0  0  0  0
   36.2080   30.5370   44.6660 C   0  0  0  0  0  0  0  0  0  0  0  0
   36.4340   30.7530   43.4300 O   0  0  0  0  0  0  0  0  0  0  0  0
   37.1880   30.9050   45.5230 N   0  0  0  0  0  0  0  0  0  0  0  0
   36.9000   30.6550   46.8300 C   0  0  0  0  0  0  0  0  0  0  0  0
   37.7450   30.9620   47.6910 O   0  0  0  0  0  0  0  0  0  0  0  0
   36.5320   29.2990   49.3060 C   0  0  0  0  0  0  0  0  0  0  0  0
   35.4700   29.8440   48.5830 C   0  0  0  0  0  0  0  0  0  0  0  0
   34.2880   30.0800   49.2610 C   0  0  0  0  0  0  0  0  0  0  0  0
   34.2020   29.7790   50.5820 N   0  0  0  0  0  0  0  0  0  0  0  0
   35.2470   29.2500   51.2610 C   0  0  0  0  0  0  0  0  0  0  0  0
   36.4070   29.0150   50.6080 N   0  0  0  0  0  0  0  0  0  0  0  0
   41.0580   32.4100   44.8140 N   0  0  0  0  0  0  0  0  0  0  0  0
   40.0020   33.3360   45.0530 C   0  0  0  0  0  0  0  0  0  0  0  0
   38.8260   32.7410   45.7940 C   0  0  0  0  0  0  0  0  0  0  0  0
   38.4060   31.5010   45.0920 C   0  0  0  0  0  0  0  0  0  0  0  0
   39.5840   30.5250   45.1190 C   0  0  0  0  0  0  0  0  0  0  0  0
   40.6470   31.1580   44.2410 C   0  0  0  0  0  0  0  0  0  0  0  0
   33.8717   29.2901   46.6671 H   0  0  0  0  0  0  0  0  0  0  0  0
   34.2433   29.6833   44.2153 H   0  0  0  0  0  0  0  0  0  0  0  0
   37.4870   29.0997   48.7978 H   0  0  0  0  0  0  0  0  0  0  0  0
   33.4232   30.5088   48.7334 H   0  0  0  0  0  0  0  0  0  0  0  0
   35.1532   29.0142   52.3313 H   0  0  0  0  0  0  0  0  0  0  0  0
   41.7306   32.8509   44.1705 H   0  0  0  0  0  0  0  0  0  0  0  0
   40.4006   34.1709   45.6480 H   0  0  0  0  0  0  0  0  0  0  0  0
   39.6308   33.6601   44.0696 H   0  0  0  0  0  0  0  0  0  0  0  0
   39.1205   32.5015   46.8264 H   0  0  0  0  0  0  0  0  0  0  0  0
   37.9938   33.4599   45.8203 H   0  0  0  0  0  0  0  0  0  0  0  0
   38.1506   31.7895   44.0617 H   0  0  0  0  0  0  0  0  0  0  0  0
   39.9570   30.3993   46.1462 H   0  0  0  0  0  0  0  0  0  0  0  0
   39.2973   29.5254   44.7606 H   0  0  0  0  0  0  0  0  0  0  0  0
   40.2362   31.3321   43.2356 H   0  0  0  0  0  0  0  0  0  0  0  0
   41.5139   30.4844   44.1712 H   0  0  0  0  0  0  0  0  0  0  0  0
  1 10  1  0
  2  1  1  0
  3  2  2  0
  4  3  1  0
  4  6  1  0
  5  4  2  0
  6  7  1  0
  7  1  1  0
  7  8  2  0
  9 14  2  0
 10 11  2  0
 10  9  1  0
 11 12  1  0
 12 13  2  0
 14 13  1  0
 15 16  1  0
 16 17  1  0
 18 19  1  0
 18  6  1  0
 18 17  1  0
 20 15  1  0
 20 19  1  0
  2 21  1  0
  3 22  1  0
  9 23  1  0
 11 24  1  0
 13 25  1  0
 15 26  1  0
 16 27  1  0
 16 28  1  0
 17 29  1  0
 17 30  1  0
 18 31  1  0
 19 32  1  0
 19 33  1  0
 20 34  1  0
 20 35  1  0
M  ISO  8  21  14  22  14  23  14  24  14  25  14  26   5  27  13  28  13
M  ISO  7  29  13  30  13  31  13  32  13  33  13  34  13  35  13
M  END
>  <minimizedAffinity>  (1) 
-4.90212154

>  <minimizedRMSD>  (1) 
3.89976215

$$$$
