
     RDKit          3D

 33 35  0  0  0  0  0  0  0  0999 V2000
   36.0810   30.3560   46.8860 N   0  0  0  0  0  0  0  0  0  0  0  0
   36.1280   30.3300   45.5270 C   0  0  0  0  0  0  0  0  0  0  0  0
   37.1080   31.0310   44.8430 C   0  0  0  0  0  0  0  0  0  0  0  0
   37.9800   31.7180   45.6450 C   0  0  0  0  0  0  0  0  0  0  0  0
   38.9010   32.3780   45.0540 O   0  0  0  0  0  0  0  0  0  0  0  0
   37.9870   31.7810   46.9830 N   0  0  0  0  0  0  0  0  0  0  0  0
   36.9990   31.0710   47.5760 C   0  0  0  0  0  0  0  0  0  0  0  0
   36.9240   31.0710   48.8300 O   0  0  0  0  0  0  0  0  0  0  0  0
   35.4730   28.9380   48.6630 C   0  0  0  0  0  0  0  0  0  0  0  0
   35.0680   29.6280   47.5210 C   0  0  0  0  0  0  0  0  0  0  0  0
   33.7410   29.5270   47.1410 C   0  0  0  0  0  0  0  0  0  0  0  0
   32.8950   28.7760   47.8760 N   0  0  0  0  0  0  0  0  0  0  0  0
   33.3160   28.1100   48.9900 C   0  0  0  0  0  0  0  0  0  0  0  0
   34.6080   28.2010   49.3700 N   0  0  0  0  0  0  0  0  0  0  0  0
   38.9360   32.5230   47.7190 C   0  0  0  0  0  0  0  0  0  0  0  0
   39.5730   33.6890   47.0000 C   0  0  0  0  0  0  0  0  0  0  0  0
   40.4500   34.2020   48.1440 C   0  0  0  0  0  0  0  0  0  0  0  0
   39.3680   34.3740   49.2100 C   0  0  0  0  0  0  0  0  0  0  0  0
   38.4700   33.1510   48.9920 C   0  0  0  0  0  0  0  0  0  0  0  0
   35.3819   29.7477   44.9664 H   0  0  0  0  0  0  0  0  0  0  0  0
   37.1798   31.0354   43.7454 H   0  0  0  0  0  0  0  0  0  0  0  0
   36.5219   29.0005   48.9885 H   0  0  0  0  0  0  0  0  0  0  0  0
   33.3789   30.0550   46.2465 H   0  0  0  0  0  0  0  0  0  0  0  0
   32.6079   27.5036   49.5739 H   0  0  0  0  0  0  0  0  0  0  0  0
   39.6358   31.6938   47.8997 H   0  0  0  0  0  0  0  0  0  0  0  0
   40.1681   33.3672   46.1326 H   0  0  0  0  0  0  0  0  0  0  0  0
   38.8777   34.4210   46.5632 H   0  0  0  0  0  0  0  0  0  0  0  0
   41.2113   33.4664   48.4429 H   0  0  0  0  0  0  0  0  0  0  0  0
   41.0437   35.1007   47.9208 H   0  0  0  0  0  0  0  0  0  0  0  0
   39.8039   34.3692   50.2199 H   0  0  0  0  0  0  0  0  0  0  0  0
   38.8272   35.3284   49.1281 H   0  0  0  0  0  0  0  0  0  0  0  0
   37.4179   33.4596   48.9037 H   0  0  0  0  0  0  0  0  0  0  0  0
   38.5327   32.4482   49.8358 H   0  0  0  0  0  0  0  0  0  0  0  0
  1 10  1  0
  1  7  1  0
  2  1  1  0
  3  2  2  0
  3  4  1  0
  4  6  1  0
  5  4  2  0
  6  7  1  0
  6 15  1  0
  7  8  2  0
  9 14  2  0
 10  9  1  0
 11 10  2  0
 11 12  1  0
 12 13  2  0
 13 14  1  0
 15 19  1  0
 16 15  1  0
 16 17  1  0
 17 18  1  0
 19 18  1  0
  2 20  1  0
  3 21  1  0
  9 22  1  0
 11 23  1  0
 13 24  1  0
 15 25  1  0
 16 26  1  0
 16 27  1  0
 17 28  1  0
 17 29  1  0
 18 30  1  0
 18 31  1  0
 19 32  1  0
 19 33  1  0
M  ISO  8  20  14  21  14  22  14  23  14  24  14  25  13  26  13  27  13
M  ISO  6  28  13  29  13  30  13  31  13  32  13  33  13
M  END
>  <minimizedAffinity>  (1) 
-4.81396627

>  <minimizedRMSD>  (1) 
2.58852339

$$$$
