
     RDKit          3D

 27 29  0  0  0  0  0  0  0  0999 V2000
   35.9660   30.3400   47.2990 N   0  0  0  0  0  0  0  0  0  0  0  0
   36.4410   30.4320   46.0370 C   0  0  0  0  0  0  0  0  0  0  0  0
   37.5920   31.1580   45.7760 C   0  0  0  0  0  0  0  0  0  0  0  0
   38.1680   31.7460   46.8710 C   0  0  0  0  0  0  0  0  0  0  0  0
   39.2240   32.4170   46.6550 O   0  0  0  0  0  0  0  0  0  0  0  0
   37.7420   31.6880   48.1370 N   0  0  0  0  0  0  0  0  0  0  0  0
   36.6050   30.9550   48.3120 C   0  0  0  0  0  0  0  0  0  0  0  0
   36.1360   30.8510   49.4750 O   0  0  0  0  0  0  0  0  0  0  0  0
   34.9190   28.5840   48.4760 C   0  0  0  0  0  0  0  0  0  0  0  0
   34.8000   29.5940   47.5090 C   0  0  0  0  0  0  0  0  0  0  0  0
   33.5760   29.7390   46.8820 C   0  0  0  0  0  0  0  0  0  0  0  0
   32.5510   28.9210   47.2140 N   0  0  0  0  0  0  0  0  0  0  0  0
   32.6890   27.9490   48.1550 C   0  0  0  0  0  0  0  0  0  0  0  0
   33.8780   27.7960   48.7740 N   0  0  0  0  0  0  0  0  0  0  0  0
   38.4240   32.3480   49.2350 C   0  0  0  0  0  0  0  0  0  0  0  0
   37.6930   33.6180   49.7100 C   0  0  0  0  0  0  0  0  0  0  0  0
   39.0760   33.6540   49.0750 C   0  0  0  0  0  0  0  0  0  0  0  0
   35.9120   29.9288   45.2142 H   0  0  0  0  0  0  0  0  0  0  0  0
   38.0122   31.2550   44.7641 H   0  0  0  0  0  0  0  0  0  0  0  0
   35.8779   28.4380   48.9949 H   0  0  0  0  0  0  0  0  0  0  0  0
   33.4364   30.5164   46.1164 H   0  0  0  0  0  0  0  0  0  0  0  0
   31.8414   27.2953   48.4085 H   0  0  0  0  0  0  0  0  0  0  0  0
   38.7998   31.4026   49.6533 H   0  0  0  0  0  0  0  0  0  0  0  0
   36.8177   33.9955   49.1611 H   0  0  0  0  0  0  0  0  0  0  0  0
   37.2422   33.9693   50.6499 H   0  0  0  0  0  0  0  0  0  0  0  0
   39.9518   33.9045   49.6916 H   0  0  0  0  0  0  0  0  0  0  0  0
   39.5131   34.1925   48.2212 H   0  0  0  0  0  0  0  0  0  0  0  0
  1 10  1  0
  1  7  1  0
  2  1  1  0
  3  2  2  0
  3  4  1  0
  4  6  1  0
  5  4  2  0
  6  7  1  0
  6 15  1  0
  7  8  2  0
  9 14  2  0
 10  9  1  0
 11 12  1  0
 11 10  2  0
 12 13  2  0
 13 14  1  0
 15 16  1  0
 17 15  1  0
 17 16  1  0
  2 18  1  0
  3 19  1  0
  9 20  1  0
 11 21  1  0
 13 22  1  0
 15 23  1  0
 16 24  1  0
 16 25  1  0
 17 26  1  0
 17 27  1  0
M  ISO  8  18  14  19  14  20  14  21  14  22  14  23  13  24  13  25  13
M  ISO  2  26  13  27  13
M  END
>  <minimizedAffinity>  (1) 
-4.74022245

>  <minimizedRMSD>  (1) 
2.99559927

$$$$
