
     RDKit          3D

 51 54  0  0  0  0  0  0  0  0999 V2000
   33.5850   30.2470   44.2400 C   0  0  0  0  0  0  0  0  0  0  0  0
   33.8790   31.2880   43.3190 C   0  0  0  0  0  0  0  0  0  0  0  0
   32.7960   31.9360   42.6870 C   0  0  0  0  0  0  0  0  0  0  0  0
   31.5260   31.5290   42.9930 N   0  0  0  0  0  0  0  0  0  0  0  0
   31.2930   30.5380   43.8730 C   0  0  0  0  0  0  0  0  0  0  0  0
   32.3050   29.9130   44.4810 N   0  0  0  0  0  0  0  0  0  0  0  0
   29.9440   30.1600   44.1500 N   0  0  0  0  0  0  0  0  0  0  0  0
   29.0130   30.1630   43.2010 C   0  0  0  0  0  0  0  0  0  0  0  0
   27.7080   29.8050   43.4380 C   0  0  0  0  0  0  0  0  0  0  0  0
   27.4430   29.4420   44.7330 C   0  0  0  0  0  0  0  0  0  0  0  0
   26.2720   29.0940   45.0560 O   0  0  0  0  0  0  0  0  0  0  0  0
   28.3250   29.4140   45.7300 N   0  0  0  0  0  0  0  0  0  0  0  0
   29.6020   29.7860   45.4110 C   0  0  0  0  0  0  0  0  0  0  0  0
   30.4590   29.7730   46.3210 O   0  0  0  0  0  0  0  0  0  0  0  0
   27.5610   27.8110   49.5190 C   0  0  0  0  0  0  0  0  0  0  0  0
   27.4440   29.1660   49.3560 C   0  0  0  0  0  0  0  0  0  0  0  0
   27.6730   29.7890   48.1540 C   0  0  0  0  0  0  0  0  0  0  0  0
   28.0330   29.0330   47.0700 C   0  0  0  0  0  0  0  0  0  0  0  0
   28.1620   27.6460   47.2010 C   0  0  0  0  0  0  0  0  0  0  0  0
   27.9260   27.0170   48.4320 C   0  0  0  0  0  0  0  0  0  0  0  0
   27.2610   27.0730   51.0600 S   0  0  0  0  0  0  0  0  0  0  0  0
   28.4530   27.0380   51.9430 O   0  0  0  0  0  0  0  0  0  0  0  0
   26.1420   27.8390   51.7350 O   0  0  0  0  0  0  0  0  0  0  0  0
   26.6300   29.7920   42.4210 C   0  0  0  0  0  0  0  0  0  0  0  0
   26.4410   28.4850   41.8420 N   0  0  0  0  0  0  0  0  0  0  0  0
   27.5460   27.6650   42.2110 C   0  0  0  0  0  0  0  0  0  0  0  0
   27.3500   26.2000   41.9330 C   0  0  0  0  0  0  0  0  0  0  0  0
   26.1550   25.7710   42.7600 C   0  0  0  0  0  0  0  0  0  0  0  0
   24.9810   26.5240   42.1980 C   0  0  0  0  0  0  0  0  0  0  0  0
   25.1490   28.0060   42.1830 C   0  0  0  0  0  0  0  0  0  0  0  0
   34.4006   29.7168   44.7535 H   0  0  0  0  0  0  0  0  0  0  0  0
   34.9178   31.5798   43.1052 H   0  0  0  0  0  0  0  0  0  0  0  0
   32.9688   32.7485   41.9659 H   0  0  0  0  0  0  0  0  0  0  0  0
   29.2997   30.4649   42.1829 H   0  0  0  0  0  0  0  0  0  0  0  0
   27.1552   29.7793   50.2223 H   0  0  0  0  0  0  0  0  0  0  0  0
   27.5688   30.8803   48.0628 H   0  0  0  0  0  0  0  0  0  0  0  0
   28.4518   27.0420   46.3285 H   0  0  0  0  0  0  0  0  0  0  0  0
   28.0261   25.9266   48.5374 H   0  0  0  0  0  0  0  0  0  0  0  0
   26.9186   25.7648   50.8404 H   0  0  0  0  0  0  0  0  0  0  0  0
   25.6900   30.1073   42.8975 H   0  0  0  0  0  0  0  0  0  0  0  0
   26.9206   30.4796   41.6131 H   0  0  0  0  0  0  0  0  0  0  0  0
   28.4299   28.0064   41.6523 H   0  0  0  0  0  0  0  0  0  0  0  0
   27.6631   27.7659   43.3001 H   0  0  0  0  0  0  0  0  0  0  0  0
   27.1519   26.0377   40.8632 H   0  0  0  0  0  0  0  0  0  0  0  0
   28.2472   25.6185   42.1918 H   0  0  0  0  0  0  0  0  0  0  0  0
   25.9946   24.6866   42.6687 H   0  0  0  0  0  0  0  0  0  0  0  0
   26.3020   25.9863   43.8287 H   0  0  0  0  0  0  0  0  0  0  0  0
   24.8185   26.1858   41.1640 H   0  0  0  0  0  0  0  0  0  0  0  0
   24.1270   26.3117   42.8581 H   0  0  0  0  0  0  0  0  0  0  0  0
   24.9057   28.3819   43.1877 H   0  0  0  0  0  0  0  0  0  0  0  0
   24.4799   28.3710   41.3898 H   0  0  0  0  0  0  0  0  0  0  0  0
  1  6  2  0
  2  1  1  0
  3  4  1  0
  3  2  2  0
  4  5  2  0
  5  7  1  0
  5  6  1  0
  7 13  1  0
  8  9  2  0
  8  7  1  0
  9 10  1  0
 10 11  2  0
 10 12  1  0
 12 18  1  0
 13 12  1  0
 13 14  2  0
 15 21  1  0
 16 15  2  0
 17 16  1  0
 18 19  1  0
 18 17  2  0
 19 20  2  0
 20 15  1  0
 21 23  2  0
 21 22  2  0
 24  9  1  0
 25 30  1  0
 25 26  1  0
 25 24  1  0
 27 26  1  0
 27 28  1  0
 29 28  1  0
 30 29  1  0
  1 31  1  0
  2 32  1  0
  3 33  1  0
  8 34  1  0
 16 35  1  0
 17 36  1  0
 19 37  1  0
 20 38  1  0
 21 39  1  0
 24 40  1  0
 24 41  1  0
 26 42  1  0
 26 43  1  0
 27 44  1  0
 27 45  1  0
 28 46  1  0
 28 47  1  0
 29 48  1  0
 29 49  1  0
 30 50  1  0
 30 51  1  0
M  ISO  8  31  14  32  14  33  14  34  14  35  14  36  14  37  14  38  14
M  ISO  8  39  11  40   8  41   8  42  13  43  13  44  13  45  13  46  13
M  ISO  5  47  13  48  13  49  13  50  13  51  13
M  END
>  <minimizedAffinity>  (1) 
-4.77009296

>  <minimizedRMSD>  (1) 
0.369850785

$$$$
