
     RDKit          3D

 42 46  0  0  0  0  0  0  0  0999 V2000
   38.0180   31.1980   44.3140 C   0  0  0  0  0  0  0  0  0  0  0  0
   38.4690   32.4900   44.0960 C   0  0  0  0  0  0  0  0  0  0  0  0
   39.3880   32.8070   43.1420 C   0  0  0  0  0  0  0  0  0  0  0  0
   39.9060   31.8090   42.3490 C   0  0  0  0  0  0  0  0  0  0  0  0
   39.4460   30.5190   42.5760 C   0  0  0  0  0  0  0  0  0  0  0  0
   38.5260   30.2170   43.5340 N   0  0  0  0  0  0  0  0  0  0  0  0
   39.9360   29.4090   41.7890 N   0  0  0  0  0  0  0  0  0  0  0  0
   39.7190   28.0770   41.9030 C   0  0  0  0  0  0  0  0  0  0  0  0
   40.4050   27.4650   40.9200 N   0  0  0  0  0  0  0  0  0  0  0  0
   41.0540   28.3760   40.1840 C   0  0  0  0  0  0  0  0  0  0  0  0
   41.8820   28.1990   39.0720 C   0  0  0  0  0  0  0  0  0  0  0  0
   42.4170   29.3160   38.5130 N   0  0  0  0  0  0  0  0  0  0  0  0
   42.1350   30.5230   39.0400 C   0  0  0  0  0  0  0  0  0  0  0  0
   41.3350   30.6920   40.1150 N   0  0  0  0  0  0  0  0  0  0  0  0
   40.7610   29.6160   40.7300 C   0  0  0  0  0  0  0  0  0  0  0  0
   36.4010   30.2890   47.4880 N   0  0  0  0  0  0  0  0  0  0  0  0
   35.1370   30.0110   47.0790 C   0  0  0  0  0  0  0  0  0  0  0  0
   34.7820   30.1130   45.7460 C   0  0  0  0  0  0  0  0  0  0  0  0
   35.7980   30.5090   44.9150 C   0  0  0  0  0  0  0  0  0  0  0  0
   35.5140   30.6160   43.6760 O   0  0  0  0  0  0  0  0  0  0  0  0
   37.0780   30.7990   45.2710 N   0  0  0  0  0  0  0  0  0  0  0  0
   37.3150   30.6650   46.5930 C   0  0  0  0  0  0  0  0  0  0  0  0
   38.4680   30.9130   46.9890 O   0  0  0  0  0  0  0  0  0  0  0  0
   36.9300   31.3990   49.4910 C   0  0  0  0  0  0  0  0  0  0  0  0
   36.6840   30.1620   48.8440 C   0  0  0  0  0  0  0  0  0  0  0  0
   36.7580   28.9950   49.6020 C   0  0  0  0  0  0  0  0  0  0  0  0
   37.0630   29.0840   50.9210 N   0  0  0  0  0  0  0  0  0  0  0  0
   37.2970   30.2810   51.5240 C   0  0  0  0  0  0  0  0  0  0  0  0
   37.2270   31.4380   50.7940 N   0  0  0  0  0  0  0  0  0  0  0  0
   42.1360   26.8870   38.5680 N   0  0  0  0  0  0  0  0  0  0  0  0
   38.0655   33.2983   44.7235 H   0  0  0  0  0  0  0  0  0  0  0  0
   39.7125   33.8493   43.0070 H   0  0  0  0  0  0  0  0  0  0  0  0
   40.6518   32.0238   41.5695 H   0  0  0  0  0  0  0  0  0  0  0  0
   39.0944   27.5840   42.6625 H   0  0  0  0  0  0  0  0  0  0  0  0
   42.5778   31.4146   38.5721 H   0  0  0  0  0  0  0  0  0  0  0  0
   34.3841   29.7001   47.8182 H   0  0  0  0  0  0  0  0  0  0  0  0
   33.7672   29.8942   45.3823 H   0  0  0  0  0  0  0  0  0  0  0  0
   36.8761   32.3352   48.9159 H   0  0  0  0  0  0  0  0  0  0  0  0
   36.5717   28.0154   49.1375 H   0  0  0  0  0  0  0  0  0  0  0  0
   37.5419   30.3196   52.5957 H   0  0  0  0  0  0  0  0  0  0  0  0
   42.7466   26.7594   37.7484 H   0  0  0  0  0  0  0  0  0  0  0  0
   41.7086   26.0684   39.0242 H   0  0  0  0  0  0  0  0  0  0  0  0
  1 21  1  0
  2  1  2  0
  3  2  1  0
  4  5  1  0
  4  3  2  0
  5  6  2  0
  6  1  1  0
  7  8  1  0
  7  5  1  0
  9  8  2  0
 10 15  2  0
 10  9  1  0
 11 10  1  0
 12 13  1  0
 12 11  2  0
 13 14  2  0
 14 15  1  0
 15  7  1  0
 16 25  1  0
 17 16  1  0
 18 17  2  0
 19 21  1  0
 19 18  1  0
 20 19  2  0
 21 22  1  0
 22 23  2  0
 22 16  1  0
 24 29  2  0
 25 24  1  0
 25 26  2  0
 26 27  1  0
 27 28  2  0
 29 28  1  0
 30 11  1  0
  2 31  1  0
  3 32  1  0
  4 33  1  0
  8 34  1  0
 13 35  1  0
 17 36  1  0
 18 37  1  0
 24 38  1  0
 26 39  1  0
 28 40  1  0
 30 41  1  0
 30 42  1  0
M  ISO  8  31  14  32  14  33  14  34  14  35  14  36  14  37  14  38  14
M  ISO  2  39  14  40  14
M  END
>  <minimizedAffinity>  (1) 
-6.25099516

>  <minimizedRMSD>  (1) 
0.827566743

$$$$
