
     RDKit          3D

 46 49  0  0  0  0  0  0  0  0999 V2000
   33.2770   30.6860   44.1170 C   0  0  0  0  0  0  0  0  0  0  0  0
   33.4610   31.6990   43.1460 C   0  0  0  0  0  0  0  0  0  0  0  0
   32.3210   32.1530   42.4740 C   0  0  0  0  0  0  0  0  0  0  0  0
   31.1160   31.5980   42.7940 N   0  0  0  0  0  0  0  0  0  0  0  0
   30.9770   30.6400   43.7200 C   0  0  0  0  0  0  0  0  0  0  0  0
   32.0440   30.2060   44.3570 N   0  0  0  0  0  0  0  0  0  0  0  0
   29.6900   30.1200   43.9960 N   0  0  0  0  0  0  0  0  0  0  0  0
   28.7600   29.9750   43.0440 C   0  0  0  0  0  0  0  0  0  0  0  0
   27.4950   29.4740   43.3110 C   0  0  0  0  0  0  0  0  0  0  0  0
   27.2750   29.1400   44.6160 C   0  0  0  0  0  0  0  0  0  0  0  0
   26.1570   28.6760   44.9590 O   0  0  0  0  0  0  0  0  0  0  0  0
   28.1550   29.2580   45.6070 N   0  0  0  0  0  0  0  0  0  0  0  0
   29.3830   29.7580   45.2860 C   0  0  0  0  0  0  0  0  0  0  0  0
   30.2300   29.8810   46.1920 O   0  0  0  0  0  0  0  0  0  0  0  0
   27.5200   27.7610   49.4700 C   0  0  0  0  0  0  0  0  0  0  0  0
   27.3340   29.1130   49.2620 C   0  0  0  0  0  0  0  0  0  0  0  0
   27.5200   29.6890   48.0340 C   0  0  0  0  0  0  0  0  0  0  0  0
   27.9040   28.9030   46.9650 C   0  0  0  0  0  0  0  0  0  0  0  0
   28.0980   27.5400   47.1450 C   0  0  0  0  0  0  0  0  0  0  0  0
   27.9080   26.9510   48.4020 C   0  0  0  0  0  0  0  0  0  0  0  0
   27.2770   27.0610   51.0390 S   0  0  0  0  0  0  0  0  0  0  0  0
   28.4830   27.0650   51.8870 O   0  0  0  0  0  0  0  0  0  0  0  0
   26.1720   27.8350   51.7270 O   0  0  0  0  0  0  0  0  0  0  0  0
   26.4460   29.3150   42.2960 C   0  0  0  0  0  0  0  0  0  0  0  0
   26.1480   27.9340   41.8920 C   0  0  0  0  0  0  0  0  0  0  0  0
   24.8720   27.3830   42.0680 C   0  0  0  0  0  0  0  0  0  0  0  0
   24.5880   26.0700   41.6870 C   0  0  0  0  0  0  0  0  0  0  0  0
   25.5690   25.2680   41.1200 C   0  0  0  0  0  0  0  0  0  0  0  0
   26.7660   25.8890   40.9900 C   0  0  0  0  0  0  0  0  0  0  0  0
   27.1750   27.1620   41.3200 C   0  0  0  0  0  0  0  0  0  0  0  0
   34.1401   30.2924   44.6738 H   0  0  0  0  0  0  0  0  0  0  0  0
   34.4573   32.1116   42.9290 H   0  0  0  0  0  0  0  0  0  0  0  0
   32.3941   32.9378   41.7067 H   0  0  0  0  0  0  0  0  0  0  0  0
   29.0085   30.2639   42.0121 H   0  0  0  0  0  0  0  0  0  0  0  0
   27.0274   29.7461   50.1077 H   0  0  0  0  0  0  0  0  0  0  0  0
   27.3648   30.7697   47.8996 H   0  0  0  0  0  0  0  0  0  0  0  0
   28.4040   26.9163   46.2921 H   0  0  0  0  0  0  0  0  0  0  0  0
   28.0617   25.8711   48.5442 H   0  0  0  0  0  0  0  0  0  0  0  0
   26.9488   25.7431   50.8590 H   0  0  0  0  0  0  0  0  0  0  0  0
   25.5210   29.7564   42.6953 H   0  0  0  0  0  0  0  0  0  0  0  0
   26.8276   29.8136   41.3928 H   0  0  0  0  0  0  0  0  0  0  0  0
   24.0772   27.9976   42.5157 H   0  0  0  0  0  0  0  0  0  0  0  0
   23.5758   25.6667   41.8378 H   0  0  0  0  0  0  0  0  0  0  0  0
   25.3916   24.2286   40.8065 H   0  0  0  0  0  0  0  0  0  0  0  0
   27.5521   25.2646   40.5403 H   0  0  0  0  0  0  0  0  0  0  0  0
   28.1963   27.5352   41.1539 H   0  0  0  0  0  0  0  0  0  0  0  0
  1  6  2  0
  2  1  1  0
  3  4  1  0
  3  2  2  0
  4  5  2  0
  5  7  1  0
  5  6  1  0
  7 13  1  0
  8  9  2  0
  8  7  1  0
  9 10  1  0
 10 11  2  0
 10 12  1  0
 12 18  1  0
 13 12  1  0
 13 14  2  0
 15 21  1  0
 16 15  2  0
 17 16  1  0
 18 19  1  0
 18 17  2  0
 19 20  2  0
 20 15  1  0
 21 23  2  0
 21 22  2  0
 24  9  1  0
 25 26  2  0
 25 24  1  0
 27 26  1  0
 28 27  2  0
 29 28  1  0
 29 30  2  0
 30 25  1  0
  1 31  1  0
  2 32  1  0
  3 33  1  0
  8 34  1  0
 16 35  1  0
 17 36  1  0
 19 37  1  0
 20 38  1  0
 21 39  1  0
 24 40  1  0
 24 41  1  0
 26 42  1  0
 27 43  1  0
 28 44  1  0
 29 45  1  0
 30 46  1  0
M  ISO  8  31  14  32  14  33  14  34  14  35  14  36  14  37  14  38  14
M  ISO  8  39  11  40   8  41   8  42  14  43  14  44  14  45  14  46  14
M  END
>  <minimizedAffinity>  (1) 
-4.7245903

>  <minimizedRMSD>  (1) 
0.783618689

$$$$
