
     RDKit          3D

 39 42  0  0  0  0  0  0  0  0999 V2000
   36.3110   30.2790   47.5080 N   0  0  0  0  0  0  0  0  0  0  0  0
   35.0220   30.0730   47.1410 C   0  0  0  0  0  0  0  0  0  0  0  0
   34.6360   30.1650   45.8170 C   0  0  0  0  0  0  0  0  0  0  0  0
   35.6470   30.4730   44.9490 C   0  0  0  0  0  0  0  0  0  0  0  0
   35.3360   30.5680   43.7140 O   0  0  0  0  0  0  0  0  0  0  0  0
   36.9410   30.6880   45.2510 N   0  0  0  0  0  0  0  0  0  0  0  0
   37.2230   30.5750   46.5850 C   0  0  0  0  0  0  0  0  0  0  0  0
   38.4010   30.7590   46.9380 O   0  0  0  0  0  0  0  0  0  0  0  0
   37.8790   31.0040   44.2660 C   0  0  0  0  0  0  0  0  0  0  0  0
   38.3970   32.2550   43.9790 C   0  0  0  0  0  0  0  0  0  0  0  0
   39.3150   32.4900   43.0000 C   0  0  0  0  0  0  0  0  0  0  0  0
   39.7680   31.4310   42.2380 C   0  0  0  0  0  0  0  0  0  0  0  0
   39.2370   30.1680   42.5380 C   0  0  0  0  0  0  0  0  0  0  0  0
   38.3300   29.9730   43.5120 N   0  0  0  0  0  0  0  0  0  0  0  0
   39.6730   29.0420   41.7780 N   0  0  0  0  0  0  0  0  0  0  0  0
   40.2150   29.3260   40.5570 C   0  0  0  0  0  0  0  0  0  0  0  0
   40.6950   28.3820   39.6750 C   0  0  0  0  0  0  0  0  0  0  0  0
   40.6130   27.0620   40.0740 C   0  0  0  0  0  0  0  0  0  0  0  0
   41.0300   26.1410   39.3230 O   0  0  0  0  0  0  0  0  0  0  0  0
   40.0790   26.8030   41.2770 N   0  0  0  0  0  0  0  0  0  0  0  0
   39.6240   27.7460   42.1060 C   0  0  0  0  0  0  0  0  0  0  0  0
   39.1160   27.5140   43.2450 O   0  0  0  0  0  0  0  0  0  0  0  0
   36.8680   31.3970   49.5000 C   0  0  0  0  0  0  0  0  0  0  0  0
   36.6360   30.1710   48.8670 C   0  0  0  0  0  0  0  0  0  0  0  0
   36.7540   29.0080   49.6180 C   0  0  0  0  0  0  0  0  0  0  0  0
   37.0890   29.0950   50.9290 N   0  0  0  0  0  0  0  0  0  0  0  0
   37.3130   30.3030   51.5270 C   0  0  0  0  0  0  0  0  0  0  0  0
   37.1970   31.4530   50.7920 N   0  0  0  0  0  0  0  0  0  0  0  0
   34.2725   29.8291   47.9083 H   0  0  0  0  0  0  0  0  0  0  0  0
   33.5989   30.0035   45.4879 H   0  0  0  0  0  0  0  0  0  0  0  0
   38.0470   33.1097   44.5764 H   0  0  0  0  0  0  0  0  0  0  0  0
   39.6898   33.5082   42.8192 H   0  0  0  0  0  0  0  0  0  0  0  0
   40.5080   31.5710   41.4362 H   0  0  0  0  0  0  0  0  0  0  0  0
   40.2725   30.3826   40.2564 H   0  0  0  0  0  0  0  0  0  0  0  0
   41.1221   28.6655   38.7018 H   0  0  0  0  0  0  0  0  0  0  0  0
   40.0163   25.8202   41.5787 H   0  0  0  0  0  0  0  0  0  0  0  0
   36.7778   32.3295   48.9235 H   0  0  0  0  0  0  0  0  0  0  0  0
   36.5774   28.0266   49.1537 H   0  0  0  0  0  0  0  0  0  0  0  0
   37.5847   30.3516   52.5918 H   0  0  0  0  0  0  0  0  0  0  0  0
  1 24  1  0
  2  1  1  0
  3  2  2  0
  4  6  1  0
  4  3  1  0
  5  4  2  0
  6  7  1  0
  7  8  2  0
  7  1  1  0
  9  6  1  0
 10  9  2  0
 11 10  1  0
 12 13  1  0
 12 11  2  0
 13 14  2  0
 14  9  1  0
 15 21  1  0
 15 13  1  0
 16 15  1  0
 17 18  1  0
 17 16  2  0
 18 20  1  0
 19 18  2  0
 20 21  1  0
 21 22  2  0
 23 28  2  0
 24 23  1  0
 24 25  2  0
 25 26  1  0
 26 27  2  0
 28 27  1  0
  2 29  1  0
  3 30  1  0
 10 31  1  0
 11 32  1  0
 12 33  1  0
 16 34  1  0
 17 35  1  0
 20 36  1  0
 23 37  1  0
 25 38  1  0
 27 39  1  0
M  ISO  8  29  14  30  14  31  14  32  14  33  14  34  14  35  14  36   9
M  ISO  3  37  14  38  14  39  14
M  END
>  <minimizedAffinity>  (1) 
-6.00423765

>  <minimizedRMSD>  (1) 
0.938655674

$$$$
