
     RDKit          3D

 43 47  0  0  0  0  0  0  0  0999 V2000
   37.9740   31.3540   44.3340 C   0  0  0  0  0  0  0  0  0  0  0  0
   38.3610   32.6360   44.1040 C   0  0  0  0  0  0  0  0  0  0  0  0
   39.2820   32.9510   43.1300 C   0  0  0  0  0  0  0  0  0  0  0  0
   39.8390   31.9550   42.3570 C   0  0  0  0  0  0  0  0  0  0  0  0
   39.4390   30.6300   42.5960 C   0  0  0  0  0  0  0  0  0  0  0  0
   38.5450   30.4380   43.5580 N   0  0  0  0  0  0  0  0  0  0  0  0
   40.0960   29.6750   41.7190 C   0  0  0  0  0  0  0  0  0  0  0  0
   41.2000   29.9830   41.0180 N   0  0  0  0  0  0  0  0  0  0  0  0
   41.8530   29.1550   40.1960 C   0  0  0  0  0  0  0  0  0  0  0  0
   41.4370   27.9010   40.0000 N   0  0  0  0  0  0  0  0  0  0  0  0
   40.3260   27.4880   40.6630 C   0  0  0  0  0  0  0  0  0  0  0  0
   39.8960   26.1990   40.4640 C   0  0  0  0  0  0  0  0  0  0  0  0
   38.7740   25.7300   41.1120 C   0  0  0  0  0  0  0  0  0  0  0  0
   38.1160   26.6210   41.9630 C   0  0  0  0  0  0  0  0  0  0  0  0
   38.6000   27.8960   42.1170 C   0  0  0  0  0  0  0  0  0  0  0  0
   39.7100   28.3800   41.4840 C   0  0  0  0  0  0  0  0  0  0  0  0
   36.4120   30.2930   47.4960 N   0  0  0  0  0  0  0  0  0  0  0  0
   35.1600   29.9780   47.0790 C   0  0  0  0  0  0  0  0  0  0  0  0
   34.7940   30.0980   45.7600 C   0  0  0  0  0  0  0  0  0  0  0  0
   35.7820   30.5510   44.9310 C   0  0  0  0  0  0  0  0  0  0  0  0
   35.4870   30.6760   43.7050 O   0  0  0  0  0  0  0  0  0  0  0  0
   37.0600   30.8880   45.2770 N   0  0  0  0  0  0  0  0  0  0  0  0
   37.3060   30.7280   46.6050 C   0  0  0  0  0  0  0  0  0  0  0  0
   38.4500   31.0090   47.0050 O   0  0  0  0  0  0  0  0  0  0  0  0
   36.9440   31.3840   49.5080 C   0  0  0  0  0  0  0  0  0  0  0  0
   36.6920   30.1520   48.8500 C   0  0  0  0  0  0  0  0  0  0  0  0
   36.7600   28.9930   49.6050 C   0  0  0  0  0  0  0  0  0  0  0  0
   37.0620   29.0740   50.9270 N   0  0  0  0  0  0  0  0  0  0  0  0
   37.3000   30.2710   51.5350 C   0  0  0  0  0  0  0  0  0  0  0  0
   37.2370   31.4300   50.8070 N   0  0  0  0  0  0  0  0  0  0  0  0
   37.9271   33.4436   44.7119 H   0  0  0  0  0  0  0  0  0  0  0  0
   39.5737   33.9993   42.9686 H   0  0  0  0  0  0  0  0  0  0  0  0
   40.5758   32.1911   41.5751 H   0  0  0  0  0  0  0  0  0  0  0  0
   42.7505   29.5136   39.6708 H   0  0  0  0  0  0  0  0  0  0  0  0
   40.4507   25.5368   39.7830 H   0  0  0  0  0  0  0  0  0  0  0  0
   38.4131   24.7012   40.9658 H   0  0  0  0  0  0  0  0  0  0  0  0
   37.2145   26.3024   42.5069 H   0  0  0  0  0  0  0  0  0  0  0  0
   38.0588   28.5727   42.7946 H   0  0  0  0  0  0  0  0  0  0  0  0
   34.4226   29.6191   47.8120 H   0  0  0  0  0  0  0  0  0  0  0  0
   33.7850   29.8490   45.3995 H   0  0  0  0  0  0  0  0  0  0  0  0
   36.8964   32.3208   48.9334 H   0  0  0  0  0  0  0  0  0  0  0  0
   36.5711   28.0151   49.1381 H   0  0  0  0  0  0  0  0  0  0  0  0
   37.5420   30.3061   52.6075 H   0  0  0  0  0  0  0  0  0  0  0  0
  1 22  1  0
  2  1  2  0
  3  2  1  0
  4  5  1  0
  4  3  2  0
  5  6  2  0
  6  1  1  0
  7  5  1  0
  8  7  2  0
  9  8  1  0
 10  9  2  0
 10 11  1  0
 11 16  2  0
 12 11  1  0
 12 13  2  0
 13 14  1  0
 14 15  2  0
 16  7  1  0
 16 15  1  0
 17 26  1  0
 18 17  1  0
 19 18  2  0
 20 22  1  0
 20 19  1  0
 21 20  2  0
 22 23  1  0
 23 24  2  0
 23 17  1  0
 25 30  2  0
 26 25  1  0
 26 27  2  0
 27 28  1  0
 28 29  2  0
 30 29  1  0
  2 31  1  0
  3 32  1  0
  4 33  1  0
  9 34  1  0
 12 35  1  0
 13 36  1  0
 14 37  1  0
 15 38  1  0
 18 39  1  0
 19 40  1  0
 25 41  1  0
 27 42  1  0
 29 43  1  0
M  ISO  8  31  14  32  14  33  14  34  14  35  14  36  14  37  14  38  14
M  ISO  5  39  14  40  14  41  14  42  14  43  14
M  END
>  <minimizedAffinity>  (1) 
-5.90598679

>  <minimizedRMSD>  (1) 
0.71767652

$$$$
