
     RDKit          3D

 31 33  0  0  0  0  0  0  0  0999 V2000
   36.3550   30.1680   47.7850 N   0  0  0  0  0  0  0  0  0  0  0  0
   35.1180   29.8690   47.3110 C   0  0  0  0  0  0  0  0  0  0  0  0
   34.8210   29.9650   45.9720 C   0  0  0  0  0  0  0  0  0  0  0  0
   35.8630   30.3800   45.1860 C   0  0  0  0  0  0  0  0  0  0  0  0
   35.6340   30.4850   43.9360 O   0  0  0  0  0  0  0  0  0  0  0  0
   37.1170   30.6940   45.5930 N   0  0  0  0  0  0  0  0  0  0  0  0
   37.3010   30.5640   46.9310 C   0  0  0  0  0  0  0  0  0  0  0  0
   38.4300   30.8320   47.3820 O   0  0  0  0  0  0  0  0  0  0  0  0
   38.0930   31.1120   44.6860 C   0  0  0  0  0  0  0  0  0  0  0  0
   38.3160   32.3900   44.2200 C   0  0  0  0  0  0  0  0  0  0  0  0
   39.2980   32.7110   43.3300 C   0  0  0  0  0  0  0  0  0  0  0  0
   40.1250   31.7180   42.8570 C   0  0  0  0  0  0  0  0  0  0  0  0
   39.8930   30.4400   43.3300 C   0  0  0  0  0  0  0  0  0  0  0  0
   38.9110   30.1400   44.2160 N   0  0  0  0  0  0  0  0  0  0  0  0
   40.7280   29.3580   42.8700 N   0  0  0  0  0  0  0  0  0  0  0  0
   37.7000   30.7680   49.6180 C   0  0  0  0  0  0  0  0  0  0  0  0
   36.5690   30.0500   49.1550 C   0  0  0  0  0  0  0  0  0  0  0  0
   35.8280   29.3230   50.0760 C   0  0  0  0  0  0  0  0  0  0  0  0
   36.2140   29.3280   51.3780 N   0  0  0  0  0  0  0  0  0  0  0  0
   37.3050   30.0230   51.8050 C   0  0  0  0  0  0  0  0  0  0  0  0
   38.0450   30.7460   50.9080 N   0  0  0  0  0  0  0  0  0  0  0  0
   34.3368   29.5430   48.0135 H   0  0  0  0  0  0  0  0  0  0  0  0
   33.8270   29.7277   45.5650 H   0  0  0  0  0  0  0  0  0  0  0  0
   37.6647   33.1969   44.5870 H   0  0  0  0  0  0  0  0  0  0  0  0
   39.4275   33.7505   42.9944 H   0  0  0  0  0  0  0  0  0  0  0  0
   40.9303   31.9306   42.1385 H   0  0  0  0  0  0  0  0  0  0  0  0
   40.5665   28.4007   43.2141 H   0  0  0  0  0  0  0  0  0  0  0  0
   41.4859   29.5425   42.1974 H   0  0  0  0  0  0  0  0  0  0  0  0
   38.3016   31.3511   48.9053 H   0  0  0  0  0  0  0  0  0  0  0  0
   34.9433   28.7525   49.7569 H   0  0  0  0  0  0  0  0  0  0  0  0
   37.5906   30.0035   52.8671 H   0  0  0  0  0  0  0  0  0  0  0  0
  1 17  1  0
  2  1  1  0
  3  2  2  0
  4  6  1  0
  4  3  1  0
  5  4  2  0
  6  7  1  0
  7  8  2  0
  7  1  1  0
  9  6  1  0
 10  9  2  0
 11 10  1  0
 12 11  2  0
 12 13  1  0
 13 14  2  0
 14  9  1  0
 15 13  1  0
 16 21  2  0
 17 16  1  0
 17 18  2  0
 18 19  1  0
 19 20  2  0
 21 20  1  0
  2 22  1  0
  3 23  1  0
 10 24  1  0
 11 25  1  0
 12 26  1  0
 15 27  1  0
 15 28  1  0
 16 29  1  0
 18 30  1  0
 20 31  1  0
M  ISO  8  22  14  23  14  24  14  25  14  26  14  29  14  30  14  31  14
M  END
>  <minimizedAffinity>  (1) 
-5.73607445

>  <minimizedRMSD>  (1) 
0.220649496

$$$$
