
     RDKit          3D

 43 46  0  0  0  0  0  0  0  0999 V2000
   32.1030   31.3130   43.2760 C   0  0  0  0  0  0  0  0  0  0  0  0
   32.0160   32.2740   42.2360 C   0  0  0  0  0  0  0  0  0  0  0  0
   30.7560   32.4910   41.6490 C   0  0  0  0  0  0  0  0  0  0  0  0
   29.6770   31.7740   42.1010 N   0  0  0  0  0  0  0  0  0  0  0  0
   29.8090   30.8670   43.0990 C   0  0  0  0  0  0  0  0  0  0  0  0
   30.9990   30.6480   43.6680 N   0  0  0  0  0  0  0  0  0  0  0  0
   28.6600   30.1540   43.5300 N   0  0  0  0  0  0  0  0  0  0  0  0
   27.7130   29.7610   42.6750 C   0  0  0  0  0  0  0  0  0  0  0  0
   26.5940   29.0690   43.0860 C   0  0  0  0  0  0  0  0  0  0  0  0
   26.5170   28.8130   44.4250 C   0  0  0  0  0  0  0  0  0  0  0  0
   25.5300   28.1850   44.9020 O   0  0  0  0  0  0  0  0  0  0  0  0
   27.4210   29.1750   45.3260 N   0  0  0  0  0  0  0  0  0  0  0  0
   28.5100   29.8600   44.8490 C   0  0  0  0  0  0  0  0  0  0  0  0
   29.3890   30.2210   45.6760 O   0  0  0  0  0  0  0  0  0  0  0  0
   27.4140   28.0570   49.3640 C   0  0  0  0  0  0  0  0  0  0  0  0
   26.8850   29.2490   49.0530 C   0  0  0  0  0  0  0  0  0  0  0  0
   26.8410   29.6780   47.7520 C   0  0  0  0  0  0  0  0  0  0  0  0
   27.3340   28.9010   46.7170 C   0  0  0  0  0  0  0  0  0  0  0  0
   27.8760   27.6630   47.0210 C   0  0  0  0  0  0  0  0  0  0  0  0
   27.9120   27.2450   48.3600 C   0  0  0  0  0  0  0  0  0  0  0  0
   27.5460   27.8550   51.0350 S   0  0  0  0  0  0  0  0  0  0  0  0
   28.5270   26.9570   51.4720 O   0  0  0  0  0  0  0  0  0  0  0  0
   26.1670   27.7690   51.5940 O   0  0  0  0  0  0  0  0  0  0  0  0
   25.5090   28.6100   42.1880 C   0  0  0  0  0  0  0  0  0  0  0  0
   25.6560   27.2210   41.8180 N   0  0  0  0  0  0  0  0  0  0  0  0
   26.6280   26.4930   41.2510 C   0  0  0  0  0  0  0  0  0  0  0  0
   26.2380   25.1640   41.1170 C   0  0  0  0  0  0  0  0  0  0  0  0
   25.0080   25.0770   41.6080 N   0  0  0  0  0  0  0  0  0  0  0  0
   24.6570   26.3130   42.0310 C   0  0  0  0  0  0  0  0  0  0  0  0
   33.0695   31.1114   43.7610 H   0  0  0  0  0  0  0  0  0  0  0  0
   32.9034   32.8305   41.9001 H   0  0  0  0  0  0  0  0  0  0  0  0
   30.6375   33.2255   40.8387 H   0  0  0  0  0  0  0  0  0  0  0  0
   27.8296   29.9973   41.6070 H   0  0  0  0  0  0  0  0  0  0  0  0
   26.4818   29.8899   49.8509 H   0  0  0  0  0  0  0  0  0  0  0  0
   26.4042   30.6617   47.5248 H   0  0  0  0  0  0  0  0  0  0  0  0
   28.2725   27.0168   46.2240 H   0  0  0  0  0  0  0  0  0  0  0  0
   28.3396   26.2638   48.6138 H   0  0  0  0  0  0  0  0  0  0  0  0
   28.1215   28.9571   51.6103 H   0  0  0  0  0  0  0  0  0  0  0  0
   24.5453   28.7393   42.7024 H   0  0  0  0  0  0  0  0  0  0  0  0
   25.5562   29.2108   41.2678 H   0  0  0  0  0  0  0  0  0  0  0  0
   27.6028   26.8923   40.9342 H   0  0  0  0  0  0  0  0  0  0  0  0
   26.8334   24.3448   40.6876 H   0  0  0  0  0  0  0  0  0  0  0  0
   23.6874   26.5571   42.4897 H   0  0  0  0  0  0  0  0  0  0  0  0
  1  6  2  0
  2  1  1  0
  3  4  1  0
  3  2  2  0
  4  5  2  0
  5  7  1  0
  5  6  1  0
  7 13  1  0
  8  9  2  0
  8  7  1  0
  9 10  1  0
 10 11  2  0
 10 12  1  0
 12 18  1  0
 13 12  1  0
 13 14  2  0
 15 21  1  0
 16 15  2  0
 17 16  1  0
 18 19  1  0
 18 17  2  0
 19 20  2  0
 20 15  1  0
 21 22  2  0
 21 23  2  0
 24  9  1  0
 25 29  1  0
 25 24  1  0
 26 25  1  0
 27 26  2  0
 27 28  1  0
 28 29  2  0
  1 30  1  0
  2 31  1  0
  3 32  1  0
  8 33  1  0
 16 34  1  0
 17 35  1  0
 19 36  1  0
 20 37  1  0
 21 38  1  0
 24 39  1  0
 24 40  1  0
 26 41  1  0
 27 42  1  0
 29 43  1  0
M  ISO  8  30  14  31  14  32  14  33  14  34  14  35  14  36  14  37  14
M  ISO  6  38  11  39   8  40   8  41  14  42  14  43  14
M  END
>  <minimizedAffinity>  (1) 
-4.66471148

>  <minimizedRMSD>  (1) 
1.66063285

$$$$
