
     RDKit          3D

 36 39  0  0  0  0  0  0  0  0999 V2000
   36.3570   30.3020   47.5010 N   0  0  0  0  0  0  0  0  0  0  0  0
   35.1020   29.9840   47.0960 C   0  0  0  0  0  0  0  0  0  0  0  0
   34.7410   30.0770   45.7640 C   0  0  0  0  0  0  0  0  0  0  0  0
   35.7390   30.5060   44.9330 C   0  0  0  0  0  0  0  0  0  0  0  0
   35.4530   30.6080   43.6930 O   0  0  0  0  0  0  0  0  0  0  0  0
   37.0010   30.8360   45.2750 N   0  0  0  0  0  0  0  0  0  0  0  0
   37.2600   30.7100   46.6110 C   0  0  0  0  0  0  0  0  0  0  0  0
   38.4070   30.9960   47.0010 O   0  0  0  0  0  0  0  0  0  0  0  0
   37.9290   31.2650   44.3240 C   0  0  0  0  0  0  0  0  0  0  0  0
   38.2960   32.5720   44.0510 C   0  0  0  0  0  0  0  0  0  0  0  0
   39.2130   32.9170   43.1040 C   0  0  0  0  0  0  0  0  0  0  0  0
   39.8210   31.9150   42.3640 C   0  0  0  0  0  0  0  0  0  0  0  0
   39.4410   30.5960   42.6510 C   0  0  0  0  0  0  0  0  0  0  0  0
   38.5310   30.2980   43.5940 N   0  0  0  0  0  0  0  0  0  0  0  0
   40.0330   29.5040   41.9210 N   0  0  0  0  0  0  0  0  0  0  0  0
   41.2590   29.7380   41.4190 C   0  0  0  0  0  0  0  0  0  0  0  0
   41.6220   28.5640   40.7660 C   0  0  0  0  0  0  0  0  0  0  0  0
   40.6250   27.6690   40.8890 N   0  0  0  0  0  0  0  0  0  0  0  0
   39.6390   28.2430   41.6010 C   0  0  0  0  0  0  0  0  0  0  0  0
   36.8580   31.4010   49.5170 C   0  0  0  0  0  0  0  0  0  0  0  0
   36.6600   30.1830   48.8590 C   0  0  0  0  0  0  0  0  0  0  0  0
   36.7890   29.0140   49.6010 C   0  0  0  0  0  0  0  0  0  0  0  0
   37.0980   29.0720   50.9140 N   0  0  0  0  0  0  0  0  0  0  0  0
   37.2880   30.2740   51.5330 C   0  0  0  0  0  0  0  0  0  0  0  0
   37.1640   31.4390   50.8180 N   0  0  0  0  0  0  0  0  0  0  0  0
   34.3616   29.6477   47.8367 H   0  0  0  0  0  0  0  0  0  0  0  0
   33.7329   29.8262   45.4023 H   0  0  0  0  0  0  0  0  0  0  0  0
   37.8207   33.3767   44.6311 H   0  0  0  0  0  0  0  0  0  0  0  0
   39.4665   33.9731   42.9297 H   0  0  0  0  0  0  0  0  0  0  0  0
   40.5665   32.1437   41.5881 H   0  0  0  0  0  0  0  0  0  0  0  0
   41.8496   30.6619   41.5063 H   0  0  0  0  0  0  0  0  0  0  0  0
   42.5705   28.3951   40.2352 H   0  0  0  0  0  0  0  0  0  0  0  0
   38.6824   27.7747   41.8759 H   0  0  0  0  0  0  0  0  0  0  0  0
   36.7605   32.3420   48.9557 H   0  0  0  0  0  0  0  0  0  0  0  0
   36.6387   28.0381   49.1162 H   0  0  0  0  0  0  0  0  0  0  0  0
   37.5401   30.3087   52.6032 H   0  0  0  0  0  0  0  0  0  0  0  0
  1 21  1  0
  2  1  1  0
  3  2  2  0
  4  6  1  0
  4  3  1  0
  5  4  2  0
  6  7  1  0
  7  8  2  0
  7  1  1  0
  9  6  1  0
 10  9  2  0
 11 10  1  0
 12 13  1  0
 12 11  2  0
 13 14  2  0
 14  9  1  0
 15 13  1  0
 16 15  1  0
 17 18  1  0
 17 16  2  0
 18 19  2  0
 19 15  1  0
 20 25  2  0
 21 20  1  0
 21 22  2  0
 22 23  1  0
 23 24  2  0
 25 24  1  0
  2 26  1  0
  3 27  1  0
 10 28  1  0
 11 29  1  0
 12 30  1  0
 16 31  1  0
 17 32  1  0
 19 33  1  0
 20 34  1  0
 22 35  1  0
 24 36  1  0
M  ISO  8  26  14  27  14  28  14  29  14  30  14  31  14  32  14  33  14
M  ISO  3  34  14  35  14  36  14
M  END
>  <minimizedAffinity>  (1) 
-5.68084145

>  <minimizedRMSD>  (1) 
0.61064291

$$$$
