
     RDKit          3D

 36 39  0  0  0  0  0  0  0  0999 V2000
   36.3720   30.2880   47.5020 N   0  0  0  0  0  0  0  0  0  0  0  0
   35.1130   29.9760   47.1020 C   0  0  0  0  0  0  0  0  0  0  0  0
   34.7380   30.0800   45.7790 C   0  0  0  0  0  0  0  0  0  0  0  0
   35.7240   30.5110   44.9410 C   0  0  0  0  0  0  0  0  0  0  0  0
   35.4240   30.6230   43.7120 O   0  0  0  0  0  0  0  0  0  0  0  0
   37.0000   30.8390   45.2800 N   0  0  0  0  0  0  0  0  0  0  0  0
   37.2580   30.7000   46.6020 C   0  0  0  0  0  0  0  0  0  0  0  0
   38.4100   30.9800   46.9880 O   0  0  0  0  0  0  0  0  0  0  0  0
   37.9160   31.2750   44.3200 C   0  0  0  0  0  0  0  0  0  0  0  0
   38.2780   32.5800   44.0480 C   0  0  0  0  0  0  0  0  0  0  0  0
   39.1840   32.9310   43.0910 C   0  0  0  0  0  0  0  0  0  0  0  0
   39.7810   31.9400   42.3450 C   0  0  0  0  0  0  0  0  0  0  0  0
   39.4120   30.6320   42.6250 C   0  0  0  0  0  0  0  0  0  0  0  0
   38.5070   30.3060   43.5840 N   0  0  0  0  0  0  0  0  0  0  0  0
   40.0060   29.5740   41.8780 N   0  0  0  0  0  0  0  0  0  0  0  0
   39.5440   28.4430   41.3610 N   0  0  0  0  0  0  0  0  0  0  0  0
   40.5570   27.7900   40.7330 C   0  0  0  0  0  0  0  0  0  0  0  0
   41.6910   28.5630   40.8740 C   0  0  0  0  0  0  0  0  0  0  0  0
   41.3340   29.6900   41.6000 C   0  0  0  0  0  0  0  0  0  0  0  0
   36.8870   31.4040   49.5090 C   0  0  0  0  0  0  0  0  0  0  0  0
   36.6690   30.1600   48.8650 C   0  0  0  0  0  0  0  0  0  0  0  0
   36.7760   28.9970   49.6070 C   0  0  0  0  0  0  0  0  0  0  0  0
   37.0850   29.0740   50.9250 N   0  0  0  0  0  0  0  0  0  0  0  0
   37.2930   30.2800   51.5310 C   0  0  0  0  0  0  0  0  0  0  0  0
   37.1920   31.4410   50.8130 N   0  0  0  0  0  0  0  0  0  0  0  0
   34.3788   29.6341   47.8464 H   0  0  0  0  0  0  0  0  0  0  0  0
   33.7248   29.8350   45.4277 H   0  0  0  0  0  0  0  0  0  0  0  0
   37.8087   33.3819   44.6369 H   0  0  0  0  0  0  0  0  0  0  0  0
   39.4335   33.9883   42.9181 H   0  0  0  0  0  0  0  0  0  0  0  0
   40.5174   32.1745   41.5622 H   0  0  0  0  0  0  0  0  0  0  0  0
   40.4860   26.8250   40.2098 H   0  0  0  0  0  0  0  0  0  0  0  0
   42.6923   28.3291   40.4833 H   0  0  0  0  0  0  0  0  0  0  0  0
   41.9960   30.5177   41.8943 H   0  0  0  0  0  0  0  0  0  0  0  0
   36.8056   32.3402   48.9372 H   0  0  0  0  0  0  0  0  0  0  0  0
   36.6118   28.0186   49.1318 H   0  0  0  0  0  0  0  0  0  0  0  0
   37.5430   30.3186   52.6015 H   0  0  0  0  0  0  0  0  0  0  0  0
  1 21  1  0
  2  1  1  0
  3  2  2  0
  4  6  1  0
  4  3  1  0
  5  4  2  0
  6  7  1  0
  7  8  2  0
  7  1  1  0
  9  6  1  0
 10  9  2  0
 11 10  1  0
 12 13  1  0
 12 11  2  0
 13 14  2  0
 14  9  1  0
 15 13  1  0
 16 15  1  0
 17 18  1  0
 17 16  2  0
 18 19  2  0
 19 15  1  0
 20 25  2  0
 21 20  1  0
 21 22  2  0
 22 23  1  0
 23 24  2  0
 25 24  1  0
  2 26  1  0
  3 27  1  0
 10 28  1  0
 11 29  1  0
 12 30  1  0
 17 31  1  0
 18 32  1  0
 19 33  1  0
 20 34  1  0
 22 35  1  0
 24 36  1  0
M  ISO  8  26  14  27  14  28  14  29  14  30  14  31  14  32  14  33  14
M  ISO  3  34  14  35  14  36  14
M  END
>  <minimizedAffinity>  (1) 
-5.65581608

>  <minimizedRMSD>  (1) 
0.611293912

$$$$
