
     RDKit          3D

 45 48  0  0  0  0  0  0  0  0999 V2000
   36.3270   30.3060   47.5530 N   0  0  0  0  0  0  0  0  0  0  0  0
   35.0680   30.0010   47.1510 C   0  0  0  0  0  0  0  0  0  0  0  0
   34.6960   30.1090   45.8280 C   0  0  0  0  0  0  0  0  0  0  0  0
   35.6880   30.5410   44.9900 C   0  0  0  0  0  0  0  0  0  0  0  0
   35.3860   30.6570   43.7550 O   0  0  0  0  0  0  0  0  0  0  0  0
   36.9520   30.8610   45.3210 N   0  0  0  0  0  0  0  0  0  0  0  0
   37.2180   30.7190   46.6500 C   0  0  0  0  0  0  0  0  0  0  0  0
   38.3700   30.9930   47.0340 O   0  0  0  0  0  0  0  0  0  0  0  0
   36.8470   31.3880   49.5760 C   0  0  0  0  0  0  0  0  0  0  0  0
   36.6380   30.1680   48.9120 C   0  0  0  0  0  0  0  0  0  0  0  0
   36.7680   28.9770   49.6260 C   0  0  0  0  0  0  0  0  0  0  0  0
   37.0940   29.0440   50.9420 N   0  0  0  0  0  0  0  0  0  0  0  0
   37.2950   30.2410   51.5670 C   0  0  0  0  0  0  0  0  0  0  0  0
   37.1690   31.4120   50.8730 N   0  0  0  0  0  0  0  0  0  0  0  0
   37.8700   31.2990   44.3690 C   0  0  0  0  0  0  0  0  0  0  0  0
   38.3240   32.5950   44.1840 C   0  0  0  0  0  0  0  0  0  0  0  0
   39.2280   32.9520   43.2300 C   0  0  0  0  0  0  0  0  0  0  0  0
   39.7320   31.9850   42.3920 C   0  0  0  0  0  0  0  0  0  0  0  0
   39.2700   30.6750   42.5850 C   0  0  0  0  0  0  0  0  0  0  0  0
   38.3730   30.3540   43.5390 N   0  0  0  0  0  0  0  0  0  0  0  0
   39.7750   29.5560   41.7080 C   0  0  0  0  0  0  0  0  0  0  0  0
   39.1640   28.2340   42.0420 C   0  0  0  0  0  0  0  0  0  0  0  0
   40.0530   27.1700   41.4000 C   0  0  0  0  0  0  0  0  0  0  0  0
   40.8030   27.7110   40.2020 C   0  0  0  0  0  0  0  0  0  0  0  0
   41.8540   28.7090   40.6490 C   0  0  0  0  0  0  0  0  0  0  0  0
   41.2860   29.3960   41.8690 C   0  0  0  0  0  0  0  0  0  0  0  0
   34.3309   29.6615   47.8936 H   0  0  0  0  0  0  0  0  0  0  0  0
   33.6829   29.8673   45.4742 H   0  0  0  0  0  0  0  0  0  0  0  0
   36.7446   32.3333   49.0229 H   0  0  0  0  0  0  0  0  0  0  0  0
   36.6100   28.0059   49.1341 H   0  0  0  0  0  0  0  0  0  0  0  0
   37.5597   30.2633   52.6344 H   0  0  0  0  0  0  0  0  0  0  0  0
   37.9316   33.3810   44.8460 H   0  0  0  0  0  0  0  0  0  0  0  0
   39.5505   33.9990   43.1311 H   0  0  0  0  0  0  0  0  0  0  0  0
   40.4633   32.2277   41.6070 H   0  0  0  0  0  0  0  0  0  0  0  0
   39.4982   29.8357   40.6808 H   0  0  0  0  0  0  0  0  0  0  0  0
   39.1322   28.0949   43.1327 H   0  0  0  0  0  0  0  0  0  0  0  0
   38.1315   28.1675   41.6686 H   0  0  0  0  0  0  0  0  0  0  0  0
   40.7806   26.8170   42.1456 H   0  0  0  0  0  0  0  0  0  0  0  0
   39.4079   26.3480   41.0563 H   0  0  0  0  0  0  0  0  0  0  0  0
   40.0941   28.2089   39.5241 H   0  0  0  0  0  0  0  0  0  0  0  0
   41.2977   26.8775   39.6819 H   0  0  0  0  0  0  0  0  0  0  0  0
   42.7897   28.1899   40.9039 H   0  0  0  0  0  0  0  0  0  0  0  0
   42.0874   29.4312   39.8528 H   0  0  0  0  0  0  0  0  0  0  0  0
   41.7496   30.3873   41.9804 H   0  0  0  0  0  0  0  0  0  0  0  0
   41.4968   28.7894   42.7621 H   0  0  0  0  0  0  0  0  0  0  0  0
  1 10  1  0
  2  1  1  0
  3  2  2  0
  4  6  1  0
  4  3  1  0
  5  4  2  0
  6  7  1  0
  7  8  2  0
  7  1  1  0
  9 14  2  0
 10  9  1  0
 10 11  2  0
 11 12  1  0
 12 13  2  0
 14 13  1  0
 15  6  1  0
 16 15  2  0
 17 16  1  0
 18 19  1  0
 18 17  2  0
 19 20  2  0
 20 15  1  0
 21 26  1  0
 21 22  1  0
 21 19  1  0
 23 22  1  0
 24 25  1  0
 24 23  1  0
 25 26  1  0
  2 27  1  0
  3 28  1  0
  9 29  1  0
 11 30  1  0
 13 31  1  0
 16 32  1  0
 17 33  1  0
 18 34  1  0
 21 35  1  0
 22 36  1  0
 22 37  1  0
 23 38  1  0
 23 39  1  0
 24 40  1  0
 24 41  1  0
 25 42  1  0
 25 43  1  0
 26 44  1  0
 26 45  1  0
M  ISO  8  27  14  28  14  29  14  30  14  31  14  32  14  33  14  34  14
M  ISO  8  35  13  36  13  37  13  38  13  39  13  40  13  41  13  42  13
M  ISO  3  43  13  44  13  45  13
M  END
>  <minimizedAffinity>  (1) 
-5.63814354

>  <minimizedRMSD>  (1) 
0.851868629

$$$$
