
     RDKit          3D

 37 40  0  0  0  0  0  0  0  0999 V2000
   36.3800   30.3060   47.4970 N   0  0  0  0  0  0  0  0  0  0  0  0
   35.1250   29.9910   47.0870 C   0  0  0  0  0  0  0  0  0  0  0  0
   34.7650   30.0950   45.7560 C   0  0  0  0  0  0  0  0  0  0  0  0
   35.7610   30.5290   44.9320 C   0  0  0  0  0  0  0  0  0  0  0  0
   35.4720   30.6390   43.6970 O   0  0  0  0  0  0  0  0  0  0  0  0
   37.0260   30.8570   45.2820 N   0  0  0  0  0  0  0  0  0  0  0  0
   37.2780   30.7210   46.6070 C   0  0  0  0  0  0  0  0  0  0  0  0
   38.4240   31.0030   47.0020 O   0  0  0  0  0  0  0  0  0  0  0  0
   36.9220   31.3960   49.5060 C   0  0  0  0  0  0  0  0  0  0  0  0
   36.6750   30.1750   48.8610 C   0  0  0  0  0  0  0  0  0  0  0  0
   36.7540   28.9960   49.6010 C   0  0  0  0  0  0  0  0  0  0  0  0
   37.0680   29.0700   50.9180 N   0  0  0  0  0  0  0  0  0  0  0  0
   37.3050   30.2620   51.5270 C   0  0  0  0  0  0  0  0  0  0  0  0
   37.2300   31.4250   50.8090 N   0  0  0  0  0  0  0  0  0  0  0  0
   37.9530   31.2970   44.3290 C   0  0  0  0  0  0  0  0  0  0  0  0
   38.3720   32.5980   44.1170 C   0  0  0  0  0  0  0  0  0  0  0  0
   39.2840   32.9480   43.1640 C   0  0  0  0  0  0  0  0  0  0  0  0
   39.8210   31.9640   42.3650 C   0  0  0  0  0  0  0  0  0  0  0  0
   39.4010   30.6520   42.5760 C   0  0  0  0  0  0  0  0  0  0  0  0
   38.4940   30.3440   43.5330 N   0  0  0  0  0  0  0  0  0  0  0  0
   39.9090   29.5370   41.7840 C   0  0  0  0  0  0  0  0  0  0  0  0
   41.0530   29.5830   41.0200 C   0  0  0  0  0  0  0  0  0  0  0  0
   41.5380   28.5320   40.2710 C   0  0  0  0  0  0  0  0  0  0  0  0
   40.8700   27.3740   40.2650 N   0  0  0  0  0  0  0  0  0  0  0  0
   39.7480   27.3040   41.0040 C   0  0  0  0  0  0  0  0  0  0  0  0
   39.2880   28.3380   41.7300 N   0  0  0  0  0  0  0  0  0  0  0  0
   34.3838   29.6481   47.8240 H   0  0  0  0  0  0  0  0  0  0  0  0
   33.7570   29.8477   45.3915 H   0  0  0  0  0  0  0  0  0  0  0  0
   36.8623   32.3359   48.9377 H   0  0  0  0  0  0  0  0  0  0  0  0
   36.5649   28.0227   49.1247 H   0  0  0  0  0  0  0  0  0  0  0  0
   37.5572   30.2920   52.5973 H   0  0  0  0  0  0  0  0  0  0  0  0
   37.9481   33.3919   44.7495 H   0  0  0  0  0  0  0  0  0  0  0  0
   39.5848   33.9984   43.0365 H   0  0  0  0  0  0  0  0  0  0  0  0
   40.5580   32.2055   41.5850 H   0  0  0  0  0  0  0  0  0  0  0  0
   41.6206   30.5252   41.0060 H   0  0  0  0  0  0  0  0  0  0  0  0
   42.4626   28.6448   39.6859 H   0  0  0  0  0  0  0  0  0  0  0  0
   39.1827   26.3604   41.0147 H   0  0  0  0  0  0  0  0  0  0  0  0
  1 10  1  0
  2  1  1  0
  3  2  2  0
  4  6  1  0
  4  3  1  0
  5  4  2  0
  6  7  1  0
  7  8  2  0
  7  1  1  0
  9 14  2  0
 10  9  1  0
 10 11  2  0
 11 12  1  0
 12 13  2  0
 14 13  1  0
 15  6  1  0
 16 15  2  0
 17 16  1  0
 18 19  1  0
 18 17  2  0
 19 20  2  0
 20 15  1  0
 21 19  1  0
 22 21  2  0
 23 22  1  0
 24 23  2  0
 24 25  1  0
 25 26  2  0
 26 21  1  0
  2 27  1  0
  3 28  1  0
  9 29  1  0
 11 30  1  0
 13 31  1  0
 16 32  1  0
 17 33  1  0
 18 34  1  0
 22 35  1  0
 23 36  1  0
 25 37  1  0
M  ISO  8  27  14  28  14  29  14  30  14  31  14  32  14  33  14  34  14
M  ISO  3  35  14  36  14  37  14
M  END
>  <minimizedAffinity>  (1) 
-5.4610467

>  <minimizedRMSD>  (1) 
0.787887514

$$$$
