
     RDKit          3D

 49 52  0  0  0  0  0  0  0  0999 V2000
   33.3950   30.3710   44.1760 C   0  0  0  0  0  0  0  0  0  0  0  0
   33.6330   31.3810   43.2190 C   0  0  0  0  0  0  0  0  0  0  0  0
   32.5250   31.9370   42.5660 C   0  0  0  0  0  0  0  0  0  0  0  0
   31.2860   31.4610   42.8990 N   0  0  0  0  0  0  0  0  0  0  0  0
   31.1000   30.4950   43.8180 C   0  0  0  0  0  0  0  0  0  0  0  0
   32.1400   29.9710   44.4340 N   0  0  0  0  0  0  0  0  0  0  0  0
   29.7700   30.0680   44.0940 N   0  0  0  0  0  0  0  0  0  0  0  0
   28.8330   30.0000   43.1430 C   0  0  0  0  0  0  0  0  0  0  0  0
   27.5370   29.5820   43.4110 C   0  0  0  0  0  0  0  0  0  0  0  0
   27.2960   29.2490   44.7190 C   0  0  0  0  0  0  0  0  0  0  0  0
   26.1490   28.8580   45.0640 O   0  0  0  0  0  0  0  0  0  0  0  0
   28.2000   29.3010   45.7100 N   0  0  0  0  0  0  0  0  0  0  0  0
   29.4480   29.7180   45.3750 C   0  0  0  0  0  0  0  0  0  0  0  0
   30.3140   29.7760   46.2810 O   0  0  0  0  0  0  0  0  0  0  0  0
   27.4990   27.7790   49.5530 C   0  0  0  0  0  0  0  0  0  0  0  0
   27.3700   29.1290   49.3610 C   0  0  0  0  0  0  0  0  0  0  0  0
   27.5770   29.7250   48.1440 C   0  0  0  0  0  0  0  0  0  0  0  0
   27.9300   28.9490   47.0630 C   0  0  0  0  0  0  0  0  0  0  0  0
   28.0690   27.5680   47.2280 C   0  0  0  0  0  0  0  0  0  0  0  0
   27.8510   26.9810   48.4850 C   0  0  0  0  0  0  0  0  0  0  0  0
   27.2270   27.0700   51.1110 S   0  0  0  0  0  0  0  0  0  0  0  0
   28.4360   27.0500   51.9750 O   0  0  0  0  0  0  0  0  0  0  0  0
   26.1210   27.8470   51.7900 O   0  0  0  0  0  0  0  0  0  0  0  0
   26.4620   29.4850   42.4130 C   0  0  0  0  0  0  0  0  0  0  0  0
   26.3530   28.1160   41.7780 C   0  0  0  0  0  0  0  0  0  0  0  0
   27.4820   27.2170   42.2890 C   0  0  0  0  0  0  0  0  0  0  0  0
   26.8300   25.8350   42.1750 C   0  0  0  0  0  0  0  0  0  0  0  0
   25.4600   26.1120   42.7530 C   0  0  0  0  0  0  0  0  0  0  0  0
   25.0820   27.4180   42.1300 C   0  0  0  0  0  0  0  0  0  0  0  0
   34.2391   29.9112   44.7110 H   0  0  0  0  0  0  0  0  0  0  0  0
   34.6547   31.7204   42.9933 H   0  0  0  0  0  0  0  0  0  0  0  0
   32.6469   32.7285   41.8119 H   0  0  0  0  0  0  0  0  0  0  0  0
   29.0979   30.2848   42.1140 H   0  0  0  0  0  0  0  0  0  0  0  0
   27.0892   29.7599   50.2172 H   0  0  0  0  0  0  0  0  0  0  0  0
   27.4621   30.8133   48.0322 H   0  0  0  0  0  0  0  0  0  0  0  0
   28.3501   26.9390   46.3705 H   0  0  0  0  0  0  0  0  0  0  0  0
   27.9601   25.8943   48.6164 H   0  0  0  0  0  0  0  0  0  0  0  0
   26.8817   25.7578   50.9214 H   0  0  0  0  0  0  0  0  0  0  0  0
   25.5066   29.7177   42.9060 H   0  0  0  0  0  0  0  0  0  0  0  0
   26.6998   30.1976   41.6094 H   0  0  0  0  0  0  0  0  0  0  0  0
   26.3995   28.2809   40.6914 H   0  0  0  0  0  0  0  0  0  0  0  0
   28.3780   27.2944   41.6556 H   0  0  0  0  0  0  0  0  0  0  0  0
   27.8394   27.4677   43.2986 H   0  0  0  0  0  0  0  0  0  0  0  0
   26.7670   25.5035   41.1280 H   0  0  0  0  0  0  0  0  0  0  0  0
   27.3818   25.0306   42.6834 H   0  0  0  0  0  0  0  0  0  0  0  0
   24.7475   25.3216   42.4745 H   0  0  0  0  0  0  0  0  0  0  0  0
   25.4544   26.1417   43.8526 H   0  0  0  0  0  0  0  0  0  0  0  0
   24.5032   28.0235   42.8430 H   0  0  0  0  0  0  0  0  0  0  0  0
   24.4589   27.2619   41.2370 H   0  0  0  0  0  0  0  0  0  0  0  0
  1  6  2  0
  2  1  1  0
  3  4  1  0
  3  2  2  0
  4  5  2  0
  5  7  1  0
  5  6  1  0
  7 13  1  0
  8  9  2  0
  8  7  1  0
  9 10  1  0
 10 11  2  0
 10 12  1  0
 12 18  1  0
 13 12  1  0
 13 14  2  0
 15 21  1  0
 16 15  2  0
 17 16  1  0
 18 19  1  0
 18 17  2  0
 19 20  2  0
 20 15  1  0
 21 23  2  0
 21 22  2  0
 24  9  1  0
 25 29  1  0
 25 26  1  0
 25 24  1  0
 27 26  1  0
 27 28  1  0
 29 28  1  0
  1 30  1  0
  2 31  1  0
  3 32  1  0
  8 33  1  0
 16 34  1  0
 17 35  1  0
 19 36  1  0
 20 37  1  0
 21 38  1  0
 24 39  1  0
 24 40  1  0
 25 41  1  0
 26 42  1  0
 26 43  1  0
 27 44  1  0
 27 45  1  0
 28 46  1  0
 28 47  1  0
 29 48  1  0
 29 49  1  0
M  ISO  8  30  14  31  14  32  14  33  14  34  14  35  14  36  14  37  14
M  ISO  8  38  11  39   8  40   8  41  13  42  13  43  13  44  13  45  13
M  ISO  4  46  13  47  13  48  13  49  13
M  END
>  <minimizedAffinity>  (1) 
-4.6502142

>  <minimizedRMSD>  (1) 
0.560359538

$$$$
