
     RDKit          3D

 36 39  0  0  0  0  0  0  0  0999 V2000
   36.3810   30.2990   47.4990 N   0  0  0  0  0  0  0  0  0  0  0  0
   35.1300   29.9740   47.0840 C   0  0  0  0  0  0  0  0  0  0  0  0
   34.7720   30.0740   45.7540 C   0  0  0  0  0  0  0  0  0  0  0  0
   35.7750   30.5200   44.9320 C   0  0  0  0  0  0  0  0  0  0  0  0
   35.4800   30.6250   43.6940 O   0  0  0  0  0  0  0  0  0  0  0  0
   37.0390   30.8570   45.2900 N   0  0  0  0  0  0  0  0  0  0  0  0
   37.2790   30.7200   46.6150 C   0  0  0  0  0  0  0  0  0  0  0  0
   38.4230   31.0120   47.0100 O   0  0  0  0  0  0  0  0  0  0  0  0
   36.9210   31.3980   49.5070 C   0  0  0  0  0  0  0  0  0  0  0  0
   36.6750   30.1720   48.8670 C   0  0  0  0  0  0  0  0  0  0  0  0
   36.7520   28.9910   49.6030 C   0  0  0  0  0  0  0  0  0  0  0  0
   37.0660   29.0690   50.9210 N   0  0  0  0  0  0  0  0  0  0  0  0
   37.3020   30.2690   51.5260 C   0  0  0  0  0  0  0  0  0  0  0  0
   37.2270   31.4320   50.8080 N   0  0  0  0  0  0  0  0  0  0  0  0
   37.9630   31.3010   44.3370 C   0  0  0  0  0  0  0  0  0  0  0  0
   38.3170   32.6140   44.0840 C   0  0  0  0  0  0  0  0  0  0  0  0
   39.2290   32.9720   43.1340 C   0  0  0  0  0  0  0  0  0  0  0  0
   39.8340   31.9910   42.3830 C   0  0  0  0  0  0  0  0  0  0  0  0
   39.4730   30.6830   42.6450 C   0  0  0  0  0  0  0  0  0  0  0  0
   38.5650   30.3430   43.5930 N   0  0  0  0  0  0  0  0  0  0  0  0
   40.0880   29.5850   41.8720 C   0  0  0  0  0  0  0  0  0  0  0  0
   41.2920   29.6670   41.1920 C   0  0  0  0  0  0  0  0  0  0  0  0
   41.5020   28.4340   40.6080 C   0  0  0  0  0  0  0  0  0  0  0  0
   40.4180   27.6540   40.9570 C   0  0  0  0  0  0  0  0  0  0  0  0
   39.6030   28.3560   41.7000 O   0  0  0  0  0  0  0  0  0  0  0  0
   34.3895   29.6254   47.8190 H   0  0  0  0  0  0  0  0  0  0  0  0
   33.7678   29.8177   45.3853 H   0  0  0  0  0  0  0  0  0  0  0  0
   36.8615   32.3354   48.9345 H   0  0  0  0  0  0  0  0  0  0  0  0
   36.5626   28.0178   49.1265 H   0  0  0  0  0  0  0  0  0  0  0  0
   37.5538   30.3020   52.5963 H   0  0  0  0  0  0  0  0  0  0  0  0
   37.8403   33.4081   44.6773 H   0  0  0  0  0  0  0  0  0  0  0  0
   39.4771   34.0312   42.9709 H   0  0  0  0  0  0  0  0  0  0  0  0
   40.5737   32.2372   41.6069 H   0  0  0  0  0  0  0  0  0  0  0  0
   41.9525   30.5444   41.1295 H   0  0  0  0  0  0  0  0  0  0  0  0
   42.3603   28.1336   39.9891 H   0  0  0  0  0  0  0  0  0  0  0  0
   40.2642   26.6069   40.6572 H   0  0  0  0  0  0  0  0  0  0  0  0
  1 10  1  0
  2  1  1  0
  3  2  2  0
  4  6  1  0
  4  3  1  0
  5  4  2  0
  6  7  1  0
  7  8  2  0
  7  1  1  0
  9 14  2  0
 10  9  1  0
 10 11  2  0
 11 12  1  0
 12 13  2  0
 14 13  1  0
 15  6  1  0
 16 15  2  0
 17 16  1  0
 18 19  1  0
 18 17  2  0
 19 20  2  0
 20 15  1  0
 21 19  1  0
 22 21  2  0
 23 24  2  0
 23 22  1  0
 24 25  1  0
 25 21  1  0
  2 26  1  0
  3 27  1  0
  9 28  1  0
 11 29  1  0
 13 30  1  0
 16 31  1  0
 17 32  1  0
 18 33  1  0
 22 34  1  0
 23 35  1  0
 24 36  1  0
M  ISO  8  26  14  27  14  28  14  29  14  30  14  31  14  32  14  33  14
M  ISO  3  34  14  35  14  36  14
M  END
>  <minimizedAffinity>  (1) 
-5.40404177

>  <minimizedRMSD>  (1) 
0.618498206

$$$$
