
     RDKit          3D

 32 34  0  0  0  0  0  0  0  0999 V2000
   36.3770   30.1880   47.6770 N   0  0  0  0  0  0  0  0  0  0  0  0
   35.1210   29.9290   47.2290 C   0  0  0  0  0  0  0  0  0  0  0  0
   34.7980   30.0460   45.8930 C   0  0  0  0  0  0  0  0  0  0  0  0
   35.8380   30.4380   45.0910 C   0  0  0  0  0  0  0  0  0  0  0  0
   35.5860   30.5610   43.8480 O   0  0  0  0  0  0  0  0  0  0  0  0
   37.1070   30.7100   45.4760 N   0  0  0  0  0  0  0  0  0  0  0  0
   37.3130   30.5610   46.8090 C   0  0  0  0  0  0  0  0  0  0  0  0
   38.4590   30.7910   47.2350 O   0  0  0  0  0  0  0  0  0  0  0  0
   37.5710   30.9650   49.5500 C   0  0  0  0  0  0  0  0  0  0  0  0
   36.6120   30.0540   49.0440 C   0  0  0  0  0  0  0  0  0  0  0  0
   36.0360   29.1530   49.9240 C   0  0  0  0  0  0  0  0  0  0  0  0
   36.4110   29.1740   51.2310 N   0  0  0  0  0  0  0  0  0  0  0  0
   37.3410   30.0640   51.6900 C   0  0  0  0  0  0  0  0  0  0  0  0
   37.9200   30.9620   50.8360 N   0  0  0  0  0  0  0  0  0  0  0  0
   38.0770   31.1120   44.5560 C   0  0  0  0  0  0  0  0  0  0  0  0
   38.3980   32.4120   44.2000 C   0  0  0  0  0  0  0  0  0  0  0  0
   39.3610   32.7350   43.2890 C   0  0  0  0  0  0  0  0  0  0  0  0
   40.0580   31.7150   42.6850 C   0  0  0  0  0  0  0  0  0  0  0  0
   39.7370   30.4190   43.0410 C   0  0  0  0  0  0  0  0  0  0  0  0
   38.7710   30.1180   43.9530 N   0  0  0  0  0  0  0  0  0  0  0  0
   40.4800   29.2740   42.4010 C   0  0  0  0  0  0  0  0  0  0  0  0
   34.3461   29.6198   47.9459 H   0  0  0  0  0  0  0  0  0  0  0  0
   33.7897   29.8417   45.5037 H   0  0  0  0  0  0  0  0  0  0  0  0
   38.0375   31.6903   48.8671 H   0  0  0  0  0  0  0  0  0  0  0  0
   35.2856   28.4304   49.5707 H   0  0  0  0  0  0  0  0  0  0  0  0
   37.6256   30.0582   52.7525 H   0  0  0  0  0  0  0  0  0  0  0  0
   37.8438   33.2320   44.6801 H   0  0  0  0  0  0  0  0  0  0  0  0
   39.5746   33.7858   43.0437 H   0  0  0  0  0  0  0  0  0  0  0  0
   40.8439   31.9236   41.9441 H   0  0  0  0  0  0  0  0  0  0  0  0
   40.9004   28.6262   43.1843 H   0  0  0  0  0  0  0  0  0  0  0  0
   39.7875   28.6913   41.7758 H   0  0  0  0  0  0  0  0  0  0  0  0
   41.2943   29.6691   41.7758 H   0  0  0  0  0  0  0  0  0  0  0  0
  1 10  1  0
  2  1  1  0
  3  2  2  0
  4  6  1  0
  4  3  1  0
  5  4  2  0
  6  7  1  0
  7  8  2  0
  7  1  1  0
  9 14  2  0
 10  9  1  0
 10 11  2  0
 11 12  1  0
 12 13  2  0
 14 13  1  0
 15  6  1  0
 16 15  2  0
 17 16  1  0
 18 19  1  0
 18 17  2  0
 19 20  2  0
 20 15  1  0
 21 19  1  0
  2 22  1  0
  3 23  1  0
  9 24  1  0
 11 25  1  0
 13 26  1  0
 16 27  1  0
 17 28  1  0
 18 29  1  0
 21 30  1  0
 21 31  1  0
 21 32  1  0
M  ISO  8  22  14  23  14  24  14  25  14  26  14  27  14  28  14  29  14
M  ISO  3  30   8  31   8  32   8
M  END
>  <minimizedAffinity>  (1) 
-5.33382463

>  <minimizedRMSD>  (1) 
0.0410837457

$$$$
