
     RDKit          3D

 35 37  0  0  0  0  0  0  0  0999 V2000
   36.3660   30.1980   47.6760 N   0  0  0  0  0  0  0  0  0  0  0  0
   35.1150   29.9320   47.2250 C   0  0  0  0  0  0  0  0  0  0  0  0
   34.8000   30.0380   45.8840 C   0  0  0  0  0  0  0  0  0  0  0  0
   35.8370   30.4250   45.0850 C   0  0  0  0  0  0  0  0  0  0  0  0
   35.5870   30.5350   43.8410 O   0  0  0  0  0  0  0  0  0  0  0  0
   37.0980   30.7030   45.4660 N   0  0  0  0  0  0  0  0  0  0  0  0
   37.3080   30.5690   46.8040 C   0  0  0  0  0  0  0  0  0  0  0  0
   38.4530   30.8070   47.2310 O   0  0  0  0  0  0  0  0  0  0  0  0
   37.5630   30.9800   49.5430 C   0  0  0  0  0  0  0  0  0  0  0  0
   36.6180   30.0710   49.0450 C   0  0  0  0  0  0  0  0  0  0  0  0
   36.0500   29.1550   49.9190 C   0  0  0  0  0  0  0  0  0  0  0  0
   36.4310   29.1720   51.2210 N   0  0  0  0  0  0  0  0  0  0  0  0
   37.3540   30.0630   51.6840 C   0  0  0  0  0  0  0  0  0  0  0  0
   37.9160   30.9690   50.8280 N   0  0  0  0  0  0  0  0  0  0  0  0
   38.0720   31.0960   44.5410 C   0  0  0  0  0  0  0  0  0  0  0  0
   38.3930   32.3910   44.1690 C   0  0  0  0  0  0  0  0  0  0  0  0
   39.3620   32.6840   43.2560 C   0  0  0  0  0  0  0  0  0  0  0  0
   40.0690   31.6660   42.6600 C   0  0  0  0  0  0  0  0  0  0  0  0
   39.7370   30.3800   43.0420 C   0  0  0  0  0  0  0  0  0  0  0  0
   38.7710   30.0970   43.9520 N   0  0  0  0  0  0  0  0  0  0  0  0
   40.5010   29.2640   42.3990 C   0  0  0  0  0  0  0  0  0  0  0  0
   39.7700   27.9630   42.5950 C   0  0  0  0  0  0  0  0  0  0  0  0
   34.3369   29.6263   47.9399 H   0  0  0  0  0  0  0  0  0  0  0  0
   33.7942   29.8274   45.4916 H   0  0  0  0  0  0  0  0  0  0  0  0
   38.0199   31.7134   48.8623 H   0  0  0  0  0  0  0  0  0  0  0  0
   35.3047   28.4286   49.5628 H   0  0  0  0  0  0  0  0  0  0  0  0
   37.6458   30.0527   52.7445 H   0  0  0  0  0  0  0  0  0  0  0  0
   37.8402   33.2218   44.6319 H   0  0  0  0  0  0  0  0  0  0  0  0
   39.5777   33.7311   42.9969 H   0  0  0  0  0  0  0  0  0  0  0  0
   40.8569   31.8648   41.9186 H   0  0  0  0  0  0  0  0  0  0  0  0
   41.4989   29.1942   42.8565 H   0  0  0  0  0  0  0  0  0  0  0  0
   40.5989   29.4656   41.3221 H   0  0  0  0  0  0  0  0  0  0  0  0
   39.6581   27.7638   43.6710 H   0  0  0  0  0  0  0  0  0  0  0  0
   38.7758   28.0271   42.1286 H   0  0  0  0  0  0  0  0  0  0  0  0
   40.3419   27.1472   42.1286 H   0  0  0  0  0  0  0  0  0  0  0  0
  1 10  1  0
  2  1  1  0
  3  2  2  0
  4  6  1  0
  4  3  1  0
  5  4  2  0
  6  7  1  0
  7  8  2  0
  7  1  1  0
  9 14  2  0
 10  9  1  0
 10 11  2  0
 11 12  1  0
 12 13  2  0
 14 13  1  0
 15  6  1  0
 16 15  2  0
 17 16  1  0
 18 19  1  0
 18 17  2  0
 19 20  2  0
 20 15  1  0
 21 22  1  0
 21 19  1  0
  2 23  1  0
  3 24  1  0
  9 25  1  0
 11 26  1  0
 13 27  1  0
 16 28  1  0
 17 29  1  0
 18 30  1  0
 21 31  1  0
 21 32  1  0
 22 33  1  0
 22 34  1  0
 22 35  1  0
M  ISO  8  23  14  24  14  25  14  26  14  27  14  28  14  29  14  30  14
M  ISO  5  31   8  32   8  33   8  34   8  35   8
M  END
>  <minimizedAffinity>  (1) 
-5.33370686

>  <minimizedRMSD>  (1) 
0.126214579

$$$$
