
     RDKit          3D

 30 32  0  0  0  0  0  0  0  0999 V2000
   36.3870   30.2780   47.4630 N   0  0  0  0  0  0  0  0  0  0  0  0
   35.1330   29.9600   47.0530 C   0  0  0  0  0  0  0  0  0  0  0  0
   34.7830   30.0320   45.7170 C   0  0  0  0  0  0  0  0  0  0  0  0
   35.7880   30.4390   44.8830 C   0  0  0  0  0  0  0  0  0  0  0  0
   35.5080   30.5200   43.6410 O   0  0  0  0  0  0  0  0  0  0  0  0
   37.0470   30.7680   45.2280 N   0  0  0  0  0  0  0  0  0  0  0  0
   37.2920   30.6630   46.5670 C   0  0  0  0  0  0  0  0  0  0  0  0
   38.4390   30.9490   46.9630 O   0  0  0  0  0  0  0  0  0  0  0  0
   36.8890   31.4170   49.4570 C   0  0  0  0  0  0  0  0  0  0  0  0
   36.6770   30.1830   48.8300 C   0  0  0  0  0  0  0  0  0  0  0  0
   36.7810   29.0230   49.5940 C   0  0  0  0  0  0  0  0  0  0  0  0
   37.0830   29.1260   50.9120 N   0  0  0  0  0  0  0  0  0  0  0  0
   37.2860   30.3400   51.4990 C   0  0  0  0  0  0  0  0  0  0  0  0
   37.1860   31.4870   50.7560 N   0  0  0  0  0  0  0  0  0  0  0  0
   37.9860   31.1770   44.2780 C   0  0  0  0  0  0  0  0  0  0  0  0
   38.1990   32.4660   43.8220 C   0  0  0  0  0  0  0  0  0  0  0  0
   39.1350   32.7980   42.8900 C   0  0  0  0  0  0  0  0  0  0  0  0
   39.9280   31.8060   42.3560 C   0  0  0  0  0  0  0  0  0  0  0  0
   39.7070   30.5170   42.8200 C   0  0  0  0  0  0  0  0  0  0  0  0
   38.7690   30.2070   43.7490 N   0  0  0  0  0  0  0  0  0  0  0  0
   40.7380   29.2130   42.1290 S   0  0  0  0  0  0  0  0  0  0  0  0
   34.3848   29.6406   47.7934 H   0  0  0  0  0  0  0  0  0  0  0  0
   33.7754   29.7816   45.3535 H   0  0  0  0  0  0  0  0  0  0  0  0
   36.8094   32.3434   48.8693 H   0  0  0  0  0  0  0  0  0  0  0  0
   36.6203   28.0366   49.1344 H   0  0  0  0  0  0  0  0  0  0  0  0
   37.5303   30.3986   52.5699 H   0  0  0  0  0  0  0  0  0  0  0  0
   37.5748   33.2710   44.2372 H   0  0  0  0  0  0  0  0  0  0  0  0
   39.2560   33.8429   42.5683 H   0  0  0  0  0  0  0  0  0  0  0  0
   40.6970   32.0246   41.6005 H   0  0  0  0  0  0  0  0  0  0  0  0
   41.3070   28.4933   43.1464 H   0  0  0  0  0  0  0  0  0  0  0  0
  1 10  1  0
  2  1  1  0
  3  2  2  0
  4  6  1  0
  4  3  1  0
  5  4  2  0
  6  7  1  0
  7  8  2  0
  7  1  1  0
  9 14  2  0
 10  9  1  0
 10 11  2  0
 11 12  1  0
 12 13  2  0
 14 13  1  0
 15  6  1  0
 16 15  2  0
 17 16  1  0
 18 19  1  0
 18 17  2  0
 19 20  2  0
 20 15  1  0
 21 19  1  0
  2 22  1  0
  3 23  1  0
  9 24  1  0
 11 25  1  0
 13 26  1  0
 16 27  1  0
 17 28  1  0
 18 29  1  0
 21 30  1  0
M  ISO  8  22  14  23  14  24  14  25  14  26  14  27  14  28  14  29  14
M  ISO  1  30  11
M  END
>  <minimizedAffinity>  (1) 
-4.99882793

>  <minimizedRMSD>  (1) 
0.434496075

$$$$
