
     RDKit          3D

 29 30  0  0  0  0  0  0  0  0999 V2000
   38.0130   32.2200   49.5070 C   0  0  0  0  0  0  0  0  0  0  0  0
   38.6590   32.6010   48.2520 N   0  0  0  0  0  0  0  0  0  0  0  0
   38.4920   31.8410   47.1290 C   0  0  0  0  0  0  0  0  0  0  0  0
   39.0790   32.1570   45.9220 C   0  0  0  0  0  0  0  0  0  0  0  0
   38.9120   31.3550   44.7060 C   0  0  0  0  0  0  0  0  0  0  0  0
   39.8530   33.2930   45.9000 C   0  0  0  0  0  0  0  0  0  0  0  0
   40.4100   33.6250   44.8210 O   0  0  0  0  0  0  0  0  0  0  0  0
   40.0390   34.0710   46.9980 N   0  0  0  0  0  0  0  0  0  0  0  0
   39.4330   33.7000   48.1490 C   0  0  0  0  0  0  0  0  0  0  0  0
   39.6000   34.4160   49.1720 O   0  0  0  0  0  0  0  0  0  0  0  0
   38.2710   30.7630   49.8300 C   0  0  0  0  0  0  0  0  0  0  0  0
   36.4430   29.7770   51.1370 C   0  0  0  0  0  0  0  0  0  0  0  0
   37.0130   30.0580   49.8930 C   0  0  0  0  0  0  0  0  0  0  0  0
   36.3290   29.6370   48.7570 C   0  0  0  0  0  0  0  0  0  0  0  0
   35.1440   28.9750   48.9200 N   0  0  0  0  0  0  0  0  0  0  0  0
   34.6130   28.7140   50.1250 C   0  0  0  0  0  0  0  0  0  0  0  0
   35.2640   29.1150   51.2250 N   0  0  0  0  0  0  0  0  0  0  0  0
   36.9287   32.3819   49.4170 H   0  0  0  0  0  0  0  0  0  0  0  0
   38.4291   32.8374   50.3168 H   0  0  0  0  0  0  0  0  0  0  0  0
   37.8636   30.9402   47.1902 H   0  0  0  0  0  0  0  0  0  0  0  0
   38.6949   30.3124   44.9814 H   0  0  0  0  0  0  0  0  0  0  0  0
   38.0786   31.7586   44.1122 H   0  0  0  0  0  0  0  0  0  0  0  0
   39.8372   31.3924   44.1122 H   0  0  0  0  0  0  0  0  0  0  0  0
   40.6238   34.9178   46.9553 H   0  0  0  0  0  0  0  0  0  0  0  0
   38.9021   30.3191   49.0460 H   0  0  0  0  0  0  0  0  0  0  0  0
   38.7853   30.6861   50.7993 H   0  0  0  0  0  0  0  0  0  0  0  0
   36.9570   30.0967   52.0554 H   0  0  0  0  0  0  0  0  0  0  0  0
   36.7318   29.8320   47.7522 H   0  0  0  0  0  0  0  0  0  0  0  0
   33.6560   28.1780   50.2081 H   0  0  0  0  0  0  0  0  0  0  0  0
  1 11  1  0
  2  1  1  0
  3  2  1  0
  4  3  2  0
  5  4  1  0
  6  4  1  0
  6  8  1  0
  7  6  2  0
  8  9  1  0
  9  2  1  0
  9 10  2  0
 11 13  1  0
 12 17  2  0
 13 12  1  0
 14 15  1  0
 14 13  2  0
 15 16  2  0
 16 17  1  0
  1 18  1  0
  1 19  1  0
  3 20  1  0
  5 21  1  0
  5 22  1  0
  5 23  1  0
  8 24  1  0
 11 25  1  0
 11 26  1  0
 12 27  1  0
 14 28  1  0
 16 29  1  0
M  ISO  8  18   8  19   8  20  14  21   8  22   8  23   8  24   9  25   8
M  ISO  4  26   8  27  14  28  14  29  14
M  END
>  <minimizedAffinity>  (1) 
-5.41630173

>  <minimizedRMSD>  (1) 
2.64924288

$$$$
