
     RDKit          3D

 29 30  0  0  0  0  0  0  0  0999 V2000
   36.3560   30.6720   49.5780 C   0  0  0  0  0  0  0  0  0  0  0  0
   39.2570   32.2470   46.9500 C   0  0  0  0  0  0  0  0  0  0  0  0
   38.8690   33.0020   48.0370 C   0  0  0  0  0  0  0  0  0  0  0  0
   37.9230   32.4990   48.9030 C   0  0  0  0  0  0  0  0  0  0  0  0
   37.3850   31.2500   48.6590 C   0  0  0  0  0  0  0  0  0  0  0  0
   37.8010   30.5100   47.5470 C   0  0  0  0  0  0  0  0  0  0  0  0
   38.7440   31.0110   46.6840 C   0  0  0  0  0  0  0  0  0  0  0  0
   40.4640   32.9040   45.8570 S   0  0  0  0  0  0  0  0  0  0  0  0
   41.2570   31.7500   45.3130 O   0  0  0  0  0  0  0  0  0  0  0  0
   39.8220   33.7250   44.7930 O   0  0  0  0  0  0  0  0  0  0  0  0
   36.2650   29.1970   49.2230 C   0  0  0  0  0  0  0  0  0  0  0  0
   34.1030   28.0510   49.2780 C   0  0  0  0  0  0  0  0  0  0  0  0
   34.9670   28.9500   48.6360 C   0  0  0  0  0  0  0  0  0  0  0  0
   34.5100   29.5510   47.4650 C   0  0  0  0  0  0  0  0  0  0  0  0
   33.2610   29.2350   47.0100 N   0  0  0  0  0  0  0  0  0  0  0  0
   32.4540   28.3630   47.6540 C   0  0  0  0  0  0  0  0  0  0  0  0
   32.8750   27.7740   48.7840 N   0  0  0  0  0  0  0  0  0  0  0  0
   36.6662   30.7952   50.6261 H   0  0  0  0  0  0  0  0  0  0  0  0
   35.3846   31.1759   49.4660 H   0  0  0  0  0  0  0  0  0  0  0  0
   39.3100   33.9947   48.2105 H   0  0  0  0  0  0  0  0  0  0  0  0
   37.6003   33.0839   49.7770 H   0  0  0  0  0  0  0  0  0  0  0  0
   37.3678   29.5159   47.3621 H   0  0  0  0  0  0  0  0  0  0  0  0
   39.0750   30.4350   45.8072 H   0  0  0  0  0  0  0  0  0  0  0  0
   41.3147   33.7556   46.5111 H   0  0  0  0  0  0  0  0  0  0  0  0
   37.0545   28.9387   48.5019 H   0  0  0  0  0  0  0  0  0  0  0  0
   36.3960   28.5815   50.1252 H   0  0  0  0  0  0  0  0  0  0  0  0
   34.4320   27.5595   50.2054 H   0  0  0  0  0  0  0  0  0  0  0  0
   35.1422   30.2657   46.9177 H   0  0  0  0  0  0  0  0  0  0  0  0
   31.4550   28.1367   47.2531 H   0  0  0  0  0  0  0  0  0  0  0  0
  2  3  2  0
  3  4  1  0
  5  4  2  0
  5  1  1  0
  6  5  1  0
  7  2  1  0
  7  6  2  0
  8  2  1  0
  9  8  2  0
 10  8  2  0
 11  1  1  0
 13 11  1  0
 13 12  2  0
 14 13  1  0
 15 14  2  0
 15 16  1  0
 16 17  2  0
 17 12  1  0
  1 18  1  0
  1 19  1  0
  3 20  1  0
  4 21  1  0
  6 22  1  0
  7 23  1  0
  8 24  1  0
 11 25  1  0
 11 26  1  0
 12 27  1  0
 14 28  1  0
 16 29  1  0
M  ISO  8  18   8  19   8  20  14  21  14  22  14  23  14  24  11  25   8
M  ISO  4  26   8  27  14  28  14  29  14
M  END
>  <minimizedAffinity>  (1) 
-5.32350206

>  <minimizedRMSD>  (1) 
4.15475035

$$$$
