
     RDKit          3D

 25 26  0  0  0  0  0  0  0  0999 V2000
   38.4500   31.5990   49.5960 C   0  0  0  0  0  0  0  0  0  0  0  0
   37.2570   30.0650   51.0970 C   0  0  0  0  0  0  0  0  0  0  0  0
   37.2540   30.8730   49.9520 C   0  0  0  0  0  0  0  0  0  0  0  0
   36.0660   30.9200   49.2160 C   0  0  0  0  0  0  0  0  0  0  0  0
   35.0020   30.1980   49.6400 N   0  0  0  0  0  0  0  0  0  0  0  0
   35.0360   29.4300   50.7470 C   0  0  0  0  0  0  0  0  0  0  0  0
   36.1700   29.3680   51.4740 N   0  0  0  0  0  0  0  0  0  0  0  0
   38.0700   32.6470   48.5350 C   0  0  0  0  0  0  0  0  0  0  0  0
   38.9230   32.3160   47.3420 C   0  0  0  0  0  0  0  0  0  0  0  0
   38.8630   31.0320   46.8370 C   0  0  0  0  0  0  0  0  0  0  0  0
   39.6520   30.7230   45.7320 C   0  0  0  0  0  0  0  0  0  0  0  0
   40.4730   31.7040   45.1700 C   0  0  0  0  0  0  0  0  0  0  0  0
   40.4900   32.9800   45.7240 C   0  0  0  0  0  0  0  0  0  0  0  0
   39.7210   33.2520   46.7860 N   0  0  0  0  0  0  0  0  0  0  0  0
   38.8617   32.0995   50.4848 H   0  0  0  0  0  0  0  0  0  0  0  0
   39.2115   30.9114   49.1994 H   0  0  0  0  0  0  0  0  0  0  0  0
   38.1724   29.9990   51.7034 H   0  0  0  0  0  0  0  0  0  0  0  0
   35.9969   31.5344   48.3062 H   0  0  0  0  0  0  0  0  0  0  0  0
   34.1473   28.8593   51.0545 H   0  0  0  0  0  0  0  0  0  0  0  0
   37.0025   32.5709   48.2807 H   0  0  0  0  0  0  0  0  0  0  0  0
   38.2354   33.6749   48.8902 H   0  0  0  0  0  0  0  0  0  0  0  0
   38.2101   30.2744   47.2950 H   0  0  0  0  0  0  0  0  0  0  0  0
   39.6290   29.7103   45.3031 H   0  0  0  0  0  0  0  0  0  0  0  0
   41.1003   31.4695   44.2973 H   0  0  0  0  0  0  0  0  0  0  0  0
   41.1320   33.7617   45.2918 H   0  0  0  0  0  0  0  0  0  0  0  0
  1  3  1  0
  2  7  2  0
  3  2  1  0
  4  5  1  0
  4  3  2  0
  5  6  2  0
  6  7  1  0
  8  1  1  0
  9  8  1  0
 10  9  2  0
 11 10  1  0
 12 13  1  0
 12 11  2  0
 13 14  2  0
 14  9  1  0
  1 15  1  0
  1 16  1  0
  2 17  1  0
  4 18  1  0
  6 19  1  0
  8 20  1  0
  8 21  1  0
 10 22  1  0
 11 23  1  0
 12 24  1  0
 13 25  1  0
M  ISO  8  15   8  16   8  17  14  18  14  19  14  20   8  21   8  22  14
M  ISO  3  23  14  24  14  25  14
M  END
>  <minimizedAffinity>  (1) 
-5.05659723

>  <minimizedRMSD>  (1) 
2.69786143

$$$$
