
     RDKit          3D

 23 24  0  0  0  0  0  0  0  0999 V2000
   38.4890   31.6720   49.8180 C   0  0  0  0  0  0  0  0  0  0  0  0
   37.2150   30.0880   51.1810 C   0  0  0  0  0  0  0  0  0  0  0  0
   37.2800   30.9230   50.0630 C   0  0  0  0  0  0  0  0  0  0  0  0
   36.1740   30.9950   49.2260 C   0  0  0  0  0  0  0  0  0  0  0  0
   35.0720   30.2450   49.5370 N   0  0  0  0  0  0  0  0  0  0  0  0
   35.0250   29.4400   50.6270 C   0  0  0  0  0  0  0  0  0  0  0  0
   36.1010   29.3660   51.4440 N   0  0  0  0  0  0  0  0  0  0  0  0
   38.1620   32.8600   48.9310 C   0  0  0  0  0  0  0  0  0  0  0  0
   38.9340   32.6000   47.6600 C   0  0  0  0  0  0  0  0  0  0  0  0
   39.1450   31.4370   46.9380 C   0  0  0  0  0  0  0  0  0  0  0  0
   39.9110   31.7560   45.8740 N   0  0  0  0  0  0  0  0  0  0  0  0
   40.2010   33.0570   45.8770 C   0  0  0  0  0  0  0  0  0  0  0  0
   39.6040   33.5540   46.9610 N   0  0  0  0  0  0  0  0  0  0  0  0
   38.9028   32.0275   50.7732 H   0  0  0  0  0  0  0  0  0  0  0  0
   39.2305   31.0294   49.3208 H   0  0  0  0  0  0  0  0  0  0  0  0
   38.0804   30.0164   51.8563 H   0  0  0  0  0  0  0  0  0  0  0  0
   36.1834   31.6393   48.3345 H   0  0  0  0  0  0  0  0  0  0  0  0
   34.1208   28.8527   50.8450 H   0  0  0  0  0  0  0  0  0  0  0  0
   37.0820   32.9091   48.7279 H   0  0  0  0  0  0  0  0  0  0  0  0
   38.4308   33.8193   49.3973 H   0  0  0  0  0  0  0  0  0  0  0  0
   38.7591   30.4373   47.1863 H   0  0  0  0  0  0  0  0  0  0  0  0
   40.8058   33.6056   45.1400 H   0  0  0  0  0  0  0  0  0  0  0  0
   39.6458   34.5456   47.2365 H   0  0  0  0  0  0  0  0  0  0  0  0
  1  3  1  0
  2  7  2  0
  3  2  1  0
  4  5  1  0
  4  3  2  0
  5  6  2  0
  6  7  1  0
  8  1  1  0
  9  8  1  0
 10  9  2  0
 11 12  2  0
 11 10  1  0
 12 13  1  0
 13  9  1  0
  1 14  1  0
  1 15  1  0
  2 16  1  0
  4 17  1  0
  6 18  1  0
  8 19  1  0
  8 20  1  0
 10 21  1  0
 12 22  1  0
 13 23  1  0
M  ISO  8  14   8  15   8  16  14  17  14  18  14  19   8  20   8  21  14
M  ISO  2  22  14  23   9
M  END
>  <minimizedAffinity>  (1) 
-4.94753885

>  <minimizedRMSD>  (1) 
2.2007854

$$$$
