
     RDKit          3D

 27 29  0  0  0  0  0  0  0  0999 V2000
   37.8510   32.9820   49.3630 C   0  0  0  0  0  0  0  0  0  0  0  0
   38.8830   33.2710   48.3530 N   0  0  0  0  0  0  0  0  0  0  0  0
   39.8130   34.2480   48.3830 C   0  0  0  0  0  0  0  0  0  0  0  0
   40.5320   34.1200   47.2470 N   0  0  0  0  0  0  0  0  0  0  0  0
   40.0740   33.1000   46.5250 C   0  0  0  0  0  0  0  0  0  0  0  0
   40.5120   32.6090   45.2910 C   0  0  0  0  0  0  0  0  0  0  0  0
   39.8320   31.5350   44.7970 N   0  0  0  0  0  0  0  0  0  0  0  0
   38.7900   30.9960   45.4930 C   0  0  0  0  0  0  0  0  0  0  0  0
   38.3600   31.4700   46.6940 N   0  0  0  0  0  0  0  0  0  0  0  0
   39.0180   32.5390   47.2100 C   0  0  0  0  0  0  0  0  0  0  0  0
   38.2780   31.6360   49.9530 C   0  0  0  0  0  0  0  0  0  0  0  0
   37.0400   29.9840   51.2440 C   0  0  0  0  0  0  0  0  0  0  0  0
   37.0940   30.8360   50.1370 C   0  0  0  0  0  0  0  0  0  0  0  0
   35.9950   30.8500   49.2860 C   0  0  0  0  0  0  0  0  0  0  0  0
   34.9350   30.0370   49.5780 N   0  0  0  0  0  0  0  0  0  0  0  0
   34.9050   29.2270   50.6470 C   0  0  0  0  0  0  0  0  0  0  0  0
   35.9650   29.1990   51.4860 N   0  0  0  0  0  0  0  0  0  0  0  0
   36.8575   32.9071   48.8967 H   0  0  0  0  0  0  0  0  0  0  0  0
   37.7704   33.7718   50.1244 H   0  0  0  0  0  0  0  0  0  0  0  0
   39.9568   34.9985   49.1743 H   0  0  0  0  0  0  0  0  0  0  0  0
   41.3558   33.0626   44.7503 H   0  0  0  0  0  0  0  0  0  0  0  0
   38.2683   30.1301   45.0594 H   0  0  0  0  0  0  0  0  0  0  0  0
   38.9685   31.1282   49.2635 H   0  0  0  0  0  0  0  0  0  0  0  0
   38.7920   31.7853   50.9140 H   0  0  0  0  0  0  0  0  0  0  0  0
   37.8940   29.9510   51.9365 H   0  0  0  0  0  0  0  0  0  0  0  0
   35.9784   31.4998   48.3986 H   0  0  0  0  0  0  0  0  0  0  0  0
   34.0273   28.5923   50.8390 H   0  0  0  0  0  0  0  0  0  0  0  0
  1 11  1  0
  2  3  1  0
  2  1  1  0
  4  3  2  0
  5 10  2  0
  5  4  1  0
  6  5  1  0
  7  6  2  0
  7  8  1  0
  8  9  2  0
  9 10  1  0
 10  2  1  0
 11 13  1  0
 12 17  2  0
 13 12  1  0
 14 15  1  0
 14 13  2  0
 15 16  2  0
 16 17  1  0
  1 18  1  0
  1 19  1  0
  3 20  1  0
  6 21  1  0
  8 22  1  0
 11 23  1  0
 11 24  1  0
 12 25  1  0
 14 26  1  0
 16 27  1  0
M  ISO  8  18   8  19   8  20  14  21  14  22  14  23   8  24   8  25  14
M  ISO  2  26  14  27  14
M  END
>  <minimizedAffinity>  (1) 
-4.86612129

>  <minimizedRMSD>  (1) 
1.91034567

$$$$
