
     RDKit          3D

 31 32  0  0  0  0  0  0  0  0999 V2000
   38.5820   31.7480   48.0690 C   0  0  0  0  0  0  0  0  0  0  0  0
   38.1770   31.0770   50.4220 C   0  0  0  0  0  0  0  0  0  0  0  0
   37.8930   30.8840   49.0460 C   0  0  0  0  0  0  0  0  0  0  0  0
   36.9680   29.9000   48.7020 C   0  0  0  0  0  0  0  0  0  0  0  0
   36.3810   29.1790   49.6850 N   0  0  0  0  0  0  0  0  0  0  0  0
   36.6840   29.3940   50.9920 C   0  0  0  0  0  0  0  0  0  0  0  0
   37.5740   30.3380   51.3460 N   0  0  0  0  0  0  0  0  0  0  0  0
   37.8120   31.6750   46.7820 C   0  0  0  0  0  0  0  0  0  0  0  0
   38.3780   32.3980   45.6660 N   0  0  0  0  0  0  0  0  0  0  0  0
   39.7110   32.7850   46.0140 C   0  0  0  0  0  0  0  0  0  0  0  0
   40.8400   32.3820   45.1800 C   0  0  0  0  0  0  0  0  0  0  0  0
   40.6600   31.1850   44.3150 C   0  0  0  0  0  0  0  0  0  0  0  0
   39.2770   30.5730   44.4310 C   0  0  0  0  0  0  0  0  0  0  0  0
   38.2790   31.6730   44.4360 C   0  0  0  0  0  0  0  0  0  0  0  0
   38.6049   32.7851   48.4349 H   0  0  0  0  0  0  0  0  0  0  0  0
   39.6195   31.4143   47.9198 H   0  0  0  0  0  0  0  0  0  0  0  0
   38.9029   31.8453   50.7265 H   0  0  0  0  0  0  0  0  0  0  0  0
   36.7189   29.7123   47.6472 H   0  0  0  0  0  0  0  0  0  0  0  0
   36.1955   28.7887   51.7698 H   0  0  0  0  0  0  0  0  0  0  0  0
   37.7364   30.6160   46.4941 H   0  0  0  0  0  0  0  0  0  0  0  0
   36.8435   32.1545   46.9870 H   0  0  0  0  0  0  0  0  0  0  0  0
   39.7213   33.8844   46.0490 H   0  0  0  0  0  0  0  0  0  0  0  0
   39.8899   32.2412   46.9533 H   0  0  0  0  0  0  0  0  0  0  0  0
   41.0841   33.2299   44.5231 H   0  0  0  0  0  0  0  0  0  0  0  0
   41.6284   32.0979   45.8925 H   0  0  0  0  0  0  0  0  0  0  0  0
   41.4038   30.4281   44.6046 H   0  0  0  0  0  0  0  0  0  0  0  0
   40.7898   31.5099   43.2721 H   0  0  0  0  0  0  0  0  0  0  0  0
   39.0921   29.9069   43.5753 H   0  0  0  0  0  0  0  0  0  0  0  0
   39.1988   29.9862   45.3581 H   0  0  0  0  0  0  0  0  0  0  0  0
   38.4762   32.3515   43.5930 H   0  0  0  0  0  0  0  0  0  0  0  0
   37.2674   31.2523   44.3375 H   0  0  0  0  0  0  0  0  0  0  0  0
  1  3  1  0
  2  7  2  0
  3  2  1  0
  4  3  2  0
  4  5  1  0
  5  6  2  0
  6  7  1  0
  8  1  1  0
  9 10  1  0
  9  8  1  0
 11 10  1  0
 12 13  1  0
 12 11  1  0
 13 14  1  0
 14  9  1  0
  1 15  1  0
  1 16  1  0
  2 17  1  0
  4 18  1  0
  6 19  1  0
  8 20  1  0
  8 21  1  0
 10 22  1  0
 10 23  1  0
 11 24  1  0
 11 25  1  0
 12 26  1  0
 12 27  1  0
 13 28  1  0
 13 29  1  0
 14 30  1  0
 14 31  1  0
M  ISO  8  15   8  16   8  17  14  18  14  19  14  20   8  21   8  22  13
M  ISO  8  23  13  24  13  25  13  26  13  27  13  28  13  29  13  30  13
M  ISO  1  31  13
M  END
>  <minimizedAffinity>  (1) 
-4.82894993

>  <minimizedRMSD>  (1) 
2.81472087

$$$$
