
     RDKit          3D

 21 22  0  0  0  0  0  0  0  0999 V2000
   37.8940   30.5730   47.6510 C   0  0  0  0  0  0  0  0  0  0  0  0
   36.3280   29.4170   49.1550 C   0  0  0  0  0  0  0  0  0  0  0  0
   37.4580   30.2590   48.9890 C   0  0  0  0  0  0  0  0  0  0  0  0
   38.0600   30.7240   50.1540 C   0  0  0  0  0  0  0  0  0  0  0  0
   37.5400   30.3480   51.3410 N   0  0  0  0  0  0  0  0  0  0  0  0
   36.4740   29.5540   51.4740 C   0  0  0  0  0  0  0  0  0  0  0  0
   35.8600   29.0810   50.3650 N   0  0  0  0  0  0  0  0  0  0  0  0
   38.6780   31.8620   47.6940 C   0  0  0  0  0  0  0  0  0  0  0  0
   39.5740   32.0010   46.5140 C   0  0  0  0  0  0  0  0  0  0  0  0
   40.0300   33.1420   45.9270 N   0  0  0  0  0  0  0  0  0  0  0  0
   40.7820   32.8110   44.9320 O   0  0  0  0  0  0  0  0  0  0  0  0
   40.8660   31.5300   44.8050 C   0  0  0  0  0  0  0  0  0  0  0  0
   40.1150   31.0060   45.7900 N   0  0  0  0  0  0  0  0  0  0  0  0
   37.0198   30.6919   46.9940 H   0  0  0  0  0  0  0  0  0  0  0  0
   38.5242   29.7610   47.2592 H   0  0  0  0  0  0  0  0  0  0  0  0
   35.8193   29.0272   48.2610 H   0  0  0  0  0  0  0  0  0  0  0  0
   38.9396   31.3830   50.1084 H   0  0  0  0  0  0  0  0  0  0  0  0
   36.0997   29.2878   52.4735 H   0  0  0  0  0  0  0  0  0  0  0  0
   37.9740   32.7071   47.7085 H   0  0  0  0  0  0  0  0  0  0  0  0
   39.3024   31.8534   48.5995 H   0  0  0  0  0  0  0  0  0  0  0  0
   41.4369   30.9775   44.0442 H   0  0  0  0  0  0  0  0  0  0  0  0
  1  8  1  0
  1  3  1  0
  2  7  2  0
  3  2  1  0
  3  4  2  0
  4  5  1  0
  5  6  2  0
  7  6  1  0
  9  8  1  0
 10  9  2  0
 11 10  1  0
 12 11  1  0
 12 13  2  0
 13  9  1  0
  1 14  1  0
  1 15  1  0
  2 16  1  0
  4 17  1  0
  6 18  1  0
  8 19  1  0
  8 20  1  0
 12 21  1  0
M  ISO  8  14   8  15   8  16  14  17  14  18  14  19   8  20   8  21  14
M  END
>  <minimizedAffinity>  (1) 
-4.75424337

>  <minimizedRMSD>  (1) 
4.79412889

$$$$
