
     RDKit          3D

 37 39  0  0  0  0  0  0  0  0999 V2000
   33.7680   30.1600   44.2960 C   0  0  0  0  0  0  0  0  0  0  0  0
   34.1360   31.2100   43.4260 C   0  0  0  0  0  0  0  0  0  0  0  0
   33.1090   31.9500   42.8080 C   0  0  0  0  0  0  0  0  0  0  0  0
   31.8080   31.5960   43.0970 N   0  0  0  0  0  0  0  0  0  0  0  0
   31.5080   30.5840   43.9360 C   0  0  0  0  0  0  0  0  0  0  0  0
   32.4760   29.8920   44.5140 N   0  0  0  0  0  0  0  0  0  0  0  0
   30.1420   30.2920   44.1830 N   0  0  0  0  0  0  0  0  0  0  0  0
   29.2020   30.4090   43.2360 C   0  0  0  0  0  0  0  0  0  0  0  0
   27.8730   30.1350   43.4650 C   0  0  0  0  0  0  0  0  0  0  0  0
   27.5830   29.7300   44.7410 C   0  0  0  0  0  0  0  0  0  0  0  0
   26.3910   29.4510   45.0600 O   0  0  0  0  0  0  0  0  0  0  0  0
   28.4700   29.5920   45.7350 N   0  0  0  0  0  0  0  0  0  0  0  0
   29.7570   29.8840   45.4200 C   0  0  0  0  0  0  0  0  0  0  0  0
   30.6170   29.7620   46.3390 O   0  0  0  0  0  0  0  0  0  0  0  0
   27.6450   27.8620   49.4630 C   0  0  0  0  0  0  0  0  0  0  0  0
   27.5080   29.2260   49.3370 C   0  0  0  0  0  0  0  0  0  0  0  0
   27.7570   29.8870   48.1580 C   0  0  0  0  0  0  0  0  0  0  0  0
   28.1550   29.1690   47.0560 C   0  0  0  0  0  0  0  0  0  0  0  0
   28.3000   27.7810   47.1590 C   0  0  0  0  0  0  0  0  0  0  0  0
   28.0450   27.1180   48.3670 C   0  0  0  0  0  0  0  0  0  0  0  0
   27.3190   27.0810   50.9710 S   0  0  0  0  0  0  0  0  0  0  0  0
   28.4800   27.0200   51.8870 O   0  0  0  0  0  0  0  0  0  0  0  0
   26.1700   27.8100   51.6340 O   0  0  0  0  0  0  0  0  0  0  0  0
   26.8040   30.2610   42.4600 C   0  0  0  0  0  0  0  0  0  0  0  0
   25.9190   31.2550   42.8980 O   0  0  0  0  0  0  0  0  0  0  0  0
   34.5449   29.5620   44.7948 H   0  0  0  0  0  0  0  0  0  0  0  0
   35.1942   31.4432   43.2365 H   0  0  0  0  0  0  0  0  0  0  0  0
   33.3362   32.7786   42.1211 H   0  0  0  0  0  0  0  0  0  0  0  0
   29.5056   30.7385   42.2314 H   0  0  0  0  0  0  0  0  0  0  0  0
   27.1871   29.8089   50.2130 H   0  0  0  0  0  0  0  0  0  0  0  0
   27.6390   30.9790   48.0972 H   0  0  0  0  0  0  0  0  0  0  0  0
   28.6186   27.2023   46.2795 H   0  0  0  0  0  0  0  0  0  0  0  0
   28.1606   26.0267   48.4425 H   0  0  0  0  0  0  0  0  0  0  0  0
   27.0059   25.7750   50.7004 H   0  0  0  0  0  0  0  0  0  0  0  0
   26.2712   29.3040   42.3585 H   0  0  0  0  0  0  0  0  0  0  0  0
   27.2273   30.5281   41.4804 H   0  0  0  0  0  0  0  0  0  0  0  0
   25.9046   31.2712   43.8878 H   0  0  0  0  0  0  0  0  0  0  0  0
  1  6  2  0
  2  1  1  0
  3  4  1  0
  3  2  2  0
  4  5  2  0
  5  7  1  0
  5  6  1  0
  7 13  1  0
  8  9  2  0
  8  7  1  0
  9 10  1  0
 10 11  2  0
 10 12  1  0
 12 18  1  0
 13 12  1  0
 13 14  2  0
 15 21  1  0
 16 15  2  0
 17 16  1  0
 18 19  1  0
 18 17  2  0
 19 20  2  0
 20 15  1  0
 21 23  2  0
 21 22  2  0
 24 25  1  0
 24  9  1  0
  1 26  1  0
  2 27  1  0
  3 28  1  0
  8 29  1  0
 16 30  1  0
 17 31  1  0
 19 32  1  0
 20 33  1  0
 21 34  1  0
 24 35  1  0
 24 36  1  0
 25 37  1  0
M  ISO  8  26  14  27  14  28  14  29  14  30  14  31  14  32  14  33  14
M  ISO  4  34  11  35   8  36   8  37   3
M  END
>  <minimizedAffinity>  (1) 
-4.38332558

>  <minimizedRMSD>  (1) 
0.0739690363

$$$$
