
     RDKit          3D

 18 18  0  0  0  0  0  0  0  0999 V2000
   37.0250   30.2640   51.1270 C   0  0  0  0  0  0  0  0  0  0  0  0
   37.5050   30.6920   49.8850 C   0  0  0  0  0  0  0  0  0  0  0  0
   36.9060   30.1690   48.7430 C   0  0  0  0  0  0  0  0  0  0  0  0
   35.8860   29.2690   48.8890 N   0  0  0  0  0  0  0  0  0  0  0  0
   35.4390   28.8690   50.1010 C   0  0  0  0  0  0  0  0  0  0  0  0
   36.0120   29.3690   51.2100 N   0  0  0  0  0  0  0  0  0  0  0  0
   38.5890   31.6470   49.8690 C   0  0  0  0  0  0  0  0  0  0  0  0
   38.5330   32.3910   48.5370 C   0  0  0  0  0  0  0  0  0  0  0  0
   38.5640   33.8130   48.7090 N   0  0  0  0  0  0  0  0  0  0  0  0
   37.4764   30.6597   52.0488 H   0  0  0  0  0  0  0  0  0  0  0  0
   37.2461   30.4734   47.7421 H   0  0  0  0  0  0  0  0  0  0  0  0
   34.6162   28.1431   50.1788 H   0  0  0  0  0  0  0  0  0  0  0  0
   38.4740   32.3581   50.7004 H   0  0  0  0  0  0  0  0  0  0  0  0
   39.5555   31.1345   49.9835 H   0  0  0  0  0  0  0  0  0  0  0  0
   37.6029   32.1173   48.0173 H   0  0  0  0  0  0  0  0  0  0  0  0
   39.4187   32.1025   47.9519 H   0  0  0  0  0  0  0  0  0  0  0  0
   38.5689   34.0372   49.7143 H   0  0  0  0  0  0  0  0  0  0  0  0
   39.4135   34.1937   48.2682 H   0  0  0  0  0  0  0  0  0  0  0  0
  1  6  2  0
  2  1  1  0
  3  4  1  0
  3  2  2  0
  4  5  2  0
  5  6  1  0
  7  2  1  0
  8  9  1  0
  8  7  1  0
  1 10  1  0
  3 11  1  0
  5 12  1  0
  7 13  1  0
  7 14  1  0
  8 15  1  0
  8 16  1  0
  9 17  1  0
  9 18  1  0
M  ISO  8  10  14  11  14  12  14  13   8  14   8  15   8  16   8  17   5
M  ISO  1  18   5
M  END
>  <minimizedAffinity>  (1) 
-3.73826122

>  <minimizedRMSD>  (1) 
0.994212985

$$$$
