
     RDKit          3D

 17 17  0  0  0  0  0  0  0  0999 V2000
   36.7740   30.0670   51.2010 C   0  0  0  0  0  0  0  0  0  0  0  0
   37.3660   30.4570   49.9990 C   0  0  0  0  0  0  0  0  0  0  0  0
   36.8110   29.9650   48.8220 C   0  0  0  0  0  0  0  0  0  0  0  0
   35.7430   29.1440   48.9120 N   0  0  0  0  0  0  0  0  0  0  0  0
   35.1860   28.7800   50.0910 C   0  0  0  0  0  0  0  0  0  0  0  0
   35.7020   29.2410   51.2320 N   0  0  0  0  0  0  0  0  0  0  0  0
   38.5050   31.3370   50.0810 C   0  0  0  0  0  0  0  0  0  0  0  0
   38.4880   32.2500   48.8660 C   0  0  0  0  0  0  0  0  0  0  0  0
   37.9090   33.4560   49.2900 O   0  0  0  0  0  0  0  0  0  0  0  0
   37.1895   30.4407   52.1485 H   0  0  0  0  0  0  0  0  0  0  0  0
   37.2316   30.2380   47.8429 H   0  0  0  0  0  0  0  0  0  0  0  0
   34.3144   28.1091   50.1083 H   0  0  0  0  0  0  0  0  0  0  0  0
   38.4453   31.9388   50.9999 H   0  0  0  0  0  0  0  0  0  0  0  0
   39.4363   30.7521   50.1038 H   0  0  0  0  0  0  0  0  0  0  0  0
   37.8880   31.8015   48.0605 H   0  0  0  0  0  0  0  0  0  0  0  0
   39.5020   32.4096   48.4706 H   0  0  0  0  0  0  0  0  0  0  0  0
   37.8949   33.4854   50.2795 H   0  0  0  0  0  0  0  0  0  0  0  0
  1  6  2  0
  2  7  1  0
  2  1  1  0
  3  4  1  0
  3  2  2  0
  4  5  2  0
  5  6  1  0
  8  9  1  0
  8  7  1  0
  1 10  1  0
  3 11  1  0
  5 12  1  0
  7 13  1  0
  7 14  1  0
  8 15  1  0
  8 16  1  0
  9 17  1  0
M  ISO  8  10  14  11  14  12  14  13   8  14   8  15   8  16   8  17   3
M  END
>  <minimizedAffinity>  (1) 
-3.53754926

>  <minimizedRMSD>  (1) 
0.880217195

$$$$
