
     RDKit          3D

 24 25  0  0  0  0  0  0  0  0999 V2000
   38.4750   31.5960   49.5670 C   0  0  0  0  0  0  0  0  0  0  0  0
   37.2720   30.0690   51.0880 C   0  0  0  0  0  0  0  0  0  0  0  0
   37.2780   30.8690   49.9250 C   0  0  0  0  0  0  0  0  0  0  0  0
   36.1030   30.9100   49.1760 C   0  0  0  0  0  0  0  0  0  0  0  0
   35.0290   30.1880   49.5990 N   0  0  0  0  0  0  0  0  0  0  0  0
   35.0540   29.4380   50.7070 C   0  0  0  0  0  0  0  0  0  0  0  0
   36.1740   29.3870   51.4390 N   0  0  0  0  0  0  0  0  0  0  0  0
   38.0950   32.6490   48.5090 C   0  0  0  0  0  0  0  0  0  0  0  0
   38.9380   32.3280   47.3140 C   0  0  0  0  0  0  0  0  0  0  0  0
   38.9180   31.0780   46.7690 C   0  0  0  0  0  0  0  0  0  0  0  0
   39.6800   30.7340   45.6640 C   0  0  0  0  0  0  0  0  0  0  0  0
   40.4620   31.7110   45.1390 N   0  0  0  0  0  0  0  0  0  0  0  0
   40.4980   32.9510   45.6600 C   0  0  0  0  0  0  0  0  0  0  0  0
   39.7410   33.2680   46.7470 N   0  0  0  0  0  0  0  0  0  0  0  0
   38.8895   32.0933   50.4563 H   0  0  0  0  0  0  0  0  0  0  0  0
   39.2337   30.9081   49.1656 H   0  0  0  0  0  0  0  0  0  0  0  0
   38.1763   30.0052   51.7110 H   0  0  0  0  0  0  0  0  0  0  0  0
   36.0446   31.5151   48.2592 H   0  0  0  0  0  0  0  0  0  0  0  0
   34.1636   28.8693   51.0133 H   0  0  0  0  0  0  0  0  0  0  0  0
   37.0265   32.5754   48.2581 H   0  0  0  0  0  0  0  0  0  0  0  0
   38.2667   33.6740   48.8694 H   0  0  0  0  0  0  0  0  0  0  0  0
   38.2718   30.3131   47.2244 H   0  0  0  0  0  0  0  0  0  0  0  0
   39.6525   29.7216   45.2347 H   0  0  0  0  0  0  0  0  0  0  0  0
   41.1444   33.7154   45.2041 H   0  0  0  0  0  0  0  0  0  0  0  0
  1  3  1  0
  2  7  2  0
  3  2  1  0
  4  5  1  0
  4  3  2  0
  5  6  2  0
  6  7  1  0
  8  1  1  0
  9  8  1  0
 10  9  2  0
 11 10  1  0
 12 13  1  0
 12 11  2  0
 13 14  2  0
 14  9  1  0
  1 15  1  0
  1 16  1  0
  2 17  1  0
  4 18  1  0
  6 19  1  0
  8 20  1  0
  8 21  1  0
 10 22  1  0
 11 23  1  0
 13 24  1  0
M  ISO  8  15   8  16   8  17  14  18  14  19  14  20   8  21   8  22  14
M  ISO  2  23  14  24  14
M  END
>  <minimizedAffinity>  (1) 
-4.86666632

>  <minimizedRMSD>  (1) 
2.72906303

$$$$
