
     RDKit          3D

 31 33  0  0  0  0  0  0  0  0999 V2000
   36.7470   31.3080   49.8460 C   0  0  0  0  0  0  0  0  0  0  0  0
   37.8020   32.1400   49.1610 C   0  0  0  0  0  0  0  0  0  0  0  0
   38.3290   33.2560   49.7650 C   0  0  0  0  0  0  0  0  0  0  0  0
   39.2810   34.0390   49.1560 C   0  0  0  0  0  0  0  0  0  0  0  0
   39.6860   33.6650   47.9190 N   0  0  0  0  0  0  0  0  0  0  0  0
   39.1890   32.5850   47.3100 C   0  0  0  0  0  0  0  0  0  0  0  0
   38.2550   31.8310   47.9270 N   0  0  0  0  0  0  0  0  0  0  0  0
   39.6530   32.2440   46.0120 N   0  0  0  0  0  0  0  0  0  0  0  0
   40.2300   31.1120   45.5690 C   0  0  0  0  0  0  0  0  0  0  0  0
   40.5270   31.2070   44.2260 C   0  0  0  0  0  0  0  0  0  0  0  0
   40.1210   32.4370   43.8300 N   0  0  0  0  0  0  0  0  0  0  0  0
   39.6100   33.0160   44.9170 C   0  0  0  0  0  0  0  0  0  0  0  0
   36.8810   29.9270   49.2610 C   0  0  0  0  0  0  0  0  0  0  0  0
   34.9570   28.4090   49.4340 C   0  0  0  0  0  0  0  0  0  0  0  0
   35.6350   29.4350   48.7720 C   0  0  0  0  0  0  0  0  0  0  0  0
   35.0460   29.9490   47.6390 C   0  0  0  0  0  0  0  0  0  0  0  0
   33.8460   29.4610   47.2000 N   0  0  0  0  0  0  0  0  0  0  0  0
   33.2150   28.4740   47.8590 C   0  0  0  0  0  0  0  0  0  0  0  0
   33.7760   27.9700   48.9520 N   0  0  0  0  0  0  0  0  0  0  0  0
   36.9213   31.2841   50.9318 H   0  0  0  0  0  0  0  0  0  0  0  0
   35.7388   31.7202   49.6923 H   0  0  0  0  0  0  0  0  0  0  0  0
   37.9773   33.5324   50.7699 H   0  0  0  0  0  0  0  0  0  0  0  0
   39.6952   34.9295   49.6514 H   0  0  0  0  0  0  0  0  0  0  0  0
   40.4367   30.2304   46.1936 H   0  0  0  0  0  0  0  0  0  0  0  0
   41.0002   30.4362   43.5999 H   0  0  0  0  0  0  0  0  0  0  0  0
   39.1917   34.0334   44.9153 H   0  0  0  0  0  0  0  0  0  0  0  0
   37.6011   29.9608   48.4301 H   0  0  0  0  0  0  0  0  0  0  0  0
   37.2265   29.2509   50.0570 H   0  0  0  0  0  0  0  0  0  0  0  0
   35.3838   27.9613   50.3436 H   0  0  0  0  0  0  0  0  0  0  0  0
   35.5435   30.7574   47.0831 H   0  0  0  0  0  0  0  0  0  0  0  0
   32.2493   28.0899   47.4987 H   0  0  0  0  0  0  0  0  0  0  0  0
  2  3  2  0
  2  1  1  0
  4  3  1  0
  5  4  2  0
  6  5  1  0
  6  7  2  0
  7  2  1  0
  8  6  1  0
  9  8  1  0
 10  9  2  0
 11 10  1  0
 11 12  2  0
 12  8  1  0
 13  1  1  0
 15 13  1  0
 15 14  2  0
 16 15  1  0
 17 16  2  0
 17 18  1  0
 18 19  2  0
 19 14  1  0
  1 20  1  0
  1 21  1  0
  3 22  1  0
  4 23  1  0
  9 24  1  0
 10 25  1  0
 12 26  1  0
 13 27  1  0
 13 28  1  0
 14 29  1  0
 16 30  1  0
 18 31  1  0
M  ISO  8  20   8  21   8  22  14  23  14  24  14  25  14  26  14  27   8
M  ISO  4  28   8  29  14  30  14  31  14
M  END
>  <minimizedAffinity>  (1) 
-6.01156092

>  <minimizedRMSD>  (1) 
3.27510309

$$$$
