
     RDKit          3D

 37 39  0  0  0  0  0  0  0  0999 V2000
   38.7430   32.1000   46.4830 C   0  0  0  0  0  0  0  0  0  0  0  0
   39.9520   31.5060   46.2920 C   0  0  0  0  0  0  0  0  0  0  0  0
   40.4650   31.2610   45.0300 C   0  0  0  0  0  0  0  0  0  0  0  0
   39.7030   31.6450   43.9800 N   0  0  0  0  0  0  0  0  0  0  0  0
   38.5140   32.2300   44.1420 C   0  0  0  0  0  0  0  0  0  0  0  0
   38.0350   32.4560   45.3850 N   0  0  0  0  0  0  0  0  0  0  0  0
   37.6620   32.6560   43.0800 N   0  0  0  0  0  0  0  0  0  0  0  0
   36.3490   32.3970   43.3450 C   0  0  0  0  0  0  0  0  0  0  0  0
   35.3720   32.7390   42.4340 C   0  0  0  0  0  0  0  0  0  0  0  0
   33.9200   32.4940   42.6390 C   0  0  0  0  0  0  0  0  0  0  0  0
   35.7730   33.3480   41.2520 C   0  0  0  0  0  0  0  0  0  0  0  0
   34.9540   33.6920   40.3690 O   0  0  0  0  0  0  0  0  0  0  0  0
   37.0730   33.5840   41.0320 N   0  0  0  0  0  0  0  0  0  0  0  0
   38.0230   33.2480   41.9260 C   0  0  0  0  0  0  0  0  0  0  0  0
   39.2610   33.4190   41.8280 O   0  0  0  0  0  0  0  0  0  0  0  0
   38.2160   32.3670   47.8710 C   0  0  0  0  0  0  0  0  0  0  0  0
   38.5260   31.1290   48.6700 C   0  0  0  0  0  0  0  0  0  0  0  0
   37.4100   29.9480   50.5110 C   0  0  0  0  0  0  0  0  0  0  0  0
   37.3500   30.5730   49.2620 C   0  0  0  0  0  0  0  0  0  0  0  0
   36.1250   30.6380   48.6440 C   0  0  0  0  0  0  0  0  0  0  0  0
   35.0180   30.1060   49.2450 N   0  0  0  0  0  0  0  0  0  0  0  0
   35.1030   29.5090   50.4480 C   0  0  0  0  0  0  0  0  0  0  0  0
   36.2830   29.4400   51.0540 N   0  0  0  0  0  0  0  0  0  0  0  0
   40.5426   31.2100   47.1715 H   0  0  0  0  0  0  0  0  0  0  0  0
   41.4432   30.7783   44.8879 H   0  0  0  0  0  0  0  0  0  0  0  0
   36.0679   31.9122   44.2915 H   0  0  0  0  0  0  0  0  0  0  0  0
   33.7029   32.4574   43.7167 H   0  0  0  0  0  0  0  0  0  0  0  0
   33.3420   33.3073   42.1760 H   0  0  0  0  0  0  0  0  0  0  0  0
   33.6408   31.5361   42.1760 H   0  0  0  0  0  0  0  0  0  0  0  0
   37.3553   34.0369   40.1510 H   0  0  0  0  0  0  0  0  0  0  0  0
   38.7175   33.2422   48.3098 H   0  0  0  0  0  0  0  0  0  0  0  0
   37.1377   32.5841   47.8609 H   0  0  0  0  0  0  0  0  0  0  0  0
   38.9785   30.3792   48.0043 H   0  0  0  0  0  0  0  0  0  0  0  0
   39.2178   31.4074   49.4786 H   0  0  0  0  0  0  0  0  0  0  0  0
   38.3675   29.8707   51.0470 H   0  0  0  0  0  0  0  0  0  0  0  0
   36.0340   31.1209   47.6598 H   0  0  0  0  0  0  0  0  0  0  0  0
   34.2069   29.0836   50.9234 H   0  0  0  0  0  0  0  0  0  0  0  0
  1 16  1  0
  2  1  2  0
  3  2  1  0
  4  5  1  0
  4  3  2  0
  5  6  2  0
  6  1  1  0
  7  8  1  0
  7  5  1  0
  9 10  1  0
  9  8  2  0
 11  9  1  0
 12 11  2  0
 13 11  1  0
 13 14  1  0
 14  7  1  0
 15 14  2  0
 16 17  1  0
 17 19  1  0
 18 23  2  0
 19 18  1  0
 20 21  1  0
 20 19  2  0
 21 22  2  0
 22 23  1  0
  2 24  1  0
  3 25  1  0
  8 26  1  0
 10 27  1  0
 10 28  1  0
 10 29  1  0
 13 30  1  0
 16 31  1  0
 16 32  1  0
 17 33  1  0
 17 34  1  0
 18 35  1  0
 20 36  1  0
 22 37  1  0
M  ISO  8  24  14  25  14  26  14  27   8  28   8  29   8  30   9  31   8
M  ISO  6  32   8  33   8  34   8  35  14  36  14  37  14
M  END
>  <minimizedAffinity>  (1) 
-5.72187138

>  <minimizedRMSD>  (1) 
4.43901777

$$$$
