
     RDKit          3D

 27 28  0  0  0  0  0  0  0  0999 V2000
   38.2230   32.3770   49.2310 C   0  0  0  0  0  0  0  0  0  0  0  0
   38.5120   31.9030   47.8310 C   0  0  0  0  0  0  0  0  0  0  0  0
   38.0300   30.6990   47.3750 C   0  0  0  0  0  0  0  0  0  0  0  0
   38.3090   30.2390   46.1040 C   0  0  0  0  0  0  0  0  0  0  0  0
   39.0800   31.0240   45.3170 N   0  0  0  0  0  0  0  0  0  0  0  0
   39.5580   32.2000   45.7480 C   0  0  0  0  0  0  0  0  0  0  0  0
   39.2800   32.6440   46.9920 N   0  0  0  0  0  0  0  0  0  0  0  0
   40.4090   33.0690   44.8840 C   0  0  0  0  0  0  0  0  0  0  0  0
   41.7340   32.8820   45.2650 F   0  0  0  0  0  0  0  0  0  0  0  0
   40.2050   32.7650   43.5520 F   0  0  0  0  0  0  0  0  0  0  0  0
   40.1430   34.4100   45.0990 F   0  0  0  0  0  0  0  0  0  0  0  0
   38.2200   31.1350   50.0810 C   0  0  0  0  0  0  0  0  0  0  0  0
   36.6610   29.5260   51.0980 C   0  0  0  0  0  0  0  0  0  0  0  0
   36.9000   30.6170   50.2550 C   0  0  0  0  0  0  0  0  0  0  0  0
   35.8120   31.1650   49.6120 C   0  0  0  0  0  0  0  0  0  0  0  0
   34.5640   30.6390   49.8120 N   0  0  0  0  0  0  0  0  0  0  0  0
   34.3610   29.6020   50.6190 C   0  0  0  0  0  0  0  0  0  0  0  0
   35.4040   29.0650   51.2440 N   0  0  0  0  0  0  0  0  0  0  0  0
   37.2432   32.8752   49.2741 H   0  0  0  0  0  0  0  0  0  0  0  0
   38.9685   33.1079   49.5774 H   0  0  0  0  0  0  0  0  0  0  0  0
   37.4052   30.0858   48.0410 H   0  0  0  0  0  0  0  0  0  0  0  0
   37.9206   29.2742   45.7458 H   0  0  0  0  0  0  0  0  0  0  0  0
   38.8424   30.3691   49.5952 H   0  0  0  0  0  0  0  0  0  0  0  0
   38.6190   31.3968   51.0721 H   0  0  0  0  0  0  0  0  0  0  0  0
   37.4928   29.0489   51.6369 H   0  0  0  0  0  0  0  0  0  0  0  0
   35.9458   32.0244   48.9385 H   0  0  0  0  0  0  0  0  0  0  0  0
   33.3493   29.1962   50.7666 H   0  0  0  0  0  0  0  0  0  0  0  0
  1 12  1  0
  2  1  1  0
  3  2  2  0
  4  3  1  0
  5  6  1  0
  5  4  2  0
  6  7  2  0
  7  2  1  0
  8 11  1  0
  8  9  1  0
  8  6  1  0
 10  8  1  0
 12 14  1  0
 13 18  2  0
 14 13  1  0
 15 16  1  0
 15 14  2  0
 16 17  2  0
 17 18  1  0
  1 19  1  0
  1 20  1  0
  3 21  1  0
  4 22  1  0
 12 23  1  0
 12 24  1  0
 13 25  1  0
 15 26  1  0
 17 27  1  0
M  ISO  8  19   8  20   8  21  14  22  14  23   8  24   8  25  14  26  14
M  ISO  1  27  14
M  END
>  <minimizedAffinity>  (1) 
-5.51738882

>  <minimizedRMSD>  (1) 
1.09535253

$$$$
