
     RDKit          3D

 31 33  0  0  0  0  0  0  0  0999 V2000
   37.9150   32.2180   47.3290 C   0  0  0  0  0  0  0  0  0  0  0  0
   38.6840   32.1200   46.0360 C   0  0  0  0  0  0  0  0  0  0  0  0
   39.9470   31.5780   46.0090 C   0  0  0  0  0  0  0  0  0  0  0  0
   40.6790   31.4890   44.8450 C   0  0  0  0  0  0  0  0  0  0  0  0
   40.0990   31.9630   43.7140 N   0  0  0  0  0  0  0  0  0  0  0  0
   38.8740   32.4930   43.7180 C   0  0  0  0  0  0  0  0  0  0  0  0
   38.1700   32.5720   44.8670 N   0  0  0  0  0  0  0  0  0  0  0  0
   38.2870   32.9890   42.4880 C   0  0  0  0  0  0  0  0  0  0  0  0
   36.9810   32.9060   42.0670 C   0  0  0  0  0  0  0  0  0  0  0  0
   36.8510   33.4940   40.8640 N   0  0  0  0  0  0  0  0  0  0  0  0
   38.0540   33.9570   40.4990 C   0  0  0  0  0  0  0  0  0  0  0  0
   38.9030   33.6390   41.4960 N   0  0  0  0  0  0  0  0  0  0  0  0
   38.7190   31.4520   48.3410 C   0  0  0  0  0  0  0  0  0  0  0  0
   38.0290   30.8760   50.6310 C   0  0  0  0  0  0  0  0  0  0  0  0
   37.8760   30.7350   49.2460 C   0  0  0  0  0  0  0  0  0  0  0  0
   36.8880   29.8840   48.8070 C   0  0  0  0  0  0  0  0  0  0  0  0
   36.1040   29.2180   49.7130 N   0  0  0  0  0  0  0  0  0  0  0  0
   36.2710   29.3710   51.0230 C   0  0  0  0  0  0  0  0  0  0  0  0
   37.2220   30.1910   51.4570 N   0  0  0  0  0  0  0  0  0  0  0  0
   36.9161   31.7715   47.2156 H   0  0  0  0  0  0  0  0  0  0  0  0
   37.7687   33.2643   47.6354 H   0  0  0  0  0  0  0  0  0  0  0  0
   40.3868   31.2039   46.9453 H   0  0  0  0  0  0  0  0  0  0  0  0
   41.6888   31.0530   44.8334 H   0  0  0  0  0  0  0  0  0  0  0  0
   36.1644   32.4300   42.6296 H   0  0  0  0  0  0  0  0  0  0  0  0
   38.3001   34.4911   39.5694 H   0  0  0  0  0  0  0  0  0  0  0  0
   39.9069   33.8694   41.4938 H   0  0  0  0  0  0  0  0  0  0  0  0
   39.3682   30.7369   47.8146 H   0  0  0  0  0  0  0  0  0  0  0  0
   39.3170   32.1699   48.9216 H   0  0  0  0  0  0  0  0  0  0  0  0
   38.8036   31.5422   51.0386 H   0  0  0  0  0  0  0  0  0  0  0  0
   36.7272   29.7380   47.7287 H   0  0  0  0  0  0  0  0  0  0  0  0
   35.6327   28.8279   51.7355 H   0  0  0  0  0  0  0  0  0  0  0  0
  1 13  1  0
  2  1  1  0
  3  2  2  0
  4  3  1  0
  5  6  1  0
  5  4  2  0
  6  7  2  0
  7  2  1  0
  8  6  1  0
  9  8  2  0
 10  9  1  0
 11 10  2  0
 11 12  1  0
 12  8  1  0
 13 15  1  0
 14 19  2  0
 15 14  1  0
 16 15  2  0
 16 17  1  0
 17 18  2  0
 18 19  1  0
  1 20  1  0
  1 21  1  0
  3 22  1  0
  4 23  1  0
  9 24  1  0
 11 25  1  0
 12 26  1  0
 13 27  1  0
 13 28  1  0
 14 29  1  0
 16 30  1  0
 18 31  1  0
M  ISO  8  20   8  21   8  22  14  23  14  24  14  25  14  26   9  27   8
M  ISO  4  28   8  29  14  30  14  31  14
M  END
>  <minimizedAffinity>  (1) 
-5.20032883

>  <minimizedRMSD>  (1) 
3.13823748

$$$$
