
     RDKit          3D

 29 31  0  0  0  0  0  0  0  0999 V2000
   38.0350   32.0490   47.4280 C   0  0  0  0  0  0  0  0  0  0  0  0
   38.7920   31.9920   46.1300 C   0  0  0  0  0  0  0  0  0  0  0  0
   40.0340   31.4290   46.0600 C   0  0  0  0  0  0  0  0  0  0  0  0
   40.7630   31.3840   44.8870 C   0  0  0  0  0  0  0  0  0  0  0  0
   40.1830   31.9270   43.7900 N   0  0  0  0  0  0  0  0  0  0  0  0
   38.9680   32.4810   43.8380 C   0  0  0  0  0  0  0  0  0  0  0  0
   38.2730   32.5170   44.9920 N   0  0  0  0  0  0  0  0  0  0  0  0
   38.3640   33.0620   42.6410 C   0  0  0  0  0  0  0  0  0  0  0  0
   38.9710   33.7040   41.6270 N   0  0  0  0  0  0  0  0  0  0  0  0
   38.0850   34.0770   40.7360 O   0  0  0  0  0  0  0  0  0  0  0  0
   36.8780   33.6930   41.1350 C   0  0  0  0  0  0  0  0  0  0  0  0
   37.0580   33.0650   42.3180 N   0  0  0  0  0  0  0  0  0  0  0  0
   38.3000   30.7370   48.1110 C   0  0  0  0  0  0  0  0  0  0  0  0
   37.4040   29.6980   50.1590 C   0  0  0  0  0  0  0  0  0  0  0  0
   37.1940   30.3200   48.9090 C   0  0  0  0  0  0  0  0  0  0  0  0
   35.8920   30.5020   48.4980 C   0  0  0  0  0  0  0  0  0  0  0  0
   34.8630   30.0820   49.3000 N   0  0  0  0  0  0  0  0  0  0  0  0
   35.0890   29.5000   50.4720 C   0  0  0  0  0  0  0  0  0  0  0  0
   36.3430   29.3130   50.8910 N   0  0  0  0  0  0  0  0  0  0  0  0
   36.9584   32.1725   47.2391 H   0  0  0  0  0  0  0  0  0  0  0  0
   38.3538   32.9007   48.0469 H   0  0  0  0  0  0  0  0  0  0  0  0
   40.4706   30.9950   46.9716 H   0  0  0  0  0  0  0  0  0  0  0  0
   41.7641   30.9300   44.8462 H   0  0  0  0  0  0  0  0  0  0  0  0
   35.9252   33.8535   40.6093 H   0  0  0  0  0  0  0  0  0  0  0  0
   38.4955   29.9710   47.3461 H   0  0  0  0  0  0  0  0  0  0  0  0
   39.1686   30.8668   48.7734 H   0  0  0  0  0  0  0  0  0  0  0  0
   38.4255   29.5298   50.5308 H   0  0  0  0  0  0  0  0  0  0  0  0
   35.6792   30.9818   47.5313 H   0  0  0  0  0  0  0  0  0  0  0  0
   34.2448   29.1725   51.0965 H   0  0  0  0  0  0  0  0  0  0  0  0
  1 13  1  0
  2  1  1  0
  3  2  2  0
  4  3  1  0
  5  6  1  0
  5  4  2  0
  6  7  2  0
  7  2  1  0
  8  6  1  0
  9  8  2  0
 10 11  1  0
 10  9  1  0
 11 12  2  0
 12  8  1  0
 13 15  1  0
 14 19  2  0
 15 14  1  0
 16 15  2  0
 16 17  1  0
 17 18  2  0
 18 19  1  0
  1 20  1  0
  1 21  1  0
  3 22  1  0
  4 23  1  0
 11 24  1  0
 13 25  1  0
 13 26  1  0
 14 27  1  0
 16 28  1  0
 18 29  1  0
M  ISO  8  20   8  21   8  22  14  23  14  24  14  25   8  26   8  27  14
M  ISO  2  28  14  29  14
M  END
>  <minimizedAffinity>  (1) 
-5.10590982

>  <minimizedRMSD>  (1) 
3.02430606

$$$$
