
     RDKit          3D

 25 26  0  0  0  0  0  0  0  0999 V2000
   38.1780   32.4020   48.9340 C   0  0  0  0  0  0  0  0  0  0  0  0
   38.7020   32.0280   47.5760 C   0  0  0  0  0  0  0  0  0  0  0  0
   38.4750   30.7960   47.0530 C   0  0  0  0  0  0  0  0  0  0  0  0
   38.9700   30.4060   45.8160 C   0  0  0  0  0  0  0  0  0  0  0  0
   39.7030   31.3290   45.1440 N   0  0  0  0  0  0  0  0  0  0  0  0
   39.9350   32.5460   45.6460 C   0  0  0  0  0  0  0  0  0  0  0  0
   39.4440   32.9060   46.8490 N   0  0  0  0  0  0  0  0  0  0  0  0
   40.6990   33.4080   44.8690 O   0  0  0  0  0  0  0  0  0  0  0  0
   38.2440   31.1530   49.7560 C   0  0  0  0  0  0  0  0  0  0  0  0
   36.7760   29.6300   51.0080 C   0  0  0  0  0  0  0  0  0  0  0  0
   36.9450   30.6310   50.0110 C   0  0  0  0  0  0  0  0  0  0  0  0
   35.8230   31.0530   49.3430 C   0  0  0  0  0  0  0  0  0  0  0  0
   34.6060   30.5220   49.6390 N   0  0  0  0  0  0  0  0  0  0  0  0
   34.4650   29.5750   50.5880 C   0  0  0  0  0  0  0  0  0  0  0  0
   35.5500   29.1400   51.2610 N   0  0  0  0  0  0  0  0  0  0  0  0
   37.1394   32.7567   48.8593 H   0  0  0  0  0  0  0  0  0  0  0  0
   38.7667   33.2144   49.3849 H   0  0  0  0  0  0  0  0  0  0  0  0
   37.8752   30.0785   47.6322 H   0  0  0  0  0  0  0  0  0  0  0  0
   38.7786   29.4044   45.4036 H   0  0  0  0  0  0  0  0  0  0  0  0
   40.9001   34.3211   45.1945 H   0  0  0  0  0  0  0  0  0  0  0  0
   38.8331   30.3984   49.2141 H   0  0  0  0  0  0  0  0  0  0  0  0
   38.7148   31.3969   50.7198 H   0  0  0  0  0  0  0  0  0  0  0  0
   37.6456   29.2583   51.5698 H   0  0  0  0  0  0  0  0  0  0  0  0
   35.9082   31.8249   48.5639 H   0  0  0  0  0  0  0  0  0  0  0  0
   33.4714   29.1596   50.8121 H   0  0  0  0  0  0  0  0  0  0  0  0
  1  9  1  0
  2  1  1  0
  3  2  2  0
  4  3  1  0
  5  6  1  0
  5  4  2  0
  6  7  2  0
  7  2  1  0
  8  6  1  0
  9 11  1  0
 10 15  2  0
 11 10  1  0
 12 13  1  0
 12 11  2  0
 13 14  2  0
 14 15  1  0
  1 16  1  0
  1 17  1  0
  3 18  1  0
  4 19  1  0
  8 20  1  0
  9 21  1  0
  9 22  1  0
 10 23  1  0
 12 24  1  0
 14 25  1  0
M  ISO  8  16   8  17   8  18  14  19  14  20   3  21   8  22   8  23  14
M  ISO  2  24  14  25  14
M  END
>  <minimizedAffinity>  (1) 
-4.93588829

>  <minimizedRMSD>  (1) 
0.620444179

$$$$
