
     RDKit          3D

 31 33  0  0  0  0  0  0  0  0999 V2000
   38.2680   32.3650   49.2350 C   0  0  0  0  0  0  0  0  0  0  0  0
   38.6000   31.8510   47.8590 C   0  0  0  0  0  0  0  0  0  0  0  0
   38.1250   30.6480   47.4160 C   0  0  0  0  0  0  0  0  0  0  0  0
   38.4360   30.1510   46.1650 C   0  0  0  0  0  0  0  0  0  0  0  0
   39.2360   30.9050   45.3870 N   0  0  0  0  0  0  0  0  0  0  0  0
   39.7130   32.0880   45.8040 C   0  0  0  0  0  0  0  0  0  0  0  0
   39.4000   32.5620   47.0290 N   0  0  0  0  0  0  0  0  0  0  0  0
   40.5870   32.8270   44.8520 C   0  0  0  0  0  0  0  0  0  0  0  0
   40.0160   34.1740   44.4620 C   0  0  0  0  0  0  0  0  0  0  0  0
   40.1600   33.0730   43.4670 C   0  0  0  0  0  0  0  0  0  0  0  0
   38.2370   31.1590   50.1260 C   0  0  0  0  0  0  0  0  0  0  0  0
   36.6650   29.5410   51.1120 C   0  0  0  0  0  0  0  0  0  0  0  0
   36.9150   30.6340   50.2730 C   0  0  0  0  0  0  0  0  0  0  0  0
   35.8420   31.1770   49.6100 C   0  0  0  0  0  0  0  0  0  0  0  0
   34.5910   30.6560   49.7780 N   0  0  0  0  0  0  0  0  0  0  0  0
   34.3770   29.6070   50.5870 C   0  0  0  0  0  0  0  0  0  0  0  0
   35.4100   29.0760   51.2320 N   0  0  0  0  0  0  0  0  0  0  0  0
   37.2875   32.8636   49.2312 H   0  0  0  0  0  0  0  0  0  0  0  0
   39.0063   33.1039   49.5799 H   0  0  0  0  0  0  0  0  0  0  0  0
   37.4742   30.0567   48.0769 H   0  0  0  0  0  0  0  0  0  0  0  0
   38.0472   29.1818   45.8195 H   0  0  0  0  0  0  0  0  0  0  0  0
   41.5170   32.4115   45.2673 H   0  0  0  0  0  0  0  0  0  0  0  0
   39.0184   34.4756   44.8139 H   0  0  0  0  0  0  0  0  0  0  0  0
   40.3506   35.2196   44.5314 H   0  0  0  0  0  0  0  0  0  0  0  0
   39.2632   32.5709   43.0750 H   0  0  0  0  0  0  0  0  0  0  0  0
   40.6470   32.9831   42.4848 H   0  0  0  0  0  0  0  0  0  0  0  0
   38.8818   30.3805   49.6922 H   0  0  0  0  0  0  0  0  0  0  0  0
   38.5938   31.4631   51.1211 H   0  0  0  0  0  0  0  0  0  0  0  0
   37.4881   29.0677   51.6675 H   0  0  0  0  0  0  0  0  0  0  0  0
   35.9911   32.0365   48.9398 H   0  0  0  0  0  0  0  0  0  0  0  0
   33.3652   29.1945   50.7138 H   0  0  0  0  0  0  0  0  0  0  0  0
  1 11  1  0
  2  1  1  0
  3  2  2  0
  4  3  1  0
  5  6  1  0
  5  4  2  0
  6  7  2  0
  7  2  1  0
  8  6  1  0
  9  8  1  0
 10  9  1  0
 10  8  1  0
 11 13  1  0
 12 17  2  0
 13 12  1  0
 14 15  1  0
 14 13  2  0
 15 16  2  0
 16 17  1  0
  1 18  1  0
  1 19  1  0
  3 20  1  0
  4 21  1  0
  8 22  1  0
  9 23  1  0
  9 24  1  0
 10 25  1  0
 10 26  1  0
 11 27  1  0
 11 28  1  0
 12 29  1  0
 14 30  1  0
 16 31  1  0
M  ISO  8  18   8  19   8  20  14  21  14  22  13  23  13  24  13  25  13
M  ISO  6  26  13  27   8  28   8  29  14  30  14  31  14
M  END
>  <minimizedAffinity>  (1) 
-4.86328125

>  <minimizedRMSD>  (1) 
1.04409015

$$$$
