
     RDKit          3D

 26 27  0  0  0  0  0  0  0  0999 V2000
   38.1240   32.5090   48.7090 C   0  0  0  0  0  0  0  0  0  0  0  0
   38.6950   32.1550   47.3590 C   0  0  0  0  0  0  0  0  0  0  0  0
   38.7090   30.8530   46.9140 C   0  0  0  0  0  0  0  0  0  0  0  0
   39.2450   30.5150   45.6890 C   0  0  0  0  0  0  0  0  0  0  0  0
   39.7560   31.5080   44.9370 N   0  0  0  0  0  0  0  0  0  0  0  0
   39.7510   32.7840   45.3540 C   0  0  0  0  0  0  0  0  0  0  0  0
   39.2270   33.1100   46.5540 N   0  0  0  0  0  0  0  0  0  0  0  0
   40.2620   33.9090   44.6480 N   0  0  0  0  0  0  0  0  0  0  0  0
   38.3520   31.2950   49.5720 C   0  0  0  0  0  0  0  0  0  0  0  0
   37.0620   29.8190   51.0520 C   0  0  0  0  0  0  0  0  0  0  0  0
   37.1240   30.6710   49.9420 C   0  0  0  0  0  0  0  0  0  0  0  0
   35.9600   30.8810   49.2420 C   0  0  0  0  0  0  0  0  0  0  0  0
   34.8020   30.2680   49.6390 N   0  0  0  0  0  0  0  0  0  0  0  0
   34.7680   29.4600   50.6990 C   0  0  0  0  0  0  0  0  0  0  0  0
   35.8980   29.2420   51.3980 N   0  0  0  0  0  0  0  0  0  0  0  0
   37.0488   32.7262   48.6269 H   0  0  0  0  0  0  0  0  0  0  0  0
   38.6002   33.4060   49.1316 H   0  0  0  0  0  0  0  0  0  0  0  0
   38.2827   30.0633   47.5501 H   0  0  0  0  0  0  0  0  0  0  0  0
   39.2546   29.4722   45.3391 H   0  0  0  0  0  0  0  0  0  0  0  0
   40.2051   34.8486   45.0660 H   0  0  0  0  0  0  0  0  0  0  0  0
   40.6888   33.7836   43.7190 H   0  0  0  0  0  0  0  0  0  0  0  0
   38.9653   30.5717   49.0145 H   0  0  0  0  0  0  0  0  0  0  0  0
   38.8617   31.6193   50.4912 H   0  0  0  0  0  0  0  0  0  0  0  0
   37.9687   29.6213   51.6426 H   0  0  0  0  0  0  0  0  0  0  0  0
   35.9588   31.5418   48.3626 H   0  0  0  0  0  0  0  0  0  0  0  0
   33.8267   28.9765   50.9993 H   0  0  0  0  0  0  0  0  0  0  0  0
  1  9  1  0
  2  1  1  0
  3  2  2  0
  4  3  1  0
  5  6  1  0
  5  4  2  0
  6  7  2  0
  7  2  1  0
  8  6  1  0
  9 11  1  0
 10 15  2  0
 11 10  1  0
 12 13  1  0
 12 11  2  0
 13 14  2  0
 14 15  1  0
  1 16  1  0
  1 17  1  0
  3 18  1  0
  4 19  1  0
  8 20  1  0
  8 21  1  0
  9 22  1  0
  9 23  1  0
 10 24  1  0
 12 25  1  0
 14 26  1  0
M  ISO  8  16   8  17   8  18  14  19  14  22   8  23   8  24  14  25  14
M  ISO  1  26  14
M  END
>  <minimizedAffinity>  (1) 
-4.81586838

>  <minimizedRMSD>  (1) 
0.514362812

$$$$
