
     RDKit          3D

 33 34  0  0  0  0  0  0  0  0999 V2000
   38.1290   32.3480   47.7320 C   0  0  0  0  0  0  0  0  0  0  0  0
   38.7750   32.1180   46.3960 C   0  0  0  0  0  0  0  0  0  0  0  0
   40.0420   31.6030   46.2990 C   0  0  0  0  0  0  0  0  0  0  0  0
   40.6550   31.4140   45.0730 C   0  0  0  0  0  0  0  0  0  0  0  0
   39.9510   31.7570   43.9710 N   0  0  0  0  0  0  0  0  0  0  0  0
   38.7130   32.2600   44.0520 C   0  0  0  0  0  0  0  0  0  0  0  0
   38.1220   32.4400   45.2500 N   0  0  0  0  0  0  0  0  0  0  0  0
   37.9610   32.6280   42.8320 C   0  0  0  0  0  0  0  0  0  0  0  0
   38.8400   33.3090   41.8090 C   0  0  0  0  0  0  0  0  0  0  0  0
   37.3590   31.3560   42.2710 C   0  0  0  0  0  0  0  0  0  0  0  0
   38.4760   31.1590   48.5710 C   0  0  0  0  0  0  0  0  0  0  0  0
   37.4320   29.9780   50.4540 C   0  0  0  0  0  0  0  0  0  0  0  0
   37.3310   30.5840   49.1960 C   0  0  0  0  0  0  0  0  0  0  0  0
   36.0940   30.6090   48.6000 C   0  0  0  0  0  0  0  0  0  0  0  0
   35.0150   30.0590   49.2320 N   0  0  0  0  0  0  0  0  0  0  0  0
   35.1370   29.4810   50.4440 C   0  0  0  0  0  0  0  0  0  0  0  0
   36.3450   29.4480   51.0400 N   0  0  0  0  0  0  0  0  0  0  0  0
   37.0379   32.4303   47.6193 H   0  0  0  0  0  0  0  0  0  0  0  0
   38.4818   33.2821   48.1934 H   0  0  0  0  0  0  0  0  0  0  0  0
   40.5840   31.3337   47.2176 H   0  0  0  0  0  0  0  0  0  0  0  0
   41.6722   31.0021   44.9982 H   0  0  0  0  0  0  0  0  0  0  0  0
   37.1735   33.3530   43.0854 H   0  0  0  0  0  0  0  0  0  0  0  0
   39.6084   33.9043   42.3240 H   0  0  0  0  0  0  0  0  0  0  0  0
   39.3258   32.5492   41.1791 H   0  0  0  0  0  0  0  0  0  0  0  0
   38.2257   33.9692   41.1791 H   0  0  0  0  0  0  0  0  0  0  0  0
   37.0490   30.7010   43.0986 H   0  0  0  0  0  0  0  0  0  0  0  0
   36.4836   31.6059   41.6535 H   0  0  0  0  0  0  0  0  0  0  0  0
   38.1073   30.8375   41.6535 H   0  0  0  0  0  0  0  0  0  0  0  0
   38.9477   30.3996   47.9301 H   0  0  0  0  0  0  0  0  0  0  0  0
   39.1588   31.4957   49.3650 H   0  0  0  0  0  0  0  0  0  0  0  0
   38.4052   29.9355   50.9649 H   0  0  0  0  0  0  0  0  0  0  0  0
   35.9716   31.0735   47.6104 H   0  0  0  0  0  0  0  0  0  0  0  0
   34.2598   29.0411   50.9409 H   0  0  0  0  0  0  0  0  0  0  0  0
  1 11  1  0
  2  1  1  0
  3  2  2  0
  4  3  1  0
  5  6  1  0
  5  4  2  0
  6  7  2  0
  7  2  1  0
  8  6  1  0
  9  8  1  0
 10  8  1  0
 11 13  1  0
 12 17  2  0
 13 12  1  0
 14 13  2  0
 14 15  1  0
 15 16  2  0
 16 17  1  0
  1 18  1  0
  1 19  1  0
  3 20  1  0
  4 21  1  0
  8 22  1  0
  9 23  1  0
  9 24  1  0
  9 25  1  0
 10 26  1  0
 10 27  1  0
 10 28  1  0
 11 29  1  0
 11 30  1  0
 12 31  1  0
 14 32  1  0
 16 33  1  0
M  ISO  8  18   8  19   8  20  14  21  14  22   8  23   8  24   8  25   8
M  ISO  8  26   8  27   8  28   8  29   8  30   8  31  14  32  14  33  14
M  END
>  <minimizedAffinity>  (1) 
-4.68147993

>  <minimizedRMSD>  (1) 
2.23318052

$$$$
