
     RDKit          3D

 24 26  0  0  0  0  0  0  0  0999 V2000
   38.2430   32.2560   48.9590 C   0  0  0  0  0  0  0  0  0  0  0  0
   38.6320   33.4070   49.5420 N   0  0  0  0  0  0  0  0  0  0  0  0
   39.4680   34.2750   48.9700 C   0  0  0  0  0  0  0  0  0  0  0  0
   39.9890   34.0640   47.7570 N   0  0  0  0  0  0  0  0  0  0  0  0
   39.6610   32.9560   47.1070 C   0  0  0  0  0  0  0  0  0  0  0  0
   40.1970   32.7400   45.8610 C   0  0  0  0  0  0  0  0  0  0  0  0
   39.8920   31.6070   45.1390 C   0  0  0  0  0  0  0  0  0  0  0  0
   39.0350   30.7190   45.7270 C   0  0  0  0  0  0  0  0  0  0  0  0
   38.5110   30.9560   46.9760 C   0  0  0  0  0  0  0  0  0  0  0  0
   38.7960   32.0710   47.7140 C   0  0  0  0  0  0  0  0  0  0  0  0
   37.2260   29.7040   51.4510 C   0  0  0  0  0  0  0  0  0  0  0  0
   37.8830   30.6580   50.6750 C   0  0  0  0  0  0  0  0  0  0  0  0
   37.3360   31.3140   49.5800 C   0  0  0  0  0  0  0  0  0  0  0  0
   36.0820   30.8990   49.3700 N   0  0  0  0  0  0  0  0  0  0  0  0
   35.3930   30.0010   50.0620 C   0  0  0  0  0  0  0  0  0  0  0  0
   35.9690   29.4010   51.1070 N   0  0  0  0  0  0  0  0  0  0  0  0
   39.7370   35.1929   49.5133 H   0  0  0  0  0  0  0  0  0  0  0  0
   40.8825   33.4855   45.4316 H   0  0  0  0  0  0  0  0  0  0  0  0
   40.3164   31.4262   44.1404 H   0  0  0  0  0  0  0  0  0  0  0  0
   38.7597   29.7985   45.1914 H   0  0  0  0  0  0  0  0  0  0  0  0
   37.8263   30.2090   47.4040 H   0  0  0  0  0  0  0  0  0  0  0  0
   37.7192   29.2219   52.3079 H   0  0  0  0  0  0  0  0  0  0  0  0
   38.9169   30.9112   50.9522 H   0  0  0  0  0  0  0  0  0  0  0  0
   34.3594   29.7535   49.7784 H   0  0  0  0  0  0  0  0  0  0  0  0
  1  2  2  0
  1 13  1  0
  3  2  1  0
  4  3  2  0
  5 10  2  0
  5  4  1  0
  6  5  1  0
  7  8  1  0
  7  6  2  0
  8  9  2  0
  9 10  1  0
 10  1  1  0
 12 11  2  0
 13 12  1  0
 14 13  2  0
 14 15  1  0
 15 16  2  0
 16 11  1  0
  3 17  1  0
  6 18  1  0
  7 19  1  0
  8 20  1  0
  9 21  1  0
 11 22  1  0
 12 23  1  0
 15 24  1  0
M  ISO  8  17  14  18  14  19  14  20  14  21  14  22  14  23  14  24  14
M  END
>  <minimizedAffinity>  (1) 
-6.05749321

>  <minimizedRMSD>  (1) 
1.80883455

$$$$
