
     RDKit          3D

 37 39  0  0  0  0  0  0  0  0999 V2000
   37.8560   32.5660   48.3910 C   0  0  0  0  0  0  0  0  0  0  0  0
   37.3450   31.2710   48.9580 C   0  0  0  0  0  0  0  0  0  0  0  0
   37.9150   30.6880   50.0510 C   0  0  0  0  0  0  0  0  0  0  0  0
   37.4430   29.4900   50.5450 C   0  0  0  0  0  0  0  0  0  0  0  0
   36.3890   28.9150   49.9000 N   0  0  0  0  0  0  0  0  0  0  0  0
   35.8320   29.4780   48.8380 C   0  0  0  0  0  0  0  0  0  0  0  0
   36.2910   30.6400   48.3600 N   0  0  0  0  0  0  0  0  0  0  0  0
   34.6810   28.8410   48.1480 C   0  0  0  0  0  0  0  0  0  0  0  0
   33.6900   28.2850   49.1840 C   0  0  0  0  0  0  0  0  0  0  0  0
   39.2050   32.2530   47.8300 C   0  0  0  0  0  0  0  0  0  0  0  0
   40.1980   31.1950   45.8600 C   0  0  0  0  0  0  0  0  0  0  0  0
   39.1760   31.9400   46.4480 C   0  0  0  0  0  0  0  0  0  0  0  0
   38.1500   32.3390   45.6450 C   0  0  0  0  0  0  0  0  0  0  0  0
   38.1220   32.0200   44.3110 N   0  0  0  0  0  0  0  0  0  0  0  0
   39.1190   31.3000   43.7650 C   0  0  0  0  0  0  0  0  0  0  0  0
   40.1210   30.9080   44.5360 N   0  0  0  0  0  0  0  0  0  0  0  0
   39.1340   30.9440   42.3870 N   0  0  0  0  0  0  0  0  0  0  0  0
   38.2330   30.4090   41.5730 N   0  0  0  0  0  0  0  0  0  0  0  0
   38.7770   30.2780   40.3310 C   0  0  0  0  0  0  0  0  0  0  0  0
   40.0840   30.7600   40.3910 C   0  0  0  0  0  0  0  0  0  0  0  0
   40.2730   31.1710   41.7050 C   0  0  0  0  0  0  0  0  0  0  0  0
   37.1853   32.9297   47.5986 H   0  0  0  0  0  0  0  0  0  0  0  0
   37.9058   33.3545   49.1564 H   0  0  0  0  0  0  0  0  0  0  0  0
   38.7645   31.1809   50.5464 H   0  0  0  0  0  0  0  0  0  0  0  0
   37.9000   29.0164   51.4264 H   0  0  0  0  0  0  0  0  0  0  0  0
   34.1723   29.5887   47.5218 H   0  0  0  0  0  0  0  0  0  0  0  0
   35.0478   28.0160   47.5196 H   0  0  0  0  0  0  0  0  0  0  0  0
   34.0631   28.4943   50.1974 H   0  0  0  0  0  0  0  0  0  0  0  0
   32.7095   28.7648   49.0478 H   0  0  0  0  0  0  0  0  0  0  0  0
   33.5885   27.1982   49.0478 H   0  0  0  0  0  0  0  0  0  0  0  0
   39.8562   33.1273   47.9769 H   0  0  0  0  0  0  0  0  0  0  0  0
   39.5808   31.3645   48.3586 H   0  0  0  0  0  0  0  0  0  0  0  0
   41.0519   30.8461   46.4593 H   0  0  0  0  0  0  0  0  0  0  0  0
   37.3273   32.9290   46.0752 H   0  0  0  0  0  0  0  0  0  0  0  0
   38.2762   29.8667   39.4422 H   0  0  0  0  0  0  0  0  0  0  0  0
   40.8137   30.8055   39.5692 H   0  0  0  0  0  0  0  0  0  0  0  0
   41.1949   31.6070   42.1174 H   0  0  0  0  0  0  0  0  0  0  0  0
  1  2  1  0
  2  3  2  0
  3  4  1  0
  5  4  2  0
  6  5  1  0
  7  6  2  0
  7  2  1  0
  8  6  1  0
  8  9  1  0
 10  1  1  0
 11 12  2  0
 12 10  1  0
 13 12  1  0
 14 13  2  0
 15 14  1  0
 15 16  2  0
 16 11  1  0
 17 15  1  0
 18 17  1  0
 19 20  1  0
 19 18  2  0
 20 21  2  0
 21 17  1  0
  1 22  1  0
  1 23  1  0
  3 24  1  0
  4 25  1  0
  8 26  1  0
  8 27  1  0
  9 28  1  0
  9 29  1  0
  9 30  1  0
 10 31  1  0
 10 32  1  0
 11 33  1  0
 13 34  1  0
 19 35  1  0
 20 36  1  0
 21 37  1  0
M  ISO  8  22   8  23   8  24  14  25  14  26   8  27   8  28   8  29   8
M  ISO  8  30   8  31   8  32   8  33  14  34  14  35  14  36  14  37  14
M  END
>  <minimizedAffinity>  (1) 
-5.53887272

>  <minimizedRMSD>  (1) 
7.93308353

$$$$
