
     RDKit          3D

 39 41  0  0  0  0  0  0  0  0999 V2000
   37.6800   32.2900   49.5270 C   0  0  0  0  0  0  0  0  0  0  0  0
   38.2870   31.9490   48.1930 C   0  0  0  0  0  0  0  0  0  0  0  0
   38.1210   30.7240   47.6170 C   0  0  0  0  0  0  0  0  0  0  0  0
   38.7110   30.4330   46.4130 C   0  0  0  0  0  0  0  0  0  0  0  0
   39.4600   31.3930   45.8150 N   0  0  0  0  0  0  0  0  0  0  0  0
   39.6270   32.5870   46.3670 C   0  0  0  0  0  0  0  0  0  0  0  0
   39.0530   32.8710   47.5410 N   0  0  0  0  0  0  0  0  0  0  0  0
   40.4500   33.6320   45.7010 C   0  0  0  0  0  0  0  0  0  0  0  0
   40.0820   33.7210   44.2150 C   0  0  0  0  0  0  0  0  0  0  0  0
   37.5470   30.9900   50.2510 C   0  0  0  0  0  0  0  0  0  0  0  0
   36.4060   28.8760   49.8090 C   0  0  0  0  0  0  0  0  0  0  0  0
   36.3870   30.2620   49.8840 C   0  0  0  0  0  0  0  0  0  0  0  0
   35.2100   30.8900   49.6100 C   0  0  0  0  0  0  0  0  0  0  0  0
   34.0840   30.1840   49.2740 N   0  0  0  0  0  0  0  0  0  0  0  0
   34.1250   28.8360   49.2060 C   0  0  0  0  0  0  0  0  0  0  0  0
   35.2690   28.2150   49.4710 N   0  0  0  0  0  0  0  0  0  0  0  0
   32.9610   28.0180   48.8540 C   0  0  0  0  0  0  0  0  0  0  0  0
   33.0510   26.9790   47.9670 C   0  0  0  0  0  0  0  0  0  0  0  0
   32.0090   26.1620   47.5810 C   0  0  0  0  0  0  0  0  0  0  0  0
   30.7830   26.4410   48.1560 C   0  0  0  0  0  0  0  0  0  0  0  0
   30.6920   27.4810   49.0460 C   0  0  0  0  0  0  0  0  0  0  0  0
   31.7410   28.2480   49.3870 N   0  0  0  0  0  0  0  0  0  0  0  0
   36.6933   32.7571   49.3919 H   0  0  0  0  0  0  0  0  0  0  0  0
   38.3006   33.0059   50.0859 H   0  0  0  0  0  0  0  0  0  0  0  0
   37.5087   29.9625   48.1222 H   0  0  0  0  0  0  0  0  0  0  0  0
   38.5800   29.4464   45.9445 H   0  0  0  0  0  0  0  0  0  0  0  0
   40.2633   34.6038   46.1814 H   0  0  0  0  0  0  0  0  0  0  0  0
   41.5137   33.3680   45.7945 H   0  0  0  0  0  0  0  0  0  0  0  0
   39.0172   33.9785   44.1157 H   0  0  0  0  0  0  0  0  0  0  0  0
   40.6935   34.4971   43.7317 H   0  0  0  0  0  0  0  0  0  0  0  0
   40.2713   32.7512   43.7317 H   0  0  0  0  0  0  0  0  0  0  0  0
   38.4310   30.3742   50.0289 H   0  0  0  0  0  0  0  0  0  0  0  0
   37.4625   31.2204   51.3233 H   0  0  0  0  0  0  0  0  0  0  0  0
   37.3311   28.3198   50.0208 H   0  0  0  0  0  0  0  0  0  0  0  0
   35.1618   31.9878   49.6594 H   0  0  0  0  0  0  0  0  0  0  0  0
   34.0381   26.7788   47.5247 H   0  0  0  0  0  0  0  0  0  0  0  0
   32.1447   25.3409   46.8617 H   0  0  0  0  0  0  0  0  0  0  0  0
   29.8967   25.8400   47.9044 H   0  0  0  0  0  0  0  0  0  0  0  0
   29.7144   27.6970   49.5017 H   0  0  0  0  0  0  0  0  0  0  0  0
  1 10  1  0
  2  1  1  0
  3  2  2  0
  4  3  1  0
  5  6  1  0
  5  4  2  0
  6  7  2  0
  7  2  1  0
  8  6  1  0
  9  8  1  0
 11 12  2  0
 12 10  1  0
 13 12  1  0
 14 13  2  0
 15 14  1  0
 15 16  2  0
 16 11  1  0
 17 15  1  0
 17 22  1  0
 18 17  2  0
 19 18  1  0
 19 20  2  0
 20 21  1  0
 21 22  2  0
  1 23  1  0
  1 24  1  0
  3 25  1  0
  4 26  1  0
  8 27  1  0
  8 28  1  0
  9 29  1  0
  9 30  1  0
  9 31  1  0
 10 32  1  0
 10 33  1  0
 11 34  1  0
 13 35  1  0
 18 36  1  0
 19 37  1  0
 20 38  1  0
 21 39  1  0
M  ISO  8  23   8  24   8  25  14  26  14  27   8  28   8  29   8  30   8
M  ISO  8  31   8  32   8  33   8  34  14  35  14  36  14  37  14  38  14
M  ISO  1  39  14
M  END
>  <minimizedAffinity>  (1) 
-5.52686739

>  <minimizedRMSD>  (1) 
1.71367502

$$$$
