
     RDKit          3D

 38 40  0  0  0  0  0  0  0  0999 V2000
   37.4660   32.1790   49.5240 C   0  0  0  0  0  0  0  0  0  0  0  0
   38.1420   31.8650   48.2190 C   0  0  0  0  0  0  0  0  0  0  0  0
   38.0200   30.6510   47.6100 C   0  0  0  0  0  0  0  0  0  0  0  0
   38.6740   30.3920   46.4270 C   0  0  0  0  0  0  0  0  0  0  0  0
   39.4380   31.3810   45.8920 N   0  0  0  0  0  0  0  0  0  0  0  0
   39.5610   32.5620   46.4770 C   0  0  0  0  0  0  0  0  0  0  0  0
   38.9270   32.8170   47.6270 N   0  0  0  0  0  0  0  0  0  0  0  0
   40.3990   33.6360   45.8800 C   0  0  0  0  0  0  0  0  0  0  0  0
   40.0920   33.7650   44.3800 C   0  0  0  0  0  0  0  0  0  0  0  0
   37.3480   30.8700   50.2360 C   0  0  0  0  0  0  0  0  0  0  0  0
   36.1910   28.7480   49.8450 C   0  0  0  0  0  0  0  0  0  0  0  0
   36.1830   30.1460   49.8830 C   0  0  0  0  0  0  0  0  0  0  0  0
   35.0120   30.7750   49.5850 C   0  0  0  0  0  0  0  0  0  0  0  0
   33.8870   30.0600   49.2600 N   0  0  0  0  0  0  0  0  0  0  0  0
   33.9150   28.7180   49.2280 C   0  0  0  0  0  0  0  0  0  0  0  0
   35.0580   28.0870   49.5190 N   0  0  0  0  0  0  0  0  0  0  0  0
   32.7110   27.9550   48.8810 C   0  0  0  0  0  0  0  0  0  0  0  0
   32.7920   26.9700   47.9220 C   0  0  0  0  0  0  0  0  0  0  0  0
   31.6070   26.3140   47.6700 C   0  0  0  0  0  0  0  0  0  0  0  0
   30.4460   26.6100   48.3130 N   0  0  0  0  0  0  0  0  0  0  0  0
   30.4310   27.5820   49.2390 C   0  0  0  0  0  0  0  0  0  0  0  0
   31.5620   28.2720   49.5390 N   0  0  0  0  0  0  0  0  0  0  0  0
   36.4703   32.6118   49.3471 H   0  0  0  0  0  0  0  0  0  0  0  0
   38.0345   32.9144   50.1122 H   0  0  0  0  0  0  0  0  0  0  0  0
   37.3933   29.8718   48.0683 H   0  0  0  0  0  0  0  0  0  0  0  0
   38.5814   29.4151   45.9299 H   0  0  0  0  0  0  0  0  0  0  0  0
   40.1798   34.5906   46.3807 H   0  0  0  0  0  0  0  0  0  0  0  0
   41.4612   33.3825   46.0121 H   0  0  0  0  0  0  0  0  0  0  0  0
   39.0854   34.1880   44.2468 H   0  0  0  0  0  0  0  0  0  0  0  0
   40.8334   34.4277   43.9097 H   0  0  0  0  0  0  0  0  0  0  0  0
   40.1375   32.7717   43.9097 H   0  0  0  0  0  0  0  0  0  0  0  0
   38.2281   30.2577   49.9901 H   0  0  0  0  0  0  0  0  0  0  0  0
   37.2839   31.0879   51.3123 H   0  0  0  0  0  0  0  0  0  0  0  0
   37.1108   28.1916   50.0782 H   0  0  0  0  0  0  0  0  0  0  0  0
   34.9677   31.8739   49.6053 H   0  0  0  0  0  0  0  0  0  0  0  0
   33.7284   26.7264   47.3988 H   0  0  0  0  0  0  0  0  0  0  0  0
   31.5997   25.5146   46.9144 H   0  0  0  0  0  0  0  0  0  0  0  0
   29.4927   27.8222   49.7604 H   0  0  0  0  0  0  0  0  0  0  0  0
  1 10  1  0
  2  1  1  0
  3  2  2  0
  4  3  1  0
  5  4  2  0
  5  6  1  0
  6  7  2  0
  7  2  1  0
  8  6  1  0
  9  8  1  0
 11 12  2  0
 12 10  1  0
 13 12  1  0
 14 13  2  0
 15 14  1  0
 15 16  2  0
 16 11  1  0
 17 15  1  0
 17 22  1  0
 18 17  2  0
 19 18  1  0
 19 20  2  0
 20 21  1  0
 21 22  2  0
  1 23  1  0
  1 24  1  0
  3 25  1  0
  4 26  1  0
  8 27  1  0
  8 28  1  0
  9 29  1  0
  9 30  1  0
  9 31  1  0
 10 32  1  0
 10 33  1  0
 11 34  1  0
 13 35  1  0
 18 36  1  0
 19 37  1  0
 21 38  1  0
M  ISO  8  23   8  24   8  25  14  26  14  27   8  28   8  29   8  30   8
M  ISO  8  31   8  32   8  33   8  34  14  35  14  36  14  37  14  38  14
M  END
>  <minimizedAffinity>  (1) 
-5.30316544

>  <minimizedRMSD>  (1) 
1.71978641

$$$$
