
     RDKit          3D

 37 39  0  0  0  0  0  0  0  0999 V2000
   38.2530   32.5360   49.2450 C   0  0  0  0  0  0  0  0  0  0  0  0
   38.6910   32.1170   47.8720 C   0  0  0  0  0  0  0  0  0  0  0  0
   38.5790   30.8300   47.4370 C   0  0  0  0  0  0  0  0  0  0  0  0
   39.0070   30.4740   46.1760 C   0  0  0  0  0  0  0  0  0  0  0  0
   39.5360   31.4260   45.3850 N   0  0  0  0  0  0  0  0  0  0  0  0
   39.6470   32.6890   45.8060 C   0  0  0  0  0  0  0  0  0  0  0  0
   39.2360   33.0670   47.0410 N   0  0  0  0  0  0  0  0  0  0  0  0
   40.2370   33.7460   44.9210 C   0  0  0  0  0  0  0  0  0  0  0  0
   39.8230   33.5180   43.4780 C   0  0  0  0  0  0  0  0  0  0  0  0
   38.1840   31.2720   50.0450 C   0  0  0  0  0  0  0  0  0  0  0  0
   36.9650   29.1490   49.9560 C   0  0  0  0  0  0  0  0  0  0  0  0
   36.9940   30.5330   49.8260 C   0  0  0  0  0  0  0  0  0  0  0  0
   35.8290   31.1540   49.4900 C   0  0  0  0  0  0  0  0  0  0  0  0
   34.6710   30.4390   49.2890 N   0  0  0  0  0  0  0  0  0  0  0  0
   34.6680   29.1090   49.4190 C   0  0  0  0  0  0  0  0  0  0  0  0
   35.8070   28.4850   49.7490 N   0  0  0  0  0  0  0  0  0  0  0  0
   33.4300   28.2990   49.2080 C   0  0  0  0  0  0  0  0  0  0  0  0
   32.6870   28.3750   47.9370 C   0  0  0  0  0  0  0  0  0  0  0  0
   33.5590   27.1940   48.1630 C   0  0  0  0  0  0  0  0  0  0  0  0
   37.2656   33.0190   49.2030 H   0  0  0  0  0  0  0  0  0  0  0  0
   38.9467   33.2641   49.6906 H   0  0  0  0  0  0  0  0  0  0  0  0
   38.1426   30.0677   48.0991 H   0  0  0  0  0  0  0  0  0  0  0  0
   38.9183   29.4356   45.8241 H   0  0  0  0  0  0  0  0  0  0  0  0
   39.8808   34.7338   45.2488 H   0  0  0  0  0  0  0  0  0  0  0  0
   41.3338   33.6984   44.9899 H   0  0  0  0  0  0  0  0  0  0  0  0
   38.8597   32.9875   43.4524 H   0  0  0  0  0  0  0  0  0  0  0  0
   39.7214   34.4874   42.9681 H   0  0  0  0  0  0  0  0  0  0  0  0
   40.5880   32.9139   42.9681 H   0  0  0  0  0  0  0  0  0  0  0  0
   39.0423   30.6399   49.7735 H   0  0  0  0  0  0  0  0  0  0  0  0
   38.1987   31.5579   51.1071 H   0  0  0  0  0  0  0  0  0  0  0  0
   37.8785   28.5987   50.2255 H   0  0  0  0  0  0  0  0  0  0  0  0
   35.8139   32.2481   49.3772 H   0  0  0  0  0  0  0  0  0  0  0  0
   33.1239   28.3966   50.2600 H   0  0  0  0  0  0  0  0  0  0  0  0
   32.9714   29.1253   47.1845 H   0  0  0  0  0  0  0  0  0  0  0  0
   31.6259   28.5044   47.6773 H   0  0  0  0  0  0  0  0  0  0  0  0
   33.1148   26.2044   48.3456 H   0  0  0  0  0  0  0  0  0  0  0  0
   34.3897   26.7156   47.6235 H   0  0  0  0  0  0  0  0  0  0  0  0
  1 10  1  0
  2  1  1  0
  3  2  2  0
  4  3  1  0
  5  6  1  0
  5  4  2  0
  6  7  2  0
  7  2  1  0
  8  6  1  0
  9  8  1  0
 12 11  2  0
 12 10  1  0
 13 12  1  0
 14 15  1  0
 14 13  2  0
 15 16  2  0
 16 11  1  0
 17 15  1  0
 18 19  1  0
 18 17  1  0
 19 17  1  0
  1 20  1  0
  1 21  1  0
  3 22  1  0
  4 23  1  0
  8 24  1  0
  8 25  1  0
  9 26  1  0
  9 27  1  0
  9 28  1  0
 10 29  1  0
 10 30  1  0
 11 31  1  0
 13 32  1  0
 17 33  1  0
 18 34  1  0
 18 35  1  0
 19 36  1  0
 19 37  1  0
M  ISO  8  20   8  21   8  22  14  23  14  24   8  25   8  26   8  27   8
M  ISO  8  28   8  29   8  30   8  31  14  32  14  33  13  34  13  35  13
M  ISO  2  36  13  37  13
M  END
>  <minimizedAffinity>  (1) 
-5.30162287

>  <minimizedRMSD>  (1) 
1.33198941

$$$$
