
     RDKit          3D

 43 45  0  0  0  0  0  0  0  0999 V2000
   37.2290   32.2010   49.6620 C   0  0  0  0  0  0  0  0  0  0  0  0
   37.9810   31.8890   48.3930 C   0  0  0  0  0  0  0  0  0  0  0  0
   37.8950   30.6690   47.7870 C   0  0  0  0  0  0  0  0  0  0  0  0
   38.6040   30.4110   46.6350 C   0  0  0  0  0  0  0  0  0  0  0  0
   39.3810   31.4010   46.1300 N   0  0  0  0  0  0  0  0  0  0  0  0
   39.4670   32.5930   46.7180 C   0  0  0  0  0  0  0  0  0  0  0  0
   38.7810   32.8590   47.8430 N   0  0  0  0  0  0  0  0  0  0  0  0
   40.3260   33.6710   46.1510 C   0  0  0  0  0  0  0  0  0  0  0  0
   40.1400   33.7500   44.6320 C   0  0  0  0  0  0  0  0  0  0  0  0
   37.0950   30.8920   50.3720 C   0  0  0  0  0  0  0  0  0  0  0  0
   36.1360   28.7140   49.7740 C   0  0  0  0  0  0  0  0  0  0  0  0
   36.0280   30.1030   49.8780 C   0  0  0  0  0  0  0  0  0  0  0  0
   34.8400   30.6540   49.5010 C   0  0  0  0  0  0  0  0  0  0  0  0
   33.8060   29.8800   49.0430 N   0  0  0  0  0  0  0  0  0  0  0  0
   33.9310   28.5540   48.9500 C   0  0  0  0  0  0  0  0  0  0  0  0
   35.0770   28.0140   49.3140 N   0  0  0  0  0  0  0  0  0  0  0  0
   32.8510   27.6550   48.4620 C   0  0  0  0  0  0  0  0  0  0  0  0
   33.4740   26.4690   47.8020 C   0  0  0  0  0  0  0  0  0  0  0  0
   32.9340   26.3580   46.4090 C   0  0  0  0  0  0  0  0  0  0  0  0
   31.7710   27.3080   46.3660 C   0  0  0  0  0  0  0  0  0  0  0  0
   31.9560   28.3270   47.4520 C   0  0  0  0  0  0  0  0  0  0  0  0
   36.2375   32.6170   49.4301 H   0  0  0  0  0  0  0  0  0  0  0  0
   37.7520   32.9492   50.2757 H   0  0  0  0  0  0  0  0  0  0  0  0
   37.2552   29.8868   48.2216 H   0  0  0  0  0  0  0  0  0  0  0  0
   38.5419   29.4310   46.1392 H   0  0  0  0  0  0  0  0  0  0  0  0
   40.0458   34.6343   46.6022 H   0  0  0  0  0  0  0  0  0  0  0  0
   41.3795   33.4453   46.3730 H   0  0  0  0  0  0  0  0  0  0  0  0
   39.1493   34.1708   44.4053 H   0  0  0  0  0  0  0  0  0  0  0  0
   40.9197   34.3946   44.2002 H   0  0  0  0  0  0  0  0  0  0  0  0
   40.2175   32.7413   44.2002 H   0  0  0  0  0  0  0  0  0  0  0  0
   38.0326   30.3296   50.2508 H   0  0  0  0  0  0  0  0  0  0  0  0
   36.8818   31.1104   51.4288 H   0  0  0  0  0  0  0  0  0  0  0  0
   37.0655   28.2007   50.0612 H   0  0  0  0  0  0  0  0  0  0  0  0
   34.7081   31.7441   49.5657 H   0  0  0  0  0  0  0  0  0  0  0  0
   32.2410   27.3709   49.3321 H   0  0  0  0  0  0  0  0  0  0  0  0
   34.5661   26.5957   47.7670 H   0  0  0  0  0  0  0  0  0  0  0  0
   33.2389   25.5566   48.3697 H   0  0  0  0  0  0  0  0  0  0  0  0
   33.6985   26.6492   45.6736 H   0  0  0  0  0  0  0  0  0  0  0  0
   32.6358   25.3283   46.1623 H   0  0  0  0  0  0  0  0  0  0  0  0
   31.7359   27.8092   45.3875 H   0  0  0  0  0  0  0  0  0  0  0  0
   30.8285   26.7610   46.5155 H   0  0  0  0  0  0  0  0  0  0  0  0
   32.4335   29.2347   47.0544 H   0  0  0  0  0  0  0  0  0  0  0  0
   30.9987   28.6441   47.8914 H   0  0  0  0  0  0  0  0  0  0  0  0
  1 10  1  0
  2  1  1  0
  3  2  2  0
  4  3  1  0
  5  4  2  0
  5  6  1  0
  6  7  2  0
  7  2  1  0
  8  6  1  0
  9  8  1  0
 11 12  2  0
 12 10  1  0
 13 12  1  0
 14 13  2  0
 15 14  1  0
 15 16  2  0
 16 11  1  0
 17 15  1  0
 18 17  1  0
 19 18  1  0
 20 19  1  0
 20 21  1  0
 21 17  1  0
  1 22  1  0
  1 23  1  0
  3 24  1  0
  4 25  1  0
  8 26  1  0
  8 27  1  0
  9 28  1  0
  9 29  1  0
  9 30  1  0
 10 31  1  0
 10 32  1  0
 11 33  1  0
 13 34  1  0
 17 35  1  0
 18 36  1  0
 18 37  1  0
 19 38  1  0
 19 39  1  0
 20 40  1  0
 20 41  1  0
 21 42  1  0
 21 43  1  0
M  ISO  8  22   8  23   8  24  14  25  14  26   8  27   8  28   8  29   8
M  ISO  8  30   8  31   8  32   8  33  14  34  14  35  13  36  13  37  13
M  ISO  6  38  13  39  13  40  13  41  13  42  13  43  13
M  END
>  <minimizedAffinity>  (1) 
-5.19932556

>  <minimizedRMSD>  (1) 
1.85791171

$$$$
