
     RDKit          3D

 42 44  0  0  0  0  0  0  0  0999 V2000
   37.1690   32.0440   49.4450 C   0  0  0  0  0  0  0  0  0  0  0  0
   37.9680   31.7720   48.1990 C   0  0  0  0  0  0  0  0  0  0  0  0
   37.9340   30.5600   47.5740 C   0  0  0  0  0  0  0  0  0  0  0  0
   38.6870   30.3380   46.4430 C   0  0  0  0  0  0  0  0  0  0  0  0
   39.4520   31.3400   45.9720 N   0  0  0  0  0  0  0  0  0  0  0  0
   39.4870   32.5310   46.5820 C   0  0  0  0  0  0  0  0  0  0  0  0
   38.7570   32.7790   47.6970 N   0  0  0  0  0  0  0  0  0  0  0  0
   40.3370   33.6490   46.0600 C   0  0  0  0  0  0  0  0  0  0  0  0
   40.1260   33.8040   44.5590 C   0  0  0  0  0  0  0  0  0  0  0  0
   37.0390   30.7180   50.1280 C   0  0  0  0  0  0  0  0  0  0  0  0
   35.8400   28.6060   49.8750 C   0  0  0  0  0  0  0  0  0  0  0  0
   35.9060   29.9800   49.7020 C   0  0  0  0  0  0  0  0  0  0  0  0
   34.8340   30.5920   49.1260 C   0  0  0  0  0  0  0  0  0  0  0  0
   33.7300   29.8760   48.7320 N   0  0  0  0  0  0  0  0  0  0  0  0
   33.6920   28.5400   48.9120 C   0  0  0  0  0  0  0  0  0  0  0  0
   34.7260   27.9410   49.4680 N   0  0  0  0  0  0  0  0  0  0  0  0
   32.5470   27.7900   48.5050 N   0  0  0  0  0  0  0  0  0  0  0  0
   32.4000   26.9240   47.3510 C   0  0  0  0  0  0  0  0  0  0  0  0
   30.9150   27.0270   46.9910 C   0  0  0  0  0  0  0  0  0  0  0  0
   30.3000   27.9210   48.0480 C   0  0  0  0  0  0  0  0  0  0  0  0
   31.2720   27.7560   49.1970 C   0  0  0  0  0  0  0  0  0  0  0  0
   36.1771   32.4435   49.1871 H   0  0  0  0  0  0  0  0  0  0  0  0
   37.6554   32.7913   50.0892 H   0  0  0  0  0  0  0  0  0  0  0  0
   37.3011   29.7551   47.9761 H   0  0  0  0  0  0  0  0  0  0  0  0
   38.6638   29.3625   45.9352 H   0  0  0  0  0  0  0  0  0  0  0  0
   40.0590   34.5853   46.5660 H   0  0  0  0  0  0  0  0  0  0  0  0
   41.3952   33.4207   46.2552 H   0  0  0  0  0  0  0  0  0  0  0  0
   39.2518   34.4462   44.3760 H   0  0  0  0  0  0  0  0  0  0  0  0
   41.0186   34.2627   44.1087 H   0  0  0  0  0  0  0  0  0  0  0  0
   39.9552   32.8150   44.1087 H   0  0  0  0  0  0  0  0  0  0  0  0
   37.9417   30.1259   49.9170 H   0  0  0  0  0  0  0  0  0  0  0  0
   36.9163   30.9144   51.2033 H   0  0  0  0  0  0  0  0  0  0  0  0
   36.6775   28.0612   50.3353 H   0  0  0  0  0  0  0  0  0  0  0  0
   34.8528   31.6812   48.9734 H   0  0  0  0  0  0  0  0  0  0  0  0
   33.0284   27.2733   46.5185 H   0  0  0  0  0  0  0  0  0  0  0  0
   32.7128   25.8898   47.5576 H   0  0  0  0  0  0  0  0  0  0  0  0
   30.7920   27.4723   45.9927 H   0  0  0  0  0  0  0  0  0  0  0  0
   30.4335   26.0384   46.9640 H   0  0  0  0  0  0  0  0  0  0  0  0
   30.2530   28.9668   47.7102 H   0  0  0  0  0  0  0  0  0  0  0  0
   29.2618   27.6612   48.3020 H   0  0  0  0  0  0  0  0  0  0  0  0
   31.1219   26.7977   49.7158 H   0  0  0  0  0  0  0  0  0  0  0  0
   31.1688   28.5172   49.9844 H   0  0  0  0  0  0  0  0  0  0  0  0
  1 10  1  0
  2  1  1  0
  3  2  2  0
  4  3  1  0
  5  4  2  0
  5  6  1  0
  6  7  2  0
  7  2  1  0
  8  6  1  0
  9  8  1  0
 12 11  2  0
 12 10  1  0
 13 12  1  0
 14 15  1  0
 14 13  2  0
 15 16  2  0
 16 11  1  0
 17 15  1  0
 17 21  1  0
 18 17  1  0
 19 18  1  0
 19 20  1  0
 20 21  1  0
  1 22  1  0
  1 23  1  0
  3 24  1  0
  4 25  1  0
  8 26  1  0
  8 27  1  0
  9 28  1  0
  9 29  1  0
  9 30  1  0
 10 31  1  0
 10 32  1  0
 11 33  1  0
 13 34  1  0
 18 35  1  0
 18 36  1  0
 19 37  1  0
 19 38  1  0
 20 39  1  0
 20 40  1  0
 21 41  1  0
 21 42  1  0
M  ISO  8  22   8  23   8  24  14  25  14  26   8  27   8  28   8  29   8
M  ISO  8  30   8  31   8  32   8  33  14  34  14  35  13  36  13  37  13
M  ISO  5  38  13  39  13  40  13  41  13  42  13
M  END
>  <minimizedAffinity>  (1) 
-5.13512182

>  <minimizedRMSD>  (1) 
1.87107265

$$$$
