
     RDKit          3D

 46 48  0  0  0  0  0  0  0  0999 V2000
   37.6990   32.2090   48.8000 C   0  0  0  0  0  0  0  0  0  0  0  0
   38.3990   31.8660   47.5130 C   0  0  0  0  0  0  0  0  0  0  0  0
   38.5410   30.5720   47.1010 C   0  0  0  0  0  0  0  0  0  0  0  0
   39.2020   30.2850   45.9270 C   0  0  0  0  0  0  0  0  0  0  0  0
   39.6980   31.3140   45.2040 N   0  0  0  0  0  0  0  0  0  0  0  0
   39.5620   32.5710   45.5980 C   0  0  0  0  0  0  0  0  0  0  0  0
   38.9230   32.8600   46.7380 N   0  0  0  0  0  0  0  0  0  0  0  0
   40.1110   33.7030   44.7970 C   0  0  0  0  0  0  0  0  0  0  0  0
   39.7310   33.5220   43.3190 C   0  0  0  0  0  0  0  0  0  0  0  0
   37.5950   30.9150   49.5470 C   0  0  0  0  0  0  0  0  0  0  0  0
   36.2500   28.8860   49.6950 C   0  0  0  0  0  0  0  0  0  0  0  0
   36.4310   30.1740   49.2140 C   0  0  0  0  0  0  0  0  0  0  0  0
   35.4460   30.7060   48.4380 C   0  0  0  0  0  0  0  0  0  0  0  0
   34.3130   29.9910   48.1450 N   0  0  0  0  0  0  0  0  0  0  0  0
   34.1520   28.7390   48.6220 C   0  0  0  0  0  0  0  0  0  0  0  0
   35.1120   28.2140   49.3780 N   0  0  0  0  0  0  0  0  0  0  0  0
   32.8990   27.9820   48.2840 C   0  0  0  0  0  0  0  0  0  0  0  0
   32.2050   28.6820   47.1430 C   0  0  0  0  0  0  0  0  0  0  0  0
   31.6730   27.7190   46.1120 C   0  0  0  0  0  0  0  0  0  0  0  0
   32.7590   26.8560   45.5210 C   0  0  0  0  0  0  0  0  0  0  0  0
   33.7470   26.3820   46.5460 C   0  0  0  0  0  0  0  0  0  0  0  0
   33.1860   26.5550   47.9380 C   0  0  0  0  0  0  0  0  0  0  0  0
   36.6986   32.6191   48.5976 H   0  0  0  0  0  0  0  0  0  0  0  0
   38.2445   32.9725   49.3740 H   0  0  0  0  0  0  0  0  0  0  0  0
   38.1257   29.7550   47.7093 H   0  0  0  0  0  0  0  0  0  0  0  0
   39.3231   29.2460   45.5868 H   0  0  0  0  0  0  0  0  0  0  0  0
   39.6937   34.6505   45.1687 H   0  0  0  0  0  0  0  0  0  0  0  0
   41.2067   33.7200   44.8926 H   0  0  0  0  0  0  0  0  0  0  0  0
   38.7398   33.0499   43.2504 H   0  0  0  0  0  0  0  0  0  0  0  0
   39.7044   34.5041   42.8243 H   0  0  0  0  0  0  0  0  0  0  0  0
   40.4768   32.8824   42.8243 H   0  0  0  0  0  0  0  0  0  0  0  0
   38.4788   30.3033   49.3130 H   0  0  0  0  0  0  0  0  0  0  0  0
   37.5352   31.1576   50.6183 H   0  0  0  0  0  0  0  0  0  0  0  0
   37.0180   28.4140   50.3254 H   0  0  0  0  0  0  0  0  0  0  0  0
   35.5611   31.7250   48.0401 H   0  0  0  0  0  0  0  0  0  0  0  0
   32.2441   27.9654   49.1676 H   0  0  0  0  0  0  0  0  0  0  0  0
   31.3649   29.2663   47.5464 H   0  0  0  0  0  0  0  0  0  0  0  0
   32.9453   29.3269   46.6470 H   0  0  0  0  0  0  0  0  0  0  0  0
   30.9244   27.0688   46.5882 H   0  0  0  0  0  0  0  0  0  0  0  0
   31.2311   28.3097   45.2960 H   0  0  0  0  0  0  0  0  0  0  0  0
   32.2929   25.9781   45.0497 H   0  0  0  0  0  0  0  0  0  0  0  0
   33.3077   27.4682   44.7901 H   0  0  0  0  0  0  0  0  0  0  0  0
   33.9661   25.3180   46.3732 H   0  0  0  0  0  0  0  0  0  0  0  0
   34.6677   26.9771   46.4559 H   0  0  0  0  0  0  0  0  0  0  0  0
   32.2498   25.9822   48.0114 H   0  0  0  0  0  0  0  0  0  0  0  0
   33.9475   26.1938   48.6448 H   0  0  0  0  0  0  0  0  0  0  0  0
  1 10  1  0
  2  1  1  0
  3  2  2  0
  4  3  1  0
  5  6  1  0
  5  4  2  0
  6  7  2  0
  7  2  1  0
  8  6  1  0
  9  8  1  0
 12 10  1  0
 12 11  2  0
 13 12  1  0
 14 13  2  0
 14 15  1  0
 15 16  2  0
 16 11  1  0
 17 15  1  0
 18 17  1  0
 19 18  1  0
 20 19  1  0
 20 21  1  0
 21 22  1  0
 22 17  1  0
  1 23  1  0
  1 24  1  0
  3 25  1  0
  4 26  1  0
  8 27  1  0
  8 28  1  0
  9 29  1  0
  9 30  1  0
  9 31  1  0
 10 32  1  0
 10 33  1  0
 11 34  1  0
 13 35  1  0
 17 36  1  0
 18 37  1  0
 18 38  1  0
 19 39  1  0
 19 40  1  0
 20 41  1  0
 20 42  1  0
 21 43  1  0
 21 44  1  0
 22 45  1  0
 22 46  1  0
M  ISO  8  23   8  24   8  25  14  26  14  27   8  28   8  29   8  30   8
M  ISO  8  31   8  32   8  33   8  34  14  35  14  36  13  37  13  38  13
M  ISO  8  39  13  40  13  41  13  42  13  43  13  44  13  45  13  46  13
M  END
>  <minimizedAffinity>  (1) 
-5.0152483

>  <minimizedRMSD>  (1) 
1.87445343

$$$$
