
     RDKit          3D

 21 23  0  0  0  0  0  0  0  0999 V2000
   36.6740   29.5090   51.4540 C   0  0  0  0  0  0  0  0  0  0  0  0
   37.5610   30.3540   50.7400 C   0  0  0  0  0  0  0  0  0  0  0  0
   37.0800   30.9760   49.5820 C   0  0  0  0  0  0  0  0  0  0  0  0
   35.7960   30.7370   49.2090 N   0  0  0  0  0  0  0  0  0  0  0  0
   34.9730   29.9180   49.9240 C   0  0  0  0  0  0  0  0  0  0  0  0
   35.4050   29.3060   51.0370 N   0  0  0  0  0  0  0  0  0  0  0  0
   37.9380   31.8210   48.8520 N   0  0  0  0  0  0  0  0  0  0  0  0
   38.3340   33.0230   49.2890 C   0  0  0  0  0  0  0  0  0  0  0  0
   39.1440   33.6260   48.4150 N   0  0  0  0  0  0  0  0  0  0  0  0
   39.2680   32.7670   47.3790 C   0  0  0  0  0  0  0  0  0  0  0  0
   39.9750   32.8540   46.2010 C   0  0  0  0  0  0  0  0  0  0  0  0
   39.9180   31.8340   45.3330 N   0  0  0  0  0  0  0  0  0  0  0  0
   39.1760   30.7460   45.6230 C   0  0  0  0  0  0  0  0  0  0  0  0
   38.4620   30.6260   46.7820 N   0  0  0  0  0  0  0  0  0  0  0  0
   38.5040   31.6400   47.6730 C   0  0  0  0  0  0  0  0  0  0  0  0
   37.0268   29.0078   52.3674 H   0  0  0  0  0  0  0  0  0  0  0  0
   38.5930   30.5154   51.0848 H   0  0  0  0  0  0  0  0  0  0  0  0
   33.9396   29.7567   49.5832 H   0  0  0  0  0  0  0  0  0  0  0  0
   38.0292   33.4607   50.2510 H   0  0  0  0  0  0  0  0  0  0  0  0
   40.5772   33.7465   45.9755 H   0  0  0  0  0  0  0  0  0  0  0  0
   39.1441   29.9207   44.8964 H   0  0  0  0  0  0  0  0  0  0  0  0
  2  1  2  0
  3  2  1  0
  4  3  2  0
  4  5  1  0
  5  6  2  0
  6  1  1  0
  7  8  1  0
  7  3  1  0
  9  8  2  0
 10 15  2  0
 10  9  1  0
 11 10  1  0
 12 13  1  0
 12 11  2  0
 13 14  2  0
 14 15  1  0
 15  7  1  0
  1 16  1  0
  2 17  1  0
  5 18  1  0
  8 19  1  0
 11 20  1  0
 13 21  1  0
M  ISO  6  16  14  17  14  18  14  19  14  20  14  21  14
M  END
>  <minimizedAffinity>  (1) 
-5.56830597

>  <minimizedRMSD>  (1) 
1.75653386

$$$$
