
     RDKit          3D

 47 50  0  0  0  0  0  0  0  0999 V2000
   36.7720   30.4990   50.0070 C   0  0  0  0  0  0  0  0  0  0  0  0
   35.4900   28.4240   49.7560 C   0  0  0  0  0  0  0  0  0  0  0  0
   35.6570   29.7980   49.5170 C   0  0  0  0  0  0  0  0  0  0  0  0
   34.6910   30.4120   48.7630 C   0  0  0  0  0  0  0  0  0  0  0  0
   33.6290   29.7180   48.2730 N   0  0  0  0  0  0  0  0  0  0  0  0
   33.4980   28.4050   48.5180 C   0  0  0  0  0  0  0  0  0  0  0  0
   34.4100   27.8030   49.2360 N   0  0  0  0  0  0  0  0  0  0  0  0
   32.3540   27.6510   47.9900 C   0  0  0  0  0  0  0  0  0  0  0  0
   32.2920   27.3350   46.7740 O   0  0  0  0  0  0  0  0  0  0  0  0
   31.3060   27.2620   48.8040 O   0  0  0  0  0  0  0  0  0  0  0  0
   30.0680   27.9040   48.6760 C   0  0  0  0  0  0  0  0  0  0  0  0
   29.5600   28.7410   47.7010 C   0  0  0  0  0  0  0  0  0  0  0  0
   28.3050   29.0790   48.0750 N   0  0  0  0  0  0  0  0  0  0  0  0
   28.0150   28.4830   49.2450 C   0  0  0  0  0  0  0  0  0  0  0  0
   26.8490   28.5430   49.9990 C   0  0  0  0  0  0  0  0  0  0  0  0
   26.7960   27.8310   51.1840 C   0  0  0  0  0  0  0  0  0  0  0  0
   27.8580   27.0710   51.6320 C   0  0  0  0  0  0  0  0  0  0  0  0
   29.0020   27.0300   50.8600 C   0  0  0  0  0  0  0  0  0  0  0  0
   29.1070   27.7200   49.6750 C   0  0  0  0  0  0  0  0  0  0  0  0
   36.9410   31.8260   49.3830 C   0  0  0  0  0  0  0  0  0  0  0  0
   37.8080   31.6650   48.1910 C   0  0  0  0  0  0  0  0  0  0  0  0
   37.8530   30.4820   47.5430 C   0  0  0  0  0  0  0  0  0  0  0  0
   38.7070   30.3280   46.4510 C   0  0  0  0  0  0  0  0  0  0  0  0
   39.4650   31.3960   46.0790 N   0  0  0  0  0  0  0  0  0  0  0  0
   39.4000   32.5430   46.7270 C   0  0  0  0  0  0  0  0  0  0  0  0
   38.5860   32.7190   47.7870 N   0  0  0  0  0  0  0  0  0  0  0  0
   40.2140   33.7020   46.2910 C   0  0  0  0  0  0  0  0  0  0  0  0
   40.1950   33.7980   44.7490 C   0  0  0  0  0  0  0  0  0  0  0  0
   36.6511   30.6350   51.0918 H   0  0  0  0  0  0  0  0  0  0  0  0
   37.6657   29.9056   49.7637 H   0  0  0  0  0  0  0  0  0  0  0  0
   36.2244   27.8653   50.3548 H   0  0  0  0  0  0  0  0  0  0  0  0
   34.7764   31.4878   48.5499 H   0  0  0  0  0  0  0  0  0  0  0  0
   30.0799   29.0712   46.7896 H   0  0  0  0  0  0  0  0  0  0  0  0
   27.6712   29.6957   47.5469 H   0  0  0  0  0  0  0  0  0  0  0  0
   25.9899   29.1416   49.6620 H   0  0  0  0  0  0  0  0  0  0  0  0
   25.8781   27.8717   51.7888 H   0  0  0  0  0  0  0  0  0  0  0  0
   27.7945   26.5134   52.5781 H   0  0  0  0  0  0  0  0  0  0  0  0
   29.8555   26.4270   51.2033 H   0  0  0  0  0  0  0  0  0  0  0  0
   35.9610   32.2239   49.0808 H   0  0  0  0  0  0  0  0  0  0  0  0
   37.3982   32.5280   50.0959 H   0  0  0  0  0  0  0  0  0  0  0  0
   37.2205   29.6450   47.8738 H   0  0  0  0  0  0  0  0  0  0  0  0
   38.7662   29.3735   45.9074 H   0  0  0  0  0  0  0  0  0  0  0  0
   39.7966   34.6247   46.7204 H   0  0  0  0  0  0  0  0  0  0  0  0
   41.2502   33.5711   46.6361 H   0  0  0  0  0  0  0  0  0  0  0  0
   39.9895   34.8361   44.4488 H   0  0  0  0  0  0  0  0  0  0  0  0
   41.1720   33.4875   44.3502 H   0  0  0  0  0  0  0  0  0  0  0  0
   39.4099   33.1387   44.3502 H   0  0  0  0  0  0  0  0  0  0  0  0
  3  2  2  0
  3  1  1  0
  4  3  1  0
  5  6  1  0
  5  4  2  0
  6  7  2  0
  7  2  1  0
  8  6  1  0
  8 10  1  0
  9  8  2  0
 11 10  1  0
 11 19  1  0
 12 13  1  0
 12 11  2  0
 13 14  1  0
 14 19  2  0
 14 15  1  0
 15 16  2  0
 16 17  1  0
 18 17  2  0
 19 18  1  0
 20  1  1  0
 21 20  1  0
 22 21  2  0
 23 22  1  0
 24 23  2  0
 24 25  1  0
 25 26  2  0
 26 21  1  0
 27 25  1  0
 28 27  1  0
  1 29  1  0
  1 30  1  0
  2 31  1  0
  4 32  1  0
 12 33  1  0
 13 34  1  0
 15 35  1  0
 16 36  1  0
 17 37  1  0
 18 38  1  0
 20 39  1  0
 20 40  1  0
 22 41  1  0
 23 42  1  0
 27 43  1  0
 27 44  1  0
 28 45  1  0
 28 46  1  0
 28 47  1  0
M  ISO  8  29   8  30   8  31  14  32  14  33  14  34   9  35  14  36  14
M  ISO  8  37  14  38  14  39   8  40   8  41  14  42  14  43   8  44   8
M  ISO  3  45   8  46   8  47   8
M  END
>  <minimizedAffinity>  (1) 
-6.73181438

>  <minimizedRMSD>  (1) 
1.44782698

$$$$
