
     RDKit          3D

 49 51  0  0  0  0  0  0  0  0999 V2000
   35.8390   28.8920   49.4230 C   0  0  0  0  0  0  0  0  0  0  0  0
   34.3450   27.4150   48.1560 C   0  0  0  0  0  0  0  0  0  0  0  0
   34.5390   28.4020   49.1370 C   0  0  0  0  0  0  0  0  0  0  0  0
   33.4220   28.8750   49.7820 C   0  0  0  0  0  0  0  0  0  0  0  0
   32.1930   28.3870   49.4570 N   0  0  0  0  0  0  0  0  0  0  0  0
   32.0290   27.4530   48.5250 C   0  0  0  0  0  0  0  0  0  0  0  0
   33.0880   26.9970   47.9070 N   0  0  0  0  0  0  0  0  0  0  0  0
   30.6950   26.9380   48.1900 C   0  0  0  0  0  0  0  0  0  0  0  0
   30.3290   26.8010   47.0020 O   0  0  0  0  0  0  0  0  0  0  0  0
   29.7950   26.5850   49.1840 O   0  0  0  0  0  0  0  0  0  0  0  0
   28.6510   27.2850   49.5430 C   0  0  0  0  0  0  0  0  0  0  0  0
   27.4980   26.7240   48.7370 C   0  0  0  0  0  0  0  0  0  0  0  0
   26.3930   27.7560   48.7710 C   0  0  0  0  0  0  0  0  0  0  0  0
   26.4730   28.5740   50.0160 C   0  0  0  0  0  0  0  0  0  0  0  0
   26.9640   27.8210   51.2300 C   0  0  0  0  0  0  0  0  0  0  0  0
   28.2730   27.1310   50.9950 C   0  0  0  0  0  0  0  0  0  0  0  0
   35.9010   30.3680   49.4820 C   0  0  0  0  0  0  0  0  0  0  0  0
   36.5990   30.8520   48.2730 C   0  0  0  0  0  0  0  0  0  0  0  0
   36.2300   30.4000   47.0530 C   0  0  0  0  0  0  0  0  0  0  0  0
   36.9350   30.8210   45.9230 C   0  0  0  0  0  0  0  0  0  0  0  0
   37.9740   31.6840   46.1060 N   0  0  0  0  0  0  0  0  0  0  0  0
   38.3110   32.1150   47.3080 C   0  0  0  0  0  0  0  0  0  0  0  0
   37.6430   31.7170   48.4130 N   0  0  0  0  0  0  0  0  0  0  0  0
   39.4230   33.0730   47.4810 C   0  0  0  0  0  0  0  0  0  0  0  0
   40.1390   33.2950   46.1290 C   0  0  0  0  0  0  0  0  0  0  0  0
   36.5254   28.5436   48.6372 H   0  0  0  0  0  0  0  0  0  0  0  0
   36.1228   28.5113   50.4152 H   0  0  0  0  0  0  0  0  0  0  0  0
   35.1984   26.9936   47.6045 H   0  0  0  0  0  0  0  0  0  0  0  0
   33.5203   29.6467   50.5597 H   0  0  0  0  0  0  0  0  0  0  0  0
   28.8558   28.3494   49.3556 H   0  0  0  0  0  0  0  0  0  0  0  0
   27.1485   25.7811   49.1830 H   0  0  0  0  0  0  0  0  0  0  0  0
   27.8073   26.5132   47.7026 H   0  0  0  0  0  0  0  0  0  0  0  0
   26.4899   28.4176   47.8975 H   0  0  0  0  0  0  0  0  0  0  0  0
   25.4235   27.2366   48.7510 H   0  0  0  0  0  0  0  0  0  0  0  0
   27.1593   29.4137   49.8318 H   0  0  0  0  0  0  0  0  0  0  0  0
   25.4469   28.8988   50.2433 H   0  0  0  0  0  0  0  0  0  0  0  0
   27.0859   28.5330   52.0596 H   0  0  0  0  0  0  0  0  0  0  0  0
   26.2185   27.0465   51.4632 H   0  0  0  0  0  0  0  0  0  0  0  0
   28.1771   26.0631   51.2406 H   0  0  0  0  0  0  0  0  0  0  0  0
   29.0502   27.5777   51.6325 H   0  0  0  0  0  0  0  0  0  0  0  0
   34.8824   30.7820   49.5142 H   0  0  0  0  0  0  0  0  0  0  0  0
   36.4409   30.6887   50.3851 H   0  0  0  0  0  0  0  0  0  0  0  0
   35.3820   29.7068   46.9514 H   0  0  0  0  0  0  0  0  0  0  0  0
   36.6606   30.4676   44.9181 H   0  0  0  0  0  0  0  0  0  0  0  0
   39.0255   34.0318   47.8453 H   0  0  0  0  0  0  0  0  0  0  0  0
   40.1408   32.6681   48.2096 H   0  0  0  0  0  0  0  0  0  0  0  0
   41.1751   33.6163   46.3112 H   0  0  0  0  0  0  0  0  0  0  0  0
   40.1416   32.3555   45.5569 H   0  0  0  0  0  0  0  0  0  0  0  0
   39.6097   34.0712   45.5569 H   0  0  0  0  0  0  0  0  0  0  0  0
  1 17  1  0
  2  3  2  0
  3  1  1  0
  3  4  1  0
  5  4  2  0
  6  5  1  0
  7  2  1  0
  7  6  2  0
  8  6  1  0
  8 10  1  0
  9  8  2  0
 10 11  1  0
 11 16  1  0
 12 13  1  0
 12 11  1  0
 13 14  1  0
 14 15  1  0
 16 15  1  0
 18 23  1  0
 18 17  1  0
 19 18  2  0
 20 21  2  0
 20 19  1  0
 21 22  1  0
 22 24  1  0
 22 23  2  0
 25 24  1  0
  1 26  1  0
  1 27  1  0
  2 28  1  0
  4 29  1  0
 11 30  1  0
 12 31  1  0
 12 32  1  0
 13 33  1  0
 13 34  1  0
 14 35  1  0
 14 36  1  0
 15 37  1  0
 15 38  1  0
 16 39  1  0
 16 40  1  0
 17 41  1  0
 17 42  1  0
 19 43  1  0
 20 44  1  0
 24 45  1  0
 24 46  1  0
 25 47  1  0
 25 48  1  0
 25 49  1  0
M  ISO  8  26   8  27   8  28  14  29  14  30  13  31  13  32  13  33  13
M  ISO  8  34  13  35  13  36  13  37  13  38  13  39  13  40  13  41   8
M  ISO  8  42   8  43  14  44  14  45   8  46   8  47   8  48   8  49   8
M  END
>  <minimizedAffinity>  (1) 
-5.88909149

>  <minimizedRMSD>  (1) 
2.82771754

$$$$
