
     RDKit          3D

 40 42  0  0  0  0  0  0  0  0999 V2000
   37.0550   30.6410   50.2840 C   0  0  0  0  0  0  0  0  0  0  0  0
   35.8090   28.5770   49.8190 C   0  0  0  0  0  0  0  0  0  0  0  0
   35.9000   29.9780   49.8270 C   0  0  0  0  0  0  0  0  0  0  0  0
   34.8180   30.6690   49.3440 C   0  0  0  0  0  0  0  0  0  0  0  0
   33.7180   30.0180   48.8820 N   0  0  0  0  0  0  0  0  0  0  0  0
   33.6590   28.6800   48.8860 C   0  0  0  0  0  0  0  0  0  0  0  0
   34.6810   28.0050   49.3450 N   0  0  0  0  0  0  0  0  0  0  0  0
   32.4710   27.9730   48.3910 C   0  0  0  0  0  0  0  0  0  0  0  0
   32.2460   27.8650   47.1610 O   0  0  0  0  0  0  0  0  0  0  0  0
   31.5600   27.4010   49.2640 O   0  0  0  0  0  0  0  0  0  0  0  0
   30.2200   27.7480   49.2970 C   0  0  0  0  0  0  0  0  0  0  0  0
   29.1250   27.1840   48.6430 C   0  0  0  0  0  0  0  0  0  0  0  0
   28.0560   27.8920   49.0150 N   0  0  0  0  0  0  0  0  0  0  0  0
   28.4550   28.8680   49.8720 C   0  0  0  0  0  0  0  0  0  0  0  0
   29.7770   28.7670   50.0350 N   0  0  0  0  0  0  0  0  0  0  0  0
   37.2520   31.9610   49.6570 C   0  0  0  0  0  0  0  0  0  0  0  0
   37.9760   31.7580   48.3790 C   0  0  0  0  0  0  0  0  0  0  0  0
   37.9010   30.5720   47.7390 C   0  0  0  0  0  0  0  0  0  0  0  0
   38.6250   30.3760   46.5630 C   0  0  0  0  0  0  0  0  0  0  0  0
   39.3860   31.4110   46.1060 N   0  0  0  0  0  0  0  0  0  0  0  0
   39.4410   32.5610   46.7470 C   0  0  0  0  0  0  0  0  0  0  0  0
   38.7520   32.7740   47.8860 N   0  0  0  0  0  0  0  0  0  0  0  0
   40.2520   33.6790   46.2160 C   0  0  0  0  0  0  0  0  0  0  0  0
   40.1290   33.7240   44.6750 C   0  0  0  0  0  0  0  0  0  0  0  0
   36.9715   30.7795   51.3720 H   0  0  0  0  0  0  0  0  0  0  0  0
   37.9195   30.0173   50.0127 H   0  0  0  0  0  0  0  0  0  0  0  0
   36.6389   27.9582   50.1909 H   0  0  0  0  0  0  0  0  0  0  0  0
   34.8410   31.7687   49.3303 H   0  0  0  0  0  0  0  0  0  0  0  0
   29.1393   26.3250   47.9560 H   0  0  0  0  0  0  0  0  0  0  0  0
   27.8017   29.6132   50.3495 H   0  0  0  0  0  0  0  0  0  0  0  0
   30.3573   29.3745   50.6310 H   0  0  0  0  0  0  0  0  0  0  0  0
   36.2767   32.4313   49.4629 H   0  0  0  0  0  0  0  0  0  0  0  0
   37.8301   32.6180   50.3234 H   0  0  0  0  0  0  0  0  0  0  0  0
   37.2724   29.7645   48.1426 H   0  0  0  0  0  0  0  0  0  0  0  0
   38.5834   29.4188   46.0225 H   0  0  0  0  0  0  0  0  0  0  0  0
   39.8899   34.6273   46.6399 H   0  0  0  0  0  0  0  0  0  0  0  0
   41.3058   33.5296   46.4938 H   0  0  0  0  0  0  0  0  0  0  0  0
   39.1294   34.0897   44.3975 H   0  0  0  0  0  0  0  0  0  0  0  0
   40.8937   34.4006   44.2657 H   0  0  0  0  0  0  0  0  0  0  0  0
   40.2765   32.7137   44.2657 H   0  0  0  0  0  0  0  0  0  0  0  0
  2  3  2  0
  3  1  1  0
  4  3  1  0
  5  6  1  0
  5  4  2  0
  6  7  2  0
  7  2  1  0
  8  6  1  0
  8 10  1  0
  9  8  2  0
 10 11  1  0
 11 15  1  0
 12 13  1  0
 12 11  2  0
 13 14  2  0
 14 15  1  0
 16  1  1  0
 17 16  1  0
 18 17  2  0
 19 18  1  0
 20 19  2  0
 20 21  1  0
 21 22  2  0
 22 17  1  0
 23 21  1  0
 24 23  1  0
  1 25  1  0
  1 26  1  0
  2 27  1  0
  4 28  1  0
 12 29  1  0
 14 30  1  0
 15 31  1  0
 16 32  1  0
 16 33  1  0
 18 34  1  0
 19 35  1  0
 23 36  1  0
 23 37  1  0
 24 38  1  0
 24 39  1  0
 24 40  1  0
M  ISO  8  25   8  26   8  27  14  28  14  29  14  30  14  31   9  32   8
M  ISO  8  33   8  34  14  35  14  36   8  37   8  38   8  39   8  40   8
M  END
>  <minimizedAffinity>  (1) 
-5.67032528

>  <minimizedRMSD>  (1) 
1.11892152

$$$$
