
     RDKit          3D

 45 46  0  0  0  0  0  0  0  0999 V2000
   37.5550   32.2550   49.5070 C   0  0  0  0  0  0  0  0  0  0  0  0
   38.1980   31.9390   48.2080 C   0  0  0  0  0  0  0  0  0  0  0  0
   38.0320   30.7190   47.6530 C   0  0  0  0  0  0  0  0  0  0  0  0
   38.6800   30.4160   46.4540 C   0  0  0  0  0  0  0  0  0  0  0  0
   39.4590   31.3810   45.8900 N   0  0  0  0  0  0  0  0  0  0  0  0
   39.6010   32.5660   46.4510 C   0  0  0  0  0  0  0  0  0  0  0  0
   38.9890   32.8840   47.6080 N   0  0  0  0  0  0  0  0  0  0  0  0
   40.4280   33.6100   45.8050 C   0  0  0  0  0  0  0  0  0  0  0  0
   40.0800   33.7020   44.3060 C   0  0  0  0  0  0  0  0  0  0  0  0
   37.4170   30.9960   50.2680 C   0  0  0  0  0  0  0  0  0  0  0  0
   36.3120   28.8490   49.8370 C   0  0  0  0  0  0  0  0  0  0  0  0
   36.2810   30.2520   49.8930 C   0  0  0  0  0  0  0  0  0  0  0  0
   35.1060   30.8560   49.5450 C   0  0  0  0  0  0  0  0  0  0  0  0
   34.0250   30.1250   49.1640 N   0  0  0  0  0  0  0  0  0  0  0  0
   34.0820   28.7880   49.1170 C   0  0  0  0  0  0  0  0  0  0  0  0
   35.1990   28.1930   49.4470 N   0  0  0  0  0  0  0  0  0  0  0  0
   32.9160   27.9950   48.7080 C   0  0  0  0  0  0  0  0  0  0  0  0
   32.9620   27.2360   47.7130 O   0  0  0  0  0  0  0  0  0  0  0  0
   31.7230   28.0560   49.4100 O   0  0  0  0  0  0  0  0  0  0  0  0
   30.5380   27.4750   48.9330 C   0  0  0  0  0  0  0  0  0  0  0  0
   29.4980   27.2690   50.0080 C   0  0  0  0  0  0  0  0  0  0  0  0
   30.8690   26.1230   48.3380 C   0  0  0  0  0  0  0  0  0  0  0  0
   29.8820   28.2880   47.8420 C   0  0  0  0  0  0  0  0  0  0  0  0
   36.5627   32.6972   49.3343 H   0  0  0  0  0  0  0  0  0  0  0  0
   38.1661   32.9760   50.0698 H   0  0  0  0  0  0  0  0  0  0  0  0
   37.3914   29.9701   48.1417 H   0  0  0  0  0  0  0  0  0  0  0  0
   38.5653   29.4300   45.9800 H   0  0  0  0  0  0  0  0  0  0  0  0
   40.2316   34.5799   46.2852 H   0  0  0  0  0  0  0  0  0  0  0  0
   41.4910   33.3493   45.9147 H   0  0  0  0  0  0  0  0  0  0  0  0
   39.0223   33.9816   44.1916 H   0  0  0  0  0  0  0  0  0  0  0  0
   40.7142   34.4633   43.8284 H   0  0  0  0  0  0  0  0  0  0  0  0
   40.2551   32.7267   43.8284 H   0  0  0  0  0  0  0  0  0  0  0  0
   38.3125   30.3810   50.0950 H   0  0  0  0  0  0  0  0  0  0  0  0
   37.3027   31.2619   51.3292 H   0  0  0  0  0  0  0  0  0  0  0  0
   37.2244   28.2964   50.1054 H   0  0  0  0  0  0  0  0  0  0  0  0
   35.0334   31.9532   49.5736 H   0  0  0  0  0  0  0  0  0  0  0  0
   29.9698   27.3624   50.9973 H   0  0  0  0  0  0  0  0  0  0  0  0
   28.7088   28.0283   49.9049 H   0  0  0  0  0  0  0  0  0  0  0  0
   29.0578   26.2662   49.9049 H   0  0  0  0  0  0  0  0  0  0  0  0
   31.0461   25.3996   49.1475 H   0  0  0  0  0  0  0  0  0  0  0  0
   30.0283   25.7799   47.7171 H   0  0  0  0  0  0  0  0  0  0  0  0
   31.7731   26.2071   47.7171 H   0  0  0  0  0  0  0  0  0  0  0  0
   29.2524   29.0683   48.2944 H   0  0  0  0  0  0  0  0  0  0  0  0
   30.6569   28.7579   47.2185 H   0  0  0  0  0  0  0  0  0  0  0  0
   29.2590   27.6299   47.2185 H   0  0  0  0  0  0  0  0  0  0  0  0
  1 10  1  0
  2  1  1  0
  3  2  2  0
  4  3  1  0
  5  6  1  0
  5  4  2  0
  6  7  2  0
  7  2  1  0
  8  6  1  0
  9  8  1  0
 11 12  2  0
 12 10  1  0
 13 12  1  0
 14 13  2  0
 15 14  1  0
 15 16  2  0
 16 11  1  0
 17 15  1  0
 17 19  1  0
 18 17  2  0
 20 19  1  0
 20 21  1  0
 22 20  1  0
 23 20  1  0
  1 24  1  0
  1 25  1  0
  3 26  1  0
  4 27  1  0
  8 28  1  0
  8 29  1  0
  9 30  1  0
  9 31  1  0
  9 32  1  0
 10 33  1  0
 10 34  1  0
 11 35  1  0
 13 36  1  0
 21 37  1  0
 21 38  1  0
 21 39  1  0
 22 40  1  0
 22 41  1  0
 22 42  1  0
 23 43  1  0
 23 44  1  0
 23 45  1  0
M  ISO  8  24   8  25   8  26  14  27  14  28   8  29   8  30   8  31   8
M  ISO  8  32   8  33   8  34   8  35  14  36  14  37   8  38   8  39   8
M  ISO  6  40   8  41   8  42   8  43   8  44   8  45   8
M  END
>  <minimizedAffinity>  (1) 
-5.364223

>  <minimizedRMSD>  (1) 
0.634022057

$$$$
