
     RDKit          3D

 35 36  0  0  0  0  0  0  0  0999 V2000
   37.3700   32.0890   49.5440 C   0  0  0  0  0  0  0  0  0  0  0  0
   38.0600   31.8370   48.2660 C   0  0  0  0  0  0  0  0  0  0  0  0
   37.9390   30.6390   47.6490 C   0  0  0  0  0  0  0  0  0  0  0  0
   38.6400   30.3940   46.4660 C   0  0  0  0  0  0  0  0  0  0  0  0
   39.4250   31.3920   45.9730 N   0  0  0  0  0  0  0  0  0  0  0  0
   39.5260   32.5570   46.5900 C   0  0  0  0  0  0  0  0  0  0  0  0
   38.8610   32.8100   47.7310 N   0  0  0  0  0  0  0  0  0  0  0  0
   40.3630   33.6370   46.0250 C   0  0  0  0  0  0  0  0  0  0  0  0
   40.0940   33.7680   44.5100 C   0  0  0  0  0  0  0  0  0  0  0  0
   37.2480   30.8030   50.2610 C   0  0  0  0  0  0  0  0  0  0  0  0
   36.0740   28.6920   49.8600 C   0  0  0  0  0  0  0  0  0  0  0  0
   36.0650   30.0950   49.9210 C   0  0  0  0  0  0  0  0  0  0  0  0
   34.8830   30.7290   49.6190 C   0  0  0  0  0  0  0  0  0  0  0  0
   33.7850   30.0020   49.2790 N   0  0  0  0  0  0  0  0  0  0  0  0
   33.8150   28.6700   49.2260 C   0  0  0  0  0  0  0  0  0  0  0  0
   34.9340   28.0560   49.5120 N   0  0  0  0  0  0  0  0  0  0  0  0
   32.6250   27.8950   48.8540 C   0  0  0  0  0  0  0  0  0  0  0  0
   32.6730   27.0170   47.9550 O   0  0  0  0  0  0  0  0  0  0  0  0
   31.4080   28.1040   49.4810 O   0  0  0  0  0  0  0  0  0  0  0  0
   30.3610   27.2680   49.2150 C   0  0  0  0  0  0  0  0  0  0  0  0
   29.5410   26.8540   50.1010 O   0  0  0  0  0  0  0  0  0  0  0  0
   36.3700   32.5052   49.3521 H   0  0  0  0  0  0  0  0  0  0  0  0
   37.9394   32.8101   50.1488 H   0  0  0  0  0  0  0  0  0  0  0  0
   37.2907   29.8605   48.0776 H   0  0  0  0  0  0  0  0  0  0  0  0
   38.5607   29.4262   45.9491 H   0  0  0  0  0  0  0  0  0  0  0  0
   40.1187   34.5870   46.5229 H   0  0  0  0  0  0  0  0  0  0  0  0
   41.4242   33.3966   46.1863 H   0  0  0  0  0  0  0  0  0  0  0  0
   39.1154   34.2446   44.3512 H   0  0  0  0  0  0  0  0  0  0  0  0
   40.8807   34.3839   44.0498 H   0  0  0  0  0  0  0  0  0  0  0  0
   40.0943   32.7689   44.0498 H   0  0  0  0  0  0  0  0  0  0  0  0
   38.1170   30.1768   50.0104 H   0  0  0  0  0  0  0  0  0  0  0  0
   37.2035   31.0261   51.3372 H   0  0  0  0  0  0  0  0  0  0  0  0
   36.9877   28.1243   50.0901 H   0  0  0  0  0  0  0  0  0  0  0  0
   34.8252   31.8270   49.6525 H   0  0  0  0  0  0  0  0  0  0  0  0
   30.2163   26.9323   48.1775 H   0  0  0  0  0  0  0  0  0  0  0  0
  1 10  1  0
  2  1  1  0
  3  2  2  0
  4  3  1  0
  5  4  2  0
  5  6  1  0
  6  7  2  0
  7  2  1  0
  8  6  1  0
  9  8  1  0
 11 12  2  0
 12 10  1  0
 13 12  1  0
 14 13  2  0
 15 14  1  0
 15 16  2  0
 16 11  1  0
 17 15  1  0
 17 19  1  0
 18 17  2  0
 20 19  1  0
 20 21  2  0
  1 22  1  0
  1 23  1  0
  3 24  1  0
  4 25  1  0
  8 26  1  0
  8 27  1  0
  9 28  1  0
  9 29  1  0
  9 30  1  0
 10 31  1  0
 10 32  1  0
 11 33  1  0
 13 34  1  0
 20 35  1  0
M  ISO  8  22   8  23   8  24  14  25  14  26   8  27   8  28   8  29   8
M  ISO  6  30   8  31   8  32   8  33  14  34  14  35   6
M  END
>  <minimizedAffinity>  (1) 
-4.92655516

>  <minimizedRMSD>  (1) 
0.801427901

$$$$
