
     RDKit          3D

 24 26  0  0  0  0  0  0  0  0999 V2000
   35.6520   30.0510   47.7910 C   0  0  0  0  0  0  0  0  0  0  0  0
   36.6560   30.6770   47.0800 C   0  0  0  0  0  0  0  0  0  0  0  0
   37.6800   30.9870   47.8960 N   0  0  0  0  0  0  0  0  0  0  0  0
   37.3590   30.5710   49.1380 C   0  0  0  0  0  0  0  0  0  0  0  0
   38.0430   30.6360   50.3490 C   0  0  0  0  0  0  0  0  0  0  0  0
   37.4480   30.1130   51.4820 C   0  0  0  0  0  0  0  0  0  0  0  0
   36.1980   29.5400   51.3980 C   0  0  0  0  0  0  0  0  0  0  0  0
   35.4760   29.4540   50.2050 C   0  0  0  0  0  0  0  0  0  0  0  0
   36.1000   29.9850   49.0940 C   0  0  0  0  0  0  0  0  0  0  0  0
   32.3340   29.9490   46.1760 C   0  0  0  0  0  0  0  0  0  0  0  0
   32.0940   28.5690   46.1290 C   0  0  0  0  0  0  0  0  0  0  0  0
   33.0710   27.6910   46.6500 C   0  0  0  0  0  0  0  0  0  0  0  0
   34.2000   28.2490   47.1740 N   0  0  0  0  0  0  0  0  0  0  0  0
   34.4020   29.5850   47.2040 C   0  0  0  0  0  0  0  0  0  0  0  0
   33.4830   30.4240   46.7130 N   0  0  0  0  0  0  0  0  0  0  0  0
   36.6236   30.8915   46.0016 H   0  0  0  0  0  0  0  0  0  0  0  0
   38.5536   31.4582   47.6210 H   0  0  0  0  0  0  0  0  0  0  0  0
   39.0407   31.0961   50.4034 H   0  0  0  0  0  0  0  0  0  0  0  0
   37.9716   30.1543   52.4485 H   0  0  0  0  0  0  0  0  0  0  0  0
   35.7468   29.1307   52.3139 H   0  0  0  0  0  0  0  0  0  0  0  0
   34.4779   28.9943   50.1544 H   0  0  0  0  0  0  0  0  0  0  0  0
   31.5862   30.6491   45.7752 H   0  0  0  0  0  0  0  0  0  0  0  0
   31.1626   28.1767   45.6947 H   0  0  0  0  0  0  0  0  0  0  0  0
   32.9268   26.6006   46.6336 H   0  0  0  0  0  0  0  0  0  0  0  0
  1  9  1  0
  2  1  2  0
  2  3  1  0
  3  4  1  0
  4  5  2  0
  5  6  1  0
  7  6  2  0
  8  7  1  0
  9  4  1  0
  9  8  2  0
 10 15  2  0
 11 10  1  0
 11 12  2  0
 12 13  1  0
 13 14  2  0
 14  1  1  0
 15 14  1  0
  2 16  1  0
  3 17  1  0
  5 18  1  0
  6 19  1  0
  7 20  1  0
  8 21  1  0
 10 22  1  0
 11 23  1  0
 12 24  1  0
M  ISO  8  16  14  17   9  18  14  19  14  20  14  21  14  22  14  23  14
M  ISO  1  24  14
M  END
>  <minimizedAffinity>  (1) 
-5.28272247

>  <minimizedRMSD>  (1) 
5.5751214

$$$$
