
     RDKit          3D

 40 43  0  0  0  0  0  0  0  0999 V2000
   35.6470   30.0530   47.7640 C   0  0  0  0  0  0  0  0  0  0  0  0
   36.6710   30.6900   47.0760 C   0  0  0  0  0  0  0  0  0  0  0  0
   37.6770   30.9880   47.9250 N   0  0  0  0  0  0  0  0  0  0  0  0
   37.3270   30.5580   49.1510 C   0  0  0  0  0  0  0  0  0  0  0  0
   37.9970   30.6190   50.3600 C   0  0  0  0  0  0  0  0  0  0  0  0
   37.3810   30.0830   51.4880 C   0  0  0  0  0  0  0  0  0  0  0  0
   36.1240   29.5090   51.3670 C   0  0  0  0  0  0  0  0  0  0  0  0
   35.4230   29.4310   50.1640 C   0  0  0  0  0  0  0  0  0  0  0  0
   36.0770   29.9780   49.0750 C   0  0  0  0  0  0  0  0  0  0  0  0
   32.3270   29.9770   46.1680 C   0  0  0  0  0  0  0  0  0  0  0  0
   32.1390   28.5920   45.9900 C   0  0  0  0  0  0  0  0  0  0  0  0
   33.1620   27.7130   46.4250 C   0  0  0  0  0  0  0  0  0  0  0  0
   34.2680   28.2580   46.9900 N   0  0  0  0  0  0  0  0  0  0  0  0
   34.4120   29.5960   47.1430 C   0  0  0  0  0  0  0  0  0  0  0  0
   33.4620   30.4460   46.7420 N   0  0  0  0  0  0  0  0  0  0  0  0
   32.9830   26.2480   46.2470 C   0  0  0  0  0  0  0  0  0  0  0  0
   34.2160   25.5840   45.7560 C   0  0  0  0  0  0  0  0  0  0  0  0
   34.3820   24.1470   46.0910 C   0  0  0  0  0  0  0  0  0  0  0  0
   33.9710   23.8510   47.5330 C   0  0  0  0  0  0  0  0  0  0  0  0
   32.4770   24.1920   47.5850 C   0  0  0  0  0  0  0  0  0  0  0  0
   32.4540   25.7110   47.5450 C   0  0  0  0  0  0  0  0  0  0  0  0
   36.6635   30.9178   45.9999 H   0  0  0  0  0  0  0  0  0  0  0  0
   38.5578   31.4613   47.6779 H   0  0  0  0  0  0  0  0  0  0  0  0
   38.9933   31.0802   50.4286 H   0  0  0  0  0  0  0  0  0  0  0  0
   37.8859   30.1144   52.4648 H   0  0  0  0  0  0  0  0  0  0  0  0
   35.6541   29.0922   52.2700 H   0  0  0  0  0  0  0  0  0  0  0  0
   34.4271   28.9702   50.0872 H   0  0  0  0  0  0  0  0  0  0  0  0
   31.5487   30.6814   45.8395 H   0  0  0  0  0  0  0  0  0  0  0  0
   31.2212   28.2028   45.5251 H   0  0  0  0  0  0  0  0  0  0  0  0
   32.2548   26.0288   45.4522 H   0  0  0  0  0  0  0  0  0  0  0  0
   35.0758   26.1253   46.1776 H   0  0  0  0  0  0  0  0  0  0  0  0
   34.1430   25.6169   44.6589 H   0  0  0  0  0  0  0  0  0  0  0  0
   33.7569   23.5483   45.4122 H   0  0  0  0  0  0  0  0  0  0  0  0
   35.4454   23.8895   45.9781 H   0  0  0  0  0  0  0  0  0  0  0  0
   34.1363   22.7906   47.7744 H   0  0  0  0  0  0  0  0  0  0  0  0
   34.5574   24.4297   48.2619 H   0  0  0  0  0  0  0  0  0  0  0  0
   31.9474   23.7685   46.7189 H   0  0  0  0  0  0  0  0  0  0  0  0
   31.9760   23.7808   48.4738 H   0  0  0  0  0  0  0  0  0  0  0  0
   33.0735   26.0972   48.3678 H   0  0  0  0  0  0  0  0  0  0  0  0
   31.4085   26.0375   47.6466 H   0  0  0  0  0  0  0  0  0  0  0  0
  1  9  1  0
  2  1  2  0
  2  3  1  0
  3  4  1  0
  4  5  2  0
  5  6  1  0
  7  6  2  0
  8  7  1  0
  9  4  1  0
  9  8  2  0
 10 15  2  0
 11 10  1  0
 11 12  2  0
 12 13  1  0
 13 14  2  0
 14  1  1  0
 15 14  1  0
 16 12  1  0
 16 21  1  0
 17 18  1  0
 17 16  1  0
 18 19  1  0
 19 20  1  0
 21 20  1  0
  2 22  1  0
  3 23  1  0
  5 24  1  0
  6 25  1  0
  7 26  1  0
  8 27  1  0
 10 28  1  0
 11 29  1  0
 16 30  1  0
 17 31  1  0
 17 32  1  0
 18 33  1  0
 18 34  1  0
 19 35  1  0
 19 36  1  0
 20 37  1  0
 20 38  1  0
 21 39  1  0
 21 40  1  0
M  ISO  8  22  14  23   9  24  14  25  14  26  14  27  14  28  14  29  14
M  ISO  8  30  13  31  13  32  13  33  13  34  13  35  13  36  13  37  13
M  ISO  3  38  13  39  13  40  13
M  END
>  <minimizedAffinity>  (1) 
-6.00872564

>  <minimizedRMSD>  (1) 
0.241690546

$$$$
