
     RDKit          3D

 33 36  0  0  0  0  0  0  0  0999 V2000
   35.6270   30.0640   47.7920 C   0  0  0  0  0  0  0  0  0  0  0  0
   36.6400   30.6730   47.0630 C   0  0  0  0  0  0  0  0  0  0  0  0
   37.6790   30.9680   47.8670 N   0  0  0  0  0  0  0  0  0  0  0  0
   37.3700   30.5660   49.1070 C   0  0  0  0  0  0  0  0  0  0  0  0
   38.0500   30.6110   50.3320 C   0  0  0  0  0  0  0  0  0  0  0  0
   37.4630   30.1080   51.4680 C   0  0  0  0  0  0  0  0  0  0  0  0
   36.2100   29.5640   51.3890 C   0  0  0  0  0  0  0  0  0  0  0  0
   35.4720   29.4840   50.2040 C   0  0  0  0  0  0  0  0  0  0  0  0
   36.1020   30.0040   49.0840 C   0  0  0  0  0  0  0  0  0  0  0  0
   32.3260   29.9840   46.1520 C   0  0  0  0  0  0  0  0  0  0  0  0
   32.0490   28.6060   46.1800 C   0  0  0  0  0  0  0  0  0  0  0  0
   32.9880   27.7400   46.7540 C   0  0  0  0  0  0  0  0  0  0  0  0
   34.1350   28.2790   47.2620 N   0  0  0  0  0  0  0  0  0  0  0  0
   34.3640   29.6200   47.2150 C   0  0  0  0  0  0  0  0  0  0  0  0
   33.4860   30.4540   46.6750 N   0  0  0  0  0  0  0  0  0  0  0  0
   32.8240   26.2960   46.8460 C   0  0  0  0  0  0  0  0  0  0  0  0
   33.8130   25.4620   47.3040 C   0  0  0  0  0  0  0  0  0  0  0  0
   33.6930   24.0810   47.4070 C   0  0  0  0  0  0  0  0  0  0  0  0
   32.4970   23.4920   47.0230 C   0  0  0  0  0  0  0  0  0  0  0  0
   31.5120   24.3530   46.5640 C   0  0  0  0  0  0  0  0  0  0  0  0
   31.6830   25.6840   46.4860 N   0  0  0  0  0  0  0  0  0  0  0  0
   36.5994   30.8840   45.9842 H   0  0  0  0  0  0  0  0  0  0  0  0
   38.5572   31.4229   47.5792 H   0  0  0  0  0  0  0  0  0  0  0  0
   39.0570   31.0505   50.3840 H   0  0  0  0  0  0  0  0  0  0  0  0
   37.9946   30.1423   52.4304 H   0  0  0  0  0  0  0  0  0  0  0  0
   35.7576   29.1671   52.3098 H   0  0  0  0  0  0  0  0  0  0  0  0
   34.4659   29.0412   50.1635 H   0  0  0  0  0  0  0  0  0  0  0  0
   31.6017   30.6814   45.7058 H   0  0  0  0  0  0  0  0  0  0  0  0
   31.1112   28.2149   45.7585 H   0  0  0  0  0  0  0  0  0  0  0  0
   34.7661   25.9177   47.6106 H   0  0  0  0  0  0  0  0  0  0  0  0
   34.5263   23.4698   47.7839 H   0  0  0  0  0  0  0  0  0  0  0  0
   32.3394   22.4048   47.0794 H   0  0  0  0  0  0  0  0  0  0  0  0
   30.5474   23.9279   46.2496 H   0  0  0  0  0  0  0  0  0  0  0  0
  1  9  1  0
  2  1  2  0
  2  3  1  0
  3  4  1  0
  4  5  2  0
  5  6  1  0
  7  6  2  0
  8  7  1  0
  9  4  1  0
  9  8  2  0
 10 11  2  0
 10 15  1  0
 11 12  1  0
 12 16  1  0
 12 13  2  0
 14 13  1  0
 14  1  1  0
 15 14  2  0
 16 17  2  0
 17 18  1  0
 19 18  2  0
 20 19  1  0
 21 20  2  0
 21 16  1  0
  2 22  1  0
  3 23  1  0
  5 24  1  0
  6 25  1  0
  7 26  1  0
  8 27  1  0
 10 28  1  0
 11 29  1  0
 17 30  1  0
 18 31  1  0
 19 32  1  0
 20 33  1  0
M  ISO  8  22  14  23   9  24  14  25  14  26  14  27  14  28  14  29  14
M  ISO  4  30  14  31  14  32  14  33  14
M  END
>  <minimizedAffinity>  (1) 
-5.84864521

>  <minimizedRMSD>  (1) 
0.36131829

$$$$
