
     RDKit          3D

 36 38  0  0  0  0  0  0  0  0999 V2000
   35.5900   30.0610   47.7980 C   0  0  0  0  0  0  0  0  0  0  0  0
   36.6030   30.6570   47.0570 C   0  0  0  0  0  0  0  0  0  0  0  0
   37.6450   30.9370   47.8620 N   0  0  0  0  0  0  0  0  0  0  0  0
   37.3290   30.5320   49.1170 C   0  0  0  0  0  0  0  0  0  0  0  0
   38.0490   30.5920   50.2970 C   0  0  0  0  0  0  0  0  0  0  0  0
   37.4560   30.0910   51.4450 C   0  0  0  0  0  0  0  0  0  0  0  0
   36.1810   29.5510   51.3910 C   0  0  0  0  0  0  0  0  0  0  0  0
   35.4370   29.4820   50.2080 C   0  0  0  0  0  0  0  0  0  0  0  0
   36.0520   29.9860   49.0920 C   0  0  0  0  0  0  0  0  0  0  0  0
   32.3160   30.0230   46.1050 C   0  0  0  0  0  0  0  0  0  0  0  0
   31.9560   28.6730   46.2080 C   0  0  0  0  0  0  0  0  0  0  0  0
   32.8510   27.7870   46.8640 C   0  0  0  0  0  0  0  0  0  0  0  0
   34.0010   28.3360   47.3440 N   0  0  0  0  0  0  0  0  0  0  0  0
   34.3220   29.6340   47.2320 C   0  0  0  0  0  0  0  0  0  0  0  0
   33.4850   30.4610   46.6180 N   0  0  0  0  0  0  0  0  0  0  0  0
   32.5240   26.3530   47.0040 C   0  0  0  0  0  0  0  0  0  0  0  0
   33.8030   25.5720   47.3020 C   0  0  0  0  0  0  0  0  0  0  0  0
   31.5030   26.1070   48.0860 C   0  0  0  0  0  0  0  0  0  0  0  0
   31.9900   25.8350   45.6850 C   0  0  0  0  0  0  0  0  0  0  0  0
   36.5601   30.8677   45.9782 H   0  0  0  0  0  0  0  0  0  0  0  0
   38.5286   31.3815   47.5747 H   0  0  0  0  0  0  0  0  0  0  0  0
   39.0604   31.0238   50.3231 H   0  0  0  0  0  0  0  0  0  0  0  0
   37.9987   30.1221   52.4013 H   0  0  0  0  0  0  0  0  0  0  0  0
   35.7349   29.1600   52.3174 H   0  0  0  0  0  0  0  0  0  0  0  0
   34.4252   29.0516   50.1760 H   0  0  0  0  0  0  0  0  0  0  0  0
   31.6409   30.7312   45.6023 H   0  0  0  0  0  0  0  0  0  0  0  0
   31.0051   28.3090   45.7917 H   0  0  0  0  0  0  0  0  0  0  0  0
   33.9373   25.4900   48.3907 H   0  0  0  0  0  0  0  0  0  0  0  0
   33.7282   24.5653   46.8649 H   0  0  0  0  0  0  0  0  0  0  0  0
   34.6643   26.0984   46.8649 H   0  0  0  0  0  0  0  0  0  0  0  0
   31.9782   26.2215   49.0714 H   0  0  0  0  0  0  0  0  0  0  0  0
   30.6826   26.8332   47.9879 H   0  0  0  0  0  0  0  0  0  0  0  0
   31.1034   25.0869   47.9879 H   0  0  0  0  0  0  0  0  0  0  0  0
   31.2123   25.0806   45.8751 H   0  0  0  0  0  0  0  0  0  0  0  0
   31.5595   26.6687   45.1109 H   0  0  0  0  0  0  0  0  0  0  0  0
   32.8102   25.3794   45.1109 H   0  0  0  0  0  0  0  0  0  0  0  0
  1  9  1  0
  2  1  2  0
  2  3  1  0
  3  4  1  0
  4  5  2  0
  5  6  1  0
  7  6  2  0
  8  7  1  0
  9  4  1  0
  9  8  2  0
 10 11  2  0
 10 15  1  0
 11 12  1  0
 12 16  1  0
 12 13  2  0
 14 13  1  0
 14  1  1  0
 15 14  2  0
 16 17  1  0
 16 18  1  0
 19 16  1  0
  2 20  1  0
  3 21  1  0
  5 22  1  0
  6 23  1  0
  7 24  1  0
  8 25  1  0
 10 26  1  0
 11 27  1  0
 17 28  1  0
 17 29  1  0
 17 30  1  0
 18 31  1  0
 18 32  1  0
 18 33  1  0
 19 34  1  0
 19 35  1  0
 19 36  1  0
M  ISO  8  20  14  21   9  22  14  23  14  24  14  25  14  26  14  27  14
M  ISO  8  28   8  29   8  30   8  31   8  32   8  33   8  34   8  35   8
M  ISO  1  36   8
M  END
>  <minimizedAffinity>  (1) 
-5.76741123

>  <minimizedRMSD>  (1) 
0.321935952

$$$$
