
     RDKit          3D

 31 34  0  0  0  0  0  0  0  0999 V2000
   35.6660   30.0550   47.8490 C   0  0  0  0  0  0  0  0  0  0  0  0
   36.6480   30.7070   47.1130 C   0  0  0  0  0  0  0  0  0  0  0  0
   37.6750   31.0390   47.9170 N   0  0  0  0  0  0  0  0  0  0  0  0
   37.3800   30.6130   49.1730 C   0  0  0  0  0  0  0  0  0  0  0  0
   38.0700   30.6880   50.3780 C   0  0  0  0  0  0  0  0  0  0  0  0
   37.5070   30.1570   51.5120 C   0  0  0  0  0  0  0  0  0  0  0  0
   36.2770   29.5620   51.4360 C   0  0  0  0  0  0  0  0  0  0  0  0
   35.5460   29.4610   50.2540 C   0  0  0  0  0  0  0  0  0  0  0  0
   36.1350   30.0010   49.1400 C   0  0  0  0  0  0  0  0  0  0  0  0
   32.3810   29.8460   46.1900 C   0  0  0  0  0  0  0  0  0  0  0  0
   32.1260   28.4660   46.2320 C   0  0  0  0  0  0  0  0  0  0  0  0
   33.0910   27.6500   46.8290 C   0  0  0  0  0  0  0  0  0  0  0  0
   34.2190   28.2170   47.3360 N   0  0  0  0  0  0  0  0  0  0  0  0
   34.4200   29.5620   47.2720 C   0  0  0  0  0  0  0  0  0  0  0  0
   33.5170   30.3530   46.7090 N   0  0  0  0  0  0  0  0  0  0  0  0
   32.8620   26.2360   46.8880 C   0  0  0  0  0  0  0  0  0  0  0  0
   33.6450   25.1820   47.2550 C   0  0  0  0  0  0  0  0  0  0  0  0
   33.1920   23.9160   47.2250 C   0  0  0  0  0  0  0  0  0  0  0  0
   31.7990   23.7780   46.7670 C   0  0  0  0  0  0  0  0  0  0  0  0
   31.3170   25.5520   46.4330 S   0  0  0  0  0  0  0  0  0  0  0  0
   36.5940   30.9198   46.0351 H   0  0  0  0  0  0  0  0  0  0  0  0
   38.5339   31.5299   47.6304 H   0  0  0  0  0  0  0  0  0  0  0  0
   39.0584   31.1687   50.4222 H   0  0  0  0  0  0  0  0  0  0  0  0
   38.0398   30.2094   52.4729 H   0  0  0  0  0  0  0  0  0  0  0  0
   35.8430   29.1418   52.3553 H   0  0  0  0  0  0  0  0  0  0  0  0
   34.5583   28.9783   50.2171 H   0  0  0  0  0  0  0  0  0  0  0  0
   31.6454   30.5211   45.7283 H   0  0  0  0  0  0  0  0  0  0  0  0
   31.2019   28.0431   45.8111 H   0  0  0  0  0  0  0  0  0  0  0  0
   34.6769   25.3725   47.5851 H   0  0  0  0  0  0  0  0  0  0  0  0
   33.8106   23.0550   47.5182 H   0  0  0  0  0  0  0  0  0  0  0  0
   31.1968   22.8648   46.6513 H   0  0  0  0  0  0  0  0  0  0  0  0
  1  9  1  0
  2  1  2  0
  2  3  1  0
  3  4  1  0
  4  5  2  0
  5  6  1  0
  7  6  2  0
  8  7  1  0
  9  4  1  0
  9  8  2  0
 10 11  2  0
 10 15  1  0
 11 12  1  0
 12 16  1  0
 12 13  2  0
 14 13  1  0
 14  1  1  0
 15 14  2  0
 16 17  2  0
 18 17  1  0
 19 18  2  0
 20 19  1  0
 20 16  1  0
  2 21  1  0
  3 22  1  0
  5 23  1  0
  6 24  1  0
  7 25  1  0
  8 26  1  0
 10 27  1  0
 11 28  1  0
 17 29  1  0
 18 30  1  0
 19 31  1  0
M  ISO  8  21  14  22   9  23  14  24  14  25  14  26  14  27  14  28  14
M  ISO  3  29  14  30  14  31  14
M  END
>  <minimizedAffinity>  (1) 
-5.692729

>  <minimizedRMSD>  (1) 
0.219529778

$$$$
