
     RDKit          3D

 36 39  0  0  0  0  0  0  0  0999 V2000
   35.6680   30.0650   47.7870 C   0  0  0  0  0  0  0  0  0  0  0  0
   36.6860   30.6980   47.0870 C   0  0  0  0  0  0  0  0  0  0  0  0
   37.7010   31.0020   47.9090 N   0  0  0  0  0  0  0  0  0  0  0  0
   37.3630   30.5720   49.1540 C   0  0  0  0  0  0  0  0  0  0  0  0
   38.0380   30.6330   50.3600 C   0  0  0  0  0  0  0  0  0  0  0  0
   37.4290   30.1010   51.4870 C   0  0  0  0  0  0  0  0  0  0  0  0
   36.1770   29.5290   51.3900 C   0  0  0  0  0  0  0  0  0  0  0  0
   35.4780   29.4580   50.1820 C   0  0  0  0  0  0  0  0  0  0  0  0
   36.1050   29.9910   49.0870 C   0  0  0  0  0  0  0  0  0  0  0  0
   32.3460   29.9960   46.1950 C   0  0  0  0  0  0  0  0  0  0  0  0
   32.1260   28.6290   46.0640 C   0  0  0  0  0  0  0  0  0  0  0  0
   33.1170   27.7470   46.5220 C   0  0  0  0  0  0  0  0  0  0  0  0
   34.2550   28.2660   47.0780 N   0  0  0  0  0  0  0  0  0  0  0  0
   34.4260   29.6060   47.1840 C   0  0  0  0  0  0  0  0  0  0  0  0
   33.4890   30.4740   46.7510 N   0  0  0  0  0  0  0  0  0  0  0  0
   33.0340   26.3380   46.4570 N   0  0  0  0  0  0  0  0  0  0  0  0
   34.0420   25.3410   46.1640 C   0  0  0  0  0  0  0  0  0  0  0  0
   33.9160   24.4000   47.3480 C   0  0  0  0  0  0  0  0  0  0  0  0
   32.4100   24.3850   47.5980 C   0  0  0  0  0  0  0  0  0  0  0  0
   31.8850   25.4800   46.6710 C   0  0  0  0  0  0  0  0  0  0  0  0
   36.6633   30.9191   46.0097 H   0  0  0  0  0  0  0  0  0  0  0  0
   38.5771   31.4751   47.6453 H   0  0  0  0  0  0  0  0  0  0  0  0
   39.0352   31.0930   50.4238 H   0  0  0  0  0  0  0  0  0  0  0  0
   37.9442   30.1351   52.4583 H   0  0  0  0  0  0  0  0  0  0  0  0
   35.7123   29.1138   52.2965 H   0  0  0  0  0  0  0  0  0  0  0  0
   34.4803   28.9998   50.1143 H   0  0  0  0  0  0  0  0  0  0  0  0
   31.5805   30.7026   45.8419 H   0  0  0  0  0  0  0  0  0  0  0  0
   31.1980   28.2484   45.6125 H   0  0  0  0  0  0  0  0  0  0  0  0
   33.8271   24.8226   45.2179 H   0  0  0  0  0  0  0  0  0  0  0  0
   35.0519   25.7582   46.0371 H   0  0  0  0  0  0  0  0  0  0  0  0
   34.2878   23.3952   47.0987 H   0  0  0  0  0  0  0  0  0  0  0  0
   34.5031   24.7149   48.2233 H   0  0  0  0  0  0  0  0  0  0  0  0
   31.9776   23.4078   47.3370 H   0  0  0  0  0  0  0  0  0  0  0  0
   32.1486   24.5543   48.6530 H   0  0  0  0  0  0  0  0  0  0  0  0
   31.0648   26.0364   47.1482 H   0  0  0  0  0  0  0  0  0  0  0  0
   31.4745   25.0796   45.7323 H   0  0  0  0  0  0  0  0  0  0  0  0
  1  9  1  0
  2  1  2  0
  2  3  1  0
  3  4  1  0
  4  5  2  0
  5  6  1  0
  7  6  2  0
  8  7  1  0
  9  4  1  0
  9  8  2  0
 10 15  2  0
 11 10  1  0
 11 12  2  0
 12 13  1  0
 13 14  2  0
 14  1  1  0
 15 14  1  0
 16 12  1  0
 16 20  1  0
 17 16  1  0
 17 18  1  0
 18 19  1  0
 20 19  1  0
  2 21  1  0
  3 22  1  0
  5 23  1  0
  6 24  1  0
  7 25  1  0
  8 26  1  0
 10 27  1  0
 11 28  1  0
 17 29  1  0
 17 30  1  0
 18 31  1  0
 18 32  1  0
 19 33  1  0
 19 34  1  0
 20 35  1  0
 20 36  1  0
M  ISO  8  21  14  22   9  23  14  24  14  25  14  26  14  27  14  28  14
M  ISO  8  29  13  30  13  31  13  32  13  33  13  34  13  35  13  36  13
M  END
>  <minimizedAffinity>  (1) 
-5.68988514

>  <minimizedRMSD>  (1) 
0.168888167

$$$$
