
     RDKit          3D

 29 32  0  0  0  0  0  0  0  0999 V2000
   35.6630   30.0410   47.8570 C   0  0  0  0  0  0  0  0  0  0  0  0
   36.6280   30.6880   47.1120 C   0  0  0  0  0  0  0  0  0  0  0  0
   37.6580   31.0290   47.8970 N   0  0  0  0  0  0  0  0  0  0  0  0
   37.3860   30.6150   49.1550 C   0  0  0  0  0  0  0  0  0  0  0  0
   38.0950   30.7060   50.3430 C   0  0  0  0  0  0  0  0  0  0  0  0
   37.5400   30.1740   51.4940 C   0  0  0  0  0  0  0  0  0  0  0  0
   36.2960   29.5630   51.4450 C   0  0  0  0  0  0  0  0  0  0  0  0
   35.5640   29.4580   50.2660 C   0  0  0  0  0  0  0  0  0  0  0  0
   36.1440   29.9960   49.1460 C   0  0  0  0  0  0  0  0  0  0  0  0
   32.3900   29.8090   46.1550 C   0  0  0  0  0  0  0  0  0  0  0  0
   32.0960   28.4550   46.2990 C   0  0  0  0  0  0  0  0  0  0  0  0
   33.0160   27.6370   46.9750 C   0  0  0  0  0  0  0  0  0  0  0  0
   34.1580   28.2110   47.4590 N   0  0  0  0  0  0  0  0  0  0  0  0
   34.4050   29.5370   47.2950 C   0  0  0  0  0  0  0  0  0  0  0  0
   33.5380   30.3130   46.6580 N   0  0  0  0  0  0  0  0  0  0  0  0
   32.7480   26.2140   47.1480 C   0  0  0  0  0  0  0  0  0  0  0  0
   31.6550   25.4420   47.3040 N   0  0  0  0  0  0  0  0  0  0  0  0
   32.0110   24.1960   47.4170 O   0  0  0  0  0  0  0  0  0  0  0  0
   33.3330   24.1160   47.3380 C   0  0  0  0  0  0  0  0  0  0  0  0
   33.8070   25.3690   47.1700 N   0  0  0  0  0  0  0  0  0  0  0  0
   36.5610   30.8931   46.0334 H   0  0  0  0  0  0  0  0  0  0  0  0
   38.5104   31.5217   47.5945 H   0  0  0  0  0  0  0  0  0  0  0  0
   39.0812   31.1924   50.3703 H   0  0  0  0  0  0  0  0  0  0  0  0
   38.0855   30.2358   52.4472 H   0  0  0  0  0  0  0  0  0  0  0  0
   35.8728   29.1465   52.3710 H   0  0  0  0  0  0  0  0  0  0  0  0
   34.5778   28.9718   50.2344 H   0  0  0  0  0  0  0  0  0  0  0  0
   31.6849   30.4701   45.6299 H   0  0  0  0  0  0  0  0  0  0  0  0
   31.1639   28.0358   45.8923 H   0  0  0  0  0  0  0  0  0  0  0  0
   33.9335   23.1963   47.3984 H   0  0  0  0  0  0  0  0  0  0  0  0
  1  9  1  0
  2  1  2  0
  2  3  1  0
  3  4  1  0
  4  5  2  0
  5  6  1  0
  7  6  2  0
  8  7  1  0
  9  4  1  0
  9  8  2  0
 10 11  2  0
 10 15  1  0
 11 12  1  0
 12 16  1  0
 12 13  2  0
 14 13  1  0
 14  1  1  0
 15 14  2  0
 16 20  1  0
 16 17  2  0
 17 18  1  0
 19 18  1  0
 20 19  2  0
  2 21  1  0
  3 22  1  0
  5 23  1  0
  6 24  1  0
  7 25  1  0
  8 26  1  0
 10 27  1  0
 11 28  1  0
 19 29  1  0
M  ISO  8  21  14  22   9  23  14  24  14  25  14  26  14  27  14  28  14
M  ISO  1  29  14
M  END
>  <minimizedAffinity>  (1) 
-5.67390728

>  <minimizedRMSD>  (1) 
0.38545078

$$$$
