
     RDKit          3D

 30 33  0  0  0  0  0  0  0  0999 V2000
   35.6630   30.0300   47.8390 C   0  0  0  0  0  0  0  0  0  0  0  0
   36.6480   30.6830   47.1090 C   0  0  0  0  0  0  0  0  0  0  0  0
   37.6710   31.0240   47.9100 N   0  0  0  0  0  0  0  0  0  0  0  0
   37.3760   30.6040   49.1580 C   0  0  0  0  0  0  0  0  0  0  0  0
   38.0730   30.6960   50.3550 C   0  0  0  0  0  0  0  0  0  0  0  0
   37.5010   30.1610   51.4910 C   0  0  0  0  0  0  0  0  0  0  0  0
   36.2570   29.5470   51.4330 C   0  0  0  0  0  0  0  0  0  0  0  0
   35.5320   29.4410   50.2450 C   0  0  0  0  0  0  0  0  0  0  0  0
   36.1290   29.9830   49.1320 C   0  0  0  0  0  0  0  0  0  0  0  0
   32.3760   29.8400   46.1930 C   0  0  0  0  0  0  0  0  0  0  0  0
   32.1320   28.4710   46.2170 C   0  0  0  0  0  0  0  0  0  0  0  0
   33.0850   27.6200   46.7930 C   0  0  0  0  0  0  0  0  0  0  0  0
   34.2080   28.2160   47.2980 N   0  0  0  0  0  0  0  0  0  0  0  0
   34.4290   29.5370   47.2670 C   0  0  0  0  0  0  0  0  0  0  0  0
   33.5170   30.3540   46.7160 N   0  0  0  0  0  0  0  0  0  0  0  0
   32.9000   26.1630   46.8550 C   0  0  0  0  0  0  0  0  0  0  0  0
   31.6890   25.5960   46.4120 C   0  0  0  0  0  0  0  0  0  0  0  0
   31.9520   23.8120   46.6920 S   0  0  0  0  0  0  0  0  0  0  0  0
   33.6950   24.1450   47.3750 C   0  0  0  0  0  0  0  0  0  0  0  0
   33.7640   25.2650   47.2960 N   0  0  0  0  0  0  0  0  0  0  0  0
   36.5975   30.8910   46.0300 H   0  0  0  0  0  0  0  0  0  0  0  0
   38.5279   31.5180   47.6228 H   0  0  0  0  0  0  0  0  0  0  0  0
   39.0580   31.1839   50.3969 H   0  0  0  0  0  0  0  0  0  0  0  0
   38.0351   30.2214   52.4507 H   0  0  0  0  0  0  0  0  0  0  0  0
   35.8278   29.1294   52.3557 H   0  0  0  0  0  0  0  0  0  0  0  0
   34.5462   28.9549   50.2023 H   0  0  0  0  0  0  0  0  0  0  0  0
   31.6332   30.5154   45.7435 H   0  0  0  0  0  0  0  0  0  0  0  0
   31.2044   28.0620   45.7900 H   0  0  0  0  0  0  0  0  0  0  0  0
   30.8042   26.1029   45.9995 H   0  0  0  0  0  0  0  0  0  0  0  0
   34.4413   23.4291   47.7497 H   0  0  0  0  0  0  0  0  0  0  0  0
  1  9  1  0
  2  1  2  0
  2  3  1  0
  3  4  1  0
  4  5  2  0
  5  6  1  0
  7  6  2  0
  8  7  1  0
  9  4  1  0
  9  8  2  0
 10 11  2  0
 10 15  1  0
 11 12  1  0
 12 16  1  0
 12 13  2  0
 14 13  1  0
 14  1  1  0
 15 14  2  0
 16 20  1  0
 17 18  1  0
 17 16  2  0
 18 19  1  0
 20 19  2  0
  2 21  1  0
  3 22  1  0
  5 23  1  0
  6 24  1  0
  7 25  1  0
  8 26  1  0
 10 27  1  0
 11 28  1  0
 17 29  1  0
 19 30  1  0
M  ISO  8  21  14  22   9  23  14  24  14  25  14  26  14  27  14  28  14
M  ISO  2  29  14  30  14
M  END
>  <minimizedAffinity>  (1) 
-5.57073021

>  <minimizedRMSD>  (1) 
0.173916206

$$$$
