
     RDKit          3D

 31 33  0  0  0  0  0  0  0  0999 V2000
   32.3290   30.0210   46.1400 C   0  0  0  0  0  0  0  0  0  0  0  0
   32.1040   28.6320   46.0290 C   0  0  0  0  0  0  0  0  0  0  0  0
   33.0750   27.7360   46.5050 C   0  0  0  0  0  0  0  0  0  0  0  0
   34.1910   28.2800   47.0510 N   0  0  0  0  0  0  0  0  0  0  0  0
   34.4030   29.6010   47.1550 C   0  0  0  0  0  0  0  0  0  0  0  0
   33.4820   30.4760   46.7050 N   0  0  0  0  0  0  0  0  0  0  0  0
   35.6430   30.0560   47.7630 C   0  0  0  0  0  0  0  0  0  0  0  0
   36.6660   30.6830   47.0830 C   0  0  0  0  0  0  0  0  0  0  0  0
   37.6710   30.9780   47.9310 N   0  0  0  0  0  0  0  0  0  0  0  0
   37.3160   30.5490   49.1590 C   0  0  0  0  0  0  0  0  0  0  0  0
   37.9810   30.6070   50.3690 C   0  0  0  0  0  0  0  0  0  0  0  0
   37.3560   30.0730   51.4940 C   0  0  0  0  0  0  0  0  0  0  0  0
   36.0980   29.5030   51.3770 C   0  0  0  0  0  0  0  0  0  0  0  0
   35.4030   29.4310   50.1730 C   0  0  0  0  0  0  0  0  0  0  0  0
   36.0490   29.9660   49.0890 C   0  0  0  0  0  0  0  0  0  0  0  0
   32.9030   26.3500   46.4190 N   0  0  0  0  0  0  0  0  0  0  0  0
   31.9360   25.6260   47.1620 C   0  0  0  0  0  0  0  0  0  0  0  0
   31.5130   26.1620   48.2780 N   0  0  0  0  0  0  0  0  0  0  0  0
   31.5050   24.3720   46.6260 N   0  0  0  0  0  0  0  0  0  0  0  0
   30.7920   25.5560   48.7680 H   0  0  0  0  0  0  0  0  0  0  0  0
   31.5761   30.7334   45.7717 H   0  0  0  0  0  0  0  0  0  0  0  0
   31.1764   28.2547   45.5737 H   0  0  0  0  0  0  0  0  0  0  0  0
   36.6622   30.9091   46.0065 H   0  0  0  0  0  0  0  0  0  0  0  0
   38.5539   31.4479   47.6847 H   0  0  0  0  0  0  0  0  0  0  0  0
   38.9791   31.0635   50.4422 H   0  0  0  0  0  0  0  0  0  0  0  0
   37.8592   30.1037   52.4717 H   0  0  0  0  0  0  0  0  0  0  0  0
   35.6259   29.0873   52.2794 H   0  0  0  0  0  0  0  0  0  0  0  0
   34.4043   28.9762   50.0968 H   0  0  0  0  0  0  0  0  0  0  0  0
   33.5148   25.8246   45.7783 H   0  0  0  0  0  0  0  0  0  0  0  0
   30.8041   23.8101   47.1299 H   0  0  0  0  0  0  0  0  0  0  0  0
   31.8955   24.0308   45.7361 H   0  0  0  0  0  0  0  0  0  0  0  0
  1  6  2  0
  2  1  1  0
  2  3  2  0
  3  4  1  0
  4  5  2  0
  5  7  1  0
  6  5  1  0
  7 15  1  0
  8  7  2  0
  8  9  1  0
  9 10  1  0
 10 11  2  0
 11 12  1  0
 13 12  2  0
 14 13  1  0
 15 10  1  0
 15 14  2  0
 16  3  1  0
 16 17  1  0
 17 18  2  0
 18 20  1  0
 19 17  1  0
  1 21  1  0
  2 22  1  0
  8 23  1  0
  9 24  1  0
 11 25  1  0
 12 26  1  0
 13 27  1  0
 14 28  1  0
 16 29  1  0
 19 30  1  0
 19 31  1  0
M  ISO  8  21  14  22  14  23  14  24   9  25  14  26  14  27  14  28  14
M  END
>  <minimizedAffinity>  (1) 
-5.52900362

>  <minimizedRMSD>  (1) 
0.645344973

$$$$
