
     RDKit          3D

 27 29  0  0  0  0  0  0  0  0999 V2000
   35.6420   30.0150   47.8290 C   0  0  0  0  0  0  0  0  0  0  0  0
   36.6240   30.6520   47.0980 C   0  0  0  0  0  0  0  0  0  0  0  0
   37.6570   30.9900   47.8930 N   0  0  0  0  0  0  0  0  0  0  0  0
   37.3650   30.5810   49.1420 C   0  0  0  0  0  0  0  0  0  0  0  0
   38.0710   30.6750   50.3320 C   0  0  0  0  0  0  0  0  0  0  0  0
   37.4990   30.1490   51.4890 C   0  0  0  0  0  0  0  0  0  0  0  0
   36.2550   29.5500   51.4400 C   0  0  0  0  0  0  0  0  0  0  0  0
   35.5300   29.4460   50.2510 C   0  0  0  0  0  0  0  0  0  0  0  0
   36.1190   29.9740   49.1240 C   0  0  0  0  0  0  0  0  0  0  0  0
   32.3580   29.8410   46.1750 C   0  0  0  0  0  0  0  0  0  0  0  0
   32.0660   28.4750   46.2710 C   0  0  0  0  0  0  0  0  0  0  0  0
   33.0040   27.6410   46.9020 C   0  0  0  0  0  0  0  0  0  0  0  0
   34.1430   28.2000   47.3860 N   0  0  0  0  0  0  0  0  0  0  0  0
   34.3960   29.5210   47.2790 C   0  0  0  0  0  0  0  0  0  0  0  0
   33.5130   30.3350   46.6780 N   0  0  0  0  0  0  0  0  0  0  0  0
   32.7050   26.1930   47.0100 C   0  0  0  0  0  0  0  0  0  0  0  0
   36.5705   30.8550   46.0182 H   0  0  0  0  0  0  0  0  0  0  0  0
   38.5167   31.4747   47.5983 H   0  0  0  0  0  0  0  0  0  0  0  0
   39.0607   31.1542   50.3620 H   0  0  0  0  0  0  0  0  0  0  0  0
   38.0400   30.2110   52.4447 H   0  0  0  0  0  0  0  0  0  0  0  0
   35.8225   29.1426   52.3657 H   0  0  0  0  0  0  0  0  0  0  0  0
   34.5402   28.9673   50.2166 H   0  0  0  0  0  0  0  0  0  0  0  0
   31.6423   30.5185   45.6864 H   0  0  0  0  0  0  0  0  0  0  0  0
   31.1292   28.0666   45.8641 H   0  0  0  0  0  0  0  0  0  0  0  0
   32.6463   25.9089   48.0710 H   0  0  0  0  0  0  0  0  0  0  0  0
   31.7438   25.9795   46.5195 H   0  0  0  0  0  0  0  0  0  0  0  0
   33.5030   25.6162   46.5195 H   0  0  0  0  0  0  0  0  0  0  0  0
  1  9  1  0
  2  1  2  0
  2  3  1  0
  3  4  1  0
  4  5  2  0
  5  6  1  0
  7  6  2  0
  8  7  1  0
  9  4  1  0
  9  8  2  0
 10 11  2  0
 10 15  1  0
 11 12  1  0
 12 16  1  0
 12 13  2  0
 14 13  1  0
 14  1  1  0
 15 14  2  0
  2 17  1  0
  3 18  1  0
  5 19  1  0
  6 20  1  0
  7 21  1  0
  8 22  1  0
 10 23  1  0
 11 24  1  0
 16 25  1  0
 16 26  1  0
 16 27  1  0
M  ISO  8  17  14  18   9  19  14  20  14  21  14  22  14  23  14  24  14
M  ISO  3  25   8  26   8  27   8
M  END
>  <minimizedAffinity>  (1) 
-5.46487188

>  <minimizedRMSD>  (1) 
0.148772806

$$$$
