
     RDKit          3D

 25 27  0  0  0  0  0  0  0  0999 V2000
   35.6200   30.0180   47.8150 C   0  0  0  0  0  0  0  0  0  0  0  0
   36.6020   30.6360   47.0860 C   0  0  0  0  0  0  0  0  0  0  0  0
   37.6430   30.9640   47.8780 N   0  0  0  0  0  0  0  0  0  0  0  0
   37.3470   30.5610   49.1300 C   0  0  0  0  0  0  0  0  0  0  0  0
   38.0570   30.6500   50.3150 C   0  0  0  0  0  0  0  0  0  0  0  0
   37.4970   30.1400   51.4710 C   0  0  0  0  0  0  0  0  0  0  0  0
   36.2430   29.5550   51.4250 C   0  0  0  0  0  0  0  0  0  0  0  0
   35.5020   29.4510   50.2470 C   0  0  0  0  0  0  0  0  0  0  0  0
   36.0970   29.9710   49.1110 C   0  0  0  0  0  0  0  0  0  0  0  0
   32.3280   29.8740   46.1640 C   0  0  0  0  0  0  0  0  0  0  0  0
   32.0250   28.5140   46.2770 C   0  0  0  0  0  0  0  0  0  0  0  0
   32.9500   27.6580   46.9170 C   0  0  0  0  0  0  0  0  0  0  0  0
   34.0980   28.2220   47.3920 N   0  0  0  0  0  0  0  0  0  0  0  0
   34.3550   29.5330   47.2660 C   0  0  0  0  0  0  0  0  0  0  0  0
   33.4870   30.3540   46.6610 N   0  0  0  0  0  0  0  0  0  0  0  0
   32.6420   25.9020   47.1060 S   0  0  0  0  0  0  0  0  0  0  0  0
   36.5486   30.8365   46.0057 H   0  0  0  0  0  0  0  0  0  0  0  0
   38.5081   31.4370   47.5802 H   0  0  0  0  0  0  0  0  0  0  0  0
   39.0516   31.1194   50.3362 H   0  0  0  0  0  0  0  0  0  0  0  0
   38.0449   30.1986   52.4230 H   0  0  0  0  0  0  0  0  0  0  0  0
   35.8130   29.1557   52.3554 H   0  0  0  0  0  0  0  0  0  0  0  0
   34.5062   28.9844   50.2230 H   0  0  0  0  0  0  0  0  0  0  0  0
   31.6198   30.5546   45.6687 H   0  0  0  0  0  0  0  0  0  0  0  0
   31.0818   28.1163   45.8743 H   0  0  0  0  0  0  0  0  0  0  0  0
   32.5871   25.5888   48.4386 H   0  0  0  0  0  0  0  0  0  0  0  0
  1  9  1  0
  2  1  2  0
  2  3  1  0
  3  4  1  0
  4  5  2  0
  5  6  1  0
  7  6  2  0
  8  7  1  0
  9  4  1  0
  9  8  2  0
 10 11  2  0
 10 15  1  0
 11 12  1  0
 12 16  1  0
 12 13  2  0
 14 13  1  0
 14  1  1  0
 15 14  2  0
  2 17  1  0
  3 18  1  0
  5 19  1  0
  6 20  1  0
  7 21  1  0
  8 22  1  0
 10 23  1  0
 11 24  1  0
 16 25  1  0
M  ISO  8  17  14  18   9  19  14  20  14  21  14  22  14  23  14  24  14
M  ISO  1  25  11
M  END
>  <minimizedAffinity>  (1) 
-5.43578768

>  <minimizedRMSD>  (1) 
0.170125499

$$$$
