
     RDKit          3D

 26 28  0  0  0  0  0  0  0  0999 V2000
   35.6810   30.0720   47.7940 C   0  0  0  0  0  0  0  0  0  0  0  0
   36.6790   30.6970   47.0920 C   0  0  0  0  0  0  0  0  0  0  0  0
   37.7030   31.0060   47.9170 N   0  0  0  0  0  0  0  0  0  0  0  0
   37.3760   30.5840   49.1550 C   0  0  0  0  0  0  0  0  0  0  0  0
   38.0520   30.6450   50.3630 C   0  0  0  0  0  0  0  0  0  0  0  0
   37.4560   30.1200   51.4890 C   0  0  0  0  0  0  0  0  0  0  0  0
   36.2150   29.5500   51.4000 C   0  0  0  0  0  0  0  0  0  0  0  0
   35.4890   29.4600   50.2150 C   0  0  0  0  0  0  0  0  0  0  0  0
   36.1180   29.9980   49.0990 C   0  0  0  0  0  0  0  0  0  0  0  0
   32.3560   29.9520   46.1820 C   0  0  0  0  0  0  0  0  0  0  0  0
   32.1190   28.5820   46.1310 C   0  0  0  0  0  0  0  0  0  0  0  0
   33.0970   27.7040   46.6480 C   0  0  0  0  0  0  0  0  0  0  0  0
   34.2130   28.2800   47.1650 N   0  0  0  0  0  0  0  0  0  0  0  0
   34.4310   29.6040   47.2080 C   0  0  0  0  0  0  0  0  0  0  0  0
   33.5050   30.4220   46.7200 N   0  0  0  0  0  0  0  0  0  0  0  0
   33.0300   26.2980   46.6820 N   0  0  0  0  0  0  0  0  0  0  0  0
   36.6501   30.9150   46.0142 H   0  0  0  0  0  0  0  0  0  0  0  0
   38.5774   31.4794   47.6483 H   0  0  0  0  0  0  0  0  0  0  0  0
   39.0492   31.1055   50.4222 H   0  0  0  0  0  0  0  0  0  0  0  0
   37.9765   30.1590   52.4573 H   0  0  0  0  0  0  0  0  0  0  0  0
   35.7655   29.1397   52.3163 H   0  0  0  0  0  0  0  0  0  0  0  0
   34.4921   28.9976   50.1662 H   0  0  0  0  0  0  0  0  0  0  0  0
   31.6082   30.6540   45.7844 H   0  0  0  0  0  0  0  0  0  0  0  0
   31.1876   28.1901   45.6963 H   0  0  0  0  0  0  0  0  0  0  0  0
   33.8068   25.7550   47.0853 H   0  0  0  0  0  0  0  0  0  0  0  0
   32.2042   25.8125   46.3036 H   0  0  0  0  0  0  0  0  0  0  0  0
  1  9  1  0
  2  1  2  0
  2  3  1  0
  3  4  1  0
  4  5  2  0
  5  6  1  0
  7  6  2  0
  8  7  1  0
  9  4  1  0
  9  8  2  0
 10 15  2  0
 11 10  1  0
 11 12  2  0
 12 16  1  0
 12 13  1  0
 13 14  2  0
 14  1  1  0
 15 14  1  0
  2 17  1  0
  3 18  1  0
  5 19  1  0
  6 20  1  0
  7 21  1  0
  8 22  1  0
 10 23  1  0
 11 24  1  0
 16 25  1  0
 16 26  1  0
M  ISO  8  17  14  18   9  19  14  20  14  21  14  22  14  23  14  24  14
M  END
>  <minimizedAffinity>  (1) 
-5.38762045

>  <minimizedRMSD>  (1) 
0.0277566928

$$$$
