
     RDKit          3D

 32 35  0  0  0  0  0  0  0  0999 V2000
   35.6460   30.0570   47.8110 C   0  0  0  0  0  0  0  0  0  0  0  0
   36.6480   30.6860   47.0830 C   0  0  0  0  0  0  0  0  0  0  0  0
   37.6720   30.9940   47.8900 N   0  0  0  0  0  0  0  0  0  0  0  0
   37.3600   30.5780   49.1400 C   0  0  0  0  0  0  0  0  0  0  0  0
   38.0630   30.6520   50.3360 C   0  0  0  0  0  0  0  0  0  0  0  0
   37.4720   30.1260   51.4820 C   0  0  0  0  0  0  0  0  0  0  0  0
   36.2220   29.5520   51.4090 C   0  0  0  0  0  0  0  0  0  0  0  0
   35.4980   29.4680   50.2190 C   0  0  0  0  0  0  0  0  0  0  0  0
   36.1080   29.9970   49.0980 C   0  0  0  0  0  0  0  0  0  0  0  0
   32.3540   29.9510   46.1540 C   0  0  0  0  0  0  0  0  0  0  0  0
   32.0650   28.5830   46.1780 C   0  0  0  0  0  0  0  0  0  0  0  0
   33.0120   27.7300   46.7650 C   0  0  0  0  0  0  0  0  0  0  0  0
   34.1500   28.2540   47.2770 N   0  0  0  0  0  0  0  0  0  0  0  0
   34.3990   29.5930   47.2360 C   0  0  0  0  0  0  0  0  0  0  0  0
   33.5070   30.4290   46.6800 N   0  0  0  0  0  0  0  0  0  0  0  0
   32.7510   26.2960   46.8120 C   0  0  0  0  0  0  0  0  0  0  0  0
   33.7220   25.4620   47.3190 C   0  0  0  0  0  0  0  0  0  0  0  0
   33.4080   24.1210   47.3320 C   0  0  0  0  0  0  0  0  0  0  0  0
   32.2230   23.6470   46.8780 N   0  0  0  0  0  0  0  0  0  0  0  0
   31.2840   24.5000   46.3810 C   0  0  0  0  0  0  0  0  0  0  0  0
   31.5850   25.8280   46.3640 N   0  0  0  0  0  0  0  0  0  0  0  0
   36.6068   30.8994   46.0047 H   0  0  0  0  0  0  0  0  0  0  0  0
   38.5439   31.4648   47.6088 H   0  0  0  0  0  0  0  0  0  0  0  0
   39.0604   31.1140   50.3767 H   0  0  0  0  0  0  0  0  0  0  0  0
   38.0028   30.1689   52.4445 H   0  0  0  0  0  0  0  0  0  0  0  0
   35.7757   29.1426   52.3273 H   0  0  0  0  0  0  0  0  0  0  0  0
   34.5000   29.0075   50.1760 H   0  0  0  0  0  0  0  0  0  0  0  0
   31.6344   30.6491   45.7013 H   0  0  0  0  0  0  0  0  0  0  0  0
   31.1298   28.1901   45.7524 H   0  0  0  0  0  0  0  0  0  0  0  0
   34.6856   25.8418   47.6895 H   0  0  0  0  0  0  0  0  0  0  0  0
   34.1473   23.4081   47.7259 H   0  0  0  0  0  0  0  0  0  0  0  0
   30.3181   24.1295   46.0072 H   0  0  0  0  0  0  0  0  0  0  0  0
  1  9  1  0
  2  1  2  0
  2  3  1  0
  3  4  1  0
  4  5  2  0
  5  6  1  0
  7  6  2  0
  8  7  1  0
  9  4  1  0
  9  8  2  0
 10 11  2  0
 10 15  1  0
 11 12  1  0
 12 16  1  0
 12 13  2  0
 14 13  1  0
 14  1  1  0
 15 14  2  0
 16 17  2  0
 17 18  1  0
 19 18  2  0
 20 19  1  0
 21 20  2  0
 21 16  1  0
  2 22  1  0
  3 23  1  0
  5 24  1  0
  6 25  1  0
  7 26  1  0
  8 27  1  0
 10 28  1  0
 11 29  1  0
 17 30  1  0
 18 31  1  0
 20 32  1  0
M  ISO  8  22  14  23   9  24  14  25  14  26  14  27  14  28  14  29  14
M  ISO  3  30  14  31  14  32  14
M  END
>  <minimizedAffinity>  (1) 
-5.7785182

>  <minimizedRMSD>  (1) 
0.202948704

$$$$
