
     RDKit          3D

 17 18  0  0  0  0  0  0  0  0999 V2000
   37.3490   30.0660   51.3180 C   0  0  0  0  0  0  0  0  0  0  0  0
   38.0570   30.9730   50.5170 C   0  0  0  0  0  0  0  0  0  0  0  0
   37.8690   30.9300   49.1370 C   0  0  0  0  0  0  0  0  0  0  0  0
   37.0010   30.0010   48.6400 N   0  0  0  0  0  0  0  0  0  0  0  0
   36.3350   29.1410   49.4450 C   0  0  0  0  0  0  0  0  0  0  0  0
   36.5110   29.1780   50.7750 N   0  0  0  0  0  0  0  0  0  0  0  0
   38.5560   31.8290   48.2090 C   0  0  0  0  0  0  0  0  0  0  0  0
   38.9460   31.4620   46.9350 C   0  0  0  0  0  0  0  0  0  0  0  0
   39.5660   32.5660   46.3460 C   0  0  0  0  0  0  0  0  0  0  0  0
   39.5300   33.5540   47.2750 N   0  0  0  0  0  0  0  0  0  0  0  0
   38.9330   33.1100   48.3690 N   0  0  0  0  0  0  0  0  0  0  0  0
   37.4853   30.0856   52.4093 H   0  0  0  0  0  0  0  0  0  0  0  0
   38.7458   31.7025   50.9680 H   0  0  0  0  0  0  0  0  0  0  0  0
   35.6442   28.4061   49.0060 H   0  0  0  0  0  0  0  0  0  0  0  0
   38.7952   30.4772   46.4687 H   0  0  0  0  0  0  0  0  0  0  0  0
   39.9959   32.6229   45.3351 H   0  0  0  0  0  0  0  0  0  0  0  0
   39.9090   34.5033   47.1482 H   0  0  0  0  0  0  0  0  0  0  0  0
  2  1  2  0
  3  2  1  0
  4  3  2  0
  4  5  1  0
  5  6  2  0
  6  1  1  0
  7 11  2  0
  7  3  1  0
  8  7  1  0
  9  8  2  0
  9 10  1  0
 10 11  1  0
  1 12  1  0
  2 13  1  0
  5 14  1  0
  8 15  1  0
  9 16  1  0
 10 17  1  0
M  ISO  6  12  14  13  14  14  14  15  14  16  14  17   9
M  END
>  <minimizedAffinity>  (1) 
-4.63059568

>  <minimizedRMSD>  (1) 
1.11069167

$$$$
