
     RDKit          3D

 43 48  0  0  0  0  0  0  0  0999 V2000
   32.3410   29.8590   46.1710 C   0  0  0  0  0  0  0  0  0  0  0  0
   32.0750   28.4880   46.1940 C   0  0  0  0  0  0  0  0  0  0  0  0
   33.0470   27.6520   46.7800 C   0  0  0  0  0  0  0  0  0  0  0  0
   34.1780   28.1870   47.2900 N   0  0  0  0  0  0  0  0  0  0  0  0
   34.3990   29.5340   47.2470 C   0  0  0  0  0  0  0  0  0  0  0  0
   33.4850   30.3560   46.6920 N   0  0  0  0  0  0  0  0  0  0  0  0
   32.8180   26.2050   46.8300 C   0  0  0  0  0  0  0  0  0  0  0  0
   33.7560   25.3990   47.4170 C   0  0  0  0  0  0  0  0  0  0  0  0
   33.4530   24.0620   47.4150 C   0  0  0  0  0  0  0  0  0  0  0  0
   32.3230   23.5620   46.8810 N   0  0  0  0  0  0  0  0  0  0  0  0
   31.4110   24.3820   46.3060 C   0  0  0  0  0  0  0  0  0  0  0  0
   31.7090   25.7030   46.3070 N   0  0  0  0  0  0  0  0  0  0  0  0
   30.1810   23.9960   45.7050 N   0  0  0  0  0  0  0  0  0  0  0  0
   29.2610   24.8860   45.2490 C   0  0  0  0  0  0  0  0  0  0  0  0
   28.2280   24.1750   44.7480 N   0  0  0  0  0  0  0  0  0  0  0  0
   28.5220   22.8560   44.9010 C   0  0  0  0  0  0  0  0  0  0  0  0
   27.7260   21.7750   44.5180 C   0  0  0  0  0  0  0  0  0  0  0  0
   28.2830   20.5680   44.7990 N   0  0  0  0  0  0  0  0  0  0  0  0
   29.4900   20.4690   45.3920 C   0  0  0  0  0  0  0  0  0  0  0  0
   30.2500   21.5220   45.7580 N   0  0  0  0  0  0  0  0  0  0  0  0
   29.7670   22.7340   45.5120 C   0  0  0  0  0  0  0  0  0  0  0  0
   35.6350   30.0220   47.8160 C   0  0  0  0  0  0  0  0  0  0  0  0
   36.6240   30.6680   47.0810 C   0  0  0  0  0  0  0  0  0  0  0  0
   37.6450   31.0000   47.8800 N   0  0  0  0  0  0  0  0  0  0  0  0
   37.3470   30.5810   49.1390 C   0  0  0  0  0  0  0  0  0  0  0  0
   38.0460   30.6690   50.3330 C   0  0  0  0  0  0  0  0  0  0  0  0
   37.4710   30.1360   51.4840 C   0  0  0  0  0  0  0  0  0  0  0  0
   36.2320   29.5390   51.4180 C   0  0  0  0  0  0  0  0  0  0  0  0
   35.5170   29.4450   50.2190 C   0  0  0  0  0  0  0  0  0  0  0  0
   36.1040   29.9770   49.0980 C   0  0  0  0  0  0  0  0  0  0  0  0
   31.6079   30.5451   45.7218 H   0  0  0  0  0  0  0  0  0  0  0  0
   31.1456   28.0777   45.7723 H   0  0  0  0  0  0  0  0  0  0  0  0
   34.6832   25.7945   47.8572 H   0  0  0  0  0  0  0  0  0  0  0  0
   34.1688   23.3631   47.8724 H   0  0  0  0  0  0  0  0  0  0  0  0
   29.3426   25.9825   45.2819 H   0  0  0  0  0  0  0  0  0  0  0  0
   26.7439   21.8892   44.0359 H   0  0  0  0  0  0  0  0  0  0  0  0
   29.8819   19.4606   45.5910 H   0  0  0  0  0  0  0  0  0  0  0  0
   36.5741   30.8754   46.0019 H   0  0  0  0  0  0  0  0  0  0  0  0
   38.5055   31.4873   47.5919 H   0  0  0  0  0  0  0  0  0  0  0  0
   39.0346   31.1500   50.3705 H   0  0  0  0  0  0  0  0  0  0  0  0
   38.0055   30.1918   52.4438 H   0  0  0  0  0  0  0  0  0  0  0  0
   35.7908   29.1233   52.3359 H   0  0  0  0  0  0  0  0  0  0  0  0
   34.5278   28.9658   50.1765 H   0  0  0  0  0  0  0  0  0  0  0  0
  1  2  2  0
  1  6  1  0
  2  3  1  0
  3  7  1  0
  3  4  2  0
  5  4  1  0
  5 22  1  0
  6  5  2  0
  7  8  2  0
  9  8  1  0
 10  9  2  0
 11 12  2  0
 11 10  1  0
 12  7  1  0
 13 11  1  0
 14 13  1  0
 15 16  1  0
 15 14  2  0
 16 21  2  0
 17 18  2  0
 17 16  1  0
 18 19  1  0
 19 20  2  0
 21 13  1  0
 21 20  1  0
 22 30  1  0
 23 22  2  0
 23 24  1  0
 24 25  1  0
 25 26  2  0
 26 27  1  0
 28 27  2  0
 29 28  1  0
 30 25  1  0
 30 29  2  0
  1 31  1  0
  2 32  1  0
  8 33  1  0
  9 34  1  0
 14 35  1  0
 17 36  1  0
 19 37  1  0
 23 38  1  0
 24 39  1  0
 26 40  1  0
 27 41  1  0
 28 42  1  0
 29 43  1  0
M  ISO  8  31  14  32  14  33  14  34  14  35  14  36  14  37  14  38  14
M  ISO  5  39   9  40  14  41  14  42  14  43  14
M  END
>  <minimizedAffinity>  (1) 
-6.96635056

>  <minimizedRMSD>  (1) 
0.218053803

$$$$
