
     RDKit          3D

 23 24  0  0  0  0  0  0  0  0999 V2000
   37.4730   30.2930   51.3170 C   0  0  0  0  0  0  0  0  0  0  0  0
   38.0650   30.9210   50.1950 C   0  0  0  0  0  0  0  0  0  0  0  0
   37.5520   30.5970   48.9200 C   0  0  0  0  0  0  0  0  0  0  0  0
   36.5170   29.6950   48.8480 N   0  0  0  0  0  0  0  0  0  0  0  0
   35.9840   29.1220   49.9470 C   0  0  0  0  0  0  0  0  0  0  0  0
   36.4560   29.4170   51.1640 N   0  0  0  0  0  0  0  0  0  0  0  0
   38.0650   31.1640   47.7200 N   0  0  0  0  0  0  0  0  0  0  0  0
   37.7780   30.6220   46.4290 C   0  0  0  0  0  0  0  0  0  0  0  0
   37.8860   31.5780   45.3010 C   0  0  0  0  0  0  0  0  0  0  0  0
   38.6210   32.7080   45.5020 O   0  0  0  0  0  0  0  0  0  0  0  0
   39.5250   32.7000   46.5250 C   0  0  0  0  0  0  0  0  0  0  0  0
   38.9110   32.3390   47.8650 C   0  0  0  0  0  0  0  0  0  0  0  0
   37.8458   30.5212   52.3264 H   0  0  0  0  0  0  0  0  0  0  0  0
   38.8938   31.6348   50.3120 H   0  0  0  0  0  0  0  0  0  0  0  0
   35.1550   28.4067   49.8419 H   0  0  0  0  0  0  0  0  0  0  0  0
   38.4811   29.7967   46.2432 H   0  0  0  0  0  0  0  0  0  0  0  0
   36.7248   30.3061   46.4596 H   0  0  0  0  0  0  0  0  0  0  0  0
   36.8655   31.8915   45.0360 H   0  0  0  0  0  0  0  0  0  0  0  0
   38.4274   31.0272   44.5177 H   0  0  0  0  0  0  0  0  0  0  0  0
   40.3102   31.9659   46.2915 H   0  0  0  0  0  0  0  0  0  0  0  0
   39.9255   33.7206   46.6142 H   0  0  0  0  0  0  0  0  0  0  0  0
   38.3052   33.1824   48.2280 H   0  0  0  0  0  0  0  0  0  0  0  0
   39.7136   32.1215   48.5851 H   0  0  0  0  0  0  0  0  0  0  0  0
  2  1  2  0
  3  2  1  0
  4  3  2  0
  4  5  1  0
  5  6  2  0
  6  1  1  0
  7 12  1  0
  7  3  1  0
  8  7  1  0
  9 10  1  0
  9  8  1  0
 10 11  1  0
 11 12  1  0
  1 13  1  0
  2 14  1  0
  5 15  1  0
  8 16  1  0
  8 17  1  0
  9 18  1  0
  9 19  1  0
 11 20  1  0
 11 21  1  0
 12 22  1  0
 12 23  1  0
M  ISO  8  13  14  14  14  15  14  16  13  17  13  18  13  19  13  20  13
M  ISO  3  21  13  22  13  23  13
M  END
>  <minimizedAffinity>  (1) 
-4.62904978

>  <minimizedRMSD>  (1) 
0.526499152

$$$$
