
     RDKit          3D

 42 46  0  0  0  0  0  0  0  0999 V2000
   32.2050   30.0590   46.1040 C   0  0  0  0  0  0  0  0  0  0  0  0
   31.8480   28.7100   46.1280 C   0  0  0  0  0  0  0  0  0  0  0  0
   32.7550   27.8040   46.6960 C   0  0  0  0  0  0  0  0  0  0  0  0
   33.9310   28.2600   47.1980 N   0  0  0  0  0  0  0  0  0  0  0  0
   34.2460   29.5920   47.1570 C   0  0  0  0  0  0  0  0  0  0  0  0
   33.3950   30.4700   46.6200 N   0  0  0  0  0  0  0  0  0  0  0  0
   35.5270   29.9880   47.7180 C   0  0  0  0  0  0  0  0  0  0  0  0
   36.5610   30.5400   46.9730 C   0  0  0  0  0  0  0  0  0  0  0  0
   37.6030   30.7950   47.7720 N   0  0  0  0  0  0  0  0  0  0  0  0
   37.2720   30.4220   49.0230 C   0  0  0  0  0  0  0  0  0  0  0  0
   37.9810   30.4700   50.2200 C   0  0  0  0  0  0  0  0  0  0  0  0
   37.3680   30.0040   51.3740 C   0  0  0  0  0  0  0  0  0  0  0  0
   36.0870   29.5110   51.3170 C   0  0  0  0  0  0  0  0  0  0  0  0
   35.3460   29.4490   50.1350 C   0  0  0  0  0  0  0  0  0  0  0  0
   35.9810   29.9170   49.0050 C   0  0  0  0  0  0  0  0  0  0  0  0
   32.4260   26.3870   46.7440 C   0  0  0  0  0  0  0  0  0  0  0  0
   33.2200   25.5390   47.4640 C   0  0  0  0  0  0  0  0  0  0  0  0
   32.8400   24.2170   47.4560 C   0  0  0  0  0  0  0  0  0  0  0  0
   31.7510   23.7760   46.7810 N   0  0  0  0  0  0  0  0  0  0  0  0
   30.9840   24.6410   46.0760 C   0  0  0  0  0  0  0  0  0  0  0  0
   31.3650   25.9380   46.0900 N   0  0  0  0  0  0  0  0  0  0  0  0
   29.7910   24.2510   45.3190 C   0  0  0  0  0  0  0  0  0  0  0  0
   29.0740   25.2360   44.6680 C   0  0  0  0  0  0  0  0  0  0  0  0
   27.9440   24.8650   43.9510 C   0  0  0  0  0  0  0  0  0  0  0  0
   27.5800   23.5340   43.9130 C   0  0  0  0  0  0  0  0  0  0  0  0
   28.2850   22.5300   44.5590 C   0  0  0  0  0  0  0  0  0  0  0  0
   29.4110   22.9060   45.2730 C   0  0  0  0  0  0  0  0  0  0  0  0
   31.5180   30.7968   45.6639 H   0  0  0  0  0  0  0  0  0  0  0  0
   30.8872   28.3689   45.7151 H   0  0  0  0  0  0  0  0  0  0  0  0
   36.5281   30.7373   45.8913 H   0  0  0  0  0  0  0  0  0  0  0  0
   38.5019   31.2052   47.4811 H   0  0  0  0  0  0  0  0  0  0  0  0
   39.0056   30.8690   50.2502 H   0  0  0  0  0  0  0  0  0  0  0  0
   37.9066   30.0292   52.3328 H   0  0  0  0  0  0  0  0  0  0  0  0
   35.6232   29.1480   52.2461 H   0  0  0  0  0  0  0  0  0  0  0  0
   34.3206   29.0518   50.1076 H   0  0  0  0  0  0  0  0  0  0  0  0
   34.1053   25.8908   48.0141 H   0  0  0  0  0  0  0  0  0  0  0  0
   33.4434   23.4899   48.0192 H   0  0  0  0  0  0  0  0  0  0  0  0
   29.3903   26.2884   44.7163 H   0  0  0  0  0  0  0  0  0  0  0  0
   27.3471   25.6215   43.4205 H   0  0  0  0  0  0  0  0  0  0  0  0
   26.6834   23.2552   43.3400 H   0  0  0  0  0  0  0  0  0  0  0  0
   27.9638   21.4792   44.5068 H   0  0  0  0  0  0  0  0  0  0  0  0
   30.0055   22.1474   45.8032 H   0  0  0  0  0  0  0  0  0  0  0  0
  1  2  2  0
  1  6  1  0
  2  3  1  0
  3 16  1  0
  3  4  2  0
  5  4  1  0
  5  7  1  0
  6  5  2  0
  7 15  1  0
  8  7  2  0
  8  9  1  0
  9 10  1  0
 10 11  2  0
 11 12  1  0
 13 12  2  0
 14 13  1  0
 15 10  1  0
 15 14  2  0
 16 17  2  0
 18 17  1  0
 19 18  2  0
 20 21  2  0
 20 19  1  0
 21 16  1  0
 22 20  1  0
 23 22  2  0
 24 23  1  0
 25 24  2  0
 25 26  1  0
 26 27  2  0
 27 22  1  0
  1 28  1  0
  2 29  1  0
  8 30  1  0
  9 31  1  0
 11 32  1  0
 12 33  1  0
 13 34  1  0
 14 35  1  0
 17 36  1  0
 18 37  1  0
 23 38  1  0
 24 39  1  0
 25 40  1  0
 26 41  1  0
 27 42  1  0
M  ISO  8  28  14  29  14  30  14  31   9  32  14  33  14  34  14  35  14
M  ISO  7  36  14  37  14  38  14  39  14  40  14  41  14  42  14
M  END
>  <minimizedAffinity>  (1) 
-6.39929438

>  <minimizedRMSD>  (1) 
0.708691895

$$$$
