
     RDKit          3D

 40 44  0  0  0  0  0  0  0  0999 V2000
   32.3200   29.8470   46.1860 C   0  0  0  0  0  0  0  0  0  0  0  0
   32.0570   28.4700   46.1950 C   0  0  0  0  0  0  0  0  0  0  0  0
   33.0340   27.6320   46.7600 C   0  0  0  0  0  0  0  0  0  0  0  0
   34.1690   28.1760   47.2640 N   0  0  0  0  0  0  0  0  0  0  0  0
   34.3920   29.5240   47.2380 C   0  0  0  0  0  0  0  0  0  0  0  0
   33.4680   30.3470   46.7020 N   0  0  0  0  0  0  0  0  0  0  0  0
   35.6290   30.0150   47.7990 C   0  0  0  0  0  0  0  0  0  0  0  0
   36.6110   30.6570   47.0710 C   0  0  0  0  0  0  0  0  0  0  0  0
   37.6320   30.9870   47.8840 N   0  0  0  0  0  0  0  0  0  0  0  0
   37.3330   30.5700   49.1360 C   0  0  0  0  0  0  0  0  0  0  0  0
   38.0370   30.6630   50.3220 C   0  0  0  0  0  0  0  0  0  0  0  0
   37.4520   30.1260   51.4780 C   0  0  0  0  0  0  0  0  0  0  0  0
   36.2210   29.5330   51.4060 C   0  0  0  0  0  0  0  0  0  0  0  0
   35.4920   29.4290   50.2190 C   0  0  0  0  0  0  0  0  0  0  0  0
   36.0900   29.9670   49.0870 C   0  0  0  0  0  0  0  0  0  0  0  0
   32.8160   26.1930   46.7970 C   0  0  0  0  0  0  0  0  0  0  0  0
   33.7450   25.3870   47.4070 C   0  0  0  0  0  0  0  0  0  0  0  0
   33.4660   24.0370   47.4000 C   0  0  0  0  0  0  0  0  0  0  0  0
   32.3470   23.5400   46.8280 N   0  0  0  0  0  0  0  0  0  0  0  0
   31.4470   24.3530   46.2320 C   0  0  0  0  0  0  0  0  0  0  0  0
   31.7050   25.6980   46.2290 N   0  0  0  0  0  0  0  0  0  0  0  0
   30.2230   23.8850   45.5980 C   0  0  0  0  0  0  0  0  0  0  0  0
   29.3620   24.8170   45.0580 C   0  0  0  0  0  0  0  0  0  0  0  0
   28.2070   24.3300   44.4620 C   0  0  0  0  0  0  0  0  0  0  0  0
   27.8970   23.0240   44.3900 N   0  0  0  0  0  0  0  0  0  0  0  0
   28.7670   22.1520   44.9310 C   0  0  0  0  0  0  0  0  0  0  0  0
   29.9190   22.5760   45.5290 N   0  0  0  0  0  0  0  0  0  0  0  0
   31.5796   30.5347   45.7514 H   0  0  0  0  0  0  0  0  0  0  0  0
   31.1247   28.0622   45.7772 H   0  0  0  0  0  0  0  0  0  0  0  0
   36.5660   30.8667   45.9921 H   0  0  0  0  0  0  0  0  0  0  0  0
   38.4943   31.4741   47.6010 H   0  0  0  0  0  0  0  0  0  0  0  0
   39.0258   31.1435   50.3580 H   0  0  0  0  0  0  0  0  0  0  0  0
   37.9817   30.1814   52.4405 H   0  0  0  0  0  0  0  0  0  0  0  0
   35.7846   29.1184   52.3267 H   0  0  0  0  0  0  0  0  0  0  0  0
   34.5028   28.9493   50.1831 H   0  0  0  0  0  0  0  0  0  0  0  0
   34.6552   25.7931   47.8723 H   0  0  0  0  0  0  0  0  0  0  0  0
   34.1757   23.3433   47.8744 H   0  0  0  0  0  0  0  0  0  0  0  0
   29.5800   25.8944   45.0977 H   0  0  0  0  0  0  0  0  0  0  0  0
   27.5050   25.0544   44.0234 H   0  0  0  0  0  0  0  0  0  0  0  0
   28.5457   21.0752   44.8908 H   0  0  0  0  0  0  0  0  0  0  0  0
  1  2  2  0
  1  6  1  0
  2  3  1  0
  3 16  1  0
  3  4  2  0
  5  4  1  0
  5  7  1  0
  6  5  2  0
  7 15  1  0
  8  7  2  0
  8  9  1  0
  9 10  1  0
 10 11  2  0
 11 12  1  0
 13 12  2  0
 14 13  1  0
 15 10  1  0
 15 14  2  0
 16 17  2  0
 18 17  1  0
 19 18  2  0
 20 19  1  0
 21 20  2  0
 21 16  1  0
 22 20  1  0
 23 22  2  0
 24 23  1  0
 25 24  2  0
 25 26  1  0
 26 27  2  0
 27 22  1  0
  1 28  1  0
  2 29  1  0
  8 30  1  0
  9 31  1  0
 11 32  1  0
 12 33  1  0
 13 34  1  0
 14 35  1  0
 17 36  1  0
 18 37  1  0
 23 38  1  0
 24 39  1  0
 26 40  1  0
M  ISO  8  28  14  29  14  30  14  31   9  32  14  33  14  34  14  35  14
M  ISO  5  36  14  37  14  38  14  39  14  40  14
M  END
>  <minimizedAffinity>  (1) 
-6.19966936

>  <minimizedRMSD>  (1) 
0.4382855

$$$$
