
     RDKit          3D

 39 43  0  0  0  0  0  0  0  0999 V2000
   32.3610   29.9510   46.1640 C   0  0  0  0  0  0  0  0  0  0  0  0
   32.0740   28.5840   46.1680 C   0  0  0  0  0  0  0  0  0  0  0  0
   33.0280   27.7340   46.7390 C   0  0  0  0  0  0  0  0  0  0  0  0
   34.1650   28.2610   47.2540 N   0  0  0  0  0  0  0  0  0  0  0  0
   34.4060   29.5980   47.2300 C   0  0  0  0  0  0  0  0  0  0  0  0
   33.5070   30.4350   46.6880 N   0  0  0  0  0  0  0  0  0  0  0  0
   35.6520   30.0610   47.8070 C   0  0  0  0  0  0  0  0  0  0  0  0
   36.6570   30.6920   47.0800 C   0  0  0  0  0  0  0  0  0  0  0  0
   37.6740   30.9970   47.8930 N   0  0  0  0  0  0  0  0  0  0  0  0
   37.3660   30.5820   49.1390 C   0  0  0  0  0  0  0  0  0  0  0  0
   38.0640   30.6530   50.3400 C   0  0  0  0  0  0  0  0  0  0  0  0
   37.4640   30.1230   51.4830 C   0  0  0  0  0  0  0  0  0  0  0  0
   36.2130   29.5480   51.4090 C   0  0  0  0  0  0  0  0  0  0  0  0
   35.4910   29.4650   50.2160 C   0  0  0  0  0  0  0  0  0  0  0  0
   36.1070   29.9980   49.0960 C   0  0  0  0  0  0  0  0  0  0  0  0
   32.7830   26.2960   46.7730 C   0  0  0  0  0  0  0  0  0  0  0  0
   33.7170   25.4740   47.3650 C   0  0  0  0  0  0  0  0  0  0  0  0
   33.4050   24.1240   47.3520 C   0  0  0  0  0  0  0  0  0  0  0  0
   32.2630   23.6410   46.7970 N   0  0  0  0  0  0  0  0  0  0  0  0
   31.3750   24.4880   46.2270 C   0  0  0  0  0  0  0  0  0  0  0  0
   31.6640   25.8110   46.2300 N   0  0  0  0  0  0  0  0  0  0  0  0
   30.1330   24.0300   45.6140 C   0  0  0  0  0  0  0  0  0  0  0  0
   29.1910   24.6670   44.8340 C   0  0  0  0  0  0  0  0  0  0  0  0
   28.2380   23.6770   44.5700 C   0  0  0  0  0  0  0  0  0  0  0  0
   28.6620   22.5100   45.2040 C   0  0  0  0  0  0  0  0  0  0  0  0
   29.7850   22.7770   45.8050 O   0  0  0  0  0  0  0  0  0  0  0  0
   31.6353   30.6503   45.7230 H   0  0  0  0  0  0  0  0  0  0  0  0
   31.1389   28.1926   45.7410 H   0  0  0  0  0  0  0  0  0  0  0  0
   36.6204   30.9069   46.0018 H   0  0  0  0  0  0  0  0  0  0  0  0
   38.5459   31.4694   47.6146 H   0  0  0  0  0  0  0  0  0  0  0  0
   39.0615   31.1142   50.3875 H   0  0  0  0  0  0  0  0  0  0  0  0
   37.9915   30.1641   52.4474 H   0  0  0  0  0  0  0  0  0  0  0  0
   35.7654   29.1381   52.3264 H   0  0  0  0  0  0  0  0  0  0  0  0
   34.4933   29.0041   50.1690 H   0  0  0  0  0  0  0  0  0  0  0  0
   34.6429   25.8613   47.8152 H   0  0  0  0  0  0  0  0  0  0  0  0
   34.1105   23.4148   47.8095 H   0  0  0  0  0  0  0  0  0  0  0  0
   29.1892   25.7139   44.4965 H   0  0  0  0  0  0  0  0  0  0  0  0
   27.3226   23.7974   43.9721 H   0  0  0  0  0  0  0  0  0  0  0  0
   28.1422   21.5406   45.1974 H   0  0  0  0  0  0  0  0  0  0  0  0
  1  2  2  0
  1  6  1  0
  2  3  1  0
  3 16  1  0
  3  4  2  0
  5  4  1  0
  5  7  1  0
  6  5  2  0
  7 15  1  0
  8  7  2  0
  8  9  1  0
  9 10  1  0
 10 11  2  0
 11 12  1  0
 13 12  2  0
 14 13  1  0
 15 10  1  0
 15 14  2  0
 16 17  2  0
 18 17  1  0
 19 18  2  0
 20 21  2  0
 20 19  1  0
 21 16  1  0
 22 26  1  0
 22 20  1  0
 23 22  2  0
 24 23  1  0
 24 25  2  0
 25 26  1  0
  1 27  1  0
  2 28  1  0
  8 29  1  0
  9 30  1  0
 11 31  1  0
 12 32  1  0
 13 33  1  0
 14 34  1  0
 17 35  1  0
 18 36  1  0
 23 37  1  0
 24 38  1  0
 25 39  1  0
M  ISO  8  27  14  28  14  29  14  30   9  31  14  32  14  33  14  34  14
M  ISO  5  35  14  36  14  37  14  38  14  39  14
M  END
>  <minimizedAffinity>  (1) 
-6.18999815

>  <minimizedRMSD>  (1) 
0.542756557

$$$$
