
     RDKit          3D

 34 37  0  0  0  0  0  0  0  0999 V2000
   32.3610   29.9680   46.1530 C   0  0  0  0  0  0  0  0  0  0  0  0
   32.0690   28.5930   46.1670 C   0  0  0  0  0  0  0  0  0  0  0  0
   33.0160   27.7380   46.7510 C   0  0  0  0  0  0  0  0  0  0  0  0
   34.1580   28.2550   47.2700 N   0  0  0  0  0  0  0  0  0  0  0  0
   34.4080   29.6040   47.2370 C   0  0  0  0  0  0  0  0  0  0  0  0
   33.5090   30.4430   46.6810 N   0  0  0  0  0  0  0  0  0  0  0  0
   35.6540   30.0640   47.8160 C   0  0  0  0  0  0  0  0  0  0  0  0
   36.6520   30.6930   47.0840 C   0  0  0  0  0  0  0  0  0  0  0  0
   37.6790   30.9990   47.9060 N   0  0  0  0  0  0  0  0  0  0  0  0
   37.3600   30.5770   49.1550 C   0  0  0  0  0  0  0  0  0  0  0  0
   38.0710   30.6560   50.3380 C   0  0  0  0  0  0  0  0  0  0  0  0
   37.4740   30.1260   51.4850 C   0  0  0  0  0  0  0  0  0  0  0  0
   36.2150   29.5490   51.4110 C   0  0  0  0  0  0  0  0  0  0  0  0
   35.5010   29.4720   50.2170 C   0  0  0  0  0  0  0  0  0  0  0  0
   36.1160   30.0040   49.1000 C   0  0  0  0  0  0  0  0  0  0  0  0
   32.7590   26.3050   46.7890 C   0  0  0  0  0  0  0  0  0  0  0  0
   33.7160   25.4660   47.3290 C   0  0  0  0  0  0  0  0  0  0  0  0
   33.4110   24.1300   47.3360 C   0  0  0  0  0  0  0  0  0  0  0  0
   32.2330   23.6550   46.8380 N   0  0  0  0  0  0  0  0  0  0  0  0
   31.3170   24.5020   46.3170 C   0  0  0  0  0  0  0  0  0  0  0  0
   31.6110   25.8340   46.3060 N   0  0  0  0  0  0  0  0  0  0  0  0
   30.0710   24.0980   45.7810 N   0  0  0  0  0  0  0  0  0  0  0  0
   31.6418   30.6689   45.7041 H   0  0  0  0  0  0  0  0  0  0  0  0
   31.1348   28.2026   45.7370 H   0  0  0  0  0  0  0  0  0  0  0  0
   36.6125   30.9080   46.0059 H   0  0  0  0  0  0  0  0  0  0  0  0
   38.5526   31.4708   47.6321 H   0  0  0  0  0  0  0  0  0  0  0  0
   39.0684   31.1183   50.3750 H   0  0  0  0  0  0  0  0  0  0  0  0
   38.0036   30.1665   52.4483 H   0  0  0  0  0  0  0  0  0  0  0  0
   35.7646   29.1380   52.3265 H   0  0  0  0  0  0  0  0  0  0  0  0
   34.5026   29.0129   50.1665 H   0  0  0  0  0  0  0  0  0  0  0  0
   34.6665   25.8484   47.7295 H   0  0  0  0  0  0  0  0  0  0  0  0
   34.1379   23.4191   47.7558 H   0  0  0  0  0  0  0  0  0  0  0  0
   29.4218   24.8012   45.4003 H   0  0  0  0  0  0  0  0  0  0  0  0
   29.8134   23.1008   45.7716 H   0  0  0  0  0  0  0  0  0  0  0  0
  1  2  2  0
  1  6  1  0
  2  3  1  0
  3 16  1  0
  3  4  2  0
  5  4  1  0
  5  7  1  0
  6  5  2  0
  7 15  1  0
  8  7  2  0
  8  9  1  0
  9 10  1  0
 10 11  2  0
 11 12  1  0
 13 12  2  0
 14 13  1  0
 15 10  1  0
 15 14  2  0
 16 17  2  0
 17 18  1  0
 19 18  2  0
 20 19  1  0
 21 20  2  0
 21 16  1  0
 22 20  1  0
  1 23  1  0
  2 24  1  0
  8 25  1  0
  9 26  1  0
 11 27  1  0
 12 28  1  0
 13 29  1  0
 14 30  1  0
 17 31  1  0
 18 32  1  0
 22 33  1  0
 22 34  1  0
M  ISO  8  23  14  24  14  25  14  26   9  27  14  28  14  29  14  30  14
M  ISO  2  31  14  32  14
M  END
>  <minimizedAffinity>  (1) 
-5.90001631

>  <minimizedRMSD>  (1) 
0.0264738891

$$$$
