
     RDKit          3D

 35 38  0  0  0  0  0  0  0  0999 V2000
   32.3480   29.9490   46.1590 C   0  0  0  0  0  0  0  0  0  0  0  0
   32.0580   28.5900   46.1610 C   0  0  0  0  0  0  0  0  0  0  0  0
   33.0130   27.7290   46.7380 C   0  0  0  0  0  0  0  0  0  0  0  0
   34.1440   28.2550   47.2530 N   0  0  0  0  0  0  0  0  0  0  0  0
   34.3880   29.5950   47.2310 C   0  0  0  0  0  0  0  0  0  0  0  0
   33.4990   30.4360   46.6890 N   0  0  0  0  0  0  0  0  0  0  0  0
   35.6340   30.0530   47.8110 C   0  0  0  0  0  0  0  0  0  0  0  0
   36.6430   30.6840   47.0780 C   0  0  0  0  0  0  0  0  0  0  0  0
   37.6680   30.9890   47.8880 N   0  0  0  0  0  0  0  0  0  0  0  0
   37.3540   30.5730   49.1370 C   0  0  0  0  0  0  0  0  0  0  0  0
   38.0610   30.6470   50.3270 C   0  0  0  0  0  0  0  0  0  0  0  0
   37.4620   30.1180   51.4750 C   0  0  0  0  0  0  0  0  0  0  0  0
   36.2010   29.5420   51.4090 C   0  0  0  0  0  0  0  0  0  0  0  0
   35.4930   29.4700   50.2040 C   0  0  0  0  0  0  0  0  0  0  0  0
   36.1040   29.9960   49.0940 C   0  0  0  0  0  0  0  0  0  0  0  0
   32.7690   26.2940   46.7720 C   0  0  0  0  0  0  0  0  0  0  0  0
   33.7020   25.4670   47.3380 C   0  0  0  0  0  0  0  0  0  0  0  0
   33.4050   24.1270   47.3350 C   0  0  0  0  0  0  0  0  0  0  0  0
   32.2490   23.6380   46.8020 N   0  0  0  0  0  0  0  0  0  0  0  0
   31.3490   24.4860   46.2500 C   0  0  0  0  0  0  0  0  0  0  0  0
   31.6350   25.8140   46.2480 N   0  0  0  0  0  0  0  0  0  0  0  0
   30.0940   23.9340   45.6730 C   0  0  0  0  0  0  0  0  0  0  0  0
   31.6249   30.6495   45.7157 H   0  0  0  0  0  0  0  0  0  0  0  0
   31.1228   28.2027   45.7305 H   0  0  0  0  0  0  0  0  0  0  0  0
   36.6027   30.8982   45.9998 H   0  0  0  0  0  0  0  0  0  0  0  0
   38.5414   31.4579   47.6082 H   0  0  0  0  0  0  0  0  0  0  0  0
   39.0597   31.1064   50.3672 H   0  0  0  0  0  0  0  0  0  0  0  0
   37.9941   30.1588   52.4369 H   0  0  0  0  0  0  0  0  0  0  0  0
   35.7480   29.1330   52.3242 H   0  0  0  0  0  0  0  0  0  0  0  0
   34.4938   29.0132   50.1494 H   0  0  0  0  0  0  0  0  0  0  0  0
   34.6363   25.8544   47.7704 H   0  0  0  0  0  0  0  0  0  0  0  0
   34.1247   23.4229   47.7781 H   0  0  0  0  0  0  0  0  0  0  0  0
   29.4164   23.6360   46.4867 H   0  0  0  0  0  0  0  0  0  0  0  0
   29.6072   24.7010   45.0528 H   0  0  0  0  0  0  0  0  0  0  0  0
   30.3304   23.0568   45.0528 H   0  0  0  0  0  0  0  0  0  0  0  0
  1  2  2  0
  1  6  1  0
  2  3  1  0
  3 16  1  0
  3  4  2  0
  5  4  1  0
  5  7  1  0
  6  5  2  0
  7 15  1  0
  8  7  2  0
  8  9  1  0
  9 10  1  0
 10 11  2  0
 11 12  1  0
 13 12  2  0
 14 13  1  0
 15 10  1  0
 15 14  2  0
 16 17  2  0
 18 17  1  0
 19 18  2  0
 20 19  1  0
 21 20  2  0
 21 16  1  0
 22 20  1  0
  1 23  1  0
  2 24  1  0
  8 25  1  0
  9 26  1  0
 11 27  1  0
 12 28  1  0
 13 29  1  0
 14 30  1  0
 17 31  1  0
 18 32  1  0
 22 33  1  0
 22 34  1  0
 22 35  1  0
M  ISO  8  23  14  24  14  25  14  26   9  27  14  28  14  29  14  30  14
M  ISO  5  31  14  32  14  33   8  34   8  35   8
M  END
>  <minimizedAffinity>  (1) 
-5.88393354

>  <minimizedRMSD>  (1) 
0.0739224851

$$$$
