
     RDKit          3D

 17 18  0  0  0  0  0  0  0  0999 V2000
   37.3310   30.1720   51.3580 C   0  0  0  0  0  0  0  0  0  0  0  0
   38.0800   30.8880   50.4070 C   0  0  0  0  0  0  0  0  0  0  0  0
   37.7570   30.6890   49.0650 C   0  0  0  0  0  0  0  0  0  0  0  0
   36.7540   29.8300   48.7490 N   0  0  0  0  0  0  0  0  0  0  0  0
   36.0580   29.1630   49.6840 C   0  0  0  0  0  0  0  0  0  0  0  0
   36.3400   29.3270   51.0000 N   0  0  0  0  0  0  0  0  0  0  0  0
   38.4100   31.3300   47.9720 N   0  0  0  0  0  0  0  0  0  0  0  0
   38.5880   30.5890   46.8700 N   0  0  0  0  0  0  0  0  0  0  0  0
   39.2130   31.3140   45.9250 C   0  0  0  0  0  0  0  0  0  0  0  0
   39.4390   32.5750   46.4570 C   0  0  0  0  0  0  0  0  0  0  0  0
   38.9210   32.5580   47.7550 C   0  0  0  0  0  0  0  0  0  0  0  0
   37.5592   30.3042   52.4259 H   0  0  0  0  0  0  0  0  0  0  0  0
   38.8849   31.5745   50.7084 H   0  0  0  0  0  0  0  0  0  0  0  0
   35.2527   28.4782   49.3797 H   0  0  0  0  0  0  0  0  0  0  0  0
   39.4928   30.9709   44.9180 H   0  0  0  0  0  0  0  0  0  0  0  0
   39.9297   33.4222   45.9556 H   0  0  0  0  0  0  0  0  0  0  0  0
   38.9290   33.3945   48.4693 H   0  0  0  0  0  0  0  0  0  0  0  0
  2  1  2  0
  3  2  1  0
  4  3  2  0
  4  5  1  0
  5  6  2  0
  6  1  1  0
  7  3  1  0
  8  7  1  0
  9 10  1  0
  9  8  2  0
 10 11  2  0
 11  7  1  0
  1 12  1  0
  2 13  1  0
  5 14  1  0
  9 15  1  0
 10 16  1  0
 11 17  1  0
M  ISO  6  12  14  13  14  14  14  15  14  16  14  17  14
M  END
>  <minimizedAffinity>  (1) 
-4.52775812

>  <minimizedRMSD>  (1) 
0.480659992

$$$$
