
     RDKit          3D

 31 34  0  0  0  0  0  0  0  0999 V2000
   35.3710   29.6610   48.5930 C   0  0  0  0  0  0  0  0  0  0  0  0
   35.0480   28.5180   49.3590 C   0  0  0  0  0  0  0  0  0  0  0  0
   33.9040   27.8640   49.0170 C   0  0  0  0  0  0  0  0  0  0  0  0
   33.1630   28.3280   48.0010 C   0  0  0  0  0  0  0  0  0  0  0  0
   34.0310   29.7960   47.3870 S   0  0  0  0  0  0  0  0  0  0  0  0
   31.9480   27.8480   47.4470 N   0  0  0  0  0  0  0  0  0  0  0  0
   31.7140   27.5330   46.1700 C   0  0  0  0  0  0  0  0  0  0  0  0
   30.4270   27.1180   46.0630 N   0  0  0  0  0  0  0  0  0  0  0  0
   29.8400   27.1720   47.2950 C   0  0  0  0  0  0  0  0  0  0  0  0
   28.5660   26.8600   47.7140 C   0  0  0  0  0  0  0  0  0  0  0  0
   27.6990   26.4350   46.8840 O   0  0  0  0  0  0  0  0  0  0  0  0
   28.2230   27.0020   49.0150 N   0  0  0  0  0  0  0  0  0  0  0  0
   29.1900   27.4580   49.8430 C   0  0  0  0  0  0  0  0  0  0  0  0
   28.8420   27.6130   51.2150 N   0  0  0  0  0  0  0  0  0  0  0  0
   30.4480   27.7720   49.4600 N   0  0  0  0  0  0  0  0  0  0  0  0
   30.8240   27.6380   48.1570 C   0  0  0  0  0  0  0  0  0  0  0  0
   38.2620   31.3460   50.1640 C   0  0  0  0  0  0  0  0  0  0  0  0
   38.7610   32.1210   49.1040 C   0  0  0  0  0  0  0  0  0  0  0  0
   38.1030   32.0560   47.8760 C   0  0  0  0  0  0  0  0  0  0  0  0
   37.0050   31.2510   47.7340 N   0  0  0  0  0  0  0  0  0  0  0  0
   36.5560   30.5190   48.7830 C   0  0  0  0  0  0  0  0  0  0  0  0
   37.1730   30.5620   49.9870 N   0  0  0  0  0  0  0  0  0  0  0  0
   35.6864   28.1754   50.1867 H   0  0  0  0  0  0  0  0  0  0  0  0
   33.5913   26.9649   49.5682 H   0  0  0  0  0  0  0  0  0  0  0  0
   32.4404   27.5989   45.3466 H   0  0  0  0  0  0  0  0  0  0  0  0
   27.2778   26.7754   49.3559 H   0  0  0  0  0  0  0  0  0  0  0  0
   29.5416   27.9571   51.8881 H   0  0  0  0  0  0  0  0  0  0  0  0
   27.8906   27.3811   51.5344 H   0  0  0  0  0  0  0  0  0  0  0  0
   38.7596   31.3765   51.1445 H   0  0  0  0  0  0  0  0  0  0  0  0
   39.6455   32.7609   49.2386 H   0  0  0  0  0  0  0  0  0  0  0  0
   38.4653   32.6499   47.0240 H   0  0  0  0  0  0  0  0  0  0  0  0
  1 21  1  0
  1  2  2  0
  3  2  1  0
  4  3  2  0
  5  4  1  0
  5  1  1  0
  6  4  1  0
  6 16  1  0
  7  6  1  0
  8  7  2  0
  8  9  1  0
  9 10  1  0
  9 16  2  0
 10 12  1  0
 11 10  2  0
 12 13  1  0
 13 14  1  0
 15 13  2  0
 16 15  1  0
 18 17  2  0
 19 18  1  0
 20 19  2  0
 20 21  1  0
 21 22  2  0
 22 17  1  0
  2 23  1  0
  3 24  1  0
  7 25  1  0
 12 26  1  0
 14 27  1  0
 14 28  1  0
 17 29  1  0
 18 30  1  0
 19 31  1  0
M  ISO  7  23  14  24  14  25  14  26   9  29  14  30  14  31  14
M  END
>  <minimizedAffinity>  (1) 
-6.14711905

>  <minimizedRMSD>  (1) 
1.52891123

$$$$
