
     RDKit          3D

 30 32  0  0  0  0  0  0  0  0999 V2000
   35.7210   30.1760   48.3800 C   0  0  0  0  0  0  0  0  0  0  0  0
   35.6360   29.0060   49.1720 C   0  0  0  0  0  0  0  0  0  0  0  0
   34.5210   28.2410   49.0240 C   0  0  0  0  0  0  0  0  0  0  0  0
   33.5790   28.6260   48.1540 C   0  0  0  0  0  0  0  0  0  0  0  0
   34.1870   30.1570   47.4290 S   0  0  0  0  0  0  0  0  0  0  0  0
   38.1580   32.7210   49.4720 C   0  0  0  0  0  0  0  0  0  0  0  0
   38.9300   32.9060   48.3150 C   0  0  0  0  0  0  0  0  0  0  0  0
   38.6060   32.1610   47.1880 C   0  0  0  0  0  0  0  0  0  0  0  0
   37.5580   31.2950   47.2700 N   0  0  0  0  0  0  0  0  0  0  0  0
   36.8420   31.1410   48.3870 C   0  0  0  0  0  0  0  0  0  0  0  0
   37.1130   31.8420   49.5170 N   0  0  0  0  0  0  0  0  0  0  0  0
   29.8810   26.8350   47.1400 C   0  0  0  0  0  0  0  0  0  0  0  0
   30.7400   27.2690   46.1520 C   0  0  0  0  0  0  0  0  0  0  0  0
   31.9370   27.8480   46.4820 C   0  0  0  0  0  0  0  0  0  0  0  0
   32.3130   28.0130   47.8020 C   0  0  0  0  0  0  0  0  0  0  0  0
   31.4620   27.5830   48.7990 C   0  0  0  0  0  0  0  0  0  0  0  0
   30.2560   26.9990   48.4560 C   0  0  0  0  0  0  0  0  0  0  0  0
   28.3640   26.1010   46.6890 S   0  0  0  0  0  0  0  0  0  0  0  0
   27.5980   27.0360   45.7920 O   0  0  0  0  0  0  0  0  0  0  0  0
   28.5480   24.7820   46.0140 O   0  0  0  0  0  0  0  0  0  0  0  0
   36.4351   28.7281   49.8750 H   0  0  0  0  0  0  0  0  0  0  0  0
   34.3951   27.3191   49.6108 H   0  0  0  0  0  0  0  0  0  0  0  0
   38.4023   33.3031   50.3728 H   0  0  0  0  0  0  0  0  0  0  0  0
   39.7669   33.6197   48.3007 H   0  0  0  0  0  0  0  0  0  0  0  0
   39.1798   32.2676   46.2556 H   0  0  0  0  0  0  0  0  0  0  0  0
   30.4627   27.1497   45.0942 H   0  0  0  0  0  0  0  0  0  0  0  0
   32.6112   28.1878   45.6820 H   0  0  0  0  0  0  0  0  0  0  0  0
   31.7398   27.7034   49.8565 H   0  0  0  0  0  0  0  0  0  0  0  0
   29.5796   26.6570   49.2532 H   0  0  0  0  0  0  0  0  0  0  0  0
   27.6583   25.8699   47.8403 H   0  0  0  0  0  0  0  0  0  0  0  0
  1 10  1  0
  1  2  2  0
  3  2  1  0
  4  3  2  0
  5  4  1  0
  5  1  1  0
  6 11  2  0
  7  6  1  0
  8  9  1  0
  8  7  2  0
  9 10  2  0
 10 11  1  0
 12 17  2  0
 13 14  2  0
 13 12  1  0
 14 15  1  0
 15  4  1  0
 15 16  2  0
 17 16  1  0
 18 12  1  0
 19 18  2  0
 20 18  2  0
  2 21  1  0
  3 22  1  0
  6 23  1  0
  7 24  1  0
  8 25  1  0
 13 26  1  0
 14 27  1  0
 16 28  1  0
 17 29  1  0
 18 30  1  0
M  ISO  8  21  14  22  14  23  14  24  14  25  14  26  14  27  14  28  14
M  ISO  2  29  14  30  11
M  END
>  <minimizedAffinity>  (1) 
-5.44241047

>  <minimizedRMSD>  (1) 
2.42052269

$$$$
