
     RDKit          3D

 25 27  0  0  0  0  0  0  0  0999 V2000
   34.9350   29.3230   48.6880 C   0  0  0  0  0  0  0  0  0  0  0  0
   34.3300   28.1250   49.1460 C   0  0  0  0  0  0  0  0  0  0  0  0
   33.2190   27.7160   48.4710 C   0  0  0  0  0  0  0  0  0  0  0  0
   32.7670   28.4410   47.4380 C   0  0  0  0  0  0  0  0  0  0  0  0
   33.9110   29.8400   47.3040 S   0  0  0  0  0  0  0  0  0  0  0  0
   37.5150   30.3810   51.1150 C   0  0  0  0  0  0  0  0  0  0  0  0
   38.3960   31.1280   50.2860 C   0  0  0  0  0  0  0  0  0  0  0  0
   38.0870   31.2510   48.9210 C   0  0  0  0  0  0  0  0  0  0  0  0
   36.9550   30.6460   48.4610 N   0  0  0  0  0  0  0  0  0  0  0  0
   36.1490   29.9510   49.2690 C   0  0  0  0  0  0  0  0  0  0  0  0
   36.4030   29.8040   50.5930 N   0  0  0  0  0  0  0  0  0  0  0  0
   31.6150   28.2220   46.5640 C   0  0  0  0  0  0  0  0  0  0  0  0
   31.3900   27.0510   45.8900 C   0  0  0  0  0  0  0  0  0  0  0  0
   30.2620   26.9960   45.1040 C   0  0  0  0  0  0  0  0  0  0  0  0
   29.4160   28.0340   44.9960 N   0  0  0  0  0  0  0  0  0  0  0  0
   29.6440   29.1840   45.6630 C   0  0  0  0  0  0  0  0  0  0  0  0
   30.7360   29.2280   46.4190 N   0  0  0  0  0  0  0  0  0  0  0  0
   34.7344   27.5582   49.9976 H   0  0  0  0  0  0  0  0  0  0  0  0
   32.6961   26.7962   48.7721 H   0  0  0  0  0  0  0  0  0  0  0  0
   37.7362   30.2700   52.1868 H   0  0  0  0  0  0  0  0  0  0  0  0
   39.2983   31.5986   50.7035 H   0  0  0  0  0  0  0  0  0  0  0  0
   38.7400   31.8194   48.2424 H   0  0  0  0  0  0  0  0  0  0  0  0
   32.0775   26.1963   45.9730 H   0  0  0  0  0  0  0  0  0  0  0  0
   30.0460   26.0728   44.5463 H   0  0  0  0  0  0  0  0  0  0  0  0
   28.9604   30.0423   45.5851 H   0  0  0  0  0  0  0  0  0  0  0  0
  1  2  2  0
  1 10  1  0
  3  2  1  0
  4  3  2  0
  5  4  1  0
  5  1  1  0
  7  6  2  0
  8  7  1  0
  9  8  2  0
  9 10  1  0
 10 11  2  0
 11  6  1  0
 12  4  1  0
 13 12  2  0
 14 13  1  0
 15 14  2  0
 15 16  1  0
 16 17  2  0
 17 12  1  0
  2 18  1  0
  3 19  1  0
  6 20  1  0
  7 21  1  0
  8 22  1  0
 13 23  1  0
 14 24  1  0
 16 25  1  0
M  ISO  8  18  14  19  14  20  14  21  14  22  14  23  14  24  14  25  14
M  END
>  <minimizedAffinity>  (1) 
-4.43913507

>  <minimizedRMSD>  (1) 
0.298924476

$$$$
