
     RDKit          3D

 29 31  0  0  0  0  0  0  0  0999 V2000
   34.9510   29.3260   48.6890 C   0  0  0  0  0  0  0  0  0  0  0  0
   34.3950   28.0720   49.0540 C   0  0  0  0  0  0  0  0  0  0  0  0
   33.2780   27.6930   48.3750 C   0  0  0  0  0  0  0  0  0  0  0  0
   32.7660   28.4850   47.4270 C   0  0  0  0  0  0  0  0  0  0  0  0
   33.8430   29.9010   47.3880 S   0  0  0  0  0  0  0  0  0  0  0  0
   37.5140   30.3480   51.1400 C   0  0  0  0  0  0  0  0  0  0  0  0
   38.4030   31.0960   50.3210 C   0  0  0  0  0  0  0  0  0  0  0  0
   38.1040   31.2330   48.9600 C   0  0  0  0  0  0  0  0  0  0  0  0
   36.9730   30.6410   48.4720 N   0  0  0  0  0  0  0  0  0  0  0  0
   36.1570   29.9410   49.2830 C   0  0  0  0  0  0  0  0  0  0  0  0
   36.4090   29.7890   50.5930 N   0  0  0  0  0  0  0  0  0  0  0  0
   31.6380   28.3510   46.5770 N   0  0  0  0  0  0  0  0  0  0  0  0
   30.8950   29.4230   45.9460 C   0  0  0  0  0  0  0  0  0  0  0  0
   29.4810   28.8870   45.9950 C   0  0  0  0  0  0  0  0  0  0  0  0
   29.5890   27.4160   46.3370 C   0  0  0  0  0  0  0  0  0  0  0  0
   31.0590   27.0720   46.2170 C   0  0  0  0  0  0  0  0  0  0  0  0
   34.8406   27.4437   49.8393 H   0  0  0  0  0  0  0  0  0  0  0  0
   32.7949   26.7323   48.6068 H   0  0  0  0  0  0  0  0  0  0  0  0
   37.7229   30.2240   52.2128 H   0  0  0  0  0  0  0  0  0  0  0  0
   39.3062   31.5572   50.7472 H   0  0  0  0  0  0  0  0  0  0  0  0
   38.7672   31.8066   48.2958 H   0  0  0  0  0  0  0  0  0  0  0  0
   31.2267   29.5848   44.9098 H   0  0  0  0  0  0  0  0  0  0  0  0
   31.0191   30.4003   46.4353 H   0  0  0  0  0  0  0  0  0  0  0  0
   28.9013   29.4147   46.7667 H   0  0  0  0  0  0  0  0  0  0  0  0
   28.9667   29.0347   45.0339 H   0  0  0  0  0  0  0  0  0  0  0  0
   29.2354   27.2341   47.3626 H   0  0  0  0  0  0  0  0  0  0  0  0
   28.9724   26.7981   45.6677 H   0  0  0  0  0  0  0  0  0  0  0  0
   31.3524   26.2774   46.9187 H   0  0  0  0  0  0  0  0  0  0  0  0
   31.3679   26.6791   45.2371 H   0  0  0  0  0  0  0  0  0  0  0  0
  1  2  2  0
  1 10  1  0
  3  2  1  0
  4  3  2  0
  5  4  1  0
  5  1  1  0
  7  6  2  0
  8  7  1  0
  9  8  2  0
  9 10  1  0
 10 11  2  0
 11  6  1  0
 12  4  1  0
 13 14  1  0
 13 12  1  0
 14 15  1  0
 16 15  1  0
 16 12  1  0
  2 17  1  0
  3 18  1  0
  6 19  1  0
  7 20  1  0
  8 21  1  0
 13 22  1  0
 13 23  1  0
 14 24  1  0
 14 25  1  0
 15 26  1  0
 15 27  1  0
 16 28  1  0
 16 29  1  0
M  ISO  8  17  14  18  14  19  14  20  14  21  14  22  13  23  13  24  13
M  ISO  5  25  13  26  13  27  13  28  13  29  13
M  END
>  <minimizedAffinity>  (1) 
-4.36356926

>  <minimizedRMSD>  (1) 
0.339198977

$$$$
