
     RDKit          3D

 23 25  0  0  0  0  0  0  0  0999 V2000
   34.9700   29.2940   48.6740 C   0  0  0  0  0  0  0  0  0  0  0  0
   34.3970   28.0590   49.0430 C   0  0  0  0  0  0  0  0  0  0  0  0
   33.2960   27.6450   48.3710 C   0  0  0  0  0  0  0  0  0  0  0  0
   32.8070   28.4200   47.3970 C   0  0  0  0  0  0  0  0  0  0  0  0
   33.8890   29.8410   47.3430 S   0  0  0  0  0  0  0  0  0  0  0  0
   37.5070   30.3530   51.1310 C   0  0  0  0  0  0  0  0  0  0  0  0
   38.3900   31.1140   50.3160 C   0  0  0  0  0  0  0  0  0  0  0  0
   38.0990   31.2450   48.9630 C   0  0  0  0  0  0  0  0  0  0  0  0
   36.9780   30.6330   48.4900 N   0  0  0  0  0  0  0  0  0  0  0  0
   36.1620   29.9210   49.2780 C   0  0  0  0  0  0  0  0  0  0  0  0
   36.3990   29.7610   50.6050 N   0  0  0  0  0  0  0  0  0  0  0  0
   31.6470   28.3200   46.4520 C   0  0  0  0  0  0  0  0  0  0  0  0
   31.2730   27.1190   45.9200 C   0  0  0  0  0  0  0  0  0  0  0  0
   29.8200   27.6450   44.8630 S   0  0  0  0  0  0  0  0  0  0  0  0
   30.0350   29.4530   45.3850 C   0  0  0  0  0  0  0  0  0  0  0  0
   31.0480   29.4610   46.1950 N   0  0  0  0  0  0  0  0  0  0  0  0
   34.8305   27.4513   49.8509 H   0  0  0  0  0  0  0  0  0  0  0  0
   32.8131   26.6890   48.6219 H   0  0  0  0  0  0  0  0  0  0  0  0
   37.7226   30.2408   52.2038 H   0  0  0  0  0  0  0  0  0  0  0  0
   39.2838   31.5886   50.7470 H   0  0  0  0  0  0  0  0  0  0  0  0
   38.7535   31.8247   48.2955 H   0  0  0  0  0  0  0  0  0  0  0  0
   31.7058   26.1191   46.0709 H   0  0  0  0  0  0  0  0  0  0  0  0
   29.4287   30.3144   45.0681 H   0  0  0  0  0  0  0  0  0  0  0  0
  1  2  2  0
  1 10  1  0
  3  2  1  0
  4  3  2  0
  5  4  1  0
  5  1  1  0
  7  6  2  0
  8  7  1  0
  9  8  2  0
  9 10  1  0
 10 11  2  0
 11  6  1  0
 12  4  1  0
 13 12  2  0
 14 15  1  0
 14 13  1  0
 15 16  2  0
 16 12  1  0
  2 17  1  0
  3 18  1  0
  6 19  1  0
  7 20  1  0
  8 21  1  0
 13 22  1  0
 15 23  1  0
M  ISO  7  17  14  18  14  19  14  20  14  21  14  22  14  23  14
M  END
>  <minimizedAffinity>  (1) 
-4.36018848

>  <minimizedRMSD>  (1) 
0.282764584

$$$$
