
     RDKit          3D

 23 25  0  0  0  0  0  0  0  0999 V2000
   35.0130   29.4180   48.6210 C   0  0  0  0  0  0  0  0  0  0  0  0
   34.4810   28.2090   49.1360 C   0  0  0  0  0  0  0  0  0  0  0  0
   33.3630   27.7530   48.4960 C   0  0  0  0  0  0  0  0  0  0  0  0
   32.8300   28.4180   47.4620 C   0  0  0  0  0  0  0  0  0  0  0  0
   33.8980   29.8370   47.2620 S   0  0  0  0  0  0  0  0  0  0  0  0
   37.7130   30.5570   50.8590 C   0  0  0  0  0  0  0  0  0  0  0  0
   38.4480   31.4270   50.0060 C   0  0  0  0  0  0  0  0  0  0  0  0
   37.9940   31.6020   48.6840 C   0  0  0  0  0  0  0  0  0  0  0  0
   36.8740   30.9270   48.2870 N   0  0  0  0  0  0  0  0  0  0  0  0
   36.2150   30.1160   49.1300 C   0  0  0  0  0  0  0  0  0  0  0  0
   36.6200   29.9230   50.4080 N   0  0  0  0  0  0  0  0  0  0  0  0
   31.7150   28.1670   46.6550 N   0  0  0  0  0  0  0  0  0  0  0  0
   30.9050   29.1580   46.2070 C   0  0  0  0  0  0  0  0  0  0  0  0
   29.9360   28.5660   45.4620 N   0  0  0  0  0  0  0  0  0  0  0  0
   30.1720   27.2490   45.4710 C   0  0  0  0  0  0  0  0  0  0  0  0
   31.2710   26.9900   46.2080 N   0  0  0  0  0  0  0  0  0  0  0  0
   34.9339   27.6782   49.9864 H   0  0  0  0  0  0  0  0  0  0  0  0
   32.8905   26.8200   48.8370 H   0  0  0  0  0  0  0  0  0  0  0  0
   38.0437   30.4030   51.8968 H   0  0  0  0  0  0  0  0  0  0  0  0
   39.3460   31.9485   50.3689 H   0  0  0  0  0  0  0  0  0  0  0  0
   38.5280   32.2658   47.9882 H   0  0  0  0  0  0  0  0  0  0  0  0
   31.0122   30.2341   46.4082 H   0  0  0  0  0  0  0  0  0  0  0  0
   29.5621   26.4925   44.9555 H   0  0  0  0  0  0  0  0  0  0  0  0
  1 10  1  0
  1  2  2  0
  3  2  1  0
  4  3  2  0
  5  4  1  0
  5  1  1  0
  7  6  2  0
  8  7  1  0
  9  8  2  0
  9 10  1  0
 10 11  2  0
 11  6  1  0
 12  4  1  0
 13 12  1  0
 14 15  1  0
 14 13  2  0
 15 16  2  0
 16 12  1  0
  2 17  1  0
  3 18  1  0
  6 19  1  0
  7 20  1  0
  8 21  1  0
 13 22  1  0
 15 23  1  0
M  ISO  7  17  14  18  14  19  14  20  14  21  14  22  14  23  14
M  END
>  <minimizedAffinity>  (1) 
-4.33776903

>  <minimizedRMSD>  (1) 
0.520999074

$$$$
