
     RDKit          3D

 18 19  0  0  0  0  0  0  0  0999 V2000
   37.3630   30.1930   51.4590 C   0  0  0  0  0  0  0  0  0  0  0  0
   37.9010   30.8200   50.3180 C   0  0  0  0  0  0  0  0  0  0  0  0
   37.2810   30.5710   49.0890 C   0  0  0  0  0  0  0  0  0  0  0  0
   36.2050   29.7450   49.0610 N   0  0  0  0  0  0  0  0  0  0  0  0
   35.7070   29.1540   50.1750 C   0  0  0  0  0  0  0  0  0  0  0  0
   36.2940   29.3860   51.3570 N   0  0  0  0  0  0  0  0  0  0  0  0
   37.8130   31.2010   47.9120 C   0  0  0  0  0  0  0  0  0  0  0  0
   37.2390   30.9400   46.6840 C   0  0  0  0  0  0  0  0  0  0  0  0
   37.7870   31.5720   45.5680 C   0  0  0  0  0  0  0  0  0  0  0  0
   38.8410   32.4030   45.7240 N   0  0  0  0  0  0  0  0  0  0  0  0
   39.3720   32.6300   46.9510 C   0  0  0  0  0  0  0  0  0  0  0  0
   38.8640   32.0300   48.0650 N   0  0  0  0  0  0  0  0  0  0  0  0
   37.8228   30.3660   52.4432 H   0  0  0  0  0  0  0  0  0  0  0  0
   38.7769   31.4814   50.3908 H   0  0  0  0  0  0  0  0  0  0  0  0
   34.8312   28.4917   50.1092 H   0  0  0  0  0  0  0  0  0  0  0  0
   36.3808   30.2585   46.5891 H   0  0  0  0  0  0  0  0  0  0  0  0
   37.3642   31.3952   44.5680 H   0  0  0  0  0  0  0  0  0  0  0  0
   40.2296   33.3118   47.0495 H   0  0  0  0  0  0  0  0  0  0  0  0
  2  1  2  0
  3  2  1  0
  4  3  2  0
  4  5  1  0
  5  6  2  0
  6  1  1  0
  7 12  1  0
  7  3  1  0
  8  7  2  0
  9 10  2  0
  9  8  1  0
 10 11  1  0
 11 12  2  0
  1 13  1  0
  2 14  1  0
  5 15  1  0
  8 16  1  0
  9 17  1  0
 11 18  1  0
M  ISO  6  13  14  14  14  15  14  16  14  17  14  18  14
M  END
>  <minimizedAffinity>  (1) 
-4.45476294

>  <minimizedRMSD>  (1) 
0.755764067

$$$$
