
     RDKit          3D

 18 19  0  0  0  0  0  0  0  0999 V2000
   37.4440   30.3270   51.1100 C   0  0  0  0  0  0  0  0  0  0  0  0
   38.3320   31.0920   50.3130 C   0  0  0  0  0  0  0  0  0  0  0  0
   38.0600   31.2040   48.9370 C   0  0  0  0  0  0  0  0  0  0  0  0
   36.9570   30.5740   48.4310 N   0  0  0  0  0  0  0  0  0  0  0  0
   36.1400   29.8610   49.2140 C   0  0  0  0  0  0  0  0  0  0  0  0
   36.3770   29.7340   50.5430 N   0  0  0  0  0  0  0  0  0  0  0  0
   34.9730   29.2070   48.6050 C   0  0  0  0  0  0  0  0  0  0  0  0
   34.3940   27.9850   49.0150 C   0  0  0  0  0  0  0  0  0  0  0  0
   33.3100   27.5460   48.3140 C   0  0  0  0  0  0  0  0  0  0  0  0
   32.8520   28.2800   47.2890 C   0  0  0  0  0  0  0  0  0  0  0  0
   33.9390   29.7010   47.2110 S   0  0  0  0  0  0  0  0  0  0  0  0
   31.7960   28.0770   46.4270 O   0  0  0  0  0  0  0  0  0  0  0  0
   37.6264   30.2182   52.1893 H   0  0  0  0  0  0  0  0  0  0  0  0
   39.2093   31.5844   50.7578 H   0  0  0  0  0  0  0  0  0  0  0  0
   38.7224   31.7875   48.2806 H   0  0  0  0  0  0  0  0  0  0  0  0
   34.7999   27.4130   49.8624 H   0  0  0  0  0  0  0  0  0  0  0  0
   32.8169   26.6010   48.5859 H   0  0  0  0  0  0  0  0  0  0  0  0
   31.6031   28.7385   45.7162 H   0  0  0  0  0  0  0  0  0  0  0  0
  2  1  2  0
  3  2  1  0
  4  3  2  0
  4  5  1  0
  5  6  2  0
  6  1  1  0
  7  8  2  0
  7  5  1  0
  9  8  1  0
 10  9  2  0
 11 10  1  0
 11  7  1  0
 12 10  1  0
  1 13  1  0
  2 14  1  0
  3 15  1  0
  8 16  1  0
  9 17  1  0
 12 18  1  0
M  ISO  6  13  14  14  14  15  14  16  14  17  14  18   3
M  END
>  <minimizedAffinity>  (1) 
-4.09263849

>  <minimizedRMSD>  (1) 
0.0465783551

$$$$
