
     RDKit          3D

 26 27  0  0  0  0  0  0  0  0999 V2000
   34.9670   29.2600   48.6420 C   0  0  0  0  0  0  0  0  0  0  0  0
   34.3830   28.0420   49.0490 C   0  0  0  0  0  0  0  0  0  0  0  0
   33.2920   27.6210   48.3580 C   0  0  0  0  0  0  0  0  0  0  0  0
   32.8340   28.3690   47.3470 C   0  0  0  0  0  0  0  0  0  0  0  0
   33.9370   29.7980   47.2610 S   0  0  0  0  0  0  0  0  0  0  0  0
   37.4830   30.3430   51.1200 C   0  0  0  0  0  0  0  0  0  0  0  0
   38.3650   31.1110   50.3110 C   0  0  0  0  0  0  0  0  0  0  0  0
   38.0850   31.2400   48.9540 C   0  0  0  0  0  0  0  0  0  0  0  0
   36.9720   30.6210   48.4660 N   0  0  0  0  0  0  0  0  0  0  0  0
   36.1590   29.9050   49.2510 C   0  0  0  0  0  0  0  0  0  0  0  0
   36.3820   29.7440   50.5790 N   0  0  0  0  0  0  0  0  0  0  0  0
   31.6890   28.1930   46.4160 C   0  0  0  0  0  0  0  0  0  0  0  0
   31.1980   29.5360   45.9940 C   0  0  0  0  0  0  0  0  0  0  0  0
   30.6480   27.3310   47.0890 C   0  0  0  0  0  0  0  0  0  0  0  0
   34.7925   27.4598   49.8877 H   0  0  0  0  0  0  0  0  0  0  0  0
   32.7919   26.6785   48.6256 H   0  0  0  0  0  0  0  0  0  0  0  0
   37.6903   30.2302   52.1944 H   0  0  0  0  0  0  0  0  0  0  0  0
   39.2511   31.5936   50.7492 H   0  0  0  0  0  0  0  0  0  0  0  0
   38.7426   31.8245   48.2938 H   0  0  0  0  0  0  0  0  0  0  0  0
   31.9794   27.6689   45.4935 H   0  0  0  0  0  0  0  0  0  0  0  0
   30.9765   30.1420   46.8849 H   0  0  0  0  0  0  0  0  0  0  0  0
   31.9712   30.0368   45.3929 H   0  0  0  0  0  0  0  0  0  0  0  0
   30.2841   29.4200   45.3929 H   0  0  0  0  0  0  0  0  0  0  0  0
   30.7512   27.4165   48.1808 H   0  0  0  0  0  0  0  0  0  0  0  0
   29.6443   27.6660   46.7883 H   0  0  0  0  0  0  0  0  0  0  0  0
   30.7900   26.2825   46.7883 H   0  0  0  0  0  0  0  0  0  0  0  0
  1  2  2  0
  1 10  1  0
  3  2  1  0
  4  3  2  0
  5  4  1  0
  5  1  1  0
  7  6  2  0
  8  7  1  0
  9  8  2  0
  9 10  1  0
 10 11  2  0
 11  6  1  0
 12 14  1  0
 12  4  1  0
 13 12  1  0
  2 15  1  0
  3 16  1  0
  6 17  1  0
  7 18  1  0
  8 19  1  0
 12 20  1  0
 13 21  1  0
 13 22  1  0
 13 23  1  0
 14 24  1  0
 14 25  1  0
 14 26  1  0
M  ISO  8  15  14  16  14  17  14  18  14  19  14  20   8  21   8  22   8
M  ISO  4  23   8  24   8  25   8  26   8
M  END
>  <minimizedAffinity>  (1) 
-4.22283316

>  <minimizedRMSD>  (1) 
0.142306551

$$$$
