
     RDKit          3D

 39 42  0  0  1  0  0  0  0  0999 V2000
   31.4580   28.1020   46.3720 C   0  0  2  0  0  0  0  0  0  0  0  0
   34.6890   29.1630   48.6470 C   0  0  0  0  0  0  0  0  0  0  0  0
   33.9760   28.0590   49.1410 C   0  0  0  0  0  0  0  0  0  0  0  0
   32.8960   27.6590   48.4370 C   0  0  0  0  0  0  0  0  0  0  0  0
   32.5660   28.3210   47.3250 C   0  0  0  0  0  0  0  0  0  0  0  0
   33.8050   29.6370   47.1540 S   0  0  0  0  0  0  0  0  0  0  0  0
   37.1960   30.2340   51.1460 C   0  0  0  0  0  0  0  0  0  0  0  0
   38.1690   30.8690   50.3110 C   0  0  0  0  0  0  0  0  0  0  0  0
   37.9480   30.9180   48.9290 C   0  0  0  0  0  0  0  0  0  0  0  0
   36.8060   30.3510   48.4660 N   0  0  0  0  0  0  0  0  0  0  0  0
   35.9140   29.7660   49.2580 C   0  0  0  0  0  0  0  0  0  0  0  0
   36.0760   29.6900   50.5910 N   0  0  0  0  0  0  0  0  0  0  0  0
   30.7240   29.4080   46.2230 C   0  0  0  0  0  0  0  0  0  0  0  0
   30.5780   26.9840   46.8370 C   0  0  0  0  0  0  0  0  0  0  0  0
   29.2310   27.3280   47.1440 N   0  0  0  0  0  0  0  0  0  0  0  0
   28.1080   27.6640   46.4910 C   0  0  0  0  0  0  0  0  0  0  0  0
   27.0890   27.9050   47.3310 N   0  0  0  0  0  0  0  0  0  0  0  0
   27.5390   27.7250   48.5870 C   0  0  0  0  0  0  0  0  0  0  0  0
   26.8170   27.8710   49.7510 C   0  0  0  0  0  0  0  0  0  0  0  0
   27.5280   27.6260   50.8890 N   0  0  0  0  0  0  0  0  0  0  0  0
   28.8350   27.2720   50.8180 C   0  0  0  0  0  0  0  0  0  0  0  0
   29.4800   27.1480   49.6450 N   0  0  0  0  0  0  0  0  0  0  0  0
   28.8640   27.3700   48.4520 C   0  0  0  0  0  0  0  0  0  0  0  0
   25.4480   28.2460   49.7420 N   0  0  0  0  0  0  0  0  0  0  0  0
   31.8331   27.7924   45.3854 H   0  0  0  0  0  0  0  0  0  0  0  0
   34.2842   27.5424   50.0619 H   0  0  0  0  0  0  0  0  0  0  0  0
   32.2966   26.8005   48.7742 H   0  0  0  0  0  0  0  0  0  0  0  0
   37.3514   30.1849   52.2339 H   0  0  0  0  0  0  0  0  0  0  0  0
   39.0763   31.3117   50.7477 H   0  0  0  0  0  0  0  0  0  0  0  0
   38.6688   31.3953   48.2488 H   0  0  0  0  0  0  0  0  0  0  0  0
   30.4949   29.8155   47.2187 H   0  0  0  0  0  0  0  0  0  0  0  0
   31.3533   30.1214   45.6707 H   0  0  0  0  0  0  0  0  0  0  0  0
   29.7874   29.2413   45.6707 H   0  0  0  0  0  0  0  0  0  0  0  0
   30.5570   26.2219   46.0440 H   0  0  0  0  0  0  0  0  0  0  0  0
   31.0166   26.6403   47.7854 H   0  0  0  0  0  0  0  0  0  0  0  0
   28.0314   27.7338   45.3959 H   0  0  0  0  0  0  0  0  0  0  0  0
   29.3856   27.0800   51.7507 H   0  0  0  0  0  0  0  0  0  0  0  0
   24.9358   28.3468   50.6299 H   0  0  0  0  0  0  0  0  0  0  0  0
   24.9668   28.4173   48.8476 H   0  0  0  0  0  0  0  0  0  0  0  0
  1 14  1  0
  1  5  1  0
  2  3  2  0
  2 11  1  0
  4  3  1  0
  5  4  2  0
  6  5  1  0
  6  2  1  0
  8  7  2  0
  9  8  1  0
 10  9  2  0
 10 11  1  0
 11 12  2  0
 12  7  1  0
 13  1  1  0
 14 15  1  0
 15 23  1  0
 16 15  1  0
 16 17  2  0
 17 18  1  0
 18 19  2  0
 19 20  1  0
 21 20  2  0
 22 21  1  0
 23 18  1  0
 23 22  2  0
 24 19  1  0
  1 25  1  6
  3 26  1  0
  4 27  1  0
  7 28  1  0
  8 29  1  0
  9 30  1  0
 13 31  1  0
 13 32  1  0
 13 33  1  0
 14 34  1  0
 14 35  1  0
 16 36  1  0
 21 37  1  0
 24 38  1  0
 24 39  1  0
M  ISO  8  25   8  26  14  27  14  28  14  29  14  30  14  31   8  32   8
M  ISO  5  33   8  34   8  35   8  36  14  37  14
M  END
>  <minimizedAffinity>  (1) 
-6.52077532

>  <minimizedRMSD>  (1) 
1.64544749

$$$$
