
     RDKit          3D

 36 38  0  0  1  0  0  0  0  0999 V2000
   31.6740   28.1570   46.5770 C   0  0  2  0  0  0  0  0  0  0  0  0
   34.9460   29.3840   48.6670 C   0  0  0  0  0  0  0  0  0  0  0  0
   34.4130   28.1630   49.1230 C   0  0  0  0  0  0  0  0  0  0  0  0
   33.3190   27.7090   48.4700 C   0  0  0  0  0  0  0  0  0  0  0  0
   32.8160   28.4140   47.4650 C   0  0  0  0  0  0  0  0  0  0  0  0
   33.8790   29.8750   47.3140 S   0  0  0  0  0  0  0  0  0  0  0  0
   37.6600   30.4410   50.9260 C   0  0  0  0  0  0  0  0  0  0  0  0
   38.3710   31.3520   50.1170 C   0  0  0  0  0  0  0  0  0  0  0  0
   37.9280   31.5940   48.8350 C   0  0  0  0  0  0  0  0  0  0  0  0
   36.8180   30.9230   48.4450 N   0  0  0  0  0  0  0  0  0  0  0  0
   36.1530   30.0670   49.2090 C   0  0  0  0  0  0  0  0  0  0  0  0
   36.5390   29.7850   50.4810 N   0  0  0  0  0  0  0  0  0  0  0  0
   31.1740   29.4460   46.0200 C   0  0  0  0  0  0  0  0  0  0  0  0
   30.6580   27.3030   47.2200 C   0  0  0  0  0  0  0  0  0  0  0  0
   29.7370   27.8240   48.1860 C   0  0  0  0  0  0  0  0  0  0  0  0
   28.8110   28.8110   48.2280 C   0  0  0  0  0  0  0  0  0  0  0  0
   28.0080   29.1380   49.2830 C   0  0  0  0  0  0  0  0  0  0  0  0
   28.1110   28.4200   50.4510 C   0  0  0  0  0  0  0  0  0  0  0  0
   29.0190   27.4040   50.5100 C   0  0  0  0  0  0  0  0  0  0  0  0
   29.8020   27.1200   49.4100 C   0  0  0  0  0  0  0  0  0  0  0  0
   31.9948   27.5589   45.7114 H   0  0  0  0  0  0  0  0  0  0  0  0
   34.8606   27.6102   49.9621 H   0  0  0  0  0  0  0  0  0  0  0  0
   32.8491   26.7609   48.7704 H   0  0  0  0  0  0  0  0  0  0  0  0
   38.0161   30.2495   51.9490 H   0  0  0  0  0  0  0  0  0  0  0  0
   39.2658   31.8616   50.5039 H   0  0  0  0  0  0  0  0  0  0  0  0
   38.4477   32.2943   48.1645 H   0  0  0  0  0  0  0  0  0  0  0  0
   30.9109   30.1244   46.8449 H   0  0  0  0  0  0  0  0  0  0  0  0
   31.9584   29.9072   45.4020 H   0  0  0  0  0  0  0  0  0  0  0  0
   30.2837   29.2576   45.4020 H   0  0  0  0  0  0  0  0  0  0  0  0
   30.0481   26.8825   46.4068 H   0  0  0  0  0  0  0  0  0  0  0  0
   31.2742   26.6237   47.8273 H   0  0  0  0  0  0  0  0  0  0  0  0
   28.6930   29.4135   47.3152 H   0  0  0  0  0  0  0  0  0  0  0  0
   27.2879   29.9653   49.1994 H   0  0  0  0  0  0  0  0  0  0  0  0
   27.4764   28.6592   51.3170 H   0  0  0  0  0  0  0  0  0  0  0  0
   29.1267   26.8130   51.4315 H   0  0  0  0  0  0  0  0  0  0  0  0
   30.5228   26.2930   49.4907 H   0  0  0  0  0  0  0  0  0  0  0  0
  1 14  1  0
  1  5  1  0
  2  3  2  0
  2 11  1  0
  4  3  1  0
  5  4  2  0
  6  5  1  0
  6  2  1  0
  8  7  2  0
  9  8  1  0
 10  9  2  0
 10 11  1  0
 11 12  2  0
 12  7  1  0
 13  1  1  0
 14 15  1  0
 15 16  2  0
 15 20  1  0
 16 17  1  0
 17 18  2  0
 18 19  1  0
 20 19  2  0
  1 21  1  6
  3 22  1  0
  4 23  1  0
  7 24  1  0
  8 25  1  0
  9 26  1  0
 13 27  1  0
 13 28  1  0
 13 29  1  0
 14 30  1  0
 14 31  1  0
 16 32  1  0
 17 33  1  0
 18 34  1  0
 19 35  1  0
 20 36  1  0
M  ISO  8  21   8  22  14  23  14  24  14  25  14  26  14  27   8  28   8
M  ISO  8  29   8  30   8  31   8  32  14  33  14  34  14  35  14  36  14
M  END
>  <minimizedAffinity>  (1) 
-5.64990616

>  <minimizedRMSD>  (1) 
0.518772006

$$$$
