
     RDKit          3D

 40 43  0  0  1  0  0  0  0  0999 V2000
   32.0000   28.3370   46.1590 C   0  0  2  0  0  0  0  0  0  0  0  0
   35.0840   29.1720   48.7180 C   0  0  0  0  0  0  0  0  0  0  0  0
   34.4330   27.9690   49.0120 C   0  0  0  0  0  0  0  0  0  0  0  0
   33.4010   27.6170   48.2140 C   0  0  0  0  0  0  0  0  0  0  0  0
   33.0620   28.4210   47.2020 C   0  0  0  0  0  0  0  0  0  0  0  0
   34.2020   29.8100   47.2700 S   0  0  0  0  0  0  0  0  0  0  0  0
   37.3520   30.0970   51.4900 C   0  0  0  0  0  0  0  0  0  0  0  0
   38.3520   30.8450   50.7910 C   0  0  0  0  0  0  0  0  0  0  0  0
   38.2310   31.0110   49.4130 C   0  0  0  0  0  0  0  0  0  0  0  0
   37.1530   30.4460   48.8010 N   0  0  0  0  0  0  0  0  0  0  0  0
   36.2380   29.7560   49.4680 C   0  0  0  0  0  0  0  0  0  0  0  0
   36.2950   29.5540   50.8180 N   0  0  0  0  0  0  0  0  0  0  0  0
   31.4290   29.7070   45.9360 C   0  0  0  0  0  0  0  0  0  0  0  0
   30.9840   27.3240   46.5950 C   0  0  0  0  0  0  0  0  0  0  0  0
   29.8010   27.3160   45.7590 N   0  0  0  0  0  0  0  0  0  0  0  0
   29.5930   26.9500   44.4720 C   0  0  0  0  0  0  0  0  0  0  0  0
   28.3040   27.1240   44.1360 N   0  0  0  0  0  0  0  0  0  0  0  0
   27.6110   27.6080   45.1770 C   0  0  0  0  0  0  0  0  0  0  0  0
   26.3230   27.9670   45.4220 C   0  0  0  0  0  0  0  0  0  0  0  0
   25.4520   27.8660   44.5090 O   0  0  0  0  0  0  0  0  0  0  0  0
   25.9250   28.4350   46.6170 N   0  0  0  0  0  0  0  0  0  0  0  0
   26.8560   28.5420   47.5880 C   0  0  0  0  0  0  0  0  0  0  0  0
   26.6130   29.0140   48.9030 N   0  0  0  0  0  0  0  0  0  0  0  0
   28.1240   28.1960   47.3720 N   0  0  0  0  0  0  0  0  0  0  0  0
   28.5640   27.7170   46.1720 C   0  0  0  0  0  0  0  0  0  0  0  0
   32.3977   27.9993   45.1906 H   0  0  0  0  0  0  0  0  0  0  0  0
   34.7475   27.3374   49.8559 H   0  0  0  0  0  0  0  0  0  0  0  0
   32.8485   26.6831   48.3946 H   0  0  0  0  0  0  0  0  0  0  0  0
   37.4358   29.9584   52.5780 H   0  0  0  0  0  0  0  0  0  0  0  0
   39.2032   31.2822   51.3335 H   0  0  0  0  0  0  0  0  0  0  0  0
   38.9792   31.5780   48.8397 H   0  0  0  0  0  0  0  0  0  0  0  0
   31.2302   30.1839   46.9071 H   0  0  0  0  0  0  0  0  0  0  0  0
   32.1482   30.3161   45.3687 H   0  0  0  0  0  0  0  0  0  0  0  0
   30.4901   29.6251   45.3687 H   0  0  0  0  0  0  0  0  0  0  0  0
   31.4456   26.3262   46.5594 H   0  0  0  0  0  0  0  0  0  0  0  0
   30.6666   27.5922   47.6135 H   0  0  0  0  0  0  0  0  0  0  0  0
   30.3706   26.5642   43.7963 H   0  0  0  0  0  0  0  0  0  0  0  0
   24.9447   28.7024   46.7858 H   0  0  0  0  0  0  0  0  0  0  0  0
   27.3847   29.0630   49.5834 H   0  0  0  0  0  0  0  0  0  0  0  0
   25.6648   29.3078   49.1777 H   0  0  0  0  0  0  0  0  0  0  0  0
  1 14  1  0
  1  5  1  0
  2  3  2  0
  2 11  1  0
  4  3  1  0
  5  6  1  0
  5  4  2  0
  6  2  1  0
  8  7  2  0
  9  8  1  0
 10  9  2  0
 10 11  1  0
 11 12  2  0
 12  7  1  0
 13  1  1  0
 15 25  1  0
 15 14  1  0
 16 15  1  0
 17 16  2  0
 17 18  1  0
 18 19  1  0
 18 25  2  0
 19 21  1  0
 20 19  2  0
 21 22  1  0
 22 23  1  0
 24 22  2  0
 25 24  1  0
  1 26  1  6
  3 27  1  0
  4 28  1  0
  7 29  1  0
  8 30  1  0
  9 31  1  0
 13 32  1  0
 13 33  1  0
 13 34  1  0
 14 35  1  0
 14 36  1  0
 16 37  1  0
 21 38  1  0
 23 39  1  0
 23 40  1  0
M  ISO  8  26   8  27  14  28  14  29  14  30  14  31  14  32   8  33   8
M  ISO  5  34   8  35   8  36   8  37  14  38   9
M  END
>  <minimizedAffinity>  (1) 
-5.58303452

>  <minimizedRMSD>  (1) 
0.524063945

$$$$
