
     RDKit          3D

 33 35  0  0  1  0  0  0  0  0999 V2000
   35.2150   29.8540   48.3050 C   0  0  0  0  0  0  0  0  0  0  0  0
   34.9630   28.8480   49.2620 C   0  0  0  0  0  0  0  0  0  0  0  0
   33.8820   28.0670   49.0590 C   0  0  0  0  0  0  0  0  0  0  0  0
   33.1180   28.2810   47.9860 C   0  0  0  0  0  0  0  0  0  0  0  0
   33.8880   29.6740   47.1110 S   0  0  0  0  0  0  0  0  0  0  0  0
   37.6820   32.3330   49.5190 C   0  0  0  0  0  0  0  0  0  0  0  0
   38.4660   32.5340   48.3630 C   0  0  0  0  0  0  0  0  0  0  0  0
   38.1430   31.8340   47.1900 C   0  0  0  0  0  0  0  0  0  0  0  0
   37.0760   30.9760   47.2090 N   0  0  0  0  0  0  0  0  0  0  0  0
   36.3580   30.8140   48.3290 C   0  0  0  0  0  0  0  0  0  0  0  0
   36.6390   31.4680   49.4700 N   0  0  0  0  0  0  0  0  0  0  0  0
   31.9030   27.5920   47.5140 C   0  0  2  0  0  0  0  0  0  0  0  0
   31.0460   28.5990   46.8030 C   0  0  0  0  0  0  0  0  0  0  0  0
   31.2140   26.9160   48.6570 C   0  0  0  0  0  0  0  0  0  0  0  0
   30.0580   27.6600   49.1960 C   0  0  0  0  0  0  0  0  0  0  0  0
   28.7960   27.1390   48.9000 C   0  0  0  0  0  0  0  0  0  0  0  0
   27.8130   27.8980   49.4290 N   0  0  0  0  0  0  0  0  0  0  0  0
   28.4460   28.9160   50.0720 C   0  0  0  0  0  0  0  0  0  0  0  0
   29.7700   28.7540   49.9210 N   0  0  0  0  0  0  0  0  0  0  0  0
   35.6184   28.7071   50.1341 H   0  0  0  0  0  0  0  0  0  0  0  0
   33.6335   27.2642   49.7687 H   0  0  0  0  0  0  0  0  0  0  0  0
   37.9144   32.8720   50.4493 H   0  0  0  0  0  0  0  0  0  0  0  0
   39.3181   33.2294   48.3809 H   0  0  0  0  0  0  0  0  0  0  0  0
   38.7354   31.9720   46.2735 H   0  0  0  0  0  0  0  0  0  0  0  0
   32.1452   26.7904   46.8007 H   0  0  0  0  0  0  0  0  0  0  0  0
   30.5184   29.2190   47.5428 H   0  0  0  0  0  0  0  0  0  0  0  0
   31.6798   29.2400   46.1726 H   0  0  0  0  0  0  0  0  0  0  0  0
   30.3119   28.0758   46.1726 H   0  0  0  0  0  0  0  0  0  0  0  0
   30.8608   25.9326   48.3133 H   0  0  0  0  0  0  0  0  0  0  0  0
   31.9503   26.8454   49.4712 H   0  0  0  0  0  0  0  0  0  0  0  0
   28.6250   26.2261   48.3106 H   0  0  0  0  0  0  0  0  0  0  0  0
   27.9562   29.7330   50.6221 H   0  0  0  0  0  0  0  0  0  0  0  0
   30.4785   29.3905   50.3130 H   0  0  0  0  0  0  0  0  0  0  0  0
  1 10  1  0
  1  2  2  0
  3  2  1  0
  4  3  2  0
  5  4  1  0
  5  1  1  0
  7  6  2  0
  8  9  2  0
  8  7  1  0
  9 10  1  0
 10 11  2  0
 11  6  1  0
 12  4  1  0
 12 14  1  0
 13 12  1  0
 14 15  1  0
 15 19  1  0
 16 15  2  0
 16 17  1  0
 17 18  2  0
 19 18  1  0
  2 20  1  0
  3 21  1  0
  6 22  1  0
  7 23  1  0
  8 24  1  0
 12 25  1  6
 13 26  1  0
 13 27  1  0
 13 28  1  0
 14 29  1  0
 14 30  1  0
 16 31  1  0
 18 32  1  0
 19 33  1  0
M  ISO  8  20  14  21  14  22  14  23  14  24  14  25   8  26   8  27   8
M  ISO  6  28   8  29   8  30   8  31  14  32  14  33   9
M  END
>  <minimizedAffinity>  (1) 
-5.54785061

>  <minimizedRMSD>  (1) 
1.65491664

$$$$
