
     RDKit          3D

 36 38  0  0  1  0  0  0  0  0999 V2000
   31.6050   28.1470   46.9970 C   0  0  2  0  0  0  0  0  0  0  0  0
   35.0970   29.5840   48.5590 C   0  0  0  0  0  0  0  0  0  0  0  0
   34.6990   28.3750   49.1430 C   0  0  0  0  0  0  0  0  0  0  0  0
   33.5500   27.8200   48.6890 C   0  0  0  0  0  0  0  0  0  0  0  0
   32.8650   28.4540   47.7110 C   0  0  0  0  0  0  0  0  0  0  0  0
   33.8100   29.9310   47.3430 S   0  0  0  0  0  0  0  0  0  0  0  0
   38.0030   30.8890   50.4350 C   0  0  0  0  0  0  0  0  0  0  0  0
   38.5890   31.7600   49.4930 C   0  0  0  0  0  0  0  0  0  0  0  0
   37.9810   31.8900   48.2360 C   0  0  0  0  0  0  0  0  0  0  0  0
   36.8450   31.1730   47.9670 N   0  0  0  0  0  0  0  0  0  0  0  0
   36.3260   30.3590   48.8960 C   0  0  0  0  0  0  0  0  0  0  0  0
   36.8800   30.2090   50.1080 N   0  0  0  0  0  0  0  0  0  0  0  0
   31.2500   29.3190   46.1240 C   0  0  0  0  0  0  0  0  0  0  0  0
   30.5800   27.7430   47.9950 C   0  0  0  0  0  0  0  0  0  0  0  0
   29.1850   28.0510   47.6270 C   0  0  0  0  0  0  0  0  0  0  0  0
   28.5130   27.2840   46.6760 C   0  0  0  0  0  0  0  0  0  0  0  0
   27.1970   27.6270   46.3720 C   0  0  0  0  0  0  0  0  0  0  0  0
   26.5370   28.6820   46.9690 C   0  0  0  0  0  0  0  0  0  0  0  0
   27.2110   29.4360   47.9100 C   0  0  0  0  0  0  0  0  0  0  0  0
   28.5220   29.1190   48.2330 C   0  0  0  0  0  0  0  0  0  0  0  0
   31.6941   27.2916   46.3112 H   0  0  0  0  0  0  0  0  0  0  0  0
   35.2934   27.8971   49.9356 H   0  0  0  0  0  0  0  0  0  0  0  0
   33.1814   26.8720   49.1078 H   0  0  0  0  0  0  0  0  0  0  0  0
   38.4562   30.7634   51.4294 H   0  0  0  0  0  0  0  0  0  0  0  0
   39.5011   32.3238   49.7384 H   0  0  0  0  0  0  0  0  0  0  0  0
   38.4106   32.5590   47.4758 H   0  0  0  0  0  0  0  0  0  0  0  0
   30.9889   30.1809   46.7556 H   0  0  0  0  0  0  0  0  0  0  0  0
   32.1103   29.5770   45.4889 H   0  0  0  0  0  0  0  0  0  0  0  0
   30.3911   29.0563   45.4889 H   0  0  0  0  0  0  0  0  0  0  0  0
   30.6601   26.6560   48.1432 H   0  0  0  0  0  0  0  0  0  0  0  0
   30.7914   28.3287   48.9018 H   0  0  0  0  0  0  0  0  0  0  0  0
   29.0064   26.4345   46.1811 H   0  0  0  0  0  0  0  0  0  0  0  0
   26.6592   27.0292   45.6214 H   0  0  0  0  0  0  0  0  0  0  0  0
   25.4964   28.9174   46.7012 H   0  0  0  0  0  0  0  0  0  0  0  0
   26.7104   30.2837   48.4007 H   0  0  0  0  0  0  0  0  0  0  0  0
   29.0514   29.7234   48.9842 H   0  0  0  0  0  0  0  0  0  0  0  0
  1  5  1  0
  1 14  1  0
  2 11  1  0
  2  3  2  0
  4  3  1  0
  5  4  2  0
  6  5  1  0
  6  2  1  0
  8  7  2  0
  9  8  1  0
 10  9  2  0
 10 11  1  0
 11 12  2  0
 12  7  1  0
 13  1  1  0
 15 14  1  0
 15 20  1  0
 16 15  2  0
 17 16  1  0
 17 18  2  0
 18 19  1  0
 19 20  2  0
  1 21  1  6
  3 22  1  0
  4 23  1  0
  7 24  1  0
  8 25  1  0
  9 26  1  0
 13 27  1  0
 13 28  1  0
 13 29  1  0
 14 30  1  0
 14 31  1  0
 16 32  1  0
 17 33  1  0
 18 34  1  0
 19 35  1  0
 20 36  1  0
M  ISO  8  21   8  22  14  23  14  24  14  25  14  26  14  27   8  28   8
M  ISO  8  29   8  30   8  31   8  32  14  33  14  34  14  35  14  36  14
M  END
>  <minimizedAffinity>  (1) 
-5.20212746

>  <minimizedRMSD>  (1) 
1.62968361

$$$$
