
     RDKit          3D

 35 37  0  0  1  0  0  0  0  0999 V2000
   35.1240   29.5780   48.5050 C   0  0  0  0  0  0  0  0  0  0  0  0
   34.7290   28.3520   49.0540 C   0  0  0  0  0  0  0  0  0  0  0  0
   33.5700   27.8200   48.6080 C   0  0  0  0  0  0  0  0  0  0  0  0
   32.8690   28.4690   47.6860 C   0  0  0  0  0  0  0  0  0  0  0  0
   33.8060   29.9740   47.3250 S   0  0  0  0  0  0  0  0  0  0  0  0
   38.0080   30.9170   50.3670 C   0  0  0  0  0  0  0  0  0  0  0  0
   38.5970   31.7870   49.3960 C   0  0  0  0  0  0  0  0  0  0  0  0
   38.0000   31.8970   48.1350 C   0  0  0  0  0  0  0  0  0  0  0  0
   36.8860   31.1570   47.9230 N   0  0  0  0  0  0  0  0  0  0  0  0
   36.3540   30.3550   48.8340 C   0  0  0  0  0  0  0  0  0  0  0  0
   36.8820   30.2080   50.0620 N   0  0  0  0  0  0  0  0  0  0  0  0
   31.5940   28.1270   47.0120 C   0  0  2  0  0  0  0  0  0  0  0  0
   31.1570   29.2710   46.1900 C   0  0  0  0  0  0  0  0  0  0  0  0
   30.5910   27.6710   48.0610 C   0  0  0  0  0  0  0  0  0  0  0  0
   29.2120   28.0720   47.6940 C   0  0  0  0  0  0  0  0  0  0  0  0
   28.5280   29.1300   48.2480 C   0  0  0  0  0  0  0  0  0  0  0  0
   27.2480   29.3380   47.7650 C   0  0  0  0  0  0  0  0  0  0  0  0
   26.6940   28.5340   46.7900 C   0  0  0  0  0  0  0  0  0  0  0  0
   27.4150   27.4890   46.2660 C   0  0  0  0  0  0  0  0  0  0  0  0
   28.6590   27.2790   46.7290 N   0  0  0  0  0  0  0  0  0  0  0  0
   35.3370   27.8432   49.8166 H   0  0  0  0  0  0  0  0  0  0  0  0
   33.2108   26.8590   49.0047 H   0  0  0  0  0  0  0  0  0  0  0  0
   38.4642   30.8190   51.3631 H   0  0  0  0  0  0  0  0  0  0  0  0
   39.5045   32.3602   49.6366 H   0  0  0  0  0  0  0  0  0  0  0  0
   38.4151   32.5520   47.3549 H   0  0  0  0  0  0  0  0  0  0  0  0
   31.7076   27.2854   46.3129 H   0  0  0  0  0  0  0  0  0  0  0  0
   30.8421   30.0953   46.8467 H   0  0  0  0  0  0  0  0  0  0  0  0
   31.9905   29.6059   45.5551 H   0  0  0  0  0  0  0  0  0  0  0  0
   30.3125   28.9649   45.5551 H   0  0  0  0  0  0  0  0  0  0  0  0
   30.6351   26.5753   48.1472 H   0  0  0  0  0  0  0  0  0  0  0  0
   30.8486   28.1461   49.0191 H   0  0  0  0  0  0  0  0  0  0  0  0
   28.9708   29.7698   49.0256 H   0  0  0  0  0  0  0  0  0  0  0  0
   26.6538   30.1700   48.1709 H   0  0  0  0  0  0  0  0  0  0  0  0
   25.6727   28.7304   46.4316 H   0  0  0  0  0  0  0  0  0  0  0  0
   26.9855   26.8410   45.4878 H   0  0  0  0  0  0  0  0  0  0  0  0
  1 10  1  0
  1  2  2  0
  3  2  1  0
  4  3  2  0
  5  4  1  0
  5  1  1  0
  7  6  2  0
  8  7  1  0
  9  8  2  0
  9 10  1  0
 10 11  2  0
 11  6  1  0
 12  4  1  0
 12 14  1  0
 13 12  1  0
 15 14  1  0
 15 16  2  0
 17 16  1  0
 18 17  2  0
 19 20  2  0
 19 18  1  0
 20 15  1  0
  2 21  1  0
  3 22  1  0
  6 23  1  0
  7 24  1  0
  8 25  1  0
 12 26  1  6
 13 27  1  0
 13 28  1  0
 13 29  1  0
 14 30  1  0
 14 31  1  0
 16 32  1  0
 17 33  1  0
 18 34  1  0
 19 35  1  0
M  ISO  8  21  14  22  14  23  14  24  14  25  14  26   8  27   8  28   8
M  ISO  7  29   8  30   8  31   8  32  14  33  14  34  14  35  14
M  END
>  <minimizedAffinity>  (1) 
-5.10075378

>  <minimizedRMSD>  (1) 
1.55452585

$$$$
