
     RDKit          3D

 33 35  0  0  1  0  0  0  0  0999 V2000
   34.9310   29.2970   48.5850 C   0  0  0  0  0  0  0  0  0  0  0  0
   34.4550   28.0240   49.0000 C   0  0  0  0  0  0  0  0  0  0  0  0
   33.3760   27.5450   48.3510 C   0  0  0  0  0  0  0  0  0  0  0  0
   32.8200   28.2630   47.3800 C   0  0  0  0  0  0  0  0  0  0  0  0
   33.8150   29.7800   47.2700 S   0  0  0  0  0  0  0  0  0  0  0  0
   37.5400   30.4160   50.9530 C   0  0  0  0  0  0  0  0  0  0  0  0
   38.3300   31.2470   50.1290 C   0  0  0  0  0  0  0  0  0  0  0  0
   37.9570   31.4170   48.7870 C   0  0  0  0  0  0  0  0  0  0  0  0
   36.8400   30.7690   48.3330 N   0  0  0  0  0  0  0  0  0  0  0  0
   36.1220   29.9870   49.1620 C   0  0  0  0  0  0  0  0  0  0  0  0
   36.4450   29.7990   50.4510 N   0  0  0  0  0  0  0  0  0  0  0  0
   31.6660   27.9930   46.5070 C   0  0  2  0  0  0  0  0  0  0  0  0
   31.0660   29.3070   46.0970 C   0  0  0  0  0  0  0  0  0  0  0  0
   30.7020   27.0750   47.1890 C   0  0  0  0  0  0  0  0  0  0  0  0
   29.8550   27.6840   48.1690 N   0  0  0  0  0  0  0  0  0  0  0  0
   29.9280   27.1780   49.4420 C   0  0  0  0  0  0  0  0  0  0  0  0
   29.0900   27.8350   50.2960 C   0  0  0  0  0  0  0  0  0  0  0  0
   28.4760   28.7810   49.5260 N   0  0  0  0  0  0  0  0  0  0  0  0
   28.9480   28.6640   48.2920 C   0  0  0  0  0  0  0  0  0  0  0  0
   34.9420   27.4594   49.8087 H   0  0  0  0  0  0  0  0  0  0  0  0
   32.9572   26.5649   48.6231 H   0  0  0  0  0  0  0  0  0  0  0  0
   37.8158   30.2694   52.0077 H   0  0  0  0  0  0  0  0  0  0  0  0
   39.2208   31.7515   50.5314 H   0  0  0  0  0  0  0  0  0  0  0  0
   38.5486   32.0563   48.1152 H   0  0  0  0  0  0  0  0  0  0  0  0
   31.9732   27.4678   45.5906 H   0  0  0  0  0  0  0  0  0  0  0  0
   30.8019   29.8855   46.9946 H   0  0  0  0  0  0  0  0  0  0  0  0
   31.7953   29.8721   45.4980 H   0  0  0  0  0  0  0  0  0  0  0  0
   30.1613   29.1260   45.4980 H   0  0  0  0  0  0  0  0  0  0  0  0
   30.0587   26.6263   46.4177 H   0  0  0  0  0  0  0  0  0  0  0  0
   31.3173   26.3449   47.7353 H   0  0  0  0  0  0  0  0  0  0  0  0
   30.5820   26.3446   49.7383 H   0  0  0  0  0  0  0  0  0  0  0  0
   28.9418   27.6443   51.3691 H   0  0  0  0  0  0  0  0  0  0  0  0
   28.6287   29.3042   47.4565 H   0  0  0  0  0  0  0  0  0  0  0  0
  1  2  2  0
  1 10  1  0
  3  2  1  0
  4  3  2  0
  5  4  1  0
  5  1  1  0
  7  6  2  0
  8  7  1  0
  9  8  2  0
  9 10  1  0
 10 11  2  0
 11  6  1  0
 12 14  1  0
 12  4  1  0
 13 12  1  0
 14 15  1  0
 15 19  1  0
 15 16  1  0
 16 17  2  0
 18 17  1  0
 19 18  2  0
  2 20  1  0
  3 21  1  0
  6 22  1  0
  7 23  1  0
  8 24  1  0
 12 25  1  6
 13 26  1  0
 13 27  1  0
 13 28  1  0
 14 29  1  0
 14 30  1  0
 16 31  1  0
 17 32  1  0
 19 33  1  0
M  ISO  8  20  14  21  14  22  14  23  14  24  14  25   8  26   8  27   8
M  ISO  6  28   8  29   8  30   8  31  14  32  14  33  14
M  END
>  <minimizedAffinity>  (1) 
-5.08581734

>  <minimizedRMSD>  (1) 
0.39106527

$$$$
