
     RDKit          3D

 31 33  0  0  1  0  0  0  0  0999 V2000
   35.4590   29.9900   48.2640 C   0  0  0  0  0  0  0  0  0  0  0  0
   35.2920   28.8430   49.0470 C   0  0  0  0  0  0  0  0  0  0  0  0
   34.1690   28.1110   48.8480 C   0  0  0  0  0  0  0  0  0  0  0  0
   33.2940   28.5110   47.9320 C   0  0  0  0  0  0  0  0  0  0  0  0
   33.9940   30.0210   47.2320 S   0  0  0  0  0  0  0  0  0  0  0  0
   38.0150   32.3270   49.5610 C   0  0  0  0  0  0  0  0  0  0  0  0
   38.7450   32.6250   48.3910 C   0  0  0  0  0  0  0  0  0  0  0  0
   38.3600   32.0340   47.1780 C   0  0  0  0  0  0  0  0  0  0  0  0
   37.2840   31.1890   47.1850 N   0  0  0  0  0  0  0  0  0  0  0  0
   36.6190   30.9310   48.3100 C   0  0  0  0  0  0  0  0  0  0  0  0
   36.9620   31.4800   49.4870 N   0  0  0  0  0  0  0  0  0  0  0  0
   32.0060   27.9410   47.4800 C   0  0  2  0  0  0  0  0  0  0  0  0
   31.3730   28.8540   46.5080 C   0  0  0  0  0  0  0  0  0  0  0  0
   31.1520   27.6340   48.7020 C   0  0  0  0  0  0  0  0  0  0  0  0
   29.7730   27.3630   48.2220 C   0  0  0  0  0  0  0  0  0  0  0  0
   29.4270   26.3800   47.3850 N   0  0  0  0  0  0  0  0  0  0  0  0
   28.1490   26.4310   47.1770 O   0  0  0  0  0  0  0  0  0  0  0  0
   27.6430   27.4170   47.8510 C   0  0  0  0  0  0  0  0  0  0  0  0
   28.6380   28.0240   48.5200 N   0  0  0  0  0  0  0  0  0  0  0  0
   36.0425   28.5469   49.7947 H   0  0  0  0  0  0  0  0  0  0  0  0
   33.9849   27.1997   49.4359 H   0  0  0  0  0  0  0  0  0  0  0  0
   38.2987   32.7783   50.5232 H   0  0  0  0  0  0  0  0  0  0  0  0
   39.6040   33.3111   48.4292 H   0  0  0  0  0  0  0  0  0  0  0  0
   38.9079   32.2442   46.2476 H   0  0  0  0  0  0  0  0  0  0  0  0
   32.1473   26.9896   46.9463 H   0  0  0  0  0  0  0  0  0  0  0  0
   30.8267   29.6420   47.0471 H   0  0  0  0  0  0  0  0  0  0  0  0
   32.1484   29.3119   45.8763 H   0  0  0  0  0  0  0  0  0  0  0  0
   30.6722   28.2884   45.8763 H   0  0  0  0  0  0  0  0  0  0  0  0
   31.5482   26.7516   49.2258 H   0  0  0  0  0  0  0  0  0  0  0  0
   31.1599   28.4804   49.4045 H   0  0  0  0  0  0  0  0  0  0  0  0
   26.5820   27.7065   47.8715 H   0  0  0  0  0  0  0  0  0  0  0  0
  1 10  1  0
  1  2  2  0
  3  2  1  0
  4  3  2  0
  5  4  1  0
  5  1  1  0
  7  6  2  0
  8  9  2  0
  8  7  1  0
  9 10  1  0
 10 11  2  0
 11  6  1  0
 12  4  1  0
 12 14  1  0
 13 12  1  0
 15 19  1  0
 15 14  1  0
 16 15  2  0
 17 16  1  0
 17 18  1  0
 18 19  2  0
  2 20  1  0
  3 21  1  0
  6 22  1  0
  7 23  1  0
  8 24  1  0
 12 25  1  6
 13 26  1  0
 13 27  1  0
 13 28  1  0
 14 29  1  0
 14 30  1  0
 18 31  1  0
M  ISO  8  20  14  21  14  22  14  23  14  24  14  25   8  26   8  27   8
M  ISO  4  28   8  29   8  30   8  31  14
M  END
>  <minimizedAffinity>  (1) 
-5.01258898

>  <minimizedRMSD>  (1) 
1.83678353

$$$$
