
     RDKit          3D

 33 35  0  0  1  0  0  0  0  0999 V2000
   35.4010   29.7060   48.5270 C   0  0  0  0  0  0  0  0  0  0  0  0
   35.0670   28.5300   49.2080 C   0  0  0  0  0  0  0  0  0  0  0  0
   33.9250   27.9030   48.8140 C   0  0  0  0  0  0  0  0  0  0  0  0
   33.2030   28.4290   47.8260 C   0  0  0  0  0  0  0  0  0  0  0  0
   34.0700   29.9160   47.3150 S   0  0  0  0  0  0  0  0  0  0  0  0
   38.2770   31.3020   50.2190 C   0  0  0  0  0  0  0  0  0  0  0  0
   38.7840   32.1370   49.1720 C   0  0  0  0  0  0  0  0  0  0  0  0
   38.1380   32.1330   47.9270 C   0  0  0  0  0  0  0  0  0  0  0  0
   37.0600   31.3240   47.8070 N   0  0  0  0  0  0  0  0  0  0  0  0
   36.5960   30.5540   48.7820 C   0  0  0  0  0  0  0  0  0  0  0  0
   37.1810   30.5220   49.9940 N   0  0  0  0  0  0  0  0  0  0  0  0
   31.9280   28.0060   47.1740 C   0  0  2  0  0  0  0  0  0  0  0  0
   31.4260   29.1410   46.3290 C   0  0  0  0  0  0  0  0  0  0  0  0
   30.9820   27.5480   48.2410 C   0  0  0  0  0  0  0  0  0  0  0  0
   29.7600   27.0060   47.5790 C   0  0  0  0  0  0  0  0  0  0  0  0
   29.8180   25.9490   46.6830 C   0  0  0  0  0  0  0  0  0  0  0  0
   28.4910   25.7670   46.3130 C   0  0  0  0  0  0  0  0  0  0  0  0
   27.7520   26.6750   46.9700 N   0  0  0  0  0  0  0  0  0  0  0  0
   28.4980   27.4370   47.7420 N   0  0  0  0  0  0  0  0  0  0  0  0
   35.6947   28.1330   50.0194 H   0  0  0  0  0  0  0  0  0  0  0  0
   33.6023   26.9733   49.3055 H   0  0  0  0  0  0  0  0  0  0  0  0
   38.7702   31.2897   51.2022 H   0  0  0  0  0  0  0  0  0  0  0  0
   39.6663   32.7717   49.3415 H   0  0  0  0  0  0  0  0  0  0  0  0
   38.4897   32.7556   47.0911 H   0  0  0  0  0  0  0  0  0  0  0  0
   32.0584   27.1528   46.4920 H   0  0  0  0  0  0  0  0  0  0  0  0
   31.0673   29.9520   46.9799 H   0  0  0  0  0  0  0  0  0  0  0  0
   32.2428   29.5146   45.6940 H   0  0  0  0  0  0  0  0  0  0  0  0
   30.6001   28.7880   45.6940 H   0  0  0  0  0  0  0  0  0  0  0  0
   31.4566   26.7624   48.8473 H   0  0  0  0  0  0  0  0  0  0  0  0
   30.7165   28.3881   48.8996 H   0  0  0  0  0  0  0  0  0  0  0  0
   30.7026   25.3888   46.3459 H   0  0  0  0  0  0  0  0  0  0  0  0
   28.1131   25.0128   45.6071 H   0  0  0  0  0  0  0  0  0  0  0  0
   26.7297   26.7643   46.8812 H   0  0  0  0  0  0  0  0  0  0  0  0
  1 10  1  0
  1  2  2  0
  3  2  1  0
  4  3  2  0
  5  4  1  0
  5  1  1  0
  7  6  2  0
  8  7  1  0
  9  8  2  0
  9 10  1  0
 10 11  2  0
 11  6  1  0
 12  4  1  0
 12 14  1  0
 13 12  1  0
 15 19  2  0
 15 14  1  0
 16 15  1  0
 17 16  2  0
 17 18  1  0
 18 19  1  0
  2 20  1  0
  3 21  1  0
  6 22  1  0
  7 23  1  0
  8 24  1  0
 12 25  1  6
 13 26  1  0
 13 27  1  0
 13 28  1  0
 14 29  1  0
 14 30  1  0
 16 31  1  0
 17 32  1  0
 18 33  1  0
M  ISO  8  20  14  21  14  22  14  23  14  24  14  25   8  26   8  27   8
M  ISO  6  28   8  29   8  30   8  31  14  32  14  33   9
M  END
>  <minimizedAffinity>  (1) 
-4.68620777

>  <minimizedRMSD>  (1) 
1.28413475

$$$$
