
     RDKit          3D

 33 35  0  0  1  0  0  0  0  0999 V2000
   35.0130   29.5110   48.5600 C   0  0  0  0  0  0  0  0  0  0  0  0
   34.5620   28.2700   49.0210 C   0  0  0  0  0  0  0  0  0  0  0  0
   33.4310   27.7790   48.4730 C   0  0  0  0  0  0  0  0  0  0  0  0
   32.8060   28.4930   47.5310 C   0  0  0  0  0  0  0  0  0  0  0  0
   33.7860   29.9800   47.3170 S   0  0  0  0  0  0  0  0  0  0  0  0
   37.8220   30.6430   50.6760 C   0  0  0  0  0  0  0  0  0  0  0  0
   38.4740   31.5620   49.8260 C   0  0  0  0  0  0  0  0  0  0  0  0
   37.9440   31.7860   48.5450 C   0  0  0  0  0  0  0  0  0  0  0  0
   36.8150   31.0990   48.1760 N   0  0  0  0  0  0  0  0  0  0  0  0
   36.2310   30.2420   49.0060 C   0  0  0  0  0  0  0  0  0  0  0  0
   36.7100   30.0050   50.2360 N   0  0  0  0  0  0  0  0  0  0  0  0
   31.5720   28.2670   46.7370 C   0  0  2  0  0  0  0  0  0  0  0  0
   31.2490   29.5180   45.9680 C   0  0  0  0  0  0  0  0  0  0  0  0
   30.4940   27.7830   47.6510 C   0  0  0  0  0  0  0  0  0  0  0  0
   29.2570   27.5750   46.9200 N   0  0  0  0  0  0  0  0  0  0  0  0
   28.1570   28.2070   47.3050 N   0  0  0  0  0  0  0  0  0  0  0  0
   27.1220   27.8880   46.5080 C   0  0  0  0  0  0  0  0  0  0  0  0
   27.6040   27.0070   45.5710 C   0  0  0  0  0  0  0  0  0  0  0  0
   28.9320   26.8340   45.8550 C   0  0  0  0  0  0  0  0  0  0  0  0
   35.1076   27.7163   49.7993 H   0  0  0  0  0  0  0  0  0  0  0  0
   33.0296   26.8071   48.7960 H   0  0  0  0  0  0  0  0  0  0  0  0
   38.2124   30.4465   51.6854 H   0  0  0  0  0  0  0  0  0  0  0  0
   39.3784   32.0917   50.1600 H   0  0  0  0  0  0  0  0  0  0  0  0
   38.4226   32.4954   47.8538 H   0  0  0  0  0  0  0  0  0  0  0  0
   31.6976   27.4794   45.9794 H   0  0  0  0  0  0  0  0  0  0  0  0
   31.0376   30.3367   46.6717 H   0  0  0  0  0  0  0  0  0  0  0  0
   32.1062   29.7908   45.3349 H   0  0  0  0  0  0  0  0  0  0  0  0
   30.3669   29.3418   45.3349 H   0  0  0  0  0  0  0  0  0  0  0  0
   30.8076   26.8328   48.1080 H   0  0  0  0  0  0  0  0  0  0  0  0
   30.3222   28.5419   48.4285 H   0  0  0  0  0  0  0  0  0  0  0  0
   26.0902   28.2602   46.5904 H   0  0  0  0  0  0  0  0  0  0  0  0
   27.0365   26.5349   44.7555 H   0  0  0  0  0  0  0  0  0  0  0  0
   29.6233   26.1870   45.2951 H   0  0  0  0  0  0  0  0  0  0  0  0
  1 10  1  0
  1  2  2  0
  3  2  1  0
  4  3  2  0
  5  4  1  0
  5  1  1  0
  7  6  2  0
  8  7  1  0
  9  8  2  0
  9 10  1  0
 10 11  2  0
 11  6  1  0
 12  4  1  0
 12 14  1  0
 13 12  1  0
 15 16  1  0
 15 14  1  0
 17 16  2  0
 18 19  2  0
 18 17  1  0
 19 15  1  0
  2 20  1  0
  3 21  1  0
  6 22  1  0
  7 23  1  0
  8 24  1  0
 12 25  1  6
 13 26  1  0
 13 27  1  0
 13 28  1  0
 14 29  1  0
 14 30  1  0
 17 31  1  0
 18 32  1  0
 19 33  1  0
M  ISO  8  20  14  21  14  22  14  23  14  24  14  25   8  26   8  27   8
M  ISO  6  28   8  29   8  30   8  31  14  32  14  33  14
M  END
>  <minimizedAffinity>  (1) 
-4.59873724

>  <minimizedRMSD>  (1) 
0.790056288

$$$$
