
     RDKit          3D

 27 28  0  0  1  0  0  0  0  0999 V2000
   34.9530   29.2510   48.6300 C   0  0  0  0  0  0  0  0  0  0  0  0
   34.3950   28.0210   49.0460 C   0  0  0  0  0  0  0  0  0  0  0  0
   33.3220   27.5840   48.3470 C   0  0  0  0  0  0  0  0  0  0  0  0
   32.8550   28.3080   47.3330 C   0  0  0  0  0  0  0  0  0  0  0  0
   33.9230   29.7440   47.2540 S   0  0  0  0  0  0  0  0  0  0  0  0
   37.4680   30.3460   51.1110 C   0  0  0  0  0  0  0  0  0  0  0  0
   38.3510   31.0950   50.3050 C   0  0  0  0  0  0  0  0  0  0  0  0
   38.0730   31.2220   48.9330 C   0  0  0  0  0  0  0  0  0  0  0  0
   36.9550   30.6050   48.4630 N   0  0  0  0  0  0  0  0  0  0  0  0
   36.1380   29.9040   49.2380 C   0  0  0  0  0  0  0  0  0  0  0  0
   36.3810   29.7700   50.5490 N   0  0  0  0  0  0  0  0  0  0  0  0
   31.7350   28.1270   46.3810 C   0  0  2  0  0  0  0  0  0  0  0  0
   31.1530   29.4700   46.0480 C   0  0  0  0  0  0  0  0  0  0  0  0
   30.7770   27.1320   46.9510 C   0  0  0  0  0  0  0  0  0  0  0  0
   29.3710   26.8790   45.8280 S   0  0  0  0  0  0  0  0  0  0  0  0
   34.8096   27.4510   49.8905 H   0  0  0  0  0  0  0  0  0  0  0  0
   32.8376   26.6338   48.6160 H   0  0  0  0  0  0  0  0  0  0  0  0
   37.6620   30.2314   52.1877 H   0  0  0  0  0  0  0  0  0  0  0  0
   39.2410   31.5710   50.7424 H   0  0  0  0  0  0  0  0  0  0  0  0
   38.7325   31.7969   48.2663 H   0  0  0  0  0  0  0  0  0  0  0  0
   32.0619   27.7061   45.4187 H   0  0  0  0  0  0  0  0  0  0  0  0
   30.9194   30.0091   46.9779 H   0  0  0  0  0  0  0  0  0  0  0  0
   31.8807   30.0496   45.4610 H   0  0  0  0  0  0  0  0  0  0  0  0
   30.2325   29.3354   45.4610 H   0  0  0  0  0  0  0  0  0  0  0  0
   31.2971   26.1742   47.1001 H   0  0  0  0  0  0  0  0  0  0  0  0
   30.3991   27.5142   47.9108 H   0  0  0  0  0  0  0  0  0  0  0  0
   28.2320   26.6741   46.5612 H   0  0  0  0  0  0  0  0  0  0  0  0
  1  2  2  0
  1 10  1  0
  3  2  1  0
  4  3  2  0
  5  4  1  0
  5  1  1  0
  7  6  2  0
  8  7  1  0
  9  8  2  0
  9 10  1  0
 10 11  2  0
 11  6  1  0
 12 14  1  0
 12  4  1  0
 13 12  1  0
 15 14  1  0
  2 16  1  0
  3 17  1  0
  6 18  1  0
  7 19  1  0
  8 20  1  0
 12 21  1  6
 13 22  1  0
 13 23  1  0
 13 24  1  0
 14 25  1  0
 14 26  1  0
 15 27  1  0
M  ISO  8  16  14  17  14  18  14  19  14  20  14  21   8  22   8  23   8
M  ISO  4  24   8  25   8  26   8  27  11
M  END
>  <minimizedAffinity>  (1) 
-4.08195925

>  <minimizedRMSD>  (1) 
0.0761298314

$$$$
