
     RDKit          3D

 27 28  0  0  1  0  0  0  0  0999 V2000
   34.9330   29.3050   48.6590 C   0  0  0  0  0  0  0  0  0  0  0  0
   34.3200   28.1340   49.1430 C   0  0  0  0  0  0  0  0  0  0  0  0
   33.2020   27.7260   48.4990 C   0  0  0  0  0  0  0  0  0  0  0  0
   32.7500   28.4300   47.4680 C   0  0  0  0  0  0  0  0  0  0  0  0
   33.8980   29.8280   47.2630 S   0  0  0  0  0  0  0  0  0  0  0  0
   37.5180   30.4650   51.0050 C   0  0  0  0  0  0  0  0  0  0  0  0
   38.3900   31.1950   50.1680 C   0  0  0  0  0  0  0  0  0  0  0  0
   38.0780   31.2700   48.8240 C   0  0  0  0  0  0  0  0  0  0  0  0
   36.9570   30.6420   48.3850 N   0  0  0  0  0  0  0  0  0  0  0  0
   36.1600   29.9670   49.1970 C   0  0  0  0  0  0  0  0  0  0  0  0
   36.3910   29.8390   50.5460 N   0  0  0  0  0  0  0  0  0  0  0  0
   31.5730   28.2320   46.5880 C   0  0  2  0  0  0  0  0  0  0  0  0
   31.2410   29.5040   45.9130 C   0  0  0  0  0  0  0  0  0  0  0  0
   30.4500   27.6470   47.3900 C   0  0  0  0  0  0  0  0  0  0  0  0
   30.1820   26.3470   47.0890 O   0  0  0  0  0  0  0  0  0  0  0  0
   34.7287   27.5792   50.0004 H   0  0  0  0  0  0  0  0  0  0  0  0
   32.6724   26.8193   48.8267 H   0  0  0  0  0  0  0  0  0  0  0  0
   37.7559   30.3963   52.0768 H   0  0  0  0  0  0  0  0  0  0  0  0
   39.2870   31.6871   50.5721 H   0  0  0  0  0  0  0  0  0  0  0  0
   38.7223   31.8252   48.1264 H   0  0  0  0  0  0  0  0  0  0  0  0
   31.7882   27.5107   45.7858 H   0  0  0  0  0  0  0  0  0  0  0  0
   31.0390   30.2780   46.6681 H   0  0  0  0  0  0  0  0  0  0  0  0
   32.0875   29.8173   45.2842 H   0  0  0  0  0  0  0  0  0  0  0  0
   30.3494   29.3636   45.2842 H   0  0  0  0  0  0  0  0  0  0  0  0
   30.7152   27.7091   48.4557 H   0  0  0  0  0  0  0  0  0  0  0  0
   29.5465   28.2259   47.1479 H   0  0  0  0  0  0  0  0  0  0  0  0
   30.0753   25.8296   47.9263 H   0  0  0  0  0  0  0  0  0  0  0  0
  1  2  2  0
  1 10  1  0
  3  2  1  0
  4  3  2  0
  5  4  1  0
  5  1  1  0
  7  6  2  0
  8  7  1  0
  9  8  2  0
  9 10  1  0
 10 11  2  0
 11  6  1  0
 12 14  1  0
 12  4  1  0
 13 12  1  0
 15 14  1  0
  2 16  1  0
  3 17  1  0
  6 18  1  0
  7 19  1  0
  8 20  1  0
 12 21  1  6
 13 22  1  0
 13 23  1  0
 13 24  1  0
 14 25  1  0
 14 26  1  0
 15 27  1  0
M  ISO  8  16  14  17  14  18  14  19  14  20  14  21   8  22   8  23   8
M  ISO  4  24   8  25   8  26   8  27   3
M  END
>  <minimizedAffinity>  (1) 
-4.16896152

>  <minimizedRMSD>  (1) 
0.291322052

$$$$
