
     RDKit          3D

 39 41  0  0  1  0  0  0  0  0999 V2000
   35.7480   30.0890   48.4340 C   0  0  0  0  0  0  0  0  0  0  0  0
   35.6250   28.9620   49.2490 C   0  0  0  0  0  0  0  0  0  0  0  0
   34.5360   28.1870   49.0490 C   0  0  0  0  0  0  0  0  0  0  0  0
   33.6610   28.5210   48.1190 C   0  0  0  0  0  0  0  0  0  0  0  0
   34.2870   30.0570   47.3590 S   0  0  0  0  0  0  0  0  0  0  0  0
   37.9260   32.8430   49.5060 C   0  0  0  0  0  0  0  0  0  0  0  0
   38.8400   32.9670   48.4500 C   0  0  0  0  0  0  0  0  0  0  0  0
   38.6940   32.1070   47.3930 C   0  0  0  0  0  0  0  0  0  0  0  0
   37.6880   31.2010   47.4330 N   0  0  0  0  0  0  0  0  0  0  0  0
   36.8490   31.1130   48.4380 C   0  0  0  0  0  0  0  0  0  0  0  0
   36.9050   31.9300   49.5550 N   0  0  0  0  0  0  0  0  0  0  0  0
   32.4120   27.8770   47.6700 C   0  0  2  0  0  0  0  0  0  0  0  0
   31.7380   28.7190   46.6820 C   0  0  0  0  0  0  0  0  0  0  0  0
   31.5850   27.5270   48.8840 C   0  0  0  0  0  0  0  0  0  0  0  0
   30.2820   27.8720   48.7810 O   0  0  0  0  0  0  0  0  0  0  0  0
   28.8920   29.2560   50.0810 N   0  0  0  0  0  0  0  0  0  0  0  0
   27.5480   28.7570   50.2750 C   0  0  0  0  0  0  0  0  0  0  0  0
   27.7670   27.5780   51.2020 C   0  0  0  0  0  0  0  0  0  0  0  0
   28.9970   26.9360   50.5960 C   0  0  0  0  0  0  0  0  0  0  0  0
   29.7560   28.1020   50.0500 C   0  0  1  0  0  0  0  0  0  0  0  0
   36.3760   28.7174   50.0146 H   0  0  0  0  0  0  0  0  0  0  0  0
   34.3799   27.2839   49.6573 H   0  0  0  0  0  0  0  0  0  0  0  0
   38.0366   33.5294   50.3584 H   0  0  0  0  0  0  0  0  0  0  0  0
   39.6398   33.7220   48.4691 H   0  0  0  0  0  0  0  0  0  0  0  0
   39.3777   32.1515   46.5324 H   0  0  0  0  0  0  0  0  0  0  0  0
   32.6083   26.9305   47.1450 H   0  0  0  0  0  0  0  0  0  0  0  0
   31.1313   29.4770   47.1991 H   0  0  0  0  0  0  0  0  0  0  0  0
   32.4891   29.2179   46.0520 H   0  0  0  0  0  0  0  0  0  0  0  0
   31.0868   28.0954   46.0520 H   0  0  0  0  0  0  0  0  0  0  0  0
   31.6434   26.4397   49.0403 H   0  0  0  0  0  0  0  0  0  0  0  0
   31.9996   28.0996   49.7268 H   0  0  0  0  0  0  0  0  0  0  0  0
   28.9552   29.7720   49.1918 H   0  0  0  0  0  0  0  0  0  0  0  0
   26.9054   29.5171   50.7434 H   0  0  0  0  0  0  0  0  0  0  0  0
   27.0398   28.4890   49.3369 H   0  0  0  0  0  0  0  0  0  0  0  0
   27.9545   27.9088   52.2342 H   0  0  0  0  0  0  0  0  0  0  0  0
   26.9020   26.9027   51.2778 H   0  0  0  0  0  0  0  0  0  0  0  0
   29.5836   26.4068   51.3614 H   0  0  0  0  0  0  0  0  0  0  0  0
   28.7581   26.1808   49.8328 H   0  0  0  0  0  0  0  0  0  0  0  0
   30.6378   28.2773   50.6838 H   0  0  0  0  0  0  0  0  0  0  0  0
  1 10  1  0
  1  2  2  0
  3  2  1  0
  4  3  2  0
  5  4  1  0
  5  1  1  0
  6 11  2  0
  7  6  1  0
  8  9  1  0
  8  7  2  0
  9 10  2  0
 10 11  1  0
 12  4  1  0
 12 14  1  0
 13 12  1  0
 15 14  1  0
 16 17  1  0
 17 18  1  0
 19 18  1  0
 20 15  1  0
 20 16  1  0
 20 19  1  0
  2 21  1  0
  3 22  1  0
  6 23  1  0
  7 24  1  0
  8 25  1  0
 12 26  1  6
 13 27  1  0
 13 28  1  0
 13 29  1  0
 14 30  1  0
 14 31  1  0
 16 32  1  0
 17 33  1  0
 17 34  1  0
 18 35  1  0
 18 36  1  0
 19 37  1  0
 19 38  1  0
 20 39  1  1
M  ISO  8  21  14  22  14  23  14  24  14  25  14  26   8  27   8  28   8
M  ISO  8  29   8  30   8  31   8  32   5  33  13  34  13  35  13  36  13
M  ISO  3  37  13  38  13  39  13
M  END
>  <minimizedAffinity>  (1) 
-6.19833422

>  <minimizedRMSD>  (1) 
3.52340436

$$$$
