
     RDKit          3D

 13 13  0  0  0  0  0  0  0  0999 V2000
   37.5040   30.2380   51.1440 C   0  0  0  0  0  0  0  0  0  0  0  0
   38.2050   31.1240   50.2860 C   0  0  0  0  0  0  0  0  0  0  0  0
   37.9590   31.0170   48.9020 C   0  0  0  0  0  0  0  0  0  0  0  0
   37.0730   30.0790   48.4760 N   0  0  0  0  0  0  0  0  0  0  0  0
   36.4280   29.2550   49.3300 C   0  0  0  0  0  0  0  0  0  0  0  0
   36.6420   29.3340   50.6500 N   0  0  0  0  0  0  0  0  0  0  0  0
   38.6430   31.9000   47.9140 C   0  0  0  0  0  0  0  0  0  0  0  0
   37.7560   32.4510   47.0020 F   0  0  0  0  0  0  0  0  0  0  0  0
   39.2490   32.9780   48.5470 F   0  0  0  0  0  0  0  0  0  0  0  0
   39.5540   31.1580   47.1840 F   0  0  0  0  0  0  0  0  0  0  0  0
   37.6688   30.2921   52.2302 H   0  0  0  0  0  0  0  0  0  0  0  0
   38.9128   31.8655   50.6850 H   0  0  0  0  0  0  0  0  0  0  0  0
   35.7193   28.5110   48.9373 H   0  0  0  0  0  0  0  0  0  0  0  0
  2  1  2  0
  3  2  1  0
  4  3  2  0
  4  5  1  0
  5  6  2  0
  6  1  1  0
  7  9  1  0
  7  3  1  0
  8  7  1  0
 10  7  1  0
  1 11  1  0
  2 12  1  0
  5 13  1  0
M  ISO  3  11  14  12  14  13  14
M  END
>  <minimizedAffinity>  (1) 
-4.05376005

>  <minimizedRMSD>  (1) 
0.849153757

$$$$
