
     RDKit          3D

 38 41  0  0  1  0  0  0  0  0999 V2000
   31.9420   27.8680   47.1010 C   0  0  2  0  0  0  0  0  0  0  0  0
   35.3250   29.5780   48.6050 C   0  0  0  0  0  0  0  0  0  0  0  0
   34.9280   28.4220   49.2860 C   0  0  0  0  0  0  0  0  0  0  0  0
   33.8060   27.8140   48.8340 C   0  0  0  0  0  0  0  0  0  0  0  0
   33.1610   28.3250   47.8040 C   0  0  0  0  0  0  0  0  0  0  0  0
   34.0840   29.8060   47.3000 S   0  0  0  0  0  0  0  0  0  0  0  0
   38.1710   31.0990   50.3550 C   0  0  0  0  0  0  0  0  0  0  0  0
   38.6920   31.9990   49.4130 C   0  0  0  0  0  0  0  0  0  0  0  0
   38.0520   32.0610   48.2020 C   0  0  0  0  0  0  0  0  0  0  0  0
   36.9740   31.2720   47.9710 N   0  0  0  0  0  0  0  0  0  0  0  0
   36.5210   30.4380   48.8910 C   0  0  0  0  0  0  0  0  0  0  0  0
   37.0840   30.2900   50.1480 N   0  0  0  0  0  0  0  0  0  0  0  0
   31.7440   28.6560   45.8850 C   0  0  0  0  0  0  0  0  0  0  0  0
   30.7840   27.8700   48.0700 C   0  0  0  0  0  0  0  0  0  0  0  0
   29.8180   26.9690   47.7610 O   0  0  0  0  0  0  0  0  0  0  0  0
   25.5690   28.5880   48.3320 N   0  0  0  0  0  0  0  0  0  0  0  0
   26.1700   28.4340   49.5420 C   0  0  0  0  0  0  0  0  0  0  0  0
   27.4190   27.9550   49.3070 N   0  0  0  0  0  0  0  0  0  0  0  0
   27.5840   27.8150   47.9800 C   0  0  0  0  0  0  0  0  0  0  0  0
   28.6230   27.3800   47.1650 C   0  0  0  0  0  0  0  0  0  0  0  0
   28.4350   27.3730   45.8350 N   0  0  0  0  0  0  0  0  0  0  0  0
   27.3120   27.7570   45.2170 C   0  0  0  0  0  0  0  0  0  0  0  0
   26.2950   28.1830   46.0100 N   0  0  0  0  0  0  0  0  0  0  0  0
   26.4200   28.2130   47.3530 C   0  0  0  0  0  0  0  0  0  0  0  0
   32.0379   26.8293   46.7518 H   0  0  0  0  0  0  0  0  0  0  0  0
   35.4964   28.0287   50.1417 H   0  0  0  0  0  0  0  0  0  0  0  0
   33.4354   26.9007   49.3224 H   0  0  0  0  0  0  0  0  0  0  0  0
   38.6722   31.0381   51.3323 H   0  0  0  0  0  0  0  0  0  0  0  0
   39.5699   32.6235   49.6349 H   0  0  0  0  0  0  0  0  0  0  0  0
   38.4115   32.7477   47.4215 H   0  0  0  0  0  0  0  0  0  0  0  0
   31.4842   29.6899   46.1563 H   0  0  0  0  0  0  0  0  0  0  0  0
   32.6705   28.6543   45.2920 H   0  0  0  0  0  0  0  0  0  0  0  0
   30.9284   28.2165   45.2920 H   0  0  0  0  0  0  0  0  0  0  0  0
   31.1694   27.6368   49.0735 H   0  0  0  0  0  0  0  0  0  0  0  0
   30.3233   28.8677   48.0214 H   0  0  0  0  0  0  0  0  0  0  0  0
   24.6113   28.9372   48.1848 H   0  0  0  0  0  0  0  0  0  0  0  0
   25.7283   28.6554   50.5248 H   0  0  0  0  0  0  0  0  0  0  0  0
   27.2172   27.7290   44.1214 H   0  0  0  0  0  0  0  0  0  0  0  0
  1  5  1  0
  1 14  1  0
  2 11  1  0
  2  3  2  0
  4  3  1  0
  5  4  2  0
  6  5  1  0
  6  2  1  0
  8  7  2  0
  9  8  1  0
 10  9  2  0
 10 11  1  0
 11 12  2  0
 12  7  1  0
 13  1  1  0
 15 14  1  0
 16 17  1  0
 18 17  2  0
 19 18  1  0
 20 15  1  0
 20 19  2  0
 21 20  1  0
 22 21  2  0
 22 23  1  0
 23 24  2  0
 24 19  1  0
 24 16  1  0
  1 25  1  6
  3 26  1  0
  4 27  1  0
  7 28  1  0
  8 29  1  0
  9 30  1  0
 13 31  1  0
 13 32  1  0
 13 33  1  0
 14 34  1  0
 14 35  1  0
 16 36  1  0
 17 37  1  0
 22 38  1  0
M  ISO  8  25   8  26  14  27  14  28  14  29  14  30  14  31   8  32   8
M  ISO  6  33   8  34   8  35   8  36   9  37  14  38  14
M  END
>  <minimizedAffinity>  (1) 
-5.83775663

>  <minimizedRMSD>  (1) 
3.05560184

$$$$
