
     RDKit          3D

 41 44  0  0  1  0  0  0  0  0999 V2000
   31.6390   28.0400   47.0120 C   0  0  2  0  0  0  0  0  0  0  0  0
   35.1060   29.4970   48.6090 C   0  0  0  0  0  0  0  0  0  0  0  0
   34.7170   28.2690   49.1510 C   0  0  0  0  0  0  0  0  0  0  0  0
   33.5750   27.7260   48.6750 C   0  0  0  0  0  0  0  0  0  0  0  0
   32.8960   28.3660   47.7410 C   0  0  0  0  0  0  0  0  0  0  0  0
   33.8260   29.8920   47.3990 S   0  0  0  0  0  0  0  0  0  0  0  0
   38.0020   30.8050   50.4500 C   0  0  0  0  0  0  0  0  0  0  0  0
   38.5450   31.7530   49.5720 C   0  0  0  0  0  0  0  0  0  0  0  0
   37.9070   31.9250   48.3700 C   0  0  0  0  0  0  0  0  0  0  0  0
   36.8010   31.1860   48.0880 N   0  0  0  0  0  0  0  0  0  0  0  0
   36.3250   30.2960   48.9580 C   0  0  0  0  0  0  0  0  0  0  0  0
   36.8890   30.0420   50.1970 N   0  0  0  0  0  0  0  0  0  0  0  0
   31.3280   29.0930   46.0430 C   0  0  0  0  0  0  0  0  0  0  0  0
   30.5590   27.7930   48.0410 C   0  0  0  0  0  0  0  0  0  0  0  0
   29.5710   26.9820   47.6160 O   0  0  0  0  0  0  0  0  0  0  0  0
   28.2980   27.4380   47.3230 C   0  0  0  0  0  0  0  0  0  0  0  0
   27.1960   27.9470   47.9790 C   0  0  0  0  0  0  0  0  0  0  0  0
   26.2090   28.2170   47.1080 N   0  0  0  0  0  0  0  0  0  0  0  0
   26.6290   27.8990   45.8700 C   0  0  0  0  0  0  0  0  0  0  0  0
   25.9150   28.0260   44.6970 C   0  0  0  0  0  0  0  0  0  0  0  0
   26.5230   27.6430   43.5210 C   0  0  0  0  0  0  0  0  0  0  0  0
   27.8060   27.1540   43.5740 C   0  0  0  0  0  0  0  0  0  0  0  0
   28.4870   27.0410   44.7630 C   0  0  0  0  0  0  0  0  0  0  0  0
   27.9290   27.4100   45.9750 C   0  0  0  0  0  0  0  0  0  0  0  0
   31.7366   27.1240   46.4108 H   0  0  0  0  0  0  0  0  0  0  0  0
   35.3125   27.7681   49.9285 H   0  0  0  0  0  0  0  0  0  0  0  0
   33.2149   26.7611   49.0615 H   0  0  0  0  0  0  0  0  0  0  0  0
   38.5067   30.6612   51.4167 H   0  0  0  0  0  0  0  0  0  0  0  0
   39.4421   32.3328   49.8349 H   0  0  0  0  0  0  0  0  0  0  0  0
   38.2870   32.6549   47.6401 H   0  0  0  0  0  0  0  0  0  0  0  0
   31.0558   30.0148   46.5780 H   0  0  0  0  0  0  0  0  0  0  0  0
   32.2087   29.2820   45.4116 H   0  0  0  0  0  0  0  0  0  0  0  0
   30.4860   28.7732   45.4116 H   0  0  0  0  0  0  0  0  0  0  0  0
   31.0239   27.3364   48.9272 H   0  0  0  0  0  0  0  0  0  0  0  0
   30.0984   28.7680   48.2584 H   0  0  0  0  0  0  0  0  0  0  0  0
   27.1340   28.1094   49.0652 H   0  0  0  0  0  0  0  0  0  0  0  0
   25.2848   28.6031   47.3482 H   0  0  0  0  0  0  0  0  0  0  0  0
   24.8887   28.4220   44.6999 H   0  0  0  0  0  0  0  0  0  0  0  0
   25.9928   27.7269   42.5609 H   0  0  0  0  0  0  0  0  0  0  0  0
   28.3008   26.8451   42.6414 H   0  0  0  0  0  0  0  0  0  0  0  0
   29.5124   26.6430   44.7508 H   0  0  0  0  0  0  0  0  0  0  0  0
  1  5  1  0
  1 14  1  0
  2 11  1  0
  2  3  2  0
  4  3  1  0
  5  4  2  0
  6  5  1  0
  6  2  1  0
  8  7  2  0
  9  8  1  0
 10  9  2  0
 10 11  1  0
 11 12  2  0
 12  7  1  0
 13  1  1  0
 15 14  1  0
 16 15  1  0
 16 17  2  0
 18 17  1  0
 19 24  2  0
 19 18  1  0
 20 19  1  0
 21 22  1  0
 21 20  2  0
 22 23  2  0
 23 24  1  0
 24 16  1  0
  1 25  1  6
  3 26  1  0
  4 27  1  0
  7 28  1  0
  8 29  1  0
  9 30  1  0
 13 31  1  0
 13 32  1  0
 13 33  1  0
 14 34  1  0
 14 35  1  0
 17 36  1  0
 18 37  1  0
 20 38  1  0
 21 39  1  0
 22 40  1  0
 23 41  1  0
M  ISO  8  25   8  26  14  27  14  28  14  29  14  30  14  31   8  32   8
M  ISO  8  33   8  34   8  35   8  36  14  37   9  38  14  39  14  40  14
M  ISO  1  41  14
M  END
>  <minimizedAffinity>  (1) 
-5.55915546

>  <minimizedRMSD>  (1) 
2.16193533

$$$$
