
     RDKit          3D

 40 42  0  0  1  0  0  0  0  0999 V2000
   35.2730   29.8750   48.3270 C   0  0  0  0  0  0  0  0  0  0  0  0
   35.0170   28.8480   49.2370 C   0  0  0  0  0  0  0  0  0  0  0  0
   33.9060   28.1160   49.0230 C   0  0  0  0  0  0  0  0  0  0  0  0
   33.1290   28.3890   47.9930 C   0  0  0  0  0  0  0  0  0  0  0  0
   33.9020   29.7920   47.1460 S   0  0  0  0  0  0  0  0  0  0  0  0
   37.7290   32.3500   49.4760 C   0  0  0  0  0  0  0  0  0  0  0  0
   38.5150   32.5650   48.3350 C   0  0  0  0  0  0  0  0  0  0  0  0
   38.1980   31.8680   47.2010 C   0  0  0  0  0  0  0  0  0  0  0  0
   37.1520   31.0190   47.2530 N   0  0  0  0  0  0  0  0  0  0  0  0
   36.4300   30.8320   48.3340 C   0  0  0  0  0  0  0  0  0  0  0  0
   36.6620   31.4840   49.5330 N   0  0  0  0  0  0  0  0  0  0  0  0
   31.8840   27.7640   47.5040 C   0  0  2  0  0  0  0  0  0  0  0  0
   31.1390   28.7060   46.6710 C   0  0  0  0  0  0  0  0  0  0  0  0
   31.1240   27.2020   48.6800 C   0  0  0  0  0  0  0  0  0  0  0  0
   29.8660   26.8110   48.3750 O   0  0  0  0  0  0  0  0  0  0  0  0
   28.9270   27.0430   49.3680 C   0  0  0  0  0  0  0  0  0  0  0  0
   27.5400   27.2600   48.8390 C   0  0  0  0  0  0  0  0  0  0  0  0
   26.9720   28.3590   49.6780 C   0  0  0  0  0  0  0  0  0  0  0  0
   28.1650   29.2830   49.8570 C   0  0  0  0  0  0  0  0  0  0  0  0
   29.3090   28.3200   50.0780 C   0  0  0  0  0  0  0  0  0  0  0  0
   35.6877   28.6465   50.0853 H   0  0  0  0  0  0  0  0  0  0  0  0
   33.6479   27.2930   49.7056 H   0  0  0  0  0  0  0  0  0  0  0  0
   37.9828   32.9118   50.3870 H   0  0  0  0  0  0  0  0  0  0  0  0
   39.3586   33.2707   48.3510 H   0  0  0  0  0  0  0  0  0  0  0  0
   38.7786   31.9964   46.2756 H   0  0  0  0  0  0  0  0  0  0  0  0
   32.0926   26.9114   46.8410 H   0  0  0  0  0  0  0  0  0  0  0  0
   30.5855   29.4059   47.3142 H   0  0  0  0  0  0  0  0  0  0  0  0
   31.8399   29.2677   46.0359 H   0  0  0  0  0  0  0  0  0  0  0  0
   30.4310   28.1534   46.0359 H   0  0  0  0  0  0  0  0  0  0  0  0
   31.6747   26.3315   49.0660 H   0  0  0  0  0  0  0  0  0  0  0  0
   31.0398   28.0076   49.4242 H   0  0  0  0  0  0  0  0  0  0  0  0
   28.9207   26.1536   50.0152 H   0  0  0  0  0  0  0  0  0  0  0  0
   27.5724   27.5590   47.7809 H   0  0  0  0  0  0  0  0  0  0  0  0
   26.9312   26.3453   48.8899 H   0  0  0  0  0  0  0  0  0  0  0  0
   26.1473   28.8699   49.1594 H   0  0  0  0  0  0  0  0  0  0  0  0
   26.5409   28.0090   50.6275 H   0  0  0  0  0  0  0  0  0  0  0  0
   28.3305   29.8941   48.9575 H   0  0  0  0  0  0  0  0  0  0  0  0
   28.0376   30.0018   50.6798 H   0  0  0  0  0  0  0  0  0  0  0  0
   29.4472   28.1321   51.1530 H   0  0  0  0  0  0  0  0  0  0  0  0
   30.2555   28.7261   49.6916 H   0  0  0  0  0  0  0  0  0  0  0  0
  1 10  1  0
  1  2  2  0
  3  2  1  0
  4  3  2  0
  5  4  1  0
  5  1  1  0
  6 11  2  0
  7  6  1  0
  8  9  1  0
  8  7  2  0
  9 10  2  0
 10 11  1  0
 12  4  1  0
 12 14  1  0
 13 12  1  0
 15 14  1  0
 15 16  1  0
 16 20  1  0
 17 16  1  0
 17 18  1  0
 18 19  1  0
 19 20  1  0
  2 21  1  0
  3 22  1  0
  6 23  1  0
  7 24  1  0
  8 25  1  0
 12 26  1  6
 13 27  1  0
 13 28  1  0
 13 29  1  0
 14 30  1  0
 14 31  1  0
 16 32  1  0
 17 33  1  0
 17 34  1  0
 18 35  1  0
 18 36  1  0
 19 37  1  0
 19 38  1  0
 20 39  1  0
 20 40  1  0
M  ISO  8  21  14  22  14  23  14  24  14  25  14  26   8  27   8  28   8
M  ISO  8  29   8  30   8  31   8  32  13  33  13  34  13  35  13  36  13
M  ISO  4  37  13  38  13  39  13  40  13
M  END
>  <minimizedAffinity>  (1) 
-5.46025419

>  <minimizedRMSD>  (1) 
2.08715391

$$$$
