
     RDKit          3D

 34 36  0  0  1  0  0  0  0  0999 V2000
   35.8080   30.1340   48.5080 C   0  0  0  0  0  0  0  0  0  0  0  0
   35.7310   29.0190   49.3660 C   0  0  0  0  0  0  0  0  0  0  0  0
   34.6480   28.2280   49.2360 C   0  0  0  0  0  0  0  0  0  0  0  0
   33.7350   28.5280   48.3320 C   0  0  0  0  0  0  0  0  0  0  0  0
   34.3120   30.0490   47.5010 S   0  0  0  0  0  0  0  0  0  0  0  0
   38.0220   32.9130   49.4570 C   0  0  0  0  0  0  0  0  0  0  0  0
   38.9110   32.9900   48.3480 C   0  0  0  0  0  0  0  0  0  0  0  0
   38.7280   32.0910   47.3000 C   0  0  0  0  0  0  0  0  0  0  0  0
   37.7110   31.2020   47.4120 N   0  0  0  0  0  0  0  0  0  0  0  0
   36.9030   31.1490   48.4450 C   0  0  0  0  0  0  0  0  0  0  0  0
   37.0210   31.9960   49.5060 N   0  0  0  0  0  0  0  0  0  0  0  0
   32.4740   27.8580   47.9510 C   0  0  2  0  0  0  0  0  0  0  0  0
   31.8960   28.5020   46.7730 C   0  0  0  0  0  0  0  0  0  0  0  0
   31.5760   27.7970   49.1630 C   0  0  0  0  0  0  0  0  0  0  0  0
   30.5100   26.9690   49.0040 O   0  0  0  0  0  0  0  0  0  0  0  0
   29.4740   27.1380   49.9000 C   0  0  0  0  0  0  0  0  0  0  0  0
   28.0470   27.0740   49.3800 C   0  0  0  0  0  0  0  0  0  0  0  0
   28.6270   28.3400   49.9230 C   0  0  0  0  0  0  0  0  0  0  0  0
   36.5165   28.8048   50.1057 H   0  0  0  0  0  0  0  0  0  0  0  0
   34.5264   27.3420   49.8764 H   0  0  0  0  0  0  0  0  0  0  0  0
   38.1488   33.6137   50.2954 H   0  0  0  0  0  0  0  0  0  0  0  0
   39.7181   33.7369   48.3195 H   0  0  0  0  0  0  0  0  0  0  0  0
   39.3830   32.1020   46.4163 H   0  0  0  0  0  0  0  0  0  0  0  0
   32.6413   26.8162   47.6401 H   0  0  0  0  0  0  0  0  0  0  0  0
   31.1927   29.2856   47.0915 H   0  0  0  0  0  0  0  0  0  0  0  0
   32.6986   28.9524   46.1705 H   0  0  0  0  0  0  0  0  0  0  0  0
   31.3617   27.7526   46.1705 H   0  0  0  0  0  0  0  0  0  0  0  0
   32.1689   27.4417   50.0187 H   0  0  0  0  0  0  0  0  0  0  0  0
   31.1790   28.8101   49.3242 H   0  0  0  0  0  0  0  0  0  0  0  0
   30.0740   26.6253   50.6663 H   0  0  0  0  0  0  0  0  0  0  0  0
   27.8538   26.9703   48.3021 H   0  0  0  0  0  0  0  0  0  0  0  0
   27.1587   26.4607   49.5919 H   0  0  0  0  0  0  0  0  0  0  0  0
   28.2681   28.7358   50.8845 H   0  0  0  0  0  0  0  0  0  0  0  0
   28.7356   29.3634   49.5346 H   0  0  0  0  0  0  0  0  0  0  0  0
  1  2  2  0
  3  2  1  0
  4  3  2  0
  5  4  1  0
  5  1  1  0
  6 11  2  0
  7  6  1  0
  8  9  1  0
  8  7  2  0
  9 10  2  0
 10  1  1  0
 10 11  1  0
 12  4  1  0
 12 14  1  0
 13 12  1  0
 15 14  1  0
 15 16  1  0
 16 18  1  0
 17 16  1  0
 17 18  1  0
  2 19  1  0
  3 20  1  0
  6 21  1  0
  7 22  1  0
  8 23  1  0
 12 24  1  6
 13 25  1  0
 13 26  1  0
 13 27  1  0
 14 28  1  0
 14 29  1  0
 16 30  1  0
 17 31  1  0
 17 32  1  0
 18 33  1  0
 18 34  1  0
M  ISO  8  19  14  20  14  21  14  22  14  23  14  24   8  25   8  26   8
M  ISO  8  27   8  28   8  29   8  30  13  31  13  32  13  33  13  34  13
M  END
>  <minimizedAffinity>  (1) 
-5.04626894

>  <minimizedRMSD>  (1) 
1.93561041

$$$$
