
     RDKit          3D

 35 37  0  0  1  0  0  0  0  0999 V2000
   31.6220   28.0000   46.7210 C   0  0  2  0  0  0  0  0  0  0  0  0
   34.9910   29.4020   48.5640 C   0  0  0  0  0  0  0  0  0  0  0  0
   34.5020   28.2130   49.1300 C   0  0  0  0  0  0  0  0  0  0  0  0
   33.3880   27.6810   48.5840 C   0  0  0  0  0  0  0  0  0  0  0  0
   32.8250   28.3160   47.5460 C   0  0  0  0  0  0  0  0  0  0  0  0
   33.8420   29.7870   47.2120 S   0  0  0  0  0  0  0  0  0  0  0  0
   37.7680   30.6310   50.6280 C   0  0  0  0  0  0  0  0  0  0  0  0
   38.3770   31.5950   49.7800 C   0  0  0  0  0  0  0  0  0  0  0  0
   37.8220   31.8010   48.5210 C   0  0  0  0  0  0  0  0  0  0  0  0
   36.7380   31.0740   48.1780 N   0  0  0  0  0  0  0  0  0  0  0  0
   36.1950   30.1900   48.9810 C   0  0  0  0  0  0  0  0  0  0  0  0
   36.6690   29.9090   50.2530 N   0  0  0  0  0  0  0  0  0  0  0  0
   31.0000   29.2300   46.2430 C   0  0  0  0  0  0  0  0  0  0  0  0
   30.7400   27.0850   47.5400 C   0  0  0  0  0  0  0  0  0  0  0  0
   29.5260   26.8960   47.0690 O   0  0  0  0  0  0  0  0  0  0  0  0
   29.0340   26.0270   46.1510 C   0  0  0  0  0  0  0  0  0  0  0  0
   28.2580   26.8220   45.2890 C   0  0  0  0  0  0  0  0  0  0  0  0
   27.5560   26.3210   44.1800 C   0  0  0  0  0  0  0  0  0  0  0  0
   27.6260   24.9990   43.9170 N   0  0  0  0  0  0  0  0  0  0  0  0
   28.3740   24.2380   44.7500 C   0  0  0  0  0  0  0  0  0  0  0  0
   29.0230   24.7520   45.7900 N   0  0  0  0  0  0  0  0  0  0  0  0
   31.8677   27.4576   45.7961 H   0  0  0  0  0  0  0  0  0  0  0  0
   35.0061   27.7351   49.9830 H   0  0  0  0  0  0  0  0  0  0  0  0
   32.9537   26.7512   48.9801 H   0  0  0  0  0  0  0  0  0  0  0  0
   38.1978   30.4587   51.6258 H   0  0  0  0  0  0  0  0  0  0  0  0
   39.2607   32.1613   50.1091 H   0  0  0  0  0  0  0  0  0  0  0  0
   38.2543   32.5352   47.8252 H   0  0  0  0  0  0  0  0  0  0  0  0
   30.6903   29.8424   47.1027 H   0  0  0  0  0  0  0  0  0  0  0  0
   31.7218   29.7928   45.6329 H   0  0  0  0  0  0  0  0  0  0  0  0
   30.1188   28.9822   45.6329 H   0  0  0  0  0  0  0  0  0  0  0  0
   31.2351   26.1048   47.6033 H   0  0  0  0  0  0  0  0  0  0  0  0
   30.6119   27.5814   48.5132 H   0  0  0  0  0  0  0  0  0  0  0  0
   28.1970   27.9007   45.4954 H   0  0  0  0  0  0  0  0  0  0  0  0
   26.9627   26.9910   43.5404 H   0  0  0  0  0  0  0  0  0  0  0  0
   28.4473   23.1571   44.5597 H   0  0  0  0  0  0  0  0  0  0  0  0
  1 14  1  0
  1  5  1  0
  2 11  1  0
  2  3  2  0
  4  3  1  0
  5  4  2  0
  6  5  1  0
  6  2  1  0
  8  7  2  0
  9  8  1  0
 10  9  2  0
 10 11  1  0
 11 12  2  0
 12  7  1  0
 13  1  1  0
 15 14  1  0
 16 15  1  0
 17 16  2  0
 18 17  1  0
 19 18  2  0
 19 20  1  0
 20 21  2  0
 21 16  1  0
  1 22  1  6
  3 23  1  0
  4 24  1  0
  7 25  1  0
  8 26  1  0
  9 27  1  0
 13 28  1  0
 13 29  1  0
 13 30  1  0
 14 31  1  0
 14 32  1  0
 17 33  1  0
 18 34  1  0
 20 35  1  0
M  ISO  8  22   8  23  14  24  14  25  14  26  14  27  14  28   8  29   8
M  ISO  6  30   8  31   8  32   8  33  14  34  14  35  14
M  END
>  <minimizedAffinity>  (1) 
-4.53802681

>  <minimizedRMSD>  (1) 
2.53219247

$$$$
