
     RDKit          3D

 36 37  0  0  1  0  0  0  0  0999 V2000
   34.8640   29.3160   48.6810 C   0  0  0  0  0  0  0  0  0  0  0  0
   34.2870   28.1370   49.1590 C   0  0  0  0  0  0  0  0  0  0  0  0
   33.1500   27.7350   48.5460 C   0  0  0  0  0  0  0  0  0  0  0  0
   32.6510   28.4530   47.5570 C   0  0  0  0  0  0  0  0  0  0  0  0
   33.7700   29.8610   47.3410 S   0  0  0  0  0  0  0  0  0  0  0  0
   37.5220   30.5000   50.9290 C   0  0  0  0  0  0  0  0  0  0  0  0
   38.3920   31.1830   50.0680 C   0  0  0  0  0  0  0  0  0  0  0  0
   38.0510   31.2250   48.7400 C   0  0  0  0  0  0  0  0  0  0  0  0
   36.9110   30.6140   48.3380 N   0  0  0  0  0  0  0  0  0  0  0  0
   36.1190   29.9830   49.1710 C   0  0  0  0  0  0  0  0  0  0  0  0
   36.3720   29.8830   50.5170 N   0  0  0  0  0  0  0  0  0  0  0  0
   31.4590   28.2630   46.7140 C   0  0  2  0  0  0  0  0  0  0  0  0
   31.2460   29.4350   45.8600 C   0  0  0  0  0  0  0  0  0  0  0  0
   30.2800   27.9300   47.5990 C   0  0  0  0  0  0  0  0  0  0  0  0
   29.1520   27.6140   46.8840 O   0  0  0  0  0  0  0  0  0  0  0  0
   27.9940   28.0820   47.4540 C   0  0  0  0  0  0  0  0  0  0  0  0
   28.3110   29.1690   48.4790 C   0  0  0  0  0  0  0  0  0  0  0  0
   27.2150   27.0080   48.1790 C   0  0  0  0  0  0  0  0  0  0  0  0
   34.7324   27.5671   49.9878 H   0  0  0  0  0  0  0  0  0  0  0  0
   32.6435   26.8139   48.8702 H   0  0  0  0  0  0  0  0  0  0  0  0
   37.7785   30.4575   51.9978 H   0  0  0  0  0  0  0  0  0  0  0  0
   39.3081   31.6643   50.4409 H   0  0  0  0  0  0  0  0  0  0  0  0
   38.6924   31.7460   48.0140 H   0  0  0  0  0  0  0  0  0  0  0  0
   31.5975   27.4160   46.0259 H   0  0  0  0  0  0  0  0  0  0  0  0
   31.0847   30.3227   46.4892 H   0  0  0  0  0  0  0  0  0  0  0  0
   32.1304   29.5915   45.2249 H   0  0  0  0  0  0  0  0  0  0  0  0
   30.3631   29.2703   45.2249 H   0  0  0  0  0  0  0  0  0  0  0  0
   30.5471   27.0711   48.2322 H   0  0  0  0  0  0  0  0  0  0  0  0
   30.0529   28.8236   48.1990 H   0  0  0  0  0  0  0  0  0  0  0  0
   27.3872   28.4665   46.6210 H   0  0  0  0  0  0  0  0  0  0  0  0
   28.1922   28.7618   49.4939 H   0  0  0  0  0  0  0  0  0  0  0  0
   29.3468   29.5126   48.3407 H   0  0  0  0  0  0  0  0  0  0  0  0
   27.6223   30.0155   48.3407 H   0  0  0  0  0  0  0  0  0  0  0  0
   27.3181   27.1501   49.2649 H   0  0  0  0  0  0  0  0  0  0  0  0
   26.1531   27.0736   47.8998 H   0  0  0  0  0  0  0  0  0  0  0  0
   27.6071   26.0189   47.8998 H   0  0  0  0  0  0  0  0  0  0  0  0
  1  2  2  0
  1 10  1  0
  3  2  1  0
  4  3  2  0
  5  4  1  0
  5  1  1  0
  7  6  2  0
  8  7  1  0
  9  8  2  0
  9 10  1  0
 10 11  2  0
 11  6  1  0
 12  4  1  0
 12 14  1  0
 13 12  1  0
 15 16  1  0
 15 14  1  0
 16 18  1  0
 16 17  1  0
  2 19  1  0
  3 20  1  0
  6 21  1  0
  7 22  1  0
  8 23  1  0
 12 24  1  6
 13 25  1  0
 13 26  1  0
 13 27  1  0
 14 28  1  0
 14 29  1  0
 16 30  1  0
 17 31  1  0
 17 32  1  0
 17 33  1  0
 18 34  1  0
 18 35  1  0
 18 36  1  0
M  ISO  8  19  14  20  14  21  14  22  14  23  14  24   8  25   8  26   8
M  ISO  8  27   8  28   8  29   8  30   8  31   8  32   8  33   8  34   8
M  ISO  2  35   8  36   8
M  END
>  <minimizedAffinity>  (1) 
-4.52189684

>  <minimizedRMSD>  (1) 
1.55190372

$$$$
