
     RDKit          3D

 34 36  0  0  1  0  0  0  0  0999 V2000
   31.7680   28.1290   46.5090 C   0  0  2  0  0  0  0  0  0  0  0  0
   35.0670   29.3700   48.5790 C   0  0  0  0  0  0  0  0  0  0  0  0
   34.5490   28.1490   49.0220 C   0  0  0  0  0  0  0  0  0  0  0  0
   33.4580   27.6790   48.3880 C   0  0  0  0  0  0  0  0  0  0  0  0
   32.9420   28.3810   47.3960 C   0  0  0  0  0  0  0  0  0  0  0  0
   33.9720   29.8610   47.2230 S   0  0  0  0  0  0  0  0  0  0  0  0
   37.6830   30.5520   50.8690 C   0  0  0  0  0  0  0  0  0  0  0  0
   38.4370   31.4240   50.0690 C   0  0  0  0  0  0  0  0  0  0  0  0
   38.0350   31.5940   48.7620 C   0  0  0  0  0  0  0  0  0  0  0  0
   36.9450   30.9120   48.3300 N   0  0  0  0  0  0  0  0  0  0  0  0
   36.2660   30.1030   49.1080 C   0  0  0  0  0  0  0  0  0  0  0  0
   36.5800   29.8620   50.4300 N   0  0  0  0  0  0  0  0  0  0  0  0
   31.1530   29.4030   46.1330 C   0  0  0  0  0  0  0  0  0  0  0  0
   30.8570   27.1500   47.2120 C   0  0  0  0  0  0  0  0  0  0  0  0
   29.8850   26.6520   46.4280 O   0  0  0  0  0  0  0  0  0  0  0  0
   29.5030   25.3880   46.0960 C   0  0  0  0  0  0  0  0  0  0  0  0
   30.6390   24.5710   46.0110 C   0  0  0  0  0  0  0  0  0  0  0  0
   30.2280   23.2770   45.6690 C   0  0  0  0  0  0  0  0  0  0  0  0
   28.8870   23.3410   45.5590 N   0  0  0  0  0  0  0  0  0  0  0  0
   28.4890   24.5540   45.8070 N   0  0  0  0  0  0  0  0  0  0  0  0
   32.0499   27.6632   45.5532 H   0  0  0  0  0  0  0  0  0  0  0  0
   35.0127   27.5964   49.8524 H   0  0  0  0  0  0  0  0  0  0  0  0
   33.0035   26.7245   48.6920 H   0  0  0  0  0  0  0  0  0  0  0  0
   37.9954   30.4123   51.9144 H   0  0  0  0  0  0  0  0  0  0  0  0
   39.3151   31.9515   50.4698 H   0  0  0  0  0  0  0  0  0  0  0  0
   38.5842   32.2659   48.0860 H   0  0  0  0  0  0  0  0  0  0  0  0
   30.8831   29.9620   47.0411 H   0  0  0  0  0  0  0  0  0  0  0  0
   31.8657   29.9926   45.5377 H   0  0  0  0  0  0  0  0  0  0  0  0
   30.2480   29.2117   45.5377 H   0  0  0  0  0  0  0  0  0  0  0  0
   31.4673   26.3127   47.5815 H   0  0  0  0  0  0  0  0  0  0  0  0
   30.3613   27.7014   48.0245 H   0  0  0  0  0  0  0  0  0  0  0  0
   31.6769   24.8920   46.1836 H   0  0  0  0  0  0  0  0  0  0  0  0
   30.8663   22.3934   45.5211 H   0  0  0  0  0  0  0  0  0  0  0  0
   28.2719   22.5513   45.3160 H   0  0  0  0  0  0  0  0  0  0  0  0
  1 14  1  0
  1  5  1  0
  2  3  2  0
  2 11  1  0
  4  3  1  0
  5  4  2  0
  6  5  1  0
  6  2  1  0
  8  7  2  0
  9  8  1  0
 10  9  2  0
 10 11  1  0
 11 12  2  0
 12  7  1  0
 13  1  1  0
 15 14  1  0
 16 15  1  0
 17 16  1  0
 18 17  2  0
 19 18  1  0
 19 20  1  0
 20 16  2  0
  1 21  1  6
  3 22  1  0
  4 23  1  0
  7 24  1  0
  8 25  1  0
  9 26  1  0
 13 27  1  0
 13 28  1  0
 13 29  1  0
 14 30  1  0
 14 31  1  0
 17 32  1  0
 18 33  1  0
 19 34  1  0
M  ISO  8  21   8  22  14  23  14  24  14  25  14  26  14  27   8  28   8
M  ISO  6  29   8  30   8  31   8  32  14  33  14  34   9
M  END
>  <minimizedAffinity>  (1) 
-4.37469578

>  <minimizedRMSD>  (1) 
1.42213809

$$$$
