
     RDKit          3D

 29 30  0  0  1  0  0  0  0  0999 V2000
   35.1050   29.5400   48.6040 C   0  0  0  0  0  0  0  0  0  0  0  0
   34.6700   28.3490   49.1940 C   0  0  0  0  0  0  0  0  0  0  0  0
   33.5560   27.8010   48.6980 C   0  0  0  0  0  0  0  0  0  0  0  0
   32.9250   28.3880   47.6970 C   0  0  0  0  0  0  0  0  0  0  0  0
   33.8900   29.8790   47.3130 S   0  0  0  0  0  0  0  0  0  0  0  0
   38.0040   30.8240   50.4800 C   0  0  0  0  0  0  0  0  0  0  0  0
   38.5530   31.7660   49.5930 C   0  0  0  0  0  0  0  0  0  0  0  0
   37.9200   31.9490   48.3670 C   0  0  0  0  0  0  0  0  0  0  0  0
   36.8160   31.2080   48.1080 N   0  0  0  0  0  0  0  0  0  0  0  0
   36.3290   30.3250   48.9790 C   0  0  0  0  0  0  0  0  0  0  0  0
   36.8850   30.0830   50.1990 N   0  0  0  0  0  0  0  0  0  0  0  0
   31.6980   28.0410   46.9340 C   0  0  2  0  0  0  0  0  0  0  0  0
   31.2040   29.2220   46.2210 C   0  0  0  0  0  0  0  0  0  0  0  0
   30.7000   27.4590   47.9060 C   0  0  0  0  0  0  0  0  0  0  0  0
   29.4010   27.6510   47.5050 O   0  0  0  0  0  0  0  0  0  0  0  0
   28.3060   27.6250   48.3660 C   0  0  0  0  0  0  0  0  0  0  0  0
   27.5370   26.6470   48.1780 O   0  0  0  0  0  0  0  0  0  0  0  0
   35.2186   27.8850   50.0269 H   0  0  0  0  0  0  0  0  0  0  0  0
   33.1660   26.8640   49.1223 H   0  0  0  0  0  0  0  0  0  0  0  0
   38.4982   30.6732   51.4511 H   0  0  0  0  0  0  0  0  0  0  0  0
   39.4531   32.3396   49.8589 H   0  0  0  0  0  0  0  0  0  0  0  0
   38.3038   32.6720   47.6322 H   0  0  0  0  0  0  0  0  0  0  0  0
   31.8971   27.2857   46.1595 H   0  0  0  0  0  0  0  0  0  0  0  0
   30.8857   29.9831   46.9486 H   0  0  0  0  0  0  0  0  0  0  0  0
   32.0063   29.6313   45.5896 H   0  0  0  0  0  0  0  0  0  0  0  0
   30.3492   28.9382   45.5896 H   0  0  0  0  0  0  0  0  0  0  0  0
   30.8850   26.3785   47.9967 H   0  0  0  0  0  0  0  0  0  0  0  0
   30.8319   27.9745   48.8687 H   0  0  0  0  0  0  0  0  0  0  0  0
   28.1301   28.3884   49.1382 H   0  0  0  0  0  0  0  0  0  0  0  0
  1 10  1  0
  1  2  2  0
  3  2  1  0
  4  3  2  0
  5  4  1  0
  5  1  1  0
  7  6  2  0
  8  7  1  0
  9  8  2  0
  9 10  1  0
 10 11  2  0
 11  6  1  0
 12  4  1  0
 12 14  1  0
 13 12  1  0
 15 14  1  0
 15 16  1  0
 17 16  2  0
  2 18  1  0
  3 19  1  0
  6 20  1  0
  7 21  1  0
  8 22  1  0
 12 23  1  6
 13 24  1  0
 13 25  1  0
 13 26  1  0
 14 27  1  0
 14 28  1  0
 16 29  1  0
M  ISO  8  18  14  19  14  20  14  21  14  22  14  23   8  24   8  25   8
M  ISO  4  26   8  27   8  28   8  29   6
M  END
>  <minimizedAffinity>  (1) 
-4.20574474

>  <minimizedRMSD>  (1) 
1.15095925

$$$$
