
     RDKit          3D

 30 31  0  0  1  0  0  0  0  0999 V2000
   35.1910   29.5730   48.5750 C   0  0  0  0  0  0  0  0  0  0  0  0
   34.7660   28.3450   49.0900 C   0  0  0  0  0  0  0  0  0  0  0  0
   33.6390   27.8200   48.5640 C   0  0  0  0  0  0  0  0  0  0  0  0
   33.0050   28.4780   47.6090 C   0  0  0  0  0  0  0  0  0  0  0  0
   33.9590   30.0010   47.3090 S   0  0  0  0  0  0  0  0  0  0  0  0
   38.0340   30.8280   50.5260 C   0  0  0  0  0  0  0  0  0  0  0  0
   38.6010   31.7970   49.6870 C   0  0  0  0  0  0  0  0  0  0  0  0
   37.9980   32.0030   48.4720 C   0  0  0  0  0  0  0  0  0  0  0  0
   36.9020   31.2700   48.1470 N   0  0  0  0  0  0  0  0  0  0  0  0
   36.3960   30.3590   48.9730 C   0  0  0  0  0  0  0  0  0  0  0  0
   36.9280   30.0870   50.1980 N   0  0  0  0  0  0  0  0  0  0  0  0
   31.7660   28.1550   46.8350 C   0  0  2  0  0  0  0  0  0  0  0  0
   31.4410   29.2670   45.9420 C   0  0  0  0  0  0  0  0  0  0  0  0
   30.6910   27.7860   47.8150 C   0  0  0  0  0  0  0  0  0  0  0  0
   30.3100   26.5020   47.8120 O   0  0  0  0  0  0  0  0  0  0  0  0
   29.7770   26.0040   46.6590 C   0  0  0  0  0  0  0  0  0  0  0  0
   35.3237   27.8306   49.8865 H   0  0  0  0  0  0  0  0  0  0  0  0
   33.2528   26.8557   48.9260 H   0  0  0  0  0  0  0  0  0  0  0  0
   38.5038   30.6517   51.5049 H   0  0  0  0  0  0  0  0  0  0  0  0
   39.4912   32.3678   49.9897 H   0  0  0  0  0  0  0  0  0  0  0  0
   38.3966   32.7512   47.7711 H   0  0  0  0  0  0  0  0  0  0  0  0
   31.8970   27.2883   46.1705 H   0  0  0  0  0  0  0  0  0  0  0  0
   31.1819   30.1535   46.5395 H   0  0  0  0  0  0  0  0  0  0  0  0
   32.3104   29.4938   45.3075 H   0  0  0  0  0  0  0  0  0  0  0  0
   30.5863   28.9899   45.3075 H   0  0  0  0  0  0  0  0  0  0  0  0
   31.0583   28.0258   48.8237 H   0  0  0  0  0  0  0  0  0  0  0  0
   29.8030   28.3598   47.5114 H   0  0  0  0  0  0  0  0  0  0  0  0
   28.9934   25.2718   46.9036 H   0  0  0  0  0  0  0  0  0  0  0  0
   29.3408   26.8256   46.0719 H   0  0  0  0  0  0  0  0  0  0  0  0
   30.5671   25.5131   46.0719 H   0  0  0  0  0  0  0  0  0  0  0  0
  1 10  1  0
  1  2  2  0
  3  2  1  0
  4  3  2  0
  5  4  1  0
  5  1  1  0
  7  6  2  0
  8  7  1  0
  9  8  2  0
  9 10  1  0
 10 11  2  0
 11  6  1  0
 12  4  1  0
 12 14  1  0
 13 12  1  0
 15 14  1  0
 16 15  1  0
  2 17  1  0
  3 18  1  0
  6 19  1  0
  7 20  1  0
  8 21  1  0
 12 22  1  6
 13 23  1  0
 13 24  1  0
 13 25  1  0
 14 26  1  0
 14 27  1  0
 16 28  1  0
 16 29  1  0
 16 30  1  0
M  ISO  8  17  14  18  14  19  14  20  14  21  14  22   8  23   8  24   8
M  ISO  6  25   8  26   8  27   8  28   8  29   8  30   8
M  END
>  <minimizedAffinity>  (1) 
-4.1080575

>  <minimizedRMSD>  (1) 
0.585072875

$$$$
