
     RDKit          3D

 47 50  0  0  1  0  0  0  0  0999 V2000
   31.9670   27.6940   46.6820 C   0  0  2  0  0  0  0  0  0  0  0  0
   35.1630   29.4020   48.5260 C   0  0  0  0  0  0  0  0  0  0  0  0
   34.7240   28.2270   49.1370 C   0  0  0  0  0  0  0  0  0  0  0  0
   33.6600   27.6040   48.5920 C   0  0  0  0  0  0  0  0  0  0  0  0
   33.1040   28.1360   47.5280 C   0  0  0  0  0  0  0  0  0  0  0  0
   34.0450   29.6500   47.1350 S   0  0  0  0  0  0  0  0  0  0  0  0
   37.9460   30.7820   50.4970 C   0  0  0  0  0  0  0  0  0  0  0  0
   38.4790   31.7710   49.6390 C   0  0  0  0  0  0  0  0  0  0  0  0
   37.8670   31.9480   48.4010 C   0  0  0  0  0  0  0  0  0  0  0  0
   36.7990   31.1750   48.0780 N   0  0  0  0  0  0  0  0  0  0  0  0
   36.3400   30.2500   48.9390 C   0  0  0  0  0  0  0  0  0  0  0  0
   36.8700   29.9960   50.1800 N   0  0  0  0  0  0  0  0  0  0  0  0
   32.3930   27.4410   45.3240 C   0  0  0  0  0  0  0  0  0  0  0  0
   30.8540   28.7300   46.8250 C   0  0  0  0  0  0  0  0  0  0  0  0
   29.9000   28.3510   47.7220 O   0  0  0  0  0  0  0  0  0  0  0  0
   28.6250   28.8520   47.6930 C   0  0  0  0  0  0  0  0  0  0  0  0
   27.4100   28.6200   48.2880 C   0  0  0  0  0  0  0  0  0  0  0  0
   26.5320   29.5430   47.7600 C   0  0  0  0  0  0  0  0  0  0  0  0
   27.2520   30.2980   46.8670 C   0  0  0  0  0  0  0  0  0  0  0  0
   28.4830   29.8460   46.8670 O   0  0  0  0  0  0  0  0  0  0  0  0
   26.6430   31.3640   46.1270 N   0  0  0  0  0  0  0  0  0  0  0  0
   26.1860   32.3960   46.8590 C   0  0  0  0  0  0  0  0  0  0  0  0
   25.5830   33.4690   46.2310 C   0  0  0  0  0  0  0  0  0  0  0  0
   25.0690   34.6200   47.0110 C   0  0  0  0  0  0  0  0  0  0  0  0
   25.4580   33.4720   44.8750 C   0  0  0  0  0  0  0  0  0  0  0  0
   24.9120   34.4350   44.2400 O   0  0  0  0  0  0  0  0  0  0  0  0
   25.9240   32.4290   44.1620 N   0  0  0  0  0  0  0  0  0  0  0  0
   26.5100   31.3820   44.7730 C   0  0  0  0  0  0  0  0  0  0  0  0
   26.9810   30.3560   44.2170 O   0  0  0  0  0  0  0  0  0  0  0  0
   31.5658   26.7256   47.0156 H   0  0  0  0  0  0  0  0  0  0  0  0
   35.2266   27.8246   50.0289 H   0  0  0  0  0  0  0  0  0  0  0  0
   33.2674   26.6734   49.0277 H   0  0  0  0  0  0  0  0  0  0  0  0
   38.4235   30.6350   51.4770 H   0  0  0  0  0  0  0  0  0  0  0  0
   39.3457   32.3786   49.9385 H   0  0  0  0  0  0  0  0  0  0  0  0
   38.2434   32.7031   47.6951 H   0  0  0  0  0  0  0  0  0  0  0  0
   33.3387   26.8793   45.3350 H   0  0  0  0  0  0  0  0  0  0  0  0
   31.6236   26.8533   44.8018 H   0  0  0  0  0  0  0  0  0  0  0  0
   32.5408   28.3978   44.8018 H   0  0  0  0  0  0  0  0  0  0  0  0
   31.2967   29.6793   47.1609 H   0  0  0  0  0  0  0  0  0  0  0  0
   30.3674   28.8353   45.8441 H   0  0  0  0  0  0  0  0  0  0  0  0
   27.1815   27.8491   49.0387 H   0  0  0  0  0  0  0  0  0  0  0  0
   25.4654   29.6528   48.0056 H   0  0  0  0  0  0  0  0  0  0  0  0
   26.2920   32.3857   47.9538 H   0  0  0  0  0  0  0  0  0  0  0  0
   25.1644   34.4064   48.0858 H   0  0  0  0  0  0  0  0  0  0  0  0
   25.6507   35.5201   46.7630 H   0  0  0  0  0  0  0  0  0  0  0  0
   24.0105   34.7876   46.7630 H   0  0  0  0  0  0  0  0  0  0  0  0
   25.8310   32.4322   43.1362 H   0  0  0  0  0  0  0  0  0  0  0  0
  1 14  1  0
  1  5  1  0
  2 11  1  0
  2  3  2  0
  4  3  1  0
  5  4  2  0
  6  5  1  0
  6  2  1  0
  8  7  2  0
  9  8  1  0
 10  9  2  0
 10 11  1  0
 11 12  2  0
 12  7  1  0
 13  1  1  0
 14 15  1  0
 16 15  1  0
 16 17  2  0
 18 17  1  0
 19 18  2  0
 20 19  1  0
 20 16  1  0
 21 22  1  0
 21 19  1  0
 23 22  2  0
 23 24  1  0
 25 23  1  0
 26 25  2  0
 27 28  1  0
 27 25  1  0
 28 21  1  0
 29 28  2  0
  1 30  1  1
  3 31  1  0
  4 32  1  0
  7 33  1  0
  8 34  1  0
  9 35  1  0
 13 36  1  0
 13 37  1  0
 13 38  1  0
 14 39  1  0
 14 40  1  0
 17 41  1  0
 18 42  1  0
 22 43  1  0
 24 44  1  0
 24 45  1  0
 24 46  1  0
 27 47  1  0
M  ISO  8  30   8  31  14  32  14  33  14  34  14  35  14  36   8  37   8
M  ISO  8  38   8  39   8  40   8  41  14  42  14  43  14  44   8  45   8
M  ISO  2  46   8  47   9
M  END
>  <minimizedAffinity>  (1) 
-6.88772774

>  <minimizedRMSD>  (1) 
3.21710587

$$$$
