
     RDKit          3D

 37 39  0  0  1  0  0  0  0  0999 V2000
   33.0040   27.3950   48.0750 C   0  0  2  0  0  0  0  0  0  0  0  0
   36.0180   30.0660   48.7140 C   0  0  0  0  0  0  0  0  0  0  0  0
   35.8210   29.1720   49.7590 C   0  0  0  0  0  0  0  0  0  0  0  0
   34.8340   28.2650   49.6230 C   0  0  0  0  0  0  0  0  0  0  0  0
   34.1190   28.2740   48.5240 C   0  0  0  0  0  0  0  0  0  0  0  0
   34.7600   29.6240   47.4730 S   0  0  0  0  0  0  0  0  0  0  0  0
   37.9810   33.0760   49.4500 C   0  0  0  0  0  0  0  0  0  0  0  0
   38.9540   33.0880   48.4260 C   0  0  0  0  0  0  0  0  0  0  0  0
   38.9110   32.0630   47.5000 C   0  0  0  0  0  0  0  0  0  0  0  0
   37.9540   31.1060   47.6140 N   0  0  0  0  0  0  0  0  0  0  0  0
   37.0570   31.1530   48.6130 C   0  0  0  0  0  0  0  0  0  0  0  0
   37.0070   32.1230   49.5860 N   0  0  0  0  0  0  0  0  0  0  0  0
   32.9120   27.3940   46.6310 C   0  0  0  0  0  0  0  0  0  0  0  0
   31.7470   27.8320   48.8190 C   0  0  0  0  0  0  0  0  0  0  0  0
   30.7910   26.8890   48.8690 O   0  0  0  0  0  0  0  0  0  0  0  0
   29.5480   27.0480   48.2850 C   0  0  0  0  0  0  0  0  0  0  0  0
   28.7900   26.5580   47.2490 C   0  0  0  0  0  0  0  0  0  0  0  0
   27.5880   27.2450   47.3000 C   0  0  0  0  0  0  0  0  0  0  0  0
   27.6660   28.1140   48.3540 C   0  0  0  0  0  0  0  0  0  0  0  0
   28.8430   27.9580   48.9020 O   0  0  0  0  0  0  0  0  0  0  0  0
   26.5130   29.0000   48.6650 C   0  0  0  0  0  0  0  0  0  0  0  0
   25.4480   28.1330   48.9380 F   0  0  0  0  0  0  0  0  0  0  0  0
   26.7270   29.6940   49.8290 F   0  0  0  0  0  0  0  0  0  0  0  0
   26.1310   29.7600   47.6030 F   0  0  0  0  0  0  0  0  0  0  0  0
   33.1721   26.3374   48.3266 H   0  0  0  0  0  0  0  0  0  0  0  0
   36.4470   29.2034   50.6630 H   0  0  0  0  0  0  0  0  0  0  0  0
   34.6321   27.5319   50.4178 H   0  0  0  0  0  0  0  0  0  0  0  0
   38.0075   33.8893   50.1902 H   0  0  0  0  0  0  0  0  0  0  0  0
   39.7146   33.8806   48.3680 H   0  0  0  0  0  0  0  0  0  0  0  0
   39.6433   32.0227   46.6802 H   0  0  0  0  0  0  0  0  0  0  0  0
   31.8538   27.3825   46.3310 H   0  0  0  0  0  0  0  0  0  0  0  0
   33.3964   28.2975   46.2321 H   0  0  0  0  0  0  0  0  0  0  0  0
   33.4159   26.5013   46.2321 H   0  0  0  0  0  0  0  0  0  0  0  0
   32.0279   28.0961   49.8492 H   0  0  0  0  0  0  0  0  0  0  0  0
   31.3272   28.6848   48.2654 H   0  0  0  0  0  0  0  0  0  0  0  0
   29.0784   25.7798   46.5271 H   0  0  0  0  0  0  0  0  0  0  0  0
   26.7322   27.1161   46.6211 H   0  0  0  0  0  0  0  0  0  0  0  0
  1  5  1  0
  1 14  1  0
  2  3  2  0
  4  3  1  0
  5  4  2  0
  6  5  1  0
  6  2  1  0
  7 12  2  0
  8  7  1  0
  9 10  1  0
  9  8  2  0
 10 11  2  0
 11  2  1  0
 11 12  1  0
 13  1  1  0
 14 15  1  0
 16 15  1  0
 16 20  1  0
 17 18  1  0
 17 16  2  0
 18 19  2  0
 19 21  1  0
 19 20  1  0
 21 22  1  0
 21 23  1  0
 24 21  1  0
  1 25  1  1
  3 26  1  0
  4 27  1  0
  7 28  1  0
  8 29  1  0
  9 30  1  0
 13 31  1  0
 13 32  1  0
 13 33  1  0
 14 34  1  0
 14 35  1  0
 17 36  1  0
 18 37  1  0
M  ISO  8  25   8  26  14  27  14  28  14  29  14  30  14  31   8  32   8
M  ISO  5  33   8  34   8  35   8  36  14  37  14
M  END
>  <minimizedAffinity>  (1) 
-6.15789747

>  <minimizedRMSD>  (1) 
2.53476238

$$$$
