
     RDKit          3D

 37 39  0  0  1  0  0  0  0  0999 V2000
   32.9590   27.4280   47.9610 C   0  0  2  0  0  0  0  0  0  0  0  0
   35.9930   30.0550   48.6750 C   0  0  0  0  0  0  0  0  0  0  0  0
   35.7770   29.1470   49.7020 C   0  0  0  0  0  0  0  0  0  0  0  0
   34.7820   28.2490   49.5450 C   0  0  0  0  0  0  0  0  0  0  0  0
   34.0800   28.2880   48.4370 C   0  0  0  0  0  0  0  0  0  0  0  0
   34.7440   29.6480   47.4130 S   0  0  0  0  0  0  0  0  0  0  0  0
   37.9510   33.0450   49.4760 C   0  0  0  0  0  0  0  0  0  0  0  0
   38.9270   33.0780   48.4600 C   0  0  0  0  0  0  0  0  0  0  0  0
   38.8950   32.0740   47.5140 C   0  0  0  0  0  0  0  0  0  0  0  0
   37.9380   31.1080   47.5990 N   0  0  0  0  0  0  0  0  0  0  0  0
   37.0390   31.1380   48.5950 C   0  0  0  0  0  0  0  0  0  0  0  0
   36.9820   32.0940   49.5900 N   0  0  0  0  0  0  0  0  0  0  0  0
   32.8030   27.5480   46.5280 C   0  0  0  0  0  0  0  0  0  0  0  0
   31.7290   27.7740   48.7950 C   0  0  0  0  0  0  0  0  0  0  0  0
   30.8000   26.7770   48.8040 O   0  0  0  0  0  0  0  0  0  0  0  0
   29.5450   26.9500   48.2610 C   0  0  0  0  0  0  0  0  0  0  0  0
   28.9090   26.7390   47.0680 C   0  0  0  0  0  0  0  0  0  0  0  0
   27.6110   27.1610   47.2540 C   0  0  0  0  0  0  0  0  0  0  0  0
   27.5030   27.6110   48.5420 C   0  0  0  0  0  0  0  0  0  0  0  0
   28.6800   27.4610   49.0890 O   0  0  0  0  0  0  0  0  0  0  0  0
   26.2800   28.1520   49.1590 C   0  0  0  0  0  0  0  0  0  0  0  0
   26.1660   28.3390   50.3980 O   0  0  0  0  0  0  0  0  0  0  0  0
   25.1930   28.4760   48.3610 O   0  0  0  0  0  0  0  0  0  0  0  0
   33.1549   26.3562   48.1119 H   0  0  0  0  0  0  0  0  0  0  0  0
   36.3950   29.1588   50.6119 H   0  0  0  0  0  0  0  0  0  0  0  0
   34.5652   27.5042   50.3250 H   0  0  0  0  0  0  0  0  0  0  0  0
   37.9731   33.8444   50.2313 H   0  0  0  0  0  0  0  0  0  0  0  0
   39.6855   33.8738   48.4225 H   0  0  0  0  0  0  0  0  0  0  0  0
   39.6344   32.0538   46.6998 H   0  0  0  0  0  0  0  0  0  0  0  0
   31.9491   28.2049   46.3059 H   0  0  0  0  0  0  0  0  0  0  0  0
   33.7183   27.9771   46.0942 H   0  0  0  0  0  0  0  0  0  0  0  0
   32.6230   26.5533   46.0942 H   0  0  0  0  0  0  0  0  0  0  0  0
   32.0486   27.9660   49.8299 H   0  0  0  0  0  0  0  0  0  0  0  0
   31.2600   28.6599   48.3420 H   0  0  0  0  0  0  0  0  0  0  0  0
   29.3446   26.3189   46.1494 H   0  0  0  0  0  0  0  0  0  0  0  0
   26.8071   27.1401   46.5035 H   0  0  0  0  0  0  0  0  0  0  0  0
   24.3688   28.8399   48.7712 H   0  0  0  0  0  0  0  0  0  0  0  0
  1  5  1  0
  1 14  1  0
  2  3  2  0
  4  3  1  0
  5  4  2  0
  6  5  1  0
  6  2  1  0
  7 12  2  0
  8  7  1  0
  9 10  1  0
  9  8  2  0
 10 11  2  0
 11  2  1  0
 11 12  1  0
 13  1  1  0
 14 15  1  0
 16 15  1  0
 16 20  1  0
 17 18  1  0
 17 16  2  0
 18 19  2  0
 19 20  1  0
 19 21  1  0
 21 22  2  0
 23 21  1  0
  1 24  1  6
  3 25  1  0
  4 26  1  0
  7 27  1  0
  8 28  1  0
  9 29  1  0
 13 30  1  0
 13 31  1  0
 13 32  1  0
 14 33  1  0
 14 34  1  0
 17 35  1  0
 18 36  1  0
 23 37  1  0
M  ISO  8  24   8  25  14  26  14  27  14  28  14  29  14  30   8  31   8
M  ISO  6  32   8  33   8  34   8  35  14  36  14  37   3
M  END
>  <minimizedAffinity>  (1) 
-6.11156607

>  <minimizedRMSD>  (1) 
2.48931432

$$$$
