
     RDKit          3D

 44 47  0  0  1  0  0  0  0  0999 V2000
   31.5190   28.0310   46.6720 C   0  0  2  0  0  0  0  0  0  0  0  0
   34.8040   29.3940   48.6670 C   0  0  0  0  0  0  0  0  0  0  0  0
   34.1940   28.2970   49.2590 C   0  0  0  0  0  0  0  0  0  0  0  0
   33.0940   27.7910   48.6680 C   0  0  0  0  0  0  0  0  0  0  0  0
   32.6550   28.3570   47.5690 C   0  0  0  0  0  0  0  0  0  0  0  0
   33.7890   29.7430   47.2090 S   0  0  0  0  0  0  0  0  0  0  0  0
   37.5970   30.5150   50.7750 C   0  0  0  0  0  0  0  0  0  0  0  0
   38.3050   31.3890   49.9190 C   0  0  0  0  0  0  0  0  0  0  0  0
   37.8080   31.5830   48.6340 C   0  0  0  0  0  0  0  0  0  0  0  0
   36.6730   30.9280   48.2620 N   0  0  0  0  0  0  0  0  0  0  0  0
   36.0440   30.1090   49.1220 C   0  0  0  0  0  0  0  0  0  0  0  0
   36.4560   29.8540   50.4100 N   0  0  0  0  0  0  0  0  0  0  0  0
   31.5690   28.8240   45.4640 C   0  0  0  0  0  0  0  0  0  0  0  0
   30.2430   28.1590   47.4960 C   0  0  0  0  0  0  0  0  0  0  0  0
   29.3950   27.1120   47.3400 O   0  0  0  0  0  0  0  0  0  0  0  0
   28.6770   26.9210   46.1750 C   0  0  0  0  0  0  0  0  0  0  0  0
   28.4340   25.9250   45.2570 C   0  0  0  0  0  0  0  0  0  0  0  0
   27.5830   26.4830   44.3180 C   0  0  0  0  0  0  0  0  0  0  0  0
   27.3460   27.7780   44.6980 C   0  0  0  0  0  0  0  0  0  0  0  0
   28.0230   27.9780   45.8060 O   0  0  0  0  0  0  0  0  0  0  0  0
   26.5030   28.6540   43.9500 N   0  0  0  0  0  0  0  0  0  0  0  0
   27.0220   29.8640   43.6370 C   0  0  0  0  0  0  0  0  0  0  0  0
   26.2870   30.7860   42.9160 C   0  0  0  0  0  0  0  0  0  0  0  0
   24.9920   30.4870   42.4940 C   0  0  0  0  0  0  0  0  0  0  0  0
   24.2560   31.2780   41.8300 O   0  0  0  0  0  0  0  0  0  0  0  0
   24.5350   29.2670   42.8370 N   0  0  0  0  0  0  0  0  0  0  0  0
   25.2340   28.3700   43.5330 C   0  0  0  0  0  0  0  0  0  0  0  0
   24.8130   27.2320   43.8560 O   0  0  0  0  0  0  0  0  0  0  0  0
   31.5637   26.9980   46.2966 H   0  0  0  0  0  0  0  0  0  0  0  0
   34.5961   27.8543   50.1822 H   0  0  0  0  0  0  0  0  0  0  0  0
   32.5750   26.9216   49.0980 H   0  0  0  0  0  0  0  0  0  0  0  0
   37.9853   30.3573   51.7921 H   0  0  0  0  0  0  0  0  0  0  0  0
   39.2189   31.8990   50.2576 H   0  0  0  0  0  0  0  0  0  0  0  0
   38.3228   32.2538   47.9305 H   0  0  0  0  0  0  0  0  0  0  0  0
   31.6362   29.8898   45.7276 H   0  0  0  0  0  0  0  0  0  0  0  0
   32.4508   28.5362   44.8727 H   0  0  0  0  0  0  0  0  0  0  0  0
   30.6581   28.6492   44.8727 H   0  0  0  0  0  0  0  0  0  0  0  0
   30.5193   28.2289   48.5584 H   0  0  0  0  0  0  0  0  0  0  0  0
   29.7172   29.0587   47.1437 H   0  0  0  0  0  0  0  0  0  0  0  0
   28.8325   24.8998   45.2671 H   0  0  0  0  0  0  0  0  0  0  0  0
   27.1727   25.9794   43.4303 H   0  0  0  0  0  0  0  0  0  0  0  0
   28.0424   30.1171   43.9607 H   0  0  0  0  0  0  0  0  0  0  0  0
   26.7274   31.7642   42.6729 H   0  0  0  0  0  0  0  0  0  0  0  0
   23.5822   29.0101   42.5419 H   0  0  0  0  0  0  0  0  0  0  0  0
  1 14  1  0
  1  5  1  0
  2 11  1  0
  2  3  2  0
  4  3  1  0
  5  4  2  0
  6  5  1  0
  6  2  1  0
  8  7  2  0
  9  8  1  0
 10  9  2  0
 10 11  1  0
 11 12  2  0
 12  7  1  0
 13  1  1  0
 15 14  1  0
 16 15  1  0
 17 16  2  0
 18 19  2  0
 18 17  1  0
 19 20  1  0
 20 16  1  0
 21 19  1  0
 22 21  1  0
 23 22  2  0
 24 26  1  0
 24 23  1  0
 25 24  2  0
 26 27  1  0
 27 28  2  0
 27 21  1  0
  1 29  1  6
  3 30  1  0
  4 31  1  0
  7 32  1  0
  8 33  1  0
  9 34  1  0
 13 35  1  0
 13 36  1  0
 13 37  1  0
 14 38  1  0
 14 39  1  0
 17 40  1  0
 18 41  1  0
 22 42  1  0
 23 43  1  0
 26 44  1  0
M  ISO  8  29   8  30  14  31  14  32  14  33  14  34  14  35   8  36   8
M  ISO  8  37   8  38   8  39   8  40  14  41  14  42  14  43  14  44   9
M  END
>  <minimizedAffinity>  (1) 
-5.67947531

>  <minimizedRMSD>  (1) 
0.967023909

$$$$
