
     RDKit          3D

 47 50  0  0  1  0  0  0  0  0999 V2000
   31.7730   27.9410   46.7440 C   0  0  2  0  0  0  0  0  0  0  0  0
   35.0840   29.4570   48.5500 C   0  0  0  0  0  0  0  0  0  0  0  0
   34.6360   28.2810   49.1380 C   0  0  0  0  0  0  0  0  0  0  0  0
   33.5170   27.7300   48.5790 C   0  0  0  0  0  0  0  0  0  0  0  0
   32.9530   28.3240   47.5560 C   0  0  0  0  0  0  0  0  0  0  0  0
   33.9340   29.8180   47.1890 S   0  0  0  0  0  0  0  0  0  0  0  0
   37.8980   30.7630   50.5320 C   0  0  0  0  0  0  0  0  0  0  0  0
   38.4760   31.7150   49.6830 C   0  0  0  0  0  0  0  0  0  0  0  0
   37.8920   31.9010   48.4390 C   0  0  0  0  0  0  0  0  0  0  0  0
   36.7930   31.1590   48.0960 N   0  0  0  0  0  0  0  0  0  0  0  0
   36.2900   30.2620   48.9590 C   0  0  0  0  0  0  0  0  0  0  0  0
   36.8010   30.0110   50.2110 N   0  0  0  0  0  0  0  0  0  0  0  0
   31.6610   28.7860   45.5760 C   0  0  0  0  0  0  0  0  0  0  0  0
   30.5540   27.9060   47.6600 C   0  0  0  0  0  0  0  0  0  0  0  0
   29.9320   26.7080   47.6920 O   0  0  0  0  0  0  0  0  0  0  0  0
   29.2990   26.1760   46.5900 C   0  0  0  0  0  0  0  0  0  0  0  0
   29.2030   24.9770   45.9210 C   0  0  0  0  0  0  0  0  0  0  0  0
   28.3580   25.1790   44.8570 C   0  0  0  0  0  0  0  0  0  0  0  0
   27.9740   26.4940   44.9200 C   0  0  0  0  0  0  0  0  0  0  0  0
   28.5480   27.0470   45.9530 O   0  0  0  0  0  0  0  0  0  0  0  0
   27.0390   27.1010   43.9120 C   0  0  0  0  0  0  0  0  0  0  0  0
   26.2380   26.0600   43.2180 C   0  0  0  0  0  0  0  0  0  0  0  0
   24.9610   26.7800   42.8270 C   0  0  0  0  0  0  0  0  0  0  0  0
   24.9740   28.1090   43.5650 C   0  0  0  0  0  0  0  0  0  0  0  0
   26.0100   27.8910   44.6760 C   0  0  0  0  0  0  0  0  0  0  0  0
   31.8728   26.9293   46.3238 H   0  0  0  0  0  0  0  0  0  0  0  0
   35.1482   27.8232   49.9971 H   0  0  0  0  0  0  0  0  0  0  0  0
   33.0945   26.7983   48.9833 H   0  0  0  0  0  0  0  0  0  0  0  0
   38.3554   30.6100   51.5206 H   0  0  0  0  0  0  0  0  0  0  0  0
   39.3596   32.2932   49.9911 H   0  0  0  0  0  0  0  0  0  0  0  0
   38.3072   32.6370   47.7348 H   0  0  0  0  0  0  0  0  0  0  0  0
   31.5225   29.8307   45.8912 H   0  0  0  0  0  0  0  0  0  0  0  0
   32.5780   28.7031   44.9741 H   0  0  0  0  0  0  0  0  0  0  0  0
   30.7973   28.4670   44.9741 H   0  0  0  0  0  0  0  0  0  0  0  0
   30.8796   28.1554   48.6807 H   0  0  0  0  0  0  0  0  0  0  0  0
   29.8311   28.6323   47.2601 H   0  0  0  0  0  0  0  0  0  0  0  0
   29.7069   24.0363   46.1876 H   0  0  0  0  0  0  0  0  0  0  0  0
   28.0513   24.4360   44.1061 H   0  0  0  0  0  0  0  0  0  0  0  0
   27.6414   27.6827   43.1988 H   0  0  0  0  0  0  0  0  0  0  0  0
   26.7663   25.6892   42.3273 H   0  0  0  0  0  0  0  0  0  0  0  0
   26.0510   25.1787   43.8492 H   0  0  0  0  0  0  0  0  0  0  0  0
   24.9369   26.9486   41.7403 H   0  0  0  0  0  0  0  0  0  0  0  0
   24.0726   26.1869   43.0896 H   0  0  0  0  0  0  0  0  0  0  0  0
   25.2804   28.9271   42.8965 H   0  0  0  0  0  0  0  0  0  0  0  0
   23.9845   28.3944   43.9516 H   0  0  0  0  0  0  0  0  0  0  0  0
   25.5940   27.3165   45.5168 H   0  0  0  0  0  0  0  0  0  0  0  0
   26.3854   28.8098   45.1502 H   0  0  0  0  0  0  0  0  0  0  0  0
  1  5  1  0
  1 14  1  0
  2 11  1  0
  2  3  2  0
  4  3  1  0
  5  4  2  0
  6  5  1  0
  6  2  1  0
  8  7  2  0
  9  8  1  0
 10  9  2  0
 10 11  1  0
 11 12  2  0
 12  7  1  0
 13  1  1  0
 14 15  1  0
 16 15  1  0
 17 16  2  0
 18 19  2  0
 18 17  1  0
 19 20  1  0
 20 16  1  0
 21 25  1  0
 21 19  1  0
 22 21  1  0
 23 22  1  0
 23 24  1  0
 24 25  1  0
  1 26  1  6
  3 27  1  0
  4 28  1  0
  7 29  1  0
  8 30  1  0
  9 31  1  0
 13 32  1  0
 13 33  1  0
 13 34  1  0
 14 35  1  0
 14 36  1  0
 17 37  1  0
 18 38  1  0
 21 39  1  0
 22 40  1  0
 22 41  1  0
 23 42  1  0
 23 43  1  0
 24 44  1  0
 24 45  1  0
 25 46  1  0
 25 47  1  0
M  ISO  8  26   8  27  14  28  14  29  14  30  14  31  14  32   8  33   8
M  ISO  8  34   8  35   8  36   8  37  14  38  14  39  13  40  13  41  13
M  ISO  6  42  13  43  13  44  13  45  13  46  13  47  13
M  END
>  <minimizedAffinity>  (1) 
-5.28701639

>  <minimizedRMSD>  (1) 
0.499534845

$$$$
