
     RDKit          3D

 43 46  0  0  1  0  0  0  0  0999 V2000
   31.8170   27.9240   46.9820 C   0  0  2  0  0  0  0  0  0  0  0  0
   35.1510   29.5320   48.6580 C   0  0  0  0  0  0  0  0  0  0  0  0
   34.7420   28.3380   49.2630 C   0  0  0  0  0  0  0  0  0  0  0  0
   33.6340   27.7570   48.7620 C   0  0  0  0  0  0  0  0  0  0  0  0
   33.0170   28.3340   47.7590 C   0  0  0  0  0  0  0  0  0  0  0  0
   33.9500   29.8490   47.3550 S   0  0  0  0  0  0  0  0  0  0  0  0
   38.0410   30.8620   50.5110 C   0  0  0  0  0  0  0  0  0  0  0  0
   38.5830   31.8030   49.6190 C   0  0  0  0  0  0  0  0  0  0  0  0
   37.9440   31.9760   48.3950 C   0  0  0  0  0  0  0  0  0  0  0  0
   36.8420   31.2340   48.1290 N   0  0  0  0  0  0  0  0  0  0  0  0
   36.3700   30.3480   49.0230 C   0  0  0  0  0  0  0  0  0  0  0  0
   36.9280   30.1050   50.2540 N   0  0  0  0  0  0  0  0  0  0  0  0
   31.6420   28.7730   45.8260 C   0  0  0  0  0  0  0  0  0  0  0  0
   30.6370   27.8630   47.9460 C   0  0  0  0  0  0  0  0  0  0  0  0
   29.9450   26.6970   47.8650 O   0  0  0  0  0  0  0  0  0  0  0  0
   29.2090   26.3530   46.7470 C   0  0  0  0  0  0  0  0  0  0  0  0
   29.0050   25.2580   45.9430 C   0  0  0  0  0  0  0  0  0  0  0  0
   28.1010   25.6870   44.9860 C   0  0  0  0  0  0  0  0  0  0  0  0
   27.7910   26.9990   45.2340 C   0  0  0  0  0  0  0  0  0  0  0  0
   28.4850   27.3320   46.2950 O   0  0  0  0  0  0  0  0  0  0  0  0
   26.8620   27.7750   44.4170 C   0  0  0  0  0  0  0  0  0  0  0  0
   25.8690   27.1960   43.6680 C   0  0  0  0  0  0  0  0  0  0  0  0
   24.9900   27.9200   42.8960 C   0  0  0  0  0  0  0  0  0  0  0  0
   25.1750   29.2910   42.9270 C   0  0  0  0  0  0  0  0  0  0  0  0
   26.1630   29.8890   43.6720 C   0  0  0  0  0  0  0  0  0  0  0  0
   27.0140   29.1310   44.4240 N   0  0  0  0  0  0  0  0  0  0  0  0
   31.9245   26.9186   46.5490 H   0  0  0  0  0  0  0  0  0  0  0  0
   35.2965   27.8965   50.1042 H   0  0  0  0  0  0  0  0  0  0  0  0
   33.2542   26.8160   49.1866 H   0  0  0  0  0  0  0  0  0  0  0  0
   38.5435   30.7239   51.4797 H   0  0  0  0  0  0  0  0  0  0  0  0
   39.4810   32.3826   49.8793 H   0  0  0  0  0  0  0  0  0  0  0  0
   38.3253   32.6995   47.6594 H   0  0  0  0  0  0  0  0  0  0  0  0
   31.4301   29.8011   46.1548 H   0  0  0  0  0  0  0  0  0  0  0  0
   32.5610   28.7634   45.2216 H   0  0  0  0  0  0  0  0  0  0  0  0
   30.8017   28.4008   45.2216 H   0  0  0  0  0  0  0  0  0  0  0  0
   31.0167   27.9746   48.9723 H   0  0  0  0  0  0  0  0  0  0  0  0
   29.9468   28.6748   47.6729 H   0  0  0  0  0  0  0  0  0  0  0  0
   29.4594   24.2608   46.0384 H   0  0  0  0  0  0  0  0  0  0  0  0
   27.6987   25.0768   44.1639 H   0  0  0  0  0  0  0  0  0  0  0  0
   25.7709   26.1005   43.6856 H   0  0  0  0  0  0  0  0  0  0  0  0
   24.1986   27.4442   42.2983 H   0  0  0  0  0  0  0  0  0  0  0  0
   24.5043   29.9278   42.3314 H   0  0  0  0  0  0  0  0  0  0  0  0
   26.2687   30.9839   43.6624 H   0  0  0  0  0  0  0  0  0  0  0  0
  1  5  1  0
  1 14  1  0
  2 11  1  0
  2  3  2  0
  4  3  1  0
  5  4  2  0
  6  5  1  0
  6  2  1  0
  8  7  2  0
  9  8  1  0
 10  9  2  0
 10 11  1  0
 11 12  2  0
 12  7  1  0
 13  1  1  0
 15 14  1  0
 16 15  1  0
 17 16  2  0
 18 19  2  0
 18 17  1  0
 19 20  1  0
 20 16  1  0
 21 26  1  0
 21 19  1  0
 22 21  2  0
 23 24  2  0
 23 22  1  0
 24 25  1  0
 25 26  2  0
  1 27  1  6
  3 28  1  0
  4 29  1  0
  7 30  1  0
  8 31  1  0
  9 32  1  0
 13 33  1  0
 13 34  1  0
 13 35  1  0
 14 36  1  0
 14 37  1  0
 17 38  1  0
 18 39  1  0
 22 40  1  0
 23 41  1  0
 24 42  1  0
 25 43  1  0
M  ISO  8  27   8  28  14  29  14  30  14  31  14  32  14  33   8  34   8
M  ISO  8  35   8  36   8  37   8  38  14  39  14  40  14  41  14  42  14
M  ISO  1  43  14
M  END
>  <minimizedAffinity>  (1) 
-5.2143116

>  <minimizedRMSD>  (1) 
0.322033435

$$$$
