
     RDKit          3D

 42 45  0  0  1  0  0  0  0  0999 V2000
   31.9030   27.8690   46.9990 C   0  0  2  0  0  0  0  0  0  0  0  0
   35.2170   29.5350   48.6770 C   0  0  0  0  0  0  0  0  0  0  0  0
   34.8140   28.3290   49.2840 C   0  0  0  0  0  0  0  0  0  0  0  0
   33.7160   27.7310   48.7830 C   0  0  0  0  0  0  0  0  0  0  0  0
   33.0950   28.2970   47.7770 C   0  0  0  0  0  0  0  0  0  0  0  0
   34.0090   29.8260   47.3700 S   0  0  0  0  0  0  0  0  0  0  0  0
   38.0790   30.8960   50.5350 C   0  0  0  0  0  0  0  0  0  0  0  0
   38.6050   31.8460   49.6550 C   0  0  0  0  0  0  0  0  0  0  0  0
   37.9640   32.0170   48.4300 C   0  0  0  0  0  0  0  0  0  0  0  0
   36.8740   31.2590   48.1560 N   0  0  0  0  0  0  0  0  0  0  0  0
   36.4160   30.3610   49.0440 C   0  0  0  0  0  0  0  0  0  0  0  0
   36.9780   30.1220   50.2750 N   0  0  0  0  0  0  0  0  0  0  0  0
   31.7170   28.7150   45.8420 C   0  0  0  0  0  0  0  0  0  0  0  0
   30.7290   27.7870   47.9670 C   0  0  0  0  0  0  0  0  0  0  0  0
   30.0260   26.6400   47.8740 O   0  0  0  0  0  0  0  0  0  0  0  0
   29.2670   26.3290   46.7640 C   0  0  0  0  0  0  0  0  0  0  0  0
   29.0250   25.2490   45.9340 C   0  0  0  0  0  0  0  0  0  0  0  0
   28.1120   25.7220   45.0060 C   0  0  0  0  0  0  0  0  0  0  0  0
   27.8350   27.0320   45.2910 C   0  0  0  0  0  0  0  0  0  0  0  0
   28.5540   27.3280   46.3450 O   0  0  0  0  0  0  0  0  0  0  0  0
   26.9040   27.8320   44.5000 C   0  0  0  0  0  0  0  0  0  0  0  0
   26.9830   29.1870   44.3780 C   0  0  0  0  0  0  0  0  0  0  0  0
   26.0830   29.9080   43.6210 C   0  0  0  0  0  0  0  0  0  0  0  0
   25.0950   29.2490   42.9820 N   0  0  0  0  0  0  0  0  0  0  0  0
   25.0150   27.9030   43.1020 C   0  0  0  0  0  0  0  0  0  0  0  0
   25.8990   27.1790   43.8490 N   0  0  0  0  0  0  0  0  0  0  0  0
   32.0218   26.8670   46.5611 H   0  0  0  0  0  0  0  0  0  0  0  0
   35.3705   27.8958   50.1282 H   0  0  0  0  0  0  0  0  0  0  0  0
   33.3477   26.7864   49.2096 H   0  0  0  0  0  0  0  0  0  0  0  0
   38.5834   30.7601   51.5030 H   0  0  0  0  0  0  0  0  0  0  0  0
   39.4936   32.4376   49.9203 H   0  0  0  0  0  0  0  0  0  0  0  0
   38.3346   32.7519   47.7002 H   0  0  0  0  0  0  0  0  0  0  0  0
   31.4915   29.7405   46.1700 H   0  0  0  0  0  0  0  0  0  0  0  0
   32.6361   28.7171   45.2377 H   0  0  0  0  0  0  0  0  0  0  0  0
   30.8818   28.3313   45.2377 H   0  0  0  0  0  0  0  0  0  0  0  0
   31.1182   27.8731   48.9922 H   0  0  0  0  0  0  0  0  0  0  0  0
   30.0419   28.6058   47.7074 H   0  0  0  0  0  0  0  0  0  0  0  0
   29.4601   24.2407   45.9969 H   0  0  0  0  0  0  0  0  0  0  0  0
   27.6809   25.1412   44.1773 H   0  0  0  0  0  0  0  0  0  0  0  0
   27.7899   29.7227   44.8996 H   0  0  0  0  0  0  0  0  0  0  0  0
   26.1697   31.0016   43.5400 H   0  0  0  0  0  0  0  0  0  0  0  0
   24.2067   27.3723   42.5775 H   0  0  0  0  0  0  0  0  0  0  0  0
  1  5  1  0
  1 14  1  0
  2 11  1  0
  2  3  2  0
  4  3  1  0
  5  4  2  0
  6  5  1  0
  6  2  1  0
  8  7  2  0
  9  8  1  0
 10  9  2  0
 10 11  1  0
 11 12  2  0
 12  7  1  0
 13  1  1  0
 15 14  1  0
 16 15  1  0
 17 16  2  0
 18 19  2  0
 18 17  1  0
 19 20  1  0
 20 16  1  0
 21 19  1  0
 22 21  2  0
 23 22  1  0
 24 25  1  0
 24 23  2  0
 25 26  2  0
 26 21  1  0
  1 27  1  6
  3 28  1  0
  4 29  1  0
  7 30  1  0
  8 31  1  0
  9 32  1  0
 13 33  1  0
 13 34  1  0
 13 35  1  0
 14 36  1  0
 14 37  1  0
 17 38  1  0
 18 39  1  0
 22 40  1  0
 23 41  1  0
 25 42  1  0
M  ISO  8  27   8  28  14  29  14  30  14  31  14  32  14  33   8  34   8
M  ISO  8  35   8  36   8  37   8  38  14  39  14  40  14  41  14  42  14
M  END
>  <minimizedAffinity>  (1) 
-5.19032383

>  <minimizedRMSD>  (1) 
0.413917005

$$$$
