
     RDKit          3D

 17 18  0  0  0  0  0  0  0  0999 V2000
   38.0610   33.1300   49.4760 C   0  0  0  0  0  0  0  0  0  0  0  0
   38.9980   33.1560   48.4170 C   0  0  0  0  0  0  0  0  0  0  0  0
   38.8740   32.1760   47.4320 C   0  0  0  0  0  0  0  0  0  0  0  0
   37.8790   31.2590   47.5350 N   0  0  0  0  0  0  0  0  0  0  0  0
   37.0010   31.2740   48.5710 C   0  0  0  0  0  0  0  0  0  0  0  0
   37.0950   32.2020   49.5300 N   0  0  0  0  0  0  0  0  0  0  0  0
   35.9450   30.3260   48.7070 N   0  0  0  0  0  0  0  0  0  0  0  0
   34.6920   30.2610   48.2940 N   0  0  0  0  0  0  0  0  0  0  0  0
   34.1050   29.1380   48.6950 C   0  0  0  0  0  0  0  0  0  0  0  0
   35.0340   28.4030   49.4270 C   0  0  0  0  0  0  0  0  0  0  0  0
   36.1860   29.1840   49.4150 C   0  0  0  0  0  0  0  0  0  0  0  0
   38.1262   33.8867   50.2717 H   0  0  0  0  0  0  0  0  0  0  0  0
   39.7911   33.9169   48.3719 H   0  0  0  0  0  0  0  0  0  0  0  0
   39.5732   32.1469   46.5833 H   0  0  0  0  0  0  0  0  0  0  0  0
   33.0668   28.8411   48.4853 H   0  0  0  0  0  0  0  0  0  0  0  0
   34.8897   27.4240   49.9073 H   0  0  0  0  0  0  0  0  0  0  0  0
   37.1387   28.9227   49.8988 H   0  0  0  0  0  0  0  0  0  0  0  0
  1  6  2  0
  2  1  1  0
  3  4  1  0
  3  2  2  0
  4  5  2  0
  5  7  1  0
  5  6  1  0
  7 11  1  0
  8  9  2  0
  8  7  1  0
  9 10  1  0
 11 10  2  0
  1 12  1  0
  2 13  1  0
  3 14  1  0
  9 15  1  0
 10 16  1  0
 11 17  1  0
M  ISO  6  12  14  13  14  14  14  15  14  16  14  17  14
M  END
>  <minimizedAffinity>  (1) 
-4.34031439

>  <minimizedRMSD>  (1) 
2.79579687

$$$$
