
     RDKit          3D

 11 11  0  0  0  0  0  0  0  0999 V2000
   37.3000   30.2470   51.4630 C   0  0  0  0  0  0  0  0  0  0  0  0
   38.1500   30.7680   50.4770 C   0  0  0  0  0  0  0  0  0  0  0  0
   37.8990   30.4340   49.1430 C   0  0  0  0  0  0  0  0  0  0  0  0
   36.8290   29.6120   48.8800 N   0  0  0  0  0  0  0  0  0  0  0  0
   36.0410   29.1360   49.8600 C   0  0  0  0  0  0  0  0  0  0  0  0
   36.2730   29.4510   51.1550 N   0  0  0  0  0  0  0  0  0  0  0  0
   38.6360   30.8620   48.0700 O   0  0  0  0  0  0  0  0  0  0  0  0
   37.4839   30.5005   52.5175 H   0  0  0  0  0  0  0  0  0  0  0  0
   38.9922   31.4224   50.7462 H   0  0  0  0  0  0  0  0  0  0  0  0
   35.1951   28.4807   49.6049 H   0  0  0  0  0  0  0  0  0  0  0  0
   38.3889   30.5773   47.1546 H   0  0  0  0  0  0  0  0  0  0  0  0
  2  1  2  0
  3  2  1  0
  4  3  2  0
  4  5  1  0
  5  6  2  0
  6  1  1  0
  7  3  1  0
  1  8  1  0
  2  9  1  0
  5 10  1  0
  7 11  1  0
M  ISO  4   8  14   9  14  10  14  11   3
M  END
>  <minimizedAffinity>  (1) 
-3.38017273

>  <minimizedRMSD>  (1) 
0.171815023

$$$$
