
     RDKit          3D

 41 44  0  0  1  0  0  0  0  0999 V2000
   31.7980   27.9340   46.9660 C   0  0  2  0  0  0  0  0  0  0  0  0
   35.1620   29.5060   48.6560 C   0  0  0  0  0  0  0  0  0  0  0  0
   34.7290   28.3260   49.2440 C   0  0  0  0  0  0  0  0  0  0  0  0
   33.6160   27.7480   48.7500 C   0  0  0  0  0  0  0  0  0  0  0  0
   33.0090   28.3320   47.7440 C   0  0  0  0  0  0  0  0  0  0  0  0
   33.9530   29.8400   47.3330 S   0  0  0  0  0  0  0  0  0  0  0  0
   38.0300   30.8450   50.5060 C   0  0  0  0  0  0  0  0  0  0  0  0
   38.5680   31.8000   49.6180 C   0  0  0  0  0  0  0  0  0  0  0  0
   37.9380   31.9700   48.4060 C   0  0  0  0  0  0  0  0  0  0  0  0
   36.8360   31.2220   48.1190 N   0  0  0  0  0  0  0  0  0  0  0  0
   36.3730   30.3270   49.0070 C   0  0  0  0  0  0  0  0  0  0  0  0
   36.9270   30.0730   50.2530 N   0  0  0  0  0  0  0  0  0  0  0  0
   31.6300   28.7900   45.8120 C   0  0  0  0  0  0  0  0  0  0  0  0
   30.6230   27.8780   47.9350 C   0  0  0  0  0  0  0  0  0  0  0  0
   29.9260   26.7140   47.8670 O   0  0  0  0  0  0  0  0  0  0  0  0
   29.1980   26.3630   46.7520 C   0  0  0  0  0  0  0  0  0  0  0  0
   28.9930   25.2930   45.9210 C   0  0  0  0  0  0  0  0  0  0  0  0
   28.0920   25.6680   44.9680 C   0  0  0  0  0  0  0  0  0  0  0  0
   27.7760   26.9610   45.2520 C   0  0  0  0  0  0  0  0  0  0  0  0
   28.4380   27.3470   46.3030 O   0  0  0  0  0  0  0  0  0  0  0  0
   26.8130   27.7610   44.4470 C   0  0  0  0  0  0  0  0  0  0  0  0
   25.6150   27.4120   43.8000 C   0  0  0  0  0  0  0  0  0  0  0  0
   25.0040   28.4280   43.1560 C   0  0  0  0  0  0  0  0  0  0  0  0
   25.4550   29.7140   43.0940 C   0  0  0  0  0  0  0  0  0  0  0  0
   27.0570   29.5220   44.1320 S   0  0  0  0  0  0  0  0  0  0  0  0
   31.8912   26.9297   46.5271 H   0  0  0  0  0  0  0  0  0  0  0  0
   35.2763   27.8769   50.0859 H   0  0  0  0  0  0  0  0  0  0  0  0
   33.2273   26.8124   49.1785 H   0  0  0  0  0  0  0  0  0  0  0  0
   38.5341   30.7101   51.4744 H   0  0  0  0  0  0  0  0  0  0  0  0
   39.4589   32.3876   49.8845 H   0  0  0  0  0  0  0  0  0  0  0  0
   38.3197   32.7009   47.6780 H   0  0  0  0  0  0  0  0  0  0  0  0
   31.4281   29.8188   46.1449 H   0  0  0  0  0  0  0  0  0  0  0  0
   32.5484   28.7740   45.2068 H   0  0  0  0  0  0  0  0  0  0  0  0
   30.7858   28.4281   45.2068 H   0  0  0  0  0  0  0  0  0  0  0  0
   31.0086   27.9949   48.9586 H   0  0  0  0  0  0  0  0  0  0  0  0
   29.9326   28.6881   47.6574 H   0  0  0  0  0  0  0  0  0  0  0  0
   29.4707   24.3059   46.0072 H   0  0  0  0  0  0  0  0  0  0  0  0
   27.7024   25.0539   44.1427 H   0  0  0  0  0  0  0  0  0  0  0  0
   25.2075   26.3904   43.8174 H   0  0  0  0  0  0  0  0  0  0  0  0
   24.0616   28.1999   42.6365 H   0  0  0  0  0  0  0  0  0  0  0  0
   25.0276   30.5974   42.5971 H   0  0  0  0  0  0  0  0  0  0  0  0
  1  5  1  0
  1 14  1  0
  2 11  1  0
  2  3  2  0
  4  3  1  0
  5  4  2  0
  6  5  1  0
  6  2  1  0
  8  7  2  0
  9  8  1  0
 10  9  2  0
 10 11  1  0
 11 12  2  0
 12  7  1  0
 13  1  1  0
 15 14  1  0
 16 15  1  0
 17 16  2  0
 18 19  2  0
 18 17  1  0
 19 20  1  0
 20 16  1  0
 21 19  1  0
 22 21  2  0
 23 22  1  0
 24 23  2  0
 24 25  1  0
 25 21  1  0
  1 26  1  6
  3 27  1  0
  4 28  1  0
  7 29  1  0
  8 30  1  0
  9 31  1  0
 13 32  1  0
 13 33  1  0
 13 34  1  0
 14 35  1  0
 14 36  1  0
 17 37  1  0
 18 38  1  0
 22 39  1  0
 23 40  1  0
 24 41  1  0
M  ISO  8  26   8  27  14  28  14  29  14  30  14  31  14  32   8  33   8
M  ISO  8  34   8  35   8  36   8  37  14  38  14  39  14  40  14  41  14
M  END
>  <minimizedAffinity>  (1) 
-5.10055399

>  <minimizedRMSD>  (1) 
0.146735683

$$$$
