
     RDKit          3D

 40 43  0  0  1  0  0  0  0  0999 V2000
   31.8500   27.9030   46.9960 C   0  0  2  0  0  0  0  0  0  0  0  0
   35.1830   29.5220   48.6670 C   0  0  0  0  0  0  0  0  0  0  0  0
   34.7810   28.3420   49.2810 C   0  0  0  0  0  0  0  0  0  0  0  0
   33.6590   27.7510   48.7790 C   0  0  0  0  0  0  0  0  0  0  0  0
   33.0430   28.3180   47.7710 C   0  0  0  0  0  0  0  0  0  0  0  0
   33.9780   29.8310   47.3560 S   0  0  0  0  0  0  0  0  0  0  0  0
   38.0570   30.8730   50.5250 C   0  0  0  0  0  0  0  0  0  0  0  0
   38.5880   31.8220   49.6370 C   0  0  0  0  0  0  0  0  0  0  0  0
   37.9450   31.9840   48.4200 C   0  0  0  0  0  0  0  0  0  0  0  0
   36.8520   31.2360   48.1370 N   0  0  0  0  0  0  0  0  0  0  0  0
   36.3920   30.3430   49.0290 C   0  0  0  0  0  0  0  0  0  0  0  0
   36.9540   30.1060   50.2620 N   0  0  0  0  0  0  0  0  0  0  0  0
   31.6780   28.7350   45.8280 C   0  0  0  0  0  0  0  0  0  0  0  0
   30.6670   27.8490   47.9520 C   0  0  0  0  0  0  0  0  0  0  0  0
   29.9590   26.6990   47.8700 O   0  0  0  0  0  0  0  0  0  0  0  0
   29.2350   26.3430   46.7500 C   0  0  0  0  0  0  0  0  0  0  0  0
   29.0490   25.2540   45.9450 C   0  0  0  0  0  0  0  0  0  0  0  0
   28.1480   25.6520   44.9850 C   0  0  0  0  0  0  0  0  0  0  0  0
   27.8110   26.9780   45.2370 C   0  0  0  0  0  0  0  0  0  0  0  0
   28.5020   27.3120   46.3030 O   0  0  0  0  0  0  0  0  0  0  0  0
   26.8680   27.8070   44.4480 C   0  0  0  0  0  0  0  0  0  0  0  0
   27.1820   29.1030   44.0520 C   0  0  0  0  0  0  0  0  0  0  0  0
   25.6730   29.6250   43.1230 S   0  0  0  0  0  0  0  0  0  0  0  0
   24.8710   27.9360   43.4550 C   0  0  0  0  0  0  0  0  0  0  0  0
   25.6630   27.3920   44.0550 N   0  0  0  0  0  0  0  0  0  0  0  0
   31.9624   26.8931   46.5746 H   0  0  0  0  0  0  0  0  0  0  0  0
   35.3370   27.9085   50.1253 H   0  0  0  0  0  0  0  0  0  0  0  0
   33.2779   26.8147   49.2127 H   0  0  0  0  0  0  0  0  0  0  0  0
   38.5594   30.7371   51.4941 H   0  0  0  0  0  0  0  0  0  0  0  0
   39.4785   32.4132   49.8967 H   0  0  0  0  0  0  0  0  0  0  0  0
   38.3199   32.7153   47.6888 H   0  0  0  0  0  0  0  0  0  0  0  0
   31.4645   29.7675   46.1415 H   0  0  0  0  0  0  0  0  0  0  0  0
   32.5988   28.7174   45.2265 H   0  0  0  0  0  0  0  0  0  0  0  0
   30.8397   28.3537   45.2265 H   0  0  0  0  0  0  0  0  0  0  0  0
   31.0449   27.9527   48.9798 H   0  0  0  0  0  0  0  0  0  0  0  0
   29.9877   28.6678   47.6727 H   0  0  0  0  0  0  0  0  0  0  0  0
   29.5214   24.2656   46.0443 H   0  0  0  0  0  0  0  0  0  0  0  0
   27.7620   25.0313   44.1630 H   0  0  0  0  0  0  0  0  0  0  0  0
   28.1014   29.6754   44.2444 H   0  0  0  0  0  0  0  0  0  0  0  0
   23.8805   27.5746   43.1416 H   0  0  0  0  0  0  0  0  0  0  0  0
  1  5  1  0
  1 14  1  0
  2 11  1  0
  2  3  2  0
  4  3  1  0
  5  4  2  0
  6  5  1  0
  6  2  1  0
  8  7  2  0
  9  8  1  0
 10  9  2  0
 10 11  1  0
 11 12  2  0
 12  7  1  0
 13  1  1  0
 15 14  1  0
 16 15  1  0
 17 16  2  0
 18 19  2  0
 18 17  1  0
 19 20  1  0
 20 16  1  0
 21 19  1  0
 22 21  2  0
 23 24  1  0
 23 22  1  0
 24 25  2  0
 25 21  1  0
  1 26  1  6
  3 27  1  0
  4 28  1  0
  7 29  1  0
  8 30  1  0
  9 31  1  0
 13 32  1  0
 13 33  1  0
 13 34  1  0
 14 35  1  0
 14 36  1  0
 17 37  1  0
 18 38  1  0
 22 39  1  0
 24 40  1  0
M  ISO  8  26   8  27  14  28  14  29  14  30  14  31  14  32   8  33   8
M  ISO  7  34   8  35   8  36   8  37  14  38  14  39  14  40  14
M  END
>  <minimizedAffinity>  (1) 
-5.03101826

>  <minimizedRMSD>  (1) 
0.287051171

$$$$
