
     RDKit          3D

 11 11  0  0  0  0  0  0  0  0999 V2000
   37.4680   30.2610   51.3620 C   0  0  0  0  0  0  0  0  0  0  0  0
   38.1040   30.9740   50.3230 C   0  0  0  0  0  0  0  0  0  0  0  0
   37.7190   30.6740   49.0150 C   0  0  0  0  0  0  0  0  0  0  0  0
   36.7660   29.7270   48.8110 N   0  0  0  0  0  0  0  0  0  0  0  0
   36.1780   29.0660   49.8300 C   0  0  0  0  0  0  0  0  0  0  0  0
   36.5370   29.3410   51.0930 N   0  0  0  0  0  0  0  0  0  0  0  0
   38.4770   31.5320   47.6440 S   0  0  0  0  0  0  0  0  0  0  0  0
   37.7425   30.4655   52.4074 H   0  0  0  0  0  0  0  0  0  0  0  0
   38.8706   31.7339   50.5349 H   0  0  0  0  0  0  0  0  0  0  0  0
   35.4090   28.3063   49.6263 H   0  0  0  0  0  0  0  0  0  0  0  0
   39.3272   32.4944   48.1214 H   0  0  0  0  0  0  0  0  0  0  0  0
  2  1  2  0
  3  2  1  0
  4  3  2  0
  4  5  1  0
  5  6  2  0
  6  1  1  0
  7  3  1  0
  1  8  1  0
  2  9  1  0
  5 10  1  0
  7 11  1  0
M  ISO  4   8  14   9  14  10  14  11  11
M  END
>  <minimizedAffinity>  (1) 
-3.13877416

>  <minimizedRMSD>  (1) 
0.285410613

$$$$
