
     RDKit          3D

 38 40  0  0  1  0  0  0  0  0999 V2000
   39.3060   31.3820   46.5980 C   0  0  2  0  0  0  0  0  0  0  0  0
   39.8690   32.6860   46.1830 C   0  0  0  0  0  0  0  0  0  0  0  0
   40.9900   32.4690   45.1850 C   0  0  0  0  0  0  0  0  0  0  0  0
   40.5540   31.6610   44.0280 C   0  0  0  0  0  0  0  0  0  0  0  0
   39.7670   30.4390   44.3660 C   0  0  0  0  0  0  0  0  0  0  0  0
   38.7580   30.6410   45.4600 C   0  0  2  0  0  0  0  0  0  0  0  0
   38.2380   32.6090   48.4890 C   0  0  0  0  0  0  0  0  0  0  0  0
   38.3770   31.4560   47.7060 C   0  0  0  0  0  0  0  0  0  0  0  0
   37.6010   30.3410   48.0350 C   0  0  0  0  0  0  0  0  0  0  0  0
   36.7500   30.4100   49.0870 N   0  0  0  0  0  0  0  0  0  0  0  0
   36.6380   31.5500   49.8290 C   0  0  0  0  0  0  0  0  0  0  0  0
   37.3790   32.6300   49.5220 N   0  0  0  0  0  0  0  0  0  0  0  0
   37.4880   30.9600   44.9590 N   0  0  0  0  0  0  0  0  0  0  0  0
   37.2330   32.0970   44.1890 C   0  0  0  0  0  0  0  0  0  0  0  0
   35.8180   31.8210   43.6750 C   0  0  0  0  0  0  0  0  0  0  0  0
   35.3960   30.4900   44.2550 C   0  0  0  0  0  0  0  0  0  0  0  0
   36.7750   29.8360   44.4300 C   0  0  0  0  0  0  0  0  0  0  0  0
   40.1593   30.8095   46.9905 H   0  0  0  0  0  0  0  0  0  0  0  0
   39.0786   33.2932   45.7177 H   0  0  0  0  0  0  0  0  0  0  0  0
   40.2660   33.2072   47.0666 H   0  0  0  0  0  0  0  0  0  0  0  0
   41.3376   33.4480   44.8234 H   0  0  0  0  0  0  0  0  0  0  0  0
   41.7972   31.9229   45.6951 H   0  0  0  0  0  0  0  0  0  0  0  0
   41.4515   31.3456   43.4758 H   0  0  0  0  0  0  0  0  0  0  0  0
   39.8811   32.3049   43.4426 H   0  0  0  0  0  0  0  0  0  0  0  0
   39.2343   30.1104   43.4615 H   0  0  0  0  0  0  0  0  0  0  0  0
   40.4855   29.6909   44.7322 H   0  0  0  0  0  0  0  0  0  0  0  0
   38.5339   29.6836   45.9532 H   0  0  0  0  0  0  0  0  0  0  0  0
   38.8357   33.5028   48.2568 H   0  0  0  0  0  0  0  0  0  0  0  0
   37.6805   29.4159   47.4452 H   0  0  0  0  0  0  0  0  0  0  0  0
   35.9409   31.5858   50.6792 H   0  0  0  0  0  0  0  0  0  0  0  0
   37.2649   33.0101   44.8015 H   0  0  0  0  0  0  0  0  0  0  0  0
   37.9702   32.2669   43.3904 H   0  0  0  0  0  0  0  0  0  0  0  0
   35.1324   32.6140   44.0082 H   0  0  0  0  0  0  0  0  0  0  0  0
   35.7942   31.7985   42.5755 H   0  0  0  0  0  0  0  0  0  0  0  0
   34.8741   30.6089   45.2160 H   0  0  0  0  0  0  0  0  0  0  0  0
   34.6832   29.9189   43.6420 H   0  0  0  0  0  0  0  0  0  0  0  0
   36.7461   28.9949   45.1383 H   0  0  0  0  0  0  0  0  0  0  0  0
   37.2049   29.3863   43.5228 H   0  0  0  0  0  0  0  0  0  0  0  0
  1  8  1  0
  2  1  1  0
  3  2  1  0
  4  5  1  0
  4  3  1  0
  5  6  1  0
  6  1  1  0
  7 12  2  0
  8  9  2  0
  8  7  1  0
  9 10  1  0
 10 11  2  0
 12 11  1  0
 13 14  1  0
 13  6  1  0
 15 14  1  0
 15 16  1  0
 16 17  1  0
 17 13  1  0
  1 18  1  1
  2 19  1  0
  2 20  1  0
  3 21  1  0
  3 22  1  0
  4 23  1  0
  4 24  1  0
  5 25  1  0
  5 26  1  0
  6 27  1  1
  7 28  1  0
  9 29  1  0
 11 30  1  0
 14 31  1  0
 14 32  1  0
 15 33  1  0
 15 34  1  0
 16 35  1  0
 16 36  1  0
 17 37  1  0
 17 38  1  0
M  ISO  8  18  13  19  13  20  13  21  13  22  13  23  13  24  13  25  13
M  ISO  8  26  13  27  13  28  14  29  14  30  14  31  13  32  13  33  13
M  ISO  5  34  13  35  13  36  13  37  13  38  13
M  END
>  <minimizedAffinity>  (1) 
-4.91468143

>  <minimizedRMSD>  (1) 
2.53585458

$$$$
