
     RDKit          3D

 42 45  0  0  1  0  0  0  0  0999 V2000
   38.4390   31.1890   48.0530 C   0  0  2  0  0  0  0  0  0  0  0  0
   38.4990   32.6260   47.9260 C   0  0  0  0  0  0  0  0  0  0  0  0
   39.4070   32.9630   46.7380 C   0  0  0  0  0  0  0  0  0  0  0  0
   38.7010   32.4590   45.5060 C   0  0  0  0  0  0  0  0  0  0  0  0
   38.4380   30.9930   45.5840 C   0  0  0  0  0  0  0  0  0  0  0  0
   37.8940   30.4870   46.8790 C   0  0  2  0  0  0  0  0  0  0  0  0
   36.4400   30.3790   46.7240 C   0  0  0  0  0  0  0  0  0  0  0  0
   35.4410   30.5350   47.6590 C   0  0  0  0  0  0  0  0  0  0  0  0
   34.1070   30.4010   47.4450 C   0  0  0  0  0  0  0  0  0  0  0  0
   33.6540   30.0740   46.1770 C   0  0  0  0  0  0  0  0  0  0  0  0
   34.6030   29.9020   45.1900 C   0  0  0  0  0  0  0  0  0  0  0  0
   34.0890   29.5830   43.9570 C   0  0  0  0  0  0  0  0  0  0  0  0
   34.9410   29.3920   42.8970 C   0  0  0  0  0  0  0  0  0  0  0  0
   36.2940   29.5260   43.1040 C   0  0  0  0  0  0  0  0  0  0  0  0
   36.7630   29.8480   44.3580 C   0  0  0  0  0  0  0  0  0  0  0  0
   35.9500   30.0490   45.4520 C   0  0  0  0  0  0  0  0  0  0  0  0
   37.2750   31.4800   50.2500 C   0  0  0  0  0  0  0  0  0  0  0  0
   37.8840   30.6600   49.2950 C   0  0  0  0  0  0  0  0  0  0  0  0
   37.9630   29.3130   49.5610 C   0  0  0  0  0  0  0  0  0  0  0  0
   37.4540   28.8360   50.7280 N   0  0  0  0  0  0  0  0  0  0  0  0
   36.8730   29.6540   51.6280 C   0  0  0  0  0  0  0  0  0  0  0  0
   36.7880   30.9690   51.3810 N   0  0  0  0  0  0  0  0  0  0  0  0
   39.5121   30.9527   48.1050 H   0  0  0  0  0  0  0  0  0  0  0  0
   37.4900   33.0269   47.7493 H   0  0  0  0  0  0  0  0  0  0  0  0
   38.8977   33.0732   48.8485 H   0  0  0  0  0  0  0  0  0  0  0  0
   39.5585   34.0505   46.6715 H   0  0  0  0  0  0  0  0  0  0  0  0
   40.3974   32.4972   46.8485 H   0  0  0  0  0  0  0  0  0  0  0  0
   39.3293   32.6625   44.6263 H   0  0  0  0  0  0  0  0  0  0  0  0
   37.7343   32.9779   45.4274 H   0  0  0  0  0  0  0  0  0  0  0  0
   37.7149   30.7397   44.7948 H   0  0  0  0  0  0  0  0  0  0  0  0
   39.4208   30.5121   45.4705 H   0  0  0  0  0  0  0  0  0  0  0  0
   38.2455   29.4728   47.1193 H   0  0  0  0  0  0  0  0  0  0  0  0
   35.7551   30.7939   48.6809 H   0  0  0  0  0  0  0  0  0  0  0  0
   33.3938   30.5504   48.2690 H   0  0  0  0  0  0  0  0  0  0  0  0
   32.5809   29.9562   45.9656 H   0  0  0  0  0  0  0  0  0  0  0  0
   33.0024   29.4812   43.8194 H   0  0  0  0  0  0  0  0  0  0  0  0
   34.5488   29.1367   41.9015 H   0  0  0  0  0  0  0  0  0  0  0  0
   36.9980   29.3767   42.2720 H   0  0  0  0  0  0  0  0  0  0  0  0
   37.8497   29.9507   44.4942 H   0  0  0  0  0  0  0  0  0  0  0  0
   37.1967   32.5616   50.0656 H   0  0  0  0  0  0  0  0  0  0  0  0
   38.4325   28.6296   48.8381 H   0  0  0  0  0  0  0  0  0  0  0  0
   36.4687   29.2428   52.5648 H   0  0  0  0  0  0  0  0  0  0  0  0
  1 18  1  0
  2  1  1  0
  3  2  1  0
  4  5  1  0
  4  3  1  0
  5  6  1  0
  6  1  1  0
  7  6  1  0
  7  8  2  0
  9  8  1  0
 10  9  2  0
 11 16  2  0
 11 10  1  0
 12 11  1  0
 13 14  1  0
 13 12  2  0
 14 15  2  0
 15 16  1  0
 16  7  1  0
 17 22  2  0
 18 19  2  0
 18 17  1  0
 19 20  1  0
 20 21  2  0
 22 21  1  0
  1 23  1  1
  2 24  1  0
  2 25  1  0
  3 26  1  0
  3 27  1  0
  4 28  1  0
  4 29  1  0
  5 30  1  0
  5 31  1  0
  6 32  1  1
  8 33  1  0
  9 34  1  0
 10 35  1  0
 12 36  1  0
 13 37  1  0
 14 38  1  0
 15 39  1  0
 17 40  1  0
 19 41  1  0
 21 42  1  0
M  ISO  8  23  13  24  13  25  13  26  13  27  13  28  13  29  13  30  13
M  ISO  8  31  13  32  13  33  14  34  14  35  14  36  14  37  14  38  14
M  ISO  4  39  14  40  14  41  14  42  14
M  END
>  <minimizedAffinity>  (1) 
-4.90522385

>  <minimizedRMSD>  (1) 
1.34687459

$$$$
