
     RDKit          3D

 37 39  0  0  1  0  0  0  0  0999 V2000
   38.4070   30.9980   47.7700 C   0  0  2  0  0  0  0  0  0  0  0  0
   38.5770   32.4270   47.5460 C   0  0  0  0  0  0  0  0  0  0  0  0
   39.2170   32.7550   46.2540 C   0  0  0  0  0  0  0  0  0  0  0  0
   39.1150   31.7270   45.1960 C   0  0  0  0  0  0  0  0  0  0  0  0
   37.9680   30.7770   45.3170 C   0  0  0  0  0  0  0  0  0  0  0  0
   37.6440   30.3280   46.7040 C   0  0  2  0  0  0  0  0  0  0  0  0
   36.2020   30.3260   46.8280 N   0  0  0  0  0  0  0  0  0  0  0  0
   35.3500   30.5410   47.8460 C   0  0  0  0  0  0  0  0  0  0  0  0
   33.9880   30.4710   47.6590 C   0  0  0  0  0  0  0  0  0  0  0  0
   33.4140   30.1800   46.4400 C   0  0  0  0  0  0  0  0  0  0  0  0
   31.9940   30.1300   46.3480 N   0  0  0  0  0  0  0  0  0  0  0  0
   34.2910   29.9740   45.4610 N   0  0  0  0  0  0  0  0  0  0  0  0
   35.6150   30.0390   45.6230 C   0  0  0  0  0  0  0  0  0  0  0  0
   36.2030   29.7970   44.5120 O   0  0  0  0  0  0  0  0  0  0  0  0
   37.4080   31.5770   50.0260 C   0  0  0  0  0  0  0  0  0  0  0  0
   37.8900   30.6390   49.0930 C   0  0  0  0  0  0  0  0  0  0  0  0
   37.8740   29.3070   49.4420 C   0  0  0  0  0  0  0  0  0  0  0  0
   37.3940   28.9650   50.6700 N   0  0  0  0  0  0  0  0  0  0  0  0
   36.9360   29.8920   51.5460 C   0  0  0  0  0  0  0  0  0  0  0  0
   36.9440   31.2050   51.2190 N   0  0  0  0  0  0  0  0  0  0  0  0
   39.4373   30.6142   47.7357 H   0  0  0  0  0  0  0  0  0  0  0  0
   37.5857   32.9029   47.5730 H   0  0  0  0  0  0  0  0  0  0  0  0
   39.2435   32.7991   48.3381 H   0  0  0  0  0  0  0  0  0  0  0  0
   38.7517   33.6761   45.8731 H   0  0  0  0  0  0  0  0  0  0  0  0
   40.2911   32.8475   46.4723 H   0  0  0  0  0  0  0  0  0  0  0  0
   40.0436   31.1374   45.2084 H   0  0  0  0  0  0  0  0  0  0  0  0
   38.9463   32.2793   44.2598 H   0  0  0  0  0  0  0  0  0  0  0  0
   37.0756   31.2699   44.9040 H   0  0  0  0  0  0  0  0  0  0  0  0
   38.2694   29.8711   44.7707 H   0  0  0  0  0  0  0  0  0  0  0  0
   37.9999   29.2999   46.8662 H   0  0  0  0  0  0  0  0  0  0  0  0
   35.7478   30.7766   48.8441 H   0  0  0  0  0  0  0  0  0  0  0  0
   33.3288   30.6554   48.5201 H   0  0  0  0  0  0  0  0  0  0  0  0
   31.5436   29.9144   45.4472 H   0  0  0  0  0  0  0  0  0  0  0  0
   31.4172   30.3094   47.1823 H   0  0  0  0  0  0  0  0  0  0  0  0
   37.4145   32.6452   49.7634 H   0  0  0  0  0  0  0  0  0  0  0  0
   38.2400   28.5378   48.7460 H   0  0  0  0  0  0  0  0  0  0  0  0
   36.5556   29.5753   52.5284 H   0  0  0  0  0  0  0  0  0  0  0  0
  1 16  1  0
  2  1  1  0
  3  2  1  0
  4  5  1  0
  4  3  1  0
  5  6  1  0
  6  7  1  0
  6  1  1  0
  7  8  1  0
  9  8  2  0
 10  9  1  0
 11 10  1  0
 12 13  1  0
 12 10  2  0
 13  7  1  0
 14 13  2  0
 15 20  2  0
 16 17  2  0
 16 15  1  0
 17 18  1  0
 18 19  2  0
 20 19  1  0
  1 21  1  1
  2 22  1  0
  2 23  1  0
  3 24  1  0
  3 25  1  0
  4 26  1  0
  4 27  1  0
  5 28  1  0
  5 29  1  0
  6 30  1  6
  8 31  1  0
  9 32  1  0
 11 33  1  0
 11 34  1  0
 15 35  1  0
 17 36  1  0
 19 37  1  0
M  ISO  8  21  13  22  13  23  13  24  13  25  13  26  13  27  13  28  13
M  ISO  7  29  13  30  13  31  14  32  14  35  14  36  14  37  14
M  END
>  <minimizedAffinity>  (1) 
-4.54694414

>  <minimizedRMSD>  (1) 
1.22808802

$$$$
