
     RDKit          3D

 35 36  0  0  1  0  0  0  0  0999 V2000
   38.2640   31.3090   46.8880 C   0  0  2  0  0  0  0  0  0  0  0  0
   38.9810   32.5160   47.4110 C   0  0  0  0  0  0  0  0  0  0  0  0
   40.0860   32.8850   46.4550 C   0  0  0  0  0  0  0  0  0  0  0  0
   39.4410   33.2930   45.1660 C   0  0  0  0  0  0  0  0  0  0  0  0
   38.4170   32.3620   44.6190 C   0  0  0  0  0  0  0  0  0  0  0  0
   37.6600   31.5100   45.5930 C   0  0  1  0  0  0  0  0  0  0  0  0
   37.8780   30.2240   49.0600 C   0  0  0  0  0  0  0  0  0  0  0  0
   37.3650   30.7290   47.8610 C   0  0  0  0  0  0  0  0  0  0  0  0
   36.0150   30.6160   47.5970 C   0  0  0  0  0  0  0  0  0  0  0  0
   35.1960   30.0120   48.5060 N   0  0  0  0  0  0  0  0  0  0  0  0
   35.7140   29.5210   49.6760 C   0  0  0  0  0  0  0  0  0  0  0  0
   37.0360   29.6360   49.9280 N   0  0  0  0  0  0  0  0  0  0  0  0
   37.6100   30.1310   44.9010 C   0  0  0  0  0  0  0  0  0  0  0  0
   36.7580   30.2050   43.6560 C   0  0  0  0  0  0  0  0  0  0  0  0
   39.0110   29.7100   44.4940 C   0  0  0  0  0  0  0  0  0  0  0  0
   39.0444   30.5533   46.7150 H   0  0  0  0  0  0  0  0  0  0  0  0
   38.2747   33.3547   47.4992 H   0  0  0  0  0  0  0  0  0  0  0  0
   39.4058   32.2949   48.4013 H   0  0  0  0  0  0  0  0  0  0  0  0
   40.6736   33.7206   46.8631 H   0  0  0  0  0  0  0  0  0  0  0  0
   40.7661   32.0347   46.2985 H   0  0  0  0  0  0  0  0  0  0  0  0
   38.9565   34.2674   45.3270 H   0  0  0  0  0  0  0  0  0  0  0  0
   40.2521   33.3072   44.4231 H   0  0  0  0  0  0  0  0  0  0  0  0
   37.6807   32.9683   44.0711 H   0  0  0  0  0  0  0  0  0  0  0  0
   38.9883   31.6469   44.0089 H   0  0  0  0  0  0  0  0  0  0  0  0
   36.7033   32.0085   45.8083 H   0  0  0  0  0  0  0  0  0  0  0  0
   38.9508   30.3063   49.2889 H   0  0  0  0  0  0  0  0  0  0  0  0
   35.6010   31.0112   46.6576 H   0  0  0  0  0  0  0  0  0  0  0  0
   35.0540   29.0339   50.4089 H   0  0  0  0  0  0  0  0  0  0  0  0
   37.1821   29.4030   45.6059 H   0  0  0  0  0  0  0  0  0  0  0  0
   35.6995   30.2969   43.9410 H   0  0  0  0  0  0  0  0  0  0  0  0
   37.0547   31.0808   43.0602 H   0  0  0  0  0  0  0  0  0  0  0  0
   36.8993   29.2912   43.0602 H   0  0  0  0  0  0  0  0  0  0  0  0
   39.6155   29.5283   45.3949 H   0  0  0  0  0  0  0  0  0  0  0  0
   38.9577   28.7882   43.8961 H   0  0  0  0  0  0  0  0  0  0  0  0
   39.4747   30.5085   43.8961 H   0  0  0  0  0  0  0  0  0  0  0  0
  1  2  1  0
  1  8  1  0
  3  2  1  0
  4  3  1  0
  5  4  1  0
  5  6  1  0
  6  1  1  0
  7 12  2  0
  8  7  1  0
  9  8  2  0
  9 10  1  0
 10 11  2  0
 11 12  1  0
 13  6  1  0
 14 13  1  0
 15 13  1  0
  1 16  1  6
  2 17  1  0
  2 18  1  0
  3 19  1  0
  3 20  1  0
  4 21  1  0
  4 22  1  0
  5 23  1  0
  5 24  1  0
  6 25  1  1
  7 26  1  0
  9 27  1  0
 11 28  1  0
 13 29  1  0
 14 30  1  0
 14 31  1  0
 14 32  1  0
 15 33  1  0
 15 34  1  0
 15 35  1  0
M  ISO  8  16  13  17  13  18  13  19  13  20  13  21  13  22  13  23  13
M  ISO  8  24  13  25  13  26  14  27  14  28  14  29   8  30   8  31   8
M  ISO  4  32   8  33   8  34   8  35   8
M  END
>  <minimizedAffinity>  (1) 
-4.50912237

>  <minimizedRMSD>  (1) 
1.51508582

$$$$
