
     RDKit          3D

 32 34  0  0  1  0  0  0  0  0999 V2000
   38.7210   31.3100   47.4100 C   0  0  2  0  0  0  0  0  0  0  0  0
   38.5750   32.7820   47.3690 C   0  0  0  0  0  0  0  0  0  0  0  0
   39.9510   33.3980   47.1140 C   0  0  0  0  0  0  0  0  0  0  0  0
   40.4090   32.9520   45.7520 C   0  0  0  0  0  0  0  0  0  0  0  0
   40.4260   31.4540   45.6170 C   0  0  0  0  0  0  0  0  0  0  0  0
   39.1860   30.7770   46.1210 C   0  0  2  0  0  0  0  0  0  0  0  0
   36.3160   30.7100   47.2690 C   0  0  0  0  0  0  0  0  0  0  0  0
   37.5590   30.5930   47.8990 C   0  0  0  0  0  0  0  0  0  0  0  0
   37.6630   29.7800   49.0320 C   0  0  0  0  0  0  0  0  0  0  0  0
   36.5470   29.1350   49.4760 N   0  0  0  0  0  0  0  0  0  0  0  0
   35.3450   29.2700   48.8380 C   0  0  0  0  0  0  0  0  0  0  0  0
   35.2430   30.0530   47.7450 N   0  0  0  0  0  0  0  0  0  0  0  0
   38.2090   30.7500   45.0710 N   0  0  0  0  0  0  0  0  0  0  0  0
   37.3350   31.6080   44.4660 C   0  0  0  0  0  0  0  0  0  0  0  0
   36.6780   30.9150   43.5080 N   0  0  0  0  0  0  0  0  0  0  0  0
   37.1390   29.6560   43.5250 C   0  0  0  0  0  0  0  0  0  0  0  0
   38.0610   29.5590   44.4680 N   0  0  0  0  0  0  0  0  0  0  0  0
   39.4987   31.1263   48.1659 H   0  0  0  0  0  0  0  0  0  0  0  0
   37.8860   33.0643   46.5593 H   0  0  0  0  0  0  0  0  0  0  0  0
   38.1689   33.1477   48.3237 H   0  0  0  0  0  0  0  0  0  0  0  0
   39.8813   34.4954   47.1446 H   0  0  0  0  0  0  0  0  0  0  0  0
   40.6658   33.0744   47.8849 H   0  0  0  0  0  0  0  0  0  0  0  0
   39.7267   33.3675   44.9958 H   0  0  0  0  0  0  0  0  0  0  0  0
   41.4376   33.3143   45.6078 H   0  0  0  0  0  0  0  0  0  0  0  0
   40.5465   31.2049   44.5524 H   0  0  0  0  0  0  0  0  0  0  0  0
   41.2588   31.0903   46.2368 H   0  0  0  0  0  0  0  0  0  0  0  0
   39.4107   29.7301   46.3729 H   0  0  0  0  0  0  0  0  0  0  0  0
   36.2148   31.3448   46.3764 H   0  0  0  0  0  0  0  0  0  0  0  0
   38.6244   29.6634   49.5537 H   0  0  0  0  0  0  0  0  0  0  0  0
   34.4596   28.7388   49.2172 H   0  0  0  0  0  0  0  0  0  0  0  0
   37.1915   32.6702   44.7132 H   0  0  0  0  0  0  0  0  0  0  0  0
   36.8062   28.8409   42.8655 H   0  0  0  0  0  0  0  0  0  0  0  0
  1  8  1  0
  2  1  1  0
  3  2  1  0
  4  3  1  0
  5  4  1  0
  5  6  1  0
  6  1  1  0
  7 12  2  0
  7  8  1  0
  8  9  2  0
  9 10  1  0
 11 10  2  0
 12 11  1  0
 13  6  1  0
 14 13  1  0
 15 16  1  0
 15 14  2  0
 16 17  2  0
 17 13  1  0
  1 18  1  1
  2 19  1  0
  2 20  1  0
  3 21  1  0
  3 22  1  0
  4 23  1  0
  4 24  1  0
  5 25  1  0
  5 26  1  0
  6 27  1  1
  7 28  1  0
  9 29  1  0
 11 30  1  0
 14 31  1  0
 16 32  1  0
M  ISO  8  18  13  19  13  20  13  21  13  22  13  23  13  24  13  25  13
M  ISO  7  26  13  27  13  28  14  29  14  30  14  31  14  32  14
M  END
>  <minimizedAffinity>  (1) 
-4.49551296

>  <minimizedRMSD>  (1) 
2.97078061

$$$$
