
     RDKit          3D

 36 38  0  0  1  0  0  0  0  0999 V2000
   39.2170   30.8000   46.3360 C   0  0  2  0  0  0  0  0  0  0  0  0
   40.2160   31.7290   45.8690 C   0  0  0  0  0  0  0  0  0  0  0  0
   41.0350   31.2130   44.7320 C   0  0  0  0  0  0  0  0  0  0  0  0
   40.2280   30.6170   43.6500 C   0  0  0  0  0  0  0  0  0  0  0  0
   39.0930   29.7860   44.0930 C   0  0  0  0  0  0  0  0  0  0  0  0
   38.2700   30.4450   45.2300 C   0  0  2  0  0  0  0  0  0  0  0  0
   38.6990   32.4780   48.1920 C   0  0  0  0  0  0  0  0  0  0  0  0
   38.4810   31.2400   47.5130 C   0  0  0  0  0  0  0  0  0  0  0  0
   37.5110   30.4030   47.9740 C   0  0  0  0  0  0  0  0  0  0  0  0
   36.7840   30.7910   49.0720 N   0  0  0  0  0  0  0  0  0  0  0  0
   37.0180   31.9910   49.7030 C   0  0  0  0  0  0  0  0  0  0  0  0
   37.9910   32.8360   49.2480 N   0  0  0  0  0  0  0  0  0  0  0  0
   37.6530   31.6410   44.6300 C   0  0  0  0  0  0  0  0  0  0  0  0
   37.8350   32.8570   44.9660 O   0  0  0  0  0  0  0  0  0  0  0  0
   36.8000   31.3580   43.6050 O   0  0  0  0  0  0  0  0  0  0  0  0
   36.2110   32.4190   42.8820 C   0  0  0  0  0  0  0  0  0  0  0  0
   34.8460   32.7010   42.9120 C   0  0  0  0  0  0  0  0  0  0  0  0
   34.6970   33.7950   42.0820 C   0  0  0  0  0  0  0  0  0  0  0  0
   35.9130   34.1530   41.5800 N   0  0  0  0  0  0  0  0  0  0  0  0
   36.7940   33.3070   42.0800 N   0  0  0  0  0  0  0  0  0  0  0  0
   39.7759   29.9078   46.6549 H   0  0  0  0  0  0  0  0  0  0  0  0
   39.7084   32.6483   45.5415 H   0  0  0  0  0  0  0  0  0  0  0  0
   40.9065   31.9046   46.7071 H   0  0  0  0  0  0  0  0  0  0  0  0
   41.6160   32.0482   44.3138 H   0  0  0  0  0  0  0  0  0  0  0  0
   41.6796   30.4165   45.1321 H   0  0  0  0  0  0  0  0  0  0  0  0
   40.8915   29.9876   43.0388 H   0  0  0  0  0  0  0  0  0  0  0  0
   39.7889   31.4614   43.0984 H   0  0  0  0  0  0  0  0  0  0  0  0
   38.4284   29.6128   43.2337 H   0  0  0  0  0  0  0  0  0  0  0  0
   39.5063   28.8458   44.4870 H   0  0  0  0  0  0  0  0  0  0  0  0
   37.4913   29.7922   45.6513 H   0  0  0  0  0  0  0  0  0  0  0  0
   39.4828   33.1558   47.8229 H   0  0  0  0  0  0  0  0  0  0  0  0
   37.3149   29.4403   47.4792 H   0  0  0  0  0  0  0  0  0  0  0  0
   36.4173   32.2725   50.5805 H   0  0  0  0  0  0  0  0  0  0  0  0
   34.0620   32.1703   43.4721 H   0  0  0  0  0  0  0  0  0  0  0  0
   33.7448   34.2992   41.8604 H   0  0  0  0  0  0  0  0  0  0  0  0
   36.1066   34.9327   40.9354 H   0  0  0  0  0  0  0  0  0  0  0  0
  1  8  1  0
  2  1  1  0
  3  2  1  0
  4  5  1  0
  4  3  1  0
  5  6  1  0
  6  1  1  0
  7 12  2  0
  8  9  2  0
  8  7  1  0
  9 10  1  0
 10 11  2  0
 12 11  1  0
 13 14  2  0
 13  6  1  0
 15 13  1  0
 16 17  1  0
 16 15  1  0
 18 17  2  0
 19 20  1  0
 19 18  1  0
 20 16  2  0
  1 21  1  1
  2 22  1  0
  2 23  1  0
  3 24  1  0
  3 25  1  0
  4 26  1  0
  4 27  1  0
  5 28  1  0
  5 29  1  0
  6 30  1  1
  7 31  1  0
  9 32  1  0
 11 33  1  0
 17 34  1  0
 18 35  1  0
 19 36  1  0
M  ISO  8  21  13  22  13  23  13  24  13  25  13  26  13  27  13  28  13
M  ISO  8  29  13  30  13  31  14  32  14  33  14  34  14  35  14  36   9
M  END
>  <minimizedAffinity>  (1) 
-4.97493315

>  <minimizedRMSD>  (1) 
1.63977098

$$$$
