
     RDKit          3D

 50 54  0  0  1  0  0  0  0  0999 V2000
   39.2950   30.8230   46.2620 C   0  0  2  0  0  0  0  0  0  0  0  0
   40.2570   31.7680   45.7420 C   0  0  0  0  0  0  0  0  0  0  0  0
   41.0750   31.2590   44.6030 C   0  0  0  0  0  0  0  0  0  0  0  0
   40.2900   30.5600   43.5700 C   0  0  0  0  0  0  0  0  0  0  0  0
   39.2240   29.6990   44.0750 C   0  0  0  0  0  0  0  0  0  0  0  0
   38.3620   30.3810   45.2000 C   0  0  2  0  0  0  0  0  0  0  0  0
   38.7630   32.5700   48.0740 C   0  0  0  0  0  0  0  0  0  0  0  0
   38.5550   31.3030   47.4260 C   0  0  0  0  0  0  0  0  0  0  0  0
   37.5960   30.4750   47.8980 C   0  0  0  0  0  0  0  0  0  0  0  0
   36.8660   30.8970   48.9830 N   0  0  0  0  0  0  0  0  0  0  0  0
   37.0890   32.1170   49.5840 C   0  0  0  0  0  0  0  0  0  0  0  0
   38.0490   32.9520   49.1150 N   0  0  0  0  0  0  0  0  0  0  0  0
   37.6700   31.4770   44.5330 C   0  0  0  0  0  0  0  0  0  0  0  0
   37.6300   32.6990   44.9200 O   0  0  0  0  0  0  0  0  0  0  0  0
   37.0160   31.1230   43.4030 O   0  0  0  0  0  0  0  0  0  0  0  0
   35.6780   31.5480   43.2190 C   0  0  0  0  0  0  0  0  0  0  0  0
   34.5960   30.7110   43.5130 C   0  0  0  0  0  0  0  0  0  0  0  0
   33.4830   31.4670   43.2080 C   0  0  0  0  0  0  0  0  0  0  0  0
   33.8740   32.6910   42.7560 N   0  0  0  0  0  0  0  0  0  0  0  0
   35.1970   32.6980   42.7780 N   0  0  0  0  0  0  0  0  0  0  0  0
   32.9710   33.7060   42.3580 C   0  0  0  0  0  0  0  0  0  0  0  0
   31.8050   33.7220   43.0520 N   0  0  0  0  0  0  0  0  0  0  0  0
   30.8370   34.6430   42.7810 C   0  0  0  0  0  0  0  0  0  0  0  0
   30.9770   35.5810   41.8200 N   0  0  0  0  0  0  0  0  0  0  0  0
   32.1420   35.5670   41.1250 C   0  0  0  0  0  0  0  0  0  0  0  0
   32.3920   36.4790   40.1220 C   0  0  0  0  0  0  0  0  0  0  0  0
   33.5730   36.4800   39.4030 C   0  0  0  0  0  0  0  0  0  0  0  0
   34.5450   35.5330   39.6960 C   0  0  0  0  0  0  0  0  0  0  0  0
   34.3370   34.5930   40.7000 C   0  0  0  0  0  0  0  0  0  0  0  0
   33.1380   34.6510   41.3740 C   0  0  0  0  0  0  0  0  0  0  0  0
   39.8862   29.9644   46.6132 H   0  0  0  0  0  0  0  0  0  0  0  0
   39.7115   32.6602   45.4008 H   0  0  0  0  0  0  0  0  0  0  0  0
   40.9604   31.9790   46.5609 H   0  0  0  0  0  0  0  0  0  0  0  0
   41.5835   32.1135   44.1326 H   0  0  0  0  0  0  0  0  0  0  0  0
   41.7806   30.5249   45.0193 H   0  0  0  0  0  0  0  0  0  0  0  0
   40.9800   29.9375   42.9815 H   0  0  0  0  0  0  0  0  0  0  0  0
   39.7943   31.3451   42.9802 H   0  0  0  0  0  0  0  0  0  0  0  0
   38.5612   29.4345   43.2379 H   0  0  0  0  0  0  0  0  0  0  0  0
   39.7005   28.8123   44.5186 H   0  0  0  0  0  0  0  0  0  0  0  0
   37.6185   29.7291   45.6819 H   0  0  0  0  0  0  0  0  0  0  0  0
   39.5434   33.2427   47.6886 H   0  0  0  0  0  0  0  0  0  0  0  0
   37.4068   29.4977   47.4298 H   0  0  0  0  0  0  0  0  0  0  0  0
   36.4829   32.4161   50.4518 H   0  0  0  0  0  0  0  0  0  0  0  0
   34.6260   29.6818   43.9002 H   0  0  0  0  0  0  0  0  0  0  0  0
   32.4403   31.1328   43.3136 H   0  0  0  0  0  0  0  0  0  0  0  0
   29.9067   34.6211   43.3675 H   0  0  0  0  0  0  0  0  0  0  0  0
   31.6256   37.2318   39.8855 H   0  0  0  0  0  0  0  0  0  0  0  0
   33.7404   37.2221   38.6085 H   0  0  0  0  0  0  0  0  0  0  0  0
   35.4878   35.5260   39.1293 H   0  0  0  0  0  0  0  0  0  0  0  0
   35.0972   33.8365   40.9447 H   0  0  0  0  0  0  0  0  0  0  0  0
  1  8  1  0
  2  1  1  0
  3  2  1  0
  4  5  1  0
  4  3  1  0
  5  6  1  0
  6  1  1  0
  7 12  2  0
  8  9  2  0
  8  7  1  0
  9 10  1  0
 10 11  2  0
 12 11  1  0
 13 14  2  0
 13  6  1  0
 15 13  1  0
 16 15  1  0
 16 17  1  0
 18 17  2  0
 19 20  1  0
 19 18  1  0
 20 16  2  0
 21 19  1  0
 21 22  2  0
 23 22  1  0
 24 23  2  0
 25 30  2  0
 25 24  1  0
 26 25  1  0
 27 28  1  0
 27 26  2  0
 28 29  2  0
 29 30  1  0
 30 21  1  0
  1 31  1  1
  2 32  1  0
  2 33  1  0
  3 34  1  0
  3 35  1  0
  4 36  1  0
  4 37  1  0
  5 38  1  0
  5 39  1  0
  6 40  1  1
  7 41  1  0
  9 42  1  0
 11 43  1  0
 17 44  1  0
 18 45  1  0
 23 46  1  0
 26 47  1  0
 27 48  1  0
 28 49  1  0
 29 50  1  0
M  ISO  8  31  13  32  13  33  13  34  13  35  13  36  13  37  13  38  13
M  ISO  8  39  13  40  13  41  14  42  14  43  14  44  14  45  14  46  14
M  ISO  4  47  14  48  14  49  14  50  14
M  END
>  <minimizedAffinity>  (1) 
-6.31782341

>  <minimizedRMSD>  (1) 
3.09719586

$$$$
