
     RDKit          3D

 50 54  0  0  1  0  0  0  0  0999 V2000
   39.2770   30.9190   46.4310 C   0  0  2  0  0  0  0  0  0  0  0  0
   40.1120   31.9640   45.8820 C   0  0  0  0  0  0  0  0  0  0  0  0
   40.9790   31.5320   44.7460 C   0  0  0  0  0  0  0  0  0  0  0  0
   40.2720   30.7220   43.7330 C   0  0  0  0  0  0  0  0  0  0  0  0
   39.3220   29.7500   44.2670 C   0  0  0  0  0  0  0  0  0  0  0  0
   38.3950   30.3460   45.3890 C   0  0  2  0  0  0  0  0  0  0  0  0
   38.5790   32.6110   48.2390 C   0  0  0  0  0  0  0  0  0  0  0  0
   38.4940   31.3290   47.5940 C   0  0  0  0  0  0  0  0  0  0  0  0
   37.6220   30.4110   48.0670 C   0  0  0  0  0  0  0  0  0  0  0  0
   36.8530   30.7600   49.1530 N   0  0  0  0  0  0  0  0  0  0  0  0
   36.9560   31.9980   49.7520 C   0  0  0  0  0  0  0  0  0  0  0  0
   37.8410   32.9350   49.2740 N   0  0  0  0  0  0  0  0  0  0  0  0
   37.5680   31.3330   44.7090 C   0  0  0  0  0  0  0  0  0  0  0  0
   37.5380   32.5930   44.9490 O   0  0  0  0  0  0  0  0  0  0  0  0
   36.7650   30.8280   43.7430 O   0  0  0  0  0  0  0  0  0  0  0  0
   35.6850   31.6130   43.2670 C   0  0  0  0  0  0  0  0  0  0  0  0
   34.3540   31.2060   43.4210 C   0  0  0  0  0  0  0  0  0  0  0  0
   33.6180   32.2200   42.8380 C   0  0  0  0  0  0  0  0  0  0  0  0
   34.4610   33.1830   42.3600 N   0  0  0  0  0  0  0  0  0  0  0  0
   35.6880   32.7800   42.6390 N   0  0  0  0  0  0  0  0  0  0  0  0
   34.0570   34.3750   41.6970 C   0  0  0  0  0  0  0  0  0  0  0  0
   34.7140   35.3720   41.0060 C   0  0  0  0  0  0  0  0  0  0  0  0
   33.8030   36.2890   40.5800 N   0  0  0  0  0  0  0  0  0  0  0  0
   32.5720   35.8970   40.9880 C   0  0  0  0  0  0  0  0  0  0  0  0
   31.3570   36.4940   40.7980 C   0  0  0  0  0  0  0  0  0  0  0  0
   30.2080   35.9220   41.3040 C   0  0  0  0  0  0  0  0  0  0  0  0
   30.3020   34.7360   42.0050 C   0  0  0  0  0  0  0  0  0  0  0  0
   31.5470   34.1660   42.1750 C   0  0  0  0  0  0  0  0  0  0  0  0
   32.7160   34.7170   41.6800 C   0  0  0  0  0  0  0  0  0  0  0  0
   39.9719   30.1462   46.7912 H   0  0  0  0  0  0  0  0  0  0  0  0
   39.4587   32.7745   45.5265 H   0  0  0  0  0  0  0  0  0  0  0  0
   40.7891   32.2796   46.6894 H   0  0  0  0  0  0  0  0  0  0  0  0
   41.3798   32.4305   44.2540 H   0  0  0  0  0  0  0  0  0  0  0  0
   41.7706   30.8966   45.1698 H   0  0  0  0  0  0  0  0  0  0  0  0
   41.0259   30.1750   43.1479 H   0  0  0  0  0  0  0  0  0  0  0  0
   39.6803   31.4302   43.1343 H   0  0  0  0  0  0  0  0  0  0  0  0
   38.6879   29.3910   43.4430 H   0  0  0  0  0  0  0  0  0  0  0  0
   39.9059   28.9362   44.7218 H   0  0  0  0  0  0  0  0  0  0  0  0
   37.7412   29.6195   45.8938 H   0  0  0  0  0  0  0  0  0  0  0  0
   39.2927   33.3512   47.8483 H   0  0  0  0  0  0  0  0  0  0  0  0
   37.5304   29.4193   47.5999 H   0  0  0  0  0  0  0  0  0  0  0  0
   36.3243   32.2378   50.6200 H   0  0  0  0  0  0  0  0  0  0  0  0
   33.9795   30.2880   43.8976 H   0  0  0  0  0  0  0  0  0  0  0  0
   32.5205   32.2476   42.7693 H   0  0  0  0  0  0  0  0  0  0  0  0
   35.7985   35.4183   40.8281 H   0  0  0  0  0  0  0  0  0  0  0  0
   34.0142   37.1390   40.0380 H   0  0  0  0  0  0  0  0  0  0  0  0
   31.2949   37.4382   40.2371 H   0  0  0  0  0  0  0  0  0  0  0  0
   29.2310   36.4038   41.1512 H   0  0  0  0  0  0  0  0  0  0  0  0
   29.4032   34.2557   42.4192 H   0  0  0  0  0  0  0  0  0  0  0  0
   31.6141   33.2215   42.7349 H   0  0  0  0  0  0  0  0  0  0  0  0
  1  8  1  0
  2  1  1  0
  3  2  1  0
  4  5  1  0
  4  3  1  0
  5  6  1  0
  6  1  1  0
  7 12  2  0
  8  9  2  0
  8  7  1  0
  9 10  1  0
 10 11  2  0
 12 11  1  0
 13 14  2  0
 13  6  1  0
 15 13  1  0
 16 17  1  0
 16 15  1  0
 18 17  2  0
 19 20  1  0
 19 18  1  0
 20 16  2  0
 21 19  1  0
 22 21  2  0
 23 24  1  0
 23 22  1  0
 24 29  2  0
 25 24  1  0
 25 26  2  0
 26 27  1  0
 27 28  2  0
 29 21  1  0
 29 28  1  0
  1 30  1  1
  2 31  1  0
  2 32  1  0
  3 33  1  0
  3 34  1  0
  4 35  1  0
  4 36  1  0
  5 37  1  0
  5 38  1  0
  6 39  1  1
  7 40  1  0
  9 41  1  0
 11 42  1  0
 17 43  1  0
 18 44  1  0
 22 45  1  0
 23 46  1  0
 25 47  1  0
 26 48  1  0
 27 49  1  0
 28 50  1  0
M  ISO  8  30  13  31  13  32  13  33  13  34  13  35  13  36  13  37  13
M  ISO  8  38  13  39  13  40  14  41  14  42  14  43  14  44  14  45  14
M  ISO  5  46   9  47  14  48  14  49  14  50  14
M  END
>  <minimizedAffinity>  (1) 
-6.14113092

>  <minimizedRMSD>  (1) 
2.06952

$$$$
