
     RDKit          3D

 47 51  0  0  1  0  0  0  0  0999 V2000
   39.4030   31.2430   46.6300 C   0  0  2  0  0  0  0  0  0  0  0  0
   40.0420   32.4380   46.1190 C   0  0  0  0  0  0  0  0  0  0  0  0
   41.0070   32.1950   45.0090 C   0  0  0  0  0  0  0  0  0  0  0  0
   40.4920   31.2890   43.9610 C   0  0  0  0  0  0  0  0  0  0  0  0
   39.7330   30.1430   44.4570 C   0  0  0  0  0  0  0  0  0  0  0  0
   38.6760   30.5350   45.5530 C   0  0  2  0  0  0  0  0  0  0  0  0
   38.3990   32.7280   48.4780 C   0  0  0  0  0  0  0  0  0  0  0  0
   38.5230   31.4810   47.7720 C   0  0  0  0  0  0  0  0  0  0  0  0
   37.7690   30.4290   48.1600 C   0  0  0  0  0  0  0  0  0  0  0  0
   36.9140   30.6140   49.2230 N   0  0  0  0  0  0  0  0  0  0  0  0
   36.8170   31.8210   49.8800 C   0  0  0  0  0  0  0  0  0  0  0  0
   37.5740   32.8800   49.4930 N   0  0  0  0  0  0  0  0  0  0  0  0
   37.6970   31.3620   44.8590 C   0  0  0  0  0  0  0  0  0  0  0  0
   37.4810   32.6110   45.0540 O   0  0  0  0  0  0  0  0  0  0  0  0
   36.9650   30.7080   43.9290 O   0  0  0  0  0  0  0  0  0  0  0  0
   35.8410   31.3470   43.3600 C   0  0  0  0  0  0  0  0  0  0  0  0
   34.5250   30.9060   43.5740 C   0  0  0  0  0  0  0  0  0  0  0  0
   33.7530   31.7850   42.8580 C   0  0  0  0  0  0  0  0  0  0  0  0
   34.5370   32.7130   42.2380 N   0  0  0  0  0  0  0  0  0  0  0  0
   35.7890   32.4160   42.5640 N   0  0  0  0  0  0  0  0  0  0  0  0
   31.3860   35.8980   41.1460 N   0  0  0  0  0  0  0  0  0  0  0  0
   30.9370   35.1550   42.1900 C   0  0  0  0  0  0  0  0  0  0  0  0
   31.8950   34.2390   42.4700 N   0  0  0  0  0  0  0  0  0  0  0  0
   32.9280   34.3980   41.6210 C   0  0  0  0  0  0  0  0  0  0  0  0
   34.1570   33.8040   41.3960 C   0  0  0  0  0  0  0  0  0  0  0  0
   34.9660   34.2430   40.4140 N   0  0  0  0  0  0  0  0  0  0  0  0
   34.6090   35.2860   39.6070 C   0  0  0  0  0  0  0  0  0  0  0  0
   33.4190   35.8800   39.8060 N   0  0  0  0  0  0  0  0  0  0  0  0
   32.6060   35.4460   40.7840 C   0  0  0  0  0  0  0  0  0  0  0  0
   40.2183   30.6062   47.0038 H   0  0  0  0  0  0  0  0  0  0  0  0
   39.2582   33.1164   45.7509 H   0  0  0  0  0  0  0  0  0  0  0  0
   40.6221   32.8635   46.9511 H   0  0  0  0  0  0  0  0  0  0  0  0
   41.2510   33.1612   44.5434 H   0  0  0  0  0  0  0  0  0  0  0  0
   41.8884   31.7071   45.4507 H   0  0  0  0  0  0  0  0  0  0  0  0
   41.3496   30.9083   43.3869 H   0  0  0  0  0  0  0  0  0  0  0  0
   39.7922   31.8838   43.3556 H   0  0  0  0  0  0  0  0  0  0  0  0
   39.2051   29.6792   43.6107 H   0  0  0  0  0  0  0  0  0  0  0  0
   40.4493   29.4503   44.9230 H   0  0  0  0  0  0  0  0  0  0  0  0
   38.1542   29.6898   46.0256 H   0  0  0  0  0  0  0  0  0  0  0  0
   39.0136   33.5829   48.1595 H   0  0  0  0  0  0  0  0  0  0  0  0
   37.8360   29.4594   47.6449 H   0  0  0  0  0  0  0  0  0  0  0  0
   36.1208   31.9278   50.7249 H   0  0  0  0  0  0  0  0  0  0  0  0
   34.1896   30.0503   44.1784 H   0  0  0  0  0  0  0  0  0  0  0  0
   32.6556   31.7469   42.7929 H   0  0  0  0  0  0  0  0  0  0  0  0
   30.8795   36.6779   40.7031 H   0  0  0  0  0  0  0  0  0  0  0  0
   29.9755   35.2745   42.7108 H   0  0  0  0  0  0  0  0  0  0  0  0
   35.2823   35.6334   38.8095 H   0  0  0  0  0  0  0  0  0  0  0  0
  1  8  1  0
  2  1  1  0
  3  2  1  0
  4  5  1  0
  4  3  1  0
  5  6  1  0
  6  1  1  0
  7 12  2  0
  8  9  2  0
  8  7  1  0
  9 10  1  0
 10 11  2  0
 12 11  1  0
 13 14  2  0
 13  6  1  0
 15 13  1  0
 16 17  1  0
 16 15  1  0
 18 17  2  0
 19 20  1  0
 19 18  1  0
 20 16  2  0
 21 22  1  0
 22 23  2  0
 24 23  1  0
 25 24  2  0
 25 19  1  0
 26 25  1  0
 27 28  1  0
 27 26  2  0
 28 29  2  0
 29 21  1  0
 29 24  1  0
  1 30  1  1
  2 31  1  0
  2 32  1  0
  3 33  1  0
  3 34  1  0
  4 35  1  0
  4 36  1  0
  5 37  1  0
  5 38  1  0
  6 39  1  1
  7 40  1  0
  9 41  1  0
 11 42  1  0
 17 43  1  0
 18 44  1  0
 21 45  1  0
 22 46  1  0
 27 47  1  0
M  ISO  8  30  13  31  13  32  13  33  13  34  13  35  13  36  13  37  13
M  ISO  8  38  13  39  13  40  14  41  14  42  14  43  14  44  14  45   9
M  ISO  2  46  14  47  14
M  END
>  <minimizedAffinity>  (1) 
-5.97835779

>  <minimizedRMSD>  (1) 
2.13845086

$$$$
