
     RDKit          3D

 43 46  0  0  1  0  0  0  0  0999 V2000
   39.1210   30.7780   46.4300 C   0  0  2  0  0  0  0  0  0  0  0  0
   40.1610   31.6780   45.9840 C   0  0  0  0  0  0  0  0  0  0  0  0
   40.9590   31.1820   44.8230 C   0  0  0  0  0  0  0  0  0  0  0  0
   40.1430   30.6000   43.7430 C   0  0  0  0  0  0  0  0  0  0  0  0
   39.0050   29.7980   44.1800 C   0  0  0  0  0  0  0  0  0  0  0  0
   38.1770   30.4780   45.3300 C   0  0  2  0  0  0  0  0  0  0  0  0
   38.6030   32.5100   48.2620 C   0  0  0  0  0  0  0  0  0  0  0  0
   38.3950   31.2440   47.6110 C   0  0  0  0  0  0  0  0  0  0  0  0
   37.4550   30.4010   48.0930 C   0  0  0  0  0  0  0  0  0  0  0  0
   36.7410   30.8090   49.1950 N   0  0  0  0  0  0  0  0  0  0  0  0
   36.9590   32.0280   49.8000 C   0  0  0  0  0  0  0  0  0  0  0  0
   37.9120   32.8860   49.3130 N   0  0  0  0  0  0  0  0  0  0  0  0
   37.5820   31.6620   44.7210 C   0  0  0  0  0  0  0  0  0  0  0  0
   37.9520   32.8750   44.9050 O   0  0  0  0  0  0  0  0  0  0  0  0
   36.5420   31.4010   43.8950 O   0  0  0  0  0  0  0  0  0  0  0  0
   36.3160   32.2640   42.7900 C   0  0  0  0  0  0  0  0  0  0  0  0
   36.9770   32.0860   41.5660 C   0  0  0  0  0  0  0  0  0  0  0  0
   36.5020   33.1000   40.7660 C   0  0  0  0  0  0  0  0  0  0  0  0
   35.6020   33.8530   41.4670 N   0  0  0  0  0  0  0  0  0  0  0  0
   35.5180   33.3200   42.6730 N   0  0  0  0  0  0  0  0  0  0  0  0
   34.0220   36.4360   39.5870 N   0  0  0  0  0  0  0  0  0  0  0  0
   34.7320   35.3010   39.6750 N   0  0  0  0  0  0  0  0  0  0  0  0
   34.9000   34.9880   40.9730 C   0  0  0  0  0  0  0  0  0  0  0  0
   34.2900   35.9310   41.7750 C   0  0  0  0  0  0  0  0  0  0  0  0
   33.7420   36.8360   40.8610 C   0  0  0  0  0  0  0  0  0  0  0  0
   39.6387   29.8565   46.7346 H   0  0  0  0  0  0  0  0  0  0  0  0
   39.6904   32.6293   45.6951 H   0  0  0  0  0  0  0  0  0  0  0  0
   40.8643   31.7810   46.8235 H   0  0  0  0  0  0  0  0  0  0  0  0
   41.5300   32.0262   44.4092 H   0  0  0  0  0  0  0  0  0  0  0  0
   41.6079   30.3785   45.2014 H   0  0  0  0  0  0  0  0  0  0  0  0
   40.7957   29.9584   43.1328 H   0  0  0  0  0  0  0  0  0  0  0  0
   39.7189   31.4520   43.1914 H   0  0  0  0  0  0  0  0  0  0  0  0
   38.3401   29.6353   43.3189 H   0  0  0  0  0  0  0  0  0  0  0  0
   39.4031   28.8526   44.5773 H   0  0  0  0  0  0  0  0  0  0  0  0
   37.3747   29.8609   45.7607 H   0  0  0  0  0  0  0  0  0  0  0  0
   39.3709   33.1894   47.8636 H   0  0  0  0  0  0  0  0  0  0  0  0
   37.2681   29.4250   47.6213 H   0  0  0  0  0  0  0  0  0  0  0  0
   36.3644   32.3150   50.6798 H   0  0  0  0  0  0  0  0  0  0  0  0
   37.7109   31.3096   41.3040 H   0  0  0  0  0  0  0  0  0  0  0  0
   36.8008   33.2774   39.7223 H   0  0  0  0  0  0  0  0  0  0  0  0
   33.7409   36.9156   38.7199 H   0  0  0  0  0  0  0  0  0  0  0  0
   34.2455   35.9630   42.8736 H   0  0  0  0  0  0  0  0  0  0  0  0
   33.1701   37.7366   41.1292 H   0  0  0  0  0  0  0  0  0  0  0  0
  1  8  1  0
  2  1  1  0
  3  2  1  0
  4  5  1  0
  4  3  1  0
  5  6  1  0
  6  1  1  0
  7 12  2  0
  8  9  2  0
  8  7  1  0
  9 10  1  0
 10 11  2  0
 12 11  1  0
 13 14  2  0
 13  6  1  0
 15 13  1  0
 16 15  1  0
 17 16  1  0
 18 19  1  0
 18 17  2  0
 19 20  1  0
 20 16  2  0
 21 22  1  0
 21 25  1  0
 22 23  2  0
 23 19  1  0
 23 24  1  0
 25 24  2  0
  1 26  1  1
  2 27  1  0
  2 28  1  0
  3 29  1  0
  3 30  1  0
  4 31  1  0
  4 32  1  0
  5 33  1  0
  5 34  1  0
  6 35  1  1
  7 36  1  0
  9 37  1  0
 11 38  1  0
 17 39  1  0
 18 40  1  0
 21 41  1  0
 24 42  1  0
 25 43  1  0
M  ISO  8  26  13  27  13  28  13  29  13  30  13  31  13  32  13  33  13
M  ISO  8  34  13  35  13  36  14  37  14  38  14  39  14  40  14  41   9
M  ISO  2  42  14  43  14
M  END
>  <minimizedAffinity>  (1) 
-5.85692644

>  <minimizedRMSD>  (1) 
1.4038105

$$$$
