
     RDKit          3D

 51 54  0  0  1  0  0  0  0  0999 V2000
   39.2660   30.8370   46.3410 C   0  0  2  0  0  0  0  0  0  0  0  0
   40.1890   31.8200   45.8170 C   0  0  0  0  0  0  0  0  0  0  0  0
   41.0150   31.3470   44.6690 C   0  0  0  0  0  0  0  0  0  0  0  0
   40.2490   30.6230   43.6400 C   0  0  0  0  0  0  0  0  0  0  0  0
   39.2180   29.7220   44.1490 C   0  0  0  0  0  0  0  0  0  0  0  0
   38.3420   30.3690   45.2830 C   0  0  2  0  0  0  0  0  0  0  0  0
   38.6770   32.5640   48.1530 C   0  0  0  0  0  0  0  0  0  0  0  0
   38.5180   31.2870   47.5120 C   0  0  0  0  0  0  0  0  0  0  0  0
   37.6040   30.4170   47.9950 C   0  0  0  0  0  0  0  0  0  0  0  0
   36.8660   30.8070   49.0890 N   0  0  0  0  0  0  0  0  0  0  0  0
   37.0410   32.0390   49.6840 C   0  0  0  0  0  0  0  0  0  0  0  0
   37.9630   32.9220   49.1990 N   0  0  0  0  0  0  0  0  0  0  0  0
   37.6040   31.4410   44.6260 C   0  0  0  0  0  0  0  0  0  0  0  0
   37.6320   32.6850   44.9380 O   0  0  0  0  0  0  0  0  0  0  0  0
   36.8250   31.0290   43.5960 O   0  0  0  0  0  0  0  0  0  0  0  0
   35.9410   31.9660   42.9950 C   0  0  0  0  0  0  0  0  0  0  0  0
   34.5460   31.8690   43.1210 C   0  0  0  0  0  0  0  0  0  0  0  0
   34.0650   32.9400   42.4140 C   0  0  0  0  0  0  0  0  0  0  0  0
   35.0990   33.6520   41.8840 N   0  0  0  0  0  0  0  0  0  0  0  0
   36.2140   33.0440   42.2500 N   0  0  0  0  0  0  0  0  0  0  0  0
   34.1250   36.8600   39.4720 N   0  0  0  0  0  0  0  0  0  0  0  0
   33.6830   35.5250   39.0790 C   0  0  0  0  0  0  0  0  0  0  0  0
   34.7640   34.5920   39.6380 C   0  0  0  0  0  0  0  0  0  0  0  0
   35.0500   34.8520   41.0690 C   0  0  0  0  0  0  0  0  0  0  0  0
   34.1460   35.8410   41.7270 C   0  0  0  0  0  0  0  0  0  0  0  0
   33.7640   37.0050   40.8660 C   0  0  0  0  0  0  0  0  0  0  0  0
   39.8886   29.9978   46.6847 H   0  0  0  0  0  0  0  0  0  0  0  0
   39.6081   32.6931   45.4849 H   0  0  0  0  0  0  0  0  0  0  0  0
   40.8913   32.0528   46.6310 H   0  0  0  0  0  0  0  0  0  0  0  0
   41.4865   32.2221   44.1979 H   0  0  0  0  0  0  0  0  0  0  0  0
   41.7511   30.6383   45.0763 H   0  0  0  0  0  0  0  0  0  0  0  0
   40.9572   30.0277   43.0450 H   0  0  0  0  0  0  0  0  0  0  0  0
   39.7209   31.3915   43.0565 H   0  0  0  0  0  0  0  0  0  0  0  0
   38.5585   29.4377   43.3158 H   0  0  0  0  0  0  0  0  0  0  0  0
   39.7285   28.8504   44.5845 H   0  0  0  0  0  0  0  0  0  0  0  0
   37.6256   29.6899   45.7684 H   0  0  0  0  0  0  0  0  0  0  0  0
   39.4228   33.2676   47.7546 H   0  0  0  0  0  0  0  0  0  0  0  0
   37.4550   29.4313   47.5299 H   0  0  0  0  0  0  0  0  0  0  0  0
   36.4318   32.3130   50.5579 H   0  0  0  0  0  0  0  0  0  0  0  0
   33.9695   31.1059   43.6644 H   0  0  0  0  0  0  0  0  0  0  0  0
   33.0004   33.1885   42.2922 H   0  0  0  0  0  0  0  0  0  0  0  0
   33.6509   37.5759   38.9031 H   0  0  0  0  0  0  0  0  0  0  0  0
   32.7019   35.2934   39.5192 H   0  0  0  0  0  0  0  0  0  0  0  0
   33.5612   35.4246   37.9904 H   0  0  0  0  0  0  0  0  0  0  0  0
   34.4235   33.5517   39.5291 H   0  0  0  0  0  0  0  0  0  0  0  0
   35.6897   34.7744   39.0724 H   0  0  0  0  0  0  0  0  0  0  0  0
   36.0543   35.2980   41.0205 H   0  0  0  0  0  0  0  0  0  0  0  0
   33.2253   35.3185   42.0259 H   0  0  0  0  0  0  0  0  0  0  0  0
   34.7039   36.2540   42.5803 H   0  0  0  0  0  0  0  0  0  0  0  0
   34.2634   37.9027   41.2594 H   0  0  0  0  0  0  0  0  0  0  0  0
   32.6668   37.0753   40.9010 H   0  0  0  0  0  0  0  0  0  0  0  0
  1  8  1  0
  2  1  1  0
  3  2  1  0
  4  5  1  0
  4  3  1  0
  5  6  1  0
  6  1  1  0
  7 12  2  0
  8  9  2  0
  8  7  1  0
  9 10  1  0
 10 11  2  0
 12 11  1  0
 13 14  2  0
 13  6  1  0
 15 13  1  0
 16 17  1  0
 16 15  1  0
 18 17  2  0
 19 20  1  0
 19 18  1  0
 20 16  2  0
 21 26  1  0
 22 21  1  0
 22 23  1  0
 23 24  1  0
 24 25  1  0
 24 19  1  0
 26 25  1  0
  1 27  1  1
  2 28  1  0
  2 29  1  0
  3 30  1  0
  3 31  1  0
  4 32  1  0
  4 33  1  0
  5 34  1  0
  5 35  1  0
  6 36  1  1
  7 37  1  0
  9 38  1  0
 11 39  1  0
 17 40  1  0
 18 41  1  0
 21 42  1  0
 22 43  1  0
 22 44  1  0
 23 45  1  0
 23 46  1  0
 24 47  1  0
 25 48  1  0
 25 49  1  0
 26 50  1  0
 26 51  1  0
M  ISO  8  27  13  28  13  29  13  30  13  31  13  32  13  33  13  34  13
M  ISO  8  35  13  36  13  37  14  38  14  39  14  40  14  41  14  42   5
M  ISO  8  43  13  44  13  45  13  46  13  47  13  48  13  49  13  50  13
M  ISO  1  51  13
M  END
>  <minimizedAffinity>  (1) 
-5.62096834

>  <minimizedRMSD>  (1) 
1.00138366

$$$$
