
     RDKit          3D

 44 47  0  0  1  0  0  0  0  0999 V2000
   39.2760   30.8510   46.3460 C   0  0  2  0  0  0  0  0  0  0  0  0
   40.1700   31.8480   45.8020 C   0  0  0  0  0  0  0  0  0  0  0  0
   41.0010   31.3780   44.6520 C   0  0  0  0  0  0  0  0  0  0  0  0
   40.2460   30.6180   43.6420 C   0  0  0  0  0  0  0  0  0  0  0  0
   39.2420   29.7000   44.1730 C   0  0  0  0  0  0  0  0  0  0  0  0
   38.3580   30.3410   45.3040 C   0  0  2  0  0  0  0  0  0  0  0  0
   38.6710   32.5800   48.1500 C   0  0  0  0  0  0  0  0  0  0  0  0
   38.5250   31.2970   47.5170 C   0  0  0  0  0  0  0  0  0  0  0  0
   37.6230   30.4190   48.0060 C   0  0  0  0  0  0  0  0  0  0  0  0
   36.8840   30.8080   49.1000 N   0  0  0  0  0  0  0  0  0  0  0  0
   37.0440   32.0440   49.6880 C   0  0  0  0  0  0  0  0  0  0  0  0
   37.9510   32.9310   49.1980 N   0  0  0  0  0  0  0  0  0  0  0  0
   37.5880   31.3870   44.6360 C   0  0  0  0  0  0  0  0  0  0  0  0
   37.5620   32.6290   44.9520 O   0  0  0  0  0  0  0  0  0  0  0  0
   36.8430   30.9520   43.5930 O   0  0  0  0  0  0  0  0  0  0  0  0
   35.8510   31.8070   43.0570 C   0  0  0  0  0  0  0  0  0  0  0  0
   34.4780   31.5890   43.2630 C   0  0  0  0  0  0  0  0  0  0  0  0
   33.8660   32.6170   42.5930 C   0  0  0  0  0  0  0  0  0  0  0  0
   34.8000   33.4210   42.0080 N   0  0  0  0  0  0  0  0  0  0  0  0
   35.9810   32.9020   42.3100 N   0  0  0  0  0  0  0  0  0  0  0  0
   34.5460   34.5850   41.2300 C   0  0  0  0  0  0  0  0  0  0  0  0
   34.1410   35.7320   41.8810 C   0  0  0  0  0  0  0  0  0  0  0  0
   33.9090   36.8310   41.0690 C   0  0  0  0  0  0  0  0  0  0  0  0
   34.0650   36.7970   39.7260 N   0  0  0  0  0  0  0  0  0  0  0  0
   34.4680   35.6420   39.1230 C   0  0  0  0  0  0  0  0  0  0  0  0
   34.7050   34.5410   39.8950 N   0  0  0  0  0  0  0  0  0  0  0  0
   39.9241   30.0343   46.6966 H   0  0  0  0  0  0  0  0  0  0  0  0
   39.5655   32.7018   45.4621 H   0  0  0  0  0  0  0  0  0  0  0  0
   40.8721   32.1096   46.6074 H   0  0  0  0  0  0  0  0  0  0  0  0
   41.4450   32.2577   44.1631 H   0  0  0  0  0  0  0  0  0  0  0  0
   41.7596   30.6960   45.0637 H   0  0  0  0  0  0  0  0  0  0  0  0
   40.9646   30.0309   43.0513 H   0  0  0  0  0  0  0  0  0  0  0  0
   39.6939   31.3634   43.0507 H   0  0  0  0  0  0  0  0  0  0  0  0
   38.5837   29.3865   43.3494 H   0  0  0  0  0  0  0  0  0  0  0  0
   39.7781   28.8489   44.6181 H   0  0  0  0  0  0  0  0  0  0  0  0
   37.6639   29.6495   45.8041 H   0  0  0  0  0  0  0  0  0  0  0  0
   39.4068   33.2916   47.7472 H   0  0  0  0  0  0  0  0  0  0  0  0
   37.4840   29.4292   47.5468 H   0  0  0  0  0  0  0  0  0  0  0  0
   36.4328   32.3155   50.5613 H   0  0  0  0  0  0  0  0  0  0  0  0
   34.0020   30.7774   43.8328 H   0  0  0  0  0  0  0  0  0  0  0  0
   32.7784   32.7712   42.5355 H   0  0  0  0  0  0  0  0  0  0  0  0
   34.0108   35.7717   42.9725 H   0  0  0  0  0  0  0  0  0  0  0  0
   33.5839   37.7718   41.5372 H   0  0  0  0  0  0  0  0  0  0  0  0
   34.6000   35.5981   38.0318 H   0  0  0  0  0  0  0  0  0  0  0  0
  1  8  1  0
  2  1  1  0
  3  2  1  0
  4  5  1  0
  4  3  1  0
  5  6  1  0
  6  1  1  0
  7 12  2  0
  8  9  2  0
  8  7  1  0
  9 10  1  0
 10 11  2  0
 12 11  1  0
 13 14  2  0
 13  6  1  0
 15 13  1  0
 16 17  1  0
 16 15  1  0
 18 17  2  0
 19 20  1  0
 19 18  1  0
 20 16  2  0
 21 22  2  0
 21 19  1  0
 23 22  1  0
 24 23  2  0
 25 24  1  0
 25 26  2  0
 26 21  1  0
  1 27  1  1
  2 28  1  0
  2 29  1  0
  3 30  1  0
  3 31  1  0
  4 32  1  0
  4 33  1  0
  5 34  1  0
  5 35  1  0
  6 36  1  1
  7 37  1  0
  9 38  1  0
 11 39  1  0
 17 40  1  0
 18 41  1  0
 22 42  1  0
 23 43  1  0
 25 44  1  0
M  ISO  8  27  13  28  13  29  13  30  13  31  13  32  13  33  13  34  13
M  ISO  8  35  13  36  13  37  14  38  14  39  14  40  14  41  14  42  14
M  ISO  2  43  14  44  14
M  END
>  <minimizedAffinity>  (1) 
-5.54457283

>  <minimizedRMSD>  (1) 
1.25893688

$$$$
