
     RDKit          3D

 24 25  0  0  0  0  0  0  0  0999 V2000
   37.6400   29.4700   50.5730 C   0  0  0  0  0  0  0  0  0  0  0  0
   38.0970   30.7910   50.4650 C   0  0  0  0  0  0  0  0  0  0  0  0
   37.3260   31.7050   49.7090 C   0  0  0  0  0  0  0  0  0  0  0  0
   36.1890   31.2370   49.1350 N   0  0  0  0  0  0  0  0  0  0  0  0
   35.7750   29.9630   49.2560 C   0  0  0  0  0  0  0  0  0  0  0  0
   36.5080   29.0810   49.9790 N   0  0  0  0  0  0  0  0  0  0  0  0
   34.5570   29.5380   48.6180 N   0  0  0  0  0  0  0  0  0  0  0  0
   33.8350   28.4750   49.2700 C   0  0  0  0  0  0  0  0  0  0  0  0
   32.7920   27.8480   48.3890 C   0  0  0  0  0  0  0  0  0  0  0  0
   32.1830   28.8260   47.4880 N   0  0  0  0  0  0  0  0  0  0  0  0
   33.2680   29.2460   46.6080 C   0  0  0  0  0  0  0  0  0  0  0  0
   34.1420   30.1800   47.4040 C   0  0  0  0  0  0  0  0  0  0  0  0
   38.2228   28.7419   51.1562 H   0  0  0  0  0  0  0  0  0  0  0  0
   39.0295   31.1081   50.9547 H   0  0  0  0  0  0  0  0  0  0  0  0
   37.6360   32.7538   49.5911 H   0  0  0  0  0  0  0  0  0  0  0  0
   34.5523   27.6977   49.5719 H   0  0  0  0  0  0  0  0  0  0  0  0
   33.3155   28.9123   50.1353 H   0  0  0  0  0  0  0  0  0  0  0  0
   33.2626   27.0555   47.7887 H   0  0  0  0  0  0  0  0  0  0  0  0
   32.0008   27.4382   49.0341 H   0  0  0  0  0  0  0  0  0  0  0  0
   31.4215   28.3946   46.9450 H   0  0  0  0  0  0  0  0  0  0  0  0
   32.8614   29.7664   45.7283 H   0  0  0  0  0  0  0  0  0  0  0  0
   33.8425   28.3787   46.2505 H   0  0  0  0  0  0  0  0  0  0  0  0
   35.0286   30.4464   46.8098 H   0  0  0  0  0  0  0  0  0  0  0  0
   33.5742   31.0897   47.6490 H   0  0  0  0  0  0  0  0  0  0  0  0
  2  1  2  0
  3  2  1  0
  4  5  1  0
  4  3  2  0
  5  6  2  0
  6  1  1  0
  7  5  1  0
  7  8  1  0
  9  8  1  0
 10  9  1  0
 11 12  1  0
 11 10  1  0
 12  7  1  0
  1 13  1  0
  2 14  1  0
  3 15  1  0
  8 16  1  0
  8 17  1  0
  9 18  1  0
  9 19  1  0
 10 20  1  0
 11 21  1  0
 11 22  1  0
 12 23  1  0
 12 24  1  0
M  ISO  8  13  14  14  14  15  14  16  13  17  13  18  13  19  13  20   5
M  ISO  4  21  13  22  13  23  13  24  13
M  END
>  <minimizedAffinity>  (1) 
-4.33592987

>  <minimizedRMSD>  (1) 
2.03070545

$$$$
