
     RDKit          3D

 43 46  0  0  1  0  0  0  0  0999 V2000
   39.2660   30.8080   46.2270 C   0  0  2  0  0  0  0  0  0  0  0  0
   40.1900   31.7640   45.6560 C   0  0  0  0  0  0  0  0  0  0  0  0
   40.9770   31.2490   44.4980 C   0  0  0  0  0  0  0  0  0  0  0  0
   40.1700   30.5170   43.5050 C   0  0  0  0  0  0  0  0  0  0  0  0
   39.1410   29.6450   44.0640 C   0  0  0  0  0  0  0  0  0  0  0  0
   38.3050   30.3310   45.2050 C   0  0  2  0  0  0  0  0  0  0  0  0
   38.7630   32.5760   48.0280 C   0  0  0  0  0  0  0  0  0  0  0  0
   38.5550   31.2940   47.4080 C   0  0  0  0  0  0  0  0  0  0  0  0
   37.6290   30.4570   47.9210 C   0  0  0  0  0  0  0  0  0  0  0  0
   36.9270   30.8830   49.0260 N   0  0  0  0  0  0  0  0  0  0  0  0
   37.1470   32.1160   49.6000 C   0  0  0  0  0  0  0  0  0  0  0  0
   38.0850   32.9700   49.0820 N   0  0  0  0  0  0  0  0  0  0  0  0
   37.5670   31.4010   44.5440 C   0  0  0  0  0  0  0  0  0  0  0  0
   37.5990   32.6460   44.8490 O   0  0  0  0  0  0  0  0  0  0  0  0
   36.7840   30.9850   43.5210 O   0  0  0  0  0  0  0  0  0  0  0  0
   35.6400   31.7540   43.1820 C   0  0  0  0  0  0  0  0  0  0  0  0
   34.3350   31.2970   43.4250 C   0  0  0  0  0  0  0  0  0  0  0  0
   33.5250   32.3050   42.9670 C   0  0  0  0  0  0  0  0  0  0  0  0
   34.2900   33.3230   42.4710 N   0  0  0  0  0  0  0  0  0  0  0  0
   35.5500   32.9570   42.6180 N   0  0  0  0  0  0  0  0  0  0  0  0
   33.7950   34.5330   41.9110 C   0  0  0  0  0  0  0  0  0  0  0  0
   34.5500   35.6510   41.6560 C   0  0  0  0  0  0  0  0  0  0  0  0
   33.6900   36.5490   41.1340 N   0  0  0  0  0  0  0  0  0  0  0  0
   32.4570   36.0050   41.0690 C   0  0  0  0  0  0  0  0  0  0  0  0
   32.4970   34.7310   41.5550 N   0  0  0  0  0  0  0  0  0  0  0  0
   39.8869   29.9684   46.5727 H   0  0  0  0  0  0  0  0  0  0  0  0
   39.6144   32.6385   45.3184 H   0  0  0  0  0  0  0  0  0  0  0  0
   40.9171   32.0058   46.4453 H   0  0  0  0  0  0  0  0  0  0  0  0
   41.4529   32.1038   43.9952 H   0  0  0  0  0  0  0  0  0  0  0  0
   41.7098   30.5352   44.9024 H   0  0  0  0  0  0  0  0  0  0  0  0
   40.8508   29.8978   42.9024 H   0  0  0  0  0  0  0  0  0  0  0  0
   39.6384   31.2813   42.9191 H   0  0  0  0  0  0  0  0  0  0  0  0
   38.4550   29.3503   43.2561 H   0  0  0  0  0  0  0  0  0  0  0  0
   39.6515   28.7775   44.5075 H   0  0  0  0  0  0  0  0  0  0  0  0
   37.5905   29.6748   45.7235 H   0  0  0  0  0  0  0  0  0  0  0  0
   39.5192   33.2523   47.6028 H   0  0  0  0  0  0  0  0  0  0  0  0
   37.4419   29.4702   47.4725 H   0  0  0  0  0  0  0  0  0  0  0  0
   36.5640   32.4178   50.4826 H   0  0  0  0  0  0  0  0  0  0  0  0
   34.0301   30.3435   43.8809 H   0  0  0  0  0  0  0  0  0  0  0  0
   32.4254   32.2953   42.9948 H   0  0  0  0  0  0  0  0  0  0  0  0
   35.6264   35.7855   41.8385 H   0  0  0  0  0  0  0  0  0  0  0  0
   31.5590   36.5103   40.6839 H   0  0  0  0  0  0  0  0  0  0  0  0
   31.7155   34.0648   41.6349 H   0  0  0  0  0  0  0  0  0  0  0  0
  1  8  1  0
  2  1  1  0
  3  2  1  0
  4  5  1  0
  4  3  1  0
  5  6  1  0
  6  1  1  0
  7 12  2  0
  8  9  2  0
  8  7  1  0
  9 10  1  0
 10 11  2  0
 12 11  1  0
 13 14  2  0
 13  6  1  0
 15 13  1  0
 16 17  1  0
 16 15  1  0
 18 17  2  0
 19 20  1  0
 19 18  1  0
 20 16  2  0
 21 19  1  0
 22 21  2  0
 23 22  1  0
 24 23  2  0
 24 25  1  0
 25 21  1  0
  1 26  1  1
  2 27  1  0
  2 28  1  0
  3 29  1  0
  3 30  1  0
  4 31  1  0
  4 32  1  0
  5 33  1  0
  5 34  1  0
  6 35  1  1
  7 36  1  0
  9 37  1  0
 11 38  1  0
 17 39  1  0
 18 40  1  0
 22 41  1  0
 24 42  1  0
 25 43  1  0
M  ISO  8  26  13  27  13  28  13  29  13  30  13  31  13  32  13  33  13
M  ISO  8  34  13  35  13  36  14  37  14  38  14  39  14  40  14  41  14
M  ISO  2  42  14  43   9
M  END
>  <minimizedAffinity>  (1) 
-5.52926159

>  <minimizedRMSD>  (1) 
1.74516201

$$$$
