
     RDKit          3D

 48 51  0  0  1  0  0  0  0  0999 V2000
   39.2740   30.8540   46.3760 C   0  0  2  0  0  0  0  0  0  0  0  0
   40.1890   31.8330   45.8350 C   0  0  0  0  0  0  0  0  0  0  0  0
   41.0100   31.3460   44.6890 C   0  0  0  0  0  0  0  0  0  0  0  0
   40.2320   30.6160   43.6680 C   0  0  0  0  0  0  0  0  0  0  0  0
   39.2150   29.7140   44.2000 C   0  0  0  0  0  0  0  0  0  0  0  0
   38.3430   30.3700   45.3330 C   0  0  2  0  0  0  0  0  0  0  0  0
   38.6810   32.6000   48.1720 C   0  0  0  0  0  0  0  0  0  0  0  0
   38.5330   31.3100   47.5510 C   0  0  0  0  0  0  0  0  0  0  0  0
   37.6370   30.4350   48.0590 C   0  0  0  0  0  0  0  0  0  0  0  0
   36.9080   30.8320   49.1550 N   0  0  0  0  0  0  0  0  0  0  0  0
   37.0710   32.0750   49.7300 C   0  0  0  0  0  0  0  0  0  0  0  0
   37.9740   32.9620   49.2210 N   0  0  0  0  0  0  0  0  0  0  0  0
   37.5950   31.4320   44.6720 C   0  0  0  0  0  0  0  0  0  0  0  0
   37.6480   32.6820   44.9490 O   0  0  0  0  0  0  0  0  0  0  0  0
   36.7770   31.0080   43.6810 O   0  0  0  0  0  0  0  0  0  0  0  0
   35.9590   31.9530   43.0140 C   0  0  0  0  0  0  0  0  0  0  0  0
   34.5640   31.8700   43.0270 C   0  0  0  0  0  0  0  0  0  0  0  0
   34.1460   32.9490   42.2780 C   0  0  0  0  0  0  0  0  0  0  0  0
   35.2320   33.6500   41.8350 N   0  0  0  0  0  0  0  0  0  0  0  0
   36.2970   33.0170   42.2990 N   0  0  0  0  0  0  0  0  0  0  0  0
   34.3100   34.6410   39.8490 N   0  0  0  0  0  0  0  0  0  0  0  0
   33.0230   34.3750   40.4740 C   0  0  0  0  0  0  0  0  0  0  0  0
   32.9980   35.2370   41.7300 C   0  0  0  0  0  0  0  0  0  0  0  0
   34.3490   35.9360   41.7090 C   0  0  0  0  0  0  0  0  0  0  0  0
   35.1810   34.8480   41.0170 C   0  0  1  0  0  0  0  0  0  0  0  0
   39.9055   30.0225   46.7222 H   0  0  0  0  0  0  0  0  0  0  0  0
   39.6030   32.6993   45.4941 H   0  0  0  0  0  0  0  0  0  0  0  0
   40.8944   32.0811   46.6418 H   0  0  0  0  0  0  0  0  0  0  0  0
   41.4848   32.2142   44.2085 H   0  0  0  0  0  0  0  0  0  0  0  0
   41.7455   30.6382   45.0989 H   0  0  0  0  0  0  0  0  0  0  0  0
   40.9335   30.0220   43.0638 H   0  0  0  0  0  0  0  0  0  0  0  0
   39.6942   31.3787   43.0857 H   0  0  0  0  0  0  0  0  0  0  0  0
   38.5505   29.4110   43.3775 H   0  0  0  0  0  0  0  0  0  0  0  0
   39.7379   28.8540   44.6438 H   0  0  0  0  0  0  0  0  0  0  0  0
   37.6325   29.6930   45.8299 H   0  0  0  0  0  0  0  0  0  0  0  0
   39.4114   33.3087   47.7546 H   0  0  0  0  0  0  0  0  0  0  0  0
   37.4959   29.4402   47.6113 H   0  0  0  0  0  0  0  0  0  0  0  0
   36.4677   32.3536   50.6066 H   0  0  0  0  0  0  0  0  0  0  0  0
   33.9394   31.1130   43.5238 H   0  0  0  0  0  0  0  0  0  0  0  0
   33.0973   33.2066   42.0687 H   0  0  0  0  0  0  0  0  0  0  0  0
   34.6249   33.8388   39.2849 H   0  0  0  0  0  0  0  0  0  0  0  0
   32.2016   34.6554   39.7982 H   0  0  0  0  0  0  0  0  0  0  0  0
   32.8941   33.3078   40.7073 H   0  0  0  0  0  0  0  0  0  0  0  0
   32.1768   35.9677   41.6889 H   0  0  0  0  0  0  0  0  0  0  0  0
   32.8326   34.6526   42.6471 H   0  0  0  0  0  0  0  0  0  0  0  0
   34.3212   36.8669   41.1236 H   0  0  0  0  0  0  0  0  0  0  0  0
   34.7247   36.2621   42.6901 H   0  0  0  0  0  0  0  0  0  0  0  0
   36.2322   35.0938   40.8058 H   0  0  0  0  0  0  0  0  0  0  0  0
  1  8  1  0
  2  1  1  0
  3  2  1  0
  4  5  1  0
  4  3  1  0
  5  6  1  0
  6  1  1  0
  7 12  2  0
  8  9  2  0
  8  7  1  0
  9 10  1  0
 10 11  2  0
 12 11  1  0
 13 14  2  0
 13  6  1  0
 15 13  1  0
 16 17  1  0
 16 15  1  0
 18 17  2  0
 19 18  1  0
 19 20  1  0
 20 16  2  0
 21 22  1  0
 21 25  1  0
 22 23  1  0
 24 23  1  0
 25 24  1  0
 25 19  1  0
  1 26  1  1
  2 27  1  0
  2 28  1  0
  3 29  1  0
  3 30  1  0
  4 31  1  0
  4 32  1  0
  5 33  1  0
  5 34  1  0
  6 35  1  1
  7 36  1  0
  9 37  1  0
 11 38  1  0
 17 39  1  0
 18 40  1  0
 21 41  1  0
 22 42  1  0
 22 43  1  0
 23 44  1  0
 23 45  1  0
 24 46  1  0
 24 47  1  0
 25 48  1  6
M  ISO  8  26  13  27  13  28  13  29  13  30  13  31  13  32  13  33  13
M  ISO  8  34  13  35  13  36  14  37  14  38  14  39  14  40  14  41   5
M  ISO  7  42  13  43  13  44  13  45  13  46  13  47  13  48  13
M  END
>  <minimizedAffinity>  (1) 
-5.4954133

>  <minimizedRMSD>  (1) 
0.731788218

$$$$
