
     RDKit          3D

 42 44  0  0  1  0  0  0  0  0999 V2000
   39.2630   30.8400   46.3550 C   0  0  2  0  0  0  0  0  0  0  0  0
   40.1820   31.8230   45.8270 C   0  0  0  0  0  0  0  0  0  0  0  0
   41.0050   31.3490   44.6770 C   0  0  0  0  0  0  0  0  0  0  0  0
   40.2380   30.6180   43.6530 C   0  0  0  0  0  0  0  0  0  0  0  0
   39.2120   29.7170   44.1680 C   0  0  0  0  0  0  0  0  0  0  0  0
   38.3380   30.3640   45.3020 C   0  0  2  0  0  0  0  0  0  0  0  0
   38.6730   32.5690   48.1650 C   0  0  0  0  0  0  0  0  0  0  0  0
   38.5170   31.2900   47.5270 C   0  0  0  0  0  0  0  0  0  0  0  0
   37.6090   30.4160   48.0170 C   0  0  0  0  0  0  0  0  0  0  0  0
   36.8740   30.8060   49.1120 N   0  0  0  0  0  0  0  0  0  0  0  0
   37.0450   32.0390   49.7050 C   0  0  0  0  0  0  0  0  0  0  0  0
   37.9630   32.9260   49.2130 N   0  0  0  0  0  0  0  0  0  0  0  0
   37.5940   31.4310   44.6460 C   0  0  0  0  0  0  0  0  0  0  0  0
   37.6390   32.6790   44.9360 O   0  0  0  0  0  0  0  0  0  0  0  0
   36.7870   31.0100   43.6420 O   0  0  0  0  0  0  0  0  0  0  0  0
   35.9230   31.9520   43.0200 C   0  0  0  0  0  0  0  0  0  0  0  0
   34.5260   31.8600   43.1050 C   0  0  0  0  0  0  0  0  0  0  0  0
   34.0650   32.9340   42.3880 C   0  0  0  0  0  0  0  0  0  0  0  0
   35.1170   33.6430   41.8940 N   0  0  0  0  0  0  0  0  0  0  0  0
   36.2190   33.0290   42.2900 N   0  0  0  0  0  0  0  0  0  0  0  0
   35.0840   34.8400   41.0870 C   0  0  0  0  0  0  0  0  0  0  0  0
   34.3500   35.9660   41.7540 C   0  0  0  0  0  0  0  0  0  0  0  0
   39.8900   30.0041   46.6987 H   0  0  0  0  0  0  0  0  0  0  0  0
   39.5987   32.6946   45.4953 H   0  0  0  0  0  0  0  0  0  0  0  0
   40.8865   32.0586   46.6383 H   0  0  0  0  0  0  0  0  0  0  0  0
   41.4711   32.2243   44.2010 H   0  0  0  0  0  0  0  0  0  0  0  0
   41.7452   30.6444   45.0840 H   0  0  0  0  0  0  0  0  0  0  0  0
   40.9463   30.0222   43.0586 H   0  0  0  0  0  0  0  0  0  0  0  0
   39.7059   31.3825   43.0678 H   0  0  0  0  0  0  0  0  0  0  0  0
   38.5507   29.4282   43.3378 H   0  0  0  0  0  0  0  0  0  0  0  0
   39.7267   28.8486   44.6051 H   0  0  0  0  0  0  0  0  0  0  0  0
   37.6264   29.6824   45.7909 H   0  0  0  0  0  0  0  0  0  0  0  0
   39.4137   33.2752   47.7616 H   0  0  0  0  0  0  0  0  0  0  0  0
   37.4634   29.4279   47.5560 H   0  0  0  0  0  0  0  0  0  0  0  0
   36.4382   32.3117   50.5810 H   0  0  0  0  0  0  0  0  0  0  0  0
   33.9327   31.0967   43.6297 H   0  0  0  0  0  0  0  0  0  0  0  0
   33.0050   33.1849   42.2350 H   0  0  0  0  0  0  0  0  0  0  0  0
   34.5843   34.6091   40.1346 H   0  0  0  0  0  0  0  0  0  0  0  0
   36.1232   35.1656   40.9317 H   0  0  0  0  0  0  0  0  0  0  0  0
   34.4224   35.8550   42.8460 H   0  0  0  0  0  0  0  0  0  0  0  0
   34.7972   36.9247   41.4525 H   0  0  0  0  0  0  0  0  0  0  0  0
   33.2924   35.9438   41.4525 H   0  0  0  0  0  0  0  0  0  0  0  0
  1  8  1  0
  2  1  1  0
  3  2  1  0
  4  5  1  0
  4  3  1  0
  5  6  1  0
  6  1  1  0
  7 12  2  0
  8  9  2  0
  8  7  1  0
  9 10  1  0
 10 11  2  0
 12 11  1  0
 13 14  2  0
 13  6  1  0
 15 13  1  0
 16 17  1  0
 16 15  1  0
 18 17  2  0
 19 20  1  0
 19 18  1  0
 20 16  2  0
 21 22  1  0
 21 19  1  0
  1 23  1  1
  2 24  1  0
  2 25  1  0
  3 26  1  0
  3 27  1  0
  4 28  1  0
  4 29  1  0
  5 30  1  0
  5 31  1  0
  6 32  1  1
  7 33  1  0
  9 34  1  0
 11 35  1  0
 17 36  1  0
 18 37  1  0
 21 38  1  0
 21 39  1  0
 22 40  1  0
 22 41  1  0
 22 42  1  0
M  ISO  8  23  13  24  13  25  13  26  13  27  13  28  13  29  13  30  13
M  ISO  8  31  13  32  13  33  14  34  14  35  14  36  14  37  14  38   8
M  ISO  4  39   8  40   8  41   8  42   8
M  END
>  <minimizedAffinity>  (1) 
-5.12352753

>  <minimizedRMSD>  (1) 
0.593299925

$$$$
