
     RDKit          3D

 16 17  0  0  0  0  0  0  0  0999 V2000
   38.1360   30.8810   50.2440 C   0  0  0  0  0  0  0  0  0  0  0  0
   37.7110   30.5320   48.9580 C   0  0  0  0  0  0  0  0  0  0  0  0
   36.6430   29.6450   48.8770 C   0  0  0  0  0  0  0  0  0  0  0  0
   36.0800   29.1740   50.0200 N   0  0  0  0  0  0  0  0  0  0  0  0
   36.5230   29.5390   51.2370 C   0  0  0  0  0  0  0  0  0  0  0  0
   37.5510   30.3920   51.3410 N   0  0  0  0  0  0  0  0  0  0  0  0
   38.3770   31.0890   47.7880 C   0  0  0  0  0  0  0  0  0  0  0  0
   38.8910   32.4180   47.8430 C   0  0  0  0  0  0  0  0  0  0  0  0
   39.6330   32.6920   46.1740 S   0  0  0  0  0  0  0  0  0  0  0  0
   39.1070   30.9310   45.6900 C   0  0  0  0  0  0  0  0  0  0  0  0
   38.5970   30.5320   46.6140 N   0  0  0  0  0  0  0  0  0  0  0  0
   38.9781   31.5798   50.3556 H   0  0  0  0  0  0  0  0  0  0  0  0
   36.2578   29.3278   47.8967 H   0  0  0  0  0  0  0  0  0  0  0  0
   36.0433   29.1389   52.1424 H   0  0  0  0  0  0  0  0  0  0  0  0
   38.8540   33.1210   48.6883 H   0  0  0  0  0  0  0  0  0  0  0  0
   39.2638   30.4184   44.7295 H   0  0  0  0  0  0  0  0  0  0  0  0
  1  6  2  0
  2  1  1  0
  3  2  2  0
  3  4  1  0
  4  5  2  0
  5  6  1  0
  7  8  2  0
  7  2  1  0
  9  8  1  0
 10  9  1  0
 10 11  2  0
 11  7  1  0
  1 12  1  0
  3 13  1  0
  5 14  1  0
  8 15  1  0
 10 16  1  0
M  ISO  5  12  14  13  14  14  14  15  14  16  14
M  END
>  <minimizedAffinity>  (1) 
-4.16062641

>  <minimizedRMSD>  (1) 
3.29683089

$$$$
