
     RDKit          3D

 30 33  0  0  0  0  0  0  0  0999 V2000
   37.9600   31.3820   46.9990 C   0  0  0  0  0  0  0  0  0  0  0  0
   38.9230   32.2270   47.6370 C   0  0  0  0  0  0  0  0  0  0  0  0
   39.8140   33.0070   46.2170 S   0  0  0  0  0  0  0  0  0  0  0  0
   38.7100   32.0410   45.0190 C   0  0  0  0  0  0  0  0  0  0  0  0
   38.0350   31.4480   45.6930 N   0  0  0  0  0  0  0  0  0  0  0  0
   38.8240   32.1400   43.5710 N   0  0  0  0  0  0  0  0  0  0  0  0
   38.1710   32.9930   42.7430 C   0  0  0  0  0  0  0  0  0  0  0  0
   38.5510   32.7710   41.4820 N   0  0  0  0  0  0  0  0  0  0  0  0
   39.4510   31.7790   41.4590 C   0  0  0  0  0  0  0  0  0  0  0  0
   40.1470   31.1730   40.4200 C   0  0  0  0  0  0  0  0  0  0  0  0
   39.9910   31.5330   39.2250 O   0  0  0  0  0  0  0  0  0  0  0  0
   41.0120   30.1750   40.6750 N   0  0  0  0  0  0  0  0  0  0  0  0
   41.1450   29.8260   41.9680 C   0  0  0  0  0  0  0  0  0  0  0  0
   42.0330   28.7820   42.3740 N   0  0  0  0  0  0  0  0  0  0  0  0
   40.4840   30.3940   43.0100 N   0  0  0  0  0  0  0  0  0  0  0  0
   39.6090   31.3980   42.7840 C   0  0  0  0  0  0  0  0  0  0  0  0
   37.5210   30.0410   49.0340 C   0  0  0  0  0  0  0  0  0  0  0  0
   37.0480   30.5810   47.8220 C   0  0  0  0  0  0  0  0  0  0  0  0
   35.7350   30.3160   47.4860 C   0  0  0  0  0  0  0  0  0  0  0  0
   34.9720   29.5670   48.3100 N   0  0  0  0  0  0  0  0  0  0  0  0
   35.4570   29.0610   49.4710 C   0  0  0  0  0  0  0  0  0  0  0  0
   36.7280   29.3040   49.8190 N   0  0  0  0  0  0  0  0  0  0  0  0
   39.0924   32.3765   48.7136 H   0  0  0  0  0  0  0  0  0  0  0  0
   37.4405   33.7513   43.0612 H   0  0  0  0  0  0  0  0  0  0  0  0
   41.5408   29.7061   39.9258 H   0  0  0  0  0  0  0  0  0  0  0  0
   42.1158   28.5348   43.3705 H   0  0  0  0  0  0  0  0  0  0  0  0
   42.5901   28.2769   41.6701 H   0  0  0  0  0  0  0  0  0  0  0  0
   38.5607   30.2288   49.3400 H   0  0  0  0  0  0  0  0  0  0  0  0
   35.3129   30.7134   46.5512 H   0  0  0  0  0  0  0  0  0  0  0  0
   34.8110   28.4548   50.1230 H   0  0  0  0  0  0  0  0  0  0  0  0
  1  2  2  0
  1 18  1  0
  3  2  1  0
  4  5  2  0
  4  3  1  0
  5  1  1  0
  6  4  1  0
  7  6  1  0
  8  7  2  0
  9  8  1  0
  9 16  2  0
 10 12  1  0
 10  9  1  0
 11 10  2  0
 12 13  1  0
 13 14  1  0
 13 15  2  0
 16 15  1  0
 16  6  1  0
 17 22  2  0
 18 17  1  0
 19 18  2  0
 19 20  1  0
 20 21  2  0
 21 22  1  0
  2 23  1  0
  7 24  1  0
 12 25  1  0
 14 26  1  0
 14 27  1  0
 17 28  1  0
 19 29  1  0
 21 30  1  0
M  ISO  6  23  14  24  14  25   9  28  14  29  14  30  14
M  END
>  <minimizedAffinity>  (1) 
-6.32398224

>  <minimizedRMSD>  (1) 
2.34164262

$$$$
