
     RDKit          3D

 26 28  0  0  0  0  0  0  0  0999 V2000
   38.2600   31.0650   47.9480 C   0  0  0  0  0  0  0  0  0  0  0  0
   38.7460   32.4080   48.0430 C   0  0  0  0  0  0  0  0  0  0  0  0
   39.5450   32.7000   46.3960 S   0  0  0  0  0  0  0  0  0  0  0  0
   39.0730   30.9430   45.8720 C   0  0  0  0  0  0  0  0  0  0  0  0
   38.5430   30.5530   46.7800 N   0  0  0  0  0  0  0  0  0  0  0  0
   39.3800   30.3650   44.5820 N   0  0  0  0  0  0  0  0  0  0  0  0
   38.9100   29.2020   44.0940 C   0  0  0  0  0  0  0  0  0  0  0  0
   39.3230   28.8250   42.8430 C   0  0  0  0  0  0  0  0  0  0  0  0
   40.1950   29.5840   42.0720 C   0  0  0  0  0  0  0  0  0  0  0  0
   40.5510   29.2020   40.9270 O   0  0  0  0  0  0  0  0  0  0  0  0
   40.6380   30.7410   42.6080 N   0  0  0  0  0  0  0  0  0  0  0  0
   40.2330   31.1150   43.8400 C   0  0  0  0  0  0  0  0  0  0  0  0
   40.7040   32.2150   44.2500 O   0  0  0  0  0  0  0  0  0  0  0  0
   37.9460   30.7960   50.3840 C   0  0  0  0  0  0  0  0  0  0  0  0
   37.5580   30.4860   49.0880 C   0  0  0  0  0  0  0  0  0  0  0  0
   36.4830   29.6070   48.9340 C   0  0  0  0  0  0  0  0  0  0  0  0
   35.8960   29.1220   50.0650 N   0  0  0  0  0  0  0  0  0  0  0  0
   36.3030   29.4490   51.2960 C   0  0  0  0  0  0  0  0  0  0  0  0
   37.3300   30.2870   51.4500 N   0  0  0  0  0  0  0  0  0  0  0  0
   38.6646   33.1024   48.8922 H   0  0  0  0  0  0  0  0  0  0  0  0
   38.2191   28.5766   44.6784 H   0  0  0  0  0  0  0  0  0  0  0  0
   38.9468   27.8775   42.4299 H   0  0  0  0  0  0  0  0  0  0  0  0
   41.2860   31.3393   42.0760 H   0  0  0  0  0  0  0  0  0  0  0  0
   38.7901   31.4848   50.5360 H   0  0  0  0  0  0  0  0  0  0  0  0
   36.1231   29.3166   47.9359 H   0  0  0  0  0  0  0  0  0  0  0  0
   35.7942   29.0297   52.1765 H   0  0  0  0  0  0  0  0  0  0  0  0
  1  2  2  0
  1 15  1  0
  3  2  1  0
  4  3  1  0
  4  5  2  0
  5  1  1  0
  6  4  1  0
  7  6  1  0
  8  7  2  0
  9 11  1  0
  9  8  1  0
 10  9  2  0
 11 12  1  0
 12 13  2  0
 12  6  1  0
 14 19  2  0
 15 14  1  0
 16 15  2  0
 16 17  1  0
 17 18  2  0
 18 19  1  0
  2 20  1  0
  7 21  1  0
  8 22  1  0
 11 23  1  0
 14 24  1  0
 16 25  1  0
 18 26  1  0
M  ISO  7  20  14  21  14  22  14  23   9  24  14  25  14  26  14
M  END
>  <minimizedAffinity>  (1) 
-6.02158833

>  <minimizedRMSD>  (1) 
0.234337837

$$$$
