
     RDKit          3D

 30 33  0  0  0  0  0  0  0  0999 V2000
   38.3270   31.0760   47.8020 C   0  0  0  0  0  0  0  0  0  0  0  0
   38.8640   32.3800   47.8490 C   0  0  0  0  0  0  0  0  0  0  0  0
   39.5570   32.5930   46.1450 S   0  0  0  0  0  0  0  0  0  0  0  0
   38.9800   30.8560   45.6890 C   0  0  0  0  0  0  0  0  0  0  0  0
   38.5040   30.5220   46.6360 N   0  0  0  0  0  0  0  0  0  0  0  0
   39.3180   30.4950   44.3030 C   0  0  0  0  0  0  0  0  0  0  0  0
   40.5270   30.5920   43.7290 N   0  0  0  0  0  0  0  0  0  0  0  0
   40.7940   30.2520   42.4620 C   0  0  0  0  0  0  0  0  0  0  0  0
   39.8080   29.7710   41.6600 N   0  0  0  0  0  0  0  0  0  0  0  0
   38.5420   29.6350   42.1510 C   0  0  0  0  0  0  0  0  0  0  0  0
   37.5510   29.1460   41.3290 C   0  0  0  0  0  0  0  0  0  0  0  0
   36.2680   29.0130   41.8410 C   0  0  0  0  0  0  0  0  0  0  0  0
   36.0690   29.3860   43.1620 C   0  0  0  0  0  0  0  0  0  0  0  0
   37.0830   29.8690   43.9540 C   0  0  0  0  0  0  0  0  0  0  0  0
   38.3470   30.0060   43.4650 C   0  0  0  0  0  0  0  0  0  0  0  0
   38.1250   30.8780   50.2660 C   0  0  0  0  0  0  0  0  0  0  0  0
   37.6740   30.5090   48.9820 C   0  0  0  0  0  0  0  0  0  0  0  0
   36.6220   29.6160   48.9490 C   0  0  0  0  0  0  0  0  0  0  0  0
   36.0960   29.1560   50.1120 N   0  0  0  0  0  0  0  0  0  0  0  0
   36.5600   29.5370   51.3080 C   0  0  0  0  0  0  0  0  0  0  0  0
   37.5720   30.3960   51.3800 N   0  0  0  0  0  0  0  0  0  0  0  0
   38.8696   33.0917   48.6877 H   0  0  0  0  0  0  0  0  0  0  0  0
   41.8153   30.3624   42.0686 H   0  0  0  0  0  0  0  0  0  0  0  0
   37.7719   28.8667   40.2882 H   0  0  0  0  0  0  0  0  0  0  0  0
   35.4426   28.6275   41.2244 H   0  0  0  0  0  0  0  0  0  0  0  0
   35.0610   29.2916   43.5922 H   0  0  0  0  0  0  0  0  0  0  0  0
   36.8711   30.1487   44.9965 H   0  0  0  0  0  0  0  0  0  0  0  0
   38.9613   31.5874   50.3519 H   0  0  0  0  0  0  0  0  0  0  0  0
   36.2124   29.2792   47.9853 H   0  0  0  0  0  0  0  0  0  0  0  0
   36.1057   29.1408   52.2281 H   0  0  0  0  0  0  0  0  0  0  0  0
  1  2  2  0
  1 17  1  0
  3  2  1  0
  4  3  1  0
  4  5  2  0
  5  1  1  0
  6  4  1  0
  7  6  2  0
  8  7  1  0
  9 10  1  0
  9  8  2  0
 10 15  2  0
 11 12  2  0
 11 10  1  0
 12 13  1  0
 13 14  2  0
 15 14  1  0
 15  6  1  0
 16 21  2  0
 17 16  1  0
 18 17  2  0
 18 19  1  0
 19 20  2  0
 20 21  1  0
  2 22  1  0
  8 23  1  0
 11 24  1  0
 12 25  1  0
 13 26  1  0
 14 27  1  0
 16 28  1  0
 18 29  1  0
 20 30  1  0
M  ISO  8  22  14  23  14  24  14  25  14  26  14  27  14  28  14  29  14
M  ISO  1  30  14
M  END
>  <minimizedAffinity>  (1) 
-5.66564226

>  <minimizedRMSD>  (1) 
0.273309737

$$$$
