
     RDKit          3D

 23 25  0  0  0  0  0  0  0  0999 V2000
   38.4310   31.1940   47.8310 C   0  0  0  0  0  0  0  0  0  0  0  0
   38.8660   32.5450   47.9200 C   0  0  0  0  0  0  0  0  0  0  0  0
   39.6880   32.8580   46.3050 S   0  0  0  0  0  0  0  0  0  0  0  0
   39.2940   31.0790   45.7840 C   0  0  0  0  0  0  0  0  0  0  0  0
   38.7540   30.6570   46.6740 N   0  0  0  0  0  0  0  0  0  0  0  0
   39.6330   30.4360   44.5060 N   0  0  0  0  0  0  0  0  0  0  0  0
   40.6170   30.8260   43.7350 N   0  0  0  0  0  0  0  0  0  0  0  0
   40.6840   30.0470   42.6320 C   0  0  0  0  0  0  0  0  0  0  0  0
   39.6430   29.1220   42.7780 C   0  0  0  0  0  0  0  0  0  0  0  0
   38.9920   29.3850   43.9660 C   0  0  0  0  0  0  0  0  0  0  0  0
   38.1310   30.8950   50.2640 C   0  0  0  0  0  0  0  0  0  0  0  0
   37.7190   30.5760   48.9560 C   0  0  0  0  0  0  0  0  0  0  0  0
   36.6650   29.6960   48.8130 C   0  0  0  0  0  0  0  0  0  0  0  0
   36.0790   29.1840   49.9150 N   0  0  0  0  0  0  0  0  0  0  0  0
   36.4930   29.5050   51.1570 C   0  0  0  0  0  0  0  0  0  0  0  0
   37.5150   30.3580   51.3240 N   0  0  0  0  0  0  0  0  0  0  0  0
   38.7398   33.2423   48.7613 H   0  0  0  0  0  0  0  0  0  0  0  0
   41.4004   30.1233   41.8008 H   0  0  0  0  0  0  0  0  0  0  0  0
   39.3877   28.3223   42.0671 H   0  0  0  0  0  0  0  0  0  0  0  0
   38.1285   28.8468   44.3840 H   0  0  0  0  0  0  0  0  0  0  0  0
   38.9677   31.5927   50.4163 H   0  0  0  0  0  0  0  0  0  0  0  0
   36.3069   29.4154   47.8115 H   0  0  0  0  0  0  0  0  0  0  0  0
   35.9929   29.0676   52.0337 H   0  0  0  0  0  0  0  0  0  0  0  0
  1  2  2  0
  1 12  1  0
  3  2  1  0
  4  3  1  0
  4  5  2  0
  5  1  1  0
  6  4  1  0
  7  6  1  0
  8  9  1  0
  8  7  2  0
  9 10  2  0
 10  6  1  0
 11 16  2  0
 12 11  1  0
 13 12  2  0
 13 14  1  0
 14 15  2  0
 15 16  1  0
  2 17  1  0
  8 18  1  0
  9 19  1  0
 10 20  1  0
 11 21  1  0
 13 22  1  0
 15 23  1  0
M  ISO  7  17  14  18  14  19  14  20  14  21  14  22  14  23  14
M  END
>  <minimizedAffinity>  (1) 
-5.53383636

>  <minimizedRMSD>  (1) 
0.275556207

$$$$
