
     RDKit          3D

 25 27  0  0  0  0  0  0  0  0999 V2000
   38.3740   31.1020   47.8170 C   0  0  0  0  0  0  0  0  0  0  0  0
   38.8660   32.4440   47.8850 C   0  0  0  0  0  0  0  0  0  0  0  0
   39.6320   32.7050   46.2210 S   0  0  0  0  0  0  0  0  0  0  0  0
   39.1410   30.9430   45.7430 C   0  0  0  0  0  0  0  0  0  0  0  0
   38.6220   30.5470   46.6560 N   0  0  0  0  0  0  0  0  0  0  0  0
   38.1290   30.8810   50.2660 C   0  0  0  0  0  0  0  0  0  0  0  0
   37.6870   30.5240   48.9760 C   0  0  0  0  0  0  0  0  0  0  0  0
   36.6280   29.6440   48.8890 C   0  0  0  0  0  0  0  0  0  0  0  0
   36.0660   29.1680   50.0180 N   0  0  0  0  0  0  0  0  0  0  0  0
   36.5080   29.5260   51.2480 C   0  0  0  0  0  0  0  0  0  0  0  0
   37.5390   30.3830   51.3600 N   0  0  0  0  0  0  0  0  0  0  0  0
   39.4680   30.3900   44.3870 C   0  0  0  0  0  0  0  0  0  0  0  0
   40.2250   31.1810   43.5580 C   0  0  0  0  0  0  0  0  0  0  0  0
   40.5140   30.6590   42.3230 C   0  0  0  0  0  0  0  0  0  0  0  0
   40.0480   29.4050   41.9760 C   0  0  0  0  0  0  0  0  0  0  0  0
   39.2910   28.6660   42.8590 C   0  0  0  0  0  0  0  0  0  0  0  0
   39.0060   29.1740   44.0710 N   0  0  0  0  0  0  0  0  0  0  0  0
   38.8037   33.1511   48.7253 H   0  0  0  0  0  0  0  0  0  0  0  0
   38.9717   31.5795   50.3757 H   0  0  0  0  0  0  0  0  0  0  0  0
   36.2452   29.3331   47.9057 H   0  0  0  0  0  0  0  0  0  0  0  0
   36.0268   29.1184   52.1493 H   0  0  0  0  0  0  0  0  0  0  0  0
   40.5791   32.1757   43.8666 H   0  0  0  0  0  0  0  0  0  0  0  0
   41.1169   31.2386   41.6085 H   0  0  0  0  0  0  0  0  0  0  0  0
   40.2840   28.9923   40.9840 H   0  0  0  0  0  0  0  0  0  0  0  0
   38.9230   27.6691   42.5749 H   0  0  0  0  0  0  0  0  0  0  0  0
  1  2  2  0
  1  7  1  0
  3  2  1  0
  4  3  1  0
  4  5  2  0
  5  1  1  0
  6 11  2  0
  7  6  1  0
  8  7  2  0
  8  9  1  0
  9 10  2  0
 10 11  1  0
 12  4  1  0
 13 12  2  0
 14 13  1  0
 15 14  2  0
 15 16  1  0
 16 17  2  0
 17 12  1  0
  2 18  1  0
  6 19  1  0
  8 20  1  0
 10 21  1  0
 13 22  1  0
 14 23  1  0
 15 24  1  0
 16 25  1  0
M  ISO  8  18  14  19  14  20  14  21  14  22  14  23  14  24  14  25  14
M  END
>  <minimizedAffinity>  (1) 
-5.377985

>  <minimizedRMSD>  (1) 
0.678121448

$$$$
