
     RDKit          3D

 32 34  0  0  0  0  0  0  0  0999 V2000
   38.3490   31.0560   47.8140 C   0  0  0  0  0  0  0  0  0  0  0  0
   38.8490   32.3830   47.8480 C   0  0  0  0  0  0  0  0  0  0  0  0
   39.5800   32.6000   46.1600 S   0  0  0  0  0  0  0  0  0  0  0  0
   39.0650   30.8330   45.7180 C   0  0  0  0  0  0  0  0  0  0  0  0
   38.5660   30.4760   46.6620 N   0  0  0  0  0  0  0  0  0  0  0  0
   38.1330   30.8800   50.2830 C   0  0  0  0  0  0  0  0  0  0  0  0
   37.6820   30.5090   49.0010 C   0  0  0  0  0  0  0  0  0  0  0  0
   36.6090   29.6250   48.9450 C   0  0  0  0  0  0  0  0  0  0  0  0
   36.0590   29.1710   50.0880 N   0  0  0  0  0  0  0  0  0  0  0  0
   36.5150   29.5460   51.2970 C   0  0  0  0  0  0  0  0  0  0  0  0
   37.5400   30.3890   51.3720 N   0  0  0  0  0  0  0  0  0  0  0  0
   39.3630   30.2530   44.3590 C   0  0  0  0  0  0  0  0  0  0  0  0
   38.1520   30.3360   43.4630 C   0  0  0  0  0  0  0  0  0  0  0  0
   38.4700   30.5440   42.0190 C   0  0  0  0  0  0  0  0  0  0  0  0
   39.7540   29.9390   41.5590 C   0  0  0  0  0  0  0  0  0  0  0  0
   40.9060   30.0710   42.5010 C   0  0  0  0  0  0  0  0  0  0  0  0
   40.5660   30.8790   43.7370 C   0  0  0  0  0  0  0  0  0  0  0  0
   38.8117   33.1069   48.6754 H   0  0  0  0  0  0  0  0  0  0  0  0
   38.9775   31.5773   50.3862 H   0  0  0  0  0  0  0  0  0  0  0  0
   36.2118   29.2985   47.9725 H   0  0  0  0  0  0  0  0  0  0  0  0
   36.0448   29.1593   52.2132 H   0  0  0  0  0  0  0  0  0  0  0  0
   39.6034   29.1882   44.4943 H   0  0  0  0  0  0  0  0  0  0  0  0
   37.5868   29.3973   43.5597 H   0  0  0  0  0  0  0  0  0  0  0  0
   37.5780   31.2158   43.7894 H   0  0  0  0  0  0  0  0  0  0  0  0
   37.6548   30.1060   41.4243 H   0  0  0  0  0  0  0  0  0  0  0  0
   38.5777   31.6302   41.8829 H   0  0  0  0  0  0  0  0  0  0  0  0
   39.5797   28.8667   41.3863 H   0  0  0  0  0  0  0  0  0  0  0  0
   40.0408   30.4954   40.6545 H   0  0  0  0  0  0  0  0  0  0  0  0
   41.2202   29.0646   42.8148 H   0  0  0  0  0  0  0  0  0  0  0  0
   41.7088   30.6026   41.9690 H   0  0  0  0  0  0  0  0  0  0  0  0
   41.4088   30.8587   44.4436 H   0  0  0  0  0  0  0  0  0  0  0  0
   40.3670   31.9283   43.4738 H   0  0  0  0  0  0  0  0  0  0  0  0
  1  2  2  0
  1  7  1  0
  3  2  1  0
  4  3  1  0
  4  5  2  0
  5  1  1  0
  6 11  2  0
  7  6  1  0
  8  7  2  0
  8  9  1  0
  9 10  2  0
 10 11  1  0
 12  4  1  0
 13 12  1  0
 14 13  1  0
 15 14  1  0
 15 16  1  0
 16 17  1  0
 17 12  1  0
  2 18  1  0
  6 19  1  0
  8 20  1  0
 10 21  1  0
 12 22  1  0
 13 23  1  0
 13 24  1  0
 14 25  1  0
 14 26  1  0
 15 27  1  0
 15 28  1  0
 16 29  1  0
 16 30  1  0
 17 31  1  0
 17 32  1  0
M  ISO  8  18  14  19  14  20  14  21  14  22  13  23  13  24  13  25  13
M  ISO  7  26  13  27  13  28  13  29  13  30  13  31  13  32  13
M  END
>  <minimizedAffinity>  (1) 
-5.36540699

>  <minimizedRMSD>  (1) 
0.130571619

$$$$
