
     RDKit          3D

 28 30  0  0  0  0  0  0  0  0999 V2000
   38.4210   31.1930   47.8420 C   0  0  0  0  0  0  0  0  0  0  0  0
   38.8730   32.5310   47.9370 C   0  0  0  0  0  0  0  0  0  0  0  0
   39.6570   32.8450   46.2950 S   0  0  0  0  0  0  0  0  0  0  0  0
   39.2270   31.0820   45.7650 C   0  0  0  0  0  0  0  0  0  0  0  0
   38.7110   30.6850   46.6740 N   0  0  0  0  0  0  0  0  0  0  0  0
   39.5200   30.4650   44.4910 N   0  0  0  0  0  0  0  0  0  0  0  0
   40.6080   30.6840   43.5500 C   0  0  0  0  0  0  0  0  0  0  0  0
   39.7740   30.9020   42.2870 C   0  0  0  0  0  0  0  0  0  0  0  0
   38.5120   30.0910   42.5020 C   0  0  0  0  0  0  0  0  0  0  0  0
   38.7150   29.4280   43.8620 C   0  0  0  0  0  0  0  0  0  0  0  0
   38.1190   30.8880   50.2800 C   0  0  0  0  0  0  0  0  0  0  0  0
   37.7300   30.5780   48.9820 C   0  0  0  0  0  0  0  0  0  0  0  0
   36.6870   29.6850   48.8450 C   0  0  0  0  0  0  0  0  0  0  0  0
   36.1040   29.1650   49.9500 N   0  0  0  0  0  0  0  0  0  0  0  0
   36.5120   29.4920   51.1850 C   0  0  0  0  0  0  0  0  0  0  0  0
   37.5160   30.3510   51.3370 N   0  0  0  0  0  0  0  0  0  0  0  0
   38.7793   33.2211   48.7884 H   0  0  0  0  0  0  0  0  0  0  0  0
   41.2079   31.5690   43.8085 H   0  0  0  0  0  0  0  0  0  0  0  0
   41.3599   29.8830   43.4939 H   0  0  0  0  0  0  0  0  0  0  0  0
   40.3165   30.5441   41.3995 H   0  0  0  0  0  0  0  0  0  0  0  0
   39.5556   31.9665   42.1161 H   0  0  0  0  0  0  0  0  0  0  0  0
   37.6270   30.7441   42.5154 H   0  0  0  0  0  0  0  0  0  0  0  0
   38.3420   29.3585   41.6992 H   0  0  0  0  0  0  0  0  0  0  0  0
   37.7636   29.2651   44.3896 H   0  0  0  0  0  0  0  0  0  0  0  0
   39.1626   28.4234   43.8411 H   0  0  0  0  0  0  0  0  0  0  0  0
   38.9466   31.5954   50.4370 H   0  0  0  0  0  0  0  0  0  0  0  0
   36.3318   29.3977   47.8443 H   0  0  0  0  0  0  0  0  0  0  0  0
   36.0200   29.0531   52.0655 H   0  0  0  0  0  0  0  0  0  0  0  0
  1  2  2  0
  1 12  1  0
  3  2  1  0
  4  3  1  0
  4  5  2  0
  5  1  1  0
  6  4  1  0
  7  6  1  0
  8  9  1  0
  8  7  1  0
  9 10  1  0
 10  6  1  0
 11 16  2  0
 12 11  1  0
 13 12  2  0
 13 14  1  0
 14 15  2  0
 15 16  1  0
  2 17  1  0
  7 18  1  0
  7 19  1  0
  8 20  1  0
  8 21  1  0
  9 22  1  0
  9 23  1  0
 10 24  1  0
 10 25  1  0
 11 26  1  0
 13 27  1  0
 15 28  1  0
M  ISO  8  17  14  18  13  19  13  20  13  21  13  22  13  23  13  24  13
M  ISO  4  25  13  26  14  27  14  28  14
M  END
>  <minimizedAffinity>  (1) 
-5.34147549

>  <minimizedRMSD>  (1) 
0.214325443

$$$$
