
     RDKit          3D

 23 25  0  0  0  0  0  0  0  0999 V2000
   38.2710   31.0750   47.9350 C   0  0  0  0  0  0  0  0  0  0  0  0
   38.6900   32.4430   47.9950 C   0  0  0  0  0  0  0  0  0  0  0  0
   39.5480   32.6790   46.3690 S   0  0  0  0  0  0  0  0  0  0  0  0
   39.1750   30.8810   45.9200 C   0  0  0  0  0  0  0  0  0  0  0  0
   38.6140   30.4880   46.8190 N   0  0  0  0  0  0  0  0  0  0  0  0
   37.9410   30.8110   50.3790 C   0  0  0  0  0  0  0  0  0  0  0  0
   37.5400   30.4950   49.0680 C   0  0  0  0  0  0  0  0  0  0  0  0
   36.4630   29.6400   48.9390 C   0  0  0  0  0  0  0  0  0  0  0  0
   35.8560   29.1560   50.0390 N   0  0  0  0  0  0  0  0  0  0  0  0
   36.2700   29.4820   51.2830 C   0  0  0  0  0  0  0  0  0  0  0  0
   37.3120   30.3090   51.4410 N   0  0  0  0  0  0  0  0  0  0  0  0
   39.6670   30.4430   44.5970 C   0  0  0  0  0  0  0  0  0  0  0  0
   40.5180   31.0350   43.7210 C   0  0  0  0  0  0  0  0  0  0  0  0
   40.6070   30.1530   42.6390 C   0  0  0  0  0  0  0  0  0  0  0  0
   39.8140   29.1030   42.9320 N   0  0  0  0  0  0  0  0  0  0  0  0
   39.2420   29.2700   44.1120 N   0  0  0  0  0  0  0  0  0  0  0  0
   38.5400   33.1724   48.8046 H   0  0  0  0  0  0  0  0  0  0  0  0
   38.7941   31.4886   50.5309 H   0  0  0  0  0  0  0  0  0  0  0  0
   36.1020   29.3551   47.9398 H   0  0  0  0  0  0  0  0  0  0  0  0
   35.7536   29.0701   52.1626 H   0  0  0  0  0  0  0  0  0  0  0  0
   41.0288   32.0022   43.8371 H   0  0  0  0  0  0  0  0  0  0  0  0
   41.2069   30.2895   41.7271 H   0  0  0  0  0  0  0  0  0  0  0  0
   39.6735   28.2851   42.3219 H   0  0  0  0  0  0  0  0  0  0  0  0
  1  2  2  0
  1  7  1  0
  3  2  1  0
  4  3  1  0
  4  5  2  0
  5  1  1  0
  6 11  2  0
  7  6  1  0
  8  7  2  0
  8  9  1  0
  9 10  2  0
 10 11  1  0
 12  4  1  0
 13 12  1  0
 14 15  1  0
 14 13  2  0
 15 16  1  0
 16 12  2  0
  2 17  1  0
  6 18  1  0
  8 19  1  0
 10 20  1  0
 13 21  1  0
 14 22  1  0
 15 23  1  0
M  ISO  7  17  14  18  14  19  14  20  14  21  14  22  14  23   9
M  END
>  <minimizedAffinity>  (1) 
-5.25163889

>  <minimizedRMSD>  (1) 
0.582362413

$$$$
