
     RDKit          3D

 21 23  0  0  0  0  0  0  0  0999 V2000
   38.4160   31.1690   47.8340 C   0  0  0  0  0  0  0  0  0  0  0  0
   38.8410   32.5200   47.9080 C   0  0  0  0  0  0  0  0  0  0  0  0
   39.6610   32.8070   46.2800 S   0  0  0  0  0  0  0  0  0  0  0  0
   39.2770   31.0210   45.7830 C   0  0  0  0  0  0  0  0  0  0  0  0
   38.7380   30.6180   46.6890 N   0  0  0  0  0  0  0  0  0  0  0  0
   38.1190   30.8810   50.2760 C   0  0  0  0  0  0  0  0  0  0  0  0
   37.7070   30.5630   48.9680 C   0  0  0  0  0  0  0  0  0  0  0  0
   36.6460   29.6890   48.8360 C   0  0  0  0  0  0  0  0  0  0  0  0
   36.0540   29.1820   49.9370 N   0  0  0  0  0  0  0  0  0  0  0  0
   36.4720   29.5040   51.1790 C   0  0  0  0  0  0  0  0  0  0  0  0
   37.5050   30.3550   51.3410 N   0  0  0  0  0  0  0  0  0  0  0  0
   39.6380   30.3800   44.4840 C   0  0  0  0  0  0  0  0  0  0  0  0
   40.6450   30.8570   43.7630 N   0  0  0  0  0  0  0  0  0  0  0  0
   40.7350   30.1220   42.7030 O   0  0  0  0  0  0  0  0  0  0  0  0
   39.8020   29.1830   42.7330 C   0  0  0  0  0  0  0  0  0  0  0  0
   39.0820   29.3280   43.8700 N   0  0  0  0  0  0  0  0  0  0  0  0
   38.7123   33.2290   48.7391 H   0  0  0  0  0  0  0  0  0  0  0  0
   38.9603   31.5739   50.4244 H   0  0  0  0  0  0  0  0  0  0  0  0
   36.2847   29.4071   47.8360 H   0  0  0  0  0  0  0  0  0  0  0  0
   35.9706   29.0727   52.0580 H   0  0  0  0  0  0  0  0  0  0  0  0
   39.6393   28.4142   41.9633 H   0  0  0  0  0  0  0  0  0  0  0  0
  1  2  2  0
  1  7  1  0
  3  2  1  0
  4  3  1  0
  4  5  2  0
  5  1  1  0
  6 11  2  0
  7  6  1  0
  8  7  2  0
  8  9  1  0
  9 10  2  0
 10 11  1  0
 12  4  1  0
 13 12  2  0
 14 15  1  0
 14 13  1  0
 15 16  2  0
 16 12  1  0
  2 17  1  0
  6 18  1  0
  8 19  1  0
 10 20  1  0
 15 21  1  0
M  ISO  5  17  14  18  14  19  14  20  14  21  14
M  END
>  <minimizedAffinity>  (1) 
-5.19674826

>  <minimizedRMSD>  (1) 
0.36079827

$$$$
