
     RDKit          3D

 19 20  0  0  0  0  0  0  0  0999 V2000
   38.3890   31.1240   47.7930 C   0  0  0  0  0  0  0  0  0  0  0  0
   38.8800   32.4500   47.8730 C   0  0  0  0  0  0  0  0  0  0  0  0
   39.6430   32.7210   46.2090 S   0  0  0  0  0  0  0  0  0  0  0  0
   39.1460   30.9640   45.7130 C   0  0  0  0  0  0  0  0  0  0  0  0
   38.6320   30.5780   46.6300 N   0  0  0  0  0  0  0  0  0  0  0  0
   38.1170   30.8720   50.2440 C   0  0  0  0  0  0  0  0  0  0  0  0
   37.7030   30.5400   48.9460 C   0  0  0  0  0  0  0  0  0  0  0  0
   36.6450   29.6560   48.8620 C   0  0  0  0  0  0  0  0  0  0  0  0
   36.0860   29.1770   50.0030 N   0  0  0  0  0  0  0  0  0  0  0  0
   36.5180   29.5260   51.2200 C   0  0  0  0  0  0  0  0  0  0  0  0
   37.5510   30.3870   51.3410 N   0  0  0  0  0  0  0  0  0  0  0  0
   39.4470   30.3650   44.3530 C   0  0  0  0  0  0  0  0  0  0  0  0
   40.7310   30.6690   43.9690 F   0  0  0  0  0  0  0  0  0  0  0  0
   39.2300   29.0040   44.3730 F   0  0  0  0  0  0  0  0  0  0  0  0
   38.5570   30.9950   43.5030 F   0  0  0  0  0  0  0  0  0  0  0  0
   38.8219   33.1498   48.7197 H   0  0  0  0  0  0  0  0  0  0  0  0
   38.9570   31.5729   50.3586 H   0  0  0  0  0  0  0  0  0  0  0  0
   36.2591   29.3432   47.8806 H   0  0  0  0  0  0  0  0  0  0  0  0
   36.0341   29.1136   52.1176 H   0  0  0  0  0  0  0  0  0  0  0  0
  1  2  2  0
  1  7  1  0
  3  2  1  0
  4  3  1  0
  4  5  2  0
  5  1  1  0
  6 11  2  0
  7  6  1  0
  8  7  2  0
  8  9  1  0
  9 10  2  0
 10 11  1  0
 12 14  1  0
 12  4  1  0
 13 12  1  0
 15 12  1  0
  2 16  1  0
  6 17  1  0
  8 18  1  0
 10 19  1  0
M  ISO  4  16  14  17  14  18  14  19  14
M  END
>  <minimizedAffinity>  (1) 
-5.03304529

>  <minimizedRMSD>  (1) 
0.2784141

$$$$
