
     RDKit          3D

 23 25  0  0  0  0  0  0  0  0999 V2000
   38.1000   30.8500   50.2560 C   0  0  0  0  0  0  0  0  0  0  0  0
   37.6660   30.5020   48.9820 C   0  0  0  0  0  0  0  0  0  0  0  0
   36.6010   29.6230   48.9210 C   0  0  0  0  0  0  0  0  0  0  0  0
   36.0550   29.1620   50.0640 N   0  0  0  0  0  0  0  0  0  0  0  0
   36.5110   29.5300   51.2740 C   0  0  0  0  0  0  0  0  0  0  0  0
   37.5510   30.3880   51.3750 N   0  0  0  0  0  0  0  0  0  0  0  0
   38.3470   31.0710   47.8160 C   0  0  0  0  0  0  0  0  0  0  0  0
   38.8550   32.4070   47.8770 C   0  0  0  0  0  0  0  0  0  0  0  0
   39.6030   32.6390   46.2040 S   0  0  0  0  0  0  0  0  0  0  0  0
   39.0870   30.8810   45.7350 C   0  0  0  0  0  0  0  0  0  0  0  0
   38.5740   30.5010   46.6560 N   0  0  0  0  0  0  0  0  0  0  0  0
   39.4130   30.3430   44.3570 C   0  0  0  0  0  0  0  0  0  0  0  0
   40.5910   30.9040   43.6990 C   0  0  0  0  0  0  0  0  0  0  0  0
   39.1790   31.3250   43.2860 C   0  0  0  0  0  0  0  0  0  0  0  0
   38.9461   31.5475   50.3431 H   0  0  0  0  0  0  0  0  0  0  0  0
   36.2021   29.3022   47.9474 H   0  0  0  0  0  0  0  0  0  0  0  0
   36.0371   29.1323   52.1835 H   0  0  0  0  0  0  0  0  0  0  0  0
   38.8110   33.1200   48.7135 H   0  0  0  0  0  0  0  0  0  0  0  0
   39.0953   29.3085   44.5543 H   0  0  0  0  0  0  0  0  0  0  0  0
   41.2427   31.6078   44.2375 H   0  0  0  0  0  0  0  0  0  0  0  0
   41.4701   30.4932   43.1808 H   0  0  0  0  0  0  0  0  0  0  0  0
   38.8071   32.3316   43.5277 H   0  0  0  0  0  0  0  0  0  0  0  0
   38.6057   31.3460   42.3475 H   0  0  0  0  0  0  0  0  0  0  0  0
  1  6  2  0
  2  1  1  0
  3  2  2  0
  3  4  1  0
  4  5  2  0
  5  6  1  0
  7  8  2  0
  7  2  1  0
  9  8  1  0
 10  9  1  0
 10 11  2  0
 11  7  1  0
 12 10  1  0
 13 12  1  0
 14 13  1  0
 14 12  1  0
  1 15  1  0
  3 16  1  0
  5 17  1  0
  8 18  1  0
 12 19  1  0
 13 20  1  0
 13 21  1  0
 14 22  1  0
 14 23  1  0
M  ISO  8  15  14  16  14  17  14  18  14  19  13  20  13  21  13  22  13
M  ISO  1  23  13
M  END
>  <minimizedAffinity>  (1) 
-4.7850771

>  <minimizedRMSD>  (1) 
0.453350395

$$$$
