
     RDKit          3D

 22 23  0  0  0  0  0  0  0  0999 V2000
   38.1240   30.8640   50.2660 C   0  0  0  0  0  0  0  0  0  0  0  0
   37.6770   30.5010   48.9800 C   0  0  0  0  0  0  0  0  0  0  0  0
   36.6120   29.6260   48.9070 C   0  0  0  0  0  0  0  0  0  0  0  0
   36.0550   29.1650   50.0590 N   0  0  0  0  0  0  0  0  0  0  0  0
   36.5180   29.5410   51.2770 C   0  0  0  0  0  0  0  0  0  0  0  0
   37.5490   30.3890   51.3720 N   0  0  0  0  0  0  0  0  0  0  0  0
   38.3540   31.0620   47.8050 C   0  0  0  0  0  0  0  0  0  0  0  0
   38.8590   32.3880   47.8590 C   0  0  0  0  0  0  0  0  0  0  0  0
   39.6060   32.6480   46.2020 S   0  0  0  0  0  0  0  0  0  0  0  0
   39.0920   30.8710   45.7150 C   0  0  0  0  0  0  0  0  0  0  0  0
   38.5840   30.5030   46.6460 N   0  0  0  0  0  0  0  0  0  0  0  0
   39.3730   30.2450   44.3600 C   0  0  0  0  0  0  0  0  0  0  0  0
   40.5330   30.9690   43.7720 C   0  0  0  0  0  0  0  0  0  0  0  0
   38.9714   31.5590   50.3606 H   0  0  0  0  0  0  0  0  0  0  0  0
   36.2192   29.3060   47.9306 H   0  0  0  0  0  0  0  0  0  0  0  0
   36.0450   29.1480   52.1890 H   0  0  0  0  0  0  0  0  0  0  0  0
   38.8132   33.0961   48.6996 H   0  0  0  0  0  0  0  0  0  0  0  0
   39.6160   29.1790   44.4806 H   0  0  0  0  0  0  0  0  0  0  0  0
   38.4927   30.3212   43.7049 H   0  0  0  0  0  0  0  0  0  0  0  0
   41.1663   31.3643   44.5799 H   0  0  0  0  0  0  0  0  0  0  0  0
   41.1205   30.2770   43.1508 H   0  0  0  0  0  0  0  0  0  0  0  0
   40.1694   31.8008   43.1508 H   0  0  0  0  0  0  0  0  0  0  0  0
  1  6  2  0
  2  1  1  0
  3  2  2  0
  3  4  1  0
  4  5  2  0
  5  6  1  0
  7  8  2  0
  7  2  1  0
  9  8  1  0
 10  9  1  0
 10 11  2  0
 11  7  1  0
 12 10  1  0
 13 12  1  0
  1 14  1  0
  3 15  1  0
  5 16  1  0
  8 17  1  0
 12 18  1  0
 12 19  1  0
 13 20  1  0
 13 21  1  0
 13 22  1  0
M  ISO  8  14  14  15  14  16  14  17  14  18   8  19   8  20   8  21   8
M  ISO  1  22   8
M  END
>  <minimizedAffinity>  (1) 
-4.6073308

>  <minimizedRMSD>  (1) 
0.266088903

$$$$
