
     RDKit          3D

 17 18  0  0  0  0  0  0  0  0999 V2000
   38.1290   30.8740   50.2190 C   0  0  0  0  0  0  0  0  0  0  0  0
   37.7000   30.5430   48.9180 C   0  0  0  0  0  0  0  0  0  0  0  0
   36.6120   29.6930   48.8170 C   0  0  0  0  0  0  0  0  0  0  0  0
   36.0250   29.2310   49.9370 N   0  0  0  0  0  0  0  0  0  0  0  0
   36.4620   29.5690   51.1630 C   0  0  0  0  0  0  0  0  0  0  0  0
   37.5240   30.3980   51.3020 N   0  0  0  0  0  0  0  0  0  0  0  0
   38.4120   31.0940   47.7570 C   0  0  0  0  0  0  0  0  0  0  0  0
   38.7870   32.4560   47.7440 C   0  0  0  0  0  0  0  0  0  0  0  0
   39.6360   32.6760   46.1270 S   0  0  0  0  0  0  0  0  0  0  0  0
   39.3230   30.8480   45.7530 C   0  0  0  0  0  0  0  0  0  0  0  0
   38.7800   30.4760   46.6600 N   0  0  0  0  0  0  0  0  0  0  0  0
   39.6540   29.9550   44.5750 O   0  0  0  0  0  0  0  0  0  0  0  0
   38.9907   31.5467   50.3416 H   0  0  0  0  0  0  0  0  0  0  0  0
   36.2299   29.3972   47.8288 H   0  0  0  0  0  0  0  0  0  0  0  0
   35.9558   29.1713   52.0550 H   0  0  0  0  0  0  0  0  0  0  0  0
   38.6114   33.2124   48.5231 H   0  0  0  0  0  0  0  0  0  0  0  0
   39.3897   29.0010   44.5874 H   0  0  0  0  0  0  0  0  0  0  0  0
  1  6  2  0
  2  1  1  0
  3  2  2  0
  3  4  1  0
  4  5  2  0
  5  6  1  0
  7  2  1  0
  8  7  2  0
  9  8  1  0
 10  9  1  0
 10 11  2  0
 11  7  1  0
 12 10  1  0
  1 13  1  0
  3 14  1  0
  5 15  1  0
  8 16  1  0
 12 17  1  0
M  ISO  5  13  14  14  14  15  14  16  14  17   3
M  END
>  <minimizedAffinity>  (1) 
-4.58314991

>  <minimizedRMSD>  (1) 
0.170579612

$$$$
