
     RDKit          3D

 18 19  0  0  0  0  0  0  0  0999 V2000
   38.1400   30.8770   50.2170 C   0  0  0  0  0  0  0  0  0  0  0  0
   37.7030   30.5350   48.9230 C   0  0  0  0  0  0  0  0  0  0  0  0
   36.6140   29.6920   48.8230 C   0  0  0  0  0  0  0  0  0  0  0  0
   36.0250   29.2400   49.9530 N   0  0  0  0  0  0  0  0  0  0  0  0
   36.4550   29.5770   51.1720 C   0  0  0  0  0  0  0  0  0  0  0  0
   37.5050   30.3890   51.2920 N   0  0  0  0  0  0  0  0  0  0  0  0
   38.4100   31.0770   47.7610 C   0  0  0  0  0  0  0  0  0  0  0  0
   38.7900   32.4530   47.7620 C   0  0  0  0  0  0  0  0  0  0  0  0
   39.6350   32.6750   46.1300 S   0  0  0  0  0  0  0  0  0  0  0  0
   39.3160   30.8520   45.7480 C   0  0  0  0  0  0  0  0  0  0  0  0
   38.7750   30.4770   46.6580 N   0  0  0  0  0  0  0  0  0  0  0  0
   39.7280   30.1930   44.5110 N   0  0  0  0  0  0  0  0  0  0  0  0
   39.0038   31.5457   50.3460 H   0  0  0  0  0  0  0  0  0  0  0  0
   36.2305   29.3920   47.8366 H   0  0  0  0  0  0  0  0  0  0  0  0
   35.9478   29.1884   52.0674 H   0  0  0  0  0  0  0  0  0  0  0  0
   38.6206   33.2043   48.5474 H   0  0  0  0  0  0  0  0  0  0  0  0
   39.5222   29.1942   44.3664 H   0  0  0  0  0  0  0  0  0  0  0  0
   40.2243   30.7272   43.7835 H   0  0  0  0  0  0  0  0  0  0  0  0
  1  6  2  0
  2  1  1  0
  3  2  2  0
  3  4  1  0
  4  5  2  0
  5  6  1  0
  7  8  2  0
  7  2  1  0
  9  8  1  0
 10  9  1  0
 10 11  2  0
 11  7  1  0
 12 10  1  0
  1 13  1  0
  3 14  1  0
  5 15  1  0
  8 16  1  0
 12 17  1  0
 12 18  1  0
M  ISO  4  13  14  14  14  15  14  16  14
M  END
>  <minimizedAffinity>  (1) 
-4.57025814

>  <minimizedRMSD>  (1) 
0.154314235

$$$$
