
     RDKit          3D

 17 18  0  0  0  0  0  0  0  0999 V2000
   38.1350   30.8870   50.2510 C   0  0  0  0  0  0  0  0  0  0  0  0
   37.6790   30.5220   48.9780 C   0  0  0  0  0  0  0  0  0  0  0  0
   36.6050   29.6250   48.8980 C   0  0  0  0  0  0  0  0  0  0  0  0
   36.0710   29.1630   50.0480 N   0  0  0  0  0  0  0  0  0  0  0  0
   36.5270   29.5300   51.2490 C   0  0  0  0  0  0  0  0  0  0  0  0
   37.5570   30.3900   51.3530 N   0  0  0  0  0  0  0  0  0  0  0  0
   38.3400   31.0800   47.7900 C   0  0  0  0  0  0  0  0  0  0  0  0
   38.8970   32.3800   47.8390 C   0  0  0  0  0  0  0  0  0  0  0  0
   39.6030   32.6400   46.1630 S   0  0  0  0  0  0  0  0  0  0  0  0
   39.0110   30.9090   45.6820 C   0  0  0  0  0  0  0  0  0  0  0  0
   38.5100   30.5250   46.6190 N   0  0  0  0  0  0  0  0  0  0  0  0
   39.1040   29.8180   44.0620 S   0  0  0  0  0  0  0  0  0  0  0  0
   38.9764   31.5890   50.3471 H   0  0  0  0  0  0  0  0  0  0  0  0
   36.2077   29.3059   47.9231 H   0  0  0  0  0  0  0  0  0  0  0  0
   36.0577   29.1268   52.1585 H   0  0  0  0  0  0  0  0  0  0  0  0
   38.9054   33.0778   48.6893 H   0  0  0  0  0  0  0  0  0  0  0  0
   39.2166   28.4969   44.4070 H   0  0  0  0  0  0  0  0  0  0  0  0
  1  6  2  0
  2  1  1  0
  3  2  2  0
  3  4  1  0
  4  5  2  0
  5  6  1  0
  7  8  2  0
  7  2  1  0
  9  8  1  0
 10  9  1  0
 10 11  2  0
 11  7  1  0
 12 10  1  0
  1 13  1  0
  3 14  1  0
  5 15  1  0
  8 16  1  0
 12 17  1  0
M  ISO  5  13  14  14  14  15  14  16  14  17  11
M  END
>  <minimizedAffinity>  (1) 
-4.44070005

>  <minimizedRMSD>  (1) 
0.0649556369

$$$$
