
     RDKit          3D

 36 38  0  0  0  0  0  0  0  0999 V2000
   39.4140   32.1770   45.7440 C   0  0  0  0  0  0  0  0  0  0  0  0
   38.0180   32.5580   49.2580 C   0  0  0  0  0  0  0  0  0  0  0  0
   38.8480   32.7700   48.1500 C   0  0  0  0  0  0  0  0  0  0  0  0
   38.6010   32.0320   46.9720 C   0  0  0  0  0  0  0  0  0  0  0  0
   37.5630   31.1510   46.9830 N   0  0  0  0  0  0  0  0  0  0  0  0
   36.7900   30.9780   48.0680 C   0  0  0  0  0  0  0  0  0  0  0  0
   37.0050   31.6720   49.2080 N   0  0  0  0  0  0  0  0  0  0  0  0
   40.5310   31.1570   45.8630 C   0  0  0  0  0  0  0  0  0  0  0  0
   40.0430   33.4980   45.5440 C   0  0  0  0  0  0  0  0  0  0  0  0
   38.5370   31.8380   44.5800 C   0  0  0  0  0  0  0  0  0  0  0  0
   39.1520   31.1560   43.4520 C   0  0  0  0  0  0  0  0  0  0  0  0
   39.7970   31.8780   42.4320 C   0  0  0  0  0  0  0  0  0  0  0  0
   40.3270   31.0970   41.4980 N   0  0  0  0  0  0  0  0  0  0  0  0
   40.0770   29.8390   41.8240 C   0  0  0  0  0  0  0  0  0  0  0  0
   40.3490   28.5890   41.2690 C   0  0  0  0  0  0  0  0  0  0  0  0
   39.9090   27.4470   41.9010 C   0  0  0  0  0  0  0  0  0  0  0  0
   39.1900   27.4810   43.0940 C   0  0  0  0  0  0  0  0  0  0  0  0
   38.9240   28.7170   43.6400 C   0  0  0  0  0  0  0  0  0  0  0  0
   39.3620   29.8650   43.0110 C   0  0  0  0  0  0  0  0  0  0  0  0
   38.1964   33.1243   50.1840 H   0  0  0  0  0  0  0  0  0  0  0  0
   39.6738   33.4952   48.1965 H   0  0  0  0  0  0  0  0  0  0  0  0
   35.9624   30.2544   48.0278 H   0  0  0  0  0  0  0  0  0  0  0  0
   40.7409   30.9654   46.9257 H   0  0  0  0  0  0  0  0  0  0  0  0
   40.2253   30.2199   45.3748 H   0  0  0  0  0  0  0  0  0  0  0  0
   41.4366   31.5463   45.3748 H   0  0  0  0  0  0  0  0  0  0  0  0
   40.2596   33.9528   46.5219 H   0  0  0  0  0  0  0  0  0  0  0  0
   40.9799   33.3765   44.9806 H   0  0  0  0  0  0  0  0  0  0  0  0
   39.3581   34.1487   44.9806 H   0  0  0  0  0  0  0  0  0  0  0  0
   37.7281   31.1931   44.9538 H   0  0  0  0  0  0  0  0  0  0  0  0
   38.2160   32.8105   44.1784 H   0  0  0  0  0  0  0  0  0  0  0  0
   39.8563   32.9762   42.4102 H   0  0  0  0  0  0  0  0  0  0  0  0
   40.8428   31.4149   40.6650 H   0  0  0  0  0  0  0  0  0  0  0  0
   40.9140   28.5151   40.3281 H   0  0  0  0  0  0  0  0  0  0  0  0
   40.1338   26.4708   41.4465 H   0  0  0  0  0  0  0  0  0  0  0  0
   38.8479   26.5560   43.5811 H   0  0  0  0  0  0  0  0  0  0  0  0
   38.3600   28.7897   44.5816 H   0  0  0  0  0  0  0  0  0  0  0  0
  1  8  1  0
  1  4  1  0
  3  2  2  0
  4  5  2  0
  4  3  1  0
  5  6  1  0
  6  7  2  0
  7  2  1  0
  9  1  1  0
 10  1  1  0
 11 10  1  0
 12 11  2  0
 13 14  1  0
 13 12  1  0
 14 19  2  0
 15 14  1  0
 15 16  2  0
 16 17  1  0
 17 18  2  0
 19 11  1  0
 19 18  1  0
  2 20  1  0
  3 21  1  0
  6 22  1  0
  8 23  1  0
  8 24  1  0
  8 25  1  0
  9 26  1  0
  9 27  1  0
  9 28  1  0
 10 29  1  0
 10 30  1  0
 12 31  1  0
 13 32  1  0
 15 33  1  0
 16 34  1  0
 17 35  1  0
 18 36  1  0
M  ISO  8  20  14  21  14  22  14  23   8  24   8  25   8  26   8  27   8
M  ISO  8  28   8  29   8  30   8  31  14  32   9  33  14  34  14  35  14
M  ISO  1  36  14
M  END
>  <minimizedAffinity>  (1) 
-5.22848368

>  <minimizedRMSD>  (1) 
1.94177902

$$$$
