
     RDKit          3D

 36 39  0  0  1  0  0  0  0  0999 V2000
   39.5390   30.2520   44.5180 C   0  0  2  0  0  0  0  0  0  0  0  0
   38.2840   31.0590   47.8690 C   0  0  0  0  0  0  0  0  0  0  0  0
   38.7120   32.4100   47.9110 C   0  0  0  0  0  0  0  0  0  0  0  0
   39.5450   32.6680   46.2850 S   0  0  0  0  0  0  0  0  0  0  0  0
   39.1540   30.8560   45.8290 C   0  0  0  0  0  0  0  0  0  0  0  0
   38.6110   30.4710   46.7320 N   0  0  0  0  0  0  0  0  0  0  0  0
   37.9770   30.8210   50.3070 C   0  0  0  0  0  0  0  0  0  0  0  0
   37.5690   30.4900   49.0040 C   0  0  0  0  0  0  0  0  0  0  0  0
   36.4860   29.6220   48.8910 C   0  0  0  0  0  0  0  0  0  0  0  0
   35.8900   29.1490   49.9930 N   0  0  0  0  0  0  0  0  0  0  0  0
   36.3080   29.4880   51.2250 C   0  0  0  0  0  0  0  0  0  0  0  0
   37.3630   30.3320   51.3850 N   0  0  0  0  0  0  0  0  0  0  0  0
   40.5740   31.1240   43.8970 C   0  0  0  0  0  0  0  0  0  0  0  0
   38.3060   30.1480   43.6360 C   0  0  0  0  0  0  0  0  0  0  0  0
   38.2380   31.1880   42.6640 N   0  0  0  0  0  0  0  0  0  0  0  0
   39.2290   31.3950   41.7470 C   0  0  0  0  0  0  0  0  0  0  0  0
   38.8940   32.4390   40.9630 N   0  0  0  0  0  0  0  0  0  0  0  0
   37.7020   32.9170   41.3500 C   0  0  0  0  0  0  0  0  0  0  0  0
   36.8990   33.9510   40.9140 C   0  0  0  0  0  0  0  0  0  0  0  0
   35.7280   34.1620   41.5490 N   0  0  0  0  0  0  0  0  0  0  0  0
   35.3530   33.3750   42.5930 C   0  0  0  0  0  0  0  0  0  0  0  0
   36.1370   32.3630   43.0230 N   0  0  0  0  0  0  0  0  0  0  0  0
   37.3040   32.1200   42.4200 C   0  0  0  0  0  0  0  0  0  0  0  0
   39.9498   29.2401   44.6497 H   0  0  0  0  0  0  0  0  0  0  0  0
   38.5782   33.1371   48.7255 H   0  0  0  0  0  0  0  0  0  0  0  0
   38.8286   31.5041   50.4420 H   0  0  0  0  0  0  0  0  0  0  0  0
   36.1202   29.3250   47.8970 H   0  0  0  0  0  0  0  0  0  0  0  0
   35.7943   29.0808   52.1083 H   0  0  0  0  0  0  0  0  0  0  0  0
   41.1596   31.6174   44.6867 H   0  0  0  0  0  0  0  0  0  0  0  0
   41.2422   30.5125   43.2728 H   0  0  0  0  0  0  0  0  0  0  0  0
   40.0848   31.8863   43.2728 H   0  0  0  0  0  0  0  0  0  0  0  0
   38.3264   29.1795   43.1148 H   0  0  0  0  0  0  0  0  0  0  0  0
   37.4231   30.2408   44.2855 H   0  0  0  0  0  0  0  0  0  0  0  0
   40.1529   30.8041   41.6619 H   0  0  0  0  0  0  0  0  0  0  0  0
   37.2060   34.5867   40.0704 H   0  0  0  0  0  0  0  0  0  0  0  0
   34.3937   33.5663   43.0962 H   0  0  0  0  0  0  0  0  0  0  0  0
  1  5  1  0
  2  3  2  0
  2  8  1  0
  4  3  1  0
  5  4  1  0
  5  6  2  0
  6  2  1  0
  7 12  2  0
  8  7  1  0
  9  8  2  0
  9 10  1  0
 10 11  2  0
 11 12  1  0
 13  1  1  0
 14  1  1  0
 15 14  1  0
 16 15  1  0
 17 18  1  0
 17 16  2  0
 18 23  2  0
 19 18  1  0
 19 20  2  0
 20 21  1  0
 21 22  2  0
 23 15  1  0
 23 22  1  0
  1 24  1  1
  3 25  1  0
  7 26  1  0
  9 27  1  0
 11 28  1  0
 13 29  1  0
 13 30  1  0
 13 31  1  0
 14 32  1  0
 14 33  1  0
 16 34  1  0
 19 35  1  0
 21 36  1  0
M  ISO  8  24   8  25  14  26  14  27  14  28  14  29   8  30   8  31   8
M  ISO  5  32   8  33   8  34  14  35  14  36  14
M  END
>  <minimizedAffinity>  (1) 
-5.6101222

>  <minimizedRMSD>  (1) 
1.16364908

$$$$
