
     RDKit          3D

 35 36  0  0  0  0  0  0  0  0999 V2000
   39.3580   32.3300   45.9480 C   0  0  0  0  0  0  0  0  0  0  0  0
   38.0800   32.7670   49.5050 C   0  0  0  0  0  0  0  0  0  0  0  0
   38.8680   32.9820   48.3670 C   0  0  0  0  0  0  0  0  0  0  0  0
   38.6080   32.2120   47.2190 C   0  0  0  0  0  0  0  0  0  0  0  0
   37.5880   31.2950   47.3010 N   0  0  0  0  0  0  0  0  0  0  0  0
   36.8580   31.1210   48.4090 C   0  0  0  0  0  0  0  0  0  0  0  0
   37.0900   31.8440   49.5110 N   0  0  0  0  0  0  0  0  0  0  0  0
   40.3530   31.1840   45.9350 C   0  0  0  0  0  0  0  0  0  0  0  0
   40.0930   33.6220   45.8040 C   0  0  0  0  0  0  0  0  0  0  0  0
   38.3800   32.1660   44.8210 C   0  0  0  0  0  0  0  0  0  0  0  0
   38.8960   31.4080   43.7000 N   0  0  0  0  0  0  0  0  0  0  0  0
   38.7970   30.0580   43.8540 C   0  0  0  0  0  0  0  0  0  0  0  0
   39.2210   29.1620   42.9230 C   0  0  0  0  0  0  0  0  0  0  0  0
   39.1070   27.6850   43.1020 C   0  0  0  0  0  0  0  0  0  0  0  0
   39.7790   29.6470   41.7610 C   0  0  0  0  0  0  0  0  0  0  0  0
   40.1880   28.8620   40.8660 O   0  0  0  0  0  0  0  0  0  0  0  0
   39.8690   30.9790   41.6260 N   0  0  0  0  0  0  0  0  0  0  0  0
   39.4470   31.8510   42.5560 C   0  0  0  0  0  0  0  0  0  0  0  0
   39.5090   33.1020   42.4760 O   0  0  0  0  0  0  0  0  0  0  0  0
   38.2695   33.3601   50.4118 H   0  0  0  0  0  0  0  0  0  0  0  0
   39.6704   33.7345   48.3711 H   0  0  0  0  0  0  0  0  0  0  0  0
   36.0535   30.3709   48.4140 H   0  0  0  0  0  0  0  0  0  0  0  0
   40.5992   30.9004   46.9689 H   0  0  0  0  0  0  0  0  0  0  0  0
   39.9123   30.3217   45.4133 H   0  0  0  0  0  0  0  0  0  0  0  0
   41.2687   31.4993   45.4133 H   0  0  0  0  0  0  0  0  0  0  0  0
   40.3229   34.0261   46.8009 H   0  0  0  0  0  0  0  0  0  0  0  0
   41.0294   33.4517   45.2525 H   0  0  0  0  0  0  0  0  0  0  0  0
   39.4681   34.3399   45.2525 H   0  0  0  0  0  0  0  0  0  0  0  0
   37.4896   31.6488   45.2080 H   0  0  0  0  0  0  0  0  0  0  0  0
   38.1537   33.1751   44.4461 H   0  0  0  0  0  0  0  0  0  0  0  0
   38.3498   29.6717   44.7818 H   0  0  0  0  0  0  0  0  0  0  0  0
   39.0886   27.4461   44.1756 H   0  0  0  0  0  0  0  0  0  0  0  0
   38.1787   27.3292   42.6312 H   0  0  0  0  0  0  0  0  0  0  0  0
   39.9697   27.1909   42.6312 H   0  0  0  0  0  0  0  0  0  0  0  0
   40.2848   31.3533   40.7612 H   0  0  0  0  0  0  0  0  0  0  0  0
  1  4  1  0
  2  7  2  0
  3  2  1  0
  4  5  1  0
  4  3  2  0
  5  6  2  0
  6  7  1  0
  8  1  1  0
  9  1  1  0
 10  1  1  0
 11 12  1  0
 11 10  1  0
 13 14  1  0
 13 12  2  0
 15 13  1  0
 16 15  2  0
 17 15  1  0
 17 18  1  0
 18 11  1  0
 19 18  2  0
  2 20  1  0
  3 21  1  0
  6 22  1  0
  8 23  1  0
  8 24  1  0
  8 25  1  0
  9 26  1  0
  9 27  1  0
  9 28  1  0
 10 29  1  0
 10 30  1  0
 12 31  1  0
 14 32  1  0
 14 33  1  0
 14 34  1  0
 17 35  1  0
M  ISO  8  20  14  21  14  22  14  23   8  24   8  25   8  26   8  27   8
M  ISO  8  28   8  29   8  30   8  31  14  32   8  33   8  34   8  35   9
M  END
>  <minimizedAffinity>  (1) 
-5.13784742

>  <minimizedRMSD>  (1) 
1.75143504

$$$$
