
     RDKit          3D

 35 37  0  0  1  0  0  0  0  0999 V2000
   39.4850   30.3370   44.3690 C   0  0  2  0  0  0  0  0  0  0  0  0
   38.3860   31.1020   47.7940 C   0  0  0  0  0  0  0  0  0  0  0  0
   38.8560   32.4390   47.8630 C   0  0  0  0  0  0  0  0  0  0  0  0
   39.6360   32.7270   46.2160 S   0  0  0  0  0  0  0  0  0  0  0  0
   39.1710   30.9380   45.7210 C   0  0  0  0  0  0  0  0  0  0  0  0
   38.6520   30.5420   46.6340 N   0  0  0  0  0  0  0  0  0  0  0  0
   38.1130   30.8630   50.2420 C   0  0  0  0  0  0  0  0  0  0  0  0
   37.6980   30.5300   48.9460 C   0  0  0  0  0  0  0  0  0  0  0  0
   36.6230   29.6500   48.8430 C   0  0  0  0  0  0  0  0  0  0  0  0
   36.0440   29.1710   49.9570 N   0  0  0  0  0  0  0  0  0  0  0  0
   36.4720   29.5150   51.1860 C   0  0  0  0  0  0  0  0  0  0  0  0
   37.5100   30.3630   51.3250 N   0  0  0  0  0  0  0  0  0  0  0  0
   40.4290   31.2790   43.6960 C   0  0  0  0  0  0  0  0  0  0  0  0
   38.1750   30.2510   43.5890 C   0  0  0  0  0  0  0  0  0  0  0  0
   37.9840   28.8120   43.2630 C   0  0  0  0  0  0  0  0  0  0  0  0
   39.1140   27.9860   43.2660 C   0  0  0  0  0  0  0  0  0  0  0  0
   39.0780   26.6260   42.9810 C   0  0  0  0  0  0  0  0  0  0  0  0
   37.8400   26.0660   42.6760 C   0  0  0  0  0  0  0  0  0  0  0  0
   36.7250   26.8670   42.6690 C   0  0  0  0  0  0  0  0  0  0  0  0
   36.7930   28.2080   42.9560 C   0  0  0  0  0  0  0  0  0  0  0  0
   39.9323   29.3345   44.4386 H   0  0  0  0  0  0  0  0  0  0  0  0
   38.7741   33.1422   48.7049 H   0  0  0  0  0  0  0  0  0  0  0  0
   38.9582   31.5549   50.3718 H   0  0  0  0  0  0  0  0  0  0  0  0
   36.2495   29.3483   47.8533 H   0  0  0  0  0  0  0  0  0  0  0  0
   35.9745   29.1039   52.0768 H   0  0  0  0  0  0  0  0  0  0  0  0
   40.9915   31.8403   44.4567 H   0  0  0  0  0  0  0  0  0  0  0  0
   41.1298   30.7094   43.0679 H   0  0  0  0  0  0  0  0  0  0  0  0
   39.8609   31.9810   43.0679 H   0  0  0  0  0  0  0  0  0  0  0  0
   37.3397   30.6175   44.2037 H   0  0  0  0  0  0  0  0  0  0  0  0
   38.2070   30.8688   42.6794 H   0  0  0  0  0  0  0  0  0  0  0  0
   40.0867   28.4393   43.5079 H   0  0  0  0  0  0  0  0  0  0  0  0
   39.9927   26.0152   42.9958 H   0  0  0  0  0  0  0  0  0  0  0  0
   37.7564   24.9941   42.4433 H   0  0  0  0  0  0  0  0  0  0  0  0
   35.7489   26.4216   42.4264 H   0  0  0  0  0  0  0  0  0  0  0  0
   35.8724   28.8098   42.9391 H   0  0  0  0  0  0  0  0  0  0  0  0
  1  5  1  0
  2  3  2  0
  2  8  1  0
  4  3  1  0
  5  4  1  0
  5  6  2  0
  6  2  1  0
  7 12  2  0
  8  7  1  0
  9  8  2  0
  9 10  1  0
 10 11  2  0
 11 12  1  0
 13  1  1  0
 14  1  1  0
 15 16  2  0
 15 14  1  0
 17 16  1  0
 18 17  2  0
 19 18  1  0
 19 20  2  0
 20 15  1  0
  1 21  1  1
  3 22  1  0
  7 23  1  0
  9 24  1  0
 11 25  1  0
 13 26  1  0
 13 27  1  0
 13 28  1  0
 14 29  1  0
 14 30  1  0
 16 31  1  0
 17 32  1  0
 18 33  1  0
 19 34  1  0
 20 35  1  0
M  ISO  8  21   8  22  14  23  14  24  14  25  14  26   8  27   8  28   8
M  ISO  7  29   8  30   8  31  14  32  14  33  14  34  14  35  14
M  END
>  <minimizedAffinity>  (1) 
-5.39284801

>  <minimizedRMSD>  (1) 
1.63651514

$$$$
