
     RDKit          3D

 33 35  0  0  1  0  0  0  0  0999 V2000
   39.5400   30.3820   44.4080 C   0  0  2  0  0  0  0  0  0  0  0  0
   38.4020   31.1410   47.8230 C   0  0  0  0  0  0  0  0  0  0  0  0
   38.8570   32.4820   47.8970 C   0  0  0  0  0  0  0  0  0  0  0  0
   39.6450   32.7640   46.2510 S   0  0  0  0  0  0  0  0  0  0  0  0
   39.2030   30.9700   45.7590 C   0  0  0  0  0  0  0  0  0  0  0  0
   38.6850   30.5820   46.6640 N   0  0  0  0  0  0  0  0  0  0  0  0
   38.1090   30.8700   50.2640 C   0  0  0  0  0  0  0  0  0  0  0  0
   37.7020   30.5470   48.9610 C   0  0  0  0  0  0  0  0  0  0  0  0
   36.6300   29.6660   48.8450 C   0  0  0  0  0  0  0  0  0  0  0  0
   36.0460   29.1750   49.9520 N   0  0  0  0  0  0  0  0  0  0  0  0
   36.4620   29.5050   51.1840 C   0  0  0  0  0  0  0  0  0  0  0  0
   37.4990   30.3580   51.3370 N   0  0  0  0  0  0  0  0  0  0  0  0
   40.2430   31.4450   43.6300 C   0  0  0  0  0  0  0  0  0  0  0  0
   38.2330   29.9920   43.7280 C   0  0  0  0  0  0  0  0  0  0  0  0
   38.5770   28.9630   42.7090 C   0  0  0  0  0  0  0  0  0  0  0  0
   39.0860   27.8200   43.2850 C   0  0  0  0  0  0  0  0  0  0  0  0
   39.4670   26.7430   42.4860 C   0  0  0  0  0  0  0  0  0  0  0  0
   39.3180   26.8610   41.1400 N   0  0  0  0  0  0  0  0  0  0  0  0
   38.8130   27.9990   40.6020 C   0  0  0  0  0  0  0  0  0  0  0  0
   38.4420   29.0480   41.3700 N   0  0  0  0  0  0  0  0  0  0  0  0
   40.1820   29.4922   44.4853 H   0  0  0  0  0  0  0  0  0  0  0  0
   38.7629   33.1871   48.7360 H   0  0  0  0  0  0  0  0  0  0  0  0
   38.9518   31.5624   50.4061 H   0  0  0  0  0  0  0  0  0  0  0  0
   36.2621   29.3726   47.8507 H   0  0  0  0  0  0  0  0  0  0  0  0
   35.9605   29.0825   52.0671 H   0  0  0  0  0  0  0  0  0  0  0  0
   40.7137   32.1568   44.3241 H   0  0  0  0  0  0  0  0  0  0  0  0
   41.0157   30.9852   42.9964 H   0  0  0  0  0  0  0  0  0  0  0  0
   39.5175   31.9761   42.9964 H   0  0  0  0  0  0  0  0  0  0  0  0
   37.5303   29.5765   44.4653 H   0  0  0  0  0  0  0  0  0  0  0  0
   37.7501   30.8648   43.2644 H   0  0  0  0  0  0  0  0  0  0  0  0
   39.1921   27.7569   44.3780 H   0  0  0  0  0  0  0  0  0  0  0  0
   39.8763   25.8244   42.9318 H   0  0  0  0  0  0  0  0  0  0  0  0
   38.7021   28.0705   39.5099 H   0  0  0  0  0  0  0  0  0  0  0  0
  1  5  1  0
  2  3  2  0
  2  8  1  0
  4  3  1  0
  5  4  1  0
  5  6  2  0
  6  2  1  0
  7 12  2  0
  8  7  1  0
  9  8  2  0
  9 10  1  0
 10 11  2  0
 11 12  1  0
 13  1  1  0
 14  1  1  0
 15 16  2  0
 15 14  1  0
 17 16  1  0
 18 17  2  0
 19 18  1  0
 19 20  2  0
 20 15  1  0
  1 21  1  1
  3 22  1  0
  7 23  1  0
  9 24  1  0
 11 25  1  0
 13 26  1  0
 13 27  1  0
 13 28  1  0
 14 29  1  0
 14 30  1  0
 16 31  1  0
 17 32  1  0
 19 33  1  0
M  ISO  8  21   8  22  14  23  14  24  14  25  14  26   8  27   8  28   8
M  ISO  5  29   8  30   8  31  14  32  14  33  14
M  END
>  <minimizedAffinity>  (1) 
-5.24249601

>  <minimizedRMSD>  (1) 
0.849942744

$$$$
