
     RDKit          3D

 32 33  0  0  1  0  0  0  0  0999 V2000
   39.4210   30.2590   44.3030 C   0  0  2  0  0  0  0  0  0  0  0  0
   38.3700   31.1000   47.7240 C   0  0  0  0  0  0  0  0  0  0  0  0
   38.8330   32.4330   47.7460 C   0  0  0  0  0  0  0  0  0  0  0  0
   39.5800   32.6790   46.0910 S   0  0  0  0  0  0  0  0  0  0  0  0
   39.1220   30.8750   45.6410 C   0  0  0  0  0  0  0  0  0  0  0  0
   38.6220   30.5010   46.5650 N   0  0  0  0  0  0  0  0  0  0  0  0
   38.1420   30.8970   50.1750 C   0  0  0  0  0  0  0  0  0  0  0  0
   37.7030   30.5420   48.8950 C   0  0  0  0  0  0  0  0  0  0  0  0
   36.6290   29.6610   48.8390 C   0  0  0  0  0  0  0  0  0  0  0  0
   36.0700   29.1970   49.9720 N   0  0  0  0  0  0  0  0  0  0  0  0
   36.5250   29.5650   51.1840 C   0  0  0  0  0  0  0  0  0  0  0  0
   37.5650   30.4170   51.2770 N   0  0  0  0  0  0  0  0  0  0  0  0
   40.7380   30.8020   43.8500 C   0  0  0  0  0  0  0  0  0  0  0  0
   38.3170   30.6660   43.3340 C   0  0  0  0  0  0  0  0  0  0  0  0
   37.0600   30.5740   44.0660 N   0  0  0  0  0  0  0  0  0  0  0  0
   36.0770   31.5660   43.8610 C   0  0  0  0  0  0  0  0  0  0  0  0
   36.4100   32.7860   43.6460 N   0  0  0  0  0  0  0  0  0  0  0  0
   34.6890   31.2630   43.8880 N   0  0  0  0  0  0  0  0  0  0  0  0
   37.3820   33.1130   43.6080 H   0  0  0  0  0  0  0  0  0  0  0  0
   39.4655   29.1611   44.3542 H   0  0  0  0  0  0  0  0  0  0  0  0
   38.7617   33.1590   48.5693 H   0  0  0  0  0  0  0  0  0  0  0  0
   38.9882   31.5927   50.2752 H   0  0  0  0  0  0  0  0  0  0  0  0
   36.2339   29.3414   47.8634 H   0  0  0  0  0  0  0  0  0  0  0  0
   36.0499   29.1719   52.0949 H   0  0  0  0  0  0  0  0  0  0  0  0
   41.3516   31.0550   44.7272 H   0  0  0  0  0  0  0  0  0  0  0  0
   41.2581   30.0450   43.2447 H   0  0  0  0  0  0  0  0  0  0  0  0
   40.5734   31.7056   43.2447 H   0  0  0  0  0  0  0  0  0  0  0  0
   38.3024   29.9863   42.4693 H   0  0  0  0  0  0  0  0  0  0  0  0
   38.4799   31.6859   42.9555 H   0  0  0  0  0  0  0  0  0  0  0  0
   36.8918   29.7980   44.7220 H   0  0  0  0  0  0  0  0  0  0  0  0
   33.9959   32.0093   43.7348 H   0  0  0  0  0  0  0  0  0  0  0  0
   34.3760   30.2970   44.0608 H   0  0  0  0  0  0  0  0  0  0  0  0
  1  5  1  0
  2  3  2  0
  2  8  1  0
  4  3  1  0
  5  4  1  0
  5  6  2  0
  6  2  1  0
  7 12  2  0
  8  7  1  0
  9  8  2  0
  9 10  1  0
 10 11  2  0
 11 12  1  0
 13  1  1  0
 14 15  1  0
 14  1  1  0
 16 18  1  0
 16 15  1  0
 17 16  2  0
 19 17  1  0
  1 20  1  1
  3 21  1  0
  7 22  1  0
  9 23  1  0
 11 24  1  0
 13 25  1  0
 13 26  1  0
 13 27  1  0
 14 28  1  0
 14 29  1  0
 15 30  1  0
 18 31  1  0
 18 32  1  0
M  ISO  8  20   8  21  14  22  14  23  14  24  14  25   8  26   8  27   8
M  ISO  2  28   8  29   8
M  END
>  <minimizedAffinity>  (1) 
-5.23592567

>  <minimizedRMSD>  (1) 
0.768700957

$$$$
