
     RDKit          3D

 32 34  0  0  1  0  0  0  0  0999 V2000
   38.3640   31.1240   47.8260 C   0  0  0  0  0  0  0  0  0  0  0  0
   38.9370   32.4140   47.9160 C   0  0  0  0  0  0  0  0  0  0  0  0
   39.6150   32.7080   46.2350 S   0  0  0  0  0  0  0  0  0  0  0  0
   38.9850   30.9820   45.7030 C   0  0  0  0  0  0  0  0  0  0  0  0
   38.5070   30.5930   46.6250 N   0  0  0  0  0  0  0  0  0  0  0  0
   38.1240   30.8800   50.2710 C   0  0  0  0  0  0  0  0  0  0  0  0
   37.6970   30.5350   48.9870 C   0  0  0  0  0  0  0  0  0  0  0  0
   36.6360   29.6390   48.9100 C   0  0  0  0  0  0  0  0  0  0  0  0
   36.0730   29.1490   50.0320 N   0  0  0  0  0  0  0  0  0  0  0  0
   36.5170   29.5090   51.2500 C   0  0  0  0  0  0  0  0  0  0  0  0
   37.5440   30.3760   51.3640 N   0  0  0  0  0  0  0  0  0  0  0  0
   39.1780   30.4600   44.3140 C   0  0  2  0  0  0  0  0  0  0  0  0
   40.5190   30.8890   43.8280 C   0  0  0  0  0  0  0  0  0  0  0  0
   38.0770   31.0050   43.4280 C   0  0  0  0  0  0  0  0  0  0  0  0
   36.8260   30.2990   43.7620 C   0  0  0  0  0  0  0  0  0  0  0  0
   36.2970   29.0690   43.4760 C   0  0  0  0  0  0  0  0  0  0  0  0
   35.0810   28.9810   44.0830 N   0  0  0  0  0  0  0  0  0  0  0  0
   34.8380   30.1290   44.7410 C   0  0  0  0  0  0  0  0  0  0  0  0
   35.9010   30.9290   44.5430 N   0  0  0  0  0  0  0  0  0  0  0  0
   38.9690   33.0837   48.7880 H   0  0  0  0  0  0  0  0  0  0  0  0
   38.9601   31.5855   50.3856 H   0  0  0  0  0  0  0  0  0  0  0  0
   36.2538   29.3282   47.9265 H   0  0  0  0  0  0  0  0  0  0  0  0
   36.0426   29.0964   52.1526 H   0  0  0  0  0  0  0  0  0  0  0  0
   39.1290   29.3613   44.2952 H   0  0  0  0  0  0  0  0  0  0  0  0
   41.1714   31.0977   44.6887 H   0  0  0  0  0  0  0  0  0  0  0  0
   40.9616   30.0876   43.2182 H   0  0  0  0  0  0  0  0  0  0  0  0
   40.4143   31.7985   43.2182 H   0  0  0  0  0  0  0  0  0  0  0  0
   38.3304   30.8343   42.3713 H   0  0  0  0  0  0  0  0  0  0  0  0
   37.9584   32.0865   43.5904 H   0  0  0  0  0  0  0  0  0  0  0  0
   36.7712   28.2883   42.8631 H   0  0  0  0  0  0  0  0  0  0  0  0
   33.9400   30.3681   45.3295 H   0  0  0  0  0  0  0  0  0  0  0  0
   36.0023   31.8799   44.9256 H   0  0  0  0  0  0  0  0  0  0  0  0
  1  2  2  0
  1  7  1  0
  3  2  1  0
  4  3  1  0
  4  5  2  0
  5  1  1  0
  6 11  2  0
  7  6  1  0
  8  7  2  0
  8  9  1  0
  9 10  2  0
 10 11  1  0
 12  4  1  0
 13 12  1  0
 14 15  1  0
 14 12  1  0
 15 19  1  0
 16 15  2  0
 16 17  1  0
 17 18  2  0
 19 18  1  0
  2 20  1  0
  6 21  1  0
  8 22  1  0
 10 23  1  0
 12 24  1  1
 13 25  1  0
 13 26  1  0
 13 27  1  0
 14 28  1  0
 14 29  1  0
 16 30  1  0
 18 31  1  0
 19 32  1  0
M  ISO  8  20  14  21  14  22  14  23  14  24   8  25   8  26   8  27   8
M  ISO  5  28   8  29   8  30  14  31  14  32   9
M  END
>  <minimizedAffinity>  (1) 
-5.01060772

>  <minimizedRMSD>  (1) 
0.625189304

$$$$
