
     RDKit          3D

 33 35  0  0  1  0  0  0  0  0999 V2000
   39.4200   30.3130   44.4030 C   0  0  2  0  0  0  0  0  0  0  0  0
   38.3670   31.1040   47.8260 C   0  0  0  0  0  0  0  0  0  0  0  0
   38.8630   32.4290   47.8880 C   0  0  0  0  0  0  0  0  0  0  0  0
   39.6280   32.6860   46.2300 S   0  0  0  0  0  0  0  0  0  0  0  0
   39.1230   30.9060   45.7460 C   0  0  0  0  0  0  0  0  0  0  0  0
   38.6050   30.5140   46.6550 N   0  0  0  0  0  0  0  0  0  0  0  0
   38.1000   30.8600   50.2590 C   0  0  0  0  0  0  0  0  0  0  0  0
   37.6750   30.5130   48.9710 C   0  0  0  0  0  0  0  0  0  0  0  0
   36.6230   29.6370   48.9060 C   0  0  0  0  0  0  0  0  0  0  0  0
   36.0580   29.1580   50.0310 N   0  0  0  0  0  0  0  0  0  0  0  0
   36.5020   29.5200   51.2500 C   0  0  0  0  0  0  0  0  0  0  0  0
   37.5410   30.3870   51.3660 N   0  0  0  0  0  0  0  0  0  0  0  0
   40.5370   31.0970   43.7950 C   0  0  0  0  0  0  0  0  0  0  0  0
   38.1650   30.4070   43.5480 C   0  0  0  0  0  0  0  0  0  0  0  0
   37.5570   29.1000   43.2780 C   0  0  0  0  0  0  0  0  0  0  0  0
   36.2100   28.7920   43.2780 C   0  0  0  0  0  0  0  0  0  0  0  0
   35.7680   27.4970   42.9930 C   0  0  0  0  0  0  0  0  0  0  0  0
   36.6680   26.5540   42.7190 N   0  0  0  0  0  0  0  0  0  0  0  0
   37.9850   26.8370   42.7150 C   0  0  0  0  0  0  0  0  0  0  0  0
   38.3870   28.0820   42.9900 N   0  0  0  0  0  0  0  0  0  0  0  0
   39.7162   29.2565   44.4807 H   0  0  0  0  0  0  0  0  0  0  0  0
   38.8055   33.1377   48.7273 H   0  0  0  0  0  0  0  0  0  0  0  0
   38.9414   31.5615   50.3588 H   0  0  0  0  0  0  0  0  0  0  0  0
   36.2363   29.3220   47.9256 H   0  0  0  0  0  0  0  0  0  0  0  0
   36.0226   29.1130   52.1525 H   0  0  0  0  0  0  0  0  0  0  0  0
   41.1566   31.5319   44.5931 H   0  0  0  0  0  0  0  0  0  0  0  0
   41.1544   30.4330   43.1721 H   0  0  0  0  0  0  0  0  0  0  0  0
   40.1224   31.9033   43.1721 H   0  0  0  0  0  0  0  0  0  0  0  0
   37.4294   31.0342   44.0728 H   0  0  0  0  0  0  0  0  0  0  0  0
   38.4576   30.8403   42.5802 H   0  0  0  0  0  0  0  0  0  0  0  0
   35.4746   29.5777   43.5057 H   0  0  0  0  0  0  0  0  0  0  0  0
   34.6938   27.2603   42.9949 H   0  0  0  0  0  0  0  0  0  0  0  0
   38.7216   26.0523   42.4879 H   0  0  0  0  0  0  0  0  0  0  0  0
  1  5  1  0
  2  3  2  0
  2  8  1  0
  4  3  1  0
  5  4  1  0
  5  6  2  0
  6  2  1  0
  7 12  2  0
  8  7  1  0
  9  8  2  0
  9 10  1  0
 10 11  2  0
 11 12  1  0
 13  1  1  0
 14  1  1  0
 15 14  1  0
 16 15  2  0
 17 16  1  0
 18 17  2  0
 19 18  1  0
 19 20  2  0
 20 15  1  0
  1 21  1  1
  3 22  1  0
  7 23  1  0
  9 24  1  0
 11 25  1  0
 13 26  1  0
 13 27  1  0
 13 28  1  0
 14 29  1  0
 14 30  1  0
 16 31  1  0
 17 32  1  0
 19 33  1  0
M  ISO  8  21   8  22  14  23  14  24  14  25  14  26   8  27   8  28   8
M  ISO  5  29   8  30   8  31  14  32  14  33  14
M  END
>  <minimizedAffinity>  (1) 
-4.99152708

>  <minimizedRMSD>  (1) 
1.56231213

$$$$
