
     RDKit          3D

 35 37  0  0  0  0  0  0  0  0999 V2000
   39.2790   32.3000   46.0150 C   0  0  0  0  0  0  0  0  0  0  0  0
   37.9780   32.6420   49.5680 C   0  0  0  0  0  0  0  0  0  0  0  0
   38.7730   32.8740   48.4340 C   0  0  0  0  0  0  0  0  0  0  0  0
   38.5150   32.1400   47.2550 C   0  0  0  0  0  0  0  0  0  0  0  0
   37.4900   31.2380   47.2980 N   0  0  0  0  0  0  0  0  0  0  0  0
   36.7530   31.0450   48.4020 C   0  0  0  0  0  0  0  0  0  0  0  0
   36.9850   31.7350   49.5330 N   0  0  0  0  0  0  0  0  0  0  0  0
   40.1210   31.0480   45.8500 C   0  0  0  0  0  0  0  0  0  0  0  0
   40.1650   33.5020   45.9660 C   0  0  0  0  0  0  0  0  0  0  0  0
   38.2980   32.3830   44.8740 C   0  0  0  0  0  0  0  0  0  0  0  0
   38.8120   31.7780   43.6600 N   0  0  0  0  0  0  0  0  0  0  0  0
   39.6170   32.4350   42.7940 C   0  0  0  0  0  0  0  0  0  0  0  0
   39.9450   31.6280   41.7490 N   0  0  0  0  0  0  0  0  0  0  0  0
   39.3470   30.4410   41.9420 C   0  0  0  0  0  0  0  0  0  0  0  0
   39.2670   29.2320   41.2940 C   0  0  0  0  0  0  0  0  0  0  0  0
   38.5470   28.1840   41.7740 N   0  0  0  0  0  0  0  0  0  0  0  0
   37.8800   28.3320   42.9380 C   0  0  0  0  0  0  0  0  0  0  0  0
   37.9350   29.5080   43.6060 N   0  0  0  0  0  0  0  0  0  0  0  0
   38.6540   30.5530   43.1270 C   0  0  0  0  0  0  0  0  0  0  0  0
   40.0090   29.1620   40.0610 N   0  0  0  0  0  0  0  0  0  0  0  0
   38.1687   33.2065   50.4926 H   0  0  0  0  0  0  0  0  0  0  0  0
   39.5844   33.6161   48.4633 H   0  0  0  0  0  0  0  0  0  0  0  0
   35.9395   30.3048   48.3819 H   0  0  0  0  0  0  0  0  0  0  0  0
   40.3873   30.6520   46.8411 H   0  0  0  0  0  0  0  0  0  0  0  0
   39.5477   30.2911   45.2947 H   0  0  0  0  0  0  0  0  0  0  0  0
   41.0382   31.2935   45.2947 H   0  0  0  0  0  0  0  0  0  0  0  0
   40.4026   33.8244   46.9905 H   0  0  0  0  0  0  0  0  0  0  0  0
   41.0953   33.2504   45.4357 H   0  0  0  0  0  0  0  0  0  0  0  0
   39.6494   34.3162   45.4357 H   0  0  0  0  0  0  0  0  0  0  0  0
   37.3733   31.8628   45.1642 H   0  0  0  0  0  0  0  0  0  0  0  0
   38.1126   33.4473   44.6668 H   0  0  0  0  0  0  0  0  0  0  0  0
   39.9578   33.4736   42.9171 H   0  0  0  0  0  0  0  0  0  0  0  0
   37.2912   27.4963   43.3441 H   0  0  0  0  0  0  0  0  0  0  0  0
   40.5418   29.9804   39.7334 H   0  0  0  0  0  0  0  0  0  0  0  0
   40.0067   28.2936   39.5071 H   0  0  0  0  0  0  0  0  0  0  0  0
  1  4  1  0
  3  2  2  0
  4  5  2  0
  4  3  1  0
  5  6  1  0
  6  7  2  0
  7  2  1  0
  8  1  1  0
  9  1  1  0
 10  1  1  0
 11 10  1  0
 12 11  1  0
 13 14  1  0
 13 12  2  0
 14 19  2  0
 15 16  2  0
 15 14  1  0
 16 17  1  0
 17 18  2  0
 19 18  1  0
 19 11  1  0
 20 15  1  0
  2 21  1  0
  3 22  1  0
  6 23  1  0
  8 24  1  0
  8 25  1  0
  8 26  1  0
  9 27  1  0
  9 28  1  0
  9 29  1  0
 10 30  1  0
 10 31  1  0
 12 32  1  0
 17 33  1  0
 20 34  1  0
 20 35  1  0
M  ISO  8  21  14  22  14  23  14  24   8  25   8  26   8  27   8  28   8
M  ISO  5  29   8  30   8  31   8  32  14  33  14
M  END
>  <minimizedAffinity>  (1) 
-5.07709885

>  <minimizedRMSD>  (1) 
1.78833544

$$$$
