
     RDKit          3D

 26 27  0  0  1  0  0  0  0  0999 V2000
   38.3680   31.0880   47.8030 C   0  0  0  0  0  0  0  0  0  0  0  0
   38.8920   32.4070   47.8740 C   0  0  0  0  0  0  0  0  0  0  0  0
   39.6150   32.6730   46.1950 S   0  0  0  0  0  0  0  0  0  0  0  0
   39.0580   30.9070   45.7020 C   0  0  0  0  0  0  0  0  0  0  0  0
   38.5620   30.5220   46.6220 N   0  0  0  0  0  0  0  0  0  0  0  0
   38.1270   30.8740   50.2530 C   0  0  0  0  0  0  0  0  0  0  0  0
   37.6950   30.5210   48.9700 C   0  0  0  0  0  0  0  0  0  0  0  0
   36.6240   29.6340   48.8980 C   0  0  0  0  0  0  0  0  0  0  0  0
   36.0660   29.1670   50.0270 N   0  0  0  0  0  0  0  0  0  0  0  0
   36.5070   29.5270   51.2370 C   0  0  0  0  0  0  0  0  0  0  0  0
   37.5470   30.3890   51.3570 N   0  0  0  0  0  0  0  0  0  0  0  0
   39.3080   30.3390   44.3340 C   0  0  2  0  0  0  0  0  0  0  0  0
   40.5770   30.9400   43.8230 C   0  0  0  0  0  0  0  0  0  0  0  0
   38.1430   30.7390   43.4320 C   0  0  0  0  0  0  0  0  0  0  0  0
   37.0770   29.2660   43.3090 S   0  0  0  0  0  0  0  0  0  0  0  0
   38.8719   33.1033   48.7254 H   0  0  0  0  0  0  0  0  0  0  0  0
   38.9703   31.5725   50.3575 H   0  0  0  0  0  0  0  0  0  0  0  0
   36.2359   29.3165   47.9189 H   0  0  0  0  0  0  0  0  0  0  0  0
   36.0242   29.1223   52.1387 H   0  0  0  0  0  0  0  0  0  0  0  0
   39.3924   29.2425   44.3573 H   0  0  0  0  0  0  0  0  0  0  0  0
   41.2089   31.2393   44.6722 H   0  0  0  0  0  0  0  0  0  0  0  0
   41.1126   30.1999   43.2103 H   0  0  0  0  0  0  0  0  0  0  0  0
   40.3437   31.8233   43.2103 H   0  0  0  0  0  0  0  0  0  0  0  0
   37.5865   31.5779   43.8753 H   0  0  0  0  0  0  0  0  0  0  0  0
   38.4931   31.0676   42.4423 H   0  0  0  0  0  0  0  0  0  0  0  0
   36.7588   28.8263   44.5669 H   0  0  0  0  0  0  0  0  0  0  0  0
  1  2  2  0
  1  7  1  0
  3  2  1  0
  4  3  1  0
  4  5  2  0
  5  1  1  0
  6 11  2  0
  7  6  1  0
  8  7  2  0
  8  9  1  0
  9 10  2  0
 10 11  1  0
 12  4  1  0
 13 12  1  0
 14 12  1  0
 15 14  1  0
  2 16  1  0
  6 17  1  0
  8 18  1  0
 10 19  1  0
 12 20  1  1
 13 21  1  0
 13 22  1  0
 13 23  1  0
 14 24  1  0
 14 25  1  0
 15 26  1  0
M  ISO  8  16  14  17  14  18  14  19  14  20   8  21   8  22   8  23   8
M  ISO  3  24   8  25   8  26  11
M  END
>  <minimizedAffinity>  (1) 
-4.64309549

>  <minimizedRMSD>  (1) 
0.316535205

$$$$
