
     RDKit          3D

 45 49  0  0  1  0  0  0  0  0999 V2000
   38.7300   32.6360   44.4650 C   0  0  0  0  0  0  0  0  0  0  0  0
   38.1210   31.7840   43.4830 N   0  0  0  0  0  0  0  0  0  0  0  0
   36.8750   31.7360   42.9820 C   0  0  0  0  0  0  0  0  0  0  0  0
   36.8460   30.7420   42.0760 N   0  0  0  0  0  0  0  0  0  0  0  0
   38.0410   30.1490   41.9820 C   0  0  0  0  0  0  0  0  0  0  0  0
   38.4900   29.1080   41.2100 C   0  0  0  0  0  0  0  0  0  0  0  0
   37.7460   28.4940   40.3810 O   0  0  0  0  0  0  0  0  0  0  0  0
   39.7730   28.6840   41.3020 N   0  0  0  0  0  0  0  0  0  0  0  0
   40.5340   29.3390   42.1730 C   0  0  0  0  0  0  0  0  0  0  0  0
   41.9050   28.9610   42.3320 N   0  0  0  0  0  0  0  0  0  0  0  0
   40.1320   30.3670   42.9500 N   0  0  0  0  0  0  0  0  0  0  0  0
   38.8600   30.8100   42.8800 C   0  0  0  0  0  0  0  0  0  0  0  0
   40.1660   27.5950   40.4670 C   0  0  0  0  0  0  0  0  0  0  0  0
   39.7110   26.3090   40.7500 C   0  0  0  0  0  0  0  0  0  0  0  0
   40.4800   25.2710   39.4100 S   0  0  0  0  0  0  0  0  0  0  0  0
   41.3030   26.8260   38.6910 C   0  0  0  0  0  0  0  0  0  0  0  0
   40.9450   27.6180   39.3980 N   0  0  0  0  0  0  0  0  0  0  0  0
   39.5170   31.8640   45.5360 C   0  0  2  0  0  0  0  0  0  0  0  0
   36.9960   30.9210   48.0340 C   0  0  0  0  0  0  0  0  0  0  0  0
   37.3560   31.8590   49.0410 C   0  0  0  0  0  0  0  0  0  0  0  0
   38.7750   32.7720   48.3090 S   0  0  0  0  0  0  0  0  0  0  0  0
   38.6170   31.6850   46.7250 C   0  0  0  0  0  0  0  0  0  0  0  0
   37.7640   31.0250   46.9760 N   0  0  0  0  0  0  0  0  0  0  0  0
   35.9180   29.1090   49.3240 C   0  0  0  0  0  0  0  0  0  0  0  0
   35.8790   30.0180   48.2750 C   0  0  0  0  0  0  0  0  0  0  0  0
   34.7170   30.0070   47.4900 C   0  0  0  0  0  0  0  0  0  0  0  0
   33.7310   29.1400   47.7890 N   0  0  0  0  0  0  0  0  0  0  0  0
   33.8160   28.2820   48.8130 C   0  0  0  0  0  0  0  0  0  0  0  0
   34.9100   28.2690   49.5770 N   0  0  0  0  0  0  0  0  0  0  0  0
   40.7090   32.6190   45.9780 C   0  0  0  0  0  0  0  0  0  0  0  0
   37.9388   33.2156   44.9632 H   0  0  0  0  0  0  0  0  0  0  0  0
   39.4467   33.2817   43.9364 H   0  0  0  0  0  0  0  0  0  0  0  0
   36.0346   32.3885   43.2610 H   0  0  0  0  0  0  0  0  0  0  0  0
   42.5028   29.4624   43.0044 H   0  0  0  0  0  0  0  0  0  0  0  0
   42.2940   28.1875   41.7741 H   0  0  0  0  0  0  0  0  0  0  0  0
   39.0537   25.9843   41.5701 H   0  0  0  0  0  0  0  0  0  0  0  0
   41.9580   26.9228   37.8126 H   0  0  0  0  0  0  0  0  0  0  0  0
   39.8450   30.9032   45.1127 H   0  0  0  0  0  0  0  0  0  0  0  0
   36.8932   32.0045   50.0282 H   0  0  0  0  0  0  0  0  0  0  0  0
   36.8089   29.0794   49.9686 H   0  0  0  0  0  0  0  0  0  0  0  0
   34.6123   30.6980   46.6406 H   0  0  0  0  0  0  0  0  0  0  0  0
   32.9871   27.5903   49.0239 H   0  0  0  0  0  0  0  0  0  0  0  0
   40.7427   32.6403   47.0773 H   0  0  0  0  0  0  0  0  0  0  0  0
   41.6161   32.1304   45.5928 H   0  0  0  0  0  0  0  0  0  0  0  0
   40.6550   33.6479   45.5928 H   0  0  0  0  0  0  0  0  0  0  0  0
  1 18  1  0
  2  1  1  0
  3  2  1  0
  4  3  2  0
  5  4  1  0
  5 12  2  0
  6  8  1  0
  6  5  1  0
  7  6  2  0
  8  9  1  0
  9 10  1  0
  9 11  2  0
 12 11  1  0
 12  2  1  0
 13 14  2  0
 13  8  1  0
 15 14  1  0
 16 17  2  0
 16 15  1  0
 17 13  1  0
 18 30  1  0
 18 22  1  0
 19 25  1  0
 19 20  2  0
 21 20  1  0
 22 23  2  0
 22 21  1  0
 23 19  1  0
 24 29  2  0
 25 24  1  0
 26 27  1  0
 26 25  2  0
 27 28  2  0
 28 29  1  0
  1 31  1  0
  1 32  1  0
  3 33  1  0
 10 34  1  0
 10 35  1  0
 14 36  1  0
 16 37  1  0
 18 38  1  6
 20 39  1  0
 24 40  1  0
 26 41  1  0
 28 42  1  0
 30 43  1  0
 30 44  1  0
 30 45  1  0
M  ISO  8  31   8  32   8  33  14  36  14  37  14  38   8  39  14  40  14
M  ISO  5  41  14  42  14  43   8  44   8  45   8
M  END
>  <minimizedAffinity>  (1) 
-6.32670212

>  <minimizedRMSD>  (1) 
1.67975104

$$$$
