
     RDKit          3D

 42 45  0  0  1  0  0  0  0  0999 V2000
   39.5870   32.2480   45.6850 C   0  0  2  0  0  0  0  0  0  0  0  0
   37.8330   31.8290   48.8880 C   0  0  0  0  0  0  0  0  0  0  0  0
   38.2700   33.0340   49.5090 C   0  0  0  0  0  0  0  0  0  0  0  0
   39.3490   33.8190   48.2440 S   0  0  0  0  0  0  0  0  0  0  0  0
   39.0020   32.3310   47.0690 C   0  0  0  0  0  0  0  0  0  0  0  0
   38.3280   31.7010   47.6810 N   0  0  0  0  0  0  0  0  0  0  0  0
   37.3330   30.3820   50.8220 C   0  0  0  0  0  0  0  0  0  0  0  0
   36.9400   30.9450   49.6150 C   0  0  0  0  0  0  0  0  0  0  0  0
   35.6540   30.6080   49.1680 C   0  0  0  0  0  0  0  0  0  0  0  0
   34.8900   29.7820   49.9090 N   0  0  0  0  0  0  0  0  0  0  0  0
   35.3150   29.2650   51.0660 C   0  0  0  0  0  0  0  0  0  0  0  0
   36.5350   29.5670   51.5200 N   0  0  0  0  0  0  0  0  0  0  0  0
   40.6870   33.2270   45.5930 C   0  0  0  0  0  0  0  0  0  0  0  0
   38.4630   32.5620   44.6850 C   0  0  0  0  0  0  0  0  0  0  0  0
   37.7030   31.3970   44.3140 N   0  0  0  0  0  0  0  0  0  0  0  0
   36.3960   31.1020   44.4290 C   0  0  0  0  0  0  0  0  0  0  0  0
   36.2080   29.8720   43.9190 N   0  0  0  0  0  0  0  0  0  0  0  0
   37.3670   29.3660   43.4760 C   0  0  0  0  0  0  0  0  0  0  0  0
   37.6680   28.1570   42.8840 C   0  0  0  0  0  0  0  0  0  0  0  0
   36.8200   27.2620   42.6470 O   0  0  0  0  0  0  0  0  0  0  0  0
   38.9260   27.8880   42.5290 N   0  0  0  0  0  0  0  0  0  0  0  0
   39.8410   28.8390   42.7780 C   0  0  0  0  0  0  0  0  0  0  0  0
   41.2120   28.6070   42.4190 N   0  0  0  0  0  0  0  0  0  0  0  0
   39.5850   30.0350   43.3560 N   0  0  0  0  0  0  0  0  0  0  0  0
   38.3290   30.3350   43.7240 C   0  0  0  0  0  0  0  0  0  0  0  0
   39.3170   26.6310   41.8990 C   0  0  0  0  0  0  0  0  0  0  0  0
   39.6440   25.7210   42.8820 F   0  0  0  0  0  0  0  0  0  0  0  0
   38.2650   26.0760   41.1770 F   0  0  0  0  0  0  0  0  0  0  0  0
   40.3830   26.8290   41.0630 F   0  0  0  0  0  0  0  0  0  0  0  0
   39.9920   31.2500   45.4615 H   0  0  0  0  0  0  0  0  0  0  0  0
   38.0199   33.4082   50.5127 H   0  0  0  0  0  0  0  0  0  0  0  0
   38.3332   30.6139   51.2168 H   0  0  0  0  0  0  0  0  0  0  0  0
   35.2723   31.0149   48.2200 H   0  0  0  0  0  0  0  0  0  0  0  0
   34.6625   28.5930   51.6427 H   0  0  0  0  0  0  0  0  0  0  0  0
   41.0087   33.5133   46.6052 H   0  0  0  0  0  0  0  0  0  0  0  0
   41.5333   32.7779   45.0526 H   0  0  0  0  0  0  0  0  0  0  0  0
   40.3391   34.1197   45.0526 H   0  0  0  0  0  0  0  0  0  0  0  0
   37.7816   33.2951   45.1413 H   0  0  0  0  0  0  0  0  0  0  0  0
   38.9335   32.9545   43.7714 H   0  0  0  0  0  0  0  0  0  0  0  0
   35.6202   31.7503   44.8623 H   0  0  0  0  0  0  0  0  0  0  0  0
   41.9224   29.3292   42.6052 H   0  0  0  0  0  0  0  0  0  0  0  0
   41.4849   27.7184   41.9753 H   0  0  0  0  0  0  0  0  0  0  0  0
  1  5  1  0
  2  3  2  0
  2  8  1  0
  4  3  1  0
  5  6  2  0
  5  4  1  0
  6  2  1  0
  7 12  2  0
  8  7  1  0
  9  8  2  0
  9 10  1  0
 10 11  2  0
 11 12  1  0
 13  1  1  0
 14  1  1  0
 15 16  1  0
 15 14  1  0
 17 16  2  0
 18 25  2  0
 18 17  1  0
 19 18  1  0
 20 19  2  0
 21 22  1  0
 21 19  1  0
 22 24  2  0
 23 22  1  0
 24 25  1  0
 25 15  1  0
 26 21  1  0
 26 27  1  0
 28 26  1  0
 29 26  1  0
  1 30  1  6
  3 31  1  0
  7 32  1  0
  9 33  1  0
 11 34  1  0
 13 35  1  0
 13 36  1  0
 13 37  1  0
 14 38  1  0
 14 39  1  0
 16 40  1  0
 23 41  1  0
 23 42  1  0
M  ISO  8  30   8  31  14  32  14  33  14  34  14  35   8  36   8  37   8
M  ISO  3  38   8  39   8  40  14
M  END
>  <minimizedAffinity>  (1) 
-6.1492486

>  <minimizedRMSD>  (1) 
0.586051047

$$$$
