
     RDKit          3D

 46 50  0  0  1  0  0  0  0  0999 V2000
   38.6240   32.6260   44.4440 C   0  0  0  0  0  0  0  0  0  0  0  0
   37.9490   31.6350   43.6490 N   0  0  0  0  0  0  0  0  0  0  0  0
   36.6410   31.3950   43.4330 C   0  0  0  0  0  0  0  0  0  0  0  0
   36.5530   30.3400   42.6020 N   0  0  0  0  0  0  0  0  0  0  0  0
   37.7820   29.8920   42.2770 C   0  0  0  0  0  0  0  0  0  0  0  0
   38.1910   28.8520   41.4680 C   0  0  0  0  0  0  0  0  0  0  0  0
   37.4080   28.0920   40.8540 O   0  0  0  0  0  0  0  0  0  0  0  0
   39.4930   28.6180   41.3150 N   0  0  0  0  0  0  0  0  0  0  0  0
   40.3480   29.4210   41.9640 C   0  0  0  0  0  0  0  0  0  0  0  0
   41.7620   29.2130   41.8290 N   0  0  0  0  0  0  0  0  0  0  0  0
   39.9820   30.4500   42.7640 N   0  0  0  0  0  0  0  0  0  0  0  0
   38.6740   30.7140   42.9420 C   0  0  0  0  0  0  0  0  0  0  0  0
   40.0110   27.5690   40.5020 C   0  0  0  0  0  0  0  0  0  0  0  0
   40.5680   27.9040   39.2830 C   0  0  0  0  0  0  0  0  0  0  0  0
   40.9800   26.7490   38.7110 N   0  0  0  0  0  0  0  0  0  0  0  0
   40.6740   25.7790   39.5630 C   0  0  0  0  0  0  0  0  0  0  0  0
   40.0700   26.2430   40.6910 N   0  0  0  0  0  0  0  0  0  0  0  0
   39.4860   32.0090   45.5600 C   0  0  2  0  0  0  0  0  0  0  0  0
   36.9820   30.9530   48.0360 C   0  0  0  0  0  0  0  0  0  0  0  0
   37.3390   31.8600   49.0750 C   0  0  0  0  0  0  0  0  0  0  0  0
   38.7440   32.8110   48.3710 S   0  0  0  0  0  0  0  0  0  0  0  0
   38.5910   31.7800   46.7490 C   0  0  0  0  0  0  0  0  0  0  0  0
   37.7470   31.1020   46.9800 N   0  0  0  0  0  0  0  0  0  0  0  0
   35.9200   29.1040   49.2800 C   0  0  0  0  0  0  0  0  0  0  0  0
   35.8800   30.0350   48.2510 C   0  0  0  0  0  0  0  0  0  0  0  0
   34.7230   30.0220   47.4570 C   0  0  0  0  0  0  0  0  0  0  0  0
   33.7410   29.1390   47.7230 N   0  0  0  0  0  0  0  0  0  0  0  0
   33.8270   28.2610   48.7270 C   0  0  0  0  0  0  0  0  0  0  0  0
   34.9170   28.2480   49.5040 N   0  0  0  0  0  0  0  0  0  0  0  0
   40.5640   32.9320   45.9750 C   0  0  0  0  0  0  0  0  0  0  0  0
   37.8696   33.2811   44.9041 H   0  0  0  0  0  0  0  0  0  0  0  0
   39.2965   33.1845   43.7763 H   0  0  0  0  0  0  0  0  0  0  0  0
   35.7979   31.9590   43.8586 H   0  0  0  0  0  0  0  0  0  0  0  0
   42.4227   29.8275   42.3258 H   0  0  0  0  0  0  0  0  0  0  0  0
   42.1158   28.4493   41.2354 H   0  0  0  0  0  0  0  0  0  0  0  0
   40.6590   28.9149   38.8590 H   0  0  0  0  0  0  0  0  0  0  0  0
   40.8855   24.7155   39.3779 H   0  0  0  0  0  0  0  0  0  0  0  0
   39.7361   25.7016   41.5011 H   0  0  0  0  0  0  0  0  0  0  0  0
   39.9400   31.0773   45.1915 H   0  0  0  0  0  0  0  0  0  0  0  0
   36.8796   31.9662   50.0688 H   0  0  0  0  0  0  0  0  0  0  0  0
   36.8051   29.0692   49.9322 H   0  0  0  0  0  0  0  0  0  0  0  0
   34.6184   30.7295   46.6213 H   0  0  0  0  0  0  0  0  0  0  0  0
   33.0064   27.5527   48.9139 H   0  0  0  0  0  0  0  0  0  0  0  0
   40.6102   32.9716   47.0733 H   0  0  0  0  0  0  0  0  0  0  0  0
   41.5260   32.5733   45.5802 H   0  0  0  0  0  0  0  0  0  0  0  0
   40.3577   33.9378   45.5802 H   0  0  0  0  0  0  0  0  0  0  0  0
  1 18  1  0
  2  1  1  0
  3  2  1  0
  4  3  2  0
  5  4  1  0
  5 12  2  0
  6  5  1  0
  7  6  2  0
  8  6  1  0
  8  9  1  0
  9 11  2  0
 10  9  1  0
 11 12  1  0
 12  2  1  0
 13 17  1  0
 13  8  1  0
 14 13  2  0
 15 14  1  0
 15 16  2  0
 16 17  1  0
 18 30  1  0
 18 22  1  0
 19 25  1  0
 19 20  2  0
 21 20  1  0
 22 23  2  0
 22 21  1  0
 23 19  1  0
 24 29  2  0
 25 24  1  0
 26 27  1  0
 26 25  2  0
 27 28  2  0
 28 29  1  0
  1 31  1  0
  1 32  1  0
  3 33  1  0
 10 34  1  0
 10 35  1  0
 14 36  1  0
 16 37  1  0
 17 38  1  0
 18 39  1  6
 20 40  1  0
 24 41  1  0
 26 42  1  0
 28 43  1  0
 30 44  1  0
 30 45  1  0
 30 46  1  0
M  ISO  8  31   8  32   8  33  14  36  14  37  14  38   9  39   8  40  14
M  ISO  6  41  14  42  14  43  14  44   8  45   8  46   8
M  END
>  <minimizedAffinity>  (1) 
-6.12321424

>  <minimizedRMSD>  (1) 
1.62007225

$$$$
