
     RDKit          3D

 55 59  0  0  1  0  0  0  0  0999 V2000
   38.4610   32.4880   44.6080 C   0  0  0  0  0  0  0  0  0  0  0  0
   37.6300   31.3700   44.2650 N   0  0  0  0  0  0  0  0  0  0  0  0
   36.3050   31.1640   44.3920 C   0  0  0  0  0  0  0  0  0  0  0  0
   36.0390   29.9360   43.9080 N   0  0  0  0  0  0  0  0  0  0  0  0
   37.1570   29.3480   43.4730 C   0  0  0  0  0  0  0  0  0  0  0  0
   37.3890   28.1120   42.9060 C   0  0  0  0  0  0  0  0  0  0  0  0
   36.4880   27.2710   42.6890 O   0  0  0  0  0  0  0  0  0  0  0  0
   38.6260   27.7580   42.5540 N   0  0  0  0  0  0  0  0  0  0  0  0
   39.6090   28.6530   42.7790 C   0  0  0  0  0  0  0  0  0  0  0  0
   40.9500   28.3290   42.4290 N   0  0  0  0  0  0  0  0  0  0  0  0
   39.4180   29.8740   43.3330 N   0  0  0  0  0  0  0  0  0  0  0  0
   38.1850   30.2610   43.6980 C   0  0  0  0  0  0  0  0  0  0  0  0
   38.9120   26.4620   41.9530 C   0  0  0  0  0  0  0  0  0  0  0  0
   38.5130   26.3230   40.5340 C   0  0  0  0  0  0  0  0  0  0  0  0
   37.6170   25.1760   40.2210 C   0  0  0  0  0  0  0  0  0  0  0  0
   37.9060   23.9050   40.9370 C   0  0  0  0  0  0  0  0  0  0  0  0
   38.8910   24.0640   42.0820 C   0  0  0  0  0  0  0  0  0  0  0  0
   38.4000   25.3120   42.8300 C   0  0  0  0  0  0  0  0  0  0  0  0
   39.5800   32.1270   45.5990 C   0  0  2  0  0  0  0  0  0  0  0  0
   37.8650   31.8030   48.8360 C   0  0  0  0  0  0  0  0  0  0  0  0
   38.3200   33.0180   49.4180 C   0  0  0  0  0  0  0  0  0  0  0  0
   39.3860   33.7640   48.1240 S   0  0  0  0  0  0  0  0  0  0  0  0
   39.0140   32.2500   46.9890 C   0  0  0  0  0  0  0  0  0  0  0  0
   38.3440   31.6390   47.6240 N   0  0  0  0  0  0  0  0  0  0  0  0
   37.4000   30.3660   50.7870 C   0  0  0  0  0  0  0  0  0  0  0  0
   36.9750   30.9400   49.5930 C   0  0  0  0  0  0  0  0  0  0  0  0
   35.6710   30.6320   49.2000 C   0  0  0  0  0  0  0  0  0  0  0  0
   34.9160   29.8230   49.9660 N   0  0  0  0  0  0  0  0  0  0  0  0
   35.3700   29.2950   51.1080 C   0  0  0  0  0  0  0  0  0  0  0  0
   36.6090   29.5690   51.5120 N   0  0  0  0  0  0  0  0  0  0  0  0
   40.7200   33.0600   45.4880 C   0  0  0  0  0  0  0  0  0  0  0  0
   37.8302   33.2670   45.0610 H   0  0  0  0  0  0  0  0  0  0  0  0
   38.9427   32.8347   43.6818 H   0  0  0  0  0  0  0  0  0  0  0  0
   35.5742   31.8696   44.8138 H   0  0  0  0  0  0  0  0  0  0  0  0
   41.7051   29.0087   42.5985 H   0  0  0  0  0  0  0  0  0  0  0  0
   41.1654   27.4148   42.0062 H   0  0  0  0  0  0  0  0  0  0  0  0
   40.0096   26.3987   41.9177 H   0  0  0  0  0  0  0  0  0  0  0  0
   37.9945   27.2467   40.2374 H   0  0  0  0  0  0  0  0  0  0  0  0
   39.4441   26.1340   39.9796 H   0  0  0  0  0  0  0  0  0  0  0  0
   36.5883   25.4755   40.4701 H   0  0  0  0  0  0  0  0  0  0  0  0
   37.7784   24.9576   39.1550 H   0  0  0  0  0  0  0  0  0  0  0  0
   36.9621   23.5114   41.3421 H   0  0  0  0  0  0  0  0  0  0  0  0
   38.3653   23.2209   40.2083 H   0  0  0  0  0  0  0  0  0  0  0  0
   38.8711   23.1821   42.7392 H   0  0  0  0  0  0  0  0  0  0  0  0
   39.9298   24.1627   41.7338 H   0  0  0  0  0  0  0  0  0  0  0  0
   38.8315   25.3628   43.8406 H   0  0  0  0  0  0  0  0  0  0  0  0
   37.3099   25.3297   42.9760 H   0  0  0  0  0  0  0  0  0  0  0  0
   39.9362   31.1095   45.3806 H   0  0  0  0  0  0  0  0  0  0  0  0
   38.0865   33.4189   50.4154 H   0  0  0  0  0  0  0  0  0  0  0  0
   38.4188   30.5746   51.1455 H   0  0  0  0  0  0  0  0  0  0  0  0
   35.2623   31.0490   48.2678 H   0  0  0  0  0  0  0  0  0  0  0  0
   34.7241   28.6386   51.7096 H   0  0  0  0  0  0  0  0  0  0  0  0
   41.0632   33.3409   46.4946 H   0  0  0  0  0  0  0  0  0  0  0  0
   41.5416   32.5719   44.9434 H   0  0  0  0  0  0  0  0  0  0  0  0
   40.4040   33.9619   44.9434 H   0  0  0  0  0  0  0  0  0  0  0  0
  1 19  1  0
  2  3  1  0
  2  1  1  0
  4  3  2  0
  5 12  2  0
  5  4  1  0
  6  5  1  0
  7  6  2  0
  8  9  1  0
  8  6  1  0
  9 11  2  0
 10  9  1  0
 11 12  1  0
 12  2  1  0
 13  8  1  0
 13 18  1  0
 14 13  1  0
 15 14  1  0
 15 16  1  0
 16 17  1  0
 17 18  1  0
 19 23  1  0
 20 21  2  0
 20 26  1  0
 22 21  1  0
 23 24  2  0
 23 22  1  0
 24 20  1  0
 25 30  2  0
 26 25  1  0
 27 26  2  0
 27 28  1  0
 28 29  2  0
 29 30  1  0
 31 19  1  0
  1 32  1  0
  1 33  1  0
  3 34  1  0
 10 35  1  0
 10 36  1  0
 13 37  1  0
 14 38  1  0
 14 39  1  0
 15 40  1  0
 15 41  1  0
 16 42  1  0
 16 43  1  0
 17 44  1  0
 17 45  1  0
 18 46  1  0
 18 47  1  0
 19 48  1  6
 21 49  1  0
 25 50  1  0
 27 51  1  0
 29 52  1  0
 31 53  1  0
 31 54  1  0
 31 55  1  0
M  ISO  8  32   8  33   8  34  14  37  13  38  13  39  13  40  13  41  13
M  ISO  8  42  13  43  13  44  13  45  13  46  13  47  13  48   8  49  14
M  ISO  6  50  14  51  14  52  14  53   8  54   8  55   8
M  END
>  <minimizedAffinity>  (1) 
-5.97488976

>  <minimizedRMSD>  (1) 
1.28070474

$$$$
