
     RDKit          3D

 47 51  0  0  1  0  0  0  0  0999 V2000
   38.2420   32.5250   44.7710 C   0  0  0  0  0  0  0  0  0  0  0  0
   37.7920   31.2750   44.2420 N   0  0  0  0  0  0  0  0  0  0  0  0
   36.7810   30.4610   44.6040 C   0  0  0  0  0  0  0  0  0  0  0  0
   36.8010   29.4090   43.7660 N   0  0  0  0  0  0  0  0  0  0  0  0
   37.7930   29.5210   42.8760 C   0  0  0  0  0  0  0  0  0  0  0  0
   38.2130   28.7080   41.8320 C   0  0  0  0  0  0  0  0  0  0  0  0
   37.6310   27.6260   41.5600 O   0  0  0  0  0  0  0  0  0  0  0  0
   39.2500   29.0530   41.0810 N   0  0  0  0  0  0  0  0  0  0  0  0
   39.8500   30.2150   41.3950 C   0  0  0  0  0  0  0  0  0  0  0  0
   40.9820   30.6710   40.6220 N   0  0  0  0  0  0  0  0  0  0  0  0
   39.4830   31.0360   42.3950 N   0  0  0  0  0  0  0  0  0  0  0  0
   38.4370   30.7170   43.1740 C   0  0  0  0  0  0  0  0  0  0  0  0
   39.8190   28.3540   39.9810 C   0  0  0  0  0  0  0  0  0  0  0  0
   40.5560   27.2050   40.0340 C   0  0  0  0  0  0  0  0  0  0  0  0
   41.1020   26.5320   38.9850 C   0  0  0  0  0  0  0  0  0  0  0  0
   40.8920   27.0620   37.7470 N   0  0  0  0  0  0  0  0  0  0  0  0
   40.1600   28.2110   37.6520 C   0  0  0  0  0  0  0  0  0  0  0  0
   39.6610   28.8040   38.7390 N   0  0  0  0  0  0  0  0  0  0  0  0
   39.4630   32.3970   45.6940 C   0  0  2  0  0  0  0  0  0  0  0  0
   37.9140   31.8810   48.9820 C   0  0  0  0  0  0  0  0  0  0  0  0
   38.4130   33.0430   49.6190 C   0  0  0  0  0  0  0  0  0  0  0  0
   39.4240   33.8640   48.3210 S   0  0  0  0  0  0  0  0  0  0  0  0
   38.9710   32.4360   47.1150 C   0  0  0  0  0  0  0  0  0  0  0  0
   38.3240   31.7900   47.7410 N   0  0  0  0  0  0  0  0  0  0  0  0
   37.4720   30.4140   50.9220 C   0  0  0  0  0  0  0  0  0  0  0  0
   37.0450   30.9760   49.7280 C   0  0  0  0  0  0  0  0  0  0  0  0
   35.7540   30.6270   49.3050 C   0  0  0  0  0  0  0  0  0  0  0  0
   35.0230   29.7880   50.0650 N   0  0  0  0  0  0  0  0  0  0  0  0
   35.4790   29.2700   51.2100 C   0  0  0  0  0  0  0  0  0  0  0  0
   36.7070   29.5850   51.6390 N   0  0  0  0  0  0  0  0  0  0  0  0
   40.4020   33.5240   45.5080 C   0  0  0  0  0  0  0  0  0  0  0  0
   37.4188   32.9771   45.3437 H   0  0  0  0  0  0  0  0  0  0  0  0
   38.5469   33.1465   43.9162 H   0  0  0  0  0  0  0  0  0  0  0  0
   36.0727   30.6258   45.4294 H   0  0  0  0  0  0  0  0  0  0  0  0
   41.4435   31.5605   40.8601 H   0  0  0  0  0  0  0  0  0  0  0  0
   41.3276   30.1066   39.8327 H   0  0  0  0  0  0  0  0  0  0  0  0
   40.7266   26.7775   41.0331 H   0  0  0  0  0  0  0  0  0  0  0  0
   41.6824   25.6087   39.1286 H   0  0  0  0  0  0  0  0  0  0  0  0
   39.9784   28.6557   36.6624 H   0  0  0  0  0  0  0  0  0  0  0  0
   39.9873   31.4589   45.4594 H   0  0  0  0  0  0  0  0  0  0  0  0
   38.2365   33.3774   50.6520 H   0  0  0  0  0  0  0  0  0  0  0  0
   38.4780   30.6598   51.2928 H   0  0  0  0  0  0  0  0  0  0  0  0
   35.3447   31.0318   48.3677 H   0  0  0  0  0  0  0  0  0  0  0  0
   34.8473   28.5874   51.7973 H   0  0  0  0  0  0  0  0  0  0  0  0
   40.7183   33.9037   46.4907 H   0  0  0  0  0  0  0  0  0  0  0  0
   41.2831   33.1784   44.9475 H   0  0  0  0  0  0  0  0  0  0  0  0
   39.9031   34.3283   44.9475 H   0  0  0  0  0  0  0  0  0  0  0  0
  1 19  1  0
  2  3  1  0
  2  1  1  0
  4  3  2  0
  5 12  2  0
  5  4  1  0
  6  5  1  0
  7  6  2  0
  8  9  1  0
  8  6  1  0
  9 11  2  0
 10  9  1  0
 11 12  1  0
 12  2  1  0
 13 14  2  0
 13  8  1  0
 15 14  1  0
 16 15  2  0
 17 16  1  0
 17 18  2  0
 18 13  1  0
 19 23  1  0
 20 21  2  0
 20 26  1  0
 22 21  1  0
 23 24  2  0
 23 22  1  0
 24 20  1  0
 25 30  2  0
 26 25  1  0
 27 26  2  0
 27 28  1  0
 28 29  2  0
 29 30  1  0
 31 19  1  0
  1 32  1  0
  1 33  1  0
  3 34  1  0
 10 35  1  0
 10 36  1  0
 14 37  1  0
 15 38  1  0
 17 39  1  0
 19 40  1  6
 21 41  1  0
 25 42  1  0
 27 43  1  0
 29 44  1  0
 31 45  1  0
 31 46  1  0
 31 47  1  0
M  ISO  8  32   8  33   8  34  14  37  14  38  14  39  14  40   8  41  14
M  ISO  6  42  14  43  14  44  14  45   8  46   8  47   8
M  END
>  <minimizedAffinity>  (1) 
-5.84599781

>  <minimizedRMSD>  (1) 
1.58560872

$$$$
