
     RDKit          3D

 29 32  0  0  0  0  0  0  0  0999 V2000
   38.1960   31.3480   48.0860 C   0  0  0  0  0  0  0  0  0  0  0  0
   39.0020   32.4080   48.0230 N   0  0  0  0  0  0  0  0  0  0  0  0
   39.3360   32.6720   46.8150 O   0  0  0  0  0  0  0  0  0  0  0  0
   38.7630   31.7920   46.0250 C   0  0  0  0  0  0  0  0  0  0  0  0
   38.0570   30.9730   46.8050 N   0  0  0  0  0  0  0  0  0  0  0  0
   39.0060   31.8980   44.5700 C   0  0  0  0  0  0  0  0  0  0  0  0
   39.1390   33.0830   43.9600 N   0  0  0  0  0  0  0  0  0  0  0  0
   39.3580   33.1870   42.6480 C   0  0  0  0  0  0  0  0  0  0  0  0
   39.4630   32.1020   41.8340 N   0  0  0  0  0  0  0  0  0  0  0  0
   39.3380   30.8690   42.3860 C   0  0  0  0  0  0  0  0  0  0  0  0
   39.4400   29.7580   41.5790 C   0  0  0  0  0  0  0  0  0  0  0  0
   39.3210   28.5030   42.1000 C   0  0  0  0  0  0  0  0  0  0  0  0
   39.0920   28.4040   43.4730 C   0  0  0  0  0  0  0  0  0  0  0  0
   38.9980   29.5500   44.2310 C   0  0  0  0  0  0  0  0  0  0  0  0
   39.1120   30.8120   43.7470 C   0  0  0  0  0  0  0  0  0  0  0  0
   37.2430   30.1050   51.4870 C   0  0  0  0  0  0  0  0  0  0  0  0
   37.9300   30.8400   50.5080 C   0  0  0  0  0  0  0  0  0  0  0  0
   37.5380   30.6320   49.1750 C   0  0  0  0  0  0  0  0  0  0  0  0
   36.5300   29.7460   48.8660 N   0  0  0  0  0  0  0  0  0  0  0  0
   35.9120   29.0720   49.8730 C   0  0  0  0  0  0  0  0  0  0  0  0
   36.2500   29.2380   51.1560 N   0  0  0  0  0  0  0  0  0  0  0  0
   39.4576   34.1898   42.2070 H   0  0  0  0  0  0  0  0  0  0  0  0
   39.6196   29.8840   40.5011 H   0  0  0  0  0  0  0  0  0  0  0  0
   39.4020   27.6081   41.4656 H   0  0  0  0  0  0  0  0  0  0  0  0
   38.9872   27.4168   43.9469 H   0  0  0  0  0  0  0  0  0  0  0  0
   38.8169   29.4332   45.3097 H   0  0  0  0  0  0  0  0  0  0  0  0
   37.5143   30.2336   52.5452 H   0  0  0  0  0  0  0  0  0  0  0  0
   38.7342   31.5429   50.7711 H   0  0  0  0  0  0  0  0  0  0  0  0
   35.1063   28.3660   49.6232 H   0  0  0  0  0  0  0  0  0  0  0  0
  1 18  1  0
  2  1  2  0
  3  2  1  0
  4  5  2  0
  4  3  1  0
  5  1  1  0
  6  4  1  0
  7  6  2  0
  8  7  1  0
  9 10  1  0
  9  8  2  0
 10 15  2  0
 11 12  2  0
 11 10  1  0
 12 13  1  0
 13 14  2  0
 15 14  1  0
 15  6  1  0
 17 16  2  0
 18 17  1  0
 19 18  2  0
 19 20  1  0
 20 21  2  0
 21 16  1  0
  8 22  1  0
 11 23  1  0
 12 24  1  0
 13 25  1  0
 14 26  1  0
 16 27  1  0
 17 28  1  0
 20 29  1  0
M  ISO  8  22  14  23  14  24  14  25  14  26  14  27  14  28  14  29  14
M  END
>  <minimizedAffinity>  (1) 
-6.02804852

>  <minimizedRMSD>  (1) 
1.13797808

$$$$
