
     RDKit          3D

 29 31  0  0  0  0  0  0  0  0999 V2000
   37.9990   31.8320   48.9470 C   0  0  0  0  0  0  0  0  0  0  0  0
   38.6780   32.9680   49.2090 N   0  0  0  0  0  0  0  0  0  0  0  0
   39.2660   33.4160   48.1530 O   0  0  0  0  0  0  0  0  0  0  0  0
   38.9980   32.6010   47.1750 C   0  0  0  0  0  0  0  0  0  0  0  0
   38.2020   31.5830   47.6170 N   0  0  0  0  0  0  0  0  0  0  0  0
   39.3940   32.6290   45.8090 N   0  0  0  0  0  0  0  0  0  0  0  0
   38.5380   32.7290   44.6390 C   0  0  0  0  0  0  0  0  0  0  0  0
   39.2010   32.1450   43.4260 C   0  0  0  0  0  0  0  0  0  0  0  0
   39.9810   30.9660   43.6970 N   0  0  0  0  0  0  0  0  0  0  0  0
   40.9750   31.1970   44.7270 C   0  0  0  0  0  0  0  0  0  0  0  0
   40.7960   32.5530   45.3710 C   0  0  0  0  0  0  0  0  0  0  0  0
   36.7860   29.5740   51.6830 C   0  0  0  0  0  0  0  0  0  0  0  0
   37.6480   30.4180   50.9640 C   0  0  0  0  0  0  0  0  0  0  0  0
   37.1860   30.9440   49.7720 C   0  0  0  0  0  0  0  0  0  0  0  0
   35.9350   30.6270   49.3500 N   0  0  0  0  0  0  0  0  0  0  0  0
   35.1320   29.8110   50.0660 C   0  0  0  0  0  0  0  0  0  0  0  0
   35.5500   29.2830   51.2270 N   0  0  0  0  0  0  0  0  0  0  0  0
   37.6019   32.1848   44.8325 H   0  0  0  0  0  0  0  0  0  0  0  0
   38.3371   33.7932   44.4461 H   0  0  0  0  0  0  0  0  0  0  0  0
   39.8654   32.9077   42.9937 H   0  0  0  0  0  0  0  0  0  0  0  0
   38.3977   31.8444   42.7373 H   0  0  0  0  0  0  0  0  0  0  0  0
   39.3496   30.2136   44.0070 H   0  0  0  0  0  0  0  0  0  0  0  0
   40.8788   30.4188   45.4984 H   0  0  0  0  0  0  0  0  0  0  0  0
   41.9710   31.1633   44.2612 H   0  0  0  0  0  0  0  0  0  0  0  0
   41.4694   32.6547   46.2348 H   0  0  0  0  0  0  0  0  0  0  0  0
   41.0352   33.3619   44.6650 H   0  0  0  0  0  0  0  0  0  0  0  0
   37.1250   29.1420   52.6361 H   0  0  0  0  0  0  0  0  0  0  0  0
   38.6561   30.6524   51.3365 H   0  0  0  0  0  0  0  0  0  0  0  0
   34.1239   29.5763   49.6936 H   0  0  0  0  0  0  0  0  0  0  0  0
  1  2  2  0
  1 14  1  0
  3  2  1  0
  4  5  2  0
  4  3  1  0
  5  1  1  0
  6  4  1  0
  7  6  1  0
  8  9  1  0
  8  7  1  0
  9 10  1  0
 10 11  1  0
 11  6  1  0
 13 12  2  0
 14 13  1  0
 15 14  2  0
 15 16  1  0
 16 17  2  0
 17 12  1  0
  7 18  1  0
  7 19  1  0
  8 20  1  0
  8 21  1  0
  9 22  1  0
 10 23  1  0
 10 24  1  0
 11 25  1  0
 11 26  1  0
 12 27  1  0
 13 28  1  0
 16 29  1  0
M  ISO  8  18  13  19  13  20  13  21  13  22   5  23  13  24  13  25  13
M  ISO  4  26  13  27  14  28  14  29  14
M  END
>  <minimizedAffinity>  (1) 
-5.8498354

>  <minimizedRMSD>  (1) 
1.38428009

$$$$
