
     RDKit          3D

 22 24  0  0  0  0  0  0  0  0999 V2000
   38.3570   31.4470   48.1650 C   0  0  0  0  0  0  0  0  0  0  0  0
   38.9680   32.6450   48.1060 N   0  0  0  0  0  0  0  0  0  0  0  0
   39.4130   32.8700   46.9250 O   0  0  0  0  0  0  0  0  0  0  0  0
   39.1160   31.8460   46.1780 C   0  0  0  0  0  0  0  0  0  0  0  0
   38.4560   30.9390   46.9170 N   0  0  0  0  0  0  0  0  0  0  0  0
   37.3310   30.1360   51.5330 C   0  0  0  0  0  0  0  0  0  0  0  0
   38.0300   30.8900   50.5790 C   0  0  0  0  0  0  0  0  0  0  0  0
   37.6870   30.7070   49.2390 C   0  0  0  0  0  0  0  0  0  0  0  0
   36.7040   29.8190   48.9160 N   0  0  0  0  0  0  0  0  0  0  0  0
   36.0580   29.1150   49.8710 C   0  0  0  0  0  0  0  0  0  0  0  0
   36.3680   29.2700   51.1780 N   0  0  0  0  0  0  0  0  0  0  0  0
   39.4470   31.7070   44.7570 C   0  0  0  0  0  0  0  0  0  0  0  0
   40.3230   30.8570   44.2020 C   0  0  0  0  0  0  0  0  0  0  0  0
   40.5010   30.8710   42.8450 C   0  0  0  0  0  0  0  0  0  0  0  0
   39.7500   31.7830   42.1180 C   0  0  0  0  0  0  0  0  0  0  0  0
   38.7570   32.6350   43.4820 S   0  0  0  0  0  0  0  0  0  0  0  0
   37.5777   30.2570   52.5981 H   0  0  0  0  0  0  0  0  0  0  0  0
   38.8179   31.5980   50.8757 H   0  0  0  0  0  0  0  0  0  0  0  0
   35.2687   28.4057   49.5813 H   0  0  0  0  0  0  0  0  0  0  0  0
   40.8923   30.1562   44.8303 H   0  0  0  0  0  0  0  0  0  0  0  0
   41.2090   30.1885   42.3522 H   0  0  0  0  0  0  0  0  0  0  0  0
   39.7361   31.9630   41.0329 H   0  0  0  0  0  0  0  0  0  0  0  0
  1  8  1  0
  2  1  2  0
  3  2  1  0
  4  5  2  0
  4  3  1  0
  5  1  1  0
  7  6  2  0
  8  7  1  0
  9  8  2  0
  9 10  1  0
 10 11  2  0
 11  6  1  0
 12  4  1  0
 13 12  2  0
 14 13  1  0
 15 14  2  0
 15 16  1  0
 16 12  1  0
  6 17  1  0
  7 18  1  0
 10 19  1  0
 13 20  1  0
 14 21  1  0
 15 22  1  0
M  ISO  6  17  14  18  14  19  14  20  14  21  14  22  14
M  END
>  <minimizedAffinity>  (1) 
-5.27733135

>  <minimizedRMSD>  (1) 
0.405939758

$$$$
