
     RDKit          3D

 24 25  0  0  0  0  0  0  0  0999 V2000
   37.0810   29.8790   51.2920 C   0  0  0  0  0  0  0  0  0  0  0  0
   37.8600   30.8290   50.6440 C   0  0  0  0  0  0  0  0  0  0  0  0
   37.7620   30.9460   49.2640 C   0  0  0  0  0  0  0  0  0  0  0  0
   36.8980   30.1220   48.5770 N   0  0  0  0  0  0  0  0  0  0  0  0
   36.1620   29.2110   49.2600 C   0  0  0  0  0  0  0  0  0  0  0  0
   36.2490   29.0880   50.6030 N   0  0  0  0  0  0  0  0  0  0  0  0
   38.5310   31.9100   48.4770 C   0  0  0  0  0  0  0  0  0  0  0  0
   38.8970   33.1860   48.7500 N   0  0  0  0  0  0  0  0  0  0  0  0
   39.5730   33.6650   47.7610 O   0  0  0  0  0  0  0  0  0  0  0  0
   39.6690   32.7480   46.8400 C   0  0  0  0  0  0  0  0  0  0  0  0
   39.0280   31.6390   47.2560 N   0  0  0  0  0  0  0  0  0  0  0  0
   40.3530   32.8270   45.5200 C   0  0  0  0  0  0  0  0  0  0  0  0
   41.0400   31.4870   45.2780 C   0  0  0  0  0  0  0  0  0  0  0  0
   39.3770   33.1310   44.4240 C   0  0  0  0  0  0  0  0  0  0  0  0
   37.1485   29.7752   52.3850 H   0  0  0  0  0  0  0  0  0  0  0  0
   38.5422   31.4769   51.2138 H   0  0  0  0  0  0  0  0  0  0  0  0
   35.4753   28.5541   48.7059 H   0  0  0  0  0  0  0  0  0  0  0  0
   41.0915   33.6422   45.5237 H   0  0  0  0  0  0  0  0  0  0  0  0
   41.2802   31.0184   46.2438 H   0  0  0  0  0  0  0  0  0  0  0  0
   40.3684   30.8283   44.7078 H   0  0  0  0  0  0  0  0  0  0  0  0
   41.9669   31.6478   44.7078 H   0  0  0  0  0  0  0  0  0  0  0  0
   38.4141   33.4309   44.8632 H   0  0  0  0  0  0  0  0  0  0  0  0
   39.7674   33.9501   43.8022 H   0  0  0  0  0  0  0  0  0  0  0  0
   39.2332   32.2351   43.8022 H   0  0  0  0  0  0  0  0  0  0  0  0
  2  1  2  0
  3  2  1  0
  4  5  1  0
  4  3  2  0
  5  6  2  0
  6  1  1  0
  7  8  2  0
  7  3  1  0
  9  8  1  0
 10 11  2  0
 10  9  1  0
 11  7  1  0
 12 10  1  0
 13 12  1  0
 14 12  1  0
  1 15  1  0
  2 16  1  0
  5 17  1  0
 12 18  1  0
 13 19  1  0
 13 20  1  0
 13 21  1  0
 14 22  1  0
 14 23  1  0
 14 24  1  0
M  ISO  8  15  14  16  14  17  14  18   8  19   8  20   8  21   8  22   8
M  ISO  2  23   8  24   8
M  END
>  <minimizedAffinity>  (1) 
-5.16639233

>  <minimizedRMSD>  (1) 
0.986016631

$$$$
