
     RDKit          3D

 18 19  0  0  0  0  0  0  0  0999 V2000
   37.2890   30.1570   51.2780 C   0  0  0  0  0  0  0  0  0  0  0  0
   38.0570   30.9560   50.4260 C   0  0  0  0  0  0  0  0  0  0  0  0
   37.8570   30.8080   49.0490 C   0  0  0  0  0  0  0  0  0  0  0  0
   36.9390   29.9070   48.5910 N   0  0  0  0  0  0  0  0  0  0  0  0
   36.2220   29.1560   49.4530 C   0  0  0  0  0  0  0  0  0  0  0  0
   36.3900   29.2750   50.7940 N   0  0  0  0  0  0  0  0  0  0  0  0
   38.6090   31.5960   48.0720 C   0  0  0  0  0  0  0  0  0  0  0  0
   39.0260   32.8670   48.0370 N   0  0  0  0  0  0  0  0  0  0  0  0
   39.6670   33.1330   46.9570 O   0  0  0  0  0  0  0  0  0  0  0  0
   39.6890   32.0230   46.2410 C   0  0  0  0  0  0  0  0  0  0  0  0
   39.0370   31.0420   46.9080 N   0  0  0  0  0  0  0  0  0  0  0  0
   40.2820   31.7430   44.9260 C   0  0  0  0  0  0  0  0  0  0  0  0
   40.1570   32.4620   43.9000 O   0  0  0  0  0  0  0  0  0  0  0  0
   41.0660   30.6000   44.7030 O   0  0  0  0  0  0  0  0  0  0  0  0
   37.4204   30.2493   52.3662 H   0  0  0  0  0  0  0  0  0  0  0  0
   38.7903   31.6735   50.8228 H   0  0  0  0  0  0  0  0  0  0  0  0
   35.4890   28.4352   49.0618 H   0  0  0  0  0  0  0  0  0  0  0  0
   41.4547   30.4333   43.8079 H   0  0  0  0  0  0  0  0  0  0  0  0
  2  1  2  0
  3  2  1  0
  4  3  2  0
  4  5  1  0
  5  6  2  0
  6  1  1  0
  7  3  1  0
  8  7  2  0
  9  8  1  0
 10 11  2  0
 10  9  1  0
 11  7  1  0
 12 10  1  0
 13 12  2  0
 14 12  1  0
  1 15  1  0
  2 16  1  0
  5 17  1  0
 14 18  1  0
M  ISO  4  15  14  16  14  17  14  18   3
M  END
>  <minimizedAffinity>  (1) 
-5.08184195

>  <minimizedRMSD>  (1) 
0.577910364

$$$$
