
     RDKit          3D

 18 19  0  0  0  0  0  0  0  0999 V2000
   37.3230   30.2170   51.2090 C   0  0  0  0  0  0  0  0  0  0  0  0
   38.1110   30.9970   50.3390 C   0  0  0  0  0  0  0  0  0  0  0  0
   37.8960   30.8280   48.9640 C   0  0  0  0  0  0  0  0  0  0  0  0
   36.9600   29.9380   48.5540 N   0  0  0  0  0  0  0  0  0  0  0  0
   36.2280   29.2100   49.4260 C   0  0  0  0  0  0  0  0  0  0  0  0
   36.4070   29.3470   50.7620 N   0  0  0  0  0  0  0  0  0  0  0  0
   38.6450   31.5750   47.9660 C   0  0  0  0  0  0  0  0  0  0  0  0
   39.0580   32.8600   47.9190 N   0  0  0  0  0  0  0  0  0  0  0  0
   39.7040   33.0810   46.8120 O   0  0  0  0  0  0  0  0  0  0  0  0
   39.7230   31.9670   46.1300 C   0  0  0  0  0  0  0  0  0  0  0  0
   39.0720   30.9880   46.8100 N   0  0  0  0  0  0  0  0  0  0  0  0
   40.3690   31.8070   44.8060 C   0  0  0  0  0  0  0  0  0  0  0  0
   37.4650   30.3263   52.2943 H   0  0  0  0  0  0  0  0  0  0  0  0
   38.8603   31.7058   50.7213 H   0  0  0  0  0  0  0  0  0  0  0  0
   35.4791   28.4989   49.0472 H   0  0  0  0  0  0  0  0  0  0  0  0
   41.4283   31.5446   44.9442 H   0  0  0  0  0  0  0  0  0  0  0  0
   39.8632   31.0070   44.2455 H   0  0  0  0  0  0  0  0  0  0  0  0
   40.2951   32.7506   44.2455 H   0  0  0  0  0  0  0  0  0  0  0  0
  2  1  2  0
  3  2  1  0
  4  3  2  0
  4  5  1  0
  5  6  2  0
  6  1  1  0
  7  3  1  0
  8  7  2  0
  9  8  1  0
 10 11  2  0
 10  9  1  0
 11  7  1  0
 12 10  1  0
  1 13  1  0
  2 14  1  0
  5 15  1  0
 12 16  1  0
 12 17  1  0
 12 18  1  0
M  ISO  6  13  14  14  14  15  14  16   8  17   8  18   8
M  END
>  <minimizedAffinity>  (1) 
-4.61823368

>  <minimizedRMSD>  (1) 
0.267535895

$$$$
