
     RDKit          3D

 16 17  0  0  0  0  0  0  0  0999 V2000
   37.3260   30.2100   51.2660 C   0  0  0  0  0  0  0  0  0  0  0  0
   38.0920   30.9760   50.3640 C   0  0  0  0  0  0  0  0  0  0  0  0
   37.8530   30.7720   49.0070 C   0  0  0  0  0  0  0  0  0  0  0  0
   36.9080   29.8600   48.6040 N   0  0  0  0  0  0  0  0  0  0  0  0
   36.2050   29.1540   49.5160 C   0  0  0  0  0  0  0  0  0  0  0  0
   36.4030   29.3200   50.8310 N   0  0  0  0  0  0  0  0  0  0  0  0
   38.5900   31.5120   47.9740 C   0  0  0  0  0  0  0  0  0  0  0  0
   39.0410   32.7810   47.9100 N   0  0  0  0  0  0  0  0  0  0  0  0
   39.6430   32.9810   46.7820 O   0  0  0  0  0  0  0  0  0  0  0  0
   39.6020   31.8680   46.0950 C   0  0  0  0  0  0  0  0  0  0  0  0
   38.9450   30.9030   46.8030 N   0  0  0  0  0  0  0  0  0  0  0  0
   40.2910   31.6380   44.4840 S   0  0  0  0  0  0  0  0  0  0  0  0
   37.4816   30.3382   52.3474 H   0  0  0  0  0  0  0  0  0  0  0  0
   38.8423   31.6999   50.7148 H   0  0  0  0  0  0  0  0  0  0  0  0
   35.4541   28.4274   49.1721 H   0  0  0  0  0  0  0  0  0  0  0  0
   41.5860   31.2057   44.5986 H   0  0  0  0  0  0  0  0  0  0  0  0
  2  1  2  0
  3  2  1  0
  4  3  2  0
  4  5  1  0
  5  6  2  0
  6  1  1  0
  7  3  1  0
  8  7  2  0
  9  8  1  0
 10  9  1  0
 10 11  2  0
 11  7  1  0
 12 10  1  0
  1 13  1  0
  2 14  1  0
  5 15  1  0
 12 16  1  0
M  ISO  4  13  14  14  14  15  14  16  11
M  END
>  <minimizedAffinity>  (1) 
-4.58018303

>  <minimizedRMSD>  (1) 
0.159185112

$$$$
