
     RDKit          3D

 30 31  0  0  0  0  0  0  0  0999 V2000
   39.2390   32.2920   46.0470 C   0  0  0  0  0  0  0  0  0  0  0  0
   38.0080   32.7360   49.6150 C   0  0  0  0  0  0  0  0  0  0  0  0
   38.7840   32.9460   48.4640 C   0  0  0  0  0  0  0  0  0  0  0  0
   38.5130   32.1870   47.3250 C   0  0  0  0  0  0  0  0  0  0  0  0
   37.4890   31.2690   47.4000 N   0  0  0  0  0  0  0  0  0  0  0  0
   36.7660   31.0930   48.5130 C   0  0  0  0  0  0  0  0  0  0  0  0
   37.0110   31.8150   49.6260 N   0  0  0  0  0  0  0  0  0  0  0  0
   40.0020   30.9980   45.8470 C   0  0  0  0  0  0  0  0  0  0  0  0
   40.2040   33.4350   46.0020 C   0  0  0  0  0  0  0  0  0  0  0  0
   38.2340   32.4650   44.9470 C   0  0  0  0  0  0  0  0  0  0  0  0
   38.6120   31.8250   43.6790 C   0  0  0  0  0  0  0  0  0  0  0  0
   37.9750   30.6460   43.2840 C   0  0  0  0  0  0  0  0  0  0  0  0
   38.2790   29.9810   42.0960 C   0  0  0  0  0  0  0  0  0  0  0  0
   39.2340   30.5070   41.2940 N   0  0  0  0  0  0  0  0  0  0  0  0
   39.8530   31.6430   41.6660 C   0  0  0  0  0  0  0  0  0  0  0  0
   39.5440   32.2660   42.8160 N   0  0  0  0  0  0  0  0  0  0  0  0
   38.2109   33.3262   50.5208 H   0  0  0  0  0  0  0  0  0  0  0  0
   39.5901   33.6945   48.4602 H   0  0  0  0  0  0  0  0  0  0  0  0
   35.9580   30.3466   48.5201 H   0  0  0  0  0  0  0  0  0  0  0  0
   40.2561   30.5670   46.8266 H   0  0  0  0  0  0  0  0  0  0  0  0
   39.3782   30.2877   45.2846 H   0  0  0  0  0  0  0  0  0  0  0  0
   40.9255   31.2000   45.2846 H   0  0  0  0  0  0  0  0  0  0  0  0
   40.4605   33.7389   47.0276 H   0  0  0  0  0  0  0  0  0  0  0  0
   41.1166   33.1237   45.4727 H   0  0  0  0  0  0  0  0  0  0  0  0
   39.7441   34.2825   45.4727 H   0  0  0  0  0  0  0  0  0  0  0  0
   37.2794   32.0321   45.2807 H   0  0  0  0  0  0  0  0  0  0  0  0
   38.1661   33.5447   44.7480 H   0  0  0  0  0  0  0  0  0  0  0  0
   37.1990   30.2232   43.9391 H   0  0  0  0  0  0  0  0  0  0  0  0
   37.7564   29.0537   41.8184 H   0  0  0  0  0  0  0  0  0  0  0  0
   40.6290   32.0709   41.0142 H   0  0  0  0  0  0  0  0  0  0  0  0
  1  4  1  0
  2  7  2  0
  3  2  1  0
  4  5  1  0
  4  3  2  0
  5  6  2  0
  6  7  1  0
  8  1  1  0
  9  1  1  0
 10  1  1  0
 11 10  1  0
 12 11  2  0
 13 12  1  0
 14 15  1  0
 14 13  2  0
 15 16  2  0
 16 11  1  0
  2 17  1  0
  3 18  1  0
  6 19  1  0
  8 20  1  0
  8 21  1  0
  8 22  1  0
  9 23  1  0
  9 24  1  0
  9 25  1  0
 10 26  1  0
 10 27  1  0
 12 28  1  0
 13 29  1  0
 15 30  1  0
M  ISO  8  17  14  18  14  19  14  20   8  21   8  22   8  23   8  24   8
M  ISO  6  25   8  26   8  27   8  28  14  29  14  30  14
M  END
>  <minimizedAffinity>  (1) 
-4.61355448

>  <minimizedRMSD>  (1) 
1.06982243

$$$$
