
     RDKit          3D

 34 37  0  0  0  0  0  0  0  0999 V2000
   37.6840   32.7280   49.6740 C   0  0  0  0  0  0  0  0  0  0  0  0
   38.5130   33.0100   48.5780 C   0  0  0  0  0  0  0  0  0  0  0  0
   38.4170   32.1460   47.4730 C   0  0  0  0  0  0  0  0  0  0  0  0
   37.5430   31.0840   47.4900 N   0  0  0  0  0  0  0  0  0  0  0  0
   36.7810   30.8850   48.5860 C   0  0  0  0  0  0  0  0  0  0  0  0
   36.8370   31.6830   49.6710 N   0  0  0  0  0  0  0  0  0  0  0  0
   35.8810   29.7820   48.5950 N   0  0  0  0  0  0  0  0  0  0  0  0
   34.9770   29.3320   47.5720 C   0  0  0  0  0  0  0  0  0  0  0  0
   33.7010   28.9170   48.2820 C   0  0  0  0  0  0  0  0  0  0  0  0
   34.1600   28.6480   49.7050 C   0  0  0  0  0  0  0  0  0  0  0  0
   35.6650   28.8350   49.6710 C   0  0  0  0  0  0  0  0  0  0  0  0
   39.2350   32.3460   46.2740 C   0  0  0  0  0  0  0  0  0  0  0  0
   40.1490   33.3010   45.9410 N   0  0  0  0  0  0  0  0  0  0  0  0
   40.6180   33.0480   44.7500 O   0  0  0  0  0  0  0  0  0  0  0  0
   40.0460   31.9740   44.3090 C   0  0  0  0  0  0  0  0  0  0  0  0
   39.1530   31.4700   45.2240 N   0  0  0  0  0  0  0  0  0  0  0  0
   40.2520   31.3230   43.0450 N   0  0  0  0  0  0  0  0  0  0  0  0
   39.8890   31.8800   41.8910 N   0  0  0  0  0  0  0  0  0  0  0  0
   40.1940   31.0680   40.8730 C   0  0  0  0  0  0  0  0  0  0  0  0
   40.7820   29.9430   41.4560 C   0  0  0  0  0  0  0  0  0  0  0  0
   40.8110   30.1220   42.8300 C   0  0  0  0  0  0  0  0  0  0  0  0
   37.7278   33.3789   50.5597 H   0  0  0  0  0  0  0  0  0  0  0  0
   39.2045   33.8655   48.5829 H   0  0  0  0  0  0  0  0  0  0  0  0
   35.4083   28.4758   47.0326 H   0  0  0  0  0  0  0  0  0  0  0  0
   34.7836   30.1239   46.8334 H   0  0  0  0  0  0  0  0  0  0  0  0
   32.9553   29.7252   48.2553 H   0  0  0  0  0  0  0  0  0  0  0  0
   33.2145   28.0471   47.8165 H   0  0  0  0  0  0  0  0  0  0  0  0
   33.6969   29.3615   50.4025 H   0  0  0  0  0  0  0  0  0  0  0  0
   33.8751   27.6429   50.0492 H   0  0  0  0  0  0  0  0  0  0  0  0
   36.1719   27.8819   49.4596 H   0  0  0  0  0  0  0  0  0  0  0  0
   36.0675   29.1893   50.6314 H   0  0  0  0  0  0  0  0  0  0  0  0
   40.0187   31.2481   39.8021 H   0  0  0  0  0  0  0  0  0  0  0  0
   41.1589   29.0624   40.9151 H   0  0  0  0  0  0  0  0  0  0  0  0
   41.2081   29.4269   43.5845 H   0  0  0  0  0  0  0  0  0  0  0  0
  2  1  2  0
  3  4  2  0
  3  2  1  0
  4  5  1  0
  5  7  1  0
  5  6  2  0
  6  1  1  0
  7 11  1  0
  8  9  1  0
  8  7  1  0
  9 10  1  0
 11 10  1  0
 12  3  1  0
 13 12  2  0
 14 13  1  0
 15 14  1  0
 15 16  2  0
 16 12  1  0
 17 15  1  0
 18 17  1  0
 19 20  1  0
 19 18  2  0
 20 21  2  0
 21 17  1  0
  1 22  1  0
  2 23  1  0
  8 24  1  0
  8 25  1  0
  9 26  1  0
  9 27  1  0
 10 28  1  0
 10 29  1  0
 11 30  1  0
 11 31  1  0
 19 32  1  0
 20 33  1  0
 21 34  1  0
M  ISO  8  22  14  23  14  24  13  25  13  26  13  27  13  28  13  29  13
M  ISO  5  30  13  31  13  32  14  33  14  34  14
M  END
>  <minimizedAffinity>  (1) 
-6.59273815

>  <minimizedRMSD>  (1) 
2.2795794

$$$$
