
     RDKit          3D

 29 32  0  0  0  0  0  0  0  0999 V2000
   37.4130   30.0880   51.5160 C   0  0  0  0  0  0  0  0  0  0  0  0
   38.1770   30.8220   50.5950 C   0  0  0  0  0  0  0  0  0  0  0  0
   37.6860   30.8980   49.2960 C   0  0  0  0  0  0  0  0  0  0  0  0
   36.5090   30.2780   48.9520 N   0  0  0  0  0  0  0  0  0  0  0  0
   35.8160   29.5830   49.8940 C   0  0  0  0  0  0  0  0  0  0  0  0
   36.2690   29.4880   51.1800 N   0  0  0  0  0  0  0  0  0  0  0  0
   38.3880   31.6330   48.2350 C   0  0  0  0  0  0  0  0  0  0  0  0
   39.0310   32.8330   48.2440 N   0  0  0  0  0  0  0  0  0  0  0  0
   39.5060   33.0820   47.0600 O   0  0  0  0  0  0  0  0  0  0  0  0
   39.1890   32.0750   46.2820 C   0  0  0  0  0  0  0  0  0  0  0  0
   38.4790   31.1280   46.9760 N   0  0  0  0  0  0  0  0  0  0  0  0
   39.5030   31.9150   44.8910 N   0  0  0  0  0  0  0  0  0  0  0  0
   38.9830   32.6980   43.9490 N   0  0  0  0  0  0  0  0  0  0  0  0
   39.4460   32.3250   42.7460 C   0  0  0  0  0  0  0  0  0  0  0  0
   40.2990   31.2510   42.9820 C   0  0  0  0  0  0  0  0  0  0  0  0
   40.3200   31.0080   44.3490 C   0  0  0  0  0  0  0  0  0  0  0  0
   34.5780   28.9570   49.4450 C   0  0  0  0  0  0  0  0  0  0  0  0
   34.5580   28.1070   48.3520 C   0  0  0  0  0  0  0  0  0  0  0  0
   33.2350   27.6950   48.2040 C   0  0  0  0  0  0  0  0  0  0  0  0
   32.5070   28.2900   49.1870 N   0  0  0  0  0  0  0  0  0  0  0  0
   33.3220   29.0510   49.9330 N   0  0  0  0  0  0  0  0  0  0  0  0
   37.7704   30.0042   52.5530 H   0  0  0  0  0  0  0  0  0  0  0  0
   39.1174   31.3127   50.8863 H   0  0  0  0  0  0  0  0  0  0  0  0
   39.2015   32.7757   41.7728 H   0  0  0  0  0  0  0  0  0  0  0  0
   40.8593   30.6917   42.2183 H   0  0  0  0  0  0  0  0  0  0  0  0
   40.8912   30.2297   44.8763 H   0  0  0  0  0  0  0  0  0  0  0  0
   35.4144   27.8155   47.7262 H   0  0  0  0  0  0  0  0  0  0  0  0
   32.8494   27.0125   47.4323 H   0  0  0  0  0  0  0  0  0  0  0  0
   31.4942   28.1749   49.3347 H   0  0  0  0  0  0  0  0  0  0  0  0
  2  1  2  0
  3  2  1  0
  4  3  2  0
  4  5  1  0
  5  6  2  0
  6  1  1  0
  7  8  2  0
  7  3  1  0
  9  8  1  0
 10 11  2  0
 10  9  1  0
 11  7  1  0
 12 10  1  0
 13 12  1  0
 14 15  1  0
 14 13  2  0
 15 16  2  0
 16 12  1  0
 17  5  1  0
 17 21  2  0
 18 17  1  0
 19 18  2  0
 19 20  1  0
 20 21  1  0
  1 22  1  0
  2 23  1  0
 14 24  1  0
 15 25  1  0
 16 26  1  0
 18 27  1  0
 19 28  1  0
 20 29  1  0
M  ISO  8  22  14  23  14  24  14  25  14  26  14  27  14  28  14  29   9
M  END
>  <minimizedAffinity>  (1) 
-6.55382967

>  <minimizedRMSD>  (1) 
0.792680621

$$$$
