
     RDKit          3D

 29 30  0  0  0  0  0  0  0  0999 V2000
   39.2100   32.2380   46.0070 C   0  0  0  0  0  0  0  0  0  0  0  0
   38.1190   32.8500   49.5860 C   0  0  0  0  0  0  0  0  0  0  0  0
   38.8500   33.0030   48.3940 C   0  0  0  0  0  0  0  0  0  0  0  0
   38.5340   32.1890   47.3040 C   0  0  0  0  0  0  0  0  0  0  0  0
   37.5100   31.2800   47.4790 N   0  0  0  0  0  0  0  0  0  0  0  0
   36.8390   31.1640   48.6280 C   0  0  0  0  0  0  0  0  0  0  0  0
   37.1260   31.9370   49.6880 N   0  0  0  0  0  0  0  0  0  0  0  0
   39.9210   30.9070   45.8110 C   0  0  0  0  0  0  0  0  0  0  0  0
   40.1790   33.3610   45.8530 C   0  0  0  0  0  0  0  0  0  0  0  0
   38.1520   32.3710   44.9260 C   0  0  0  0  0  0  0  0  0  0  0  0
   38.6920   32.0100   43.6300 N   0  0  0  0  0  0  0  0  0  0  0  0
   38.4100   30.7950   43.1420 N   0  0  0  0  0  0  0  0  0  0  0  0
   38.9800   30.6150   41.9430 C   0  0  0  0  0  0  0  0  0  0  0  0
   39.6410   31.8040   41.7040 C   0  0  0  0  0  0  0  0  0  0  0  0
   39.4640   32.6760   42.7550 C   0  0  0  0  0  0  0  0  0  0  0  0
   38.3594   33.4848   50.4516 H   0  0  0  0  0  0  0  0  0  0  0  0
   39.6549   33.7493   48.3218 H   0  0  0  0  0  0  0  0  0  0  0  0
   36.0337   30.4190   48.7078 H   0  0  0  0  0  0  0  0  0  0  0  0
   40.1553   30.4685   46.7922 H   0  0  0  0  0  0  0  0  0  0  0  0
   39.2687   30.2220   45.2495 H   0  0  0  0  0  0  0  0  0  0  0  0
   40.8531   31.0684   45.2495 H   0  0  0  0  0  0  0  0  0  0  0  0
   40.4872   33.7182   46.8467 H   0  0  0  0  0  0  0  0  0  0  0  0
   41.0623   33.0098   45.2994 H   0  0  0  0  0  0  0  0  0  0  0  0
   39.7023   34.1833   45.2994 H   0  0  0  0  0  0  0  0  0  0  0  0
   37.3085   31.7060   45.1632 H   0  0  0  0  0  0  0  0  0  0  0  0
   37.8157   33.4177   44.8887 H   0  0  0  0  0  0  0  0  0  0  0  0
   38.9325   29.7254   41.2977 H   0  0  0  0  0  0  0  0  0  0  0  0
   40.2274   32.0238   40.7997 H   0  0  0  0  0  0  0  0  0  0  0  0
   39.8665   33.6947   42.8560 H   0  0  0  0  0  0  0  0  0  0  0  0
  1  4  1  0
  2  7  2  0
  3  2  1  0
  4  5  1  0
  4  3  2  0
  5  6  2  0
  6  7  1  0
  8  1  1  0
  9  1  1  0
 10  1  1  0
 11 10  1  0
 12 11  1  0
 13 12  2  0
 14 13  1  0
 14 15  2  0
 15 11  1  0
  2 16  1  0
  3 17  1  0
  6 18  1  0
  8 19  1  0
  8 20  1  0
  8 21  1  0
  9 22  1  0
  9 23  1  0
  9 24  1  0
 10 25  1  0
 10 26  1  0
 13 27  1  0
 14 28  1  0
 15 29  1  0
M  ISO  8  16  14  17  14  18  14  19   8  20   8  21   8  22   8  23   8
M  ISO  6  24   8  25   8  26   8  27  14  28  14  29  14
M  END
>  <minimizedAffinity>  (1) 
-4.52181959

>  <minimizedRMSD>  (1) 
0.795978963

$$$$
