
     RDKit          3D

 30 33  0  0  0  0  0  0  0  0999 V2000
   36.8340   29.7970   51.5640 C   0  0  0  0  0  0  0  0  0  0  0  0
   37.6380   30.5920   50.7380 C   0  0  0  0  0  0  0  0  0  0  0  0
   37.3300   30.6670   49.3860 C   0  0  0  0  0  0  0  0  0  0  0  0
   36.2600   29.9710   48.8940 N   0  0  0  0  0  0  0  0  0  0  0  0
   35.5130   29.2160   49.7340 C   0  0  0  0  0  0  0  0  0  0  0  0
   35.7800   29.1170   51.0540 N   0  0  0  0  0  0  0  0  0  0  0  0
   38.1170   31.4710   48.4560 C   0  0  0  0  0  0  0  0  0  0  0  0
   38.8010   32.6330   48.5950 N   0  0  0  0  0  0  0  0  0  0  0  0
   39.3470   32.9560   47.4640 O   0  0  0  0  0  0  0  0  0  0  0  0
   39.0440   32.0430   46.5810 C   0  0  0  0  0  0  0  0  0  0  0  0
   38.2620   31.0710   47.1520 N   0  0  0  0  0  0  0  0  0  0  0  0
   39.4280   31.9910   45.2110 N   0  0  0  0  0  0  0  0  0  0  0  0
   39.0040   32.8660   44.3120 N   0  0  0  0  0  0  0  0  0  0  0  0
   39.5130   32.5860   43.1070 C   0  0  0  0  0  0  0  0  0  0  0  0
   40.3050   31.4600   43.2830 C   0  0  0  0  0  0  0  0  0  0  0  0
   40.2380   31.0990   44.6200 C   0  0  0  0  0  0  0  0  0  0  0  0
   34.3760   28.4780   49.1980 C   0  0  0  0  0  0  0  0  0  0  0  0
   34.5130   27.5220   48.2290 C   0  0  0  0  0  0  0  0  0  0  0  0
   33.4520   26.8020   47.6970 C   0  0  0  0  0  0  0  0  0  0  0  0
   32.2270   27.0660   48.1670 N   0  0  0  0  0  0  0  0  0  0  0  0
   32.0830   27.9990   49.1130 C   0  0  0  0  0  0  0  0  0  0  0  0
   33.1160   28.7020   49.6330 N   0  0  0  0  0  0  0  0  0  0  0  0
   37.0609   29.7242   52.6379 H   0  0  0  0  0  0  0  0  0  0  0  0
   38.4946   31.1449   51.1509 H   0  0  0  0  0  0  0  0  0  0  0  0
   39.3396   33.1351   42.1698 H   0  0  0  0  0  0  0  0  0  0  0  0
   40.8829   30.9456   42.5011 H   0  0  0  0  0  0  0  0  0  0  0  0
   40.7472   30.2506   45.1005 H   0  0  0  0  0  0  0  0  0  0  0  0
   35.5236   27.3114   47.8490 H   0  0  0  0  0  0  0  0  0  0  0  0
   33.6122   26.0424   46.9177 H   0  0  0  0  0  0  0  0  0  0  0  0
   31.0704   28.2067   49.4892 H   0  0  0  0  0  0  0  0  0  0  0  0
  2  1  2  0
  3  2  1  0
  4  3  2  0
  4  5  1  0
  5  6  2  0
  6  1  1  0
  7  8  2  0
  7  3  1  0
  9  8  1  0
 10 11  2  0
 10  9  1  0
 11  7  1  0
 12 10  1  0
 13 12  1  0
 14 15  1  0
 14 13  2  0
 15 16  2  0
 16 12  1  0
 17 22  1  0
 17  5  1  0
 18 17  2  0
 19 20  2  0
 19 18  1  0
 20 21  1  0
 21 22  2  0
  1 23  1  0
  2 24  1  0
 14 25  1  0
 15 26  1  0
 16 27  1  0
 18 28  1  0
 19 29  1  0
 21 30  1  0
M  ISO  8  23  14  24  14  25  14  26  14  27  14  28  14  29  14  30  14
M  END
>  <minimizedAffinity>  (1) 
-6.24080658

>  <minimizedRMSD>  (1) 
0.722156823

$$$$
