
     RDKit          3D

 28 30  0  0  0  0  0  0  0  0999 V2000
   38.2700   31.6630   48.5480 C   0  0  0  0  0  0  0  0  0  0  0  0
   38.9050   32.8660   48.6110 N   0  0  0  0  0  0  0  0  0  0  0  0
   39.4170   33.1460   47.4450 O   0  0  0  0  0  0  0  0  0  0  0  0
   39.1290   32.1570   46.6310 C   0  0  0  0  0  0  0  0  0  0  0  0
   38.4120   31.2020   47.2780 N   0  0  0  0  0  0  0  0  0  0  0  0
   39.4880   32.0330   45.2500 N   0  0  0  0  0  0  0  0  0  0  0  0
   38.9780   32.8440   44.3050 N   0  0  0  0  0  0  0  0  0  0  0  0
   39.5000   32.4850   43.1190 C   0  0  0  0  0  0  0  0  0  0  0  0
   40.3580   31.4180   43.3490 C   0  0  0  0  0  0  0  0  0  0  0  0
   40.3370   31.1430   44.7150 C   0  0  0  0  0  0  0  0  0  0  0  0
   37.2770   29.8940   51.7070 C   0  0  0  0  0  0  0  0  0  0  0  0
   38.0660   30.6360   50.8180 C   0  0  0  0  0  0  0  0  0  0  0  0
   37.5390   30.8950   49.5610 C   0  0  0  0  0  0  0  0  0  0  0  0
   36.2880   30.4340   49.2190 N   0  0  0  0  0  0  0  0  0  0  0  0
   35.5790   29.7220   50.1320 C   0  0  0  0  0  0  0  0  0  0  0  0
   36.0660   29.4520   51.3670 N   0  0  0  0  0  0  0  0  0  0  0  0
   34.2190   29.2040   49.8010 C   0  0  0  0  0  0  0  0  0  0  0  0
   34.3600   27.9610   48.9260 C   0  0  0  0  0  0  0  0  0  0  0  0
   39.2865   32.9509   42.1457 H   0  0  0  0  0  0  0  0  0  0  0  0
   40.9485   30.8852   42.5892 H   0  0  0  0  0  0  0  0  0  0  0  0
   40.8993   30.3595   45.2441 H   0  0  0  0  0  0  0  0  0  0  0  0
   37.6667   29.6705   52.7111 H   0  0  0  0  0  0  0  0  0  0  0  0
   39.0639   30.9988   51.1054 H   0  0  0  0  0  0  0  0  0  0  0  0
   33.6876   28.9439   50.7284 H   0  0  0  0  0  0  0  0  0  0  0  0
   33.6486   29.9750   49.2623 H   0  0  0  0  0  0  0  0  0  0  0  0
   34.4609   27.0718   49.5657 H   0  0  0  0  0  0  0  0  0  0  0  0
   33.4679   27.8565   48.2909 H   0  0  0  0  0  0  0  0  0  0  0  0
   35.2528   28.0590   48.2909 H   0  0  0  0  0  0  0  0  0  0  0  0
  1  2  2  0
  1 13  1  0
  3  2  1  0
  4  5  2  0
  4  3  1  0
  5  1  1  0
  6  4  1  0
  7  6  1  0
  8  9  1  0
  8  7  2  0
  9 10  2  0
 10  6  1  0
 12 11  2  0
 13 12  1  0
 14 13  2  0
 14 15  1  0
 15 16  2  0
 16 11  1  0
 17 15  1  0
 18 17  1  0
  8 19  1  0
  9 20  1  0
 10 21  1  0
 11 22  1  0
 12 23  1  0
 17 24  1  0
 17 25  1  0
 18 26  1  0
 18 27  1  0
 18 28  1  0
M  ISO  8  19  14  20  14  21  14  22  14  23  14  24   8  25   8  26   8
M  ISO  2  27   8  28   8
M  END
>  <minimizedAffinity>  (1) 
-6.18147087

>  <minimizedRMSD>  (1) 
0.751791596

$$$$
