
     RDKit          3D

 25 27  0  0  0  0  0  0  0  0999 V2000
   38.3800   31.5540   48.1940 C   0  0  0  0  0  0  0  0  0  0  0  0
   39.0170   32.7480   48.2220 N   0  0  0  0  0  0  0  0  0  0  0  0
   39.4980   33.0300   47.0480 O   0  0  0  0  0  0  0  0  0  0  0  0
   39.1850   32.0360   46.2490 C   0  0  0  0  0  0  0  0  0  0  0  0
   38.4810   31.0860   46.9290 N   0  0  0  0  0  0  0  0  0  0  0  0
   39.5010   31.9000   44.8610 N   0  0  0  0  0  0  0  0  0  0  0  0
   38.9730   32.6840   43.9290 N   0  0  0  0  0  0  0  0  0  0  0  0
   39.4350   32.3460   42.7140 C   0  0  0  0  0  0  0  0  0  0  0  0
   40.3100   31.2700   42.9410 C   0  0  0  0  0  0  0  0  0  0  0  0
   40.3280   31.0170   44.2960 C   0  0  0  0  0  0  0  0  0  0  0  0
   37.2990   30.1090   51.4950 C   0  0  0  0  0  0  0  0  0  0  0  0
   38.0310   30.8810   50.5760 C   0  0  0  0  0  0  0  0  0  0  0  0
   37.6770   30.7910   49.2230 C   0  0  0  0  0  0  0  0  0  0  0  0
   36.6600   29.9770   48.8540 N   0  0  0  0  0  0  0  0  0  0  0  0
   35.9810   29.2520   49.7670 C   0  0  0  0  0  0  0  0  0  0  0  0
   36.2990   29.3150   51.0950 N   0  0  0  0  0  0  0  0  0  0  0  0
   34.8730   28.3770   49.2910 C   0  0  0  0  0  0  0  0  0  0  0  0
   39.1829   32.8110   41.7495 H   0  0  0  0  0  0  0  0  0  0  0  0
   40.8797   30.7259   42.1733 H   0  0  0  0  0  0  0  0  0  0  0  0
   40.9103   30.2391   44.8115 H   0  0  0  0  0  0  0  0  0  0  0  0
   37.5533   30.1587   52.5640 H   0  0  0  0  0  0  0  0  0  0  0  0
   38.8528   31.5328   50.9073 H   0  0  0  0  0  0  0  0  0  0  0  0
   34.3403   27.9563   50.1566 H   0  0  0  0  0  0  0  0  0  0  0  0
   34.1737   28.9692   48.6825 H   0  0  0  0  0  0  0  0  0  0  0  0
   35.2870   27.5595   48.6825 H   0  0  0  0  0  0  0  0  0  0  0  0
  1  2  2  0
  1 13  1  0
  3  2  1  0
  4  5  2  0
  4  3  1  0
  5  1  1  0
  6  4  1  0
  7  6  1  0
  8  9  1  0
  8  7  2  0
  9 10  2  0
 10  6  1  0
 12 11  2  0
 13 12  1  0
 14 13  2  0
 14 15  1  0
 15 16  2  0
 16 11  1  0
 17 15  1  0
  8 18  1  0
  9 19  1  0
 10 20  1  0
 11 21  1  0
 12 22  1  0
 17 23  1  0
 17 24  1  0
 17 25  1  0
M  ISO  8  18  14  19  14  20  14  21  14  22  14  23   8  24   8  25   8
M  END
>  <minimizedAffinity>  (1) 
-6.08611107

>  <minimizedRMSD>  (1) 
0.143570825

$$$$
