
     RDKit          3D

 28 31  0  0  0  0  0  0  0  0999 V2000
   37.3270   30.1140   51.3970 C   0  0  0  0  0  0  0  0  0  0  0  0
   38.0720   30.8470   50.4760 C   0  0  0  0  0  0  0  0  0  0  0  0
   37.6630   30.9170   49.1550 C   0  0  0  0  0  0  0  0  0  0  0  0
   36.5360   30.2620   48.7910 N   0  0  0  0  0  0  0  0  0  0  0  0
   35.8260   29.5540   49.7070 C   0  0  0  0  0  0  0  0  0  0  0  0
   36.2210   29.4840   50.9930 N   0  0  0  0  0  0  0  0  0  0  0  0
   38.3940   31.6680   48.1400 C   0  0  0  0  0  0  0  0  0  0  0  0
   39.0870   32.8400   48.1880 N   0  0  0  0  0  0  0  0  0  0  0  0
   39.5740   33.1130   47.0110 O   0  0  0  0  0  0  0  0  0  0  0  0
   39.2250   32.1660   46.2060 C   0  0  0  0  0  0  0  0  0  0  0  0
   38.4770   31.2220   46.8620 N   0  0  0  0  0  0  0  0  0  0  0  0
   39.5230   32.0210   44.8060 N   0  0  0  0  0  0  0  0  0  0  0  0
   39.0160   32.8650   43.8920 N   0  0  0  0  0  0  0  0  0  0  0  0
   39.4480   32.5080   42.6700 C   0  0  0  0  0  0  0  0  0  0  0  0
   40.2580   31.3900   42.8640 C   0  0  0  0  0  0  0  0  0  0  0  0
   40.2920   31.0990   44.2220 C   0  0  0  0  0  0  0  0  0  0  0  0
   34.6190   28.8920   49.1640 C   0  0  0  0  0  0  0  0  0  0  0  0
   33.3340   28.6310   49.7870 C   0  0  0  0  0  0  0  0  0  0  0  0
   32.4210   27.7740   48.4170 S   0  0  0  0  0  0  0  0  0  0  0  0
   33.9030   27.9210   47.2820 C   0  0  0  0  0  0  0  0  0  0  0  0
   34.7650   28.4850   47.9140 N   0  0  0  0  0  0  0  0  0  0  0  0
   37.6469   30.0547   52.4478 H   0  0  0  0  0  0  0  0  0  0  0  0
   38.9846   31.3699   50.7980 H   0  0  0  0  0  0  0  0  0  0  0  0
   39.2111   32.9974   41.7138 H   0  0  0  0  0  0  0  0  0  0  0  0
   40.7823   30.8319   42.0743 H   0  0  0  0  0  0  0  0  0  0  0  0
   40.8382   30.2803   44.7133 H   0  0  0  0  0  0  0  0  0  0  0  0
   32.9917   28.8764   50.8031 H   0  0  0  0  0  0  0  0  0  0  0  0
   33.9749   27.5641   46.2440 H   0  0  0  0  0  0  0  0  0  0  0  0
  2  1  2  0
  3  2  1  0
  4  3  2  0
  4  5  1  0
  5  6  2  0
  6  1  1  0
  7  8  2  0
  7  3  1  0
  9  8  1  0
 10 11  2  0
 10  9  1  0
 11  7  1  0
 12 10  1  0
 13 12  1  0
 14 15  1  0
 14 13  2  0
 15 16  2  0
 16 12  1  0
 17  5  1  0
 17 18  2  0
 19 18  1  0
 20 21  2  0
 20 19  1  0
 21 17  1  0
  1 22  1  0
  2 23  1  0
 14 24  1  0
 15 25  1  0
 16 26  1  0
 18 27  1  0
 20 28  1  0
M  ISO  7  22  14  23  14  24  14  25  14  26  14  27  14  28  14
M  END
>  <minimizedAffinity>  (1) 
-6.02381516

>  <minimizedRMSD>  (1) 
0.690631092

$$$$
