
     RDKit          3D

 29 30  0  0  0  0  0  0  0  0999 V2000
   39.1500   32.2400   46.0400 C   0  0  0  0  0  0  0  0  0  0  0  0
   37.7540   32.5610   49.5650 C   0  0  0  0  0  0  0  0  0  0  0  0
   38.5770   32.8180   48.4530 C   0  0  0  0  0  0  0  0  0  0  0  0
   38.3610   32.0730   47.2790 C   0  0  0  0  0  0  0  0  0  0  0  0
   37.3570   31.1380   47.2950 N   0  0  0  0  0  0  0  0  0  0  0  0
   36.5970   30.9310   48.3850 C   0  0  0  0  0  0  0  0  0  0  0  0
   36.7860   31.6320   49.5210 N   0  0  0  0  0  0  0  0  0  0  0  0
   39.9060   30.9330   45.8320 C   0  0  0  0  0  0  0  0  0  0  0  0
   40.1310   33.3660   46.0880 C   0  0  0  0  0  0  0  0  0  0  0  0
   38.1850   32.4470   44.9120 C   0  0  0  0  0  0  0  0  0  0  0  0
   38.6640   31.9930   43.5990 C   0  0  0  0  0  0  0  0  0  0  0  0
   39.5220   32.5850   42.6960 C   0  0  0  0  0  0  0  0  0  0  0  0
   39.6000   31.6920   41.6400 C   0  0  0  0  0  0  0  0  0  0  0  0
   38.8300   30.6130   41.8900 N   0  0  0  0  0  0  0  0  0  0  0  0
   38.2920   30.8240   43.0570 N   0  0  0  0  0  0  0  0  0  0  0  0
   37.9073   33.1343   50.4912 H   0  0  0  0  0  0  0  0  0  0  0  0
   39.3681   33.5809   48.5002 H   0  0  0  0  0  0  0  0  0  0  0  0
   35.8021   30.1715   48.3488 H   0  0  0  0  0  0  0  0  0  0  0  0
   40.1587   30.4961   46.8094 H   0  0  0  0  0  0  0  0  0  0  0  0
   39.2750   30.2301   45.2683 H   0  0  0  0  0  0  0  0  0  0  0  0
   40.8299   31.1295   45.2683 H   0  0  0  0  0  0  0  0  0  0  0  0
   40.3498   33.6172   47.1363 H   0  0  0  0  0  0  0  0  0  0  0  0
   41.0599   33.0649   45.5815 H   0  0  0  0  0  0  0  0  0  0  0  0
   39.7055   34.2449   45.5815 H   0  0  0  0  0  0  0  0  0  0  0  0
   37.2610   31.8985   45.1474 H   0  0  0  0  0  0  0  0  0  0  0  0
   38.0359   33.5336   44.8280 H   0  0  0  0  0  0  0  0  0  0  0  0
   40.0327   33.5544   42.7931 H   0  0  0  0  0  0  0  0  0  0  0  0
   40.2015   31.8408   40.7311 H   0  0  0  0  0  0  0  0  0  0  0  0
   38.6954   29.7917   41.2831 H   0  0  0  0  0  0  0  0  0  0  0  0
  1  9  1  0
  1  4  1  0
  3  2  2  0
  4  5  2  0
  4  3  1  0
  5  6  1  0
  6  7  2  0
  7  2  1  0
  8  1  1  0
 10  1  1  0
 11 10  1  0
 12 11  1  0
 13 14  1  0
 13 12  2  0
 14 15  1  0
 15 11  2  0
  2 16  1  0
  3 17  1  0
  6 18  1  0
  8 19  1  0
  8 20  1  0
  8 21  1  0
  9 22  1  0
  9 23  1  0
  9 24  1  0
 10 25  1  0
 10 26  1  0
 12 27  1  0
 13 28  1  0
 14 29  1  0
M  ISO  8  16  14  17  14  18  14  19   8  20   8  21   8  22   8  23   8
M  ISO  6  24   8  25   8  26   8  27  14  28  14  29   9
M  END
>  <minimizedAffinity>  (1) 
-4.5059576

>  <minimizedRMSD>  (1) 
0.766853154

$$$$
