
     RDKit          3D

 24 26  0  0  0  0  0  0  0  0999 V2000
   38.3910   31.5730   48.2070 C   0  0  0  0  0  0  0  0  0  0  0  0
   39.0200   32.7620   48.2290 N   0  0  0  0  0  0  0  0  0  0  0  0
   39.5000   33.0390   47.0510 O   0  0  0  0  0  0  0  0  0  0  0  0
   39.1950   32.0470   46.2510 C   0  0  0  0  0  0  0  0  0  0  0  0
   38.4980   31.1010   46.9300 N   0  0  0  0  0  0  0  0  0  0  0  0
   39.5090   31.9030   44.8590 N   0  0  0  0  0  0  0  0  0  0  0  0
   38.9760   32.7150   43.9310 N   0  0  0  0  0  0  0  0  0  0  0  0
   39.4360   32.3600   42.7210 C   0  0  0  0  0  0  0  0  0  0  0  0
   40.2950   31.2670   42.9360 C   0  0  0  0  0  0  0  0  0  0  0  0
   40.3200   31.0020   44.2990 C   0  0  0  0  0  0  0  0  0  0  0  0
   37.2830   30.1030   51.4710 C   0  0  0  0  0  0  0  0  0  0  0  0
   38.0160   30.8910   50.5810 C   0  0  0  0  0  0  0  0  0  0  0  0
   37.6840   30.7870   49.2340 C   0  0  0  0  0  0  0  0  0  0  0  0
   36.6850   29.9450   48.8500 N   0  0  0  0  0  0  0  0  0  0  0  0
   36.0090   29.2080   49.7480 C   0  0  0  0  0  0  0  0  0  0  0  0
   36.3040   29.2820   51.0620 N   0  0  0  0  0  0  0  0  0  0  0  0
   35.0000   28.3840   49.1750 N   0  0  0  0  0  0  0  0  0  0  0  0
   39.1909   32.8288   41.7566 H   0  0  0  0  0  0  0  0  0  0  0  0
   40.8497   30.7184   42.1605 H   0  0  0  0  0  0  0  0  0  0  0  0
   40.8900   30.2130   44.8114 H   0  0  0  0  0  0  0  0  0  0  0  0
   37.5165   30.1574   52.5446 H   0  0  0  0  0  0  0  0  0  0  0  0
   38.8165   31.5610   50.9280 H   0  0  0  0  0  0  0  0  0  0  0  0
   34.4244   27.7797   49.7786 H   0  0  0  0  0  0  0  0  0  0  0  0
   34.8454   28.3920   48.1567 H   0  0  0  0  0  0  0  0  0  0  0  0
  1  2  2  0
  1 13  1  0
  3  2  1  0
  4  5  2  0
  4  3  1  0
  5  1  1  0
  6  4  1  0
  7  6  1  0
  8  9  1  0
  8  7  2  0
  9 10  2  0
 10  6  1  0
 12 11  2  0
 13 12  1  0
 14 13  2  0
 14 15  1  0
 15 16  2  0
 16 11  1  0
 17 15  1  0
  8 18  1  0
  9 19  1  0
 10 20  1  0
 11 21  1  0
 12 22  1  0
 17 23  1  0
 17 24  1  0
M  ISO  5  18  14  19  14  20  14  21  14  22  14
M  END
>  <minimizedAffinity>  (1) 
-5.86534548

>  <minimizedRMSD>  (1) 
0.128833234

$$$$
