
     RDKit          3D

 30 32  0  0  0  0  0  0  0  0999 V2000
   38.5110   32.1390   47.6890 C   0  0  0  0  0  0  0  0  0  0  0  0
   39.0550   32.5160   46.4000 N   0  0  0  0  0  0  0  0  0  0  0  0
   40.2400   33.0080   46.0410 C   0  0  0  0  0  0  0  0  0  0  0  0
   40.3460   33.2240   44.7340 N   0  0  0  0  0  0  0  0  0  0  0  0
   39.1530   32.8500   44.1940 C   0  0  0  0  0  0  0  0  0  0  0  0
   38.6340   32.8310   42.9030 C   0  0  0  0  0  0  0  0  0  0  0  0
   39.4040   33.2400   42.0010 O   0  0  0  0  0  0  0  0  0  0  0  0
   37.3820   32.3970   42.6460 N   0  0  0  0  0  0  0  0  0  0  0  0
   36.6270   31.9750   43.6750 C   0  0  0  0  0  0  0  0  0  0  0  0
   35.3010   31.5100   43.4420 N   0  0  0  0  0  0  0  0  0  0  0  0
   37.1070   31.9840   44.9420 N   0  0  0  0  0  0  0  0  0  0  0  0
   38.3590   32.4130   45.2310 C   0  0  0  0  0  0  0  0  0  0  0  0
   38.2200   30.6610   47.7450 C   0  0  0  0  0  0  0  0  0  0  0  0
   37.3450   30.2330   51.4250 C   0  0  0  0  0  0  0  0  0  0  0  0
   38.0200   30.6500   50.2730 C   0  0  0  0  0  0  0  0  0  0  0  0
   37.5780   30.2740   49.0170 C   0  0  0  0  0  0  0  0  0  0  0  0
   36.4660   29.4900   48.9560 N   0  0  0  0  0  0  0  0  0  0  0  0
   35.8240   29.0930   50.0630 C   0  0  0  0  0  0  0  0  0  0  0  0
   36.2560   29.4600   51.2980 N   0  0  0  0  0  0  0  0  0  0  0  0
   37.5780   32.6955   47.8616 H   0  0  0  0  0  0  0  0  0  0  0  0
   39.2535   32.3781   48.4646 H   0  0  0  0  0  0  0  0  0  0  0  0
   41.0503   33.2149   46.7556 H   0  0  0  0  0  0  0  0  0  0  0  0
   37.0138   32.3894   41.6841 H   0  0  0  0  0  0  0  0  0  0  0  0
   34.7226   31.1867   44.2306 H   0  0  0  0  0  0  0  0  0  0  0  0
   34.9205   31.4971   42.4849 H   0  0  0  0  0  0  0  0  0  0  0  0
   37.5489   30.3990   46.9138 H   0  0  0  0  0  0  0  0  0  0  0  0
   39.1759   30.1222   47.6679 H   0  0  0  0  0  0  0  0  0  0  0  0
   37.7020   30.5346   52.4208 H   0  0  0  0  0  0  0  0  0  0  0  0
   38.9134   31.2848   50.3668 H   0  0  0  0  0  0  0  0  0  0  0  0
   34.9305   28.4581   49.9704 H   0  0  0  0  0  0  0  0  0  0  0  0
  1 13  1  0
  2  1  1  0
  3  2  1  0
  4  3  2  0
  5  4  1  0
  5 12  2  0
  6  5  1  0
  7  6  2  0
  8  6  1  0
  8  9  1  0
  9 11  2  0
 10  9  1  0
 11 12  1  0
 12  2  1  0
 13 16  1  0
 15 14  2  0
 16 15  1  0
 17 16  2  0
 17 18  1  0
 18 19  2  0
 19 14  1  0
  1 20  1  0
  1 21  1  0
  3 22  1  0
  8 23  1  0
 10 24  1  0
 10 25  1  0
 13 26  1  0
 13 27  1  0
 14 28  1  0
 15 29  1  0
 18 30  1  0
M  ISO  8  20   8  21   8  22  14  23   9  26   8  27   8  28  14  29  14
M  ISO  1  30  14
M  END
>  <minimizedAffinity>  (1) 
-5.64257812

>  <minimizedRMSD>  (1) 
0.733423769

$$$$
