
     RDKit          3D

 26 27  0  0  0  0  0  0  0  0999 V2000
   38.0250   30.6390   47.8010 C   0  0  0  0  0  0  0  0  0  0  0  0
   37.2710   30.1540   51.4880 C   0  0  0  0  0  0  0  0  0  0  0  0
   37.9480   30.5980   50.3310 C   0  0  0  0  0  0  0  0  0  0  0  0
   37.4340   30.2540   49.0950 C   0  0  0  0  0  0  0  0  0  0  0  0
   36.2900   29.4980   49.0710 N   0  0  0  0  0  0  0  0  0  0  0  0
   35.6670   29.0890   50.1780 C   0  0  0  0  0  0  0  0  0  0  0  0
   36.1560   29.4160   51.3860 N   0  0  0  0  0  0  0  0  0  0  0  0
   38.7570   31.9720   47.9050 C   0  0  0  0  0  0  0  0  0  0  0  0
   38.9780   32.4020   46.4780 C   0  0  0  0  0  0  0  0  0  0  0  0
   37.9840   32.1210   45.5420 C   0  0  0  0  0  0  0  0  0  0  0  0
   38.0630   32.4610   44.2060 C   0  0  0  0  0  0  0  0  0  0  0  0
   39.1970   33.1120   43.7910 C   0  0  0  0  0  0  0  0  0  0  0  0
   40.1820   33.3980   44.6840 C   0  0  0  0  0  0  0  0  0  0  0  0
   40.1160   33.0660   46.0150 C   0  0  0  0  0  0  0  0  0  0  0  0
   37.2238   30.7269   47.0524 H   0  0  0  0  0  0  0  0  0  0  0  0
   38.7491   29.8658   47.5046 H   0  0  0  0  0  0  0  0  0  0  0  0
   37.6619   30.4160   52.4823 H   0  0  0  0  0  0  0  0  0  0  0  0
   38.8629   31.2034   50.4116 H   0  0  0  0  0  0  0  0  0  0  0  0
   34.7519   28.4834   50.1014 H   0  0  0  0  0  0  0  0  0  0  0  0
   38.1431   32.7104   48.4416 H   0  0  0  0  0  0  0  0  0  0  0  0
   39.7007   31.8850   48.4634 H   0  0  0  0  0  0  0  0  0  0  0  0
   37.0815   31.5964   45.8888 H   0  0  0  0  0  0  0  0  0  0  0  0
   37.2510   32.2200   43.5042 H   0  0  0  0  0  0  0  0  0  0  0  0
   39.3095   33.4026   42.7361 H   0  0  0  0  0  0  0  0  0  0  0  0
   41.0783   33.9226   44.3213 H   0  0  0  0  0  0  0  0  0  0  0  0
   40.9395   33.3170   46.6997 H   0  0  0  0  0  0  0  0  0  0  0  0
  1  8  1  0
  1  4  1  0
  3  2  2  0
  4  3  1  0
  5  4  2  0
  5  6  1  0
  6  7  2  0
  7  2  1  0
  9  8  1  0
 10  9  2  0
 11 10  1  0
 12 11  2  0
 12 13  1  0
 13 14  2  0
 14  9  1  0
  1 15  1  0
  1 16  1  0
  2 17  1  0
  3 18  1  0
  6 19  1  0
  8 20  1  0
  8 21  1  0
 10 22  1  0
 11 23  1  0
 12 24  1  0
 13 25  1  0
 14 26  1  0
M  ISO  8  15   8  16   8  17  14  18  14  19  14  20   8  21   8  22  14
M  ISO  4  23  14  24  14  25  14  26  14
M  END
>  <minimizedAffinity>  (1) 
-5.33542395

>  <minimizedRMSD>  (1) 
0.665863931

$$$$
