
     RDKit          3D

 24 24  0  0  0  0  0  0  0  0999 V2000
   39.5860   32.1170   45.7660 C   0  0  0  0  0  0  0  0  0  0  0  0
   38.4230   32.6070   49.3460 C   0  0  0  0  0  0  0  0  0  0  0  0
   39.0480   32.9090   48.1170 C   0  0  0  0  0  0  0  0  0  0  0  0
   38.9910   31.9580   47.0950 C   0  0  0  0  0  0  0  0  0  0  0  0
   38.3240   30.7830   47.3610 N   0  0  0  0  0  0  0  0  0  0  0  0
   37.7440   30.5400   48.5460 C   0  0  0  0  0  0  0  0  0  0  0  0
   37.7870   31.4350   49.5380 N   0  0  0  0  0  0  0  0  0  0  0  0
   40.7530   31.1510   45.6680 C   0  0  0  0  0  0  0  0  0  0  0  0
   40.0630   33.5010   45.4660 C   0  0  0  0  0  0  0  0  0  0  0  0
   38.5520   31.7450   44.7240 C   0  0  0  0  0  0  0  0  0  0  0  0
   37.4910   32.7020   44.8270 N   0  0  0  0  0  0  0  0  0  0  0  0
   38.4559   33.3429   50.1629 H   0  0  0  0  0  0  0  0  0  0  0  0
   39.5662   33.8677   47.9678 H   0  0  0  0  0  0  0  0  0  0  0  0
   37.2223   29.5846   48.7046 H   0  0  0  0  0  0  0  0  0  0  0  0
   41.0864   30.8750   46.6793 H   0  0  0  0  0  0  0  0  0  0  0  0
   40.4364   30.2472   45.1269 H   0  0  0  0  0  0  0  0  0  0  0  0
   41.5818   31.6309   45.1269 H   0  0  0  0  0  0  0  0  0  0  0  0
   40.2479   34.0374   46.4084 H   0  0  0  0  0  0  0  0  0  0  0  0
   40.9953   33.4495   44.8844 H   0  0  0  0  0  0  0  0  0  0  0  0
   39.2970   34.0348   44.8844 H   0  0  0  0  0  0  0  0  0  0  0  0
   38.1678   30.7326   44.9176 H   0  0  0  0  0  0  0  0  0  0  0  0
   38.9908   31.7522   43.7153 H   0  0  0  0  0  0  0  0  0  0  0  0
   37.2886   32.8846   45.8203 H   0  0  0  0  0  0  0  0  0  0  0  0
   37.7741   33.5792   44.3674 H   0  0  0  0  0  0  0  0  0  0  0  0
  1  4  1  0
  2  7  2  0
  3  2  1  0
  4  5  1  0
  4  3  2  0
  5  6  2  0
  6  7  1  0
  8  1  1  0
  9  1  1  0
 10 11  1  0
 10  1  1  0
  2 12  1  0
  3 13  1  0
  6 14  1  0
  8 15  1  0
  8 16  1  0
  8 17  1  0
  9 18  1  0
  9 19  1  0
  9 20  1  0
 10 21  1  0
 10 22  1  0
 11 23  1  0
 11 24  1  0
M  ISO  8  12  14  13  14  14  14  15   8  16   8  17   8  18   8  19   8
M  ISO  5  20   8  21   8  22   8  23   5  24   5
M  END
>  <minimizedAffinity>  (1) 
-4.1765523

>  <minimizedRMSD>  (1) 
0.854491889

$$$$
