
     RDKit          3D

 22 23  0  0  0  0  0  0  0  0999 V2000
   38.1200   30.7100   47.7120 C   0  0  0  0  0  0  0  0  0  0  0  0
   37.3510   30.2110   51.3960 C   0  0  0  0  0  0  0  0  0  0  0  0
   38.0010   30.6610   50.2280 C   0  0  0  0  0  0  0  0  0  0  0  0
   37.5100   30.2930   48.9880 C   0  0  0  0  0  0  0  0  0  0  0  0
   36.4130   29.5070   48.9600 N   0  0  0  0  0  0  0  0  0  0  0  0
   35.7980   29.0830   50.0670 C   0  0  0  0  0  0  0  0  0  0  0  0
   36.2650   29.4340   51.2940 N   0  0  0  0  0  0  0  0  0  0  0  0
   38.8080   32.0520   47.8170 C   0  0  0  0  0  0  0  0  0  0  0  0
   39.0920   32.5220   46.4650 N   0  0  0  0  0  0  0  0  0  0  0  0
   38.2510   32.3000   45.4200 C   0  0  0  0  0  0  0  0  0  0  0  0
   38.8050   32.8620   44.3210 N   0  0  0  0  0  0  0  0  0  0  0  0
   39.9540   33.4040   44.7230 C   0  0  0  0  0  0  0  0  0  0  0  0
   40.1430   33.2010   46.0470 N   0  0  0  0  0  0  0  0  0  0  0  0
   37.3317   30.7754   46.9476 H   0  0  0  0  0  0  0  0  0  0  0  0
   38.8801   29.9622   47.4419 H   0  0  0  0  0  0  0  0  0  0  0  0
   37.7344   30.4970   52.3865 H   0  0  0  0  0  0  0  0  0  0  0  0
   38.8928   31.3006   50.3025 H   0  0  0  0  0  0  0  0  0  0  0  0
   34.9061   28.4444   49.9850 H   0  0  0  0  0  0  0  0  0  0  0  0
   38.1507   32.7689   48.3307 H   0  0  0  0  0  0  0  0  0  0  0  0
   39.7410   31.9583   48.3921 H   0  0  0  0  0  0  0  0  0  0  0  0
   37.2931   31.7608   45.4607 H   0  0  0  0  0  0  0  0  0  0  0  0
   40.6537   33.9432   44.0674 H   0  0  0  0  0  0  0  0  0  0  0  0
  1  8  1  0
  1  4  1  0
  3  2  2  0
  4  3  1  0
  5  4  2  0
  5  6  1  0
  6  7  2  0
  7  2  1  0
  9  8  1  0
 10  9  1  0
 11 12  1  0
 11 10  2  0
 12 13  2  0
 13  9  1  0
  1 14  1  0
  1 15  1  0
  2 16  1  0
  3 17  1  0
  6 18  1  0
  8 19  1  0
  8 20  1  0
 10 21  1  0
 12 22  1  0
M  ISO  8  14   8  15   8  16  14  17  14  18  14  19   8  20   8  21  14
M  ISO  1  22  14
M  END
>  <minimizedAffinity>  (1) 
-4.80579185

>  <minimizedRMSD>  (1) 
0.51285094

$$$$
