
     RDKit          3D

 23 24  0  0  0  0  0  0  0  0999 V2000
   36.8000   30.9550   47.7210 C   0  0  0  0  0  0  0  0  0  0  0  0
   36.5270   29.4020   51.1670 C   0  0  0  0  0  0  0  0  0  0  0  0
   37.1300   29.9850   50.0320 C   0  0  0  0  0  0  0  0  0  0  0  0
   36.3190   30.3400   48.9700 C   0  0  0  0  0  0  0  0  0  0  0  0
   34.9920   30.1040   49.0870 N   0  0  0  0  0  0  0  0  0  0  0  0
   34.4170   29.5530   50.1590 C   0  0  0  0  0  0  0  0  0  0  0  0
   35.1860   29.2020   51.2000 N   0  0  0  0  0  0  0  0  0  0  0  0
   38.3200   30.9300   47.6200 C   0  0  0  0  0  0  0  0  0  0  0  0
   38.8740   32.2870   47.8750 C   0  0  0  0  0  0  0  0  0  0  0  0
   38.7830   33.0520   49.0200 C   0  0  0  0  0  0  0  0  0  0  0  0
   39.4380   34.2540   48.8370 C   0  0  0  0  0  0  0  0  0  0  0  0
   39.9030   34.1710   47.5780 N   0  0  0  0  0  0  0  0  0  0  0  0
   39.5880   33.0310   46.9910 N   0  0  0  0  0  0  0  0  0  0  0  0
   36.3784   30.4028   46.8681 H   0  0  0  0  0  0  0  0  0  0  0  0
   36.4766   32.0064   47.7139 H   0  0  0  0  0  0  0  0  0  0  0  0
   37.1465   29.1089   52.0274 H   0  0  0  0  0  0  0  0  0  0  0  0
   38.2165   30.1525   49.9933 H   0  0  0  0  0  0  0  0  0  0  0  0
   33.3296   29.3896   50.1876 H   0  0  0  0  0  0  0  0  0  0  0  0
   38.7222   30.2274   48.3648 H   0  0  0  0  0  0  0  0  0  0  0  0
   38.6073   30.6093   46.6078 H   0  0  0  0  0  0  0  0  0  0  0  0
   38.2653   32.7491   49.9421 H   0  0  0  0  0  0  0  0  0  0  0  0
   39.5522   35.0825   49.5515 H   0  0  0  0  0  0  0  0  0  0  0  0
   40.4466   34.9168   47.1206 H   0  0  0  0  0  0  0  0  0  0  0  0
  1  4  1  0
  2  7  2  0
  3  2  1  0
  4  5  1  0
  4  3  2  0
  5  6  2  0
  6  7  1  0
  8  1  1  0
  8  9  1  0
  9 10  1  0
 11 10  2  0
 12 11  1  0
 13 12  1  0
 13  9  2  0
  1 14  1  0
  1 15  1  0
  2 16  1  0
  3 17  1  0
  6 18  1  0
  8 19  1  0
  8 20  1  0
 10 21  1  0
 11 22  1  0
 12 23  1  0
M  ISO  8  14   8  15   8  16  14  17  14  18  14  19   8  20   8  21  14
M  ISO  2  22  14  23   9
M  END
>  <minimizedAffinity>  (1) 
-4.70427179

>  <minimizedRMSD>  (1) 
2.15882039

$$$$
