
     RDKit          3D

 23 24  0  0  0  0  0  0  0  0999 V2000
   36.9960   29.7560   51.5490 C   0  0  0  0  0  0  0  0  0  0  0  0
   37.6010   30.5210   50.5310 C   0  0  0  0  0  0  0  0  0  0  0  0
   36.8550   30.7510   49.3900 C   0  0  0  0  0  0  0  0  0  0  0  0
   35.5930   30.2340   49.3110 N   0  0  0  0  0  0  0  0  0  0  0  0
   35.0390   29.5110   50.2910 C   0  0  0  0  0  0  0  0  0  0  0  0
   35.7520   29.2800   51.4030 N   0  0  0  0  0  0  0  0  0  0  0  0
   37.3340   31.5200   48.2360 C   0  0  0  0  0  0  0  0  0  0  0  0
   38.7320   32.0270   48.3820 C   0  0  0  0  0  0  0  0  0  0  0  0
   38.6430   33.4730   48.8200 C   0  0  0  0  0  0  0  0  0  0  0  0
   39.4730   33.9880   49.9170 C   0  0  0  0  0  0  0  0  0  0  0  0
   39.8030   34.3230   48.4260 C   0  0  0  0  0  0  0  0  0  0  0  0
   37.5522   29.5473   52.4748 H   0  0  0  0  0  0  0  0  0  0  0  0
   38.6214   30.9173   50.6397 H   0  0  0  0  0  0  0  0  0  0  0  0
   34.0185   29.1138   50.1866 H   0  0  0  0  0  0  0  0  0  0  0  0
   36.6663   32.3825   48.0937 H   0  0  0  0  0  0  0  0  0  0  0  0
   37.3316   30.8361   47.3744 H   0  0  0  0  0  0  0  0  0  0  0  0
   39.2693   31.4368   49.1389 H   0  0  0  0  0  0  0  0  0  0  0  0
   39.2787   31.9410   47.4313 H   0  0  0  0  0  0  0  0  0  0  0  0
   37.5536   33.5000   48.6699 H   0  0  0  0  0  0  0  0  0  0  0  0
   39.0830   34.7690   50.5863 H   0  0  0  0  0  0  0  0  0  0  0  0
   40.0209   33.5444   50.7614 H   0  0  0  0  0  0  0  0  0  0  0  0
   40.6802   33.8757   47.9356 H   0  0  0  0  0  0  0  0  0  0  0  0
   39.9502   35.2377   47.8330 H   0  0  0  0  0  0  0  0  0  0  0  0
  2  1  2  0
  3  2  1  0
  4  3  2  0
  4  5  1  0
  5  6  2  0
  6  1  1  0
  7  8  1  0
  7  3  1  0
  8  9  1  0
  9 10  1  0
 11  9  1  0
 11 10  1  0
  1 12  1  0
  2 13  1  0
  5 14  1  0
  7 15  1  0
  7 16  1  0
  8 17  1  0
  8 18  1  0
  9 19  1  0
 10 20  1  0
 10 21  1  0
 11 22  1  0
 11 23  1  0
M  ISO  8  12  14  13  14  14  14  15   8  16   8  17   8  18   8  19  13
M  ISO  4  20  13  21  13  22  13  23  13
M  END
>  <minimizedAffinity>  (1) 
-4.22638369

>  <minimizedRMSD>  (1) 
1.17304444

$$$$
