
     RDKit          3D

 29 30  0  0  0  0  0  0  0  0999 V2000
   39.5750   32.0410   45.7700 C   0  0  0  0  0  0  0  0  0  0  0  0
   38.4240   32.6220   49.3270 C   0  0  0  0  0  0  0  0  0  0  0  0
   39.0380   32.8870   48.0820 C   0  0  0  0  0  0  0  0  0  0  0  0
   38.9850   31.8950   47.0950 C   0  0  0  0  0  0  0  0  0  0  0  0
   38.3390   30.7390   47.4160 N   0  0  0  0  0  0  0  0  0  0  0  0
   37.7650   30.5190   48.6070 C   0  0  0  0  0  0  0  0  0  0  0  0
   37.8020   31.4480   49.5640 N   0  0  0  0  0  0  0  0  0  0  0  0
   40.8080   31.1510   45.7260 C   0  0  0  0  0  0  0  0  0  0  0  0
   39.9650   33.4280   45.3860 C   0  0  0  0  0  0  0  0  0  0  0  0
   38.6000   31.4980   44.7540 C   0  0  0  0  0  0  0  0  0  0  0  0
   37.6420   32.4700   44.1940 C   0  0  0  0  0  0  0  0  0  0  0  0
   37.5510   32.6010   42.6690 C   0  0  0  0  0  0  0  0  0  0  0  0
   36.4830   31.8420   43.3930 C   0  0  0  0  0  0  0  0  0  0  0  0
   38.4536   33.3866   50.1173 H   0  0  0  0  0  0  0  0  0  0  0  0
   39.5434   33.8457   47.8935 H   0  0  0  0  0  0  0  0  0  0  0  0
   37.2577   29.5618   48.7977 H   0  0  0  0  0  0  0  0  0  0  0  0
   41.1295   30.9189   46.7521 H   0  0  0  0  0  0  0  0  0  0  0  0
   40.5674   30.2170   45.1971 H   0  0  0  0  0  0  0  0  0  0  0  0
   41.6187   31.6735   45.1971 H   0  0  0  0  0  0  0  0  0  0  0  0
   40.1332   34.0262   46.2937 H   0  0  0  0  0  0  0  0  0  0  0  0
   40.8894   33.3974   44.7905 H   0  0  0  0  0  0  0  0  0  0  0  0
   39.1601   33.8836   44.7905 H   0  0  0  0  0  0  0  0  0  0  0  0
   39.1817   31.0795   43.9194 H   0  0  0  0  0  0  0  0  0  0  0  0
   37.9907   30.7578   45.2934 H   0  0  0  0  0  0  0  0  0  0  0  0
   37.7597   33.1853   45.0214 H   0  0  0  0  0  0  0  0  0  0  0  0
   38.2669   32.0628   42.0304 H   0  0  0  0  0  0  0  0  0  0  0  0
   37.5536   33.4475   41.9666 H   0  0  0  0  0  0  0  0  0  0  0  0
   35.4698   32.2626   43.4732 H   0  0  0  0  0  0  0  0  0  0  0  0
   36.0589   30.8306   43.3083 H   0  0  0  0  0  0  0  0  0  0  0  0
  1  4  1  0
  2  7  2  0
  3  2  1  0
  4  5  1  0
  4  3  2  0
  5  6  2  0
  6  7  1  0
  8  1  1  0
  9  1  1  0
 10  1  1  0
 11 10  1  0
 12 13  1  0
 12 11  1  0
 13 11  1  0
  2 14  1  0
  3 15  1  0
  6 16  1  0
  8 17  1  0
  8 18  1  0
  8 19  1  0
  9 20  1  0
  9 21  1  0
  9 22  1  0
 10 23  1  0
 10 24  1  0
 11 25  1  0
 12 26  1  0
 12 27  1  0
 13 28  1  0
 13 29  1  0
M  ISO  8  14  14  15  14  16  14  17   8  18   8  19   8  20   8  21   8
M  ISO  8  22   8  23   8  24   8  25  13  26  13  27  13  28  13  29  13
M  END
>  <minimizedAffinity>  (1) 
-4.01267815

>  <minimizedRMSD>  (1) 
1.43070579

$$$$
