
     RDKit          3D

 23 23  0  0  0  0  0  0  0  0999 V2000
   39.7370   32.0050   45.5350 C   0  0  0  0  0  0  0  0  0  0  0  0
   38.4350   32.5790   49.0400 C   0  0  0  0  0  0  0  0  0  0  0  0
   39.1080   32.8490   47.8220 C   0  0  0  0  0  0  0  0  0  0  0  0
   39.0910   31.8630   46.8330 C   0  0  0  0  0  0  0  0  0  0  0  0
   38.4200   30.7030   47.1200 N   0  0  0  0  0  0  0  0  0  0  0  0
   37.7950   30.4810   48.2830 C   0  0  0  0  0  0  0  0  0  0  0  0
   37.7970   31.4170   49.2510 N   0  0  0  0  0  0  0  0  0  0  0  0
   41.0640   31.2710   45.6060 C   0  0  0  0  0  0  0  0  0  0  0  0
   39.9400   33.3960   45.0650 C   0  0  0  0  0  0  0  0  0  0  0  0
   38.8740   31.2890   44.5000 C   0  0  0  0  0  0  0  0  0  0  0  0
   37.5640   32.3480   43.8710 S   0  0  0  0  0  0  0  0  0  0  0  0
   38.4356   33.3415   49.8328 H   0  0  0  0  0  0  0  0  0  0  0  0
   39.6274   33.8052   47.6608 H   0  0  0  0  0  0  0  0  0  0  0  0
   37.2754   29.5258   48.4492 H   0  0  0  0  0  0  0  0  0  0  0  0
   41.3421   31.1172   46.6591 H   0  0  0  0  0  0  0  0  0  0  0  0
   40.9710   30.2961   45.1052 H   0  0  0  0  0  0  0  0  0  0  0  0
   41.8404   31.8679   45.1052 H   0  0  0  0  0  0  0  0  0  0  0  0
   40.0377   34.0655   45.9323 H   0  0  0  0  0  0  0  0  0  0  0  0
   40.8552   33.4477   44.4569 H   0  0  0  0  0  0  0  0  0  0  0  0
   39.0777   33.7071   44.4569 H   0  0  0  0  0  0  0  0  0  0  0  0
   39.5120   30.9757   43.6605 H   0  0  0  0  0  0  0  0  0  0  0  0
   38.4061   30.4212   44.9879 H   0  0  0  0  0  0  0  0  0  0  0  0
   36.8799   32.9010   44.9213 H   0  0  0  0  0  0  0  0  0  0  0  0
  1  8  1  0
  1  4  1  0
  2  7  2  0
  3  2  1  0
  4  5  1  0
  4  3  2  0
  5  6  2  0
  6  7  1  0
  9  1  1  0
 10  1  1  0
 11 10  1  0
  2 12  1  0
  3 13  1  0
  6 14  1  0
  8 15  1  0
  8 16  1  0
  8 17  1  0
  9 18  1  0
  9 19  1  0
  9 20  1  0
 10 21  1  0
 10 22  1  0
 11 23  1  0
M  ISO  8  12  14  13  14  14  14  15   8  16   8  17   8  18   8  19   8
M  ISO  4  20   8  21   8  22   8  23  11
M  END
>  <minimizedAffinity>  (1) 
-3.77389431

>  <minimizedRMSD>  (1) 
1.20210361

$$$$
