
     RDKit          3D

 34 36  0  0  0  0  0  0  0  0999 V2000
   38.8070   32.3180   46.6850 N   0  0  0  0  0  0  0  0  0  0  0  0
   39.9110   32.9440   46.2810 C   0  0  0  0  0  0  0  0  0  0  0  0
   40.5810   32.6950   45.1200 C   0  0  0  0  0  0  0  0  0  0  0  0
   40.1200   31.7340   44.2650 C   0  0  0  0  0  0  0  0  0  0  0  0
   40.6710   31.4430   43.1830 O   0  0  0  0  0  0  0  0  0  0  0  0
   39.0320   31.0930   44.6280 N   0  0  0  0  0  0  0  0  0  0  0  0
   38.3980   31.3700   45.7880 C   0  0  0  0  0  0  0  0  0  0  0  0
   37.3570   30.6930   46.0420 O   0  0  0  0  0  0  0  0  0  0  0  0
   38.5090   30.0770   43.7670 C   0  0  0  0  0  0  0  0  0  0  0  0
   38.9470   28.7550   43.7590 C   0  0  0  0  0  0  0  0  0  0  0  0
   38.3470   27.8750   42.8670 C   0  0  0  0  0  0  0  0  0  0  0  0
   37.3770   28.3130   42.0520 N   0  0  0  0  0  0  0  0  0  0  0  0
   36.9710   29.5950   42.0770 C   0  0  0  0  0  0  0  0  0  0  0  0
   37.5270   30.4820   42.9280 N   0  0  0  0  0  0  0  0  0  0  0  0
   38.0540   32.5030   47.8540 C   0  0  0  0  0  0  0  0  0  0  0  0
   38.5440   31.9610   49.1340 C   0  0  0  0  0  0  0  0  0  0  0  0
   35.4960   29.9170   50.0590 C   0  0  0  0  0  0  0  0  0  0  0  0
   36.3560   30.7730   49.3430 C   0  0  0  0  0  0  0  0  0  0  0  0
   37.6100   31.0820   49.8270 C   0  0  0  0  0  0  0  0  0  0  0  0
   37.9650   30.5220   51.0180 N   0  0  0  0  0  0  0  0  0  0  0  0
   37.1610   29.7170   51.6950 C   0  0  0  0  0  0  0  0  0  0  0  0
   35.9360   29.4070   51.2330 N   0  0  0  0  0  0  0  0  0  0  0  0
   40.3159   33.7271   46.9388 H   0  0  0  0  0  0  0  0  0  0  0  0
   41.4886   33.2652   44.8727 H   0  0  0  0  0  0  0  0  0  0  0  0
   39.7438   28.4179   44.4383 H   0  0  0  0  0  0  0  0  0  0  0  0
   38.6666   26.8231   42.8297 H   0  0  0  0  0  0  0  0  0  0  0  0
   36.1744   29.9249   41.3940 H   0  0  0  0  0  0  0  0  0  0  0  0
   37.9394   33.5884   47.9907 H   0  0  0  0  0  0  0  0  0  0  0  0
   37.1401   31.9211   47.6636 H   0  0  0  0  0  0  0  0  0  0  0  0
   39.4641   31.3922   48.9342 H   0  0  0  0  0  0  0  0  0  0  0  0
   38.7012   32.8261   49.7950 H   0  0  0  0  0  0  0  0  0  0  0  0
   34.4953   29.6701   49.6748 H   0  0  0  0  0  0  0  0  0  0  0  0
   36.0230   31.2004   48.3857 H   0  0  0  0  0  0  0  0  0  0  0  0
   37.5005   29.2942   52.6521 H   0  0  0  0  0  0  0  0  0  0  0  0
  1 15  1  0
  2  1  1  0
  3  2  2  0
  4  6  1  0
  4  3  1  0
  5  4  2  0
  6  7  1  0
  7  8  2  0
  7  1  1  0
  9  6  1  0
 10  9  2  0
 11 10  1  0
 12 13  1  0
 12 11  2  0
 13 14  2  0
 14  9  1  0
 15 16  1  0
 16 19  1  0
 17 22  2  0
 18 19  2  0
 18 17  1  0
 19 20  1  0
 20 21  2  0
 22 21  1  0
  2 23  1  0
  3 24  1  0
 10 25  1  0
 11 26  1  0
 13 27  1  0
 15 28  1  0
 15 29  1  0
 16 30  1  0
 16 31  1  0
 17 32  1  0
 18 33  1  0
 21 34  1  0
M  ISO  8  23  14  24  14  25  14  26  14  27  14  28   8  29   8  30   8
M  ISO  4  31   8  32  14  33  14  34  14
M  END
>  <minimizedAffinity>  (1) 
-5.52545977

>  <minimizedRMSD>  (1) 
2.78116965

$$$$
