
     RDKit          3D

 33 35  0  0  0  0  0  0  0  0999 V2000
   38.1740   31.8840   45.8930 N   0  0  0  0  0  0  0  0  0  0  0  0
   39.2930   32.5710   45.8350 C   0  0  0  0  0  0  0  0  0  0  0  0
   39.8100   33.1800   44.7240 C   0  0  0  0  0  0  0  0  0  0  0  0
   39.1400   33.0990   43.5410 C   0  0  0  0  0  0  0  0  0  0  0  0
   39.5480   33.6290   42.4850 O   0  0  0  0  0  0  0  0  0  0  0  0
   38.0140   32.4210   43.5540 N   0  0  0  0  0  0  0  0  0  0  0  0
   37.5380   31.8330   44.6700 C   0  0  0  0  0  0  0  0  0  0  0  0
   36.4440   31.2080   44.5600 O   0  0  0  0  0  0  0  0  0  0  0  0
   37.2720   32.3070   42.3280 C   0  0  0  0  0  0  0  0  0  0  0  0
   36.0200   32.9120   42.3950 C   0  0  0  0  0  0  0  0  0  0  0  0
   35.4140   32.7300   41.1550 C   0  0  0  0  0  0  0  0  0  0  0  0
   36.3130   32.0350   40.4100 N   0  0  0  0  0  0  0  0  0  0  0  0
   37.4110   31.7900   41.1150 N   0  0  0  0  0  0  0  0  0  0  0  0
   37.5610   31.2240   46.9710 C   0  0  0  0  0  0  0  0  0  0  0  0
   38.2400   31.2120   48.2880 C   0  0  0  0  0  0  0  0  0  0  0  0
   35.6890   29.1900   50.1980 C   0  0  0  0  0  0  0  0  0  0  0  0
   36.3510   29.7970   49.1170 C   0  0  0  0  0  0  0  0  0  0  0  0
   37.4770   30.5370   49.3500 C   0  0  0  0  0  0  0  0  0  0  0  0
   37.9070   30.6510   50.6330 N   0  0  0  0  0  0  0  0  0  0  0  0
   37.2910   30.0810   51.6640 C   0  0  0  0  0  0  0  0  0  0  0  0
   36.1860   29.3540   51.4500 N   0  0  0  0  0  0  0  0  0  0  0  0
   39.8683   32.6653   46.7678 H   0  0  0  0  0  0  0  0  0  0  0  0
   40.7600   33.7311   44.7859 H   0  0  0  0  0  0  0  0  0  0  0  0
   35.5911   33.4345   43.2628 H   0  0  0  0  0  0  0  0  0  0  0  0
   34.4173   33.0760   40.8438 H   0  0  0  0  0  0  0  0  0  0  0  0
   36.1635   31.7395   39.4347 H   0  0  0  0  0  0  0  0  0  0  0  0
   36.5780   31.6947   47.1198 H   0  0  0  0  0  0  0  0  0  0  0  0
   37.5599   30.1671   46.6660 H   0  0  0  0  0  0  0  0  0  0  0  0
   39.2051   30.6964   48.1747 H   0  0  0  0  0  0  0  0  0  0  0  0
   38.3535   32.2617   48.5965 H   0  0  0  0  0  0  0  0  0  0  0  0
   34.7816   28.5909   50.0317 H   0  0  0  0  0  0  0  0  0  0  0  0
   35.9669   29.6779   48.0931 H   0  0  0  0  0  0  0  0  0  0  0  0
   37.6849   30.2051   52.6835 H   0  0  0  0  0  0  0  0  0  0  0  0
  1 14  1  0
  2  1  1  0
  3  2  2  0
  4  6  1  0
  4  3  1  0
  5  4  2  0
  6  7  1  0
  7  1  1  0
  8  7  2  0
  9 10  1  0
  9  6  1  0
 11 10  2  0
 12 13  1  0
 12 11  1  0
 13  9  2  0
 14 15  1  0
 15 18  1  0
 16 21  2  0
 17 18  2  0
 17 16  1  0
 18 19  1  0
 19 20  2  0
 21 20  1  0
  2 22  1  0
  3 23  1  0
 10 24  1  0
 11 25  1  0
 12 26  1  0
 14 27  1  0
 14 28  1  0
 15 29  1  0
 15 30  1  0
 16 31  1  0
 17 32  1  0
 20 33  1  0
M  ISO  8  22  14  23  14  24  14  25  14  26   9  27   8  28   8  29   8
M  ISO  4  30   8  31  14  32  14  33  14
M  END
>  <minimizedAffinity>  (1) 
-5.38679028

>  <minimizedRMSD>  (1) 
1.21194935

$$$$
