
     RDKit          3D

 31 33  0  0  0  0  0  0  0  0999 V2000
   38.2770   31.8680   45.7990 N   0  0  0  0  0  0  0  0  0  0  0  0
   39.4160   32.5540   45.7270 C   0  0  0  0  0  0  0  0  0  0  0  0
   39.8830   33.1990   44.6110 C   0  0  0  0  0  0  0  0  0  0  0  0
   39.1570   33.1620   43.4600 C   0  0  0  0  0  0  0  0  0  0  0  0
   39.5100   33.7240   42.3970 O   0  0  0  0  0  0  0  0  0  0  0  0
   38.0220   32.4900   43.4950 N   0  0  0  0  0  0  0  0  0  0  0  0
   37.5930   31.8700   44.6050 C   0  0  0  0  0  0  0  0  0  0  0  0
   36.4910   31.2520   44.5400 O   0  0  0  0  0  0  0  0  0  0  0  0
   37.2250   32.4270   42.3060 C   0  0  0  0  0  0  0  0  0  0  0  0
   36.9190   33.4490   41.4860 N   0  0  0  0  0  0  0  0  0  0  0  0
   36.1780   33.0060   40.5100 O   0  0  0  0  0  0  0  0  0  0  0  0
   35.9680   31.7200   40.6380 C   0  0  0  0  0  0  0  0  0  0  0  0
   36.6270   31.3470   41.7720 N   0  0  0  0  0  0  0  0  0  0  0  0
   37.7230   31.1820   46.8900 C   0  0  0  0  0  0  0  0  0  0  0  0
   38.3510   31.2560   48.2130 C   0  0  0  0  0  0  0  0  0  0  0  0
   35.8360   29.1680   50.1060 C   0  0  0  0  0  0  0  0  0  0  0  0
   36.5240   29.7930   49.0400 C   0  0  0  0  0  0  0  0  0  0  0  0
   37.6120   30.5900   49.2910 C   0  0  0  0  0  0  0  0  0  0  0  0
   37.9860   30.7420   50.5940 N   0  0  0  0  0  0  0  0  0  0  0  0
   37.3470   30.1590   51.5960 C   0  0  0  0  0  0  0  0  0  0  0  0
   36.2820   29.3770   51.3730 N   0  0  0  0  0  0  0  0  0  0  0  0
   40.0322   32.6075   46.6367 H   0  0  0  0  0  0  0  0  0  0  0  0
   40.8384   33.7430   44.6454 H   0  0  0  0  0  0  0  0  0  0  0  0
   35.3810   31.0738   39.9688 H   0  0  0  0  0  0  0  0  0  0  0  0
   36.6951   31.5554   47.0079 H   0  0  0  0  0  0  0  0  0  0  0  0
   37.8567   30.1262   46.6117 H   0  0  0  0  0  0  0  0  0  0  0  0
   39.3458   30.7916   48.1444 H   0  0  0  0  0  0  0  0  0  0  0  0
   38.3829   32.3232   48.4775 H   0  0  0  0  0  0  0  0  0  0  0  0
   34.9616   28.5286   49.9146 H   0  0  0  0  0  0  0  0  0  0  0  0
   36.1851   29.6393   48.0048 H   0  0  0  0  0  0  0  0  0  0  0  0
   37.6955   30.3189   52.6270 H   0  0  0  0  0  0  0  0  0  0  0  0
  1 14  1  0
  2  1  1  0
  3  2  2  0
  4  6  1  0
  4  3  1  0
  5  4  2  0
  6  7  1  0
  7  1  1  0
  8  7  2  0
  9  6  1  0
 10  9  2  0
 11 12  1  0
 11 10  1  0
 12 13  2  0
 13  9  1  0
 14 15  1  0
 15 18  1  0
 16 21  2  0
 17 18  2  0
 17 16  1  0
 18 19  1  0
 19 20  2  0
 21 20  1  0
  2 22  1  0
  3 23  1  0
 12 24  1  0
 14 25  1  0
 14 26  1  0
 15 27  1  0
 15 28  1  0
 16 29  1  0
 17 30  1  0
 20 31  1  0
M  ISO  8  22  14  23  14  24  14  25   8  26   8  27   8  28   8  29  14
M  ISO  2  30  14  31  14
M  END
>  <minimizedAffinity>  (1) 
-5.37136936

>  <minimizedRMSD>  (1) 
1.26764786

$$$$
