
     RDKit          3D

 35 37  0  0  0  0  0  0  0  0999 V2000
   38.1180   31.8910   45.8240 N   0  0  0  0  0  0  0  0  0  0  0  0
   39.2330   32.5960   45.7890 C   0  0  0  0  0  0  0  0  0  0  0  0
   39.7690   33.2000   44.6870 C   0  0  0  0  0  0  0  0  0  0  0  0
   39.1220   33.0900   43.4850 C   0  0  0  0  0  0  0  0  0  0  0  0
   39.5430   33.6140   42.4230 O   0  0  0  0  0  0  0  0  0  0  0  0
   38.0020   32.3950   43.4760 N   0  0  0  0  0  0  0  0  0  0  0  0
   37.5120   31.8180   44.5850 C   0  0  0  0  0  0  0  0  0  0  0  0
   36.4290   31.1730   44.4620 O   0  0  0  0  0  0  0  0  0  0  0  0
   37.3000   32.2600   42.2380 C   0  0  0  0  0  0  0  0  0  0  0  0
   36.3960   33.2540   41.9800 C   0  0  0  0  0  0  0  0  0  0  0  0
   35.6790   33.1780   40.7860 C   0  0  0  0  0  0  0  0  0  0  0  0
   35.8430   32.1640   39.8770 C   0  0  0  0  0  0  0  0  0  0  0  0
   36.7780   31.1940   40.2110 C   0  0  0  0  0  0  0  0  0  0  0  0
   37.4840   31.2420   41.3550 N   0  0  0  0  0  0  0  0  0  0  0  0
   37.4890   31.2380   46.8970 C   0  0  0  0  0  0  0  0  0  0  0  0
   38.2780   30.9090   48.0960 C   0  0  0  0  0  0  0  0  0  0  0  0
   35.6560   29.1410   50.1580 C   0  0  0  0  0  0  0  0  0  0  0  0
   36.3440   29.6300   49.0150 C   0  0  0  0  0  0  0  0  0  0  0  0
   37.4880   30.3560   49.2100 C   0  0  0  0  0  0  0  0  0  0  0  0
   37.9190   30.5790   50.4810 N   0  0  0  0  0  0  0  0  0  0  0  0
   37.2660   30.1170   51.5480 C   0  0  0  0  0  0  0  0  0  0  0  0
   36.1440   29.4030   51.4070 N   0  0  0  0  0  0  0  0  0  0  0  0
   39.7822   32.7078   46.7355 H   0  0  0  0  0  0  0  0  0  0  0  0
   40.7082   33.7674   44.7642 H   0  0  0  0  0  0  0  0  0  0  0  0
   36.2405   34.0818   42.6875 H   0  0  0  0  0  0  0  0  0  0  0  0
   34.9475   33.9686   40.5628 H   0  0  0  0  0  0  0  0  0  0  0  0
   35.2683   32.1220   38.9400 H   0  0  0  0  0  0  0  0  0  0  0  0
   36.9474   30.3578   39.5167 H   0  0  0  0  0  0  0  0  0  0  0  0
   36.6594   31.8820   47.2242 H   0  0  0  0  0  0  0  0  0  0  0  0
   37.2165   30.2557   46.4838 H   0  0  0  0  0  0  0  0  0  0  0  0
   39.0406   30.1682   47.8137 H   0  0  0  0  0  0  0  0  0  0  0  0
   38.7114   31.8536   48.4563 H   0  0  0  0  0  0  0  0  0  0  0  0
   34.7338   28.5536   50.0377 H   0  0  0  0  0  0  0  0  0  0  0  0
   35.9675   29.4306   48.0009 H   0  0  0  0  0  0  0  0  0  0  0  0
   37.6547   30.3256   52.5557 H   0  0  0  0  0  0  0  0  0  0  0  0
  1 15  1  0
  2  1  1  0
  3  2  2  0
  4  3  1  0
  5  4  2  0
  6  4  1  0
  6  7  1  0
  7  1  1  0
  8  7  2  0
  9  6  1  0
 10  9  2  0
 11 10  1  0
 12 13  1  0
 12 11  2  0
 13 14  2  0
 14  9  1  0
 15 16  1  0
 16 19  1  0
 17 22  2  0
 18 19  2  0
 18 17  1  0
 19 20  1  0
 20 21  2  0
 22 21  1  0
  2 23  1  0
  3 24  1  0
 10 25  1  0
 11 26  1  0
 12 27  1  0
 13 28  1  0
 15 29  1  0
 15 30  1  0
 16 31  1  0
 16 32  1  0
 17 33  1  0
 18 34  1  0
 21 35  1  0
M  ISO  8  23  14  24  14  25  14  26  14  27  14  28  14  29   8  30   8
M  ISO  5  31   8  32   8  33  14  34  14  35  14
M  END
>  <minimizedAffinity>  (1) 
-5.19276667

>  <minimizedRMSD>  (1) 
1.35016453

$$$$
