
     RDKit          3D

 32 33  0  0  0  0  0  0  0  0999 V2000
   37.5590   31.2260   46.9810 C   0  0  0  0  0  0  0  0  0  0  0  0
   38.1590   31.8670   45.8850 N   0  0  0  0  0  0  0  0  0  0  0  0
   39.2590   32.5990   45.8280 C   0  0  0  0  0  0  0  0  0  0  0  0
   39.7710   33.1900   44.7020 C   0  0  0  0  0  0  0  0  0  0  0  0
   39.1210   33.0360   43.5100 C   0  0  0  0  0  0  0  0  0  0  0  0
   39.5140   33.5370   42.4380 O   0  0  0  0  0  0  0  0  0  0  0  0
   38.0180   32.3120   43.5300 N   0  0  0  0  0  0  0  0  0  0  0  0
   37.5490   31.7500   44.6530 C   0  0  0  0  0  0  0  0  0  0  0  0
   36.4840   31.0770   44.5560 O   0  0  0  0  0  0  0  0  0  0  0  0
   37.2920   32.1240   42.2740 C   0  0  0  0  0  0  0  0  0  0  0  0
   36.2700   33.1880   42.0490 C   0  0  0  0  0  0  0  0  0  0  0  0
   38.2350   31.2080   48.2860 C   0  0  0  0  0  0  0  0  0  0  0  0
   35.6700   29.1960   50.2140 C   0  0  0  0  0  0  0  0  0  0  0  0
   36.3420   29.8090   49.1210 C   0  0  0  0  0  0  0  0  0  0  0  0
   37.4830   30.5440   49.3620 C   0  0  0  0  0  0  0  0  0  0  0  0
   37.9020   30.6400   50.6480 N   0  0  0  0  0  0  0  0  0  0  0  0
   37.2810   30.0720   51.6710 C   0  0  0  0  0  0  0  0  0  0  0  0
   36.1720   29.3540   51.4570 N   0  0  0  0  0  0  0  0  0  0  0  0
   37.4054   30.1766   46.6892 H   0  0  0  0  0  0  0  0  0  0  0  0
   36.6637   31.8366   47.1701 H   0  0  0  0  0  0  0  0  0  0  0  0
   39.8121   32.7467   46.7673 H   0  0  0  0  0  0  0  0  0  0  0  0
   40.6961   33.7825   44.7575 H   0  0  0  0  0  0  0  0  0  0  0  0
   38.0119   32.1427   41.4425 H   0  0  0  0  0  0  0  0  0  0  0  0
   36.7679   31.1584   42.3281 H   0  0  0  0  0  0  0  0  0  0  0  0
   35.9106   33.5622   43.0190 H   0  0  0  0  0  0  0  0  0  0  0  0
   36.7208   34.0152   41.4811 H   0  0  0  0  0  0  0  0  0  0  0  0
   35.4253   32.7709   41.4811 H   0  0  0  0  0  0  0  0  0  0  0  0
   39.1952   30.6849   48.1666 H   0  0  0  0  0  0  0  0  0  0  0  0
   38.3478   32.2590   48.5905 H   0  0  0  0  0  0  0  0  0  0  0  0
   34.7577   28.6038   50.0496 H   0  0  0  0  0  0  0  0  0  0  0  0
   35.9565   29.6982   48.0968 H   0  0  0  0  0  0  0  0  0  0  0  0
   37.6749   30.1899   52.6913 H   0  0  0  0  0  0  0  0  0  0  0  0
  1 12  1  0
  2  1  1  0
  3  2  1  0
  4  3  2  0
  5  7  1  0
  5  4  1  0
  6  5  2  0
  7  8  1  0
  8  2  1  0
  9  8  2  0
 10  7  1  0
 11 10  1  0
 12 15  1  0
 13 18  2  0
 14 15  2  0
 14 13  1  0
 15 16  1  0
 16 17  2  0
 18 17  1  0
  1 19  1  0
  1 20  1  0
  3 21  1  0
  4 22  1  0
 10 23  1  0
 10 24  1  0
 11 25  1  0
 11 26  1  0
 11 27  1  0
 12 28  1  0
 12 29  1  0
 13 30  1  0
 14 31  1  0
 17 32  1  0
M  ISO  8  19   8  20   8  21  14  22  14  23   8  24   8  25   8  26   8
M  ISO  6  27   8  28   8  29   8  30  14  31  14  32  14
M  END
>  <minimizedAffinity>  (1) 
-4.90689135

>  <minimizedRMSD>  (1) 
1.08364403

$$$$
