
     RDKit          3D

 30 31  0  0  0  0  0  0  0  0999 V2000
   38.9930   31.8710   47.7960 C   0  0  0  0  0  0  0  0  0  0  0  0
   39.1320   32.3440   46.4760 N   0  0  0  0  0  0  0  0  0  0  0  0
   40.0650   33.1380   45.9770 C   0  0  0  0  0  0  0  0  0  0  0  0
   40.1310   33.5550   44.6730 C   0  0  0  0  0  0  0  0  0  0  0  0
   39.1740   33.1380   43.7840 C   0  0  0  0  0  0  0  0  0  0  0  0
   39.1690   33.4770   42.5770 O   0  0  0  0  0  0  0  0  0  0  0  0
   38.2350   32.3460   44.2590 N   0  0  0  0  0  0  0  0  0  0  0  0
   38.1940   31.9540   45.5360 C   0  0  0  0  0  0  0  0  0  0  0  0
   37.2580   31.1970   45.8940 O   0  0  0  0  0  0  0  0  0  0  0  0
   37.1990   31.8810   43.3370 C   0  0  0  0  0  0  0  0  0  0  0  0
   36.7200   30.6520   43.7550 F   0  0  0  0  0  0  0  0  0  0  0  0
   37.8100   31.7200   42.1010 F   0  0  0  0  0  0  0  0  0  0  0  0
   36.2330   32.8310   43.2790 F   0  0  0  0  0  0  0  0  0  0  0  0
   37.9200   32.3900   48.6640 C   0  0  0  0  0  0  0  0  0  0  0  0
   35.4500   29.9580   50.1930 C   0  0  0  0  0  0  0  0  0  0  0  0
   36.0200   30.9200   49.3400 C   0  0  0  0  0  0  0  0  0  0  0  0
   37.2930   31.3910   49.5290 C   0  0  0  0  0  0  0  0  0  0  0  0
   37.9920   30.8840   50.5880 N   0  0  0  0  0  0  0  0  0  0  0  0
   37.4610   29.9810   51.3910 C   0  0  0  0  0  0  0  0  0  0  0  0
   36.2270   29.5060   51.2310 N   0  0  0  0  0  0  0  0  0  0  0  0
   38.1010   29.4180   52.4840 O   0  0  0  0  0  0  0  0  0  0  0  0
   39.9434   32.0810   48.3086 H   0  0  0  0  0  0  0  0  0  0  0  0
   38.7112   30.8171   47.6546 H   0  0  0  0  0  0  0  0  0  0  0  0
   40.8495   33.4913   46.6624 H   0  0  0  0  0  0  0  0  0  0  0  0
   40.9442   34.2181   44.3427 H   0  0  0  0  0  0  0  0  0  0  0  0
   38.3475   33.1763   49.3035 H   0  0  0  0  0  0  0  0  0  0  0  0
   37.1299   32.7579   47.9929 H   0  0  0  0  0  0  0  0  0  0  0  0
   34.4274   29.5844   50.0357 H   0  0  0  0  0  0  0  0  0  0  0  0
   35.4272   31.3053   48.4973 H   0  0  0  0  0  0  0  0  0  0  0  0
   37.6331   28.7447   53.0389 H   0  0  0  0  0  0  0  0  0  0  0  0
  1 14  1  0
  2  1  1  0
  3  2  1  0
  4  3  2  0
  5  7  1  0
  5  4  1  0
  6  5  2  0
  7  8  1  0
  8  9  2  0
  8  2  1  0
 10 11  1  0
 10  7  1  0
 12 10  1  0
 13 10  1  0
 14 17  1  0
 15 20  2  0
 16 17  2  0
 16 15  1  0
 17 18  1  0
 18 19  2  0
 19 21  1  0
 20 19  1  0
  1 22  1  0
  1 23  1  0
  3 24  1  0
  4 25  1  0
 14 26  1  0
 14 27  1  0
 15 28  1  0
 16 29  1  0
 21 30  1  0
M  ISO  8  22   8  23   8  24  14  25  14  26   8  27   8  28  14  29  14
M  ISO  1  30   3
M  END
>  <minimizedAffinity>  (1) 
-5.90129519

>  <minimizedRMSD>  (1) 
1.03540671

$$$$
