
     RDKit          3D

 41 42  0  0  0  0  0  0  0  0999 V2000
   37.1020   30.6220   43.8520 C   0  0  0  0  0  0  0  0  0  0  0  0
   38.1510   30.7510   42.9230 N   0  0  0  0  0  0  0  0  0  0  0  0
   38.4640   31.7760   42.1570 C   0  0  0  0  0  0  0  0  0  0  0  0
   39.5080   31.8230   41.2740 C   0  0  0  0  0  0  0  0  0  0  0  0
   40.3200   30.7300   41.1460 C   0  0  0  0  0  0  0  0  0  0  0  0
   41.2930   30.6950   40.3630 O   0  0  0  0  0  0  0  0  0  0  0  0
   40.0280   29.6830   41.9060 N   0  0  0  0  0  0  0  0  0  0  0  0
   39.0000   29.6750   42.7570 C   0  0  0  0  0  0  0  0  0  0  0  0
   38.8060   28.6260   43.4370 O   0  0  0  0  0  0  0  0  0  0  0  0
   40.8770   28.5000   41.7930 C   0  0  0  0  0  0  0  0  0  0  0  0
   40.3880   27.4900   42.5750 F   0  0  0  0  0  0  0  0  0  0  0  0
   42.1320   28.8580   42.2540 F   0  0  0  0  0  0  0  0  0  0  0  0
   40.9410   28.1590   40.4620 F   0  0  0  0  0  0  0  0  0  0  0  0
   37.2550   31.1420   45.2190 C   0  0  0  0  0  0  0  0  0  0  0  0
   34.3750   29.3240   46.8490 C   0  0  0  0  0  0  0  0  0  0  0  0
   35.2080   29.8980   45.8670 C   0  0  0  0  0  0  0  0  0  0  0  0
   36.3700   30.5380   46.2180 C   0  0  0  0  0  0  0  0  0  0  0  0
   36.6860   30.5950   47.5470 N   0  0  0  0  0  0  0  0  0  0  0  0
   35.8920   30.0510   48.4620 C   0  0  0  0  0  0  0  0  0  0  0  0
   34.7560   29.4220   48.1640 N   0  0  0  0  0  0  0  0  0  0  0  0
   36.3660   30.1910   49.8800 C   0  0  0  0  0  0  0  0  0  0  0  0
   37.7900   29.6900   49.9860 C   0  0  0  0  0  0  0  0  0  0  0  0
   35.4510   29.4390   50.8150 C   0  0  0  0  0  0  0  0  0  0  0  0
   36.4090   31.6670   50.2670 C   0  0  0  0  0  0  0  0  0  0  0  0
   36.8918   29.5462   43.9444 H   0  0  0  0  0  0  0  0  0  0  0  0
   36.3128   31.2605   43.4284 H   0  0  0  0  0  0  0  0  0  0  0  0
   37.8308   32.6722   42.2340 H   0  0  0  0  0  0  0  0  0  0  0  0
   39.6917   32.7273   40.6753 H   0  0  0  0  0  0  0  0  0  0  0  0
   38.2941   30.9680   45.5351 H   0  0  0  0  0  0  0  0  0  0  0  0
   36.9825   32.2067   45.1732 H   0  0  0  0  0  0  0  0  0  0  0  0
   33.4434   28.8107   46.5685 H   0  0  0  0  0  0  0  0  0  0  0  0
   34.9230   29.8320   44.8066 H   0  0  0  0  0  0  0  0  0  0  0  0
   38.0665   29.5927   51.0462 H   0  0  0  0  0  0  0  0  0  0  0  0
   37.8712   28.7093   49.4944 H   0  0  0  0  0  0  0  0  0  0  0  0
   38.4674   30.4038   49.4944 H   0  0  0  0  0  0  0  0  0  0  0  0
   35.7251   29.6643   51.8562 H   0  0  0  0  0  0  0  0  0  0  0  0
   34.4102   29.7461   50.6352 H   0  0  0  0  0  0  0  0  0  0  0  0
   35.5507   28.3584   50.6352 H   0  0  0  0  0  0  0  0  0  0  0  0
   36.4117   31.7587   51.3632 H   0  0  0  0  0  0  0  0  0  0  0  0
   37.3209   32.1268   49.8584 H   0  0  0  0  0  0  0  0  0  0  0  0
   35.5254   32.1791   49.8584 H   0  0  0  0  0  0  0  0  0  0  0  0
  1 14  1  0
  2  1  1  0
  3  2  1  0
  4  3  2  0
  5  4  1  0
  5  7  1  0
  6  5  2  0
  7  8  1  0
  8  2  1  0
  8  9  2  0
 10  7  1  0
 10 12  1  0
 10 11  1  0
 13 10  1  0
 14 17  1  0
 15 20  2  0
 16 17  2  0
 16 15  1  0
 17 18  1  0
 18 19  2  0
 19 21  1  0
 20 19  1  0
 21 22  1  0
 21 24  1  0
 21 23  1  0
  1 25  1  0
  1 26  1  0
  3 27  1  0
  4 28  1  0
 14 29  1  0
 14 30  1  0
 15 31  1  0
 16 32  1  0
 22 33  1  0
 22 34  1  0
 22 35  1  0
 23 36  1  0
 23 37  1  0
 23 38  1  0
 24 39  1  0
 24 40  1  0
 24 41  1  0
M  ISO  8  25   8  26   8  27  14  28  14  29   8  30   8  31  14  32  14
M  ISO  8  33   8  34   8  35   8  36   8  37   8  38   8  39   8  40   8
M  ISO  1  41   8
M  END
>  <minimizedAffinity>  (1) 
-5.29535151

>  <minimizedRMSD>  (1) 
4.03320551

$$$$
