
     RDKit          3D

 31 32  0  0  0  0  0  0  0  0999 V2000
   37.2990   31.1330   46.5530 C   0  0  0  0  0  0  0  0  0  0  0  0
   37.9340   31.8180   45.5100 N   0  0  0  0  0  0  0  0  0  0  0  0
   39.0790   32.4920   45.5110 C   0  0  0  0  0  0  0  0  0  0  0  0
   39.6220   33.1350   44.4280 C   0  0  0  0  0  0  0  0  0  0  0  0
   38.9720   33.1090   43.2310 C   0  0  0  0  0  0  0  0  0  0  0  0
   39.4080   33.6690   42.2100 O   0  0  0  0  0  0  0  0  0  0  0  0
   37.8310   32.4440   43.2000 N   0  0  0  0  0  0  0  0  0  0  0  0
   37.3160   31.8230   44.2680 C   0  0  0  0  0  0  0  0  0  0  0  0
   36.2200   31.2170   44.1310 O   0  0  0  0  0  0  0  0  0  0  0  0
   37.1070   32.3960   41.9310 C   0  0  0  0  0  0  0  0  0  0  0  0
   36.1500   31.4040   41.9650 F   0  0  0  0  0  0  0  0  0  0  0  0
   38.0400   32.0910   40.9510 F   0  0  0  0  0  0  0  0  0  0  0  0
   36.5520   33.6180   41.7090 F   0  0  0  0  0  0  0  0  0  0  0  0
   38.1000   30.5850   47.6770 C   0  0  0  0  0  0  0  0  0  0  0  0
   35.2720   29.4660   49.8990 C   0  0  0  0  0  0  0  0  0  0  0  0
   35.9820   29.8670   48.7380 C   0  0  0  0  0  0  0  0  0  0  0  0
   37.3290   30.1700   48.8360 C   0  0  0  0  0  0  0  0  0  0  0  0
   37.9170   30.0640   50.0790 N   0  0  0  0  0  0  0  0  0  0  0  0
   37.2280   29.6890   51.1400 C   0  0  0  0  0  0  0  0  0  0  0  0
   35.9340   29.3860   51.1030 N   0  0  0  0  0  0  0  0  0  0  0  0
   37.9160   29.6070   52.3830 N   0  0  0  0  0  0  0  0  0  0  0  0
   36.7675   30.2841   46.0982 H   0  0  0  0  0  0  0  0  0  0  0  0
   36.6892   31.9124   47.0333 H   0  0  0  0  0  0  0  0  0  0  0  0
   39.6371   32.5381   46.4578 H   0  0  0  0  0  0  0  0  0  0  0  0
   40.5784   33.6695   44.5255 H   0  0  0  0  0  0  0  0  0  0  0  0
   38.6552   29.7109   47.3059 H   0  0  0  0  0  0  0  0  0  0  0  0
   38.7508   31.4036   48.0181 H   0  0  0  0  0  0  0  0  0  0  0  0
   34.2014   29.2211   49.8374 H   0  0  0  0  0  0  0  0  0  0  0  0
   35.4666   29.9365   47.7687 H   0  0  0  0  0  0  0  0  0  0  0  0
   37.4112   29.3178   53.2330 H   0  0  0  0  0  0  0  0  0  0  0  0
   38.9188   29.8368   52.4327 H   0  0  0  0  0  0  0  0  0  0  0  0
  1 14  1  0
  2  3  1  0
  2  1  1  0
  4  3  2  0
  5  4  1  0
  6  5  2  0
  7  5  1  0
  7  8  1  0
  8  2  1  0
  9  8  2  0
 10 11  1  0
 10  7  1  0
 12 10  1  0
 13 10  1  0
 14 17  1  0
 15 20  2  0
 16 17  2  0
 16 15  1  0
 17 18  1  0
 18 19  2  0
 19 21  1  0
 20 19  1  0
  1 22  1  0
  1 23  1  0
  3 24  1  0
  4 25  1  0
 14 26  1  0
 14 27  1  0
 15 28  1  0
 16 29  1  0
 21 30  1  0
 21 31  1  0
M  ISO  8  22   8  23   8  24  14  25  14  26   8  27   8  28  14  29  14
M  END
>  <minimizedAffinity>  (1) 
-5.23407221

>  <minimizedRMSD>  (1) 
0.578206539

$$$$
