
     RDKit          3D

 35 36  0  0  0  0  0  0  0  0999 V2000
   37.1710   31.0290   45.0210 C   0  0  0  0  0  0  0  0  0  0  0  0
   37.7130   31.8090   43.9840 N   0  0  0  0  0  0  0  0  0  0  0  0
   38.9780   32.1050   43.7220 C   0  0  0  0  0  0  0  0  0  0  0  0
   39.4150   32.8810   42.6770 C   0  0  0  0  0  0  0  0  0  0  0  0
   38.4950   33.4140   41.8100 C   0  0  0  0  0  0  0  0  0  0  0  0
   38.8090   34.1260   40.8400 O   0  0  0  0  0  0  0  0  0  0  0  0
   37.2360   33.1320   42.0520 N   0  0  0  0  0  0  0  0  0  0  0  0
   36.8350   32.3750   43.0740 C   0  0  0  0  0  0  0  0  0  0  0  0
   35.5970   32.1630   43.2210 O   0  0  0  0  0  0  0  0  0  0  0  0
   36.2310   33.6840   41.1450 C   0  0  0  0  0  0  0  0  0  0  0  0
   35.4700   32.6780   40.6000 F   0  0  0  0  0  0  0  0  0  0  0  0
   36.9060   34.3310   40.1300 F   0  0  0  0  0  0  0  0  0  0  0  0
   35.4570   34.5700   41.8590 F   0  0  0  0  0  0  0  0  0  0  0  0
   37.5450   31.3070   46.4200 C   0  0  0  0  0  0  0  0  0  0  0  0
   34.8030   29.4710   48.2520 C   0  0  0  0  0  0  0  0  0  0  0  0
   35.4830   30.2110   47.2520 C   0  0  0  0  0  0  0  0  0  0  0  0
   36.8030   30.5500   47.4140 C   0  0  0  0  0  0  0  0  0  0  0  0
   37.4210   30.1410   48.5790 N   0  0  0  0  0  0  0  0  0  0  0  0
   36.7710   29.4540   49.4960 C   0  0  0  0  0  0  0  0  0  0  0  0
   35.4920   29.1040   49.3790 N   0  0  0  0  0  0  0  0  0  0  0  0
   37.4560   29.0200   50.7500 C   0  0  0  0  0  0  0  0  0  0  0  0
   37.3310   30.0960   51.8090 C   0  0  0  0  0  0  0  0  0  0  0  0
   37.4549   29.9861   44.8167 H   0  0  0  0  0  0  0  0  0  0  0  0
   36.0990   31.2738   44.9904 H   0  0  0  0  0  0  0  0  0  0  0  0
   39.7420   31.6945   44.3986 H   0  0  0  0  0  0  0  0  0  0  0  0
   40.4890   33.0729   42.5367 H   0  0  0  0  0  0  0  0  0  0  0  0
   38.6133   31.0742   46.5408 H   0  0  0  0  0  0  0  0  0  0  0  0
   37.3071   32.3661   46.5982 H   0  0  0  0  0  0  0  0  0  0  0  0
   33.7451   29.1971   48.1263 H   0  0  0  0  0  0  0  0  0  0  0  0
   34.9489   30.5156   46.3399 H   0  0  0  0  0  0  0  0  0  0  0  0
   36.9913   28.0928   51.1165 H   0  0  0  0  0  0  0  0  0  0  0  0
   38.5210   28.8454   50.5372 H   0  0  0  0  0  0  0  0  0  0  0  0
   37.3844   29.6363   52.8069 H   0  0  0  0  0  0  0  0  0  0  0  0
   38.1511   30.8202   51.6945 H   0  0  0  0  0  0  0  0  0  0  0  0
   36.3668   30.6129   51.6945 H   0  0  0  0  0  0  0  0  0  0  0  0
  1 14  1  0
  2  1  1  0
  3  2  1  0
  4  3  2  0
  5  7  1  0
  5  4  1  0
  6  5  2  0
  7  8  1  0
  8  9  2  0
  8  2  1  0
 10 13  1  0
 10  7  1  0
 11 10  1  0
 12 10  1  0
 14 17  1  0
 15 20  2  0
 16 17  2  0
 16 15  1  0
 17 18  1  0
 18 19  2  0
 19 21  1  0
 20 19  1  0
 21 22  1  0
  1 23  1  0
  1 24  1  0
  3 25  1  0
  4 26  1  0
 14 27  1  0
 14 28  1  0
 15 29  1  0
 16 30  1  0
 21 31  1  0
 21 32  1  0
 22 33  1  0
 22 34  1  0
 22 35  1  0
M  ISO  8  23   8  24   8  25  14  26  14  27   8  28   8  29  14  30  14
M  ISO  5  31   8  32   8  33   8  34   8  35   8
M  END
>  <minimizedAffinity>  (1) 
-4.91879416

>  <minimizedRMSD>  (1) 
2.07216978

$$$$
