
     RDKit          3D

 45 47  0  0  0  0  0  0  0  0999 V2000
   31.5770   28.2890   46.7160 C   0  0  0  0  0  0  0  0  0  0  0  0
   32.3140   28.7250   45.5750 C   0  0  0  0  0  0  0  0  0  0  0  0
   33.6600   28.9160   45.6490 C   0  0  0  0  0  0  0  0  0  0  0  0
   34.2540   28.6690   46.8620 N   0  0  0  0  0  0  0  0  0  0  0  0
   33.5730   28.2690   47.9080 C   0  0  0  0  0  0  0  0  0  0  0  0
   32.2520   28.0700   47.8770 N   0  0  0  0  0  0  0  0  0  0  0  0
   34.4220   29.3570   44.5060 C   0  0  0  0  0  0  0  0  0  0  0  0
   33.6610   30.0020   43.4270 C   0  0  0  0  0  0  0  0  0  0  0  0
   33.8120   31.3720   43.1730 N   0  0  0  0  0  0  0  0  0  0  0  0
   34.8880   32.0170   42.7570 C   0  0  0  0  0  0  0  0  0  0  0  0
   34.9790   33.3770   42.5150 C   0  0  0  0  0  0  0  0  0  0  0  0
   33.8680   34.1500   42.7170 C   0  0  0  0  0  0  0  0  0  0  0  0
   33.8550   35.3790   42.5260 O   0  0  0  0  0  0  0  0  0  0  0  0
   32.7880   33.5310   43.1310 N   0  0  0  0  0  0  0  0  0  0  0  0
   32.7270   32.2200   43.3560 C   0  0  0  0  0  0  0  0  0  0  0  0
   31.6410   31.7100   43.7550 O   0  0  0  0  0  0  0  0  0  0  0  0
   31.5870   34.3300   43.3560 C   0  0  0  0  0  0  0  0  0  0  0  0
   30.4550   33.5580   43.2330 F   0  0  0  0  0  0  0  0  0  0  0  0
   31.5710   35.3170   42.3940 F   0  0  0  0  0  0  0  0  0  0  0  0
   31.6730   34.8740   44.6080 F   0  0  0  0  0  0  0  0  0  0  0  0
   34.2700   28.0140   49.2110 C   0  0  0  0  0  0  0  0  0  0  0  0
   34.3180   29.2870   50.0130 C   0  0  0  0  0  0  0  0  0  0  0  0
   35.6160   29.9660   50.0310 C   0  0  0  0  0  0  0  0  0  0  0  0
   36.4530   29.6170   51.0960 C   0  0  0  0  0  0  0  0  0  0  0  0
   37.7040   30.1490   51.2770 C   0  0  0  0  0  0  0  0  0  0  0  0
   38.1410   31.0760   50.3500 C   0  0  0  0  0  0  0  0  0  0  0  0
   37.3300   31.4330   49.2930 C   0  0  0  0  0  0  0  0  0  0  0  0
   36.0710   30.8950   49.1160 C   0  0  0  0  0  0  0  0  0  0  0  0
   30.4895   28.1336   46.6586 H   0  0  0  0  0  0  0  0  0  0  0  0
   31.7895   28.9087   44.6257 H   0  0  0  0  0  0  0  0  0  0  0  0
   35.1745   30.0761   44.8618 H   0  0  0  0  0  0  0  0  0  0  0  0
   34.8426   28.4424   44.0627 H   0  0  0  0  0  0  0  0  0  0  0  0
   33.9259   29.4776   42.4970 H   0  0  0  0  0  0  0  0  0  0  0  0
   32.6211   29.9277   43.7779 H   0  0  0  0  0  0  0  0  0  0  0  0
   35.7948   31.4179   42.5874 H   0  0  0  0  0  0  0  0  0  0  0  0
   35.9218   33.8255   42.1686 H   0  0  0  0  0  0  0  0  0  0  0  0
   33.7217   27.2455   49.7757 H   0  0  0  0  0  0  0  0  0  0  0  0
   35.2948   27.6651   49.0160 H   0  0  0  0  0  0  0  0  0  0  0  0
   33.5765   29.9821   49.5923 H   0  0  0  0  0  0  0  0  0  0  0  0
   34.1104   28.9991   51.0542 H   0  0  0  0  0  0  0  0  0  0  0  0
   36.0893   28.8783   51.8254 H   0  0  0  0  0  0  0  0  0  0  0  0
   38.3349   29.8495   52.1269 H   0  0  0  0  0  0  0  0  0  0  0  0
   39.1374   31.5300   50.4553 H   0  0  0  0  0  0  0  0  0  0  0  0
   37.6990   32.1717   48.5662 H   0  0  0  0  0  0  0  0  0  0  0  0
   35.4441   31.1995   48.2650 H   0  0  0  0  0  0  0  0  0  0  0  0
  1  6  2  0
  2  3  2  0
  2  1  1  0
  3  4  1  0
  4  5  2  0
  5 21  1  0
  6  5  1  0
  7  3  1  0
  8  7  1  0
  9 15  1  0
  9  8  1  0
 10  9  1  0
 11 12  1  0
 11 10  2  0
 12 14  1  0
 13 12  2  0
 14 15  1  0
 14 17  1  0
 15 16  2  0
 17 20  1  0
 18 17  1  0
 19 17  1  0
 21 22  1  0
 22 23  1  0
 23 24  2  0
 24 25  1  0
 26 25  2  0
 27 26  1  0
 28 27  2  0
 28 23  1  0
  1 29  1  0
  2 30  1  0
  7 31  1  0
  7 32  1  0
  8 33  1  0
  8 34  1  0
 10 35  1  0
 11 36  1  0
 21 37  1  0
 21 38  1  0
 22 39  1  0
 22 40  1  0
 24 41  1  0
 25 42  1  0
 26 43  1  0
 27 44  1  0
 28 45  1  0
M  ISO  8  29  14  30  14  31   8  32   8  33   8  34   8  35  14  36  14
M  ISO  8  37   8  38   8  39   8  40   8  41  14  42  14  43  14  44  14
M  ISO  1  45  14
M  END
>  <minimizedAffinity>  (1) 
-5.97810936

>  <minimizedRMSD>  (1) 
4.15762854

$$$$
