
     RDKit          3D

 46 48  0  0  0  0  0  0  0  0999 V2000
   32.7170   28.0630   48.8070 C   0  0  0  0  0  0  0  0  0  0  0  0
   32.7360   28.1680   47.3840 C   0  0  0  0  0  0  0  0  0  0  0  0
   33.8660   28.5270   46.7140 C   0  0  0  0  0  0  0  0  0  0  0  0
   34.9800   28.7800   47.4710 N   0  0  0  0  0  0  0  0  0  0  0  0
   34.9570   28.6810   48.7900 C   0  0  0  0  0  0  0  0  0  0  0  0
   33.8780   28.3350   49.4810 N   0  0  0  0  0  0  0  0  0  0  0  0
   33.8780   28.6300   45.2760 C   0  0  0  0  0  0  0  0  0  0  0  0
   32.7560   29.3670   44.6700 C   0  0  0  0  0  0  0  0  0  0  0  0
   32.9700   30.6240   44.0880 N   0  0  0  0  0  0  0  0  0  0  0  0
   33.9820   31.0150   43.3290 C   0  0  0  0  0  0  0  0  0  0  0  0
   34.1390   32.2710   42.7730 C   0  0  0  0  0  0  0  0  0  0  0  0
   33.1770   33.2180   43.0090 C   0  0  0  0  0  0  0  0  0  0  0  0
   33.2360   34.3710   42.5500 O   0  0  0  0  0  0  0  0  0  0  0  0
   32.1680   32.8470   43.7600 N   0  0  0  0  0  0  0  0  0  0  0  0
   32.0490   31.6330   44.2780 C   0  0  0  0  0  0  0  0  0  0  0  0
   31.0300   31.3700   44.9950 O   0  0  0  0  0  0  0  0  0  0  0  0
   31.1280   33.8400   44.0270 C   0  0  0  0  0  0  0  0  0  0  0  0
   30.1790   33.3250   44.8920 F   0  0  0  0  0  0  0  0  0  0  0  0
   30.5150   34.1230   42.8290 F   0  0  0  0  0  0  0  0  0  0  0  0
   31.7270   34.9420   44.5650 F   0  0  0  0  0  0  0  0  0  0  0  0
   36.2020   28.9720   49.5780 C   0  0  0  0  0  0  0  0  0  0  0  0
   36.2430   30.4370   49.9340 C   0  0  0  0  0  0  0  0  0  0  0  0
   37.1500   31.2290   49.1710 N   0  0  0  0  0  0  0  0  0  0  0  0
   37.8060   30.6340   48.1580 C   0  0  0  0  0  0  0  0  0  0  0  0
   38.7020   31.3550   47.3810 C   0  0  0  0  0  0  0  0  0  0  0  0
   38.9330   32.7100   47.6430 C   0  0  0  0  0  0  0  0  0  0  0  0
   39.8710   33.3420   46.7810 N   0  0  0  0  0  0  0  0  0  0  0  0
   38.2460   33.2500   48.6690 N   0  0  0  0  0  0  0  0  0  0  0  0
   37.3950   32.5370   49.3970 C   0  0  0  0  0  0  0  0  0  0  0  0
   36.7780   33.0900   50.3470 O   0  0  0  0  0  0  0  0  0  0  0  0
   31.8017   27.7736   49.3441 H   0  0  0  0  0  0  0  0  0  0  0  0
   31.8184   27.9544   46.8162 H   0  0  0  0  0  0  0  0  0  0  0  0
   34.8098   29.1359   44.9830 H   0  0  0  0  0  0  0  0  0  0  0  0
   33.7887   27.5983   44.9050 H   0  0  0  0  0  0  0  0  0  0  0  0
   32.3409   28.7203   43.8829 H   0  0  0  0  0  0  0  0  0  0  0  0
   32.1124   29.5964   45.5320 H   0  0  0  0  0  0  0  0  0  0  0  0
   34.7683   30.2741   43.1223 H   0  0  0  0  0  0  0  0  0  0  0  0
   35.0177   32.5053   42.1541 H   0  0  0  0  0  0  0  0  0  0  0  0
   36.2012   28.3710   50.4993 H   0  0  0  0  0  0  0  0  0  0  0  0
   37.0853   28.7175   48.9738 H   0  0  0  0  0  0  0  0  0  0  0  0
   35.2326   30.8484   49.7930 H   0  0  0  0  0  0  0  0  0  0  0  0
   36.6005   30.4853   50.9732 H   0  0  0  0  0  0  0  0  0  0  0  0
   37.6310   29.5692   47.9443 H   0  0  0  0  0  0  0  0  0  0  0  0
   39.2331   30.8589   46.5553 H   0  0  0  0  0  0  0  0  0  0  0  0
   40.0966   34.3390   46.9078 H   0  0  0  0  0  0  0  0  0  0  0  0
   40.3248   32.8028   46.0298 H   0  0  0  0  0  0  0  0  0  0  0  0
  1  6  2  0
  2  1  1  0
  3  2  2  0
  3  4  1  0
  4  5  2  0
  5  6  1  0
  5 21  1  0
  7  3  1  0
  8  7  1  0
  9 15  1  0
  9  8  1  0
 10  9  1  0
 11 12  1  0
 11 10  2  0
 12 14  1  0
 13 12  2  0
 14 17  1  0
 14 15  1  0
 15 16  2  0
 17 20  1  0
 17 18  1  0
 19 17  1  0
 21 22  1  0
 23 29  1  0
 23 22  1  0
 24 23  1  0
 25 26  1  0
 25 24  2  0
 26 28  2  0
 27 26  1  0
 28 29  1  0
 29 30  2  0
  1 31  1  0
  2 32  1  0
  7 33  1  0
  7 34  1  0
  8 35  1  0
  8 36  1  0
 10 37  1  0
 11 38  1  0
 21 39  1  0
 21 40  1  0
 22 41  1  0
 22 42  1  0
 24 43  1  0
 25 44  1  0
 27 45  1  0
 27 46  1  0
M  ISO  8  31  14  32  14  33   8  34   8  35   8  36   8  37  14  38  14
M  ISO  6  39   8  40   8  41   8  42   8  43  14  44  14
M  END
>  <minimizedAffinity>  (1) 
-5.61140966

>  <minimizedRMSD>  (1) 
4.26931572

$$$$
