
     RDKit          3D

 42 44  0  0  0  0  0  0  0  0999 V2000
   37.2770   31.0680   45.2340 C   0  0  0  0  0  0  0  0  0  0  0  0
   40.0020   33.5460   44.4670 C   0  0  0  0  0  0  0  0  0  0  0  0
   39.1460   32.6490   45.1680 C   0  0  0  0  0  0  0  0  0  0  0  0
   38.1480   31.9780   44.5310 C   0  0  0  0  0  0  0  0  0  0  0  0
   38.0120   32.2130   43.1820 N   0  0  0  0  0  0  0  0  0  0  0  0
   38.8070   33.0450   42.5380 C   0  0  0  0  0  0  0  0  0  0  0  0
   39.7890   33.7140   43.1260 N   0  0  0  0  0  0  0  0  0  0  0  0
   38.6200   33.2710   41.0650 C   0  0  0  0  0  0  0  0  0  0  0  0
   37.1280   33.2900   40.7460 C   0  0  0  0  0  0  0  0  0  0  0  0
   36.8220   34.1410   39.5930 C   0  0  0  0  0  0  0  0  0  0  0  0
   35.5530   34.6440   39.3970 C   0  0  0  0  0  0  0  0  0  0  0  0
   35.5870   35.3880   38.2530 N   0  0  0  0  0  0  0  0  0  0  0  0
   36.8380   35.3440   37.7620 C   0  0  0  0  0  0  0  0  0  0  0  0
   37.5880   34.5880   38.5740 N   0  0  0  0  0  0  0  0  0  0  0  0
   37.6450   30.7520   46.6240 C   0  0  0  0  0  0  0  0  0  0  0  0
   36.6490   30.4300   47.5600 N   0  0  0  0  0  0  0  0  0  0  0  0
   35.3460   30.3160   47.3650 C   0  0  0  0  0  0  0  0  0  0  0  0
   34.4070   29.9880   48.3290 C   0  0  0  0  0  0  0  0  0  0  0  0
   34.8340   29.7560   49.6060 C   0  0  0  0  0  0  0  0  0  0  0  0
   34.0620   29.4570   50.5370 O   0  0  0  0  0  0  0  0  0  0  0  0
   36.1270   29.8650   49.8210 N   0  0  0  0  0  0  0  0  0  0  0  0
   37.0000   30.1800   48.8760 C   0  0  0  0  0  0  0  0  0  0  0  0
   38.2350   30.2620   49.1750 O   0  0  0  0  0  0  0  0  0  0  0  0
   36.6050   29.6210   51.1770 C   0  0  0  0  0  0  0  0  0  0  0  0
   37.5680   28.6290   51.1770 F   0  0  0  0  0  0  0  0  0  0  0  0
   35.5330   29.1970   51.9260 F   0  0  0  0  0  0  0  0  0  0  0  0
   37.1180   30.7910   51.6630 F   0  0  0  0  0  0  0  0  0  0  0  0
   37.2549   30.1235   44.6707 H   0  0  0  0  0  0  0  0  0  0  0  0
   36.3071   31.5828   45.2983 H   0  0  0  0  0  0  0  0  0  0  0  0
   40.8075   34.0857   44.9865 H   0  0  0  0  0  0  0  0  0  0  0  0
   39.2947   32.4954   46.2470 H   0  0  0  0  0  0  0  0  0  0  0  0
   39.0694   34.2339   40.7805 H   0  0  0  0  0  0  0  0  0  0  0  0
   39.1081   32.4618   40.5020 H   0  0  0  0  0  0  0  0  0  0  0  0
   36.7990   32.2635   40.5266 H   0  0  0  0  0  0  0  0  0  0  0  0
   36.5999   33.7000   41.6195 H   0  0  0  0  0  0  0  0  0  0  0  0
   34.6775   34.4770   40.0417 H   0  0  0  0  0  0  0  0  0  0  0  0
   37.1868   35.8449   36.8469 H   0  0  0  0  0  0  0  0  0  0  0  0
   38.5883   34.3806   38.4427 H   0  0  0  0  0  0  0  0  0  0  0  0
   38.3312   29.8933   46.5830 H   0  0  0  0  0  0  0  0  0  0  0  0
   38.0466   31.7042   47.0010 H   0  0  0  0  0  0  0  0  0  0  0  0
   34.9745   30.4980   46.3457 H   0  0  0  0  0  0  0  0  0  0  0  0
   33.3399   29.9158   48.0719 H   0  0  0  0  0  0  0  0  0  0  0  0
  1 15  1  0
  2  3  2  0
  4  3  1  0
  4  1  1  0
  5  4  2  0
  6  7  2  0
  6  5  1  0
  7  2  1  0
  8  6  1  0
  9  8  1  0
 10  9  1  0
 11 10  2  0
 12 11  1  0
 13 12  2  0
 13 14  1  0
 14 10  1  0
 15 16  1  0
 16 22  1  0
 17 16  1  0
 17 18  2  0
 18 19  1  0
 19 21  1  0
 19 20  2  0
 21 24  1  0
 22 23  2  0
 22 21  1  0
 24 25  1  0
 24 27  1  0
 24 26  1  0
  1 28  1  0
  1 29  1  0
  2 30  1  0
  3 31  1  0
  8 32  1  0
  8 33  1  0
  9 34  1  0
  9 35  1  0
 11 36  1  0
 13 37  1  0
 14 38  1  0
 15 39  1  0
 15 40  1  0
 17 41  1  0
 18 42  1  0
M  ISO  8  28   8  29   8  30  14  31  14  32   8  33   8  34   8  35   8
M  ISO  7  36  14  37  14  38   9  39   8  40   8  41  14  42  14
M  END
>  <minimizedAffinity>  (1) 
-5.51868057

>  <minimizedRMSD>  (1) 
10.3701363

$$$$
