
     RDKit          3D

 45 47  0  0  0  0  0  0  0  0999 V2000
   38.9970   29.0230   43.6810 C   0  0  0  0  0  0  0  0  0  0  0  0
   38.6370   29.7840   42.5280 C   0  0  0  0  0  0  0  0  0  0  0  0
   38.5440   31.1420   42.5770 C   0  0  0  0  0  0  0  0  0  0  0  0
   38.8120   31.7380   43.7850 N   0  0  0  0  0  0  0  0  0  0  0  0
   39.1430   31.0430   44.8520 C   0  0  0  0  0  0  0  0  0  0  0  0
   39.2460   29.7080   44.8430 N   0  0  0  0  0  0  0  0  0  0  0  0
   38.1810   31.9090   41.4100 C   0  0  0  0  0  0  0  0  0  0  0  0
   36.7640   31.8550   41.0140 C   0  0  0  0  0  0  0  0  0  0  0  0
   36.1260   33.0070   40.5230 N   0  0  0  0  0  0  0  0  0  0  0  0
   36.1070   33.4780   39.2820 C   0  0  0  0  0  0  0  0  0  0  0  0
   35.4540   34.6160   38.8640 C   0  0  0  0  0  0  0  0  0  0  0  0
   34.7520   35.3510   39.7850 C   0  0  0  0  0  0  0  0  0  0  0  0
   34.1370   36.3900   39.4880 O   0  0  0  0  0  0  0  0  0  0  0  0
   34.7600   34.9020   41.0140 N   0  0  0  0  0  0  0  0  0  0  0  0
   35.3980   33.8020   41.3880 C   0  0  0  0  0  0  0  0  0  0  0  0
   35.3460   33.4460   42.6100 O   0  0  0  0  0  0  0  0  0  0  0  0
   34.0190   35.6680   42.0130 C   0  0  0  0  0  0  0  0  0  0  0  0
   33.9130   34.9500   43.1900 F   0  0  0  0  0  0  0  0  0  0  0  0
   32.7560   35.8910   41.5110 F   0  0  0  0  0  0  0  0  0  0  0  0
   34.6800   36.8440   42.2210 F   0  0  0  0  0  0  0  0  0  0  0  0
   39.4270   31.7140   46.1490 C   0  0  0  0  0  0  0  0  0  0  0  0
   38.1270   32.2620   46.7300 C   0  0  0  0  0  0  0  0  0  0  0  0
   37.8890   31.5420   47.9660 N   0  0  0  0  0  0  0  0  0  0  0  0
   38.5550   31.7980   49.1060 C   0  0  0  0  0  0  0  0  0  0  0  0
   38.2010   31.0190   50.1860 C   0  0  0  0  0  0  0  0  0  0  0  0
   37.2260   30.0400   50.1030 C   0  0  0  0  0  0  0  0  0  0  0  0
   36.9080   29.3320   51.0890 O   0  0  0  0  0  0  0  0  0  0  0  0
   36.5960   29.8350   48.9310 N   0  0  0  0  0  0  0  0  0  0  0  0
   36.9330   30.5860   47.8760 C   0  0  0  0  0  0  0  0  0  0  0  0
   36.3050   30.3430   46.8090 O   0  0  0  0  0  0  0  0  0  0  0  0
   39.0720   27.9264   43.6390 H   0  0  0  0  0  0  0  0  0  0  0  0
   38.4306   29.2633   41.5813 H   0  0  0  0  0  0  0  0  0  0  0  0
   38.4350   32.9610   41.6070 H   0  0  0  0  0  0  0  0  0  0  0  0
   38.7382   31.4584   40.5754 H   0  0  0  0  0  0  0  0  0  0  0  0
   36.6829   31.0885   40.2292 H   0  0  0  0  0  0  0  0  0  0  0  0
   36.2437   31.6641   41.9641 H   0  0  0  0  0  0  0  0  0  0  0  0
   36.6615   32.9094   38.5209 H   0  0  0  0  0  0  0  0  0  0  0  0
   35.4946   34.9299   37.8105 H   0  0  0  0  0  0  0  0  0  0  0  0
   39.8652   30.9881   46.8498 H   0  0  0  0  0  0  0  0  0  0  0  0
   40.1354   32.5401   45.9885 H   0  0  0  0  0  0  0  0  0  0  0  0
   38.2256   33.3389   46.9312 H   0  0  0  0  0  0  0  0  0  0  0  0
   37.2916   32.1295   46.0268 H   0  0  0  0  0  0  0  0  0  0  0  0
   39.3296   32.5763   49.1718 H   0  0  0  0  0  0  0  0  0  0  0  0
   38.7108   31.1807   51.1472 H   0  0  0  0  0  0  0  0  0  0  0  0
   35.8669   29.1123   48.8478 H   0  0  0  0  0  0  0  0  0  0  0  0
  1  6  2  0
  2  3  2  0
  2  1  1  0
  3  4  1  0
  4  5  2  0
  5 21  1  0
  6  5  1  0
  7  3  1  0
  8  7  1  0
  9  8  1  0
  9 15  1  0
 10  9  1  0
 11 10  2  0
 11 12  1  0
 12 14  1  0
 13 12  2  0
 14 15  1  0
 14 17  1  0
 15 16  2  0
 17 20  1  0
 17 18  1  0
 19 17  1  0
 21 22  1  0
 22 23  1  0
 23 24  1  0
 24 25  2  0
 26 25  1  0
 26 27  2  0
 28 26  1  0
 29 23  1  0
 29 28  1  0
 30 29  2  0
  1 31  1  0
  2 32  1  0
  7 33  1  0
  7 34  1  0
  8 35  1  0
  8 36  1  0
 10 37  1  0
 11 38  1  0
 21 39  1  0
 21 40  1  0
 22 41  1  0
 22 42  1  0
 24 43  1  0
 25 44  1  0
 28 45  1  0
M  ISO  8  31  14  32  14  33   8  34   8  35   8  36   8  37  14  38  14
M  ISO  7  39   8  40   8  41   8  42   8  43  14  44  14  45   9
M  END
>  <minimizedAffinity>  (1) 
-5.44087553

>  <minimizedRMSD>  (1) 
4.70783424

$$$$
