
     RDKit          3D

 42 44  0  0  0  0  0  0  0  0999 V2000
   39.4320   31.7990   45.1220 C   0  0  0  0  0  0  0  0  0  0  0  0
   38.8250   28.5750   43.2860 C   0  0  0  0  0  0  0  0  0  0  0  0
   39.0930   29.5080   44.3330 C   0  0  0  0  0  0  0  0  0  0  0  0
   39.1640   30.8450   44.0750 C   0  0  0  0  0  0  0  0  0  0  0  0
   38.9670   31.2420   42.7700 N   0  0  0  0  0  0  0  0  0  0  0  0
   38.7200   30.3610   41.8120 C   0  0  0  0  0  0  0  0  0  0  0  0
   38.6440   29.0590   42.0260 N   0  0  0  0  0  0  0  0  0  0  0  0
   38.5130   30.8190   40.4110 C   0  0  0  0  0  0  0  0  0  0  0  0
   39.7120   31.5830   39.9220 C   0  0  0  0  0  0  0  0  0  0  0  0
   40.7990   30.6210   39.6160 C   0  0  0  0  0  0  0  0  0  0  0  0
   40.5150   29.8420   38.4850 C   0  0  0  0  0  0  0  0  0  0  0  0
   41.5700   28.9700   38.2600 C   0  0  0  0  0  0  0  0  0  0  0  0
   42.4590   29.2700   39.2840 C   0  0  0  0  0  0  0  0  0  0  0  0
   41.9750   30.2220   40.0360 O   0  0  0  0  0  0  0  0  0  0  0  0
   38.2600   32.3080   45.8610 C   0  0  0  0  0  0  0  0  0  0  0  0
   38.0850   31.9750   47.2140 N   0  0  0  0  0  0  0  0  0  0  0  0
   38.7240   32.4490   48.2720 C   0  0  0  0  0  0  0  0  0  0  0  0
   38.5040   32.0810   49.5830 C   0  0  0  0  0  0  0  0  0  0  0  0
   37.5450   31.1420   49.8460 C   0  0  0  0  0  0  0  0  0  0  0  0
   37.2830   30.7520   51.0040 O   0  0  0  0  0  0  0  0  0  0  0  0
   36.9000   30.6580   48.8140 N   0  0  0  0  0  0  0  0  0  0  0  0
   37.1360   31.0340   47.5640 C   0  0  0  0  0  0  0  0  0  0  0  0
   36.4560   30.5060   46.6250 O   0  0  0  0  0  0  0  0  0  0  0  0
   35.8720   29.6540   49.0750 C   0  0  0  0  0  0  0  0  0  0  0  0
   35.3080   29.2250   47.8890 F   0  0  0  0  0  0  0  0  0  0  0  0
   34.8910   30.2490   49.8270 F   0  0  0  0  0  0  0  0  0  0  0  0
   36.4520   28.6140   49.7420 F   0  0  0  0  0  0  0  0  0  0  0  0
   39.9412   32.6613   44.6669 H   0  0  0  0  0  0  0  0  0  0  0  0
   40.0334   31.2558   45.8658 H   0  0  0  0  0  0  0  0  0  0  0  0
   38.7664   27.4959   43.4913 H   0  0  0  0  0  0  0  0  0  0  0  0
   39.2440   29.1439   45.3600 H   0  0  0  0  0  0  0  0  0  0  0  0
   38.3536   29.9436   39.7642 H   0  0  0  0  0  0  0  0  0  0  0  0
   37.6342   31.4799   40.3799 H   0  0  0  0  0  0  0  0  0  0  0  0
   39.4478   32.1437   39.0133 H   0  0  0  0  0  0  0  0  0  0  0  0
   40.0455   32.2905   40.6954 H   0  0  0  0  0  0  0  0  0  0  0  0
   39.6025   29.9113   37.8746 H   0  0  0  0  0  0  0  0  0  0  0  0
   41.6769   28.2206   37.4619 H   0  0  0  0  0  0  0  0  0  0  0  0
   43.4301   28.7772   39.4392 H   0  0  0  0  0  0  0  0  0  0  0  0
   38.3026   33.4058   45.8070 H   0  0  0  0  0  0  0  0  0  0  0  0
   37.4130   31.8103   45.3662 H   0  0  0  0  0  0  0  0  0  0  0  0
   39.5014   33.2054   48.0889 H   0  0  0  0  0  0  0  0  0  0  0  0
   39.0870   32.5328   50.3990 H   0  0  0  0  0  0  0  0  0  0  0  0
  1 15  1  0
  2  3  2  0
  4  3  1  0
  4  1  1  0
  5  4  2  0
  6  7  2  0
  6  5  1  0
  7  2  1  0
  8  6  1  0
  9  8  1  0
 10  9  1  0
 10 14  1  0
 11 10  2  0
 12 11  1  0
 12 13  2  0
 13 14  1  0
 15 16  1  0
 16 22  1  0
 16 17  1  0
 17 18  2  0
 18 19  1  0
 19 20  2  0
 21 24  1  0
 21 19  1  0
 22 21  1  0
 23 22  2  0
 24 27  1  0
 24 26  1  0
 25 24  1  0
  1 28  1  0
  1 29  1  0
  2 30  1  0
  3 31  1  0
  8 32  1  0
  8 33  1  0
  9 34  1  0
  9 35  1  0
 11 36  1  0
 12 37  1  0
 13 38  1  0
 15 39  1  0
 15 40  1  0
 17 41  1  0
 18 42  1  0
M  ISO  8  28   8  29   8  30  14  31  14  32   8  33   8  34   8  35   8
M  ISO  7  36  14  37  14  38  14  39   8  40   8  41  14  42  14
M  END
>  <minimizedAffinity>  (1) 
-5.42013121

>  <minimizedRMSD>  (1) 
9.388484

$$$$
