
     RDKit          3D

 42 44  0  0  0  0  0  0  0  0999 V2000
   33.6150   28.1910   49.1220 C   0  0  0  0  0  0  0  0  0  0  0  0
   33.3530   28.4970   47.7560 C   0  0  0  0  0  0  0  0  0  0  0  0
   34.1950   29.2750   47.0210 C   0  0  0  0  0  0  0  0  0  0  0  0
   35.3200   29.7610   47.6550 N   0  0  0  0  0  0  0  0  0  0  0  0
   35.5590   29.4760   48.9200 C   0  0  0  0  0  0  0  0  0  0  0  0
   34.7590   28.7160   49.6780 N   0  0  0  0  0  0  0  0  0  0  0  0
   33.9240   29.5780   45.6380 C   0  0  0  0  0  0  0  0  0  0  0  0
   32.7560   30.4330   45.3690 C   0  0  0  0  0  0  0  0  0  0  0  0
   32.6760   31.1520   44.1630 N   0  0  0  0  0  0  0  0  0  0  0  0
   33.0880   30.7910   42.9530 C   0  0  0  0  0  0  0  0  0  0  0  0
   32.9740   31.5450   41.8100 C   0  0  0  0  0  0  0  0  0  0  0  0
   32.3930   32.7760   41.8860 C   0  0  0  0  0  0  0  0  0  0  0  0
   32.2500   33.5230   40.9000 O   0  0  0  0  0  0  0  0  0  0  0  0
   31.9780   33.1560   43.0650 N   0  0  0  0  0  0  0  0  0  0  0  0
   32.1000   32.4080   44.1560 C   0  0  0  0  0  0  0  0  0  0  0  0
   31.6660   32.8610   45.2660 O   0  0  0  0  0  0  0  0  0  0  0  0
   31.3490   34.4720   43.1810 C   0  0  0  0  0  0  0  0  0  0  0  0
   31.5080   34.9760   44.4590 F   0  0  0  0  0  0  0  0  0  0  0  0
   30.0040   34.3010   42.9390 F   0  0  0  0  0  0  0  0  0  0  0  0
   31.9200   35.3030   42.2600 F   0  0  0  0  0  0  0  0  0  0  0  0
   36.7810   30.0080   49.6000 C   0  0  0  0  0  0  0  0  0  0  0  0
   36.6020   31.4950   49.8840 C   0  0  0  0  0  0  0  0  0  0  0  0
   37.6470   32.2640   49.2380 N   0  0  0  0  0  0  0  0  0  0  0  0
   38.2600   33.3830   49.5290 N   0  0  0  0  0  0  0  0  0  0  0  0
   39.1780   33.7110   48.6140 C   0  0  0  0  0  0  0  0  0  0  0  0
   39.1670   32.7210   47.6370 C   0  0  0  0  0  0  0  0  0  0  0  0
   38.1990   31.8440   48.0690 C   0  0  0  0  0  0  0  0  0  0  0  0
   32.9307   27.5606   49.7088 H   0  0  0  0  0  0  0  0  0  0  0  0
   32.4460   28.0940   47.2818 H   0  0  0  0  0  0  0  0  0  0  0  0
   34.8101   30.0839   45.2270 H   0  0  0  0  0  0  0  0  0  0  0  0
   33.6908   28.6109   45.1686 H   0  0  0  0  0  0  0  0  0  0  0  0
   31.8697   29.7829   45.4110 H   0  0  0  0  0  0  0  0  0  0  0  0
   32.8389   31.2227   46.1302 H   0  0  0  0  0  0  0  0  0  0  0  0
   33.5615   29.8027   42.8577 H   0  0  0  0  0  0  0  0  0  0  0  0
   33.3458   31.1613   40.8485 H   0  0  0  0  0  0  0  0  0  0  0  0
   36.9361   29.4705   50.5471 H   0  0  0  0  0  0  0  0  0  0  0  0
   37.6544   29.8634   48.9471 H   0  0  0  0  0  0  0  0  0  0  0  0
   35.6235   31.8214   49.5020 H   0  0  0  0  0  0  0  0  0  0  0  0
   36.6587   31.6593   50.9702 H   0  0  0  0  0  0  0  0  0  0  0  0
   39.8240   34.6012   48.6308 H   0  0  0  0  0  0  0  0  0  0  0  0
   39.7872   32.6548   46.7309 H   0  0  0  0  0  0  0  0  0  0  0  0
   37.9100   30.9247   47.5386 H   0  0  0  0  0  0  0  0  0  0  0  0
  1  6  2  0
  2  1  1  0
  3  4  1  0
  3  2  2  0
  4  5  2  0
  5 21  1  0
  5  6  1  0
  7  3  1  0
  8  7  1  0
  9  8  1  0
 10  9  1  0
 11 12  1  0
 11 10  2  0
 12 14  1  0
 13 12  2  0
 14 17  1  0
 14 15  1  0
 15  9  1  0
 15 16  2  0
 17 18  1  0
 19 17  1  0
 20 17  1  0
 21 22  1  0
 23 24  1  0
 23 22  1  0
 25 24  2  0
 26 27  2  0
 26 25  1  0
 27 23  1  0
  1 28  1  0
  2 29  1  0
  7 30  1  0
  7 31  1  0
  8 32  1  0
  8 33  1  0
 10 34  1  0
 11 35  1  0
 21 36  1  0
 21 37  1  0
 22 38  1  0
 22 39  1  0
 25 40  1  0
 26 41  1  0
 27 42  1  0
M  ISO  8  28  14  29  14  30   8  31   8  32   8  33   8  34  14  35  14
M  ISO  7  36   8  37   8  38   8  39   8  40  14  41  14  42  14
M  END
>  <minimizedAffinity>  (1) 
-5.26274109

>  <minimizedRMSD>  (1) 
4.27723503

$$$$
