
     RDKit          3D

 36 37  0  0  0  0  0  0  0  0999 V2000
   37.3600   31.1330   46.3680 C   0  0  0  0  0  0  0  0  0  0  0  0
   34.5040   29.3710   48.0530 C   0  0  0  0  0  0  0  0  0  0  0  0
   35.2760   30.0810   47.0880 C   0  0  0  0  0  0  0  0  0  0  0  0
   36.5680   30.4130   47.3360 C   0  0  0  0  0  0  0  0  0  0  0  0
   37.0940   30.0340   48.5540 N   0  0  0  0  0  0  0  0  0  0  0  0
   36.3670   29.3750   49.4410 C   0  0  0  0  0  0  0  0  0  0  0  0
   35.0900   29.0310   49.2320 N   0  0  0  0  0  0  0  0  0  0  0  0
   36.9710   28.9820   50.7580 C   0  0  0  0  0  0  0  0  0  0  0  0
   37.4240   30.2440   51.4830 C   0  0  0  0  0  0  0  0  0  0  0  0
   38.5590   30.7570   50.8720 O   0  0  0  0  0  0  0  0  0  0  0  0
   37.0420   30.8920   44.9550 C   0  0  0  0  0  0  0  0  0  0  0  0
   37.5930   31.7130   43.9650 N   0  0  0  0  0  0  0  0  0  0  0  0
   38.8750   32.0030   43.7530 C   0  0  0  0  0  0  0  0  0  0  0  0
   39.3660   32.8160   42.7470 C   0  0  0  0  0  0  0  0  0  0  0  0
   38.4790   33.3890   41.8760 C   0  0  0  0  0  0  0  0  0  0  0  0
   38.8300   34.1320   40.9440 O   0  0  0  0  0  0  0  0  0  0  0  0
   37.2120   33.1150   42.0710 N   0  0  0  0  0  0  0  0  0  0  0  0
   36.7790   32.3320   43.0440 C   0  0  0  0  0  0  0  0  0  0  0  0
   35.5260   32.1240   43.1540 O   0  0  0  0  0  0  0  0  0  0  0  0
   36.2450   33.7130   41.1570 C   0  0  0  0  0  0  0  0  0  0  0  0
   35.4610   32.7380   40.5680 F   0  0  0  0  0  0  0  0  0  0  0  0
   36.9550   34.3510   40.1560 F   0  0  0  0  0  0  0  0  0  0  0  0
   35.4740   34.5890   41.8670 F   0  0  0  0  0  0  0  0  0  0  0  0
   37.2294   32.2079   46.5618 H   0  0  0  0  0  0  0  0  0  0  0  0
   38.3888   30.7675   46.5023 H   0  0  0  0  0  0  0  0  0  0  0  0
   33.4567   29.1038   47.8485 H   0  0  0  0  0  0  0  0  0  0  0  0
   34.8180   30.3638   46.1287 H   0  0  0  0  0  0  0  0  0  0  0  0
   36.2217   28.4543   51.3663 H   0  0  0  0  0  0  0  0  0  0  0  0
   37.8303   28.3155   50.5926 H   0  0  0  0  0  0  0  0  0  0  0  0
   36.6199   30.9938   51.4474 H   0  0  0  0  0  0  0  0  0  0  0  0
   37.6558   29.9974   52.5296 H   0  0  0  0  0  0  0  0  0  0  0  0
   39.2036   31.0483   51.5647 H   0  0  0  0  0  0  0  0  0  0  0  0
   37.3604   29.8637   44.7285 H   0  0  0  0  0  0  0  0  0  0  0  0
   35.9658   31.1119   44.8965 H   0  0  0  0  0  0  0  0  0  0  0  0
   39.6096   31.5562   44.4391 H   0  0  0  0  0  0  0  0  0  0  0  0
   40.4464   32.9981   42.6491 H   0  0  0  0  0  0  0  0  0  0  0  0
  1  4  1  0
  2  7  2  0
  3  4  2  0
  3  2  1  0
  4  5  1  0
  5  6  2  0
  6  8  1  0
  7  6  1  0
  8  9  1  0
 10  9  1  0
 11  1  1  0
 12 11  1  0
 13 12  1  0
 14 13  2  0
 15 17  1  0
 15 14  1  0
 16 15  2  0
 17 18  1  0
 18 19  2  0
 18 12  1  0
 20 23  1  0
 20 17  1  0
 21 20  1  0
 22 20  1  0
  1 24  1  0
  1 25  1  0
  2 26  1  0
  3 27  1  0
  8 28  1  0
  8 29  1  0
  9 30  1  0
  9 31  1  0
 10 32  1  0
 11 33  1  0
 11 34  1  0
 13 35  1  0
 14 36  1  0
M  ISO  8  24   8  25   8  26  14  27  14  28   8  29   8  30   8  31   8
M  ISO  5  32   3  33   8  34   8  35  14  36  14
M  END
>  <minimizedAffinity>  (1) 
-4.94731426

>  <minimizedRMSD>  (1) 
0.328242689

$$$$
