
     RDKit          3D

 33 35  0  0  0  0  0  0  0  0999 V2000
   38.2840   31.7120   45.9720 C   0  0  0  0  0  0  0  0  0  0  0  0
   37.3010   30.7730   46.3350 C   0  0  0  0  0  0  0  0  0  0  0  0
   36.8150   30.6460   47.5980 C   0  0  0  0  0  0  0  0  0  0  0  0
   37.2620   31.4390   48.6050 C   0  0  0  0  0  0  0  0  0  0  0  0
   38.2130   32.3660   48.3180 C   0  0  0  0  0  0  0  0  0  0  0  0
   38.6580   33.1670   49.3560 C   0  0  0  0  0  0  0  0  0  0  0  0
   39.6080   34.1190   49.1520 C   0  0  0  0  0  0  0  0  0  0  0  0
   40.1170   34.2600   47.8590 C   0  0  0  0  0  0  0  0  0  0  0  0
   39.6420   33.4430   46.8670 C   0  0  0  0  0  0  0  0  0  0  0  0
   38.7000   32.4870   47.0330 C   0  0  0  0  0  0  0  0  0  0  0  0
   40.2720   30.7940   43.1220 C   0  0  0  0  0  0  0  0  0  0  0  0
   40.0230   31.7020   42.1080 C   0  0  0  0  0  0  0  0  0  0  0  0
   39.1060   32.7070   42.4240 C   0  0  0  0  0  0  0  0  0  0  0  0
   38.5550   32.7140   43.6440 N   0  0  0  0  0  0  0  0  0  0  0  0
   38.7940   31.8400   44.6180 C   0  0  0  0  0  0  0  0  0  0  0  0
   39.6630   30.9070   44.2870 N   0  0  0  0  0  0  0  0  0  0  0  0
   36.7340   31.2600   49.9140 N   0  0  0  0  0  0  0  0  0  0  0  0
   36.9380   30.0990   50.7010 C   0  0  0  0  0  0  0  0  0  0  0  0
   36.8210   28.9470   50.0780 N   0  0  0  0  0  0  0  0  0  0  0  0
   37.2560   30.0620   52.1110 N   0  0  0  0  0  0  0  0  0  0  0  0
   36.9510   28.0620   50.5680 H   0  0  0  0  0  0  0  0  0  0  0  0
   36.9047   30.1061   45.5551 H   0  0  0  0  0  0  0  0  0  0  0  0
   36.0463   29.8876   47.8077 H   0  0  0  0  0  0  0  0  0  0  0  0
   38.2361   33.0312   50.3628 H   0  0  0  0  0  0  0  0  0  0  0  0
   39.9628   34.7553   49.9762 H   0  0  0  0  0  0  0  0  0  0  0  0
   40.8868   35.0148   47.6406 H   0  0  0  0  0  0  0  0  0  0  0  0
   40.0590   33.5748   45.8577 H   0  0  0  0  0  0  0  0  0  0  0  0
   40.9832   29.9715   42.9555 H   0  0  0  0  0  0  0  0  0  0  0  0
   40.5117   31.6370   41.1246 H   0  0  0  0  0  0  0  0  0  0  0  0
   38.8417   33.4776   41.6849 H   0  0  0  0  0  0  0  0  0  0  0  0
   36.1682   32.0217   50.3147 H   0  0  0  0  0  0  0  0  0  0  0  0
   37.3840   29.1573   52.5865 H   0  0  0  0  0  0  0  0  0  0  0  0
   37.3546   30.9403   52.6399 H   0  0  0  0  0  0  0  0  0  0  0  0
  1  2  2  0
  1 10  1  0
  2  3  1  0
  3  4  2  0
  4 17  1  0
  5  4  1  0
  5  6  2  0
  7  6  1  0
  8  7  2  0
  9 10  2  0
  9  8  1  0
 10  5  1  0
 11 16  2  0
 12 13  2  0
 12 11  1  0
 13 14  1  0
 14 15  2  0
 15  1  1  0
 16 15  1  0
 17 18  1  0
 18 20  1  0
 19 21  1  0
 19 18  2  0
  2 22  1  0
  3 23  1  0
  6 24  1  0
  7 25  1  0
  8 26  1  0
  9 27  1  0
 11 28  1  0
 12 29  1  0
 13 30  1  0
 17 31  1  0
 20 32  1  0
 20 33  1  0
M  ISO  8  22  14  23  14  24  14  25  14  26  14  27  14  28  14  29  14
M  ISO  1  30  14
M  END
>  <minimizedAffinity>  (1) 
-6.6271944

>  <minimizedRMSD>  (1) 
5.15133858

$$$$
