
     RDKit          3D

 19 20  0  0  0  0  0  0  0  0999 V2000
   37.4020   30.3210   51.0700 C   0  0  0  0  0  0  0  0  0  0  0  0
   38.3220   31.0830   50.3190 C   0  0  0  0  0  0  0  0  0  0  0  0
   38.0620   31.2100   48.9380 C   0  0  0  0  0  0  0  0  0  0  0  0
   36.9510   30.5930   48.4340 N   0  0  0  0  0  0  0  0  0  0  0  0
   36.1060   29.8780   49.1930 C   0  0  0  0  0  0  0  0  0  0  0  0
   36.3290   29.7390   50.5180 N   0  0  0  0  0  0  0  0  0  0  0  0
   34.9470   29.2550   48.5620 C   0  0  0  0  0  0  0  0  0  0  0  0
   34.4490   28.0490   49.0100 C   0  0  0  0  0  0  0  0  0  0  0  0
   33.3420   27.5310   48.3500 C   0  0  0  0  0  0  0  0  0  0  0  0
   32.8200   28.2530   47.2990 C   0  0  0  0  0  0  0  0  0  0  0  0
   33.3110   29.4400   46.8590 C   0  0  0  0  0  0  0  0  0  0  0  0
   34.3770   29.9070   47.5200 N   0  0  0  0  0  0  0  0  0  0  0  0
   37.5723   30.2002   52.1500 H   0  0  0  0  0  0  0  0  0  0  0  0
   39.1986   31.5547   50.7870 H   0  0  0  0  0  0  0  0  0  0  0  0
   38.7333   31.7883   48.2862 H   0  0  0  0  0  0  0  0  0  0  0  0
   34.9102   27.5187   49.8562 H   0  0  0  0  0  0  0  0  0  0  0  0
   32.8957   26.5736   48.6570 H   0  0  0  0  0  0  0  0  0  0  0  0
   31.9434   27.8385   46.7796 H   0  0  0  0  0  0  0  0  0  0  0  0
   32.8618   29.9826   46.0141 H   0  0  0  0  0  0  0  0  0  0  0  0
  2  1  2  0
  3  2  1  0
  4  3  2  0
  4  5  1  0
  5  6  2  0
  6  1  1  0
  7  8  2  0
  7  5  1  0
  9  8  1  0
 10  9  2  0
 11 10  1  0
 11 12  2  0
 12  7  1  0
  1 13  1  0
  2 14  1  0
  3 15  1  0
  8 16  1  0
  9 17  1  0
 10 18  1  0
 11 19  1  0
M  ISO  7  13  14  14  14  15  14  16  14  17  14  18  14  19  14
M  END
>  <minimizedAffinity>  (1) 
-4.18551826

>  <minimizedRMSD>  (1) 
1.64281785

$$$$
