
     RDKit          3D

 30 32  0  0  0  0  0  0  0  0999 V2000
   37.4390   30.9650   46.9290 C   0  0  0  0  0  0  0  0  0  0  0  0
   36.3360   30.5730   46.1630 C   0  0  0  0  0  0  0  0  0  0  0  0
   35.1960   30.0180   46.6600 C   0  0  0  0  0  0  0  0  0  0  0  0
   35.0670   29.8060   48.0060 C   0  0  0  0  0  0  0  0  0  0  0  0
   36.0990   30.1620   48.8110 C   0  0  0  0  0  0  0  0  0  0  0  0
   35.9490   29.9400   50.1590 C   0  0  0  0  0  0  0  0  0  0  0  0
   36.9420   30.2690   51.0450 C   0  0  0  0  0  0  0  0  0  0  0  0
   38.1000   30.8330   50.5360 C   0  0  0  0  0  0  0  0  0  0  0  0
   38.1990   31.0320   49.1860 C   0  0  0  0  0  0  0  0  0  0  0  0
   37.2460   30.7230   48.2850 C   0  0  0  0  0  0  0  0  0  0  0  0
   40.5570   30.9280   45.1660 C   0  0  0  0  0  0  0  0  0  0  0  0
   41.0510   32.2330   45.1570 C   0  0  0  0  0  0  0  0  0  0  0  0
   40.2670   33.1680   45.7890 C   0  0  0  0  0  0  0  0  0  0  0  0
   39.1330   32.7550   46.3440 N   0  0  0  0  0  0  0  0  0  0  0  0
   38.6360   31.5500   46.3750 C   0  0  0  0  0  0  0  0  0  0  0  0
   39.4040   30.6610   45.7600 N   0  0  0  0  0  0  0  0  0  0  0  0
   33.9010   29.2430   48.4760 O   0  0  0  0  0  0  0  0  0  0  0  0
   33.6940   27.8560   48.4420 C   0  0  0  0  0  0  0  0  0  0  0  0
   34.6320   27.1190   49.1120 F   0  0  0  0  0  0  0  0  0  0  0  0
   32.4730   27.6130   49.0730 F   0  0  0  0  0  0  0  0  0  0  0  0
   33.6410   27.5000   47.0980 F   0  0  0  0  0  0  0  0  0  0  0  0
   36.3940   30.7248   45.0751 H   0  0  0  0  0  0  0  0  0  0  0  0
   34.3781   29.7398   45.9790 H   0  0  0  0  0  0  0  0  0  0  0  0
   35.0170   29.4910   50.5330 H   0  0  0  0  0  0  0  0  0  0  0  0
   36.8231   30.0910   52.1240 H   0  0  0  0  0  0  0  0  0  0  0  0
   38.9257   31.1160   51.2054 H   0  0  0  0  0  0  0  0  0  0  0  0
   39.1295   31.4793   48.8064 H   0  0  0  0  0  0  0  0  0  0  0  0
   41.1252   30.1213   44.6798 H   0  0  0  0  0  0  0  0  0  0  0  0
   42.0047   32.4958   44.6759 H   0  0  0  0  0  0  0  0  0  0  0  0
   40.5689   34.2248   45.8339 H   0  0  0  0  0  0  0  0  0  0  0  0
  1 10  2  0
  2  3  2  0
  2  1  1  0
  3  4  1  0
  4 17  1  0
  4  5  2  0
  5  6  1  0
  6  7  2  0
  8  7  1  0
  9  8  2  0
 10  5  1  0
 10  9  1  0
 11 16  2  0
 12 11  1  0
 12 13  2  0
 13 14  1  0
 14 15  2  0
 15  1  1  0
 16 15  1  0
 18 17  1  0
 18 20  1  0
 18 19  1  0
 21 18  1  0
  2 22  1  0
  3 23  1  0
  6 24  1  0
  7 25  1  0
  8 26  1  0
  9 27  1  0
 11 28  1  0
 12 29  1  0
 13 30  1  0
M  ISO  8  22  14  23  14  24  14  25  14  26  14  27  14  28  14  29  14
M  ISO  1  30  14
M  END
>  <minimizedAffinity>  (1) 
-6.83610821

>  <minimizedRMSD>  (1) 
5.44544601

$$$$
