
     RDKit          3D

 28 29  0  0  0  0  0  0  0  0999 V2000
   39.1540   32.2570   46.0370 C   0  0  0  0  0  0  0  0  0  0  0  0
   37.7630   32.5670   49.5560 C   0  0  0  0  0  0  0  0  0  0  0  0
   38.5780   32.8220   48.4420 C   0  0  0  0  0  0  0  0  0  0  0  0
   38.3680   32.0900   47.2730 C   0  0  0  0  0  0  0  0  0  0  0  0
   37.3640   31.1530   47.2840 N   0  0  0  0  0  0  0  0  0  0  0  0
   36.5960   30.9280   48.3650 C   0  0  0  0  0  0  0  0  0  0  0  0
   36.7850   31.6230   49.4990 N   0  0  0  0  0  0  0  0  0  0  0  0
   39.9070   30.9340   45.8220 C   0  0  0  0  0  0  0  0  0  0  0  0
   40.1380   33.3670   46.0850 C   0  0  0  0  0  0  0  0  0  0  0  0
   38.2050   32.4540   44.8970 C   0  0  0  0  0  0  0  0  0  0  0  0
   38.6660   31.8280   43.6290 C   0  0  0  0  0  0  0  0  0  0  0  0
   39.4980   32.5730   42.7300 C   0  0  0  0  0  0  0  0  0  0  0  0
   39.7570   31.3630   41.3800 S   0  0  0  0  0  0  0  0  0  0  0  0
   38.6920   30.0580   42.2700 C   0  0  0  0  0  0  0  0  0  0  0  0
   38.3790   30.6000   43.2190 N   0  0  0  0  0  0  0  0  0  0  0  0
   37.9166   33.1363   50.4846 H   0  0  0  0  0  0  0  0  0  0  0  0
   39.3684   33.5856   48.4898 H   0  0  0  0  0  0  0  0  0  0  0  0
   35.8039   30.1660   48.3200 H   0  0  0  0  0  0  0  0  0  0  0  0
   40.1583   30.4924   46.7976 H   0  0  0  0  0  0  0  0  0  0  0  0
   39.2702   30.2372   45.2573 H   0  0  0  0  0  0  0  0  0  0  0  0
   40.8313   31.1258   45.2573 H   0  0  0  0  0  0  0  0  0  0  0  0
   40.3589   33.6161   47.1334 H   0  0  0  0  0  0  0  0  0  0  0  0
   41.0643   33.0580   45.5786 H   0  0  0  0  0  0  0  0  0  0  0  0
   39.7201   34.2496   45.5786 H   0  0  0  0  0  0  0  0  0  0  0  0
   37.2350   32.0133   45.1708 H   0  0  0  0  0  0  0  0  0  0  0  0
   38.1341   33.5369   44.7172 H   0  0  0  0  0  0  0  0  0  0  0  0
   39.8799   33.6001   42.8258 H   0  0  0  0  0  0  0  0  0  0  0  0
   38.4426   29.0366   41.9468 H   0  0  0  0  0  0  0  0  0  0  0  0
  1  9  1  0
  1  4  1  0
  3  2  2  0
  4  5  2  0
  4  3  1  0
  5  6  1  0
  6  7  2  0
  7  2  1  0
  8  1  1  0
 10  1  1  0
 11 10  1  0
 12 11  2  0
 13 14  1  0
 13 12  1  0
 14 15  2  0
 15 11  1  0
  2 16  1  0
  3 17  1  0
  6 18  1  0
  8 19  1  0
  8 20  1  0
  8 21  1  0
  9 22  1  0
  9 23  1  0
  9 24  1  0
 10 25  1  0
 10 26  1  0
 12 27  1  0
 14 28  1  0
M  ISO  8  16  14  17  14  18  14  19   8  20   8  21   8  22   8  23   8
M  ISO  5  24   8  25   8  26   8  27  14  28  14
M  END
>  <minimizedAffinity>  (1) 
-4.48809338

>  <minimizedRMSD>  (1) 
0.916328311

$$$$
