
     RDKit          3D

 31 33  0  0  0  0  0  0  0  0999 V2000
   37.3670   31.0130   46.7620 C   0  0  0  0  0  0  0  0  0  0  0  0
   36.2490   30.5710   46.0430 C   0  0  0  0  0  0  0  0  0  0  0  0
   35.1360   30.0210   46.6040 C   0  0  0  0  0  0  0  0  0  0  0  0
   35.0470   29.8650   47.9560 C   0  0  0  0  0  0  0  0  0  0  0  0
   36.0930   30.2730   48.7060 C   0  0  0  0  0  0  0  0  0  0  0  0
   35.9880   30.1100   50.0700 C   0  0  0  0  0  0  0  0  0  0  0  0
   36.9920   30.4890   50.9250 C   0  0  0  0  0  0  0  0  0  0  0  0
   38.1270   31.0500   50.3480 C   0  0  0  0  0  0  0  0  0  0  0  0
   38.1880   31.1940   48.9880 C   0  0  0  0  0  0  0  0  0  0  0  0
   37.2140   30.8270   48.1350 C   0  0  0  0  0  0  0  0  0  0  0  0
   40.6970   30.9770   45.4450 C   0  0  0  0  0  0  0  0  0  0  0  0
   40.9940   32.2730   45.0070 C   0  0  0  0  0  0  0  0  0  0  0  0
   39.9930   33.2000   45.1790 C   0  0  0  0  0  0  0  0  0  0  0  0
   38.8510   32.7870   45.7340 N   0  0  0  0  0  0  0  0  0  0  0  0
   38.5370   31.5930   46.1530 C   0  0  0  0  0  0  0  0  0  0  0  0
   39.5140   30.7150   45.9820 N   0  0  0  0  0  0  0  0  0  0  0  0
   40.0900   34.5320   44.8120 O   0  0  0  0  0  0  0  0  0  0  0  0
   33.9050   29.3050   48.4920 O   0  0  0  0  0  0  0  0  0  0  0  0
   33.7240   27.9220   48.5100 C   0  0  0  0  0  0  0  0  0  0  0  0
   34.6880   27.2120   49.1900 F   0  0  0  0  0  0  0  0  0  0  0  0
   32.5140   27.6790   49.1640 F   0  0  0  0  0  0  0  0  0  0  0  0
   33.6630   27.5000   47.1790 F   0  0  0  0  0  0  0  0  0  0  0  0
   36.2713   30.6754   44.9482 H   0  0  0  0  0  0  0  0  0  0  0  0
   34.3027   29.7003   45.9616 H   0  0  0  0  0  0  0  0  0  0  0  0
   35.0728   29.6631   50.4856 H   0  0  0  0  0  0  0  0  0  0  0  0
   36.9039   30.3558   52.0133 H   0  0  0  0  0  0  0  0  0  0  0  0
   38.9676   31.3748   50.9788 H   0  0  0  0  0  0  0  0  0  0  0  0
   39.0981   31.6416   48.5621 H   0  0  0  0  0  0  0  0  0  0  0  0
   41.4449   30.1767   45.3436 H   0  0  0  0  0  0  0  0  0  0  0  0
   41.9630   32.5324   44.5556 H   0  0  0  0  0  0  0  0  0  0  0  0
   39.3277   35.1446   44.9660 H   0  0  0  0  0  0  0  0  0  0  0  0
  1 10  2  0
  2  3  2  0
  2  1  1  0
  3  4  1  0
  4 18  1  0
  4  5  2  0
  5  6  1  0
  6  7  2  0
  8  7  1  0
  9  8  2  0
 10  5  1  0
 10  9  1  0
 11 16  2  0
 12 13  2  0
 12 11  1  0
 13 14  1  0
 14 15  2  0
 15  1  1  0
 16 15  1  0
 17 13  1  0
 18 19  1  0
 19 21  1  0
 19 20  1  0
 22 19  1  0
  2 23  1  0
  3 24  1  0
  6 25  1  0
  7 26  1  0
  8 27  1  0
  9 28  1  0
 11 29  1  0
 12 30  1  0
 17 31  1  0
M  ISO  8  23  14  24  14  25  14  26  14  27  14  28  14  29  14  30  14
M  ISO  1  31   3
M  END
>  <minimizedAffinity>  (1) 
-7.21061039

>  <minimizedRMSD>  (1) 
0.368449211

$$$$
