
     RDKit          3D

 42 44  0  0  0  0  0  0  0  0999 V2000
   35.4410   29.9410   46.5560 C   0  0  0  0  0  0  0  0  0  0  0  0
   34.2330   29.4570   46.0610 C   0  0  0  0  0  0  0  0  0  0  0  0
   33.2780   28.8440   46.8210 C   0  0  0  0  0  0  0  0  0  0  0  0
   33.4590   28.6640   48.1570 C   0  0  0  0  0  0  0  0  0  0  0  0
   34.6250   29.1150   48.7050 C   0  0  0  0  0  0  0  0  0  0  0  0
   34.8030   28.9320   50.0490 C   0  0  0  0  0  0  0  0  0  0  0  0
   35.9400   29.3520   50.6880 C   0  0  0  0  0  0  0  0  0  0  0  0
   36.9100   29.9750   49.9210 C   0  0  0  0  0  0  0  0  0  0  0  0
   36.6870   30.1360   48.5800 C   0  0  0  0  0  0  0  0  0  0  0  0
   35.5860   29.7360   47.9310 C   0  0  0  0  0  0  0  0  0  0  0  0
   36.8500   31.1460   43.4810 C   0  0  0  0  0  0  0  0  0  0  0  0
   38.0800   31.7420   43.7960 C   0  0  0  0  0  0  0  0  0  0  0  0
   38.4360   31.7280   45.1170 C   0  0  0  0  0  0  0  0  0  0  0  0
   37.5930   31.1560   45.9770 N   0  0  0  0  0  0  0  0  0  0  0  0
   36.4450   30.5920   45.7320 C   0  0  0  0  0  0  0  0  0  0  0  0
   36.1120   30.6130   44.4470 N   0  0  0  0  0  0  0  0  0  0  0  0
   39.6910   32.3000   45.6750 C   0  0  0  0  0  0  0  0  0  0  0  0
   40.8590   31.3790   45.5340 C   0  0  0  0  0  0  0  0  0  0  0  0
   40.0700   33.5930   44.9620 C   0  0  0  0  0  0  0  0  0  0  0  0
   39.4240   32.6810   47.1170 C   0  0  0  0  0  0  0  0  0  0  0  0
   32.4760   28.0420   48.8880 O   0  0  0  0  0  0  0  0  0  0  0  0
   31.6890   27.0160   48.3280 C   0  0  0  0  0  0  0  0  0  0  0  0
   32.3900   25.9270   47.9070 F   0  0  0  0  0  0  0  0  0  0  0  0
   30.8330   26.5730   49.3300 F   0  0  0  0  0  0  0  0  0  0  0  0
   30.9700   27.6070   47.2940 F   0  0  0  0  0  0  0  0  0  0  0  0
   34.0344   29.5763   44.9857 H   0  0  0  0  0  0  0  0  0  0  0  0
   32.3504   28.4913   46.3465 H   0  0  0  0  0  0  0  0  0  0  0  0
   34.0133   28.4350   50.6315 H   0  0  0  0  0  0  0  0  0  0  0  0
   36.0769   29.2001   51.7688 H   0  0  0  0  0  0  0  0  0  0  0  0
   37.8426   30.3339   50.3808 H   0  0  0  0  0  0  0  0  0  0  0  0
   37.4722   30.6318   47.9904 H   0  0  0  0  0  0  0  0  0  0  0  0
   36.4988   31.1204   42.4389 H   0  0  0  0  0  0  0  0  0  0  0  0
   38.7214   32.1946   43.0254 H   0  0  0  0  0  0  0  0  0  0  0  0
   41.2225   31.0924   46.5319 H   0  0  0  0  0  0  0  0  0  0  0  0
   40.5511   30.4780   44.9832 H   0  0  0  0  0  0  0  0  0  0  0  0
   41.6633   31.8885   44.9832 H   0  0  0  0  0  0  0  0  0  0  0  0
   40.2976   34.3695   45.7072 H   0  0  0  0  0  0  0  0  0  0  0  0
   40.9548   33.4186   44.3322 H   0  0  0  0  0  0  0  0  0  0  0  0
   39.2311   33.9239   44.3322 H   0  0  0  0  0  0  0  0  0  0  0  0
   39.9258   31.9649   47.7844 H   0  0  0  0  0  0  0  0  0  0  0  0
   39.8117   33.6928   47.3067 H   0  0  0  0  0  0  0  0  0  0  0  0
   38.3407   32.6619   47.3067 H   0  0  0  0  0  0  0  0  0  0  0  0
  1 10  1  0
  2  1  2  0
  2  3  1  0
  3  4  2  0
  4  5  1  0
  4 21  1  0
  5  6  2  0
  6  7  1  0
  8  7  2  0
  9  8  1  0
 10  9  2  0
 10  5  1  0
 11 12  2  0
 11 16  1  0
 12 13  1  0
 13 17  1  0
 13 14  2  0
 15 14  1  0
 15  1  1  0
 16 15  2  0
 17 20  1  0
 18 17  1  0
 19 17  1  0
 22 21  1  0
 22 24  1  0
 23 22  1  0
 25 22  1  0
  2 26  1  0
  3 27  1  0
  6 28  1  0
  7 29  1  0
  8 30  1  0
  9 31  1  0
 11 32  1  0
 12 33  1  0
 18 34  1  0
 18 35  1  0
 18 36  1  0
 19 37  1  0
 19 38  1  0
 19 39  1  0
 20 40  1  0
 20 41  1  0
 20 42  1  0
M  ISO  8  26  14  27  14  28  14  29  14  30  14  31  14  32  14  33  14
M  ISO  8  34   8  35   8  36   8  37   8  38   8  39   8  40   8  41   8
M  ISO  1  42   8
M  END
>  <minimizedAffinity>  (1) 
-6.60656738

>  <minimizedRMSD>  (1) 
2.47536922

$$$$
