
     RDKit          3D

 43 46  0  0  0  0  0  0  0  0999 V2000
   36.8840   30.5660   46.1510 C   0  0  0  0  0  0  0  0  0  0  0  0
   35.7070   29.8790   46.4160 C   0  0  0  0  0  0  0  0  0  0  0  0
   35.0690   29.8610   47.6190 C   0  0  0  0  0  0  0  0  0  0  0  0
   35.5770   30.5520   48.6770 C   0  0  0  0  0  0  0  0  0  0  0  0
   36.7180   31.2430   48.4970 C   0  0  0  0  0  0  0  0  0  0  0  0
   37.2310   31.9420   49.5750 C   0  0  0  0  0  0  0  0  0  0  0  0
   38.3810   32.6670   49.4750 C   0  0  0  0  0  0  0  0  0  0  0  0
   39.0250   32.6830   48.2560 C   0  0  0  0  0  0  0  0  0  0  0  0
   38.4910   31.9800   47.2080 C   0  0  0  0  0  0  0  0  0  0  0  0
   37.3660   31.2580   47.2690 C   0  0  0  0  0  0  0  0  0  0  0  0
   39.2660   29.4390   43.7150 C   0  0  0  0  0  0  0  0  0  0  0  0
   39.0950   30.2130   42.5780 C   0  0  0  0  0  0  0  0  0  0  0  0
   38.1170   31.1710   42.6450 C   0  0  0  0  0  0  0  0  0  0  0  0
   37.4250   31.2720   43.7800 N   0  0  0  0  0  0  0  0  0  0  0  0
   37.5500   30.5730   44.8630 C   0  0  0  0  0  0  0  0  0  0  0  0
   38.5050   29.6470   44.7790 N   0  0  0  0  0  0  0  0  0  0  0  0
   37.7720   32.0710   41.6040 N   0  0  0  0  0  0  0  0  0  0  0  0
   38.7690   32.8150   40.8250 C   0  0  0  0  0  0  0  0  0  0  0  0
   38.4230   34.2770   40.7420 C   0  0  0  0  0  0  0  0  0  0  0  0
   37.0930   34.5290   40.5120 O   0  0  0  0  0  0  0  0  0  0  0  0
   36.2410   33.8850   41.3890 C   0  0  0  0  0  0  0  0  0  0  0  0
   36.4240   32.3790   41.1670 C   0  0  0  0  0  0  0  0  0  0  0  0
   34.9060   30.5150   49.8880 O   0  0  0  0  0  0  0  0  0  0  0  0
   34.6750   29.3150   50.5570 C   0  0  0  0  0  0  0  0  0  0  0  0
   35.0480   29.3090   51.8820 F   0  0  0  0  0  0  0  0  0  0  0  0
   33.3050   29.0780   50.5290 F   0  0  0  0  0  0  0  0  0  0  0  0
   35.3610   28.3250   49.8420 F   0  0  0  0  0  0  0  0  0  0  0  0
   35.2559   29.3062   45.5924 H   0  0  0  0  0  0  0  0  0  0  0  0
   34.1389   29.2856   47.7368 H   0  0  0  0  0  0  0  0  0  0  0  0
   36.6977   31.9120   50.5366 H   0  0  0  0  0  0  0  0  0  0  0  0
   38.7815   33.2203   50.3373 H   0  0  0  0  0  0  0  0  0  0  0  0
   39.9566   33.2534   48.1263 H   0  0  0  0  0  0  0  0  0  0  0  0
   39.0257   32.0114   46.2472 H   0  0  0  0  0  0  0  0  0  0  0  0
   40.0340   28.6517   43.7338 H   0  0  0  0  0  0  0  0  0  0  0  0
   39.7074   30.0672   41.6760 H   0  0  0  0  0  0  0  0  0  0  0  0
   39.7522   32.7069   41.3062 H   0  0  0  0  0  0  0  0  0  0  0  0
   38.7862   32.4053   39.8043 H   0  0  0  0  0  0  0  0  0  0  0  0
   38.7047   34.7526   41.6931 H   0  0  0  0  0  0  0  0  0  0  0  0
   38.9749   34.6838   39.8818 H   0  0  0  0  0  0  0  0  0  0  0  0
   36.4970   34.1479   42.4260 H   0  0  0  0  0  0  0  0  0  0  0  0
   35.1971   34.1838   41.2130 H   0  0  0  0  0  0  0  0  0  0  0  0
   35.6911   31.8133   41.7610 H   0  0  0  0  0  0  0  0  0  0  0  0
   36.2701   32.1057   40.1127 H   0  0  0  0  0  0  0  0  0  0  0  0
  1  2  2  0
  1 10  1  0
  2  3  1  0
  3  4  2  0
  4 23  1  0
  5  4  1  0
  5  6  2  0
  7  6  1  0
  8  7  2  0
  9 10  2  0
  9  8  1  0
 10  5  1  0
 11 16  2  0
 12 13  2  0
 12 11  1  0
 13 14  1  0
 14 15  2  0
 15  1  1  0
 16 15  1  0
 17 13  1  0
 18 17  1  0
 19 18  1  0
 20 19  1  0
 20 21  1  0
 22 21  1  0
 22 17  1  0
 23 24  1  0
 24 25  1  0
 26 24  1  0
 27 24  1  0
  2 28  1  0
  3 29  1  0
  6 30  1  0
  7 31  1  0
  8 32  1  0
  9 33  1  0
 11 34  1  0
 12 35  1  0
 18 36  1  0
 18 37  1  0
 19 38  1  0
 19 39  1  0
 21 40  1  0
 21 41  1  0
 22 42  1  0
 22 43  1  0
M  ISO  8  28  14  29  14  30  14  31  14  32  14  33  14  34  14  35  14
M  ISO  8  36  13  37  13  38  13  39  13  40  13  41  13  42  13  43  13
M  END
>  <minimizedAffinity>  (1) 
-6.52467155

>  <minimizedRMSD>  (1) 
3.79107809

$$$$
