
     RDKit          3D

 39 41  0  0  0  0  0  0  0  0999 V2000
   36.8480   30.7850   46.0970 C   0  0  0  0  0  0  0  0  0  0  0  0
   35.8400   30.0280   46.6610 C   0  0  0  0  0  0  0  0  0  0  0  0
   35.5270   29.9780   47.9800 C   0  0  0  0  0  0  0  0  0  0  0  0
   36.2470   30.7280   48.8760 C   0  0  0  0  0  0  0  0  0  0  0  0
   37.2480   31.4930   48.3990 C   0  0  0  0  0  0  0  0  0  0  0  0
   37.9720   32.2460   49.3000 C   0  0  0  0  0  0  0  0  0  0  0  0
   39.0010   33.0450   48.9010 C   0  0  0  0  0  0  0  0  0  0  0  0
   39.3090   33.0860   47.5500 C   0  0  0  0  0  0  0  0  0  0  0  0
   38.5700   32.3260   46.6870 C   0  0  0  0  0  0  0  0  0  0  0  0
   37.5410   31.5220   47.0530 C   0  0  0  0  0  0  0  0  0  0  0  0
   36.1120   31.3250   42.6130 C   0  0  0  0  0  0  0  0  0  0  0  0
   37.2950   31.0070   41.9170 C   0  0  0  0  0  0  0  0  0  0  0  0
   38.3650   30.5990   42.6470 C   0  0  0  0  0  0  0  0  0  0  0  0
   38.1820   30.5410   43.9680 N   0  0  0  0  0  0  0  0  0  0  0  0
   37.1490   30.8100   44.6830 C   0  0  0  0  0  0  0  0  0  0  0  0
   36.1150   31.2080   43.9420 N   0  0  0  0  0  0  0  0  0  0  0  0
   39.6180   30.2380   42.1070 N   0  0  0  0  0  0  0  0  0  0  0  0
   40.7480   29.9240   42.9030 C   0  0  0  0  0  0  0  0  0  0  0  0
   40.9570   30.6540   43.9550 N   0  0  0  0  0  0  0  0  0  0  0  0
   41.6030   28.8590   42.5630 N   0  0  0  0  0  0  0  0  0  0  0  0
   41.6970   30.5360   44.6390 H   0  0  0  0  0  0  0  0  0  0  0  0
   37.4080   31.0940   40.5010 N   0  0  0  0  0  0  0  0  0  0  0  0
   35.9260   30.6750   50.2140 O   0  0  0  0  0  0  0  0  0  0  0  0
   36.4220   29.6450   51.0330 C   0  0  0  0  0  0  0  0  0  0  0  0
   37.2370   28.7370   50.4090 F   0  0  0  0  0  0  0  0  0  0  0  0
   37.1950   30.2370   52.0210 F   0  0  0  0  0  0  0  0  0  0  0  0
   35.3110   28.9970   51.5800 F   0  0  0  0  0  0  0  0  0  0  0  0
   35.2368   29.4101   45.9795 H   0  0  0  0  0  0  0  0  0  0  0  0
   34.7014   29.3404   48.3292 H   0  0  0  0  0  0  0  0  0  0  0  0
   37.7119   32.2002   50.3678 H   0  0  0  0  0  0  0  0  0  0  0  0
   39.5708   33.6402   49.6297 H   0  0  0  0  0  0  0  0  0  0  0  0
   40.1308   33.7168   47.1803 H   0  0  0  0  0  0  0  0  0  0  0  0
   38.8286   32.3697   45.6187 H   0  0  0  0  0  0  0  0  0  0  0  0
   35.2121   31.6600   42.0763 H   0  0  0  0  0  0  0  0  0  0  0  0
   39.7163   30.2008   41.0824 H   0  0  0  0  0  0  0  0  0  0  0  0
   42.4195   28.6455   43.1534 H   0  0  0  0  0  0  0  0  0  0  0  0
   41.4122   28.2931   41.7238 H   0  0  0  0  0  0  0  0  0  0  0  0
   38.2958   30.8501   40.0393 H   0  0  0  0  0  0  0  0  0  0  0  0
   36.6020   31.4009   39.9379 H   0  0  0  0  0  0  0  0  0  0  0  0
  1  2  2  0
  1 10  1  0
  2  3  1  0
  3  4  2  0
  4 23  1  0
  5  4  1  0
  5  6  2  0
  7  6  1  0
  8  7  2  0
  9 10  2  0
  9  8  1  0
 10  5  1  0
 11 16  2  0
 12 11  1  0
 12 13  2  0
 13 14  1  0
 14 15  2  0
 15  1  1  0
 16 15  1  0
 17 13  1  0
 17 18  1  0
 18 19  2  0
 19 21  1  0
 20 18  1  0
 22 12  1  0
 23 24  1  0
 24 27  1  0
 24 26  1  0
 25 24  1  0
  2 28  1  0
  3 29  1  0
  6 30  1  0
  7 31  1  0
  8 32  1  0
  9 33  1  0
 11 34  1  0
 17 35  1  0
 20 36  1  0
 20 37  1  0
 22 38  1  0
 22 39  1  0
M  ISO  7  28  14  29  14  30  14  31  14  32  14  33  14  34  14
M  END
>  <minimizedAffinity>  (1) 
-7.54943657

>  <minimizedRMSD>  (1) 
0.0121537689

$$$$
