
     RDKit          3D

 22 23  0  0  0  0  0  0  0  0999 V2000
   34.8970   29.3350   48.5470 C   0  0  0  0  0  0  0  0  0  0  0  0
   34.4380   29.7790   47.2870 C   0  0  0  0  0  0  0  0  0  0  0  0
   33.2240   29.2560   46.8010 C   0  0  0  0  0  0  0  0  0  0  0  0
   32.5620   28.3510   47.5750 N   0  0  0  0  0  0  0  0  0  0  0  0
   33.0360   27.9460   48.7840 C   0  0  0  0  0  0  0  0  0  0  0  0
   34.2020   28.4420   49.2600 N   0  0  0  0  0  0  0  0  0  0  0  0
   36.1180   29.8260   49.0920 N   0  0  0  0  0  0  0  0  0  0  0  0
   36.8810   30.9890   48.6800 C   0  0  0  0  0  0  0  0  0  0  0  0
   37.1400   31.6720   49.9970 C   0  0  0  0  0  0  0  0  0  0  0  0
   37.5740   30.5130   50.8530 C   0  0  0  0  0  0  0  0  0  0  0  0
   36.9300   29.3290   50.1780 C   0  0  0  0  0  0  0  0  0  0  0  0
   35.0124   30.5124   46.7020 H   0  0  0  0  0  0  0  0  0  0  0  0
   32.8224   29.5688   45.8259 H   0  0  0  0  0  0  0  0  0  0  0  0
   32.4697   27.2128   49.3770 H   0  0  0  0  0  0  0  0  0  0  0  0
   37.8210   30.6975   48.1886 H   0  0  0  0  0  0  0  0  0  0  0  0
   36.3638   31.6226   47.9445 H   0  0  0  0  0  0  0  0  0  0  0  0
   37.9351   32.4270   49.9090 H   0  0  0  0  0  0  0  0  0  0  0  0
   36.2760   32.2252   50.3940 H   0  0  0  0  0  0  0  0  0  0  0  0
   38.6697   30.4158   50.8599 H   0  0  0  0  0  0  0  0  0  0  0  0
   37.2812   30.6212   51.9078 H   0  0  0  0  0  0  0  0  0  0  0  0
   36.3001   28.7854   50.8975 H   0  0  0  0  0  0  0  0  0  0  0  0
   37.6982   28.6393   49.7982 H   0  0  0  0  0  0  0  0  0  0  0  0
  1  7  1  0
  1  6  1  0
  2  1  2  0
  3  2  1  0
  3  4  2  0
  4  5  1  0
  5  6  2  0
  7 11  1  0
  8  7  1  0
  8  9  1  0
  9 10  1  0
 11 10  1  0
  2 12  1  0
  3 13  1  0
  5 14  1  0
  8 15  1  0
  8 16  1  0
  9 17  1  0
  9 18  1  0
 10 19  1  0
 10 20  1  0
 11 21  1  0
 11 22  1  0
M  ISO  8  12  14  13  14  14  14  15  13  16  13  17  13  18  13  19  13
M  ISO  3  20  13  21  13  22  13
M  END
>  <minimizedAffinity>  (1) 
-3.85269713

>  <minimizedRMSD>  (1) 
4.2666688

$$$$
