
     RDKit          3D

 35 37  0  0  1  0  0  0  0  0999 V2000
   37.5570   31.1450   47.0920 N   0  0  0  0  0  0  0  0  0  0  0  0
   39.0090   31.3120   47.0980 C   0  0  0  0  0  0  0  0  0  0  0  0
   39.1320   32.7280   47.6000 C   0  0  0  0  0  0  0  0  0  0  0  0
   38.2210   32.6660   48.7970 C   0  0  0  0  0  0  0  0  0  0  0  0
   37.2380   31.6140   48.4040 C   0  0  2  0  0  0  0  0  0  0  0  0
   36.7580   30.6420   46.0220 C   0  0  0  0  0  0  0  0  0  0  0  0
   37.1930   30.6580   44.6870 C   0  0  0  0  0  0  0  0  0  0  0  0
   36.3190   30.1360   43.7200 C   0  0  0  0  0  0  0  0  0  0  0  0
   35.1170   29.6470   44.1130 N   0  0  0  0  0  0  0  0  0  0  0  0
   34.7280   29.6470   45.4190 C   0  0  0  0  0  0  0  0  0  0  0  0
   35.5700   30.1520   46.3570 N   0  0  0  0  0  0  0  0  0  0  0  0
   37.1740   30.5090   49.4300 C   0  0  0  0  0  0  0  0  0  0  0  0
   35.7940   30.2500   49.9280 C   0  0  0  0  0  0  0  0  0  0  0  0
   36.0750   29.3880   51.1610 C   0  0  0  0  0  0  0  0  0  0  0  0
   37.4060   29.8910   51.6950 C   0  0  0  0  0  0  0  0  0  0  0  0
   37.9400   30.8670   50.6780 C   0  0  0  0  0  0  0  0  0  0  0  0
   39.4952   30.5980   47.7790 H   0  0  0  0  0  0  0  0  0  0  0  0
   39.4908   31.1315   46.1258 H   0  0  0  0  0  0  0  0  0  0  0  0
   40.1659   32.9702   47.8869 H   0  0  0  0  0  0  0  0  0  0  0  0
   38.8739   33.5030   46.8632 H   0  0  0  0  0  0  0  0  0  0  0  0
   38.7739   32.3745   49.7021 H   0  0  0  0  0  0  0  0  0  0  0  0
   37.7541   33.6314   49.0419 H   0  0  0  0  0  0  0  0  0  0  0  0
   36.2254   32.0427   48.3736 H   0  0  0  0  0  0  0  0  0  0  0  0
   38.1777   31.0627   44.4102 H   0  0  0  0  0  0  0  0  0  0  0  0
   36.6056   30.1239   42.6580 H   0  0  0  0  0  0  0  0  0  0  0  0
   33.7465   29.2439   45.7091 H   0  0  0  0  0  0  0  0  0  0  0  0
   37.5859   29.6367   48.9013 H   0  0  0  0  0  0  0  0  0  0  0  0
   35.2819   31.1851   50.1990 H   0  0  0  0  0  0  0  0  0  0  0  0
   35.1309   29.7759   49.1894 H   0  0  0  0  0  0  0  0  0  0  0  0
   35.2825   29.5178   51.9127 H   0  0  0  0  0  0  0  0  0  0  0  0
   36.1050   28.3155   50.9183 H   0  0  0  0  0  0  0  0  0  0  0  0
   37.2607   30.3934   52.6627 H   0  0  0  0  0  0  0  0  0  0  0  0
   38.1088   29.0595   51.8524 H   0  0  0  0  0  0  0  0  0  0  0  0
   39.0217   30.7320   50.5304 H   0  0  0  0  0  0  0  0  0  0  0  0
   37.8139   31.9179   50.9777 H   0  0  0  0  0  0  0  0  0  0  0  0
  1  2  1  0
  1  5  1  0
  2  3  1  0
  3  4  1  0
  5  4  1  0
  5 12  1  0
  6 11  1  0
  6  1  1  0
  7  6  2  0
  8  9  2  0
  8  7  1  0
  9 10  1  0
 10 11  2  0
 12 13  1  0
 12 16  1  0
 13 14  1  0
 14 15  1  0
 16 15  1  0
  2 17  1  0
  2 18  1  0
  3 19  1  0
  3 20  1  0
  4 21  1  0
  4 22  1  0
  5 23  1  6
  7 24  1  0
  8 25  1  0
 10 26  1  0
 12 27  1  0
 13 28  1  0
 13 29  1  0
 14 30  1  0
 14 31  1  0
 15 32  1  0
 15 33  1  0
 16 34  1  0
 16 35  1  0
M  ISO  8  17  13  18  13  19  13  20  13  21  13  22  13  23  13  24  14
M  ISO  8  25  14  26  14  27  13  28  13  29  13  30  13  31  13  32  13
M  ISO  3  33  13  34  13  35  13
M  END
>  <minimizedAffinity>  (1) 
-5.39860868

>  <minimizedRMSD>  (1) 
3.56096959

$$$$
