
     RDKit          3D

 24 25  0  0  1  0  0  0  0  0999 V2000
   36.7170   29.7780   48.9670 N   0  0  0  0  0  0  0  0  0  0  0  0
   37.7820   30.4450   48.2320 C   0  0  0  0  0  0  0  0  0  0  0  0
   38.1740   31.5320   49.1750 C   0  0  0  0  0  0  0  0  0  0  0  0
   38.1990   30.8410   50.5020 C   0  0  0  0  0  0  0  0  0  0  0  0
   37.3050   29.6580   50.2920 C   0  0  1  0  0  0  0  0  0  0  0  0
   35.4520   29.3660   48.4870 C   0  0  0  0  0  0  0  0  0  0  0  0
   34.8240   30.0480   47.4330 C   0  0  0  0  0  0  0  0  0  0  0  0
   33.5560   29.5710   47.0120 C   0  0  0  0  0  0  0  0  0  0  0  0
   33.0190   28.4820   47.6490 N   0  0  0  0  0  0  0  0  0  0  0  0
   33.6640   27.8610   48.6600 C   0  0  0  0  0  0  0  0  0  0  0  0
   34.8680   28.3180   49.0570 N   0  0  0  0  0  0  0  0  0  0  0  0
   36.3040   29.5020   51.3290 N   0  0  0  0  0  0  0  0  0  0  0  0
   38.6221   29.7621   48.0375 H   0  0  0  0  0  0  0  0  0  0  0  0
   37.4770   30.8071   47.2391 H   0  0  0  0  0  0  0  0  0  0  0  0
   39.1655   31.9354   48.9216 H   0  0  0  0  0  0  0  0  0  0  0  0
   37.4895   32.3927   49.1497 H   0  0  0  0  0  0  0  0  0  0  0  0
   39.2195   30.5225   50.7611 H   0  0  0  0  0  0  0  0  0  0  0  0
   37.8706   31.4869   51.3296 H   0  0  0  0  0  0  0  0  0  0  0  0
   37.9039   28.7378   50.3586 H   0  0  0  0  0  0  0  0  0  0  0  0
   35.2962   30.9176   46.9526 H   0  0  0  0  0  0  0  0  0  0  0  0
   33.0148   30.0646   46.1914 H   0  0  0  0  0  0  0  0  0  0  0  0
   33.2105   26.9897   49.1551 H   0  0  0  0  0  0  0  0  0  0  0  0
   36.7533   29.5720   52.2532 H   0  0  0  0  0  0  0  0  0  0  0  0
   35.5943   30.2425   51.2353 H   0  0  0  0  0  0  0  0  0  0  0  0
  1  5  1  0
  2  1  1  0
  2  3  1  0
  3  4  1  0
  5  4  1  0
  5 12  1  0
  6  1  1  0
  6 11  1  0
  7  6  2  0
  8  7  1  0
  8  9  2  0
  9 10  1  0
 10 11  2  0
  2 13  1  0
  2 14  1  0
  3 15  1  0
  3 16  1  0
  4 17  1  0
  4 18  1  0
  5 19  1  6
  7 20  1  0
  8 21  1  0
 10 22  1  0
 12 23  1  0
 12 24  1  0
M  ISO  8  13  13  14  13  15  13  16  13  17  13  18  13  19  13  20  14
M  ISO  4  21  14  22  14  23   5  24   5
M  END
>  <minimizedAffinity>  (1) 
-4.36595106

>  <minimizedRMSD>  (1) 
0.777808845

$$$$
