
     RDKit          3D

 33 36  0  0  1  0  0  0  0  0999 V2000
   35.2210   29.4110   47.7900 N   0  0  0  0  0  0  0  0  0  0  0  0
   33.8880   28.9890   47.3710 C   0  0  0  0  0  0  0  0  0  0  0  0
   33.4730   30.1130   46.4890 C   0  0  0  0  0  0  0  0  0  0  0  0
   34.6980   30.3900   45.6770 C   0  0  0  0  0  0  0  0  0  0  0  0
   35.7960   29.8260   46.5250 C   0  0  1  0  0  0  0  0  0  0  0  0
   36.8960   30.7050   46.7390 N   0  0  0  0  0  0  0  0  0  0  0  0
   37.0210   31.6290   47.7340 C   0  0  0  0  0  0  0  0  0  0  0  0
   38.1790   32.2880   47.6440 N   0  0  0  0  0  0  0  0  0  0  0  0
   38.8590   31.8300   46.5970 C   0  0  0  0  0  0  0  0  0  0  0  0
   40.0850   32.1390   46.0450 C   0  0  0  0  0  0  0  0  0  0  0  0
   40.5040   31.4680   44.9390 N   0  0  0  0  0  0  0  0  0  0  0  0
   39.7110   30.5060   44.3990 C   0  0  0  0  0  0  0  0  0  0  0  0
   38.5080   30.2080   44.9480 N   0  0  0  0  0  0  0  0  0  0  0  0
   38.0520   30.8530   46.0480 C   0  0  0  0  0  0  0  0  0  0  0  0
   35.7640   29.3980   49.0940 C   0  0  0  0  0  0  0  0  0  0  0  0
   34.9450   29.5510   50.2230 C   0  0  0  0  0  0  0  0  0  0  0  0
   35.5820   29.5220   51.4910 C   0  0  0  0  0  0  0  0  0  0  0  0
   36.9430   29.3490   51.5440 N   0  0  0  0  0  0  0  0  0  0  0  0
   37.6850   29.2060   50.4250 C   0  0  0  0  0  0  0  0  0  0  0  0
   37.0740   29.2340   49.2230 N   0  0  0  0  0  0  0  0  0  0  0  0
   33.9246   28.0389   46.8178 H   0  0  0  0  0  0  0  0  0  0  0  0
   33.1979   28.8020   48.2069 H   0  0  0  0  0  0  0  0  0  0  0  0
   32.6324   29.8171   45.8441 H   0  0  0  0  0  0  0  0  0  0  0  0
   33.1234   30.9918   47.0506 H   0  0  0  0  0  0  0  0  0  0  0  0
   34.6500   29.8821   44.7024 H   0  0  0  0  0  0  0  0  0  0  0  0
   34.8330   31.4566   45.4444 H   0  0  0  0  0  0  0  0  0  0  0  0
   36.2257   28.9750   45.9762 H   0  0  0  0  0  0  0  0  0  0  0  0
   36.2642   31.8087   48.5118 H   0  0  0  0  0  0  0  0  0  0  0  0
   40.7165   32.9194   46.4945 H   0  0  0  0  0  0  0  0  0  0  0  0
   40.0495   29.9620   43.5049 H   0  0  0  0  0  0  0  0  0  0  0  0
   33.8575   29.6874   50.1295 H   0  0  0  0  0  0  0  0  0  0  0  0
   34.9958   29.6361   52.4148 H   0  0  0  0  0  0  0  0  0  0  0  0
   38.7742   29.0684   50.4929 H   0  0  0  0  0  0  0  0  0  0  0  0
  1 15  1  0
  2  1  1  0
  3  2  1  0
  4  3  1  0
  4  5  1  0
  5  6  1  0
  5  1  1  0
  6  7  1  0
  8  7  2  0
  9  8  1  0
 10  9  2  0
 11 10  1  0
 12 11  2  0
 12 13  1  0
 13 14  2  0
 14  9  1  0
 14  6  1  0
 15 20  1  0
 15 16  2  0
 16 17  1  0
 17 18  2  0
 19 18  1  0
 20 19  2  0
  2 21  1  0
  2 22  1  0
  3 23  1  0
  3 24  1  0
  4 25  1  0
  4 26  1  0
  5 27  1  6
  7 28  1  0
 10 29  1  0
 12 30  1  0
 16 31  1  0
 17 32  1  0
 19 33  1  0
M  ISO  8  21  13  22  13  23  13  24  13  25  13  26  13  27  13  28  14
M  ISO  5  29  14  30  14  31  14  32  14  33  14
M  END
>  <minimizedAffinity>  (1) 
-4.31978703

>  <minimizedRMSD>  (1) 
6.49987173

$$$$
