
     RDKit          3D

 28 30  0  0  1  0  0  0  0  0999 V2000
   37.1350   30.7060   46.5600 N   0  0  0  0  0  0  0  0  0  0  0  0
   37.8430   31.2860   45.4380 C   0  0  0  0  0  0  0  0  0  0  0  0
   38.5180   32.4580   46.0670 C   0  0  0  0  0  0  0  0  0  0  0  0
   38.9940   31.9340   47.3810 C   0  0  0  0  0  0  0  0  0  0  0  0
   38.1790   30.6830   47.5700 C   0  0  1  0  0  0  0  0  0  0  0  0
   35.7800   30.2760   46.6410 C   0  0  0  0  0  0  0  0  0  0  0  0
   35.1930   29.6280   45.5180 C   0  0  0  0  0  0  0  0  0  0  0  0
   33.8390   29.2190   45.6570 C   0  0  0  0  0  0  0  0  0  0  0  0
   33.1990   29.4660   46.8290 N   0  0  0  0  0  0  0  0  0  0  0  0
   33.8130   30.0890   47.8640 C   0  0  0  0  0  0  0  0  0  0  0  0
   35.0950   30.4900   47.7700 N   0  0  0  0  0  0  0  0  0  0  0  0
   37.7230   30.4780   48.8990 N   0  0  0  0  0  0  0  0  0  0  0  0
   37.4390   31.3880   49.8320 C   0  0  0  0  0  0  0  0  0  0  0  0
   37.0310   30.7900   50.9790 N   0  0  0  0  0  0  0  0  0  0  0  0
   37.0700   29.4700   50.7290 C   0  0  0  0  0  0  0  0  0  0  0  0
   37.4890   29.2860   49.4700 N   0  0  0  0  0  0  0  0  0  0  0  0
   37.1470   31.6030   44.6473 H   0  0  0  0  0  0  0  0  0  0  0  0
   38.5356   30.5891   44.9434 H   0  0  0  0  0  0  0  0  0  0  0  0
   39.3637   32.7993   45.4520 H   0  0  0  0  0  0  0  0  0  0  0  0
   37.8508   33.3262   46.1725 H   0  0  0  0  0  0  0  0  0  0  0  0
   40.0689   31.7028   47.3471 H   0  0  0  0  0  0  0  0  0  0  0  0
   38.8720   32.6557   48.2022 H   0  0  0  0  0  0  0  0  0  0  0  0
   38.8096   29.7936   47.4242 H   0  0  0  0  0  0  0  0  0  0  0  0
   35.7580   29.4528   44.5906 H   0  0  0  0  0  0  0  0  0  0  0  0
   33.3192   28.7119   44.8308 H   0  0  0  0  0  0  0  0  0  0  0  0
   33.2557   30.2699   48.7950 H   0  0  0  0  0  0  0  0  0  0  0  0
   37.5241   32.4755   49.6904 H   0  0  0  0  0  0  0  0  0  0  0  0
   36.8026   28.6739   51.4394 H   0  0  0  0  0  0  0  0  0  0  0  0
  1  6  1  0
  1  5  1  0
  2  3  1  0
  2  1  1  0
  3  4  1  0
  4  5  1  0
  5 12  1  0
  6 11  2  0
  7  8  2  0
  7  6  1  0
  8  9  1  0
  9 10  2  0
 11 10  1  0
 12 16  1  0
 12 13  1  0
 13 14  2  0
 15 14  1  0
 16 15  2  0
  2 17  1  0
  2 18  1  0
  3 19  1  0
  3 20  1  0
  4 21  1  0
  4 22  1  0
  5 23  1  6
  7 24  1  0
  8 25  1  0
 10 26  1  0
 13 27  1  0
 15 28  1  0
M  ISO  8  17  13  18  13  19  13  20  13  21  13  22  13  23  13  24  14
M  ISO  4  25  14  26  14  27  14  28  14
M  END
>  <minimizedAffinity>  (1) 
-4.02776623

>  <minimizedRMSD>  (1) 
3.15030885

$$$$
