
     RDKit          3D

 39 42  0  0  0  0  0  0  0  0999 V2000
   38.2970   32.3700   44.9110 C   0  0  0  0  0  0  0  0  0  0  0  0
   38.8640   31.7590   43.6680 C   0  0  0  0  0  0  0  0  0  0  0  0
   39.4420   32.5800   42.6610 C   0  0  0  0  0  0  0  0  0  0  0  0
   39.9490   31.3200   41.4230 S   0  0  0  0  0  0  0  0  0  0  0  0
   39.2830   29.9140   42.4990 C   0  0  0  0  0  0  0  0  0  0  0  0
   38.8860   30.4730   43.3930 N   0  0  0  0  0  0  0  0  0  0  0  0
   39.3730   28.5540   42.0740 N   0  0  0  0  0  0  0  0  0  0  0  0
   38.8680   27.4580   42.6630 C   0  0  0  0  0  0  0  0  0  0  0  0
   39.1980   26.3840   41.9110 N   0  0  0  0  0  0  0  0  0  0  0  0
   39.9080   26.8520   40.8600 C   0  0  0  0  0  0  0  0  0  0  0  0
   40.4950   26.2170   39.7830 C   0  0  0  0  0  0  0  0  0  0  0  0
   41.1750   26.9050   38.8280 N   0  0  0  0  0  0  0  0  0  0  0  0
   41.2630   28.2330   38.9580 C   0  0  0  0  0  0  0  0  0  0  0  0
   40.7070   28.9020   39.9930 N   0  0  0  0  0  0  0  0  0  0  0  0
   40.0190   28.2350   40.9660 C   0  0  0  0  0  0  0  0  0  0  0  0
   39.2200   32.3120   46.0820 C   0  0  0  0  0  0  0  0  0  0  0  0
   37.7630   32.5790   49.5710 C   0  0  0  0  0  0  0  0  0  0  0  0
   38.5980   32.8490   48.4740 C   0  0  0  0  0  0  0  0  0  0  0  0
   38.4230   32.1320   47.2990 C   0  0  0  0  0  0  0  0  0  0  0  0
   37.4200   31.1800   47.2790 N   0  0  0  0  0  0  0  0  0  0  0  0
   36.6310   30.9360   48.3380 C   0  0  0  0  0  0  0  0  0  0  0  0
   36.7990   31.6330   49.4860 N   0  0  0  0  0  0  0  0  0  0  0  0
   40.1040   31.0530   45.9430 C   0  0  0  0  0  0  0  0  0  0  0  0
   40.1120   33.5030   46.1090 C   0  0  0  0  0  0  0  0  0  0  0  0
   37.3721   31.8342   45.1708 H   0  0  0  0  0  0  0  0  0  0  0  0
   38.1187   33.4336   44.6942 H   0  0  0  0  0  0  0  0  0  0  0  0
   39.5551   33.6738   42.6311 H   0  0  0  0  0  0  0  0  0  0  0  0
   38.2862   27.4375   43.5963 H   0  0  0  0  0  0  0  0  0  0  0  0
   40.4098   25.1238   39.6956 H   0  0  0  0  0  0  0  0  0  0  0  0
   41.8094   28.8037   38.1926 H   0  0  0  0  0  0  0  0  0  0  0  0
   37.8939   33.1414   50.5072 H   0  0  0  0  0  0  0  0  0  0  0  0
   39.3804   33.6189   48.5456 H   0  0  0  0  0  0  0  0  0  0  0  0
   35.8464   30.1679   48.2723 H   0  0  0  0  0  0  0  0  0  0  0  0
   40.3675   30.6778   46.9429 H   0  0  0  0  0  0  0  0  0  0  0  0
   39.5520   30.2762   45.3936 H   0  0  0  0  0  0  0  0  0  0  0  0
   41.0221   31.3084   45.3936 H   0  0  0  0  0  0  0  0  0  0  0  0
   40.3205   33.7814   47.1526 H   0  0  0  0  0  0  0  0  0  0  0  0
   41.0563   33.2656   45.5972 H   0  0  0  0  0  0  0  0  0  0  0  0
   39.6185   34.3424   45.5972 H   0  0  0  0  0  0  0  0  0  0  0  0
  1 16  1  0
  2  1  1  0
  3  2  2  0
  4  5  1  0
  4  3  1  0
  5  6  2  0
  6  2  1  0
  7  5  1  0
  7  8  1  0
  9  8  2  0
 10 15  2  0
 10  9  1  0
 11 10  1  0
 12 13  1  0
 12 11  2  0
 13 14  2  0
 14 15  1  0
 15  7  1  0
 16 24  1  0
 16 19  1  0
 18 17  2  0
 19 18  1  0
 20 19  2  0
 20 21  1  0
 21 22  2  0
 22 17  1  0
 23 16  1  0
  1 25  1  0
  1 26  1  0
  3 27  1  0
  8 28  1  0
 11 29  1  0
 13 30  1  0
 17 31  1  0
 18 32  1  0
 21 33  1  0
 23 34  1  0
 23 35  1  0
 23 36  1  0
 24 37  1  0
 24 38  1  0
 24 39  1  0
M  ISO  8  25   8  26   8  27  14  28  14  29  14  30  14  31  14  32  14
M  ISO  7  33  14  34   8  35   8  36   8  37   8  38   8  39   8
M  END
>  <minimizedAffinity>  (1) 
-5.70249987

>  <minimizedRMSD>  (1) 
0.770265579

$$$$
