
     RDKit          3D

 52 55  0  0  1  0  0  0  0  0999 V2000
   37.4880   30.8430   48.0130 N   0  0  0  0  0  0  0  0  0  0  0  0
   38.4180   30.9780   49.0470 C   0  0  0  0  0  0  0  0  0  0  0  0
   37.9850   30.1340   50.2190 C   0  0  0  0  0  0  0  0  0  0  0  0
   36.7340   30.7140   50.7490 C   0  0  0  0  0  0  0  0  0  0  0  0
   35.6650   30.8870   49.7010 C   0  0  0  0  0  0  0  0  0  0  0  0
   36.1100   30.7470   48.2940 C   0  0  2  0  0  0  0  0  0  0  0  0
   38.3290   31.0220   45.7390 N   0  0  0  0  0  0  0  0  0  0  0  0
   39.7400   31.0620   45.9980 C   0  0  0  0  0  0  0  0  0  0  0  0
   39.9410   32.5300   46.3250 C   0  0  0  0  0  0  0  0  0  0  0  0
   38.7760   32.7480   47.2970 C   0  0  0  0  0  0  0  0  0  0  0  0
   37.8510   31.6840   46.9230 C   0  0  2  0  0  0  0  0  0  0  0  0
   37.6550   30.4720   44.6200 C   0  0  0  0  0  0  0  0  0  0  0  0
   38.0870   29.3080   43.9810 C   0  0  0  0  0  0  0  0  0  0  0  0
   37.3380   28.8420   42.8680 C   0  0  0  0  0  0  0  0  0  0  0  0
   36.2350   29.5600   42.4830 N   0  0  0  0  0  0  0  0  0  0  0  0
   35.8480   30.6820   43.1270 C   0  0  0  0  0  0  0  0  0  0  0  0
   36.5750   31.1100   44.1870 N   0  0  0  0  0  0  0  0  0  0  0  0
   35.4260   29.6630   47.6290 N   0  0  0  0  0  0  0  0  0  0  0  0
   34.5250   30.0590   46.6040 C   0  0  0  0  0  0  0  0  0  0  0  0
   33.0960   29.6830   46.7690 C   0  0  0  0  0  0  0  0  0  0  0  0
   32.8250   28.4080   47.4830 C   0  0  0  0  0  0  0  0  0  0  0  0
   34.0990   27.6480   47.7400 C   0  0  0  0  0  0  0  0  0  0  0  0
   35.0190   28.5970   48.4750 C   0  0  0  0  0  0  0  0  0  0  0  0
   39.4063   30.6437   48.6985 H   0  0  0  0  0  0  0  0  0  0  0  0
   38.4776   32.0326   49.3540 H   0  0  0  0  0  0  0  0  0  0  0  0
   37.8091   29.0988   49.8911 H   0  0  0  0  0  0  0  0  0  0  0  0
   38.7644   30.1217   50.9952 H   0  0  0  0  0  0  0  0  0  0  0  0
   36.3472   30.0495   51.5356 H   0  0  0  0  0  0  0  0  0  0  0  0
   36.9772   31.7153   51.1340 H   0  0  0  0  0  0  0  0  0  0  0  0
   34.8868   30.1317   49.8853 H   0  0  0  0  0  0  0  0  0  0  0  0
   35.3149   31.9250   49.8009 H   0  0  0  0  0  0  0  0  0  0  0  0
   35.7836   31.6896   47.8303 H   0  0  0  0  0  0  0  0  0  0  0  0
   40.0117   30.4192   46.8483 H   0  0  0  0  0  0  0  0  0  0  0  0
   40.3610   30.6966   45.1668 H   0  0  0  0  0  0  0  0  0  0  0  0
   40.9134   32.7117   46.8060 H   0  0  0  0  0  0  0  0  0  0  0  0
   39.9496   33.2018   45.4540 H   0  0  0  0  0  0  0  0  0  0  0  0
   39.1041   32.6409   48.3415 H   0  0  0  0  0  0  0  0  0  0  0  0
   38.3356   33.7541   47.2358 H   0  0  0  0  0  0  0  0  0  0  0  0
   36.8796   32.1229   46.6517 H   0  0  0  0  0  0  0  0  0  0  0  0
   38.9802   28.7685   44.3291 H   0  0  0  0  0  0  0  0  0  0  0  0
   37.6346   27.9299   42.3294 H   0  0  0  0  0  0  0  0  0  0  0  0
   34.9584   31.2385   42.7969 H   0  0  0  0  0  0  0  0  0  0  0  0
   34.8778   29.6116   45.6631 H   0  0  0  0  0  0  0  0  0  0  0  0
   34.5324   31.1586   46.6311 H   0  0  0  0  0  0  0  0  0  0  0  0
   32.6000   30.4908   47.3271 H   0  0  0  0  0  0  0  0  0  0  0  0
   32.7144   29.5324   45.7484 H   0  0  0  0  0  0  0  0  0  0  0  0
   32.3398   28.6311   48.4447 H   0  0  0  0  0  0  0  0  0  0  0  0
   32.1698   27.7880   46.8534 H   0  0  0  0  0  0  0  0  0  0  0  0
   33.8951   26.7607   48.3573 H   0  0  0  0  0  0  0  0  0  0  0  0
   34.5526   27.2990   46.8006 H   0  0  0  0  0  0  0  0  0  0  0  0
   35.9087   28.0462   48.8142 H   0  0  0  0  0  0  0  0  0  0  0  0
   34.4772   29.0172   49.3352 H   0  0  0  0  0  0  0  0  0  0  0  0
  1  6  1  0
  1  2  1  0
  2  3  1  0
  3  4  1  0
  5  4  1  0
  6  5  1  0
  7  8  1  0
  7 11  1  0
  8  9  1  0
  9 10  1  0
 11 10  1  0
 11  1  1  0
 12  7  1  0
 13 12  2  0
 14 13  1  0
 15 14  2  0
 15 16  1  0
 16 17  2  0
 17 12  1  0
 18  6  1  0
 18 23  1  0
 19 20  1  0
 19 18  1  0
 20 21  1  0
 21 22  1  0
 22 23  1  0
  2 24  1  0
  2 25  1  0
  3 26  1  0
  3 27  1  0
  4 28  1  0
  4 29  1  0
  5 30  1  0
  5 31  1  0
  6 32  1  6
  8 33  1  0
  8 34  1  0
  9 35  1  0
  9 36  1  0
 10 37  1  0
 10 38  1  0
 11 39  1  6
 13 40  1  0
 14 41  1  0
 16 42  1  0
 19 43  1  0
 19 44  1  0
 20 45  1  0
 20 46  1  0
 21 47  1  0
 21 48  1  0
 22 49  1  0
 22 50  1  0
 23 51  1  0
 23 52  1  0
M  ISO  8  24  13  25  13  26  13  27  13  28  13  29  13  30  13  31  13
M  ISO  8  32  13  33  13  34  13  35  13  36  13  37  13  38  13  39  13
M  ISO  8  40  14  41  14  42  14  43  13  44  13  45  13  46  13  47  13
M  ISO  5  48  13  49  13  50  13  51  13  52  13
M  END
>  <minimizedAffinity>  (1) 
-5.61688662

>  <minimizedRMSD>  (1) 
1.69716811

$$$$
