
     RDKit          3D

 27 29  0  0  0  0  0  0  0  0999 V2000
   35.5730   29.2300   50.5510 C   0  0  0  0  0  0  0  0  0  0  0  0
   36.1810   30.2120   49.7720 C   0  0  0  0  0  0  0  0  0  0  0  0
   35.6090   30.4590   48.5280 C   0  0  0  0  0  0  0  0  0  0  0  0
   34.5100   29.7520   48.1380 N   0  0  0  0  0  0  0  0  0  0  0  0
   33.9530   28.8180   48.9080 C   0  0  0  0  0  0  0  0  0  0  0  0
   34.4970   28.5810   50.0940 N   0  0  0  0  0  0  0  0  0  0  0  0
   32.7900   27.9500   48.6990 C   0  0  0  0  0  0  0  0  0  0  0  0
   31.5750   28.1380   49.2440 N   0  0  0  0  0  0  0  0  0  0  0  0
   30.5100   27.3570   49.0620 C   0  0  0  0  0  0  0  0  0  0  0  0
   30.5860   26.2700   48.2760 N   0  0  0  0  0  0  0  0  0  0  0  0
   31.7650   25.9680   47.6650 C   0  0  0  0  0  0  0  0  0  0  0  0
   31.8070   24.8600   46.8760 C   0  0  0  0  0  0  0  0  0  0  0  0
   32.9770   24.5200   46.2400 C   0  0  0  0  0  0  0  0  0  0  0  0
   34.0820   25.3490   46.4430 C   0  0  0  0  0  0  0  0  0  0  0  0
   33.9560   26.4400   47.2470 C   0  0  0  0  0  0  0  0  0  0  0  0
   32.8120   26.8260   47.9060 C   0  0  0  0  0  0  0  0  0  0  0  0
   37.3710   30.9950   50.1850 C   0  0  0  0  0  0  0  0  0  0  0  0
   38.4420   30.8820   49.3770 F   0  0  0  0  0  0  0  0  0  0  0  0
   37.7560   30.6290   51.4650 F   0  0  0  0  0  0  0  0  0  0  0  0
   37.0240   32.3580   50.2330 F   0  0  0  0  0  0  0  0  0  0  0  0
   35.9790   28.9880   51.5443 H   0  0  0  0  0  0  0  0  0  0  0  0
   36.0411   31.2207   47.8624 H   0  0  0  0  0  0  0  0  0  0  0  0
   29.5608   27.6047   49.5597 H   0  0  0  0  0  0  0  0  0  0  0  0
   30.9082   24.2390   46.7478 H   0  0  0  0  0  0  0  0  0  0  0  0
   33.0403   23.6301   45.5966 H   0  0  0  0  0  0  0  0  0  0  0  0
   35.0434   25.1230   45.9587 H   0  0  0  0  0  0  0  0  0  0  0  0
   34.8483   27.0689   47.3817 H   0  0  0  0  0  0  0  0  0  0  0  0
  2 17  1  0
  2  1  2  0
  3  2  1  0
  4  3  2  0
  4  5  1  0
  5  6  2  0
  6  1  1  0
  7  5  1  0
  7  8  2  0
  9  8  1  0
 10  9  2  0
 11 16  2  0
 11 10  1  0
 12 11  1  0
 13 14  1  0
 13 12  2  0
 14 15  2  0
 15 16  1  0
 16  7  1  0
 17 20  1  0
 17 19  1  0
 18 17  1  0
  1 21  1  0
  3 22  1  0
  9 23  1  0
 12 24  1  0
 13 25  1  0
 14 26  1  0
 15 27  1  0
M  ISO  7  21  14  22  14  23  14  24  14  25  14  26  14  27  14
M  END
>  <minimizedAffinity>  (1) 
-5.5869751

>  <minimizedRMSD>  (1) 
1.73030579

$$$$
