
     RDKit          3D

 26 27  0  0  0  0  0  0  0  0999 V2000
   35.2960   29.2200   50.4050 C   0  0  0  0  0  0  0  0  0  0  0  0
   36.1290   30.1880   49.7960 C   0  0  0  0  0  0  0  0  0  0  0  0
   35.8220   30.5300   48.4800 C   0  0  0  0  0  0  0  0  0  0  0  0
   34.7620   29.9330   47.8530 N   0  0  0  0  0  0  0  0  0  0  0  0
   33.9980   29.0070   48.4930 C   0  0  0  0  0  0  0  0  0  0  0  0
   34.2700   28.6650   49.7470 N   0  0  0  0  0  0  0  0  0  0  0  0
   32.9210   28.4500   47.7480 N   0  0  0  0  0  0  0  0  0  0  0  0
   32.4690   29.0620   46.5350 C   0  0  0  0  0  0  0  0  0  0  0  0
   31.0040   28.9560   46.2890 C   0  0  0  0  0  0  0  0  0  0  0  0
   30.2740   28.1530   47.0830 O   0  0  0  0  0  0  0  0  0  0  0  0
   30.7810   27.6540   48.2340 C   0  0  0  0  0  0  0  0  0  0  0  0
   32.2370   27.2450   48.1820 C   0  0  0  0  0  0  0  0  0  0  0  0
   37.2720   30.8240   50.4900 C   0  0  0  0  0  0  0  0  0  0  0  0
   38.4880   30.4530   49.9860 F   0  0  0  0  0  0  0  0  0  0  0  0
   37.2810   30.5230   51.8310 F   0  0  0  0  0  0  0  0  0  0  0  0
   37.1910   32.1970   50.3430 F   0  0  0  0  0  0  0  0  0  0  0  0
   35.4957   28.9162   51.4432 H   0  0  0  0  0  0  0  0  0  0  0  0
   36.4293   31.2768   47.9475 H   0  0  0  0  0  0  0  0  0  0  0  0
   32.7334   30.1291   46.5712 H   0  0  0  0  0  0  0  0  0  0  0  0
   32.9605   28.5201   45.7135 H   0  0  0  0  0  0  0  0  0  0  0  0
   30.5858   29.9693   46.3804 H   0  0  0  0  0  0  0  0  0  0  0  0
   30.9322   28.4881   45.2960 H   0  0  0  0  0  0  0  0  0  0  0  0
   30.6727   28.4228   49.0132 H   0  0  0  0  0  0  0  0  0  0  0  0
   30.2159   26.7326   48.4381 H   0  0  0  0  0  0  0  0  0  0  0  0
   32.3887   26.4275   47.4618 H   0  0  0  0  0  0  0  0  0  0  0  0
   32.6079   26.8701   49.1474 H   0  0  0  0  0  0  0  0  0  0  0  0
  2  1  2  0
  2 13  1  0
  3  2  1  0
  4  3  2  0
  4  5  1  0
  5  6  2  0
  6  1  1  0
  7 12  1  0
  7  5  1  0
  8  7  1  0
  9  8  1  0
  9 10  1  0
 10 11  1  0
 12 11  1  0
 13 15  1  0
 14 13  1  0
 16 13  1  0
  1 17  1  0
  3 18  1  0
  8 19  1  0
  8 20  1  0
  9 21  1  0
  9 22  1  0
 11 23  1  0
 11 24  1  0
 12 25  1  0
 12 26  1  0
M  ISO  8  17  14  18  14  19  13  20  13  21  13  22  13  23  13  24  13
M  ISO  2  25  13  26  13
M  END
>  <minimizedAffinity>  (1) 
-5.26125193

>  <minimizedRMSD>  (1) 
0.79618299

$$$$
