
     RDKit          3D

 41 43  0  0  0  0  0  0  0  0999 V2000
   39.1640   32.2860   46.0850 C   0  0  0  0  0  0  0  0  0  0  0  0
   37.7300   32.5630   49.5880 C   0  0  0  0  0  0  0  0  0  0  0  0
   38.5470   32.8230   48.4860 C   0  0  0  0  0  0  0  0  0  0  0  0
   38.3730   32.1080   47.3090 C   0  0  0  0  0  0  0  0  0  0  0  0
   37.3720   31.1590   47.3040 N   0  0  0  0  0  0  0  0  0  0  0  0
   36.5910   30.9200   48.3740 C   0  0  0  0  0  0  0  0  0  0  0  0
   36.7560   31.6080   49.5130 N   0  0  0  0  0  0  0  0  0  0  0  0
   39.9660   30.9920   45.8990 C   0  0  0  0  0  0  0  0  0  0  0  0
   40.1120   33.4240   46.1380 C   0  0  0  0  0  0  0  0  0  0  0  0
   38.2300   32.4450   44.9370 C   0  0  0  0  0  0  0  0  0  0  0  0
   38.7410   31.8400   43.6680 C   0  0  0  0  0  0  0  0  0  0  0  0
   39.5240   32.6390   42.7810 C   0  0  0  0  0  0  0  0  0  0  0  0
   39.8730   31.4560   41.4400 S   0  0  0  0  0  0  0  0  0  0  0  0
   38.8970   30.0760   42.3130 C   0  0  0  0  0  0  0  0  0  0  0  0
   38.5530   30.6100   43.2460 N   0  0  0  0  0  0  0  0  0  0  0  0
   38.6790   28.7080   41.8600 N   0  0  0  0  0  0  0  0  0  0  0  0
   38.9080   28.2160   40.5090 C   0  0  0  0  0  0  0  0  0  0  0  0
   39.9630   27.1160   40.6980 C   0  0  0  0  0  0  0  0  0  0  0  0
   39.5350   26.1890   41.6150 O   0  0  0  0  0  0  0  0  0  0  0  0
   39.3090   26.6870   42.8740 C   0  0  0  0  0  0  0  0  0  0  0  0
   38.1920   27.7380   42.8280 C   0  0  0  0  0  0  0  0  0  0  0  0
   37.8712   33.1294   50.5203 H   0  0  0  0  0  0  0  0  0  0  0  0
   39.3285   33.5944   48.5505 H   0  0  0  0  0  0  0  0  0  0  0  0
   35.8074   30.1504   48.3132 H   0  0  0  0  0  0  0  0  0  0  0  0
   40.2240   30.5757   46.8840 H   0  0  0  0  0  0  0  0  0  0  0  0
   39.3612   30.2629   45.3398 H   0  0  0  0  0  0  0  0  0  0  0  0
   40.8880   31.2092   45.3398 H   0  0  0  0  0  0  0  0  0  0  0  0
   40.3228   33.6770   47.1875 H   0  0  0  0  0  0  0  0  0  0  0  0
   41.0485   33.1449   45.6329 H   0  0  0  0  0  0  0  0  0  0  0  0
   39.6683   34.2946   45.6329 H   0  0  0  0  0  0  0  0  0  0  0  0
   37.2758   31.9620   45.1942 H   0  0  0  0  0  0  0  0  0  0  0  0
   38.1146   33.5244   44.7590 H   0  0  0  0  0  0  0  0  0  0  0  0
   39.8342   33.6896   42.8807 H   0  0  0  0  0  0  0  0  0  0  0  0
   39.2886   29.0174   39.8586 H   0  0  0  0  0  0  0  0  0  0  0  0
   37.9899   27.8488   40.0270 H   0  0  0  0  0  0  0  0  0  0  0  0
   40.1407   26.6160   39.7344 H   0  0  0  0  0  0  0  0  0  0  0  0
   40.8926   27.5754   41.0653 H   0  0  0  0  0  0  0  0  0  0  0  0
   39.0100   25.8662   43.5425 H   0  0  0  0  0  0  0  0  0  0  0  0
   40.2311   27.1552   43.2488 H   0  0  0  0  0  0  0  0  0  0  0  0
   38.0496   28.2040   43.8142 H   0  0  0  0  0  0  0  0  0  0  0  0
   37.2148   27.3133   42.5548 H   0  0  0  0  0  0  0  0  0  0  0  0
  1  9  1  0
  1  4  1  0
  3  2  2  0
  4  3  1  0
  5  4  2  0
  5  6  1  0
  6  7  2  0
  7  2  1  0
  8  1  1  0
 10  1  1  0
 11 10  1  0
 12 11  2  0
 13 14  1  0
 13 12  1  0
 14 15  2  0
 15 11  1  0
 16 14  1  0
 16 21  1  0
 17 18  1  0
 17 16  1  0
 18 19  1  0
 19 20  1  0
 21 20  1  0
  2 22  1  0
  3 23  1  0
  6 24  1  0
  8 25  1  0
  8 26  1  0
  8 27  1  0
  9 28  1  0
  9 29  1  0
  9 30  1  0
 10 31  1  0
 10 32  1  0
 12 33  1  0
 17 34  1  0
 17 35  1  0
 18 36  1  0
 18 37  1  0
 20 38  1  0
 20 39  1  0
 21 40  1  0
 21 41  1  0
M  ISO  8  22  14  23  14  24  14  25   8  26   8  27   8  28   8  29   8
M  ISO  8  30   8  31   8  32   8  33  14  34  13  35  13  36  13  37  13
M  ISO  4  38  13  39  13  40  13  41  13
M  END
>  <minimizedAffinity>  (1) 
-5.40971327

>  <minimizedRMSD>  (1) 
0.21833697

$$$$
