
     RDKit          3D

 20 20  0  0  0  0  0  0  0  0999 V2000
   35.3960   29.1230   50.3610 C   0  0  0  0  0  0  0  0  0  0  0  0
   36.1400   30.1640   49.7810 C   0  0  0  0  0  0  0  0  0  0  0  0
   35.8610   30.4810   48.4580 C   0  0  0  0  0  0  0  0  0  0  0  0
   34.8980   29.7900   47.7800 N   0  0  0  0  0  0  0  0  0  0  0  0
   34.1990   28.7830   48.3870 C   0  0  0  0  0  0  0  0  0  0  0  0
   34.4590   28.4730   49.6530 N   0  0  0  0  0  0  0  0  0  0  0  0
   33.2070   28.0930   47.6410 N   0  0  0  0  0  0  0  0  0  0  0  0
   31.9210   27.7850   48.1420 C   0  0  0  0  0  0  0  0  0  0  0  0
   31.6130   28.2410   49.3280 N   0  0  0  0  0  0  0  0  0  0  0  0
   30.9980   26.9950   47.3620 N   0  0  0  0  0  0  0  0  0  0  0  0
   30.6460   27.9930   49.6760 H   0  0  0  0  0  0  0  0  0  0  0  0
   37.1940   30.9320   50.4970 C   0  0  0  0  0  0  0  0  0  0  0  0
   38.4360   30.7700   49.9960 F   0  0  0  0  0  0  0  0  0  0  0  0
   37.2530   30.5510   51.8270 F   0  0  0  0  0  0  0  0  0  0  0  0
   36.9000   32.2870   50.4440 F   0  0  0  0  0  0  0  0  0  0  0  0
   35.5833   28.8375   51.4066 H   0  0  0  0  0  0  0  0  0  0  0  0
   36.4153   31.2881   47.9567 H   0  0  0  0  0  0  0  0  0  0  0  0
   33.4372   27.8003   46.6807 H   0  0  0  0  0  0  0  0  0  0  0  0
   30.0636   26.7762   47.7361 H   0  0  0  0  0  0  0  0  0  0  0  0
   31.2739   26.6502   46.4315 H   0  0  0  0  0  0  0  0  0  0  0  0
  2  1  2  0
  2 12  1  0
  3  2  1  0
  4  5  1  0
  4  3  2  0
  5  6  2  0
  6  1  1  0
  7  8  1  0
  7  5  1  0
  8  9  2  0
  9 11  1  0
 10  8  1  0
 12 14  1  0
 13 12  1  0
 15 12  1  0
  1 16  1  0
  3 17  1  0
  7 18  1  0
 10 19  1  0
 10 20  1  0
M  ISO  2  16  14  17  14
M  END
>  <minimizedAffinity>  (1) 
-5.18888283

>  <minimizedRMSD>  (1) 
0.391819358

$$$$
