
     RDKit          3D

 19 20  0  0  0  0  0  0  0  0999 V2000
   35.3910   29.1270   50.3840 C   0  0  0  0  0  0  0  0  0  0  0  0
   36.1400   30.1580   49.7870 C   0  0  0  0  0  0  0  0  0  0  0  0
   35.8140   30.5200   48.4820 C   0  0  0  0  0  0  0  0  0  0  0  0
   34.7960   29.8690   47.8390 N   0  0  0  0  0  0  0  0  0  0  0  0
   34.0970   28.8740   48.4590 C   0  0  0  0  0  0  0  0  0  0  0  0
   34.3990   28.5210   49.7050 N   0  0  0  0  0  0  0  0  0  0  0  0
   33.0580   28.2520   47.7280 N   0  0  0  0  0  0  0  0  0  0  0  0
   32.2670   27.2790   48.1620 C   0  0  0  0  0  0  0  0  0  0  0  0
   31.3780   26.9090   47.2130 N   0  0  0  0  0  0  0  0  0  0  0  0
   31.6470   27.6970   46.1550 C   0  0  0  0  0  0  0  0  0  0  0  0
   32.6740   28.5100   46.4880 N   0  0  0  0  0  0  0  0  0  0  0  0
   37.2470   30.8680   50.4760 C   0  0  0  0  0  0  0  0  0  0  0  0
   38.4750   30.6230   49.9710 F   0  0  0  0  0  0  0  0  0  0  0  0
   37.2710   30.5640   51.8250 F   0  0  0  0  0  0  0  0  0  0  0  0
   37.0430   32.2490   50.3750 F   0  0  0  0  0  0  0  0  0  0  0  0
   35.6179   28.8137   51.4137 H   0  0  0  0  0  0  0  0  0  0  0  0
   36.3694   31.3215   47.9730 H   0  0  0  0  0  0  0  0  0  0  0  0
   32.3269   26.8311   49.1649 H   0  0  0  0  0  0  0  0  0  0  0  0
   31.1224   27.6818   45.1883 H   0  0  0  0  0  0  0  0  0  0  0  0
  2  1  2  0
  2 12  1  0
  3  2  1  0
  4  5  1  0
  4  3  2  0
  5  6  2  0
  6  1  1  0
  7  8  1  0
  7  5  1  0
  9  8  2  0
 10 11  2  0
 10  9  1  0
 11  7  1  0
 12 14  1  0
 13 12  1  0
 15 12  1  0
  1 16  1  0
  3 17  1  0
  8 18  1  0
 10 19  1  0
M  ISO  4  16  14  17  14  18  14  19  14
M  END
>  <minimizedAffinity>  (1) 
-4.94399595

>  <minimizedRMSD>  (1) 
0.581138313

$$$$
