
     RDKit          3D

 34 36  0  0  0  0  0  0  0  0999 V2000
   39.2290   32.3140   46.0930 C   0  0  0  0  0  0  0  0  0  0  0  0
   37.8460   32.6740   49.6000 C   0  0  0  0  0  0  0  0  0  0  0  0
   38.6570   32.9180   48.4870 C   0  0  0  0  0  0  0  0  0  0  0  0
   38.4530   32.1630   47.3270 C   0  0  0  0  0  0  0  0  0  0  0  0
   37.4600   31.2230   47.3610 N   0  0  0  0  0  0  0  0  0  0  0  0
   36.6960   31.0070   48.4410 C   0  0  0  0  0  0  0  0  0  0  0  0
   36.8800   31.7270   49.5640 N   0  0  0  0  0  0  0  0  0  0  0  0
   40.1000   31.0540   45.9620 C   0  0  0  0  0  0  0  0  0  0  0  0
   40.1270   33.5070   46.0710 C   0  0  0  0  0  0  0  0  0  0  0  0
   38.2770   32.3670   44.9270 C   0  0  0  0  0  0  0  0  0  0  0  0
   38.8350   31.7480   43.6970 C   0  0  0  0  0  0  0  0  0  0  0  0
   39.3830   32.5880   42.6640 C   0  0  0  0  0  0  0  0  0  0  0  0
   39.9190   31.3530   41.4210 S   0  0  0  0  0  0  0  0  0  0  0  0
   39.3050   29.9160   42.5270 C   0  0  0  0  0  0  0  0  0  0  0  0
   38.8990   30.4640   43.4220 N   0  0  0  0  0  0  0  0  0  0  0  0
   39.3620   28.4660   42.2460 N   0  0  0  0  0  0  0  0  0  0  0  0
   39.5980   27.7220   41.1590 C   0  0  0  0  0  0  0  0  0  0  0  0
   39.5150   26.4510   41.5230 N   0  0  0  0  0  0  0  0  0  0  0  0
   39.2270   26.3580   42.8300 C   0  0  0  0  0  0  0  0  0  0  0  0
   39.1370   27.6490   43.2600 N   0  0  0  0  0  0  0  0  0  0  0  0
   37.9956   33.2607   50.5184 H   0  0  0  0  0  0  0  0  0  0  0  0
   39.4406   33.6891   48.5230 H   0  0  0  0  0  0  0  0  0  0  0  0
   35.9125   30.2355   48.4097 H   0  0  0  0  0  0  0  0  0  0  0  0
   40.3580   30.6808   46.9641 H   0  0  0  0  0  0  0  0  0  0  0  0
   39.5438   30.2791   45.4141 H   0  0  0  0  0  0  0  0  0  0  0  0
   41.0214   31.3005   45.4141 H   0  0  0  0  0  0  0  0  0  0  0  0
   40.3567   33.8121   47.1026 H   0  0  0  0  0  0  0  0  0  0  0  0
   41.0605   33.2537   45.5471 H   0  0  0  0  0  0  0  0  0  0  0  0
   39.6253   34.3340   45.5471 H   0  0  0  0  0  0  0  0  0  0  0  0
   37.3554   31.8330   45.2017 H   0  0  0  0  0  0  0  0  0  0  0  0
   38.0850   33.4272   44.7053 H   0  0  0  0  0  0  0  0  0  0  0  0
   39.4598   33.6848   42.6299 H   0  0  0  0  0  0  0  0  0  0  0  0
   39.8201   28.0969   40.1490 H   0  0  0  0  0  0  0  0  0  0  0  0
   39.0930   25.4420   43.4241 H   0  0  0  0  0  0  0  0  0  0  0  0
  1  4  1  0
  3  2  2  0
  4  5  2  0
  4  3  1  0
  5  6  1  0
  6  7  2  0
  7  2  1  0
  8  1  1  0
  9  1  1  0
 10  1  1  0
 11 10  1  0
 12 11  2  0
 13 14  1  0
 13 12  1  0
 14 15  2  0
 15 11  1  0
 16 14  1  0
 16 20  1  0
 17 18  2  0
 17 16  1  0
 18 19  1  0
 19 20  2  0
  2 21  1  0
  3 22  1  0
  6 23  1  0
  8 24  1  0
  8 25  1  0
  8 26  1  0
  9 27  1  0
  9 28  1  0
  9 29  1  0
 10 30  1  0
 10 31  1  0
 12 32  1  0
 17 33  1  0
 19 34  1  0
M  ISO  8  21  14  22  14  23  14  24   8  25   8  26   8  27   8  28   8
M  ISO  6  29   8  30   8  31   8  32  14  33  14  34  14
M  END
>  <minimizedAffinity>  (1) 
-5.35138273

>  <minimizedRMSD>  (1) 
0.752977967

$$$$
