
     RDKit          3D

 16 16  0  0  0  0  0  0  0  0999 V2000
   35.4470   29.0850   50.4520 C   0  0  0  0  0  0  0  0  0  0  0  0
   36.2440   30.0650   49.8390 C   0  0  0  0  0  0  0  0  0  0  0  0
   36.0630   30.2780   48.4660 C   0  0  0  0  0  0  0  0  0  0  0  0
   35.1260   29.5260   47.7990 N   0  0  0  0  0  0  0  0  0  0  0  0
   34.3850   28.5960   48.4390 C   0  0  0  0  0  0  0  0  0  0  0  0
   34.5530   28.3840   49.7620 N   0  0  0  0  0  0  0  0  0  0  0  0
   37.2500   30.8730   50.5590 C   0  0  0  0  0  0  0  0  0  0  0  0
   38.5080   30.7920   50.0850 F   0  0  0  0  0  0  0  0  0  0  0  0
   37.2970   30.5430   51.8990 F   0  0  0  0  0  0  0  0  0  0  0  0
   36.8870   32.2280   50.4820 F   0  0  0  0  0  0  0  0  0  0  0  0
   33.3710   27.7940   47.6800 C   0  0  0  0  0  0  0  0  0  0  0  0
   32.5640   27.0580   48.5230 F   0  0  0  0  0  0  0  0  0  0  0  0
   32.5280   28.6460   46.9900 F   0  0  0  0  0  0  0  0  0  0  0  0
   34.0280   26.9160   46.8620 F   0  0  0  0  0  0  0  0  0  0  0  0
   35.5652   28.8928   51.5286 H   0  0  0  0  0  0  0  0  0  0  0  0
   36.6594   31.0326   47.9323 H   0  0  0  0  0  0  0  0  0  0  0  0
  2  1  2  0
  2  7  1  0
  3  2  1  0
  4  5  1  0
  4  3  2  0
  5  6  2  0
  6  1  1  0
  7  9  1  0
  8  7  1  0
 10  7  1  0
 11  5  1  0
 11 12  1  0
 13 11  1  0
 14 11  1  0
  1 15  1  0
  3 16  1  0
M  ISO  2  15  14  16  14
M  END
>  <minimizedAffinity>  (1) 
-4.75243187

>  <minimizedRMSD>  (1) 
0.354890406

$$$$
