
     RDKit          3D

 14 14  0  0  0  0  0  0  0  0999 V2000
   35.6050   28.9720   50.1550 C   0  0  0  0  0  0  0  0  0  0  0  0
   36.2890   30.1180   49.6920 C   0  0  0  0  0  0  0  0  0  0  0  0
   36.0400   30.5150   48.3620 C   0  0  0  0  0  0  0  0  0  0  0  0
   35.1610   29.7810   47.6010 N   0  0  0  0  0  0  0  0  0  0  0  0
   34.5360   28.6870   48.1100 C   0  0  0  0  0  0  0  0  0  0  0  0
   34.7620   28.3020   49.3620 N   0  0  0  0  0  0  0  0  0  0  0  0
   37.2310   30.9070   50.5070 C   0  0  0  0  0  0  0  0  0  0  0  0
   38.5190   30.8280   50.1170 F   0  0  0  0  0  0  0  0  0  0  0  0
   37.1790   30.5040   51.8310 F   0  0  0  0  0  0  0  0  0  0  0  0
   36.8570   32.2580   50.4760 F   0  0  0  0  0  0  0  0  0  0  0  0
   33.6850   28.0710   47.1950 O   0  0  0  0  0  0  0  0  0  0  0  0
   35.7686   28.6247   51.1858 H   0  0  0  0  0  0  0  0  0  0  0  0
   36.5413   31.3984   47.9398 H   0  0  0  0  0  0  0  0  0  0  0  0
   33.1766   27.2632   47.4580 H   0  0  0  0  0  0  0  0  0  0  0  0
  2  1  2  0
  2  7  1  0
  3  2  1  0
  4  5  1  0
  4  3  2  0
  5  6  2  0
  6  1  1  0
  7  9  1  0
  8  7  1  0
 10  7  1  0
 11  5  1  0
  1 12  1  0
  3 13  1  0
 11 14  1  0
M  ISO  3  12  14  13  14  14   3
M  END
>  <minimizedAffinity>  (1) 
-4.36761379

>  <minimizedRMSD>  (1) 
0.0599499084

$$$$
