
     RDKit          3D

 41 43  0  0  0  0  0  0  0  0999 V2000
   39.2260   32.3390   46.1060 C   0  0  0  0  0  0  0  0  0  0  0  0
   37.7290   32.5710   49.5830 C   0  0  0  0  0  0  0  0  0  0  0  0
   38.5620   32.8470   48.5010 C   0  0  0  0  0  0  0  0  0  0  0  0
   38.4100   32.1390   47.3150 C   0  0  0  0  0  0  0  0  0  0  0  0
   37.4190   31.1770   47.2720 N   0  0  0  0  0  0  0  0  0  0  0  0
   36.6300   30.9300   48.3280 C   0  0  0  0  0  0  0  0  0  0  0  0
   36.7680   31.6070   49.4740 N   0  0  0  0  0  0  0  0  0  0  0  0
   40.0960   31.0770   45.9530 C   0  0  0  0  0  0  0  0  0  0  0  0
   40.1060   33.5350   46.1620 C   0  0  0  0  0  0  0  0  0  0  0  0
   38.3170   32.4310   44.9300 C   0  0  0  0  0  0  0  0  0  0  0  0
   38.8630   31.7680   43.7040 C   0  0  0  0  0  0  0  0  0  0  0  0
   39.4760   32.5570   42.6690 C   0  0  0  0  0  0  0  0  0  0  0  0
   39.9400   31.2580   41.4660 S   0  0  0  0  0  0  0  0  0  0  0  0
   39.2270   29.8940   42.5730 C   0  0  0  0  0  0  0  0  0  0  0  0
   38.8440   30.4760   43.4590 N   0  0  0  0  0  0  0  0  0  0  0  0
   39.3530   28.5410   42.0290 N   0  0  0  0  0  0  0  0  0  0  0  0
   39.6690   28.2840   40.6540 C   0  0  0  0  0  0  0  0  0  0  0  0
   38.8300   27.0640   40.2540 C   0  0  0  0  0  0  0  0  0  0  0  0
   39.3610   25.9370   41.1220 C   0  0  0  0  0  0  0  0  0  0  0  0
   39.0310   26.1520   42.5550 C   0  0  0  0  0  0  0  0  0  0  0  0
   39.1210   27.5690   43.0390 C   0  0  0  0  0  0  0  0  0  0  0  0
   37.8452   33.1289   50.5239 H   0  0  0  0  0  0  0  0  0  0  0  0
   39.3374   33.6227   48.5852 H   0  0  0  0  0  0  0  0  0  0  0  0
   35.8534   30.1549   48.2505 H   0  0  0  0  0  0  0  0  0  0  0  0
   40.3615   30.6918   46.9485 H   0  0  0  0  0  0  0  0  0  0  0  0
   39.5344   30.3092   45.4006 H   0  0  0  0  0  0  0  0  0  0  0  0
   41.0133   31.3288   45.4006 H   0  0  0  0  0  0  0  0  0  0  0  0
   40.3000   33.7986   47.2122 H   0  0  0  0  0  0  0  0  0  0  0  0
   41.0582   33.3136   45.6576 H   0  0  0  0  0  0  0  0  0  0  0  0
   39.6113   34.3782   45.6576 H   0  0  0  0  0  0  0  0  0  0  0  0
   37.3614   31.9518   45.1894 H   0  0  0  0  0  0  0  0  0  0  0  0
   38.1961   33.4989   44.6955 H   0  0  0  0  0  0  0  0  0  0  0  0
   39.6253   33.6455   42.6152 H   0  0  0  0  0  0  0  0  0  0  0  0
   39.4047   29.1515   40.0315 H   0  0  0  0  0  0  0  0  0  0  0  0
   40.7443   28.1000   40.5130 H   0  0  0  0  0  0  0  0  0  0  0  0
   37.7636   27.2419   40.4570 H   0  0  0  0  0  0  0  0  0  0  0  0
   38.9067   26.8371   39.1804 H   0  0  0  0  0  0  0  0  0  0  0  0
   38.9129   24.9887   40.7903 H   0  0  0  0  0  0  0  0  0  0  0  0
   40.4559   25.9092   41.0202 H   0  0  0  0  0  0  0  0  0  0  0  0
   38.7393   25.3246   43.2186 H   0  0  0  0  0  0  0  0  0  0  0  0
   39.0149   27.8366   44.1007 H   0  0  0  0  0  0  0  0  0  0  0  0
  1  9  1  0
  1  4  1  0
  3  2  2  0
  4  3  1  0
  5  4  2  0
  5  6  1  0
  6  7  2  0
  7  2  1  0
  8  1  1  0
 10  1  1  0
 11 10  1  0
 12 11  2  0
 13 14  1  0
 13 12  1  0
 14 15  2  0
 15 11  1  0
 16 14  1  0
 16 21  1  0
 17 16  1  0
 18 17  1  0
 18 19  1  0
 19 20  1  0
 20 21  2  0
  2 22  1  0
  3 23  1  0
  6 24  1  0
  8 25  1  0
  8 26  1  0
  8 27  1  0
  9 28  1  0
  9 29  1  0
  9 30  1  0
 10 31  1  0
 10 32  1  0
 12 33  1  0
 17 34  1  0
 17 35  1  0
 18 36  1  0
 18 37  1  0
 19 38  1  0
 19 39  1  0
 20 40  1  0
 21 41  1  0
M  ISO  8  22  14  23  14  24  14  25   8  26   8  27   8  28   8  29   8
M  ISO  8  30   8  31   8  32   8  33  14  34  13  35  13  36  13  37  13
M  ISO  4  38  13  39  13  40  13  41  13
M  END
>  <minimizedAffinity>  (1) 
-5.3361702

>  <minimizedRMSD>  (1) 
0.739855289

$$$$
