
     RDKit          3D

 26 27  0  0  0  0  0  0  0  0999 V2000
   36.1840   28.9780   49.7020 C   0  0  0  0  0  0  0  0  0  0  0  0
   36.4610   30.0270   48.8070 C   0  0  0  0  0  0  0  0  0  0  0  0
   35.4700   30.3290   47.8880 C   0  0  0  0  0  0  0  0  0  0  0  0
   34.2840   29.6230   47.8720 N   0  0  0  0  0  0  0  0  0  0  0  0
   34.0930   28.6110   48.7810 C   0  0  0  0  0  0  0  0  0  0  0  0
   35.0280   28.3070   49.6670 N   0  0  0  0  0  0  0  0  0  0  0  0
   32.8160   27.9130   48.7000 C   0  0  0  0  0  0  0  0  0  0  0  0
   31.7210   28.3340   49.3990 C   0  0  0  0  0  0  0  0  0  0  0  0
   30.4940   27.6790   49.3340 C   0  0  0  0  0  0  0  0  0  0  0  0
   30.4300   26.5660   48.5140 C   0  0  0  0  0  0  0  0  0  0  0  0
   31.5220   26.1050   47.7850 C   0  0  0  0  0  0  0  0  0  0  0  0
   32.6950   26.8040   47.9040 C   0  0  0  0  0  0  0  0  0  0  0  0
   33.8980   26.3430   47.1360 C   0  0  0  0  0  0  0  0  0  0  0  0
   37.7240   30.8040   48.8000 C   0  0  0  0  0  0  0  0  0  0  0  0
   38.5270   30.5550   47.7440 F   0  0  0  0  0  0  0  0  0  0  0  0
   38.4570   30.5540   49.9530 F   0  0  0  0  0  0  0  0  0  0  0  0
   37.4300   32.1670   48.7900 F   0  0  0  0  0  0  0  0  0  0  0  0
   36.9398   28.7018   50.4520 H   0  0  0  0  0  0  0  0  0  0  0  0
   35.6298   31.1405   47.1628 H   0  0  0  0  0  0  0  0  0  0  0  0
   31.8118   29.2248   50.0379 H   0  0  0  0  0  0  0  0  0  0  0  0
   29.6209   28.0281   49.9048 H   0  0  0  0  0  0  0  0  0  0  0  0
   29.4764   26.0233   48.4352 H   0  0  0  0  0  0  0  0  0  0  0  0
   31.4470   25.2169   47.1403 H   0  0  0  0  0  0  0  0  0  0  0  0
   34.6880   26.0403   47.8391 H   0  0  0  0  0  0  0  0  0  0  0  0
   33.6228   25.4866   46.5028 H   0  0  0  0  0  0  0  0  0  0  0  0
   34.2655   27.1640   46.5028 H   0  0  0  0  0  0  0  0  0  0  0  0
  2  1  2  0
  3  2  1  0
  4  3  2  0
  4  5  1  0
  5  6  2  0
  6  1  1  0
  7  5  1  0
  7  8  2  0
  9  8  1  0
 10  9  2  0
 11 12  2  0
 11 10  1  0
 12  7  1  0
 13 12  1  0
 14  2  1  0
 14 16  1  0
 15 14  1  0
 17 14  1  0
  1 18  1  0
  3 19  1  0
  8 20  1  0
  9 21  1  0
 10 22  1  0
 11 23  1  0
 13 24  1  0
 13 25  1  0
 13 26  1  0
M  ISO  8  18  14  19  14  20  14  21  14  22  14  23  14  24   8  25   8
M  ISO  1  26   8
M  END
>  <minimizedAffinity>  (1) 
-5.03716564

>  <minimizedRMSD>  (1) 
1.15643644

$$$$
