
     RDKit          3D

 42 45  0  0  0  0  0  0  0  0999 V2000
   38.3550   32.3870   44.9010 C   0  0  0  0  0  0  0  0  0  0  0  0
   38.8580   31.7600   43.6460 C   0  0  0  0  0  0  0  0  0  0  0  0
   39.4450   32.5660   42.6380 C   0  0  0  0  0  0  0  0  0  0  0  0
   39.8520   31.3030   41.3820 S   0  0  0  0  0  0  0  0  0  0  0  0
   39.1520   29.9080   42.4520 C   0  0  0  0  0  0  0  0  0  0  0  0
   38.8110   30.4850   43.3550 N   0  0  0  0  0  0  0  0  0  0  0  0
   39.2770   28.5770   41.7760 C   0  0  0  0  0  0  0  0  0  0  0  0
   40.2910   28.1800   40.9960 N   0  0  0  0  0  0  0  0  0  0  0  0
   40.3480   26.9750   40.4170 C   0  0  0  0  0  0  0  0  0  0  0  0
   39.3700   26.0830   40.5930 N   0  0  0  0  0  0  0  0  0  0  0  0
   38.3120   26.3780   41.3520 C   0  0  0  0  0  0  0  0  0  0  0  0
   37.2950   25.4780   41.5460 C   0  0  0  0  0  0  0  0  0  0  0  0
   36.2040   25.8070   42.3400 C   0  0  0  0  0  0  0  0  0  0  0  0
   36.1990   27.0700   42.9150 C   0  0  0  0  0  0  0  0  0  0  0  0
   37.2240   27.9700   42.7160 C   0  0  0  0  0  0  0  0  0  0  0  0
   38.2960   27.6300   41.9280 C   0  0  0  0  0  0  0  0  0  0  0  0
   39.3320   32.3480   46.0340 C   0  0  0  0  0  0  0  0  0  0  0  0
   38.0400   32.7470   49.5800 C   0  0  0  0  0  0  0  0  0  0  0  0
   38.8220   32.9550   48.4430 C   0  0  0  0  0  0  0  0  0  0  0  0
   38.5770   32.2190   47.2920 C   0  0  0  0  0  0  0  0  0  0  0  0
   37.5460   31.2990   47.3450 N   0  0  0  0  0  0  0  0  0  0  0  0
   36.8010   31.1090   48.4480 C   0  0  0  0  0  0  0  0  0  0  0  0
   37.0340   31.8200   49.5650 N   0  0  0  0  0  0  0  0  0  0  0  0
   40.1760   31.0850   45.8930 C   0  0  0  0  0  0  0  0  0  0  0  0
   40.2220   33.5340   45.9790 C   0  0  0  0  0  0  0  0  0  0  0  0
   37.4432   31.8559   45.2118 H   0  0  0  0  0  0  0  0  0  0  0  0
   38.1708   33.4478   44.6755 H   0  0  0  0  0  0  0  0  0  0  0  0
   39.6101   33.6534   42.6177 H   0  0  0  0  0  0  0  0  0  0  0  0
   41.2121   26.7157   39.7876 H   0  0  0  0  0  0  0  0  0  0  0  0
   37.3440   24.4880   41.0690 H   0  0  0  0  0  0  0  0  0  0  0  0
   35.3799   25.0975   42.5058 H   0  0  0  0  0  0  0  0  0  0  0  0
   35.3497   27.3624   43.5500 H   0  0  0  0  0  0  0  0  0  0  0  0
   37.1831   28.9622   43.1892 H   0  0  0  0  0  0  0  0  0  0  0  0
   38.2333   33.3308   50.4920 H   0  0  0  0  0  0  0  0  0  0  0  0
   39.6307   33.7005   48.4589 H   0  0  0  0  0  0  0  0  0  0  0  0
   35.9920   30.3637   48.4364 H   0  0  0  0  0  0  0  0  0  0  0  0
   40.4321   30.7018   46.8918 H   0  0  0  0  0  0  0  0  0  0  0  0
   39.6055   30.3223   45.3428 H   0  0  0  0  0  0  0  0  0  0  0  0
   41.0990   31.3203   45.3428 H   0  0  0  0  0  0  0  0  0  0  0  0
   40.4650   33.8578   47.0018 H   0  0  0  0  0  0  0  0  0  0  0  0
   41.1488   33.2726   45.4472 H   0  0  0  0  0  0  0  0  0  0  0  0
   39.7120   34.3508   45.4472 H   0  0  0  0  0  0  0  0  0  0  0  0
  1 17  1  0
  2  1  1  0
  3  2  2  0
  4  5  1  0
  4  3  1  0
  5  6  2  0
  6  2  1  0
  7 16  1  0
  7  5  1  0
  8  7  2  0
  9 10  2  0
  9  8  1  0
 10 11  1  0
 11 12  1  0
 11 16  2  0
 12 13  2  0
 13 14  1  0
 15 14  2  0
 16 15  1  0
 17 20  1  0
 19 18  2  0
 20 21  2  0
 20 19  1  0
 21 22  1  0
 22 23  2  0
 23 18  1  0
 24 17  1  0
 25 17  1  0
  1 26  1  0
  1 27  1  0
  3 28  1  0
  9 29  1  0
 12 30  1  0
 13 31  1  0
 14 32  1  0
 15 33  1  0
 18 34  1  0
 19 35  1  0
 22 36  1  0
 24 37  1  0
 24 38  1  0
 24 39  1  0
 25 40  1  0
 25 41  1  0
 25 42  1  0
M  ISO  8  26   8  27   8  28  14  29  14  30  14  31  14  32  14  33  14
M  ISO  8  34  14  35  14  36  14  37   8  38   8  39   8  40   8  41   8
M  ISO  1  42   8
M  END
>  <minimizedAffinity>  (1) 
-5.33053064

>  <minimizedRMSD>  (1) 
0.637528181

$$$$
