
     RDKit          3D

 42 44  0  0  0  0  0  0  0  0999 V2000
   31.6620   26.0370   47.9630 C   0  0  0  0  0  0  0  0  0  0  0  0
   31.7570   24.6970   47.7110 C   0  0  0  0  0  0  0  0  0  0  0  0
   32.8960   24.0660   47.2640 C   0  0  0  0  0  0  0  0  0  0  0  0
   33.9890   24.8790   47.0700 C   0  0  0  0  0  0  0  0  0  0  0  0
   33.9420   26.2370   47.3110 C   0  0  0  0  0  0  0  0  0  0  0  0
   32.7750   26.8240   47.7600 C   0  0  0  0  0  0  0  0  0  0  0  0
   29.0850   27.5260   50.1040 C   0  0  0  0  0  0  0  0  0  0  0  0
   28.0500   27.8080   49.1950 C   0  0  0  0  0  0  0  0  0  0  0  0
   28.2810   27.4730   47.8750 C   0  0  0  0  0  0  0  0  0  0  0  0
   29.4780   26.8950   47.5130 N   0  0  0  0  0  0  0  0  0  0  0  0
   30.4370   26.6470   48.4330 C   0  0  0  0  0  0  0  0  0  0  0  0
   30.2180   26.9660   49.6940 N   0  0  0  0  0  0  0  0  0  0  0  0
   26.7640   28.4300   49.5800 C   0  0  0  0  0  0  0  0  0  0  0  0
   26.7720   29.8000   49.5160 F   0  0  0  0  0  0  0  0  0  0  0  0
   26.4170   28.0930   50.8830 F   0  0  0  0  0  0  0  0  0  0  0  0
   25.7460   27.9760   48.7370 F   0  0  0  0  0  0  0  0  0  0  0  0
   32.6840   28.2620   48.0270 C   0  0  0  0  0  0  0  0  0  0  0  0
   32.9010   29.1590   46.8620 C   0  0  0  0  0  0  0  0  0  0  0  0
   36.8420   30.8850   46.9890 C   0  0  0  0  0  0  0  0  0  0  0  0
   36.1260   30.7120   48.1410 C   0  0  0  0  0  0  0  0  0  0  0  0
   34.8640   30.1670   48.1560 C   0  0  0  0  0  0  0  0  0  0  0  0
   34.2560   29.7620   46.9850 C   0  0  0  0  0  0  0  0  0  0  0  0
   34.9920   29.9420   45.8140 C   0  0  0  0  0  0  0  0  0  0  0  0
   36.2640   30.4920   45.8000 C   0  0  0  0  0  0  0  0  0  0  0  0
   38.4440   31.5700   46.8910 S   0  0  0  0  0  0  0  0  0  0  0  0
   39.3880   30.5960   46.2240 O   0  0  0  0  0  0  0  0  0  0  0  0
   38.9480   31.7790   48.2920 O   0  0  0  0  0  0  0  0  0  0  0  0
   30.8615   24.0801   47.8768 H   0  0  0  0  0  0  0  0  0  0  0  0
   32.9300   22.9830   47.0744 H   0  0  0  0  0  0  0  0  0  0  0  0
   34.9286   24.4330   46.7120 H   0  0  0  0  0  0  0  0  0  0  0  0
   34.8372   26.8543   47.1449 H   0  0  0  0  0  0  0  0  0  0  0  0
   28.9550   27.7722   51.1682 H   0  0  0  0  0  0  0  0  0  0  0  0
   27.5106   27.6674   47.1143 H   0  0  0  0  0  0  0  0  0  0  0  0
   31.6796   28.4667   48.4261 H   0  0  0  0  0  0  0  0  0  0  0  0
   33.5025   28.4845   48.7274 H   0  0  0  0  0  0  0  0  0  0  0  0
   32.1394   29.9527   46.8563 H   0  0  0  0  0  0  0  0  0  0  0  0
   32.8225   28.5894   45.9243 H   0  0  0  0  0  0  0  0  0  0  0  0
   36.5783   31.0216   49.0947 H   0  0  0  0  0  0  0  0  0  0  0  0
   34.3326   30.0524   49.1123 H   0  0  0  0  0  0  0  0  0  0  0  0
   34.5426   29.6335   44.8585 H   0  0  0  0  0  0  0  0  0  0  0  0
   36.8067   30.6138   44.8510 H   0  0  0  0  0  0  0  0  0  0  0  0
   38.3897   32.7392   46.1791 H   0  0  0  0  0  0  0  0  0  0  0  0
  1 11  1  0
  2  1  2  0
  3  2  1  0
  4  3  2  0
  4  5  1  0
  5  6  2  0
  6  1  1  0
  6 17  1  0
  8 13  1  0
  8  7  2  0
  9  8  1  0
 10  9  2  0
 10 11  1  0
 11 12  2  0
 12  7  1  0
 13 15  1  0
 14 13  1  0
 16 13  1  0
 18 22  1  0
 18 17  1  0
 19 20  2  0
 20 21  1  0
 22 21  2  0
 23 22  1  0
 24 23  2  0
 24 19  1  0
 25 19  1  0
 25 27  2  0
 26 25  2  0
  2 28  1  0
  3 29  1  0
  4 30  1  0
  5 31  1  0
  7 32  1  0
  9 33  1  0
 17 34  1  0
 17 35  1  0
 18 36  1  0
 18 37  1  0
 20 38  1  0
 21 39  1  0
 23 40  1  0
 24 41  1  0
 25 42  1  0
M  ISO  8  28  14  29  14  30  14  31  14  32  14  33  14  34   8  35   8
M  ISO  7  36   8  37   8  38  14  39  14  40  14  41  14  42  11
M  END
>  <minimizedAffinity>  (1) 
-5.90278006

>  <minimizedRMSD>  (1) 
7.12369871

$$$$
