
     RDKit          3D

 35 37  0  0  0  0  0  0  0  0999 V2000
   39.3030   32.3790   46.0810 C   0  0  0  0  0  0  0  0  0  0  0  0
   38.1270   32.9140   49.6500 C   0  0  0  0  0  0  0  0  0  0  0  0
   38.8760   33.0930   48.4750 C   0  0  0  0  0  0  0  0  0  0  0  0
   38.6010   32.3010   47.3720 C   0  0  0  0  0  0  0  0  0  0  0  0
   37.5940   31.3750   47.5040 N   0  0  0  0  0  0  0  0  0  0  0  0
   36.8850   31.2150   48.6340 C   0  0  0  0  0  0  0  0  0  0  0  0
   37.1440   31.9780   49.7130 N   0  0  0  0  0  0  0  0  0  0  0  0
   40.1040   31.0710   45.9450 C   0  0  0  0  0  0  0  0  0  0  0  0
   40.2270   33.5300   45.9670 C   0  0  0  0  0  0  0  0  0  0  0  0
   38.2850   32.4210   44.9790 C   0  0  0  0  0  0  0  0  0  0  0  0
   38.7870   31.8770   43.6950 C   0  0  0  0  0  0  0  0  0  0  0  0
   39.1620   32.7860   42.6400 C   0  0  0  0  0  0  0  0  0  0  0  0
   39.6920   31.6210   41.3210 S   0  0  0  0  0  0  0  0  0  0  0  0
   39.3130   30.1320   42.4270 C   0  0  0  0  0  0  0  0  0  0  0  0
   38.9400   30.6120   43.3750 N   0  0  0  0  0  0  0  0  0  0  0  0
   39.4610   28.5770   42.1450 N   0  0  0  0  0  0  0  0  0  0  0  0
   38.9630   27.7110   43.0230 C   0  0  0  0  0  0  0  0  0  0  0  0
   39.2760   26.5200   42.4410 C   0  0  0  0  0  0  0  0  0  0  0  0
   39.9130   26.7390   41.3030 N   0  0  0  0  0  0  0  0  0  0  0  0
   40.0440   28.0380   41.0900 C   0  0  0  0  0  0  0  0  0  0  0  0
   38.3389   33.5393   50.5298 H   0  0  0  0  0  0  0  0  0  0  0  0
   39.6707   33.8523   48.4313 H   0  0  0  0  0  0  0  0  0  0  0  0
   36.0890   30.4570   48.6780 H   0  0  0  0  0  0  0  0  0  0  0  0
   40.3426   30.6814   46.9457 H   0  0  0  0  0  0  0  0  0  0  0  0
   39.5049   30.3295   45.3961 H   0  0  0  0  0  0  0  0  0  0  0  0
   41.0368   31.2676   45.3961 H   0  0  0  0  0  0  0  0  0  0  0  0
   40.5059   33.8774   46.9728 H   0  0  0  0  0  0  0  0  0  0  0  0
   41.1312   33.2217   45.4218 H   0  0  0  0  0  0  0  0  0  0  0  0
   39.7305   34.3462   45.4218 H   0  0  0  0  0  0  0  0  0  0  0  0
   37.4100   31.8312   45.2896 H   0  0  0  0  0  0  0  0  0  0  0  0
   38.0335   33.4782   44.8084 H   0  0  0  0  0  0  0  0  0  0  0  0
   39.1373   33.8857   42.6279 H   0  0  0  0  0  0  0  0  0  0  0  0
   38.4371   27.9053   43.9694 H   0  0  0  0  0  0  0  0  0  0  0  0
   39.0360   25.5290   42.8538 H   0  0  0  0  0  0  0  0  0  0  0  0
   40.5227   28.5461   40.2399 H   0  0  0  0  0  0  0  0  0  0  0  0
  1  4  1  0
  2  7  2  0
  3  2  1  0
  4  5  1  0
  4  3  2  0
  5  6  2  0
  6  7  1  0
  8  1  1  0
  9  1  1  0
 10  1  1  0
 11 10  1  0
 12 11  2  0
 13 14  1  0
 13 12  1  0
 14 15  2  0
 15 11  1  0
 16 14  1  0
 16 17  1  0
 18 17  2  0
 19 18  1  0
 20 19  2  0
 20 16  1  0
  2 21  1  0
  3 22  1  0
  6 23  1  0
  8 24  1  0
  8 25  1  0
  8 26  1  0
  9 27  1  0
  9 28  1  0
  9 29  1  0
 10 30  1  0
 10 31  1  0
 12 32  1  0
 17 33  1  0
 18 34  1  0
 20 35  1  0
M  ISO  8  21  14  22  14  23  14  24   8  25   8  26   8  27   8  28   8
M  ISO  7  29   8  30   8  31   8  32  14  33  14  34  14  35  14
M  END
>  <minimizedAffinity>  (1) 
-5.31272554

>  <minimizedRMSD>  (1) 
0.874310911

$$$$
