
     RDKit          3D

 35 37  0  0  0  0  0  0  0  0999 V2000
   31.7440   26.2490   47.5780 C   0  0  0  0  0  0  0  0  0  0  0  0
   31.4770   25.1580   46.8120 C   0  0  0  0  0  0  0  0  0  0  0  0
   32.4300   24.4080   46.1540 C   0  0  0  0  0  0  0  0  0  0  0  0
   33.7360   24.8370   46.3140 C   0  0  0  0  0  0  0  0  0  0  0  0
   34.0620   25.9300   47.0740 C   0  0  0  0  0  0  0  0  0  0  0  0
   33.0570   26.6430   47.7120 C   0  0  0  0  0  0  0  0  0  0  0  0
   29.4020   27.5090   50.1070 C   0  0  0  0  0  0  0  0  0  0  0  0
   28.7080   28.5040   49.4060 C   0  0  0  0  0  0  0  0  0  0  0  0
   29.0620   28.7170   48.0770 C   0  0  0  0  0  0  0  0  0  0  0  0
   30.0640   27.9510   47.5260 N   0  0  0  0  0  0  0  0  0  0  0  0
   30.7000   27.0040   48.2510 C   0  0  0  0  0  0  0  0  0  0  0  0
   30.3620   26.8030   49.5140 N   0  0  0  0  0  0  0  0  0  0  0  0
   27.6260   29.3270   50.0120 C   0  0  0  0  0  0  0  0  0  0  0  0
   28.0190   30.5870   50.3600 F   0  0  0  0  0  0  0  0  0  0  0  0
   27.1160   28.7300   51.1370 F   0  0  0  0  0  0  0  0  0  0  0  0
   26.5710   29.4660   49.0940 F   0  0  0  0  0  0  0  0  0  0  0  0
   33.3610   27.8220   48.5370 C   0  0  0  0  0  0  0  0  0  0  0  0
   34.1880   28.8830   47.9100 C   0  0  0  0  0  0  0  0  0  0  0  0
   35.1220   29.4280   48.9650 C   0  0  0  0  0  0  0  0  0  0  0  0
   35.9720   30.6220   48.5670 C   0  0  0  0  0  0  0  0  0  0  0  0
   36.8800   30.8820   50.1140 S   0  0  0  0  0  0  0  0  0  0  0  0
   36.0330   29.4340   51.0150 C   0  0  0  0  0  0  0  0  0  0  0  0
   35.1930   28.8960   50.1620 N   0  0  0  0  0  0  0  0  0  0  0  0
   30.4257   24.8512   46.7095 H   0  0  0  0  0  0  0  0  0  0  0  0
   32.1698   23.5300   45.5445 H   0  0  0  0  0  0  0  0  0  0  0  0
   34.5418   24.2805   45.8130 H   0  0  0  0  0  0  0  0  0  0  0  0
   35.1124   26.2397   47.1774 H   0  0  0  0  0  0  0  0  0  0  0  0
   29.1507   27.3091   51.1591 H   0  0  0  0  0  0  0  0  0  0  0  0
   28.5500   29.4841   47.4775 H   0  0  0  0  0  0  0  0  0  0  0  0
   32.4041   28.2771   48.8323 H   0  0  0  0  0  0  0  0  0  0  0  0
   33.9674   27.4403   49.3716 H   0  0  0  0  0  0  0  0  0  0  0  0
   34.7701   28.4603   47.0778 H   0  0  0  0  0  0  0  0  0  0  0  0
   33.5471   29.6848   47.5145 H   0  0  0  0  0  0  0  0  0  0  0  0
   36.0221   31.1706   47.6149 H   0  0  0  0  0  0  0  0  0  0  0  0
   36.2130   29.1107   52.0509 H   0  0  0  0  0  0  0  0  0  0  0  0
  1  6  1  0
  1 11  1  0
  2  1  2  0
  3  4  2  0
  3  2  1  0
  4  5  1  0
  5  6  2  0
  6 17  1  0
  8 13  1  0
  8  7  2  0
  9  8  1  0
 10  9  2  0
 10 11  1  0
 11 12  2  0
 12  7  1  0
 13 14  1  0
 13 15  1  0
 16 13  1  0
 18 17  1  0
 18 19  1  0
 19 23  1  0
 20 19  2  0
 20 21  1  0
 21 22  1  0
 23 22  2  0
  2 24  1  0
  3 25  1  0
  4 26  1  0
  5 27  1  0
  7 28  1  0
  9 29  1  0
 17 30  1  0
 17 31  1  0
 18 32  1  0
 18 33  1  0
 20 34  1  0
 22 35  1  0
M  ISO  8  24  14  25  14  26  14  27  14  28  14  29  14  30   8  31   8
M  ISO  4  32   8  33   8  34  14  35  14
M  END
>  <minimizedAffinity>  (1) 
-5.46485424

>  <minimizedRMSD>  (1) 
6.73812437

$$$$
