
     RDKit          3D

 38 40  0  0  0  0  0  0  0  0999 V2000
   32.7970   27.8970   48.6950 C   0  0  0  0  0  0  0  0  0  0  0  0
   31.7050   28.3290   49.3720 C   0  0  0  0  0  0  0  0  0  0  0  0
   30.4730   27.7060   49.3520 C   0  0  0  0  0  0  0  0  0  0  0  0
   30.3980   26.5600   48.5690 C   0  0  0  0  0  0  0  0  0  0  0  0
   31.4790   26.0900   47.8690 C   0  0  0  0  0  0  0  0  0  0  0  0
   32.6940   26.7550   47.9250 C   0  0  0  0  0  0  0  0  0  0  0  0
   36.1640   28.9660   49.6910 C   0  0  0  0  0  0  0  0  0  0  0  0
   36.4440   29.9840   48.7680 C   0  0  0  0  0  0  0  0  0  0  0  0
   35.4650   30.2850   47.8170 C   0  0  0  0  0  0  0  0  0  0  0  0
   34.2930   29.5670   47.8450 N   0  0  0  0  0  0  0  0  0  0  0  0
   34.0700   28.5950   48.7540 C   0  0  0  0  0  0  0  0  0  0  0  0
   35.0020   28.3040   49.6640 N   0  0  0  0  0  0  0  0  0  0  0  0
   37.7210   30.7500   48.7550 C   0  0  0  0  0  0  0  0  0  0  0  0
   38.5070   30.4880   47.6810 F   0  0  0  0  0  0  0  0  0  0  0  0
   38.4650   30.4900   49.9000 F   0  0  0  0  0  0  0  0  0  0  0  0
   37.4340   32.1280   48.7480 F   0  0  0  0  0  0  0  0  0  0  0  0
   33.8760   26.2850   47.1910 C   0  0  0  0  0  0  0  0  0  0  0  0
   33.9130   24.8240   46.9030 C   0  0  0  0  0  0  0  0  0  0  0  0
   34.8750   24.5870   45.7960 C   0  0  0  0  0  0  0  0  0  0  0  0
   35.8900   23.6430   45.8400 C   0  0  0  0  0  0  0  0  0  0  0  0
   36.7660   23.4510   44.7920 C   0  0  0  0  0  0  0  0  0  0  0  0
   36.6530   24.2100   43.6480 C   0  0  0  0  0  0  0  0  0  0  0  0
   35.6270   25.1300   43.6680 C   0  0  0  0  0  0  0  0  0  0  0  0
   34.7590   25.3360   44.6780 N   0  0  0  0  0  0  0  0  0  0  0  0
   31.8076   29.2399   49.9800 H   0  0  0  0  0  0  0  0  0  0  0  0
   29.6106   28.0900   49.9166 H   0  0  0  0  0  0  0  0  0  0  0  0
   29.4445   26.0149   48.5093 H   0  0  0  0  0  0  0  0  0  0  0  0
   31.3816   25.1797   47.2592 H   0  0  0  0  0  0  0  0  0  0  0  0
   36.9147   28.7068   50.4521 H   0  0  0  0  0  0  0  0  0  0  0  0
   35.6276   31.0737   47.0677 H   0  0  0  0  0  0  0  0  0  0  0  0
   33.9139   26.8207   46.2310 H   0  0  0  0  0  0  0  0  0  0  0  0
   34.7373   26.4857   47.8452 H   0  0  0  0  0  0  0  0  0  0  0  0
   34.2375   24.2768   47.8004 H   0  0  0  0  0  0  0  0  0  0  0  0
   32.9119   24.4707   46.6150 H   0  0  0  0  0  0  0  0  0  0  0  0
   36.0005   23.0250   46.7433 H   0  0  0  0  0  0  0  0  0  0  0  0
   37.5566   22.6901   44.8699 H   0  0  0  0  0  0  0  0  0  0  0  0
   37.3277   24.0913   42.7874 H   0  0  0  0  0  0  0  0  0  0  0  0
   35.5048   25.7570   42.7725 H   0  0  0  0  0  0  0  0  0  0  0  0
  1 11  1  0
  1  2  2  0
  3  2  1  0
  4  3  2  0
  5  6  2  0
  5  4  1  0
  6  1  1  0
  8  7  2  0
  9 10  2  0
  9  8  1  0
 10 11  1  0
 11 12  2  0
 12  7  1  0
 13  8  1  0
 13 15  1  0
 14 13  1  0
 16 13  1  0
 17  6  1  0
 18 17  1  0
 19 20  2  0
 19 18  1  0
 21 20  1  0
 22 23  1  0
 22 21  2  0
 23 24  2  0
 24 19  1  0
  2 25  1  0
  3 26  1  0
  4 27  1  0
  5 28  1  0
  7 29  1  0
  9 30  1  0
 17 31  1  0
 17 32  1  0
 18 33  1  0
 18 34  1  0
 20 35  1  0
 21 36  1  0
 22 37  1  0
 23 38  1  0
M  ISO  8  25  14  26  14  27  14  28  14  29  14  30  14  31   8  32   8
M  ISO  6  33   8  34   8  35  14  36  14  37  14  38  14
M  END
>  <minimizedAffinity>  (1) 
-5.31535673

>  <minimizedRMSD>  (1) 
0.591363728

$$$$
