
     RDKit          3D

 40 42  0  0  0  0  0  0  0  0999 V2000
   39.4360   32.3870   45.9990 C   0  0  0  0  0  0  0  0  0  0  0  0
   38.0610   32.8260   49.5050 C   0  0  0  0  0  0  0  0  0  0  0  0
   38.8650   33.0330   48.3810 C   0  0  0  0  0  0  0  0  0  0  0  0
   38.6580   32.2640   47.2390 C   0  0  0  0  0  0  0  0  0  0  0  0
   37.6560   31.3310   47.2860 N   0  0  0  0  0  0  0  0  0  0  0  0
   36.8950   31.1500   48.3780 C   0  0  0  0  0  0  0  0  0  0  0  0
   37.0850   31.8840   49.4820 N   0  0  0  0  0  0  0  0  0  0  0  0
   40.3120   31.1390   45.9110 C   0  0  0  0  0  0  0  0  0  0  0  0
   40.3120   33.5880   45.9340 C   0  0  0  0  0  0  0  0  0  0  0  0
   38.4840   32.3840   44.8410 C   0  0  0  0  0  0  0  0  0  0  0  0
   38.8360   31.3890   43.7820 C   0  0  0  0  0  0  0  0  0  0  0  0
   39.6400   31.8020   42.6590 C   0  0  0  0  0  0  0  0  0  0  0  0
   39.7360   30.2140   41.7370 S   0  0  0  0  0  0  0  0  0  0  0  0
   38.6900   29.3080   43.0200 C   0  0  0  0  0  0  0  0  0  0  0  0
   38.4750   30.1250   43.7670 N   0  0  0  0  0  0  0  0  0  0  0  0
   38.4510   27.9230   42.7460 N   0  0  0  0  0  0  0  0  0  0  0  0
   37.1980   27.2180   42.5510 C   0  0  0  0  0  0  0  0  0  0  0  0
   37.5600   25.8040   42.9230 C   0  0  0  0  0  0  0  0  0  0  0  0
   39.0360   25.7470   43.1840 C   0  0  0  0  0  0  0  0  0  0  0  0
   39.5660   27.0380   42.6330 C   0  0  0  0  0  0  0  0  0  0  0  0
   38.2200   33.4288   50.4113 H   0  0  0  0  0  0  0  0  0  0  0  0
   39.6555   33.7977   48.3983 H   0  0  0  0  0  0  0  0  0  0  0  0
   36.1031   30.3867   48.3653 H   0  0  0  0  0  0  0  0  0  0  0  0
   40.5566   30.7905   46.9252 H   0  0  0  0  0  0  0  0  0  0  0  0
   39.7700   30.3478   45.3722 H   0  0  0  0  0  0  0  0  0  0  0  0
   41.2403   31.3798   45.3722 H   0  0  0  0  0  0  0  0  0  0  0  0
   40.5546   33.9206   46.9541 H   0  0  0  0  0  0  0  0  0  0  0  0
   41.2401   33.3364   45.3999 H   0  0  0  0  0  0  0  0  0  0  0  0
   39.7889   34.3949   45.3999 H   0  0  0  0  0  0  0  0  0  0  0  0
   37.4776   32.1496   45.2182 H   0  0  0  0  0  0  0  0  0  0  0  0
   38.5345   33.3806   44.3781 H   0  0  0  0  0  0  0  0  0  0  0  0
   40.0722   32.7853   42.4217 H   0  0  0  0  0  0  0  0  0  0  0  0
   36.4119   27.6140   43.2107 H   0  0  0  0  0  0  0  0  0  0  0  0
   36.7938   27.3143   41.5325 H   0  0  0  0  0  0  0  0  0  0  0  0
   37.0107   25.5056   43.8281 H   0  0  0  0  0  0  0  0  0  0  0  0
   37.2936   25.1178   42.1056 H   0  0  0  0  0  0  0  0  0  0  0  0
   39.2373   25.6731   44.2629 H   0  0  0  0  0  0  0  0  0  0  0  0
   39.5089   24.8690   42.7197 H   0  0  0  0  0  0  0  0  0  0  0  0
   39.8730   26.9223   41.5831 H   0  0  0  0  0  0  0  0  0  0  0  0
   40.4591   27.3993   43.1638 H   0  0  0  0  0  0  0  0  0  0  0  0
  1  4  1  0
  3  2  2  0
  4  5  2  0
  4  3  1  0
  5  6  1  0
  6  7  2  0
  7  2  1  0
  8  1  1  0
  9  1  1  0
 10  1  1  0
 11 10  1  0
 12 11  2  0
 13 12  1  0
 13 14  1  0
 14 15  2  0
 15 11  1  0
 16 14  1  0
 17 16  1  0
 17 18  1  0
 18 19  1  0
 20 16  1  0
 20 19  1  0
  2 21  1  0
  3 22  1  0
  6 23  1  0
  8 24  1  0
  8 25  1  0
  8 26  1  0
  9 27  1  0
  9 28  1  0
  9 29  1  0
 10 30  1  0
 10 31  1  0
 12 32  1  0
 17 33  1  0
 17 34  1  0
 18 35  1  0
 18 36  1  0
 19 37  1  0
 19 38  1  0
 20 39  1  0
 20 40  1  0
M  ISO  8  21  14  22  14  23  14  24   8  25   8  26   8  27   8  28   8
M  ISO  8  29   8  30   8  31   8  32  14  33  13  34  13  35  13  36  13
M  ISO  4  37  13  38  13  39  13  40  13
M  END
>  <minimizedAffinity>  (1) 
-5.30497408

>  <minimizedRMSD>  (1) 
1.03088164

$$$$
