
     RDKit          3D

 41 44  0  0  0  0  0  0  0  0999 V2000
   31.7120   26.2710   47.6110 C   0  0  0  0  0  0  0  0  0  0  0  0
   31.4580   25.1340   46.9270 C   0  0  0  0  0  0  0  0  0  0  0  0
   32.4400   24.3630   46.3420 C   0  0  0  0  0  0  0  0  0  0  0  0
   33.7400   24.8180   46.4900 C   0  0  0  0  0  0  0  0  0  0  0  0
   34.0170   25.9700   47.1810 C   0  0  0  0  0  0  0  0  0  0  0  0
   33.0090   26.7140   47.7510 C   0  0  0  0  0  0  0  0  0  0  0  0
   29.2690   27.6290   50.0110 C   0  0  0  0  0  0  0  0  0  0  0  0
   28.5970   28.6090   49.2360 C   0  0  0  0  0  0  0  0  0  0  0  0
   29.0070   28.7650   47.9230 C   0  0  0  0  0  0  0  0  0  0  0  0
   30.0290   27.9800   47.4380 N   0  0  0  0  0  0  0  0  0  0  0  0
   30.6350   27.0620   48.2170 C   0  0  0  0  0  0  0  0  0  0  0  0
   30.2520   26.8990   49.4830 N   0  0  0  0  0  0  0  0  0  0  0  0
   27.5000   29.4390   49.7830 C   0  0  0  0  0  0  0  0  0  0  0  0
   27.9210   30.6370   50.2840 F   0  0  0  0  0  0  0  0  0  0  0  0
   26.8340   28.7880   50.8170 F   0  0  0  0  0  0  0  0  0  0  0  0
   26.5660   29.6960   48.7720 F   0  0  0  0  0  0  0  0  0  0  0  0
   33.2650   27.9570   48.5020 C   0  0  0  0  0  0  0  0  0  0  0  0
   33.8640   29.0580   47.7000 C   0  0  0  0  0  0  0  0  0  0  0  0
   35.0910   29.5440   48.3300 C   0  0  0  0  0  0  0  0  0  0  0  0
   35.7410   28.8750   49.3530 C   0  0  0  0  0  0  0  0  0  0  0  0
   36.8580   29.5830   49.7300 C   0  0  0  0  0  0  0  0  0  0  0  0
   36.8570   30.6880   48.9090 N   0  0  0  0  0  0  0  0  0  0  0  0
   35.8110   30.6570   48.0860 N   0  0  0  0  0  0  0  0  0  0  0  0
   37.7410   31.7990   48.7970 C   0  0  0  0  0  0  0  0  0  0  0  0
   38.6150   31.9320   47.7660 N   0  0  0  0  0  0  0  0  0  0  0  0
   39.2970   33.0220   47.9020 O   0  0  0  0  0  0  0  0  0  0  0  0
   38.9070   33.6390   49.0080 C   0  0  0  0  0  0  0  0  0  0  0  0
   37.9390   32.8830   49.5690 N   0  0  0  0  0  0  0  0  0  0  0  0
   30.4124   24.8060   46.8317 H   0  0  0  0  0  0  0  0  0  0  0  0
   32.2050   23.4409   45.7902 H   0  0  0  0  0  0  0  0  0  0  0  0
   34.5662   24.2443   46.0447 H   0  0  0  0  0  0  0  0  0  0  0  0
   35.0602   26.3042   47.2811 H   0  0  0  0  0  0  0  0  0  0  0  0
   28.9759   27.4696   51.0592 H   0  0  0  0  0  0  0  0  0  0  0  0
   28.5213   29.5084   47.2738 H   0  0  0  0  0  0  0  0  0  0  0  0
   32.3080   28.3130   48.9110 H   0  0  0  0  0  0  0  0  0  0  0  0
   34.0013   27.7035   49.2789 H   0  0  0  0  0  0  0  0  0  0  0  0
   33.1430   29.8855   47.6265 H   0  0  0  0  0  0  0  0  0  0  0  0
   34.1071   28.6754   46.6977 H   0  0  0  0  0  0  0  0  0  0  0  0
   35.4140   27.9229   49.7964 H   0  0  0  0  0  0  0  0  0  0  0  0
   37.5878   29.3246   50.5114 H   0  0  0  0  0  0  0  0  0  0  0  0
   39.2990   34.5904   49.3969 H   0  0  0  0  0  0  0  0  0  0  0  0
  1  6  1  0
  1 11  1  0
  2  1  2  0
  3  4  2  0
  3  2  1  0
  4  5  1  0
  5  6  2  0
  6 17  1  0
  8 13  1  0
  8  7  2  0
  9  8  1  0
 10  9  2  0
 10 11  1  0
 11 12  2  0
 12  7  1  0
 13 14  1  0
 13 15  1  0
 16 13  1  0
 18 19  1  0
 18 17  1  0
 19 20  1  0
 20 21  2  0
 22 21  1  0
 23 19  2  0
 23 22  1  0
 24 22  1  0
 24 28  1  0
 25 26  1  0
 25 24  2  0
 26 27  1  0
 27 28  2  0
  2 29  1  0
  3 30  1  0
  4 31  1  0
  5 32  1  0
  7 33  1  0
  9 34  1  0
 17 35  1  0
 17 36  1  0
 18 37  1  0
 18 38  1  0
 20 39  1  0
 21 40  1  0
 27 41  1  0
M  ISO  8  29  14  30  14  31  14  32  14  33  14  34  14  35   8  36   8
M  ISO  5  37   8  38   8  39  14  40  14  41  14
M  END
>  <minimizedAffinity>  (1) 
-7.08135462

>  <minimizedRMSD>  (1) 
0.846699655

$$$$
