
     RDKit          3D

 44 47  0  0  0  0  0  0  0  0999 V2000
   31.6550   26.2860   47.6220 C   0  0  0  0  0  0  0  0  0  0  0  0
   31.4050   25.1510   46.9380 C   0  0  0  0  0  0  0  0  0  0  0  0
   32.3920   24.3520   46.3950 C   0  0  0  0  0  0  0  0  0  0  0  0
   33.6890   24.7840   46.5920 C   0  0  0  0  0  0  0  0  0  0  0  0
   33.9730   25.9280   47.2800 C   0  0  0  0  0  0  0  0  0  0  0  0
   32.9620   26.6990   47.8080 C   0  0  0  0  0  0  0  0  0  0  0  0
   29.1650   27.7230   49.9260 C   0  0  0  0  0  0  0  0  0  0  0  0
   28.5260   28.6860   49.1220 C   0  0  0  0  0  0  0  0  0  0  0  0
   28.9710   28.8160   47.8010 C   0  0  0  0  0  0  0  0  0  0  0  0
   29.9960   28.0080   47.3650 N   0  0  0  0  0  0  0  0  0  0  0  0
   30.5730   27.1000   48.1810 C   0  0  0  0  0  0  0  0  0  0  0  0
   30.1510   26.9740   49.4390 N   0  0  0  0  0  0  0  0  0  0  0  0
   27.4250   29.5400   49.6230 C   0  0  0  0  0  0  0  0  0  0  0  0
   27.8590   30.6770   50.2490 F   0  0  0  0  0  0  0  0  0  0  0  0
   26.6180   28.8620   50.5160 F   0  0  0  0  0  0  0  0  0  0  0  0
   26.6210   29.9420   48.5380 F   0  0  0  0  0  0  0  0  0  0  0  0
   33.2080   27.9470   48.5590 C   0  0  0  0  0  0  0  0  0  0  0  0
   33.8000   29.0510   47.7570 C   0  0  0  0  0  0  0  0  0  0  0  0
   35.0570   29.4990   48.3540 C   0  0  0  0  0  0  0  0  0  0  0  0
   35.6820   28.8520   49.4060 C   0  0  0  0  0  0  0  0  0  0  0  0
   36.8400   29.5210   49.7340 C   0  0  0  0  0  0  0  0  0  0  0  0
   36.8830   30.5750   48.8540 N   0  0  0  0  0  0  0  0  0  0  0  0
   35.8320   30.5600   48.0420 N   0  0  0  0  0  0  0  0  0  0  0  0
   37.7910   31.6550   48.6290 C   0  0  0  0  0  0  0  0  0  0  0  0
   38.0710   32.6730   49.5180 C   0  0  0  0  0  0  0  0  0  0  0  0
   38.9920   33.6340   49.0990 C   0  0  0  0  0  0  0  0  0  0  0  0
   39.5790   33.5720   47.8900 N   0  0  0  0  0  0  0  0  0  0  0  0
   39.2800   32.5580   47.0410 C   0  0  0  0  0  0  0  0  0  0  0  0
   38.3900   31.6060   47.4110 N   0  0  0  0  0  0  0  0  0  0  0  0
   30.3569   24.8446   46.8052 H   0  0  0  0  0  0  0  0  0  0  0  0
   32.1600   23.4304   45.8410 H   0  0  0  0  0  0  0  0  0  0  0  0
   34.5179   24.1882   46.1821 H   0  0  0  0  0  0  0  0  0  0  0  0
   35.0201   26.2371   47.4140 H   0  0  0  0  0  0  0  0  0  0  0  0
   28.8451   27.5881   50.9698 H   0  0  0  0  0  0  0  0  0  0  0  0
   28.5099   29.5504   47.1242 H   0  0  0  0  0  0  0  0  0  0  0  0
   32.2477   28.2965   48.9659 H   0  0  0  0  0  0  0  0  0  0  0  0
   33.9450   27.7000   49.3374 H   0  0  0  0  0  0  0  0  0  0  0  0
   33.0939   29.8938   47.7243 H   0  0  0  0  0  0  0  0  0  0  0  0
   33.9997   28.6845   46.7392 H   0  0  0  0  0  0  0  0  0  0  0  0
   35.3109   27.9437   49.9032 H   0  0  0  0  0  0  0  0  0  0  0  0
   37.5655   29.2688   50.5214 H   0  0  0  0  0  0  0  0  0  0  0  0
   37.5922   32.7242   50.5070 H   0  0  0  0  0  0  0  0  0  0  0  0
   39.2447   34.4641   49.7750 H   0  0  0  0  0  0  0  0  0  0  0  0
   39.7598   32.5084   46.0524 H   0  0  0  0  0  0  0  0  0  0  0  0
  1  6  1  0
  1 11  1  0
  2  1  2  0
  3  4  2  0
  3  2  1  0
  4  5  1  0
  5  6  2  0
  6 17  1  0
  8 13  1  0
  8  7  2  0
  9  8  1  0
 10  9  2  0
 10 11  1  0
 11 12  2  0
 12  7  1  0
 13 14  1  0
 13 15  1  0
 16 13  1  0
 18 19  1  0
 18 17  1  0
 19 20  1  0
 20 21  2  0
 22 21  1  0
 23 19  2  0
 23 22  1  0
 24 22  1  0
 24 25  2  0
 26 25  1  0
 27 26  2  0
 28 29  2  0
 28 27  1  0
 29 24  1  0
  2 30  1  0
  3 31  1  0
  4 32  1  0
  5 33  1  0
  7 34  1  0
  9 35  1  0
 17 36  1  0
 17 37  1  0
 18 38  1  0
 18 39  1  0
 20 40  1  0
 21 41  1  0
 25 42  1  0
 26 43  1  0
 28 44  1  0
M  ISO  8  30  14  31  14  32  14  33  14  34  14  35  14  36   8  37   8
M  ISO  7  38   8  39   8  40  14  41  14  42  14  43  14  44  14
M  END
>  <minimizedAffinity>  (1) 
-6.99474907

>  <minimizedRMSD>  (1) 
1.05790246

$$$$
