
     RDKit          3D

 43 46  0  0  0  0  0  0  0  0999 V2000
   31.7040   26.2480   47.5880 C   0  0  0  0  0  0  0  0  0  0  0  0
   31.4210   25.1320   46.8860 C   0  0  0  0  0  0  0  0  0  0  0  0
   32.3850   24.3350   46.2970 C   0  0  0  0  0  0  0  0  0  0  0  0
   33.6910   24.7470   46.4660 C   0  0  0  0  0  0  0  0  0  0  0  0
   34.0010   25.8780   47.1750 C   0  0  0  0  0  0  0  0  0  0  0  0
   33.0130   26.6470   47.7480 C   0  0  0  0  0  0  0  0  0  0  0  0
   29.3110   27.6740   50.0050 C   0  0  0  0  0  0  0  0  0  0  0  0
   28.6480   28.6580   49.2240 C   0  0  0  0  0  0  0  0  0  0  0  0
   29.0470   28.7930   47.9060 C   0  0  0  0  0  0  0  0  0  0  0  0
   30.0490   27.9850   47.4170 N   0  0  0  0  0  0  0  0  0  0  0  0
   30.6490   27.0640   48.1970 C   0  0  0  0  0  0  0  0  0  0  0  0
   30.2750   26.9220   49.4690 N   0  0  0  0  0  0  0  0  0  0  0  0
   27.5730   29.5150   49.7730 C   0  0  0  0  0  0  0  0  0  0  0  0
   28.0370   30.6080   50.4440 F   0  0  0  0  0  0  0  0  0  0  0  0
   26.7650   28.8100   50.6640 F   0  0  0  0  0  0  0  0  0  0  0  0
   26.7560   29.9620   48.7290 F   0  0  0  0  0  0  0  0  0  0  0  0
   33.3010   27.8700   48.5190 C   0  0  0  0  0  0  0  0  0  0  0  0
   33.8160   29.0110   47.7140 C   0  0  0  0  0  0  0  0  0  0  0  0
   35.0760   29.5030   48.2720 C   0  0  0  0  0  0  0  0  0  0  0  0
   35.7340   28.9080   49.3340 C   0  0  0  0  0  0  0  0  0  0  0  0
   36.8820   29.6080   49.6150 C   0  0  0  0  0  0  0  0  0  0  0  0
   36.8930   30.6330   48.6980 N   0  0  0  0  0  0  0  0  0  0  0  0
   35.8190   30.5720   47.8980 N   0  0  0  0  0  0  0  0  0  0  0  0
   37.8270   31.6900   48.4850 C   0  0  0  0  0  0  0  0  0  0  0  0
   37.9600   32.6200   49.5030 C   0  0  0  0  0  0  0  0  0  0  0  0
   38.9170   33.5440   49.0700 C   0  0  0  0  0  0  0  0  0  0  0  0
   39.3030   33.1010   47.8010 C   0  0  0  0  0  0  0  0  0  0  0  0
   38.6370   32.0030   47.4900 O   0  0  0  0  0  0  0  0  0  0  0  0
   30.3662   24.8400   46.7760 H   0  0  0  0  0  0  0  0  0  0  0  0
   32.1270   23.4290   45.7291 H   0  0  0  0  0  0  0  0  0  0  0  0
   34.5030   24.1532   46.0208 H   0  0  0  0  0  0  0  0  0  0  0  0
   35.0539   26.1757   47.2879 H   0  0  0  0  0  0  0  0  0  0  0  0
   29.0282   27.5307   51.0583 H   0  0  0  0  0  0  0  0  0  0  0  0
   28.5681   29.5390   47.2548 H   0  0  0  0  0  0  0  0  0  0  0  0
   32.3709   28.1910   49.0108 H   0  0  0  0  0  0  0  0  0  0  0  0
   34.0998   27.6070   49.2280 H   0  0  0  0  0  0  0  0  0  0  0  0
   33.0746   29.8236   47.7218 H   0  0  0  0  0  0  0  0  0  0  0  0
   33.9922   28.6691   46.6834 H   0  0  0  0  0  0  0  0  0  0  0  0
   35.3903   28.0116   49.8710 H   0  0  0  0  0  0  0  0  0  0  0  0
   37.6255   29.3963   50.3976 H   0  0  0  0  0  0  0  0  0  0  0  0
   37.4203   32.6300   50.4615 H   0  0  0  0  0  0  0  0  0  0  0  0
   39.2861   34.4279   49.6108 H   0  0  0  0  0  0  0  0  0  0  0  0
   40.0486   33.5925   47.1587 H   0  0  0  0  0  0  0  0  0  0  0  0
  1  6  1  0
  1 11  1  0
  2  1  2  0
  3  4  2  0
  3  2  1  0
  4  5  1  0
  5  6  2  0
  6 17  1  0
  8 13  1  0
  8  7  2  0
  9  8  1  0
 10  9  2  0
 10 11  1  0
 11 12  2  0
 12  7  1  0
 13 14  1  0
 13 15  1  0
 16 13  1  0
 18 19  1  0
 18 17  1  0
 19 20  1  0
 20 21  2  0
 22 21  1  0
 23 19  2  0
 23 22  1  0
 24 22  1  0
 24 25  2  0
 26 25  1  0
 27 26  2  0
 28 27  1  0
 28 24  1  0
  2 29  1  0
  3 30  1  0
  4 31  1  0
  5 32  1  0
  7 33  1  0
  9 34  1  0
 17 35  1  0
 17 36  1  0
 18 37  1  0
 18 38  1  0
 20 39  1  0
 21 40  1  0
 25 41  1  0
 26 42  1  0
 27 43  1  0
M  ISO  8  29  14  30  14  31  14  32  14  33  14  34  14  35   8  36   8
M  ISO  7  37   8  38   8  39  14  40  14  41  14  42  14  43  14
M  END
>  <minimizedAffinity>  (1) 
-6.92808914

>  <minimizedRMSD>  (1) 
1.05367947

$$$$
