
     RDKit          3D

 39 41  0  0  0  0  0  0  0  0999 V2000
   31.7010   26.5740   47.8580 C   0  0  0  0  0  0  0  0  0  0  0  0
   31.4850   25.3490   47.3420 C   0  0  0  0  0  0  0  0  0  0  0  0
   32.5030   24.4970   46.9390 C   0  0  0  0  0  0  0  0  0  0  0  0
   33.7850   24.9750   47.0950 C   0  0  0  0  0  0  0  0  0  0  0  0
   34.0260   26.2170   47.6180 C   0  0  0  0  0  0  0  0  0  0  0  0
   32.9910   27.0370   48.0080 C   0  0  0  0  0  0  0  0  0  0  0  0
   29.1490   28.2820   49.8930 C   0  0  0  0  0  0  0  0  0  0  0  0
   28.5040   29.1070   48.9450 C   0  0  0  0  0  0  0  0  0  0  0  0
   28.9710   29.0520   47.6240 C   0  0  0  0  0  0  0  0  0  0  0  0
   30.0150   28.2100   47.3250 N   0  0  0  0  0  0  0  0  0  0  0  0
   30.5960   27.4410   48.2710 C   0  0  0  0  0  0  0  0  0  0  0  0
   30.1580   27.4890   49.5290 N   0  0  0  0  0  0  0  0  0  0  0  0
   27.3810   30.0060   49.2950 C   0  0  0  0  0  0  0  0  0  0  0  0
   27.7310   31.0060   50.1580 F   0  0  0  0  0  0  0  0  0  0  0  0
   26.3330   29.3090   49.8700 F   0  0  0  0  0  0  0  0  0  0  0  0
   26.8930   30.6160   48.1230 F   0  0  0  0  0  0  0  0  0  0  0  0
   33.2100   28.3820   48.5740 C   0  0  0  0  0  0  0  0  0  0  0  0
   34.1050   29.2630   47.7760 C   0  0  0  0  0  0  0  0  0  0  0  0
   35.2870   29.6260   48.5550 C   0  0  0  0  0  0  0  0  0  0  0  0
   35.7870   28.8630   49.5970 C   0  0  0  0  0  0  0  0  0  0  0  0
   36.9010   29.4740   50.1230 C   0  0  0  0  0  0  0  0  0  0  0  0
   37.0510   30.6140   49.3700 N   0  0  0  0  0  0  0  0  0  0  0  0
   36.1020   30.6970   48.4540 N   0  0  0  0  0  0  0  0  0  0  0  0
   38.0720   31.6420   49.4900 C   0  0  0  0  0  0  0  0  0  0  0  0
   38.8480   31.6950   48.3290 F   0  0  0  0  0  0  0  0  0  0  0  0
   38.8370   31.3280   50.5900 F   0  0  0  0  0  0  0  0  0  0  0  0
   37.4680   32.8890   49.6040 F   0  0  0  0  0  0  0  0  0  0  0  0
   30.4456   25.0055   47.2343 H   0  0  0  0  0  0  0  0  0  0  0  0
   32.2986   23.5005   46.5204 H   0  0  0  0  0  0  0  0  0  0  0  0
   34.6344   24.3448   46.7926 H   0  0  0  0  0  0  0  0  0  0  0  0
   35.0635   26.5655   47.7285 H   0  0  0  0  0  0  0  0  0  0  0  0
   28.8161   28.2936   50.9413 H   0  0  0  0  0  0  0  0  0  0  0  0
   28.5098   29.6718   46.8410 H   0  0  0  0  0  0  0  0  0  0  0  0
   32.2323   28.8785   48.6616 H   0  0  0  0  0  0  0  0  0  0  0  0
   33.7115   28.2301   49.5412 H   0  0  0  0  0  0  0  0  0  0  0  0
   33.5598   30.1767   47.4970 H   0  0  0  0  0  0  0  0  0  0  0  0
   34.4245   28.7235   46.8722 H   0  0  0  0  0  0  0  0  0  0  0  0
   35.3585   27.9134   49.9499 H   0  0  0  0  0  0  0  0  0  0  0  0
   37.5295   29.1287   50.9571 H   0  0  0  0  0  0  0  0  0  0  0  0
  1  6  1  0
  1 11  1  0
  2  1  2  0
  3  4  2  0
  3  2  1  0
  4  5  1  0
  5  6  2  0
  6 17  1  0
  8 13  1  0
  8  7  2  0
  9  8  1  0
 10  9  2  0
 10 11  1  0
 11 12  2  0
 12  7  1  0
 13 15  1  0
 13 14  1  0
 16 13  1  0
 18 19  1  0
 18 17  1  0
 19 20  1  0
 20 21  2  0
 22 24  1  0
 22 21  1  0
 23 19  2  0
 23 22  1  0
 24 27  1  0
 24 26  1  0
 25 24  1  0
  2 28  1  0
  3 29  1  0
  4 30  1  0
  5 31  1  0
  7 32  1  0
  9 33  1  0
 17 34  1  0
 17 35  1  0
 18 36  1  0
 18 37  1  0
 20 38  1  0
 21 39  1  0
M  ISO  8  28  14  29  14  30  14  31  14  32  14  33  14  34   8  35   8
M  ISO  4  36   8  37   8  38  14  39  14
M  END
>  <minimizedAffinity>  (1) 
-6.92398882

>  <minimizedRMSD>  (1) 
0.829359055

$$$$
