
     RDKit          3D

 48 50  0  0  0  0  0  0  0  0999 V2000
   31.5520   26.2430   47.5380 C   0  0  0  0  0  0  0  0  0  0  0  0
   31.2150   25.1360   46.8420 C   0  0  0  0  0  0  0  0  0  0  0  0
   32.1320   24.2700   46.2980 C   0  0  0  0  0  0  0  0  0  0  0  0
   33.4690   24.5900   46.5020 C   0  0  0  0  0  0  0  0  0  0  0  0
   33.8320   25.7100   47.2060 C   0  0  0  0  0  0  0  0  0  0  0  0
   32.8800   26.5540   47.7350 C   0  0  0  0  0  0  0  0  0  0  0  0
   29.2310   27.9130   49.8690 C   0  0  0  0  0  0  0  0  0  0  0  0
   28.6100   28.8760   49.0320 C   0  0  0  0  0  0  0  0  0  0  0  0
   29.0100   28.9190   47.6910 C   0  0  0  0  0  0  0  0  0  0  0  0
   29.9750   28.0340   47.2590 N   0  0  0  0  0  0  0  0  0  0  0  0
   30.5360   27.1360   48.0990 C   0  0  0  0  0  0  0  0  0  0  0  0
   30.1550   27.0960   49.3720 N   0  0  0  0  0  0  0  0  0  0  0  0
   27.5740   29.8150   49.5190 C   0  0  0  0  0  0  0  0  0  0  0  0
   28.0250   30.6720   50.4840 F   0  0  0  0  0  0  0  0  0  0  0  0
   26.4840   29.1330   50.0430 F   0  0  0  0  0  0  0  0  0  0  0  0
   27.1140   30.6010   48.4520 F   0  0  0  0  0  0  0  0  0  0  0  0
   33.2270   27.7660   48.4980 C   0  0  0  0  0  0  0  0  0  0  0  0
   33.9060   28.8290   47.7110 C   0  0  0  0  0  0  0  0  0  0  0  0
   34.9230   29.5000   48.5220 C   0  0  0  0  0  0  0  0  0  0  0  0
   35.1880   29.1590   49.8370 C   0  0  0  0  0  0  0  0  0  0  0  0
   36.1960   29.9710   50.3250 C   0  0  0  0  0  0  0  0  0  0  0  0
   36.5120   30.7920   49.2680 N   0  0  0  0  0  0  0  0  0  0  0  0
   35.7640   30.5110   48.2140 N   0  0  0  0  0  0  0  0  0  0  0  0
   37.5440   31.8310   49.3280 C   0  0  0  0  0  0  0  0  0  0  0  0
   37.0200   33.1040   49.9050 C   0  0  0  0  0  0  0  0  0  0  0  0
   38.6940   31.3760   50.2330 C   0  0  0  0  0  0  0  0  0  0  0  0
   38.1260   32.0670   47.9650 C   0  0  0  0  0  0  0  0  0  0  0  0
   30.1464   24.9154   46.7029 H   0  0  0  0  0  0  0  0  0  0  0  0
   31.8263   23.3762   45.7343 H   0  0  0  0  0  0  0  0  0  0  0  0
   34.2502   23.9333   46.0915 H   0  0  0  0  0  0  0  0  0  0  0  0
   34.8985   25.9376   47.3503 H   0  0  0  0  0  0  0  0  0  0  0  0
   28.9479   27.8423   50.9296 H   0  0  0  0  0  0  0  0  0  0  0  0
   28.5631   29.6447   46.9956 H   0  0  0  0  0  0  0  0  0  0  0  0
   32.2985   28.1871   48.9110 H   0  0  0  0  0  0  0  0  0  0  0  0
   33.9433   27.4493   49.2704 H   0  0  0  0  0  0  0  0  0  0  0  0
   34.3861   28.3764   46.8309 H   0  0  0  0  0  0  0  0  0  0  0  0
   33.1570   29.5707   47.3964 H   0  0  0  0  0  0  0  0  0  0  0  0
   34.6775   28.3671   50.4046 H   0  0  0  0  0  0  0  0  0  0  0  0
   36.6431   29.9620   51.3300 H   0  0  0  0  0  0  0  0  0  0  0  0
   37.0439   33.0460   51.0032 H   0  0  0  0  0  0  0  0  0  0  0  0
   37.6455   33.9439   49.5685 H   0  0  0  0  0  0  0  0  0  0  0  0
   35.9844   33.2602   49.5685 H   0  0  0  0  0  0  0  0  0  0  0  0
   38.3997   31.4925   51.2865 H   0  0  0  0  0  0  0  0  0  0  0  0
   38.9235   30.3193   50.0311 H   0  0  0  0  0  0  0  0  0  0  0  0
   39.5843   31.9896   50.0311 H   0  0  0  0  0  0  0  0  0  0  0  0
   39.1411   32.4786   48.0660 H   0  0  0  0  0  0  0  0  0  0  0  0
   38.1693   31.1154   47.4150 H   0  0  0  0  0  0  0  0  0  0  0  0
   37.4943   32.7800   47.4150 H   0  0  0  0  0  0  0  0  0  0  0  0
  1  6  1  0
  1 11  1  0
  2  1  2  0
  3  4  2  0
  3  2  1  0
  4  5  1  0
  5  6  2  0
  6 17  1  0
  8 13  1  0
  8  7  2  0
  9  8  1  0
 10  9  2  0
 10 11  1  0
 11 12  2  0
 12  7  1  0
 13 15  1  0
 13 14  1  0
 16 13  1  0
 18 17  1  0
 18 19  1  0
 19 20  1  0
 20 21  2  0
 22 24  1  0
 22 21  1  0
 23 19  2  0
 23 22  1  0
 24 25  1  0
 24 26  1  0
 27 24  1  0
  2 28  1  0
  3 29  1  0
  4 30  1  0
  5 31  1  0
  7 32  1  0
  9 33  1  0
 17 34  1  0
 17 35  1  0
 18 36  1  0
 18 37  1  0
 20 38  1  0
 21 39  1  0
 25 40  1  0
 25 41  1  0
 25 42  1  0
 26 43  1  0
 26 44  1  0
 26 45  1  0
 27 46  1  0
 27 47  1  0
 27 48  1  0
M  ISO  8  28  14  29  14  30  14  31  14  32  14  33  14  34   8  35   8
M  ISO  8  36   8  37   8  38  14  39  14  40   8  41   8  42   8  43   8
M  ISO  5  44   8  45   8  46   8  47   8  48   8
M  END
>  <minimizedAffinity>  (1) 
-6.37585545

>  <minimizedRMSD>  (1) 
0.682370424

$$$$
