
     RDKit          3D

 42 44  0  0  0  0  0  0  0  0999 V2000
   31.7140   26.5760   47.8790 C   0  0  0  0  0  0  0  0  0  0  0  0
   31.4980   25.3560   47.3530 C   0  0  0  0  0  0  0  0  0  0  0  0
   32.5110   24.5060   46.9460 C   0  0  0  0  0  0  0  0  0  0  0  0
   33.8000   24.9880   47.1130 C   0  0  0  0  0  0  0  0  0  0  0  0
   34.0430   26.2250   47.6470 C   0  0  0  0  0  0  0  0  0  0  0  0
   33.0040   27.0380   48.0390 C   0  0  0  0  0  0  0  0  0  0  0  0
   29.1540   28.2800   49.9090 C   0  0  0  0  0  0  0  0  0  0  0  0
   28.5100   29.1030   48.9480 C   0  0  0  0  0  0  0  0  0  0  0  0
   28.9770   29.0460   47.6310 C   0  0  0  0  0  0  0  0  0  0  0  0
   30.0260   28.2030   47.3420 N   0  0  0  0  0  0  0  0  0  0  0  0
   30.6040   27.4400   48.2970 C   0  0  0  0  0  0  0  0  0  0  0  0
   30.1630   27.4930   49.5440 N   0  0  0  0  0  0  0  0  0  0  0  0
   27.3810   29.9990   49.2950 C   0  0  0  0  0  0  0  0  0  0  0  0
   27.7260   31.0080   50.1480 F   0  0  0  0  0  0  0  0  0  0  0  0
   26.3330   29.2990   49.8660 F   0  0  0  0  0  0  0  0  0  0  0  0
   26.8940   30.6020   48.1190 F   0  0  0  0  0  0  0  0  0  0  0  0
   33.2170   28.3760   48.6200 C   0  0  0  0  0  0  0  0  0  0  0  0
   34.2550   29.1950   47.9390 C   0  0  0  0  0  0  0  0  0  0  0  0
   35.3120   29.5720   48.8770 C   0  0  0  0  0  0  0  0  0  0  0  0
   35.3770   29.1020   50.1770 C   0  0  0  0  0  0  0  0  0  0  0  0
   36.4840   29.6380   50.8020 C   0  0  0  0  0  0  0  0  0  0  0  0
   37.0660   30.4320   49.8430 N   0  0  0  0  0  0  0  0  0  0  0  0
   36.3750   30.3880   48.7170 N   0  0  0  0  0  0  0  0  0  0  0  0
   38.2860   31.2120   50.0560 C   0  0  0  0  0  0  0  0  0  0  0  0
   38.2220   32.5630   49.3800 C   0  0  0  0  0  0  0  0  0  0  0  0
   30.4580   25.0158   47.2404 H   0  0  0  0  0  0  0  0  0  0  0  0
   32.3070   23.5133   46.5182 H   0  0  0  0  0  0  0  0  0  0  0  0
   34.6501   24.3599   46.8084 H   0  0  0  0  0  0  0  0  0  0  0  0
   35.0800   26.5729   47.7640 H   0  0  0  0  0  0  0  0  0  0  0  0
   28.8185   28.2929   50.9565 H   0  0  0  0  0  0  0  0  0  0  0  0
   28.5164   29.6610   46.8438 H   0  0  0  0  0  0  0  0  0  0  0  0
   32.2645   28.9242   48.5743 H   0  0  0  0  0  0  0  0  0  0  0  0
   33.5761   28.2134   49.6469 H   0  0  0  0  0  0  0  0  0  0  0  0
   34.6934   28.6113   47.1162 H   0  0  0  0  0  0  0  0  0  0  0  0
   33.7848   30.1098   47.5489 H   0  0  0  0  0  0  0  0  0  0  0  0
   34.6585   28.4094   50.6396 H   0  0  0  0  0  0  0  0  0  0  0  0
   36.8239   29.4683   51.8343 H   0  0  0  0  0  0  0  0  0  0  0  0
   38.4269   31.3623   51.1365 H   0  0  0  0  0  0  0  0  0  0  0  0
   39.1263   30.6533   49.6181 H   0  0  0  0  0  0  0  0  0  0  0  0
   38.1845   33.3538   50.1437 H   0  0  0  0  0  0  0  0  0  0  0  0
   39.1146   32.7015   48.7522 H   0  0  0  0  0  0  0  0  0  0  0  0
   37.3203   32.6165   48.7522 H   0  0  0  0  0  0  0  0  0  0  0  0
  1  6  1  0
  1 11  1  0
  2  1  2  0
  3  4  2  0
  3  2  1  0
  4  5  1  0
  5  6  2  0
  6 17  1  0
  8 13  1  0
  8  7  2  0
  9  8  1  0
 10  9  2  0
 10 11  1  0
 11 12  2  0
 12  7  1  0
 13 15  1  0
 13 14  1  0
 16 13  1  0
 18 17  1  0
 18 19  1  0
 19 20  1  0
 20 21  2  0
 22 24  1  0
 22 21  1  0
 23 19  2  0
 23 22  1  0
 25 24  1  0
  2 26  1  0
  3 27  1  0
  4 28  1  0
  5 29  1  0
  7 30  1  0
  9 31  1  0
 17 32  1  0
 17 33  1  0
 18 34  1  0
 18 35  1  0
 20 36  1  0
 21 37  1  0
 24 38  1  0
 24 39  1  0
 25 40  1  0
 25 41  1  0
 25 42  1  0
M  ISO  8  26  14  27  14  28  14  29  14  30  14  31  14  32   8  33   8
M  ISO  8  34   8  35   8  36  14  37  14  38   8  39   8  40   8  41   8
M  ISO  1  42   8
M  END
>  <minimizedAffinity>  (1) 
-6.22080469

>  <minimizedRMSD>  (1) 
0.682362854

$$$$
