
     RDKit          3D

 41 43  0  0  0  0  0  0  0  0999 V2000
   38.4070   32.4490   44.8770 C   0  0  0  0  0  0  0  0  0  0  0  0
   38.8920   31.7390   43.6590 C   0  0  0  0  0  0  0  0  0  0  0  0
   39.5430   32.4680   42.6110 C   0  0  0  0  0  0  0  0  0  0  0  0
   39.9070   31.1190   41.4130 S   0  0  0  0  0  0  0  0  0  0  0  0
   39.1160   29.8270   42.5460 C   0  0  0  0  0  0  0  0  0  0  0  0
   38.7830   30.4480   43.4260 N   0  0  0  0  0  0  0  0  0  0  0  0
   38.9790   25.6980   41.5370 C   0  0  0  0  0  0  0  0  0  0  0  0
   38.9270   26.6710   40.5610 C   0  0  0  0  0  0  0  0  0  0  0  0
   38.9670   28.0200   40.8430 C   0  0  0  0  0  0  0  0  0  0  0  0
   39.0650   28.4040   42.1510 C   0  0  0  0  0  0  0  0  0  0  0  0
   39.1180   27.4210   43.1430 C   0  0  0  0  0  0  0  0  0  0  0  0
   39.0770   26.0630   42.8630 C   0  0  0  0  0  0  0  0  0  0  0  0
   38.9180   24.0150   41.0580 S   0  0  0  0  0  0  0  0  0  0  0  0
   39.9160   23.7010   39.9970 O   0  0  0  0  0  0  0  0  0  0  0  0
   37.5190   23.7370   40.5980 O   0  0  0  0  0  0  0  0  0  0  0  0
   39.3840   32.4100   46.0100 C   0  0  0  0  0  0  0  0  0  0  0  0
   38.0780   32.8050   49.5510 C   0  0  0  0  0  0  0  0  0  0  0  0
   38.8610   33.0220   48.4180 C   0  0  0  0  0  0  0  0  0  0  0  0
   38.6330   32.2800   47.2700 C   0  0  0  0  0  0  0  0  0  0  0  0
   37.6210   31.3520   47.3200 N   0  0  0  0  0  0  0  0  0  0  0  0
   36.8760   31.1550   48.4220 C   0  0  0  0  0  0  0  0  0  0  0  0
   37.0970   31.8770   49.5400 N   0  0  0  0  0  0  0  0  0  0  0  0
   40.2320   31.1370   45.8810 C   0  0  0  0  0  0  0  0  0  0  0  0
   40.2940   33.5820   45.9680 C   0  0  0  0  0  0  0  0  0  0  0  0
   37.4698   31.9770   45.2070 H   0  0  0  0  0  0  0  0  0  0  0  0
   38.2640   33.5051   44.6047 H   0  0  0  0  0  0  0  0  0  0  0  0
   39.7651   33.5431   42.5414 H   0  0  0  0  0  0  0  0  0  0  0  0
   38.8501   26.3565   39.5097 H   0  0  0  0  0  0  0  0  0  0  0  0
   38.9213   28.7671   40.0369 H   0  0  0  0  0  0  0  0  0  0  0  0
   39.1957   27.7385   44.1933 H   0  0  0  0  0  0  0  0  0  0  0  0
   39.1208   25.3102   43.6639 H   0  0  0  0  0  0  0  0  0  0  0  0
   39.2436   23.2112   42.1185 H   0  0  0  0  0  0  0  0  0  0  0  0
   38.2608   33.3946   50.4615 H   0  0  0  0  0  0  0  0  0  0  0  0
   39.6577   33.7803   48.4353 H   0  0  0  0  0  0  0  0  0  0  0  0
   36.0784   30.3976   48.4118 H   0  0  0  0  0  0  0  0  0  0  0  0
   40.4829   30.7604   46.8836 H   0  0  0  0  0  0  0  0  0  0  0  0
   39.6629   30.3713   45.3335 H   0  0  0  0  0  0  0  0  0  0  0  0
   41.1579   31.3671   45.3335 H   0  0  0  0  0  0  0  0  0  0  0  0
   40.5368   33.8947   46.9943 H   0  0  0  0  0  0  0  0  0  0  0  0
   41.2192   33.3091   45.4393 H   0  0  0  0  0  0  0  0  0  0  0  0
   39.8004   34.4107   45.4393 H   0  0  0  0  0  0  0  0  0  0  0  0
  1 16  1  0
  2  1  1  0
  3  2  2  0
  4  5  1  0
  4  3  1  0
  5  6  2  0
  6  2  1  0
  7 12  2  0
  8  9  2  0
  8  7  1  0
  9 10  1  0
 10  5  1  0
 10 11  2  0
 12 11  1  0
 13  7  1  0
 14 13  2  0
 15 13  2  0
 16 19  1  0
 18 17  2  0
 19 20  2  0
 19 18  1  0
 20 21  1  0
 21 22  2  0
 22 17  1  0
 23 16  1  0
 24 16  1  0
  1 25  1  0
  1 26  1  0
  3 27  1  0
  8 28  1  0
  9 29  1  0
 11 30  1  0
 12 31  1  0
 13 32  1  0
 17 33  1  0
 18 34  1  0
 21 35  1  0
 23 36  1  0
 23 37  1  0
 23 38  1  0
 24 39  1  0
 24 40  1  0
 24 41  1  0
M  ISO  8  25   8  26   8  27  14  28  14  29  14  30  14  31  14  32  11
M  ISO  8  33  14  34  14  35  14  36   8  37   8  38   8  39   8  40   8
M  ISO  1  41   8
M  END
>  <minimizedAffinity>  (1) 
-5.17612553

>  <minimizedRMSD>  (1) 
0.992403626

$$$$
