
     RDKit          3D

 26 27  0  0  0  0  0  0  0  0999 V2000
   36.4360   29.8700   49.7350 C   0  0  0  0  0  0  0  0  0  0  0  0
   37.3700   30.6250   49.0320 C   0  0  0  0  0  0  0  0  0  0  0  0
   37.0970   30.9900   47.7200 C   0  0  0  0  0  0  0  0  0  0  0  0
   35.9030   30.5760   47.1880 N   0  0  0  0  0  0  0  0  0  0  0  0
   35.0080   29.8420   47.8910 C   0  0  0  0  0  0  0  0  0  0  0  0
   35.2840   29.4970   49.1570 N   0  0  0  0  0  0  0  0  0  0  0  0
   37.9400   31.7450   46.8960 N   0  0  0  0  0  0  0  0  0  0  0  0
   37.8390   31.6100   45.5410 C   0  0  0  0  0  0  0  0  0  0  0  0
   38.6250   32.3100   44.6450 C   0  0  0  0  0  0  0  0  0  0  0  0
   38.3820   32.0400   43.1870 C   0  0  0  0  0  0  0  0  0  0  0  0
   39.5660   33.1930   45.1370 C   0  0  0  0  0  0  0  0  0  0  0  0
   40.2560   33.8030   44.3030 O   0  0  0  0  0  0  0  0  0  0  0  0
   39.6700   33.3300   46.4840 N   0  0  0  0  0  0  0  0  0  0  0  0
   38.8720   32.6160   47.2980 C   0  0  0  0  0  0  0  0  0  0  0  0
   39.0090   32.7810   48.5360 O   0  0  0  0  0  0  0  0  0  0  0  0
   36.7420   29.4840   51.1490 C   0  0  0  0  0  0  0  0  0  0  0  0
   35.5800   29.1070   51.8000 F   0  0  0  0  0  0  0  0  0  0  0  0
   37.6920   28.4960   51.1210 F   0  0  0  0  0  0  0  0  0  0  0  0
   37.2430   30.6110   51.7920 F   0  0  0  0  0  0  0  0  0  0  0  0
   38.3131   30.9290   49.5096 H   0  0  0  0  0  0  0  0  0  0  0  0
   34.0607   29.5308   47.4264 H   0  0  0  0  0  0  0  0  0  0  0  0
   37.0930   30.9073   45.1415 H   0  0  0  0  0  0  0  0  0  0  0  0
   37.6495   31.2261   43.0819 H   0  0  0  0  0  0  0  0  0  0  0  0
   37.9917   32.9489   42.7058 H   0  0  0  0  0  0  0  0  0  0  0  0
   39.3269   31.7473   42.7058 H   0  0  0  0  0  0  0  0  0  0  0  0
   40.3609   33.9815   46.8829 H   0  0  0  0  0  0  0  0  0  0  0  0
  1 16  1  0
  2  1  2  0
  3  2  1  0
  4  3  2  0
  4  5  1  0
  5  6  2  0
  6  1  1  0
  7 14  1  0
  7  3  1  0
  8  7  1  0
  9 11  1  0
  9  8  2  0
 10  9  1  0
 11 13  1  0
 12 11  2  0
 13 14  1  0
 14 15  2  0
 16 19  1  0
 16 17  1  0
 18 16  1  0
  2 20  1  0
  5 21  1  0
  8 22  1  0
 10 23  1  0
 10 24  1  0
 10 25  1  0
 13 26  1  0
M  ISO  7  20  14  21  14  22  14  23   8  24   8  25   8  26   9
M  END
>  <minimizedAffinity>  (1) 
-6.89327002

>  <minimizedRMSD>  (1) 
2.86379242

$$$$
