
     RDKit          3D

 27 29  0  0  0  0  0  0  0  0999 V2000
   36.2450   29.6780   49.6870 C   0  0  0  0  0  0  0  0  0  0  0  0
   37.1250   30.3370   48.8470 C   0  0  0  0  0  0  0  0  0  0  0  0
   36.8300   30.6140   47.5220 C   0  0  0  0  0  0  0  0  0  0  0  0
   35.6170   30.1900   47.1240 N   0  0  0  0  0  0  0  0  0  0  0  0
   34.7510   29.5500   47.9280 C   0  0  0  0  0  0  0  0  0  0  0  0
   35.0700   29.2970   49.2060 N   0  0  0  0  0  0  0  0  0  0  0  0
   37.9070   31.3150   46.8410 C   0  0  0  0  0  0  0  0  0  0  0  0
   38.3220   31.0020   45.5770 N   0  0  0  0  0  0  0  0  0  0  0  0
   39.3040   31.6270   44.9340 C   0  0  0  0  0  0  0  0  0  0  0  0
   39.9800   32.6440   45.4950 N   0  0  0  0  0  0  0  0  0  0  0  0
   39.6510   33.0320   46.7420 C   0  0  0  0  0  0  0  0  0  0  0  0
   40.3420   34.0740   47.3250 C   0  0  0  0  0  0  0  0  0  0  0  0
   40.0320   34.4990   48.5990 C   0  0  0  0  0  0  0  0  0  0  0  0
   38.9980   33.8350   49.2700 C   0  0  0  0  0  0  0  0  0  0  0  0
   38.3550   32.8050   48.6210 C   0  0  0  0  0  0  0  0  0  0  0  0
   38.6280   32.3600   47.3730 C   0  0  0  0  0  0  0  0  0  0  0  0
   36.6280   29.4130   51.1100 C   0  0  0  0  0  0  0  0  0  0  0  0
   35.4870   29.0960   51.8380 F   0  0  0  0  0  0  0  0  0  0  0  0
   37.6040   28.4820   51.1320 F   0  0  0  0  0  0  0  0  0  0  0  0
   37.1140   30.6210   51.6350 F   0  0  0  0  0  0  0  0  0  0  0  0
   38.0991   30.6541   49.2477 H   0  0  0  0  0  0  0  0  0  0  0  0
   33.7741   29.2315   47.5354 H   0  0  0  0  0  0  0  0  0  0  0  0
   39.5698   31.3033   43.9169 H   0  0  0  0  0  0  0  0  0  0  0  0
   41.1492   34.5711   46.7670 H   0  0  0  0  0  0  0  0  0  0  0  0
   40.5771   35.3295   49.0713 H   0  0  0  0  0  0  0  0  0  0  0  0
   38.7069   34.1287   50.2893 H   0  0  0  0  0  0  0  0  0  0  0  0
   37.5458   32.2978   49.1668 H   0  0  0  0  0  0  0  0  0  0  0  0
  1 17  1  0
  2  1  2  0
  3  2  1  0
  4  3  2  0
  4  5  1  0
  5  6  2  0
  6  1  1  0
  7 16  1  0
  7  3  1  0
  8  7  2  0
  9 10  2  0
  9  8  1  0
 10 11  1  0
 11 12  1  0
 11 16  2  0
 12 13  2  0
 13 14  1  0
 15 14  2  0
 16 15  1  0
 17 19  1  0
 17 20  1  0
 17 18  1  0
  2 21  1  0
  5 22  1  0
  9 23  1  0
 12 24  1  0
 13 25  1  0
 14 26  1  0
 15 27  1  0
M  ISO  7  21  14  22  14  23  14  24  14  25  14  26  14  27  14
M  END
>  <minimizedAffinity>  (1) 
-6.76927185

>  <minimizedRMSD>  (1) 
3.29169297

$$$$
