
     RDKit          3D

 25 26  0  0  0  0  0  0  0  0999 V2000
   36.8020   29.9710   49.3840 C   0  0  0  0  0  0  0  0  0  0  0  0
   37.9550   30.4980   48.7650 C   0  0  0  0  0  0  0  0  0  0  0  0
   37.8730   30.8770   47.4310 C   0  0  0  0  0  0  0  0  0  0  0  0
   36.6920   30.7200   46.7970 N   0  0  0  0  0  0  0  0  0  0  0  0
   35.5870   30.2100   47.4100 C   0  0  0  0  0  0  0  0  0  0  0  0
   35.6550   29.8420   48.6960 N   0  0  0  0  0  0  0  0  0  0  0  0
   38.9830   31.4030   46.7700 N   0  0  0  0  0  0  0  0  0  0  0  0
   39.5410   32.7350   46.9140 C   0  0  0  0  0  0  0  0  0  0  0  0
   39.7600   33.0910   45.4380 C   0  0  0  0  0  0  0  0  0  0  0  0
   40.4040   31.8100   44.9540 C   0  0  0  0  0  0  0  0  0  0  0  0
   39.8060   30.7000   45.7940 C   0  0  0  0  0  0  0  0  0  0  0  0
   36.8890   29.5590   50.8240 C   0  0  0  0  0  0  0  0  0  0  0  0
   35.6460   29.2100   51.2840 F   0  0  0  0  0  0  0  0  0  0  0  0
   37.8090   28.5430   50.9040 F   0  0  0  0  0  0  0  0  0  0  0  0
   37.3370   30.6530   51.5410 F   0  0  0  0  0  0  0  0  0  0  0  0
   38.8957   30.6061   49.3248 H   0  0  0  0  0  0  0  0  0  0  0  0
   34.6452   30.1012   46.8522 H   0  0  0  0  0  0  0  0  0  0  0  0
   38.8342   33.4237   47.3998 H   0  0  0  0  0  0  0  0  0  0  0  0
   40.4404   32.7956   47.5443 H   0  0  0  0  0  0  0  0  0  0  0  0
   38.8101   33.2916   44.9208 H   0  0  0  0  0  0  0  0  0  0  0  0
   40.3505   34.0024   45.2630 H   0  0  0  0  0  0  0  0  0  0  0  0
   40.1793   31.6475   43.8895 H   0  0  0  0  0  0  0  0  0  0  0  0
   41.4989   31.8462   45.0538 H   0  0  0  0  0  0  0  0  0  0  0  0
   39.1921   30.0287   45.1756 H   0  0  0  0  0  0  0  0  0  0  0  0
   40.5712   30.0645   46.2637 H   0  0  0  0  0  0  0  0  0  0  0  0
  1 12  1  0
  2  1  2  0
  3  2  1  0
  4  5  1  0
  4  3  2  0
  5  6  2  0
  6  1  1  0
  7  8  1  0
  7  3  1  0
  9  8  1  0
 10  9  1  0
 10 11  1  0
 11  7  1  0
 12 14  1  0
 12 13  1  0
 12 15  1  0
  2 16  1  0
  5 17  1  0
  8 18  1  0
  8 19  1  0
  9 20  1  0
  9 21  1  0
 10 22  1  0
 10 23  1  0
 11 24  1  0
 11 25  1  0
M  ISO  8  16  14  17  14  18  13  19  13  20  13  21  13  22  13  23  13
M  ISO  2  24  13  25  13
M  END
>  <minimizedAffinity>  (1) 
-5.75919151

>  <minimizedRMSD>  (1) 
2.23833346

$$$$
