
     RDKit          3D

 20 21  0  0  0  0  0  0  0  0999 V2000
   36.6640   29.8640   49.4920 C   0  0  0  0  0  0  0  0  0  0  0  0
   37.7320   30.4320   48.7910 C   0  0  0  0  0  0  0  0  0  0  0  0
   37.5370   30.7600   47.4520 C   0  0  0  0  0  0  0  0  0  0  0  0
   36.3190   30.5120   46.8920 N   0  0  0  0  0  0  0  0  0  0  0  0
   35.3140   29.9610   47.6050 C   0  0  0  0  0  0  0  0  0  0  0  0
   35.4810   29.6360   48.9010 N   0  0  0  0  0  0  0  0  0  0  0  0
   38.6320   31.3380   46.7510 N   0  0  0  0  0  0  0  0  0  0  0  0
   39.2170   30.6610   45.7300 C   0  0  0  0  0  0  0  0  0  0  0  0
   40.2330   31.5060   45.2820 C   0  0  0  0  0  0  0  0  0  0  0  0
   40.2210   32.6270   46.0300 N   0  0  0  0  0  0  0  0  0  0  0  0
   39.2230   32.5320   46.9530 C   0  0  0  0  0  0  0  0  0  0  0  0
   36.8560   29.5020   50.9440 C   0  0  0  0  0  0  0  0  0  0  0  0
   35.6430   29.1590   51.5100 F   0  0  0  0  0  0  0  0  0  0  0  0
   37.8160   28.5440   51.0150 F   0  0  0  0  0  0  0  0  0  0  0  0
   37.2830   30.6670   51.5950 F   0  0  0  0  0  0  0  0  0  0  0  0
   38.6986   30.6145   49.2832 H   0  0  0  0  0  0  0  0  0  0  0  0
   34.3443   29.7747   47.1202 H   0  0  0  0  0  0  0  0  0  0  0  0
   38.9495   29.6671   45.3421 H   0  0  0  0  0  0  0  0  0  0  0  0
   40.9277   31.2928   44.4562 H   0  0  0  0  0  0  0  0  0  0  0  0
   38.9534   33.2811   47.7121 H   0  0  0  0  0  0  0  0  0  0  0  0
  1 12  1  0
  2  1  2  0
  3  2  1  0
  4  3  2  0
  4  5  1  0
  5  6  2  0
  6  1  1  0
  7 11  1  0
  7  3  1  0
  8  7  1  0
  9  8  2  0
  9 10  1  0
 10 11  2  0
 12 14  1  0
 12 13  1  0
 12 15  1  0
  2 16  1  0
  5 17  1  0
  8 18  1  0
  9 19  1  0
 11 20  1  0
M  ISO  5  16  14  17  14  18  14  19  14  20  14
M  END
>  <minimizedAffinity>  (1) 
-5.58370733

>  <minimizedRMSD>  (1) 
2.42620611

$$$$
