
     RDKit          3D

 37 39  0  0  0  0  0  0  0  0999 V2000
   39.2290   32.3830   46.1420 C   0  0  0  0  0  0  0  0  0  0  0  0
   37.6890   32.5700   49.6000 C   0  0  0  0  0  0  0  0  0  0  0  0
   38.5400   32.8700   48.5280 C   0  0  0  0  0  0  0  0  0  0  0  0
   38.3970   32.1600   47.3360 C   0  0  0  0  0  0  0  0  0  0  0  0
   37.4230   31.1990   47.2830 N   0  0  0  0  0  0  0  0  0  0  0  0
   36.6140   30.9260   48.3260 C   0  0  0  0  0  0  0  0  0  0  0  0
   36.7370   31.6010   49.4830 N   0  0  0  0  0  0  0  0  0  0  0  0
   40.1010   31.1260   45.9930 C   0  0  0  0  0  0  0  0  0  0  0  0
   40.1060   33.5720   46.2200 C   0  0  0  0  0  0  0  0  0  0  0  0
   38.3310   32.4650   44.9520 C   0  0  0  0  0  0  0  0  0  0  0  0
   38.8700   31.7730   43.7420 C   0  0  0  0  0  0  0  0  0  0  0  0
   39.5040   32.5370   42.7050 C   0  0  0  0  0  0  0  0  0  0  0  0
   39.9460   31.2030   41.5220 S   0  0  0  0  0  0  0  0  0  0  0  0
   39.1980   29.8730   42.6400 C   0  0  0  0  0  0  0  0  0  0  0  0
   38.8230   30.4800   43.5130 N   0  0  0  0  0  0  0  0  0  0  0  0
   39.2830   28.4800   42.1320 C   0  0  0  0  0  0  0  0  0  0  0  0
   39.0890   27.3710   42.8860 C   0  0  0  0  0  0  0  0  0  0  0  0
   39.2160   26.1510   42.2120 C   0  0  0  0  0  0  0  0  0  0  0  0
   39.5210   26.1420   40.8670 C   0  0  0  0  0  0  0  0  0  0  0  0
   39.7140   27.3110   40.1280 C   0  0  0  0  0  0  0  0  0  0  0  0
   39.5760   28.4480   40.8380 N   0  0  0  0  0  0  0  0  0  0  0  0
   37.7901   33.1221   50.5460 H   0  0  0  0  0  0  0  0  0  0  0  0
   39.3076   33.6519   48.6248 H   0  0  0  0  0  0  0  0  0  0  0  0
   35.8462   30.1441   48.2302 H   0  0  0  0  0  0  0  0  0  0  0  0
   40.3663   30.7435   46.9897 H   0  0  0  0  0  0  0  0  0  0  0  0
   39.5424   30.3555   45.4414 H   0  0  0  0  0  0  0  0  0  0  0  0
   41.0183   31.3794   45.4414 H   0  0  0  0  0  0  0  0  0  0  0  0
   40.2909   33.8227   47.2750 H   0  0  0  0  0  0  0  0  0  0  0  0
   41.0624   33.3555   45.7215 H   0  0  0  0  0  0  0  0  0  0  0  0
   39.6168   34.4218   45.7215 H   0  0  0  0  0  0  0  0  0  0  0  0
   37.3660   32.0061   45.2132 H   0  0  0  0  0  0  0  0  0  0  0  0
   38.2343   33.5304   44.6959 H   0  0  0  0  0  0  0  0  0  0  0  0
   39.6772   33.6212   42.6375 H   0  0  0  0  0  0  0  0  0  0  0  0
   38.8475   27.4260   43.9578 H   0  0  0  0  0  0  0  0  0  0  0  0
   39.0732   25.2037   42.7525 H   0  0  0  0  0  0  0  0  0  0  0  0
   39.6162   25.1732   40.3548 H   0  0  0  0  0  0  0  0  0  0  0  0
   39.9584   27.3043   39.0555 H   0  0  0  0  0  0  0  0  0  0  0  0
  1  9  1  0
  1  4  1  0
  3  2  2  0
  4  3  1  0
  5  4  2  0
  5  6  1  0
  6  7  2  0
  7  2  1  0
  8  1  1  0
 10  1  1  0
 11 10  1  0
 12 11  2  0
 13 14  1  0
 13 12  1  0
 14 15  2  0
 15 11  1  0
 16 14  1  0
 16 17  2  0
 18 17  1  0
 19 18  2  0
 20 21  2  0
 20 19  1  0
 21 16  1  0
  2 22  1  0
  3 23  1  0
  6 24  1  0
  8 25  1  0
  8 26  1  0
  8 27  1  0
  9 28  1  0
  9 29  1  0
  9 30  1  0
 10 31  1  0
 10 32  1  0
 12 33  1  0
 17 34  1  0
 18 35  1  0
 19 36  1  0
 20 37  1  0
M  ISO  8  22  14  23  14  24  14  25   8  26   8  27   8  28   8  29   8
M  ISO  8  30   8  31   8  32   8  33  14  34  14  35  14  36  14  37  14
M  END
>  <minimizedAffinity>  (1) 
-5.10856581

>  <minimizedRMSD>  (1) 
0.705453753

$$$$
