
     RDKit          3D

 20 21  0  0  0  0  0  0  0  0999 V2000
   37.3290   30.2790   50.0140 C   0  0  0  0  0  0  0  0  0  0  0  0
   37.7580   31.5900   50.1920 C   0  0  0  0  0  0  0  0  0  0  0  0
   37.9970   32.3910   49.0750 C   0  0  0  0  0  0  0  0  0  0  0  0
   37.7970   31.8450   47.8570 N   0  0  0  0  0  0  0  0  0  0  0  0
   37.3760   30.5590   47.7000 C   0  0  0  0  0  0  0  0  0  0  0  0
   37.1500   29.8000   48.7790 N   0  0  0  0  0  0  0  0  0  0  0  0
   37.0720   29.4200   51.2190 C   0  0  0  0  0  0  0  0  0  0  0  0
   35.7160   29.1600   51.3200 F   0  0  0  0  0  0  0  0  0  0  0  0
   37.8500   28.3080   51.1200 F   0  0  0  0  0  0  0  0  0  0  0  0
   37.4340   30.1750   52.3360 F   0  0  0  0  0  0  0  0  0  0  0  0
   38.4560   33.7980   49.2120 C   0  0  0  0  0  0  0  0  0  0  0  0
   39.6890   34.0880   50.0140 C   0  0  0  0  0  0  0  0  0  0  0  0
   39.6990   34.2290   48.5370 C   0  0  0  0  0  0  0  0  0  0  0  0
   37.9076   31.9919   51.2050 H   0  0  0  0  0  0  0  0  0  0  0  0
   37.2226   30.1466   46.6918 H   0  0  0  0  0  0  0  0  0  0  0  0
   37.4149   34.1530   49.2225 H   0  0  0  0  0  0  0  0  0  0  0  0
   39.7333   34.9818   50.6537 H   0  0  0  0  0  0  0  0  0  0  0  0
   40.2904   33.5341   50.7499 H   0  0  0  0  0  0  0  0  0  0  0  0
   40.2649   33.5135   47.9223 H   0  0  0  0  0  0  0  0  0  0  0  0
   39.9590   35.0389   47.8395 H   0  0  0  0  0  0  0  0  0  0  0  0
  1  2  2  0
  1  7  1  0
  3 11  1  0
  3  2  1  0
  4  3  2  0
  5  4  1  0
  5  6  2  0
  6  1  1  0
  7  8  1  0
  7 10  1  0
  9  7  1  0
 11 12  1  0
 13 11  1  0
 13 12  1  0
  2 14  1  0
  5 15  1  0
 11 16  1  0
 12 17  1  0
 12 18  1  0
 13 19  1  0
 13 20  1  0
M  ISO  7  14  14  15  14  16  13  17  13  18  13  19  13  20  13
M  END
>  <minimizedAffinity>  (1) 
-5.16303825

>  <minimizedRMSD>  (1) 
0.866354644

$$$$
