
     RDKit          3D

 36 38  0  0  0  0  0  0  0  0999 V2000
   39.3910   32.4040   46.0400 C   0  0  0  0  0  0  0  0  0  0  0  0
   38.0520   32.7800   49.5660 C   0  0  0  0  0  0  0  0  0  0  0  0
   38.8450   33.0020   48.4410 C   0  0  0  0  0  0  0  0  0  0  0  0
   38.6310   32.2680   47.2830 C   0  0  0  0  0  0  0  0  0  0  0  0
   37.6150   31.3390   47.3230 N   0  0  0  0  0  0  0  0  0  0  0  0
   36.8570   31.1360   48.4170 C   0  0  0  0  0  0  0  0  0  0  0  0
   37.0600   31.8420   49.5370 N   0  0  0  0  0  0  0  0  0  0  0  0
   40.2750   31.1550   45.9310 C   0  0  0  0  0  0  0  0  0  0  0  0
   40.2460   33.6190   45.9810 C   0  0  0  0  0  0  0  0  0  0  0  0
   38.4340   32.4000   44.8900 C   0  0  0  0  0  0  0  0  0  0  0  0
   38.9300   31.6460   43.7010 C   0  0  0  0  0  0  0  0  0  0  0  0
   39.5870   32.3550   42.6350 C   0  0  0  0  0  0  0  0  0  0  0  0
   39.9590   30.9660   41.4980 S   0  0  0  0  0  0  0  0  0  0  0  0
   39.1660   29.6990   42.6580 C   0  0  0  0  0  0  0  0  0  0  0  0
   38.8250   30.3480   43.5150 N   0  0  0  0  0  0  0  0  0  0  0  0
   39.1960   28.2980   42.1810 C   0  0  0  0  0  0  0  0  0  0  0  0
   39.3170   27.9080   40.8900 C   0  0  0  0  0  0  0  0  0  0  0  0
   39.3200   26.5420   40.6860 C   0  0  0  0  0  0  0  0  0  0  0  0
   39.2130   25.6480   41.6780 N   0  0  0  0  0  0  0  0  0  0  0  0
   39.0950   26.0690   42.9450 C   0  0  0  0  0  0  0  0  0  0  0  0
   39.0890   27.4160   43.1690 N   0  0  0  0  0  0  0  0  0  0  0  0
   38.2264   33.3636   50.4820 H   0  0  0  0  0  0  0  0  0  0  0  0
   39.6415   33.7601   48.4714 H   0  0  0  0  0  0  0  0  0  0  0  0
   36.0592   30.3792   48.3906 H   0  0  0  0  0  0  0  0  0  0  0  0
   40.5289   30.7963   46.9394 H   0  0  0  0  0  0  0  0  0  0  0  0
   39.7319   30.3677   45.3877 H   0  0  0  0  0  0  0  0  0  0  0  0
   41.1981   31.4054   45.3877 H   0  0  0  0  0  0  0  0  0  0  0  0
   40.4805   33.9523   47.0027 H   0  0  0  0  0  0  0  0  0  0  0  0
   41.1795   33.3849   45.4483 H   0  0  0  0  0  0  0  0  0  0  0  0
   39.7105   34.4187   45.4483 H   0  0  0  0  0  0  0  0  0  0  0  0
   37.4914   31.9416   45.2238 H   0  0  0  0  0  0  0  0  0  0  0  0
   38.3030   33.4462   44.5763 H   0  0  0  0  0  0  0  0  0  0  0  0
   39.8047   33.4283   42.5315 H   0  0  0  0  0  0  0  0  0  0  0  0
   39.4065   28.6276   40.0629 H   0  0  0  0  0  0  0  0  0  0  0  0
   39.4152   26.1688   39.6556 H   0  0  0  0  0  0  0  0  0  0  0  0
   39.0060   25.3538   43.7760 H   0  0  0  0  0  0  0  0  0  0  0  0
  1  4  1  0
  3  2  2  0
  4  5  2  0
  4  3  1  0
  5  6  1  0
  6  7  2  0
  7  2  1  0
  8  1  1  0
  9  1  1  0
 10  1  1  0
 11 10  1  0
 12 11  2  0
 13 12  1  0
 13 14  1  0
 14 15  2  0
 15 11  1  0
 16 14  1  0
 16 21  1  0
 17 16  2  0
 18 17  1  0
 18 19  2  0
 19 20  1  0
 20 21  2  0
  2 22  1  0
  3 23  1  0
  6 24  1  0
  8 25  1  0
  8 26  1  0
  8 27  1  0
  9 28  1  0
  9 29  1  0
  9 30  1  0
 10 31  1  0
 10 32  1  0
 12 33  1  0
 17 34  1  0
 18 35  1  0
 20 36  1  0
M  ISO  8  22  14  23  14  24  14  25   8  26   8  27   8  28   8  29   8
M  ISO  7  30   8  31   8  32   8  33  14  34  14  35  14  36  14
M  END
>  <minimizedAffinity>  (1) 
-5.1085391

>  <minimizedRMSD>  (1) 
1.07164919

$$$$
