
     RDKit          3D

 27 28  0  0  0  0  0  0  0  0999 V2000
   36.9320   29.9290   49.8760 C   0  0  0  0  0  0  0  0  0  0  0  0
   38.0170   30.6810   49.4550 C   0  0  0  0  0  0  0  0  0  0  0  0
   38.0170   31.1450   48.1350 C   0  0  0  0  0  0  0  0  0  0  0  0
   36.9690   30.8370   47.3500 N   0  0  0  0  0  0  0  0  0  0  0  0
   35.9260   30.0980   47.8030 C   0  0  0  0  0  0  0  0  0  0  0  0
   35.9200   29.6510   49.0670 N   0  0  0  0  0  0  0  0  0  0  0  0
   39.1010   31.9210   47.6610 N   0  0  0  0  0  0  0  0  0  0  0  0
   39.0000   32.6160   46.4300 C   0  0  0  0  0  0  0  0  0  0  0  0
   37.9180   32.5060   45.7260 N   0  0  0  0  0  0  0  0  0  0  0  0
   40.0910   33.4190   45.9990 N   0  0  0  0  0  0  0  0  0  0  0  0
   37.8860   32.9900   44.8050 H   0  0  0  0  0  0  0  0  0  0  0  0
   34.8330   29.7950   46.9390 N   0  0  0  0  0  0  0  0  0  0  0  0
   34.5300   29.8580   45.6280 C   0  0  0  0  0  0  0  0  0  0  0  0
   33.2430   29.3790   45.4870 C   0  0  0  0  0  0  0  0  0  0  0  0
   32.7590   29.0240   46.6960 N   0  0  0  0  0  0  0  0  0  0  0  0
   33.7380   29.2810   47.5770 C   0  0  0  0  0  0  0  0  0  0  0  0
   36.9310   29.4310   51.2990 C   0  0  0  0  0  0  0  0  0  0  0  0
   35.6140   29.1560   51.6820 F   0  0  0  0  0  0  0  0  0  0  0  0
   37.7760   28.3970   51.4120 F   0  0  0  0  0  0  0  0  0  0  0  0
   37.3360   30.5150   52.1040 F   0  0  0  0  0  0  0  0  0  0  0  0
   38.8510   30.9058   50.1362 H   0  0  0  0  0  0  0  0  0  0  0  0
   39.9682   31.9811   48.2135 H   0  0  0  0  0  0  0  0  0  0  0  0
   40.0332   33.9304   45.1068 H   0  0  0  0  0  0  0  0  0  0  0  0
   40.9393   33.4894   46.5789 H   0  0  0  0  0  0  0  0  0  0  0  0
   35.1843   30.2222   44.8222 H   0  0  0  0  0  0  0  0  0  0  0  0
   32.6962   29.2990   44.5359 H   0  0  0  0  0  0  0  0  0  0  0  0
   33.6694   29.1032   48.6604 H   0  0  0  0  0  0  0  0  0  0  0  0
  1 17  1  0
  2  1  2  0
  3  2  1  0
  4  5  1  0
  4  3  2  0
  5  6  2  0
  6  1  1  0
  7  3  1  0
  8  7  1  0
  9  8  2  0
 10  8  1  0
 11  9  1  0
 12 16  1  0
 12  5  1  0
 13 12  1  0
 14 13  2  0
 14 15  1  0
 15 16  2  0
 17 19  1  0
 17 18  1  0
 17 20  1  0
  2 21  1  0
  7 22  1  0
 10 23  1  0
 10 24  1  0
 13 25  1  0
 14 26  1  0
 16 27  1  0
M  ISO  4  21  14  25  14  26  14  27  14
M  END
>  <minimizedAffinity>  (1) 
-6.78432083

>  <minimizedRMSD>  (1) 
0.14603582

$$$$
