
     RDKit          3D

 30 31  0  0  0  0  0  0  0  0999 V2000
   36.9340   29.9350   49.9030 C   0  0  0  0  0  0  0  0  0  0  0  0
   38.0070   30.7010   49.4860 C   0  0  0  0  0  0  0  0  0  0  0  0
   38.0220   31.1660   48.1750 C   0  0  0  0  0  0  0  0  0  0  0  0
   36.9780   30.8390   47.3770 N   0  0  0  0  0  0  0  0  0  0  0  0
   35.9400   30.0830   47.8230 C   0  0  0  0  0  0  0  0  0  0  0  0
   35.9420   29.6470   49.0790 N   0  0  0  0  0  0  0  0  0  0  0  0
   39.0840   31.9480   47.6910 N   0  0  0  0  0  0  0  0  0  0  0  0
   39.0140   32.6250   46.4620 C   0  0  0  0  0  0  0  0  0  0  0  0
   37.9480   32.4970   45.7420 N   0  0  0  0  0  0  0  0  0  0  0  0
   40.1090   33.4300   46.0430 N   0  0  0  0  0  0  0  0  0  0  0  0
   37.8870   33.0460   44.8610 H   0  0  0  0  0  0  0  0  0  0  0  0
   34.8250   29.7510   46.9230 C   0  0  0  0  0  0  0  0  0  0  0  0
   33.6680   29.2010   47.4660 C   0  0  0  0  0  0  0  0  0  0  0  0
   32.6490   28.9050   46.5870 C   0  0  0  0  0  0  0  0  0  0  0  0
   32.7340   29.1300   45.2140 C   0  0  0  0  0  0  0  0  0  0  0  0
   33.9020   29.6730   44.7520 C   0  0  0  0  0  0  0  0  0  0  0  0
   34.9540   29.9910   45.5700 C   0  0  0  0  0  0  0  0  0  0  0  0
   36.9240   29.4330   51.3290 C   0  0  0  0  0  0  0  0  0  0  0  0
   35.6100   29.1490   51.7010 F   0  0  0  0  0  0  0  0  0  0  0  0
   37.7760   28.3920   51.4340 F   0  0  0  0  0  0  0  0  0  0  0  0
   37.3390   30.5120   52.1300 F   0  0  0  0  0  0  0  0  0  0  0  0
   38.8306   30.9375   50.1757 H   0  0  0  0  0  0  0  0  0  0  0  0
   39.9418   32.0276   48.2555 H   0  0  0  0  0  0  0  0  0  0  0  0
   40.0662   33.9299   45.1434 H   0  0  0  0  0  0  0  0  0  0  0  0
   40.9448   33.5132   46.6391 H   0  0  0  0  0  0  0  0  0  0  0  0
   33.5714   29.0116   48.5453 H   0  0  0  0  0  0  0  0  0  0  0  0
   31.7223   28.4694   46.9888 H   0  0  0  0  0  0  0  0  0  0  0  0
   31.9038   28.8834   44.5358 H   0  0  0  0  0  0  0  0  0  0  0  0
   34.0009   29.8631   43.6731 H   0  0  0  0  0  0  0  0  0  0  0  0
   35.8770   30.4261   45.1593 H   0  0  0  0  0  0  0  0  0  0  0  0
  1 18  1  0
  2  1  2  0
  3  2  1  0
  4  5  1  0
  4  3  2  0
  5  6  2  0
  6  1  1  0
  7  3  1  0
  8  7  1  0
  9  8  2  0
 10  8  1  0
 11  9  1  0
 12 13  2  0
 12  5  1  0
 14 13  1  0
 15 14  2  0
 16 15  1  0
 16 17  2  0
 17 12  1  0
 18 20  1  0
 18 19  1  0
 18 21  1  0
  2 22  1  0
  7 23  1  0
 10 24  1  0
 10 25  1  0
 13 26  1  0
 14 27  1  0
 15 28  1  0
 16 29  1  0
 17 30  1  0
M  ISO  6  22  14  26  14  27  14  28  14  29  14  30  14
M  END
>  <minimizedAffinity>  (1) 
-6.69468832

>  <minimizedRMSD>  (1) 
0.176564768

$$$$
