
     RDKit          3D

 33 34  0  0  0  0  0  0  0  0999 V2000
   36.9080   29.9540   49.8880 C   0  0  0  0  0  0  0  0  0  0  0  0
   38.0090   30.6630   49.4420 C   0  0  0  0  0  0  0  0  0  0  0  0
   37.9860   31.1400   48.1230 C   0  0  0  0  0  0  0  0  0  0  0  0
   36.8970   30.8830   47.3620 N   0  0  0  0  0  0  0  0  0  0  0  0
   35.8360   30.1800   47.8470 C   0  0  0  0  0  0  0  0  0  0  0  0
   35.8580   29.7270   49.1030 N   0  0  0  0  0  0  0  0  0  0  0  0
   39.0780   31.8670   47.6130 N   0  0  0  0  0  0  0  0  0  0  0  0
   38.9890   32.5740   46.4050 C   0  0  0  0  0  0  0  0  0  0  0  0
   37.9100   32.5010   45.7210 N   0  0  0  0  0  0  0  0  0  0  0  0
   40.0840   33.3620   45.9510 N   0  0  0  0  0  0  0  0  0  0  0  0
   37.8170   33.0500   44.8330 H   0  0  0  0  0  0  0  0  0  0  0  0
   34.6920   29.9530   46.9330 C   0  0  0  0  0  0  0  0  0  0  0  0
   35.1130   29.8130   45.4830 C   0  0  0  0  0  0  0  0  0  0  0  0
   33.9040   29.0860   44.8960 C   0  0  0  0  0  0  0  0  0  0  0  0
   33.7580   27.9620   45.9110 C   0  0  0  0  0  0  0  0  0  0  0  0
   33.9290   28.7020   47.2220 C   0  0  0  0  0  0  0  0  0  0  0  0
   36.9190   29.4340   51.3140 C   0  0  0  0  0  0  0  0  0  0  0  0
   35.6210   29.1450   51.7080 F   0  0  0  0  0  0  0  0  0  0  0  0
   37.7750   28.4020   51.3960 F   0  0  0  0  0  0  0  0  0  0  0  0
   37.3450   30.5070   52.1200 F   0  0  0  0  0  0  0  0  0  0  0  0
   38.8722   30.8463   50.0987 H   0  0  0  0  0  0  0  0  0  0  0  0
   39.9633   31.8801   48.1393 H   0  0  0  0  0  0  0  0  0  0  0  0
   40.0131   33.8792   45.0631 H   0  0  0  0  0  0  0  0  0  0  0  0
   40.9472   33.4151   46.5104 H   0  0  0  0  0  0  0  0  0  0  0  0
   34.0724   30.8462   47.1008 H   0  0  0  0  0  0  0  0  0  0  0  0
   35.2630   30.7945   45.0095 H   0  0  0  0  0  0  0  0  0  0  0  0
   36.0701   29.2908   45.3376 H   0  0  0  0  0  0  0  0  0  0  0  0
   33.0130   29.7305   44.8687 H   0  0  0  0  0  0  0  0  0  0  0  0
   34.0206   28.7577   43.8526 H   0  0  0  0  0  0  0  0  0  0  0  0
   32.7671   27.4890   45.8447 H   0  0  0  0  0  0  0  0  0  0  0  0
   34.4730   27.1383   45.7686 H   0  0  0  0  0  0  0  0  0  0  0  0
   34.4867   28.0780   47.9359 H   0  0  0  0  0  0  0  0  0  0  0  0
   32.9502   28.9379   47.6652 H   0  0  0  0  0  0  0  0  0  0  0  0
  1 17  1  0
  2  1  2  0
  3  2  1  0
  4  5  1  0
  4  3  2  0
  5  6  2  0
  6  1  1  0
  7  3  1  0
  8  7  1  0
  9  8  2  0
 10  8  1  0
 11  9  1  0
 12 16  1  0
 12  5  1  0
 13 12  1  0
 14 13  1  0
 14 15  1  0
 15 16  1  0
 17 19  1  0
 17 18  1  0
 17 20  1  0
  2 21  1  0
  7 22  1  0
 10 23  1  0
 10 24  1  0
 12 25  1  0
 13 26  1  0
 13 27  1  0
 14 28  1  0
 14 29  1  0
 15 30  1  0
 15 31  1  0
 16 32  1  0
 16 33  1  0
M  ISO  8  21  14  25  13  26  13  27  13  28  13  29  13  30  13  31  13
M  ISO  2  32  13  33  13
M  END
>  <minimizedAffinity>  (1) 
-6.62093782

>  <minimizedRMSD>  (1) 
0.4437356

$$$$
