
     RDKit          3D

 28 29  0  0  0  0  0  0  0  0999 V2000
   36.9170   29.9250   49.8720 C   0  0  0  0  0  0  0  0  0  0  0  0
   38.0120   30.6480   49.4120 C   0  0  0  0  0  0  0  0  0  0  0  0
   38.0110   31.0820   48.0930 C   0  0  0  0  0  0  0  0  0  0  0  0
   36.9320   30.7710   47.3260 N   0  0  0  0  0  0  0  0  0  0  0  0
   35.8870   30.0680   47.8060 C   0  0  0  0  0  0  0  0  0  0  0  0
   35.8830   29.6500   49.0710 N   0  0  0  0  0  0  0  0  0  0  0  0
   39.0760   31.8140   47.5600 N   0  0  0  0  0  0  0  0  0  0  0  0
   38.9470   32.5710   46.3690 C   0  0  0  0  0  0  0  0  0  0  0  0
   37.8750   32.4150   45.6730 N   0  0  0  0  0  0  0  0  0  0  0  0
   39.9750   33.4720   45.9720 N   0  0  0  0  0  0  0  0  0  0  0  0
   37.7850   32.9410   44.7650 H   0  0  0  0  0  0  0  0  0  0  0  0
   34.7820   29.7940   46.8890 C   0  0  0  0  0  0  0  0  0  0  0  0
   34.9500   29.9950   45.5330 C   0  0  0  0  0  0  0  0  0  0  0  0
   33.8480   29.7100   44.7350 C   0  0  0  0  0  0  0  0  0  0  0  0
   32.7010   29.2650   45.2830 N   0  0  0  0  0  0  0  0  0  0  0  0
   32.5500   29.0750   46.5900 C   0  0  0  0  0  0  0  0  0  0  0  0
   33.6170   29.3470   47.3980 N   0  0  0  0  0  0  0  0  0  0  0  0
   36.9130   29.4480   51.3100 C   0  0  0  0  0  0  0  0  0  0  0  0
   35.6190   29.1660   51.6950 F   0  0  0  0  0  0  0  0  0  0  0  0
   37.7700   28.4160   51.4260 F   0  0  0  0  0  0  0  0  0  0  0  0
   37.3420   30.5360   52.0850 F   0  0  0  0  0  0  0  0  0  0  0  0
   38.8591   30.8709   50.0773 H   0  0  0  0  0  0  0  0  0  0  0  0
   39.9829   31.8028   48.0482 H   0  0  0  0  0  0  0  0  0  0  0  0
   39.8740   34.0188   45.1050 H   0  0  0  0  0  0  0  0  0  0  0  0
   40.8198   33.5772   46.5517 H   0  0  0  0  0  0  0  0  0  0  0  0
   35.8982   30.3585   45.1101 H   0  0  0  0  0  0  0  0  0  0  0  0
   33.9134   29.8492   43.6458 H   0  0  0  0  0  0  0  0  0  0  0  0
   31.5989   28.7114   47.0062 H   0  0  0  0  0  0  0  0  0  0  0  0
  1 18  1  0
  2  1  2  0
  3  2  1  0
  4  5  1  0
  4  3  2  0
  5  6  2  0
  6  1  1  0
  7  3  1  0
  8  7  1  0
  9  8  2  0
 10  8  1  0
 11  9  1  0
 12 17  1  0
 12  5  1  0
 13 12  2  0
 14 15  2  0
 14 13  1  0
 15 16  1  0
 16 17  2  0
 18 20  1  0
 18 19  1  0
 18 21  1  0
  2 22  1  0
  7 23  1  0
 10 24  1  0
 10 25  1  0
 13 26  1  0
 14 27  1  0
 16 28  1  0
M  ISO  4  22  14  26  14  27  14  28  14
M  END
>  <minimizedAffinity>  (1) 
-6.61306

>  <minimizedRMSD>  (1) 
0.451576382

$$$$
