
     RDKit          3D

 33 34  0  0  0  0  0  0  0  0999 V2000
   36.9400   29.9380   49.9050 C   0  0  0  0  0  0  0  0  0  0  0  0
   38.0170   30.6820   49.4580 C   0  0  0  0  0  0  0  0  0  0  0  0
   38.0190   31.1270   48.1340 C   0  0  0  0  0  0  0  0  0  0  0  0
   36.9630   30.8030   47.3610 N   0  0  0  0  0  0  0  0  0  0  0  0
   35.9210   30.0700   47.8330 C   0  0  0  0  0  0  0  0  0  0  0  0
   35.9300   29.6490   49.1020 N   0  0  0  0  0  0  0  0  0  0  0  0
   39.0790   31.8850   47.6130 N   0  0  0  0  0  0  0  0  0  0  0  0
   38.9780   32.5970   46.4110 C   0  0  0  0  0  0  0  0  0  0  0  0
   37.9220   32.4120   45.6910 N   0  0  0  0  0  0  0  0  0  0  0  0
   40.0040   33.4850   46.0090 N   0  0  0  0  0  0  0  0  0  0  0  0
   37.8390   32.9480   44.7860 H   0  0  0  0  0  0  0  0  0  0  0  0
   32.6270   29.0850   45.3720 C   0  0  0  0  0  0  0  0  0  0  0  0
   32.6130   28.8470   46.7250 C   0  0  0  0  0  0  0  0  0  0  0  0
   33.6580   29.1510   47.5560 C   0  0  0  0  0  0  0  0  0  0  0  0
   34.7840   29.7330   46.9650 C   0  0  0  0  0  0  0  0  0  0  0  0
   34.8310   29.9840   45.6210 C   0  0  0  0  0  0  0  0  0  0  0  0
   33.7400   29.6550   44.8260 C   0  0  0  0  0  0  0  0  0  0  0  0
   31.2540   28.6670   44.3940 S   0  0  0  0  0  0  0  0  0  0  0  0
   30.5610   27.4870   45.0070 O   0  0  0  0  0  0  0  0  0  0  0  0
   30.2750   29.7850   44.3170 O   0  0  0  0  0  0  0  0  0  0  0  0
   36.9380   29.4560   51.3410 C   0  0  0  0  0  0  0  0  0  0  0  0
   35.6430   29.1500   51.7170 F   0  0  0  0  0  0  0  0  0  0  0  0
   37.7930   28.4010   51.4390 F   0  0  0  0  0  0  0  0  0  0  0  0
   37.3830   30.5210   52.1140 F   0  0  0  0  0  0  0  0  0  0  0  0
   38.8543   30.9183   50.1311 H   0  0  0  0  0  0  0  0  0  0  0  0
   39.9662   31.9191   48.1351 H   0  0  0  0  0  0  0  0  0  0  0  0
   39.9187   34.0032   45.1229 H   0  0  0  0  0  0  0  0  0  0  0  0
   40.8360   33.6131   46.6025 H   0  0  0  0  0  0  0  0  0  0  0  0
   31.7149   28.3880   47.1639 H   0  0  0  0  0  0  0  0  0  0  0  0
   33.6140   28.9473   48.6361 H   0  0  0  0  0  0  0  0  0  0  0  0
   35.7251   30.4425   45.1734 H   0  0  0  0  0  0  0  0  0  0  0  0
   33.7739   29.8562   43.7451 H   0  0  0  0  0  0  0  0  0  0  0  0
   31.7060   28.3857   43.1317 H   0  0  0  0  0  0  0  0  0  0  0  0
  1 21  1  0
  2  1  2  0
  3  2  1  0
  4  5  1  0
  4  3  2  0
  5  6  2  0
  6  1  1  0
  7  3  1  0
  8  7  1  0
  9  8  2  0
 10  8  1  0
 11  9  1  0
 12 13  2  0
 13 14  1  0
 15 14  2  0
 15  5  1  0
 16 15  1  0
 17 12  1  0
 17 16  2  0
 18 19  2  0
 18 12  1  0
 20 18  2  0
 21 23  1  0
 21 22  1  0
 21 24  1  0
  2 25  1  0
  7 26  1  0
 10 27  1  0
 10 28  1  0
 13 29  1  0
 14 30  1  0
 16 31  1  0
 17 32  1  0
 18 33  1  0
M  ISO  6  25  14  29  14  30  14  31  14  32  14  33  11
M  END
>  <minimizedAffinity>  (1) 
-6.58430195

>  <minimizedRMSD>  (1) 
0.714891851

$$$$
