
     RDKit          3D

 35 37  0  0  0  0  0  0  0  0999 V2000
   39.2690   32.3290   46.0960 C   0  0  0  0  0  0  0  0  0  0  0  0
   37.6990   32.4380   49.5500 C   0  0  0  0  0  0  0  0  0  0  0  0
   38.5640   32.7490   48.4970 C   0  0  0  0  0  0  0  0  0  0  0  0
   38.4200   32.0880   47.2770 C   0  0  0  0  0  0  0  0  0  0  0  0
   37.4190   31.1530   47.1790 N   0  0  0  0  0  0  0  0  0  0  0  0
   36.5990   30.8720   48.2100 C   0  0  0  0  0  0  0  0  0  0  0  0
   36.7280   31.5020   49.3890 N   0  0  0  0  0  0  0  0  0  0  0  0
   40.2060   31.1120   45.9920 C   0  0  0  0  0  0  0  0  0  0  0  0
   40.0890   33.5600   46.1760 C   0  0  0  0  0  0  0  0  0  0  0  0
   38.3890   32.3470   44.8890 C   0  0  0  0  0  0  0  0  0  0  0  0
   38.9590   31.5930   43.7280 C   0  0  0  0  0  0  0  0  0  0  0  0
   39.6530   32.2960   42.6860 C   0  0  0  0  0  0  0  0  0  0  0  0
   40.1110   30.9170   41.5770 S   0  0  0  0  0  0  0  0  0  0  0  0
   39.2870   29.6500   42.7170 C   0  0  0  0  0  0  0  0  0  0  0  0
   38.8890   30.2910   43.5530 N   0  0  0  0  0  0  0  0  0  0  0  0
   39.3540   28.1950   42.2680 C   0  0  0  0  0  0  0  0  0  0  0  0
   39.6800   27.7010   41.0380 C   0  0  0  0  0  0  0  0  0  0  0  0
   39.5820   26.3670   41.1910 N   0  0  0  0  0  0  0  0  0  0  0  0
   39.2110   26.1380   42.4750 C   0  0  0  0  0  0  0  0  0  0  0  0
   39.0580   27.2930   43.1880 N   0  0  0  0  0  0  0  0  0  0  0  0
   37.8053   32.9546   50.5153 H   0  0  0  0  0  0  0  0  0  0  0  0
   39.3501   33.5071   48.6289 H   0  0  0  0  0  0  0  0  0  0  0  0
   35.8113   30.1146   48.0843 H   0  0  0  0  0  0  0  0  0  0  0  0
   40.4719   30.7666   47.0020 H   0  0  0  0  0  0  0  0  0  0  0  0
   39.6962   30.3020   45.4499 H   0  0  0  0  0  0  0  0  0  0  0  0
   41.1195   31.3978   45.4499 H   0  0  0  0  0  0  0  0  0  0  0  0
   40.2609   33.8181   47.2314 H   0  0  0  0  0  0  0  0  0  0  0  0
   41.0550   33.3901   45.6780 H   0  0  0  0  0  0  0  0  0  0  0  0
   39.5600   34.3859   45.6780 H   0  0  0  0  0  0  0  0  0  0  0  0
   37.4213   31.8972   45.1560 H   0  0  0  0  0  0  0  0  0  0  0  0
   38.2867   33.3967   44.5766 H   0  0  0  0  0  0  0  0  0  0  0  0
   39.8544   33.3725   42.5830 H   0  0  0  0  0  0  0  0  0  0  0  0
   39.9578   28.2617   40.1333 H   0  0  0  0  0  0  0  0  0  0  0  0
   39.0511   25.1342   42.8955 H   0  0  0  0  0  0  0  0  0  0  0  0
   38.7864   27.4250   44.1727 H   0  0  0  0  0  0  0  0  0  0  0  0
  1  9  1  0
  1  4  1  0
  3  2  2  0
  4  3  1  0
  5  4  2  0
  5  6  1  0
  6  7  2  0
  7  2  1  0
  8  1  1  0
 10  1  1  0
 11 10  1  0
 12 11  2  0
 13 12  1  0
 13 14  1  0
 14 15  2  0
 15 11  1  0
 16 14  1  0
 16 20  1  0
 17 18  1  0
 17 16  2  0
 18 19  2  0
 19 20  1  0
  2 21  1  0
  3 22  1  0
  6 23  1  0
  8 24  1  0
  8 25  1  0
  8 26  1  0
  9 27  1  0
  9 28  1  0
  9 29  1  0
 10 30  1  0
 10 31  1  0
 12 32  1  0
 17 33  1  0
 19 34  1  0
 20 35  1  0
M  ISO  8  21  14  22  14  23  14  24   8  25   8  26   8  27   8  28   8
M  ISO  7  29   8  30   8  31   8  32  14  33  14  34  14  35   9
M  END
>  <minimizedAffinity>  (1) 
-4.99630165

>  <minimizedRMSD>  (1) 
0.816965461

$$$$
