
     RDKit          3D

 23 23  0  0  0  0  0  0  0  0999 V2000
   36.9040   29.9460   49.8540 C   0  0  0  0  0  0  0  0  0  0  0  0
   38.0230   30.6330   49.3940 C   0  0  0  0  0  0  0  0  0  0  0  0
   38.0200   31.0790   48.0660 C   0  0  0  0  0  0  0  0  0  0  0  0
   36.9250   30.8120   47.3070 N   0  0  0  0  0  0  0  0  0  0  0  0
   35.8630   30.1420   47.7980 C   0  0  0  0  0  0  0  0  0  0  0  0
   35.8610   29.7140   49.0700 N   0  0  0  0  0  0  0  0  0  0  0  0
   39.1110   31.7750   47.5360 N   0  0  0  0  0  0  0  0  0  0  0  0
   38.9940   32.5700   46.3650 C   0  0  0  0  0  0  0  0  0  0  0  0
   37.8870   32.5060   45.6940 N   0  0  0  0  0  0  0  0  0  0  0  0
   40.0610   33.4050   45.9520 N   0  0  0  0  0  0  0  0  0  0  0  0
   37.8030   33.0740   44.8140 H   0  0  0  0  0  0  0  0  0  0  0  0
   36.8970   29.4620   51.2870 C   0  0  0  0  0  0  0  0  0  0  0  0
   35.6010   29.1470   51.6570 F   0  0  0  0  0  0  0  0  0  0  0  0
   37.7580   28.4140   51.3830 F   0  0  0  0  0  0  0  0  0  0  0  0
   37.3230   30.5250   52.0710 F   0  0  0  0  0  0  0  0  0  0  0  0
   34.7040   29.8890   46.9080 C   0  0  0  0  0  0  0  0  0  0  0  0
   38.8837   30.8202   50.0529 H   0  0  0  0  0  0  0  0  0  0  0  0
   40.0243   31.7093   48.0077 H   0  0  0  0  0  0  0  0  0  0  0  0
   39.9670   33.9780   45.1013 H   0  0  0  0  0  0  0  0  0  0  0  0
   40.9309   33.4392   46.5024 H   0  0  0  0  0  0  0  0  0  0  0  0
   33.8094   29.6937   47.5175 H   0  0  0  0  0  0  0  0  0  0  0  0
   34.5299   30.7703   46.2732 H   0  0  0  0  0  0  0  0  0  0  0  0
   34.9130   29.0153   46.2732 H   0  0  0  0  0  0  0  0  0  0  0  0
  1 12  1  0
  2  1  2  0
  3  2  1  0
  4  5  1  0
  4  3  2  0
  5  6  2  0
  6  1  1  0
  7  3  1  0
  8  7  1  0
  9  8  2  0
 10  8  1  0
 11  9  1  0
 12 14  1  0
 12 13  1  0
 12 15  1  0
 16  5  1  0
  2 17  1  0
  7 18  1  0
 10 19  1  0
 10 20  1  0
 16 21  1  0
 16 22  1  0
 16 23  1  0
M  ISO  4  17  14  21   8  22   8  23   8
M  END
>  <minimizedAffinity>  (1) 
-6.23719263

>  <minimizedRMSD>  (1) 
0.020465387

$$$$
