
     RDKit          3D

 31 32  0  0  0  0  0  0  0  0999 V2000
   39.2820   32.3140   46.1040 C   0  0  0  0  0  0  0  0  0  0  0  0
   37.7020   32.4340   49.5590 C   0  0  0  0  0  0  0  0  0  0  0  0
   38.5760   32.7460   48.5080 C   0  0  0  0  0  0  0  0  0  0  0  0
   38.4350   32.0860   47.2910 C   0  0  0  0  0  0  0  0  0  0  0  0
   37.4320   31.1590   47.1990 N   0  0  0  0  0  0  0  0  0  0  0  0
   36.5980   30.8700   48.2210 C   0  0  0  0  0  0  0  0  0  0  0  0
   36.7280   31.4990   49.3930 N   0  0  0  0  0  0  0  0  0  0  0  0
   40.2280   31.1180   46.0110 C   0  0  0  0  0  0  0  0  0  0  0  0
   40.0800   33.5600   46.1650 C   0  0  0  0  0  0  0  0  0  0  0  0
   38.4020   32.3150   44.8920 C   0  0  0  0  0  0  0  0  0  0  0  0
   38.9910   31.5840   43.7390 C   0  0  0  0  0  0  0  0  0  0  0  0
   39.6120   32.3100   42.6660 C   0  0  0  0  0  0  0  0  0  0  0  0
   40.1460   30.9600   41.5550 S   0  0  0  0  0  0  0  0  0  0  0  0
   39.4270   29.6400   42.7450 C   0  0  0  0  0  0  0  0  0  0  0  0
   39.0080   30.2800   43.5790 N   0  0  0  0  0  0  0  0  0  0  0  0
   39.4950   28.1650   42.4740 C   0  0  0  0  0  0  0  0  0  0  0  0
   40.8420   27.9270   42.1960 F   0  0  0  0  0  0  0  0  0  0  0  0
   38.6650   27.7690   41.4660 F   0  0  0  0  0  0  0  0  0  0  0  0
   39.1680   27.4400   43.6020 F   0  0  0  0  0  0  0  0  0  0  0  0
   37.8047   32.9493   50.5254 H   0  0  0  0  0  0  0  0  0  0  0  0
   39.3629   33.5026   48.6436 H   0  0  0  0  0  0  0  0  0  0  0  0
   35.8094   30.1147   48.0885 H   0  0  0  0  0  0  0  0  0  0  0  0
   40.4942   30.7814   47.0238 H   0  0  0  0  0  0  0  0  0  0  0  0
   39.7310   30.2985   45.4711 H   0  0  0  0  0  0  0  0  0  0  0  0
   41.1399   31.4129   45.4711 H   0  0  0  0  0  0  0  0  0  0  0  0
   40.2545   33.8325   47.2163 H   0  0  0  0  0  0  0  0  0  0  0  0
   41.0454   33.4021   45.6620 H   0  0  0  0  0  0  0  0  0  0  0  0
   39.5328   34.3709   45.6620 H   0  0  0  0  0  0  0  0  0  0  0  0
   37.4450   31.8405   45.1546 H   0  0  0  0  0  0  0  0  0  0  0  0
   38.2731   33.3628   44.5829 H   0  0  0  0  0  0  0  0  0  0  0  0
   39.7344   33.3964   42.5445 H   0  0  0  0  0  0  0  0  0  0  0  0
  1  9  1  0
  1  4  1  0
  3  2  2  0
  4  3  1  0
  5  4  2  0
  5  6  1  0
  6  7  2  0
  7  2  1  0
  8  1  1  0
 10  1  1  0
 11 10  1  0
 12 11  2  0
 13 12  1  0
 13 14  1  0
 14 15  2  0
 15 11  1  0
 16 14  1  0
 16 19  1  0
 17 16  1  0
 18 16  1  0
  2 20  1  0
  3 21  1  0
  6 22  1  0
  8 23  1  0
  8 24  1  0
  8 25  1  0
  9 26  1  0
  9 27  1  0
  9 28  1  0
 10 29  1  0
 10 30  1  0
 12 31  1  0
M  ISO  8  20  14  21  14  22  14  23   8  24   8  25   8  26   8  27   8
M  ISO  4  28   8  29   8  30   8  31  14
M  END
>  <minimizedAffinity>  (1) 
-4.98579311

>  <minimizedRMSD>  (1) 
0.894384027

$$$$
