
     RDKit          3D

 31 32  0  0  0  0  0  0  0  0999 V2000
   39.2140   32.3200   46.1130 C   0  0  0  0  0  0  0  0  0  0  0  0
   37.7010   32.5660   49.5870 C   0  0  0  0  0  0  0  0  0  0  0  0
   38.5520   32.8470   48.4990 C   0  0  0  0  0  0  0  0  0  0  0  0
   38.3960   32.1290   47.3220 C   0  0  0  0  0  0  0  0  0  0  0  0
   37.4060   31.1700   47.2810 N   0  0  0  0  0  0  0  0  0  0  0  0
   36.6110   30.9250   48.3350 C   0  0  0  0  0  0  0  0  0  0  0  0
   36.7500   31.6130   49.4840 N   0  0  0  0  0  0  0  0  0  0  0  0
   40.1040   31.0790   45.9870 C   0  0  0  0  0  0  0  0  0  0  0  0
   40.0870   33.5310   46.1560 C   0  0  0  0  0  0  0  0  0  0  0  0
   38.3050   32.3800   44.9340 C   0  0  0  0  0  0  0  0  0  0  0  0
   38.8840   31.7520   43.7030 C   0  0  0  0  0  0  0  0  0  0  0  0
   39.4610   32.5550   42.6810 C   0  0  0  0  0  0  0  0  0  0  0  0
   39.9820   31.2800   41.4730 S   0  0  0  0  0  0  0  0  0  0  0  0
   39.3220   29.8860   42.5740 C   0  0  0  0  0  0  0  0  0  0  0  0
   38.9190   30.4650   43.4510 N   0  0  0  0  0  0  0  0  0  0  0  0
   39.4990   28.5120   42.0300 C   0  0  0  0  0  0  0  0  0  0  0  0
   38.6990   27.9730   41.2580 O   0  0  0  0  0  0  0  0  0  0  0  0
   40.6500   27.9460   42.5000 O   0  0  0  0  0  0  0  0  0  0  0  0
   37.8124   33.1270   50.5266 H   0  0  0  0  0  0  0  0  0  0  0  0
   39.3273   33.6230   48.5817 H   0  0  0  0  0  0  0  0  0  0  0  0
   35.8340   30.1501   48.2586 H   0  0  0  0  0  0  0  0  0  0  0  0
   40.3667   30.7128   46.9904 H   0  0  0  0  0  0  0  0  0  0  0  0
   39.5623   30.2933   45.4401 H   0  0  0  0  0  0  0  0  0  0  0  0
   41.0220   31.3401   45.4401 H   0  0  0  0  0  0  0  0  0  0  0  0
   40.2839   33.8041   47.2032 H   0  0  0  0  0  0  0  0  0  0  0  0
   41.0386   33.3152   45.6482 H   0  0  0  0  0  0  0  0  0  0  0  0
   39.5815   34.3656   45.6482 H   0  0  0  0  0  0  0  0  0  0  0  0
   37.3715   31.8559   45.1866 H   0  0  0  0  0  0  0  0  0  0  0  0
   38.1370   33.4433   44.7075 H   0  0  0  0  0  0  0  0  0  0  0  0
   39.5663   33.6487   42.6295 H   0  0  0  0  0  0  0  0  0  0  0  0
   40.9002   27.0293   42.2221 H   0  0  0  0  0  0  0  0  0  0  0  0
  1  9  1  0
  1  4  1  0
  3  2  2  0
  4  3  1  0
  5  4  2  0
  5  6  1  0
  6  7  2  0
  7  2  1  0
  8  1  1  0
 10  1  1  0
 11 10  1  0
 12 11  2  0
 13 14  1  0
 13 12  1  0
 14 15  2  0
 15 11  1  0
 16 18  1  0
 16 14  1  0
 17 16  2  0
  2 19  1  0
  3 20  1  0
  6 21  1  0
  8 22  1  0
  8 23  1  0
  8 24  1  0
  9 25  1  0
  9 26  1  0
  9 27  1  0
 10 28  1  0
 10 29  1  0
 12 30  1  0
 18 31  1  0
M  ISO  8  19  14  20  14  21  14  22   8  23   8  24   8  25   8  26   8
M  ISO  5  27   8  28   8  29   8  30  14  31   3
M  END
>  <minimizedAffinity>  (1) 
-4.9362998

>  <minimizedRMSD>  (1) 
0.60656786

$$$$
