
     RDKit          3D

 24 25  0  0  0  0  0  0  0  0999 V2000
   37.1120   30.3890   49.3130 C   0  0  0  0  0  0  0  0  0  0  0  0
   37.0120   31.5630   50.1030 C   0  0  0  0  0  0  0  0  0  0  0  0
   37.6140   32.7340   49.6530 C   0  0  0  0  0  0  0  0  0  0  0  0
   38.2820   32.6940   48.4550 N   0  0  0  0  0  0  0  0  0  0  0  0
   38.3470   31.5610   47.7510 C   0  0  0  0  0  0  0  0  0  0  0  0
   37.7830   30.4260   48.1500 N   0  0  0  0  0  0  0  0  0  0  0  0
   39.0700   31.5740   46.4820 C   0  0  0  0  0  0  0  0  0  0  0  0
   39.8200   32.6630   46.0850 C   0  0  0  0  0  0  0  0  0  0  0  0
   40.5370   32.7730   44.9130 C   0  0  0  0  0  0  0  0  0  0  0  0
   40.4760   31.6610   44.0700 C   0  0  0  0  0  0  0  0  0  0  0  0
   39.7370   30.5620   44.4360 C   0  0  0  0  0  0  0  0  0  0  0  0
   39.0300   30.4810   45.6180 C   0  0  0  0  0  0  0  0  0  0  0  0
   36.5140   29.2500   49.7710 O   0  0  0  0  0  0  0  0  0  0  0  0
   35.2140   29.1810   50.2850 C   0  0  0  0  0  0  0  0  0  0  0  0
   35.1690   29.1580   51.6680 F   0  0  0  0  0  0  0  0  0  0  0  0
   34.3640   30.1450   49.8010 F   0  0  0  0  0  0  0  0  0  0  0  0
   34.6980   27.9540   49.8520 F   0  0  0  0  0  0  0  0  0  0  0  0
   36.4662   31.5478   51.0579 H   0  0  0  0  0  0  0  0  0  0  0  0
   37.5562   33.6629   50.2394 H   0  0  0  0  0  0  0  0  0  0  0  0
   39.8480   33.5243   46.7686 H   0  0  0  0  0  0  0  0  0  0  0  0
   41.1164   33.6730   44.6595 H   0  0  0  0  0  0  0  0  0  0  0  0
   41.0193   31.6651   43.1136 H   0  0  0  0  0  0  0  0  0  0  0  0
   39.7075   29.7019   43.7509 H   0  0  0  0  0  0  0  0  0  0  0  0
   38.4517   29.5802   45.8711 H   0  0  0  0  0  0  0  0  0  0  0  0
  1 13  1  0
  1  2  2  0
  3  2  1  0
  4  3  2  0
  5  6  2  0
  5  4  1  0
  6  1  1  0
  7  5  1  0
  8  7  2  0
  9  8  1  0
 10 11  1  0
 10  9  2  0
 11 12  2  0
 12  7  1  0
 13 14  1  0
 14 15  1  0
 16 14  1  0
 17 14  1  0
  2 18  1  0
  3 19  1  0
  8 20  1  0
  9 21  1  0
 10 22  1  0
 11 23  1  0
 12 24  1  0
M  ISO  7  18  14  19  14  20  14  21  14  22  14  23  14  24  14
M  END
>  <minimizedAffinity>  (1) 
-6.2939992

>  <minimizedRMSD>  (1) 
1.59798062

$$$$
