
     RDKit          3D

 28 29  0  0  0  0  0  0  0  0999 V2000
   37.3130   30.1470   49.2550 C   0  0  0  0  0  0  0  0  0  0  0  0
   37.6640   31.1070   50.2530 C   0  0  0  0  0  0  0  0  0  0  0  0
   38.4220   32.2030   49.8410 C   0  0  0  0  0  0  0  0  0  0  0  0
   38.7900   32.3080   48.5220 N   0  0  0  0  0  0  0  0  0  0  0  0
   38.4220   31.3670   47.6440 C   0  0  0  0  0  0  0  0  0  0  0  0
   37.7030   30.3040   47.9720 N   0  0  0  0  0  0  0  0  0  0  0  0
   38.8310   31.5280   46.2920 N   0  0  0  0  0  0  0  0  0  0  0  0
   38.2630   30.7820   45.1850 C   0  0  0  0  0  0  0  0  0  0  0  0
   39.3400   30.0300   44.4610 C   0  0  0  0  0  0  0  0  0  0  0  0
   40.5850   30.6630   44.3230 N   0  0  0  0  0  0  0  0  0  0  0  0
   40.9370   31.7530   45.1290 C   0  0  0  0  0  0  0  0  0  0  0  0
   39.8610   32.4530   45.8700 C   0  0  0  0  0  0  0  0  0  0  0  0
   36.5700   29.0750   49.6670 O   0  0  0  0  0  0  0  0  0  0  0  0
   35.2910   29.1480   50.2400 C   0  0  0  0  0  0  0  0  0  0  0  0
   35.2920   29.1200   51.6170 F   0  0  0  0  0  0  0  0  0  0  0  0
   34.5440   30.2110   49.7980 F   0  0  0  0  0  0  0  0  0  0  0  0
   34.6140   27.9980   49.8240 F   0  0  0  0  0  0  0  0  0  0  0  0
   37.3502   30.9871   51.3005 H   0  0  0  0  0  0  0  0  0  0  0  0
   38.7219   32.9751   50.5649 H   0  0  0  0  0  0  0  0  0  0  0  0
   37.5187   30.0697   45.5706 H   0  0  0  0  0  0  0  0  0  0  0  0
   37.7839   31.4843   44.4869 H   0  0  0  0  0  0  0  0  0  0  0  0
   39.5067   29.0875   45.0032 H   0  0  0  0  0  0  0  0  0  0  0  0
   38.9644   29.9180   43.4332 H   0  0  0  0  0  0  0  0  0  0  0  0
   41.3001   29.9390   44.4822 H   0  0  0  0  0  0  0  0  0  0  0  0
   41.6610   31.3884   45.8726 H   0  0  0  0  0  0  0  0  0  0  0  0
   41.3136   32.5053   44.4204 H   0  0  0  0  0  0  0  0  0  0  0  0
   40.2933   32.9384   46.7574 H   0  0  0  0  0  0  0  0  0  0  0  0
   39.4069   33.2003   45.2027 H   0  0  0  0  0  0  0  0  0  0  0  0
  1 13  1  0
  1  2  2  0
  3  2  1  0
  4  3  2  0
  5  6  2  0
  5  4  1  0
  6  1  1  0
  7  5  1  0
  8  7  1  0
  9  8  1  0
 10  9  1  0
 10 11  1  0
 11 12  1  0
 12  7  1  0
 13 14  1  0
 14 15  1  0
 16 14  1  0
 17 14  1  0
  2 18  1  0
  3 19  1  0
  8 20  1  0
  8 21  1  0
  9 22  1  0
  9 23  1  0
 10 24  1  0
 11 25  1  0
 11 26  1  0
 12 27  1  0
 12 28  1  0
M  ISO  8  18  14  19  14  20  13  21  13  22  13  23  13  24   5  25  13
M  ISO  3  26  13  27  13  28  13
M  END
>  <minimizedAffinity>  (1) 
-6.14463615

>  <minimizedRMSD>  (1) 
1.30641723

$$$$
