
     RDKit          3D

 23 24  0  0  0  0  0  0  0  0999 V2000
   37.1590   30.4420   49.3050 C   0  0  0  0  0  0  0  0  0  0  0  0
   37.0080   31.6060   50.1140 C   0  0  0  0  0  0  0  0  0  0  0  0
   37.6020   32.7750   49.6530 C   0  0  0  0  0  0  0  0  0  0  0  0
   38.2860   32.7530   48.4780 N   0  0  0  0  0  0  0  0  0  0  0  0
   38.3980   31.6360   47.7560 C   0  0  0  0  0  0  0  0  0  0  0  0
   37.8410   30.4820   48.1580 N   0  0  0  0  0  0  0  0  0  0  0  0
   39.1450   31.6810   46.5030 C   0  0  0  0  0  0  0  0  0  0  0  0
   39.8780   32.8260   46.1720 C   0  0  0  0  0  0  0  0  0  0  0  0
   40.5610   32.7780   44.9530 C   0  0  0  0  0  0  0  0  0  0  0  0
   40.4770   31.6430   44.1720 C   0  0  0  0  0  0  0  0  0  0  0  0
   39.7480   30.5320   44.5270 C   0  0  0  0  0  0  0  0  0  0  0  0
   39.0990   30.5890   45.6950 N   0  0  0  0  0  0  0  0  0  0  0  0
   36.5680   29.2840   49.7650 O   0  0  0  0  0  0  0  0  0  0  0  0
   35.2640   29.1950   50.2530 C   0  0  0  0  0  0  0  0  0  0  0  0
   35.2070   29.1610   51.6440 F   0  0  0  0  0  0  0  0  0  0  0  0
   34.4190   30.1500   49.7700 F   0  0  0  0  0  0  0  0  0  0  0  0
   34.7860   27.9570   49.8120 F   0  0  0  0  0  0  0  0  0  0  0  0
   36.4470   31.5802   51.0599 H   0  0  0  0  0  0  0  0  0  0  0  0
   37.5197   33.7068   50.2318 H   0  0  0  0  0  0  0  0  0  0  0  0
   39.9145   33.7076   46.8289 H   0  0  0  0  0  0  0  0  0  0  0  0
   41.1604   33.6377   44.6190 H   0  0  0  0  0  0  0  0  0  0  0  0
   41.0212   31.6261   43.2162 H   0  0  0  0  0  0  0  0  0  0  0  0
   39.7011   29.6416   43.8828 H   0  0  0  0  0  0  0  0  0  0  0  0
  1 13  1  0
  1  2  2  0
  3  2  1  0
  4  3  2  0
  5  6  2  0
  5  4  1  0
  6  1  1  0
  7  5  1  0
  8  7  2  0
  9  8  1  0
 10 11  1  0
 10  9  2  0
 11 12  2  0
 12  7  1  0
 13 14  1  0
 14 15  1  0
 16 14  1  0
 17 14  1  0
  2 18  1  0
  3 19  1  0
  8 20  1  0
  9 21  1  0
 10 22  1  0
 11 23  1  0
M  ISO  6  18  14  19  14  20  14  21  14  22  14  23  14
M  END
>  <minimizedAffinity>  (1) 
-6.11571646

>  <minimizedRMSD>  (1) 
1.62219465

$$$$
