
     RDKit          3D

 40 41  0  0  0  0  0  0  0  0999 V2000
   39.2120   32.3000   46.0580 C   0  0  0  0  0  0  0  0  0  0  0  0
   37.7680   32.5880   49.5600 C   0  0  0  0  0  0  0  0  0  0  0  0
   38.5900   32.8450   48.4600 C   0  0  0  0  0  0  0  0  0  0  0  0
   38.4130   32.1210   47.2830 C   0  0  0  0  0  0  0  0  0  0  0  0
   37.4160   31.1760   47.2760 N   0  0  0  0  0  0  0  0  0  0  0  0
   36.6370   30.9450   48.3470 C   0  0  0  0  0  0  0  0  0  0  0  0
   36.8000   31.6340   49.4780 N   0  0  0  0  0  0  0  0  0  0  0  0
   40.0830   31.0350   45.9300 C   0  0  0  0  0  0  0  0  0  0  0  0
   40.1030   33.4820   46.0810 C   0  0  0  0  0  0  0  0  0  0  0  0
   38.2760   32.3540   44.8890 C   0  0  0  0  0  0  0  0  0  0  0  0
   38.8430   31.7280   43.6560 C   0  0  0  0  0  0  0  0  0  0  0  0
   39.4510   32.5510   42.6600 C   0  0  0  0  0  0  0  0  0  0  0  0
   39.9540   31.3090   41.4160 S   0  0  0  0  0  0  0  0  0  0  0  0
   39.2460   29.8790   42.4750 C   0  0  0  0  0  0  0  0  0  0  0  0
   38.8450   30.4440   43.3720 N   0  0  0  0  0  0  0  0  0  0  0  0
   39.3260   28.4720   42.0140 C   0  0  0  0  0  0  0  0  0  0  0  0
   39.0550   27.5250   43.1370 C   0  0  0  0  0  0  0  0  0  0  0  0
   40.7120   28.2590   41.4730 C   0  0  0  0  0  0  0  0  0  0  0  0
   38.3250   28.1780   40.9130 C   0  0  0  0  0  0  0  0  0  0  0  0
   37.9028   33.1563   50.4922 H   0  0  0  0  0  0  0  0  0  0  0  0
   39.3730   33.6151   48.5229 H   0  0  0  0  0  0  0  0  0  0  0  0
   35.8528   30.1758   48.2901 H   0  0  0  0  0  0  0  0  0  0  0  0
   40.3391   30.6631   46.9331 H   0  0  0  0  0  0  0  0  0  0  0  0
   39.5260   30.2602   45.3828 H   0  0  0  0  0  0  0  0  0  0  0  0
   41.0055   31.2789   45.3828 H   0  0  0  0  0  0  0  0  0  0  0  0
   40.3140   33.7619   47.1237 H   0  0  0  0  0  0  0  0  0  0  0  0
   41.0457   33.2406   45.5682 H   0  0  0  0  0  0  0  0  0  0  0  0
   39.6113   34.3218   45.5682 H   0  0  0  0  0  0  0  0  0  0  0  0
   37.3501   31.8240   45.1569 H   0  0  0  0  0  0  0  0  0  0  0  0
   38.0923   33.4150   44.6640 H   0  0  0  0  0  0  0  0  0  0  0  0
   39.5821   33.6431   42.6451 H   0  0  0  0  0  0  0  0  0  0  0  0
   39.2030   28.0421   44.0965 H   0  0  0  0  0  0  0  0  0  0  0  0
   38.0177   27.1649   43.0707 H   0  0  0  0  0  0  0  0  0  0  0  0
   39.7447   26.6707   43.0707 H   0  0  0  0  0  0  0  0  0  0  0  0
   41.4191   28.1503   42.3086 H   0  0  0  0  0  0  0  0  0  0  0  0
   40.7292   27.3477   40.8572 H   0  0  0  0  0  0  0  0  0  0  0  0
   41.0021   29.1231   40.8572 H   0  0  0  0  0  0  0  0  0  0  0  0
   37.3607   27.8948   41.3602 H   0  0  0  0  0  0  0  0  0  0  0  0
   38.1911   29.0747   40.2902 H   0  0  0  0  0  0  0  0  0  0  0  0
   38.6973   27.3513   40.2902 H   0  0  0  0  0  0  0  0  0  0  0  0
  1  9  1  0
  1  4  1  0
  3  2  2  0
  4  3  1  0
  5  4  2  0
  5  6  1  0
  6  7  2  0
  7  2  1  0
  8  1  1  0
 10  1  1  0
 11 10  1  0
 12 11  2  0
 13 14  1  0
 13 12  1  0
 14 15  2  0
 15 11  1  0
 16 14  1  0
 16 17  1  0
 18 16  1  0
 19 16  1  0
  2 20  1  0
  3 21  1  0
  6 22  1  0
  8 23  1  0
  8 24  1  0
  8 25  1  0
  9 26  1  0
  9 27  1  0
  9 28  1  0
 10 29  1  0
 10 30  1  0
 12 31  1  0
 17 32  1  0
 17 33  1  0
 17 34  1  0
 18 35  1  0
 18 36  1  0
 18 37  1  0
 19 38  1  0
 19 39  1  0
 19 40  1  0
M  ISO  8  20  14  21  14  22  14  23   8  24   8  25   8  26   8  27   8
M  ISO  8  28   8  29   8  30   8  31  14  32   8  33   8  34   8  35   8
M  ISO  5  36   8  37   8  38   8  39   8  40   8
M  END
>  <minimizedAffinity>  (1) 
-4.91875553

>  <minimizedRMSD>  (1) 
0.533658028

$$$$
