
     RDKit          3D

 21 22  0  0  0  0  0  0  0  0999 V2000
   37.2820   30.5280   49.1540 C   0  0  0  0  0  0  0  0  0  0  0  0
   37.0480   31.6650   49.9590 C   0  0  0  0  0  0  0  0  0  0  0  0
   37.6470   32.8700   49.6120 C   0  0  0  0  0  0  0  0  0  0  0  0
   38.4420   32.8990   48.4950 N   0  0  0  0  0  0  0  0  0  0  0  0
   38.6380   31.8010   47.7610 C   0  0  0  0  0  0  0  0  0  0  0  0
   38.0740   30.6200   48.0690 N   0  0  0  0  0  0  0  0  0  0  0  0
   39.4700   31.7570   46.5620 C   0  0  0  0  0  0  0  0  0  0  0  0
   39.9080   32.9500   46.0250 C   0  0  0  0  0  0  0  0  0  0  0  0
   40.6720   32.6210   44.9030 C   0  0  0  0  0  0  0  0  0  0  0  0
   40.6460   31.2230   44.8330 C   0  0  0  0  0  0  0  0  0  0  0  0
   39.9240   30.7670   45.8350 O   0  0  0  0  0  0  0  0  0  0  0  0
   36.6820   29.3590   49.5200 O   0  0  0  0  0  0  0  0  0  0  0  0
   35.4280   29.2560   50.1410 C   0  0  0  0  0  0  0  0  0  0  0  0
   35.5230   29.2440   51.5280 F   0  0  0  0  0  0  0  0  0  0  0  0
   34.5400   30.2120   49.7420 F   0  0  0  0  0  0  0  0  0  0  0  0
   34.9030   28.0250   49.7610 F   0  0  0  0  0  0  0  0  0  0  0  0
   36.4018   31.5976   50.8466 H   0  0  0  0  0  0  0  0  0  0  0  0
   37.4879   33.7752   50.2164 H   0  0  0  0  0  0  0  0  0  0  0  0
   39.6972   33.9604   46.4053 H   0  0  0  0  0  0  0  0  0  0  0  0
   41.1852   33.3134   44.2194 H   0  0  0  0  0  0  0  0  0  0  0  0
   41.1450   30.6087   44.0691 H   0  0  0  0  0  0  0  0  0  0  0  0
  1 12  1  0
  1  2  2  0
  3  2  1  0
  4  3  2  0
  5  6  2  0
  5  4  1  0
  6  1  1  0
  7  5  1  0
  8  7  2  0
  9  8  1  0
 10  9  2  0
 10 11  1  0
 11  7  1  0
 12 13  1  0
 13 14  1  0
 15 13  1  0
 16 13  1  0
  2 17  1  0
  3 18  1  0
  8 19  1  0
  9 20  1  0
 10 21  1  0
M  ISO  5  17  14  18  14  19  14  20  14  21  14
M  END
>  <minimizedAffinity>  (1) 
-5.95196867

>  <minimizedRMSD>  (1) 
1.69004071

$$$$
