
     RDKit          3D

 21 22  0  0  0  0  0  0  0  0999 V2000
   37.1340   30.3630   49.2590 C   0  0  0  0  0  0  0  0  0  0  0  0
   37.0640   31.5440   50.0400 C   0  0  0  0  0  0  0  0  0  0  0  0
   37.6850   32.6960   49.5840 C   0  0  0  0  0  0  0  0  0  0  0  0
   38.3380   32.6310   48.3920 N   0  0  0  0  0  0  0  0  0  0  0  0
   38.3880   31.4990   47.6740 C   0  0  0  0  0  0  0  0  0  0  0  0
   37.7970   30.3660   48.0900 N   0  0  0  0  0  0  0  0  0  0  0  0
   39.0820   31.4240   46.4060 C   0  0  0  0  0  0  0  0  0  0  0  0
   39.8900   32.4900   46.0990 C   0  0  0  0  0  0  0  0  0  0  0  0
   40.6550   32.7210   45.0170 C   0  0  0  0  0  0  0  0  0  0  0  0
   40.4570   31.5200   44.1400 C   0  0  0  0  0  0  0  0  0  0  0  0
   39.2640   30.3660   45.0210 S   0  0  0  0  0  0  0  0  0  0  0  0
   36.5140   29.2420   49.7320 O   0  0  0  0  0  0  0  0  0  0  0  0
   35.2290   29.1920   50.2690 C   0  0  0  0  0  0  0  0  0  0  0  0
   35.2110   29.1690   51.6580 F   0  0  0  0  0  0  0  0  0  0  0  0
   34.3880   30.1610   49.7980 F   0  0  0  0  0  0  0  0  0  0  0  0
   34.6890   27.9630   49.8460 F   0  0  0  0  0  0  0  0  0  0  0  0
   36.5227   31.5460   50.9976 H   0  0  0  0  0  0  0  0  0  0  0  0
   37.6512   33.6295   50.1649 H   0  0  0  0  0  0  0  0  0  0  0  0
   39.9163   33.2834   46.8605 H   0  0  0  0  0  0  0  0  0  0  0  0
   41.2876   33.5988   44.8185 H   0  0  0  0  0  0  0  0  0  0  0  0
   40.9250   31.3465   43.1597 H   0  0  0  0  0  0  0  0  0  0  0  0
  1 12  1  0
  1  2  2  0
  3  2  1  0
  4  3  2  0
  5  6  2  0
  5  4  1  0
  6  1  1  0
  7  5  1  0
  8  7  2  0
  9  8  1  0
 10  9  2  0
 10 11  1  0
 11  7  1  0
 12 13  1  0
 13 14  1  0
 15 13  1  0
 16 13  1  0
  2 17  1  0
  3 18  1  0
  8 19  1  0
  9 20  1  0
 10 21  1  0
M  ISO  5  17  14  18  14  19  14  20  14  21  14
M  END
>  <minimizedAffinity>  (1) 
-5.83707094

>  <minimizedRMSD>  (1) 
1.48446226

$$$$
