
     RDKit          3D

 20 21  0  0  0  0  0  0  0  0999 V2000
   37.5280   30.3960   49.0540 C   0  0  0  0  0  0  0  0  0  0  0  0
   37.6870   31.4440   49.9880 C   0  0  0  0  0  0  0  0  0  0  0  0
   38.3940   32.5850   49.5940 C   0  0  0  0  0  0  0  0  0  0  0  0
   38.9000   32.6280   48.3170 N   0  0  0  0  0  0  0  0  0  0  0  0
   38.7100   31.5900   47.4750 C   0  0  0  0  0  0  0  0  0  0  0  0
   38.0420   30.4980   47.8240 N   0  0  0  0  0  0  0  0  0  0  0  0
   39.2860   31.7170   46.1190 C   0  0  0  0  0  0  0  0  0  0  0  0
   39.4830   30.5690   45.3350 C   0  0  0  0  0  0  0  0  0  0  0  0
   40.2150   31.3580   43.7800 S   0  0  0  0  0  0  0  0  0  0  0  0
   40.0840   33.0900   44.5560 C   0  0  0  0  0  0  0  0  0  0  0  0
   39.6410   32.8890   45.5750 N   0  0  0  0  0  0  0  0  0  0  0  0
   36.8310   29.2990   49.4760 O   0  0  0  0  0  0  0  0  0  0  0  0
   35.5930   29.3220   50.1240 C   0  0  0  0  0  0  0  0  0  0  0  0
   35.6790   29.3140   51.5010 F   0  0  0  0  0  0  0  0  0  0  0  0
   34.7720   30.3410   49.7020 F   0  0  0  0  0  0  0  0  0  0  0  0
   34.9440   28.1290   49.7560 F   0  0  0  0  0  0  0  0  0  0  0  0
   37.2650   31.3647   51.0007 H   0  0  0  0  0  0  0  0  0  0  0  0
   38.5410   33.4256   50.2881 H   0  0  0  0  0  0  0  0  0  0  0  0
   39.2720   29.5133   45.5606 H   0  0  0  0  0  0  0  0  0  0  0  0
   40.3713   34.0567   44.1168 H   0  0  0  0  0  0  0  0  0  0  0  0
  1 12  1  0
  1  2  2  0
  3  2  1  0
  4  3  2  0
  5  6  2  0
  5  4  1  0
  6  1  1  0
  7  5  1  0
  8  7  2  0
  9 10  1  0
  9  8  1  0
 10 11  2  0
 11  7  1  0
 12 13  1  0
 13 14  1  0
 15 13  1  0
 16 13  1  0
  2 17  1  0
  3 18  1  0
  8 19  1  0
 10 20  1  0
M  ISO  4  17  14  18  14  19  14  20  14
M  END
>  <minimizedAffinity>  (1) 
-5.58625603

>  <minimizedRMSD>  (1) 
1.3488853

$$$$
