
     RDKit          3D

 26 26  0  0  0  0  0  0  0  0999 V2000
   37.6090   30.4660   49.0330 C   0  0  0  0  0  0  0  0  0  0  0  0
   37.8440   31.4790   50.0150 C   0  0  0  0  0  0  0  0  0  0  0  0
   38.5140   32.6310   49.5950 C   0  0  0  0  0  0  0  0  0  0  0  0
   38.9030   32.7210   48.2950 N   0  0  0  0  0  0  0  0  0  0  0  0
   38.6570   31.7390   47.4170 C   0  0  0  0  0  0  0  0  0  0  0  0
   38.0180   30.6160   47.7630 N   0  0  0  0  0  0  0  0  0  0  0  0
   39.1200   31.9310   46.0170 C   0  0  0  0  0  0  0  0  0  0  0  0
   37.9460   32.2790   45.1480 C   0  0  0  0  0  0  0  0  0  0  0  0
   39.9240   30.7570   45.5130 C   0  0  0  0  0  0  0  0  0  0  0  0
   40.0630   33.1390   45.9450 C   0  0  0  0  0  0  0  0  0  0  0  0
   36.9490   29.3310   49.4460 O   0  0  0  0  0  0  0  0  0  0  0  0
   35.7000   29.3080   50.0780 C   0  0  0  0  0  0  0  0  0  0  0  0
   35.7590   29.2340   51.4490 F   0  0  0  0  0  0  0  0  0  0  0  0
   34.8540   30.3070   49.6900 F   0  0  0  0  0  0  0  0  0  0  0  0
   35.0910   28.1130   49.6470 F   0  0  0  0  0  0  0  0  0  0  0  0
   37.5115   31.3564   51.0564 H   0  0  0  0  0  0  0  0  0  0  0  0
   38.7225   33.4482   50.3012 H   0  0  0  0  0  0  0  0  0  0  0  0
   37.0838   32.5346   45.7815 H   0  0  0  0  0  0  0  0  0  0  0  0
   38.2023   33.1398   44.5129 H   0  0  0  0  0  0  0  0  0  0  0  0
   37.6918   31.4176   44.5129 H   0  0  0  0  0  0  0  0  0  0  0  0
   40.3149   30.1862   46.3682 H   0  0  0  0  0  0  0  0  0  0  0  0
   39.2804   30.1072   44.9018 H   0  0  0  0  0  0  0  0  0  0  0  0
   40.7625   31.1222   44.9018 H   0  0  0  0  0  0  0  0  0  0  0  0
   40.3183   33.4661   46.9637 H   0  0  0  0  0  0  0  0  0  0  0  0
   40.9814   32.8559   45.4098 H   0  0  0  0  0  0  0  0  0  0  0  0
   39.5654   33.9612   45.4098 H   0  0  0  0  0  0  0  0  0  0  0  0
  1 11  1  0
  1  2  2  0
  3  2  1  0
  4  3  2  0
  5  6  2  0
  5  4  1  0
  6  1  1  0
  7  5  1  0
  8  7  1  0
  9  7  1  0
 10  7  1  0
 11 12  1  0
 12 13  1  0
 14 12  1  0
 15 12  1  0
  2 16  1  0
  3 17  1  0
  8 18  1  0
  8 19  1  0
  8 20  1  0
  9 21  1  0
  9 22  1  0
  9 23  1  0
 10 24  1  0
 10 25  1  0
 10 26  1  0
M  ISO  8  16  14  17  14  18   8  19   8  20   8  21   8  22   8  23   8
M  ISO  3  24   8  25   8  26   8
M  END
>  <minimizedAffinity>  (1) 
-5.52590656

>  <minimizedRMSD>  (1) 
1.12006319

$$$$
