
     RDKit          3D

 23 23  0  0  0  0  0  0  0  0999 V2000
   37.2600   30.4020   49.1580 C   0  0  0  0  0  0  0  0  0  0  0  0
   37.0960   31.6080   49.9060 C   0  0  0  0  0  0  0  0  0  0  0  0
   37.7640   32.7340   49.4490 C   0  0  0  0  0  0  0  0  0  0  0  0
   38.5400   32.6440   48.3200 N   0  0  0  0  0  0  0  0  0  0  0  0
   38.6490   31.4810   47.6660 C   0  0  0  0  0  0  0  0  0  0  0  0
   38.0270   30.3740   48.0660 N   0  0  0  0  0  0  0  0  0  0  0  0
   39.4960   31.3910   46.4370 C   0  0  0  0  0  0  0  0  0  0  0  0
   38.8300   30.5290   45.4010 C   0  0  0  0  0  0  0  0  0  0  0  0
   39.6090   32.8010   45.8540 C   0  0  0  0  0  0  0  0  0  0  0  0
   36.5910   29.2920   49.6210 O   0  0  0  0  0  0  0  0  0  0  0  0
   35.3440   29.3100   50.2560 C   0  0  0  0  0  0  0  0  0  0  0  0
   35.4460   29.3230   51.6370 F   0  0  0  0  0  0  0  0  0  0  0  0
   34.5270   30.3330   49.8310 F   0  0  0  0  0  0  0  0  0  0  0  0
   34.7060   28.1230   49.9100 F   0  0  0  0  0  0  0  0  0  0  0  0
   36.4660   31.6420   50.8071 H   0  0  0  0  0  0  0  0  0  0  0  0
   37.6731   33.6898   49.9857 H   0  0  0  0  0  0  0  0  0  0  0  0
   40.4756   30.9634   46.6970 H   0  0  0  0  0  0  0  0  0  0  0  0
   38.2306   29.7532   45.8998 H   0  0  0  0  0  0  0  0  0  0  0  0
   38.1753   31.1507   44.7726 H   0  0  0  0  0  0  0  0  0  0  0  0
   39.5968   30.0524   44.7726 H   0  0  0  0  0  0  0  0  0  0  0  0
   39.6677   33.5328   46.6731 H   0  0  0  0  0  0  0  0  0  0  0  0
   40.5156   32.8702   45.2349 H   0  0  0  0  0  0  0  0  0  0  0  0
   38.7250   33.0137   45.2349 H   0  0  0  0  0  0  0  0  0  0  0  0
  1 10  1  0
  1  2  2  0
  3  2  1  0
  4  3  2  0
  5  6  2  0
  5  4  1  0
  6  1  1  0
  7  5  1  0
  8  7  1  0
  9  7  1  0
 10 11  1  0
 11 12  1  0
 13 11  1  0
 14 11  1  0
  2 15  1  0
  3 16  1  0
  7 17  1  0
  8 18  1  0
  8 19  1  0
  8 20  1  0
  9 21  1  0
  9 22  1  0
  9 23  1  0
M  ISO  8  15  14  16  14  17   8  18   8  19   8  20   8  21   8  22   8
M  ISO  1  23   8
M  END
>  <minimizedAffinity>  (1) 
-5.20814133

>  <minimizedRMSD>  (1) 
1.22163916

$$$$
