
     RDKit          3D

 17 17  0  0  0  0  0  0  0  0999 V2000
   37.5650   30.8710   49.5230 C   0  0  0  0  0  0  0  0  0  0  0  0
   37.6030   32.2350   49.8890 C   0  0  0  0  0  0  0  0  0  0  0  0
   38.1970   33.1280   48.9830 C   0  0  0  0  0  0  0  0  0  0  0  0
   38.6990   32.6350   47.8120 N   0  0  0  0  0  0  0  0  0  0  0  0
   38.6310   31.3340   47.5270 C   0  0  0  0  0  0  0  0  0  0  0  0
   38.0800   30.4570   48.3540 N   0  0  0  0  0  0  0  0  0  0  0  0
   39.1860   30.8690   46.2580 C   0  0  0  0  0  0  0  0  0  0  0  0
   38.4210   30.5700   45.2840 O   0  0  0  0  0  0  0  0  0  0  0  0
   40.5390   30.7220   46.0220 O   0  0  0  0  0  0  0  0  0  0  0  0
   36.9860   29.9870   50.4050 O   0  0  0  0  0  0  0  0  0  0  0  0
   35.6630   29.5630   50.3810 C   0  0  0  0  0  0  0  0  0  0  0  0
   35.1950   29.1390   51.6120 F   0  0  0  0  0  0  0  0  0  0  0  0
   34.8020   30.4650   49.8230 F   0  0  0  0  0  0  0  0  0  0  0  0
   35.6410   28.4420   49.5300 F   0  0  0  0  0  0  0  0  0  0  0  0
   37.1843   32.5831   50.8448 H   0  0  0  0  0  0  0  0  0  0  0  0
   38.2569   34.2024   49.2113 H   0  0  0  0  0  0  0  0  0  0  0  0
   40.8558   30.4022   45.1402 H   0  0  0  0  0  0  0  0  0  0  0  0
  1  2  2  0
  1 10  1  0
  3  2  1  0
  4  3  2  0
  5  4  1  0
  5  6  2  0
  6  1  1  0
  7  5  1  0
  8  7  2  0
  9  7  1  0
 11 10  1  0
 11 12  1  0
 13 11  1  0
 14 11  1  0
  2 15  1  0
  3 16  1  0
  9 17  1  0
M  ISO  3  15  14  16  14  17   3
M  END
>  <minimizedAffinity>  (1) 
-5.07547235

>  <minimizedRMSD>  (1) 
0.775602579

$$$$
