
     RDKit          3D

 16 16  0  0  0  0  0  0  0  0999 V2000
   37.4960   30.3200   49.1580 C   0  0  0  0  0  0  0  0  0  0  0  0
   37.7250   31.4130   50.0340 C   0  0  0  0  0  0  0  0  0  0  0  0
   38.4210   32.5210   49.5450 C   0  0  0  0  0  0  0  0  0  0  0  0
   38.8510   32.5070   48.2530 N   0  0  0  0  0  0  0  0  0  0  0  0
   38.6020   31.4350   47.4670 C   0  0  0  0  0  0  0  0  0  0  0  0
   37.9460   30.3630   47.8870 N   0  0  0  0  0  0  0  0  0  0  0  0
   39.0610   31.4160   46.0800 C   0  0  0  0  0  0  0  0  0  0  0  0
   40.2060   31.0350   45.7210 O   0  0  0  0  0  0  0  0  0  0  0  0
   36.8140   29.2530   49.6610 O   0  0  0  0  0  0  0  0  0  0  0  0
   35.5340   29.2920   50.2120 C   0  0  0  0  0  0  0  0  0  0  0  0
   35.5260   29.2790   51.5950 F   0  0  0  0  0  0  0  0  0  0  0  0
   34.7710   30.3290   49.7370 F   0  0  0  0  0  0  0  0  0  0  0  0
   34.8840   28.1280   49.7930 F   0  0  0  0  0  0  0  0  0  0  0  0
   37.3633   31.3882   51.0725 H   0  0  0  0  0  0  0  0  0  0  0  0
   38.6181   33.3888   50.1916 H   0  0  0  0  0  0  0  0  0  0  0  0
   38.3627   31.7557   45.3009 H   0  0  0  0  0  0  0  0  0  0  0  0
  1  9  1  0
  1  2  2  0
  3  2  1  0
  4  3  2  0
  5  6  2  0
  5  4  1  0
  6  1  1  0
  7  5  1  0
  8  7  2  0
  9 10  1  0
 10 11  1  0
 12 10  1  0
 13 10  1  0
  2 14  1  0
  3 15  1  0
  7 16  1  0
M  ISO  3  14  14  15  14  16   6
M  END
>  <minimizedAffinity>  (1) 
-4.69348955

>  <minimizedRMSD>  (1) 
1.12484229

$$$$
