
     RDKit          3D

 17 17  0  0  0  0  0  0  0  0999 V2000
   37.9640   30.9650   49.3390 C   0  0  0  0  0  0  0  0  0  0  0  0
   38.3480   32.3020   49.6200 C   0  0  0  0  0  0  0  0  0  0  0  0
   38.8560   33.0640   48.5770 C   0  0  0  0  0  0  0  0  0  0  0  0
   38.9710   32.5140   47.3360 N   0  0  0  0  0  0  0  0  0  0  0  0
   38.5890   31.2320   47.1280 C   0  0  0  0  0  0  0  0  0  0  0  0
   38.0970   30.4660   48.0910 N   0  0  0  0  0  0  0  0  0  0  0  0
   38.7220   30.6480   45.7580 C   0  0  0  0  0  0  0  0  0  0  0  0
   37.4620   30.2150   50.3660 O   0  0  0  0  0  0  0  0  0  0  0  0
   36.1400   29.7590   50.4570 C   0  0  0  0  0  0  0  0  0  0  0  0
   35.7580   29.4190   51.7370 F   0  0  0  0  0  0  0  0  0  0  0  0
   35.2190   30.6280   49.9230 F   0  0  0  0  0  0  0  0  0  0  0  0
   36.0710   28.5950   49.6890 F   0  0  0  0  0  0  0  0  0  0  0  0
   38.2463   32.7210   50.6320 H   0  0  0  0  0  0  0  0  0  0  0  0
   39.1638   34.1055   48.7514 H   0  0  0  0  0  0  0  0  0  0  0  0
   38.9656   29.5783   45.8375 H   0  0  0  0  0  0  0  0  0  0  0  0
   37.7734   30.7686   45.2143 H   0  0  0  0  0  0  0  0  0  0  0  0
   39.5248   31.1675   45.2143 H   0  0  0  0  0  0  0  0  0  0  0  0
  1  2  2  0
  1  8  1  0
  3  2  1  0
  4  3  2  0
  5  4  1  0
  5  6  2  0
  6  1  1  0
  7  5  1  0
  8  9  1  0
  9 10  1  0
 11  9  1  0
 12  9  1  0
  2 13  1  0
  3 14  1  0
  7 15  1  0
  7 16  1  0
  7 17  1  0
M  ISO  5  13  14  14  14  15   8  16   8  17   8
M  END
>  <minimizedAffinity>  (1) 
-4.6522069

>  <minimizedRMSD>  (1) 
0.0984884724

$$$$
