
     RDKit          3D

 37 38  0  0  0  0  0  0  0  0999 V2000
   39.2010   32.2800   46.0700 C   0  0  0  0  0  0  0  0  0  0  0  0
   37.7700   32.5920   49.5680 C   0  0  0  0  0  0  0  0  0  0  0  0
   38.6040   32.8550   48.4670 C   0  0  0  0  0  0  0  0  0  0  0  0
   38.4130   32.1190   47.2970 C   0  0  0  0  0  0  0  0  0  0  0  0
   37.4100   31.1700   47.2960 N   0  0  0  0  0  0  0  0  0  0  0  0
   36.6330   30.9470   48.3700 C   0  0  0  0  0  0  0  0  0  0  0  0
   36.8040   31.6450   49.5000 N   0  0  0  0  0  0  0  0  0  0  0  0
   40.0600   31.0200   45.9290 C   0  0  0  0  0  0  0  0  0  0  0  0
   40.0930   33.4720   46.0770 C   0  0  0  0  0  0  0  0  0  0  0  0
   38.2640   32.3550   44.9020 C   0  0  0  0  0  0  0  0  0  0  0  0
   38.8290   31.7650   43.6530 C   0  0  0  0  0  0  0  0  0  0  0  0
   39.4020   32.6190   42.6640 C   0  0  0  0  0  0  0  0  0  0  0  0
   39.9200   31.4160   41.3920 S   0  0  0  0  0  0  0  0  0  0  0  0
   39.2640   29.9500   42.4340 C   0  0  0  0  0  0  0  0  0  0  0  0
   38.8630   30.4870   43.3420 N   0  0  0  0  0  0  0  0  0  0  0  0
   39.3280   28.5030   42.0280 C   0  0  0  0  0  0  0  0  0  0  0  0
   40.7810   28.3030   41.5770 C   0  0  0  0  0  0  0  0  0  0  0  0
   39.0560   27.5800   43.1790 C   0  0  0  0  0  0  0  0  0  0  0  0
   37.9040   33.1637   50.4982 H   0  0  0  0  0  0  0  0  0  0  0  0
   39.3890   33.6233   48.5266 H   0  0  0  0  0  0  0  0  0  0  0  0
   35.8457   30.1804   48.3200 H   0  0  0  0  0  0  0  0  0  0  0  0
   40.3194   30.6394   46.9279 H   0  0  0  0  0  0  0  0  0  0  0  0
   39.4967   30.2519   45.3789 H   0  0  0  0  0  0  0  0  0  0  0  0
   40.9809   31.2637   45.3789 H   0  0  0  0  0  0  0  0  0  0  0  0
   40.3098   33.7617   47.1158 H   0  0  0  0  0  0  0  0  0  0  0  0
   41.0332   33.2294   45.5602 H   0  0  0  0  0  0  0  0  0  0  0  0
   39.5950   34.3056   45.5602 H   0  0  0  0  0  0  0  0  0  0  0  0
   37.3422   31.8124   45.1585 H   0  0  0  0  0  0  0  0  0  0  0  0
   38.0761   33.4204   44.7030 H   0  0  0  0  0  0  0  0  0  0  0  0
   39.5047   33.7142   42.6671 H   0  0  0  0  0  0  0  0  0  0  0  0
   38.5771   28.2783   41.2562 H   0  0  0  0  0  0  0  0  0  0  0  0
   41.4302   28.2136   42.4605 H   0  0  0  0  0  0  0  0  0  0  0  0
   40.8547   27.3862   40.9736 H   0  0  0  0  0  0  0  0  0  0  0  0
   41.0997   29.1657   40.9736 H   0  0  0  0  0  0  0  0  0  0  0  0
   39.2144   28.1176   44.1255 H   0  0  0  0  0  0  0  0  0  0  0  0
   38.0155   27.2267   43.1277 H   0  0  0  0  0  0  0  0  0  0  0  0
   39.7386   26.7189   43.1277 H   0  0  0  0  0  0  0  0  0  0  0  0
  1  9  1  0
  1  4  1  0
  3  2  2  0
  4  3  1  0
  5  4  2  0
  5  6  1  0
  6  7  2  0
  7  2  1  0
  8  1  1  0
 10  1  1  0
 11 10  1  0
 12 11  2  0
 13 14  1  0
 13 12  1  0
 14 15  2  0
 15 11  1  0
 16 14  1  0
 16 18  1  0
 17 16  1  0
  2 19  1  0
  3 20  1  0
  6 21  1  0
  8 22  1  0
  8 23  1  0
  8 24  1  0
  9 25  1  0
  9 26  1  0
  9 27  1  0
 10 28  1  0
 10 29  1  0
 12 30  1  0
 16 31  1  0
 17 32  1  0
 17 33  1  0
 17 34  1  0
 18 35  1  0
 18 36  1  0
 18 37  1  0
M  ISO  8  19  14  20  14  21  14  22   8  23   8  24   8  25   8  26   8
M  ISO  8  27   8  28   8  29   8  30  14  31   8  32   8  33   8  34   8
M  ISO  3  35   8  36   8  37   8
M  END
>  <minimizedAffinity>  (1) 
-4.84515238

>  <minimizedRMSD>  (1) 
0.491007477

$$$$
