
     RDKit          3D

 16 16  0  0  0  0  0  0  0  0999 V2000
   37.9600   30.9460   49.2960 C   0  0  0  0  0  0  0  0  0  0  0  0
   38.3690   32.2760   49.5780 C   0  0  0  0  0  0  0  0  0  0  0  0
   38.8650   33.0310   48.5250 C   0  0  0  0  0  0  0  0  0  0  0  0
   38.9450   32.4860   47.2750 N   0  0  0  0  0  0  0  0  0  0  0  0
   38.5390   31.2140   47.0660 C   0  0  0  0  0  0  0  0  0  0  0  0
   38.0530   30.4420   48.0450 N   0  0  0  0  0  0  0  0  0  0  0  0
   38.6030   30.6050   45.7800 N   0  0  0  0  0  0  0  0  0  0  0  0
   37.4700   30.1870   50.3160 O   0  0  0  0  0  0  0  0  0  0  0  0
   36.1490   29.7530   50.4560 C   0  0  0  0  0  0  0  0  0  0  0  0
   35.8020   29.4240   51.7560 F   0  0  0  0  0  0  0  0  0  0  0  0
   35.2320   30.6100   49.9290 F   0  0  0  0  0  0  0  0  0  0  0  0
   36.0590   28.5850   49.6990 F   0  0  0  0  0  0  0  0  0  0  0  0
   38.2954   32.6923   50.5935 H   0  0  0  0  0  0  0  0  0  0  0  0
   39.1933   34.0668   48.6964 H   0  0  0  0  0  0  0  0  0  0  0  0
   38.2855   29.6333   45.6540 H   0  0  0  0  0  0  0  0  0  0  0  0
   38.9668   31.1363   44.9761 H   0  0  0  0  0  0  0  0  0  0  0  0
  1  2  2  0
  1  8  1  0
  3  2  1  0
  4  3  2  0
  5  4  1  0
  5  6  2  0
  6  1  1  0
  7  5  1  0
  8  9  1  0
  9 10  1  0
 11  9  1  0
 12  9  1  0
  2 13  1  0
  3 14  1  0
  7 15  1  0
  7 16  1  0
M  ISO  2  13  14  14  14
M  END
>  <minimizedAffinity>  (1) 
-4.54659128

>  <minimizedRMSD>  (1) 
0.0510166846

$$$$
