
     RDKit          3D

 33 34  0  0  0  0  0  0  0  0999 V2000
   37.2180   31.0530   44.9470 C   0  0  0  0  0  0  0  0  0  0  0  0
   36.7110   30.6800   46.2260 C   0  0  0  0  0  0  0  0  0  0  0  0
   37.3630   31.1840   47.3540 C   0  0  0  0  0  0  0  0  0  0  0  0
   38.4300   31.9920   47.1510 N   0  0  0  0  0  0  0  0  0  0  0  0
   38.8810   32.3240   45.9370 C   0  0  0  0  0  0  0  0  0  0  0  0
   38.2870   31.8620   44.8340 N   0  0  0  0  0  0  0  0  0  0  0  0
   36.8910   30.8390   48.6920 C   0  0  0  0  0  0  0  0  0  0  0  0
   38.1290   30.4890   49.5300 C   0  0  0  0  0  0  0  0  0  0  0  0
   37.6390   30.5710   50.9730 C   0  0  0  0  0  0  0  0  0  0  0  0
   36.5910   29.5260   51.2200 C   0  0  0  0  0  0  0  0  0  0  0  0
   35.5530   29.4020   50.1590 C   0  0  0  0  0  0  0  0  0  0  0  0
   36.0210   29.6210   48.7600 C   0  0  0  0  0  0  0  0  0  0  0  0
   40.0710   33.2250   45.9080 C   0  0  0  0  0  0  0  0  0  0  0  0
   40.2390   33.8380   47.1490 F   0  0  0  0  0  0  0  0  0  0  0  0
   41.2090   32.4750   45.7040 F   0  0  0  0  0  0  0  0  0  0  0  0
   39.9960   34.1620   44.8850 F   0  0  0  0  0  0  0  0  0  0  0  0
   36.5720   30.5530   43.8270 O   0  0  0  0  0  0  0  0  0  0  0  0
   35.4640   31.1570   43.2200 C   0  0  0  0  0  0  0  0  0  0  0  0
   34.2600   30.8260   43.8310 F   0  0  0  0  0  0  0  0  0  0  0  0
   35.5660   32.5130   43.0600 F   0  0  0  0  0  0  0  0  0  0  0  0
   35.4250   30.5940   41.9360 F   0  0  0  0  0  0  0  0  0  0  0  0
   35.8372   30.0186   46.3214 H   0  0  0  0  0  0  0  0  0  0  0  0
   36.3030   31.7009   49.0403 H   0  0  0  0  0  0  0  0  0  0  0  0
   38.4848   29.4748   49.2957 H   0  0  0  0  0  0  0  0  0  0  0  0
   38.9756   31.1632   49.3333 H   0  0  0  0  0  0  0  0  0  0  0  0
   38.4860   30.4057   51.6551 H   0  0  0  0  0  0  0  0  0  0  0  0
   37.2052   31.5661   51.1507 H   0  0  0  0  0  0  0  0  0  0  0  0
   37.0966   28.5538   51.3160 H   0  0  0  0  0  0  0  0  0  0  0  0
   36.0591   29.8381   52.1308 H   0  0  0  0  0  0  0  0  0  0  0  0
   35.1304   28.3881   50.2180 H   0  0  0  0  0  0  0  0  0  0  0  0
   34.8267   30.2037   50.3585 H   0  0  0  0  0  0  0  0  0  0  0  0
   35.1500   29.7591   48.1025 H   0  0  0  0  0  0  0  0  0  0  0  0
   36.6016   28.7455   48.4337 H   0  0  0  0  0  0  0  0  0  0  0  0
  1  2  2  0
  2  3  1  0
  3  7  1  0
  4  3  2  0
  5  4  1  0
  6  1  1  0
  6  5  2  0
  7 12  1  0
  7  8  1  0
  8  9  1  0
  9 10  1  0
 11 10  1  0
 12 11  1  0
 13  5  1  0
 13 14  1  0
 15 13  1  0
 16 13  1  0
 17  1  1  0
 18 17  1  0
 18 19  1  0
 20 18  1  0
 21 18  1  0
  2 22  1  0
  7 23  1  0
  8 24  1  0
  8 25  1  0
  9 26  1  0
  9 27  1  0
 10 28  1  0
 10 29  1  0
 11 30  1  0
 11 31  1  0
 12 32  1  0
 12 33  1  0
M  ISO  8  22  14  23  13  24  13  25  13  26  13  27  13  28  13  29  13
M  ISO  4  30  13  31  13  32  13  33  13
M  END
>  <minimizedAffinity>  (1) 
-6.20566225

>  <minimizedRMSD>  (1) 
5.00972223

$$$$
