
     RDKit          3D

 30 31  0  0  0  0  0  0  0  0999 V2000
   39.2290   32.2620   46.0840 C   0  0  0  0  0  0  0  0  0  0  0  0
   37.7010   32.4380   49.5460 C   0  0  0  0  0  0  0  0  0  0  0  0
   38.5640   32.7360   48.4910 C   0  0  0  0  0  0  0  0  0  0  0  0
   38.4080   32.0640   47.2790 C   0  0  0  0  0  0  0  0  0  0  0  0
   37.3920   31.1350   47.2090 N   0  0  0  0  0  0  0  0  0  0  0  0
   36.5760   30.8710   48.2440 C   0  0  0  0  0  0  0  0  0  0  0  0
   36.7250   31.5170   49.4110 N   0  0  0  0  0  0  0  0  0  0  0  0
   40.1490   31.0490   45.9580 C   0  0  0  0  0  0  0  0  0  0  0  0
   40.0780   33.4920   46.1420 C   0  0  0  0  0  0  0  0  0  0  0  0
   38.3380   32.3080   44.8830 C   0  0  0  0  0  0  0  0  0  0  0  0
   38.8930   31.5920   43.7020 C   0  0  0  0  0  0  0  0  0  0  0  0
   39.6240   32.3290   42.7110 C   0  0  0  0  0  0  0  0  0  0  0  0
   40.0530   30.9960   41.5350 S   0  0  0  0  0  0  0  0  0  0  0  0
   39.1700   29.6910   42.5890 C   0  0  0  0  0  0  0  0  0  0  0  0
   38.7850   30.3070   43.4500 N   0  0  0  0  0  0  0  0  0  0  0  0
   39.2240   28.3050   42.0300 C   0  0  0  0  0  0  0  0  0  0  0  0
   39.9850   27.4260   42.5110 O   0  0  0  0  0  0  0  0  0  0  0  0
   37.8187   32.9636   50.5051 H   0  0  0  0  0  0  0  0  0  0  0  0
   39.3557   33.4898   48.6134 H   0  0  0  0  0  0  0  0  0  0  0  0
   35.7801   30.1198   48.1337 H   0  0  0  0  0  0  0  0  0  0  0  0
   40.4215   30.6897   46.9613 H   0  0  0  0  0  0  0  0  0  0  0  0
   39.6284   30.2492   45.4110 H   0  0  0  0  0  0  0  0  0  0  0  0
   41.0596   31.3347   45.4110 H   0  0  0  0  0  0  0  0  0  0  0  0
   40.2633   33.7604   47.1925 H   0  0  0  0  0  0  0  0  0  0  0  0
   41.0367   33.2999   45.6381 H   0  0  0  0  0  0  0  0  0  0  0  0
   39.5584   34.3203   45.6381 H   0  0  0  0  0  0  0  0  0  0  0  0
   37.3742   31.8483   45.1471 H   0  0  0  0  0  0  0  0  0  0  0  0
   38.2331   33.3656   44.5993 H   0  0  0  0  0  0  0  0  0  0  0  0
   39.8613   33.4023   42.6700 H   0  0  0  0  0  0  0  0  0  0  0  0
   38.5812   28.0471   41.1754 H   0  0  0  0  0  0  0  0  0  0  0  0
  1  9  1  0
  1  4  1  0
  3  2  2  0
  4  3  1  0
  5  4  2  0
  5  6  1  0
  6  7  2  0
  7  2  1  0
  8  1  1  0
 10  1  1  0
 11 10  1  0
 12 11  2  0
 13 14  1  0
 13 12  1  0
 14 15  2  0
 15 11  1  0
 16 17  2  0
 16 14  1  0
  2 18  1  0
  3 19  1  0
  6 20  1  0
  8 21  1  0
  8 22  1  0
  8 23  1  0
  9 24  1  0
  9 25  1  0
  9 26  1  0
 10 27  1  0
 10 28  1  0
 12 29  1  0
 16 30  1  0
M  ISO  8  18  14  19  14  20  14  21   8  22   8  23   8  24   8  25   8
M  ISO  5  26   8  27   8  28   8  29  14  30   6
M  END
>  <minimizedAffinity>  (1) 
-4.60219002

>  <minimizedRMSD>  (1) 
0.447828174

$$$$
