
     RDKit          3D

 24 25  0  0  0  0  0  0  0  0999 V2000
   38.7160   31.2370   46.1380 C   0  0  0  0  0  0  0  0  0  0  0  0
   37.4330   30.6030   46.0210 C   0  0  0  0  0  0  0  0  0  0  0  0
   36.5800   30.7210   47.1040 C   0  0  0  0  0  0  0  0  0  0  0  0
   36.9900   31.4100   48.1890 N   0  0  0  0  0  0  0  0  0  0  0  0
   38.1970   31.9890   48.2630 C   0  0  0  0  0  0  0  0  0  0  0  0
   39.0440   31.9010   47.2490 N   0  0  0  0  0  0  0  0  0  0  0  0
   35.2570   30.1070   47.0690 C   0  0  0  0  0  0  0  0  0  0  0  0
   34.8090   29.1370   47.9400 C   0  0  0  0  0  0  0  0  0  0  0  0
   33.5370   28.8270   47.5810 N   0  0  0  0  0  0  0  0  0  0  0  0
   33.2600   29.6070   46.5220 C   0  0  0  0  0  0  0  0  0  0  0  0
   34.2850   30.3930   46.1900 N   0  0  0  0  0  0  0  0  0  0  0  0
   38.4860   32.7120   49.5380 C   0  0  0  0  0  0  0  0  0  0  0  0
   37.3130   33.2700   50.0460 F   0  0  0  0  0  0  0  0  0  0  0  0
   38.9170   31.8200   50.4870 F   0  0  0  0  0  0  0  0  0  0  0  0
   39.4730   33.6780   49.3700 F   0  0  0  0  0  0  0  0  0  0  0  0
   39.5810   31.1300   45.0670 O   0  0  0  0  0  0  0  0  0  0  0  0
   40.0930   32.2050   44.3400 C   0  0  0  0  0  0  0  0  0  0  0  0
   40.4270   31.8910   43.0370 F   0  0  0  0  0  0  0  0  0  0  0  0
   39.3010   33.3220   44.3680 F   0  0  0  0  0  0  0  0  0  0  0  0
   41.2880   32.5320   44.9790 F   0  0  0  0  0  0  0  0  0  0  0  0
   37.1426   30.0507   45.1151 H   0  0  0  0  0  0  0  0  0  0  0  0
   35.3772   28.6957   48.7721 H   0  0  0  0  0  0  0  0  0  0  0  0
   32.2974   29.5981   45.9897 H   0  0  0  0  0  0  0  0  0  0  0  0
   34.3224   31.0763   45.4202 H   0  0  0  0  0  0  0  0  0  0  0  0
  1  6  2  0
  2  1  1  0
  2  3  2  0
  3  4  1  0
  4  5  2  0
  5 12  1  0
  6  5  1  0
  7  3  1  0
  7  8  2  0
  9  8  1  0
 10  9  2  0
 11 10  1  0
 11  7  1  0
 12 13  1  0
 12 14  1  0
 15 12  1  0
 16  1  1  0
 17 19  1  0
 17 20  1  0
 17 16  1  0
 18 17  1  0
  2 21  1  0
  8 22  1  0
 10 23  1  0
 11 24  1  0
M  ISO  4  21  14  22  14  23  14  24   9
M  END
>  <minimizedAffinity>  (1) 
-5.81215572

>  <minimizedRMSD>  (1) 
6.36005354

$$$$
