
     RDKit          3D

 24 25  0  0  0  0  0  0  0  0999 V2000
   38.6610   31.1240   46.2730 C   0  0  0  0  0  0  0  0  0  0  0  0
   37.3710   30.6150   45.9500 C   0  0  0  0  0  0  0  0  0  0  0  0
   36.4190   30.6210   46.9550 C   0  0  0  0  0  0  0  0  0  0  0  0
   36.7570   31.1020   48.1660 N   0  0  0  0  0  0  0  0  0  0  0  0
   37.9830   31.5760   48.4430 C   0  0  0  0  0  0  0  0  0  0  0  0
   38.9130   31.5810   47.4960 N   0  0  0  0  0  0  0  0  0  0  0  0
   35.0850   30.1070   46.6600 C   0  0  0  0  0  0  0  0  0  0  0  0
   34.7080   29.3850   45.5450 C   0  0  0  0  0  0  0  0  0  0  0  0
   33.3650   29.1570   45.7660 C   0  0  0  0  0  0  0  0  0  0  0  0
   32.9620   29.7010   46.9300 N   0  0  0  0  0  0  0  0  0  0  0  0
   34.0360   30.2910   47.4810 N   0  0  0  0  0  0  0  0  0  0  0  0
   38.2010   32.0710   49.8270 C   0  0  0  0  0  0  0  0  0  0  0  0
   38.9840   33.2260   49.8030 F   0  0  0  0  0  0  0  0  0  0  0  0
   36.9890   32.4470   50.3750 F   0  0  0  0  0  0  0  0  0  0  0  0
   38.7460   31.1140   50.6610 F   0  0  0  0  0  0  0  0  0  0  0  0
   39.6240   31.1240   45.2800 O   0  0  0  0  0  0  0  0  0  0  0  0
   40.1730   32.2630   44.7050 C   0  0  0  0  0  0  0  0  0  0  0  0
   40.4940   32.1160   43.3720 F   0  0  0  0  0  0  0  0  0  0  0  0
   39.4290   33.4010   44.9000 F   0  0  0  0  0  0  0  0  0  0  0  0
   41.3850   32.4660   45.3810 F   0  0  0  0  0  0  0  0  0  0  0  0
   37.1407   30.2332   44.9444 H   0  0  0  0  0  0  0  0  0  0  0  0
   35.3257   29.0694   44.6913 H   0  0  0  0  0  0  0  0  0  0  0  0
   32.7083   28.6023   45.0797 H   0  0  0  0  0  0  0  0  0  0  0  0
   32.0106   29.6706   47.3234 H   0  0  0  0  0  0  0  0  0  0  0  0
  1  6  2  0
  2  1  1  0
  2  3  2  0
  3  4  1  0
  4  5  2  0
  5 12  1  0
  6  5  1  0
  7  3  1  0
  7 11  2  0
  8  9  2  0
  8  7  1  0
  9 10  1  0
 10 11  1  0
 12 14  1  0
 12 15  1  0
 13 12  1  0
 16  1  1  0
 17 19  1  0
 17 16  1  0
 17 20  1  0
 18 17  1  0
  2 21  1  0
  8 22  1  0
  9 23  1  0
 10 24  1  0
M  ISO  4  21  14  22  14  23  14  24   9
M  END
>  <minimizedAffinity>  (1) 
-5.79712391

>  <minimizedRMSD>  (1) 
6.47181416

$$$$
