
     RDKit          3D

 24 25  0  0  0  0  0  0  0  0999 V2000
   37.2650   31.1370   45.1640 C   0  0  0  0  0  0  0  0  0  0  0  0
   36.9990   30.6410   46.4710 C   0  0  0  0  0  0  0  0  0  0  0  0
   37.8550   31.0420   47.4820 C   0  0  0  0  0  0  0  0  0  0  0  0
   38.8840   31.8690   47.1890 N   0  0  0  0  0  0  0  0  0  0  0  0
   39.1040   32.3190   45.9340 C   0  0  0  0  0  0  0  0  0  0  0  0
   38.3030   31.9550   44.9410 N   0  0  0  0  0  0  0  0  0  0  0  0
   37.6370   30.5690   48.8470 C   0  0  0  0  0  0  0  0  0  0  0  0
   38.1380   31.1720   49.9850 C   0  0  0  0  0  0  0  0  0  0  0  0
   37.6550   30.3500   51.0000 C   0  0  0  0  0  0  0  0  0  0  0  0
   36.9030   29.3150   50.4410 C   0  0  0  0  0  0  0  0  0  0  0  0
   36.9320   29.5050   49.1450 O   0  0  0  0  0  0  0  0  0  0  0  0
   40.2750   33.2190   45.7730 C   0  0  0  0  0  0  0  0  0  0  0  0
   40.0340   34.1340   44.7340 F   0  0  0  0  0  0  0  0  0  0  0  0
   40.4400   33.9770   46.9000 F   0  0  0  0  0  0  0  0  0  0  0  0
   41.4550   32.5220   45.5580 F   0  0  0  0  0  0  0  0  0  0  0  0
   36.4170   30.7460   44.1390 O   0  0  0  0  0  0  0  0  0  0  0  0
   36.0660   31.5580   43.0550 C   0  0  0  0  0  0  0  0  0  0  0  0
   34.8540   31.1860   42.4730 F   0  0  0  0  0  0  0  0  0  0  0  0
   36.0740   32.8980   43.3210 F   0  0  0  0  0  0  0  0  0  0  0  0
   37.0500   31.3300   42.0890 F   0  0  0  0  0  0  0  0  0  0  0  0
   36.1510   29.9689   46.6690 H   0  0  0  0  0  0  0  0  0  0  0  0
   38.7615   32.0744   50.0682 H   0  0  0  0  0  0  0  0  0  0  0  0
   37.8376   30.4938   52.0752 H   0  0  0  0  0  0  0  0  0  0  0  0
   36.3902   28.5044   50.9795 H   0  0  0  0  0  0  0  0  0  0  0  0
  1  2  2  0
  2  3  1  0
  3  7  1  0
  4  3  2  0
  5  4  1  0
  6  1  1  0
  6  5  2  0
  7 11  1  0
  7  8  2  0
  8  9  1  0
 10  9  2  0
 11 10  1  0
 12  5  1  0
 12 14  1  0
 13 12  1  0
 15 12  1  0
 16  1  1  0
 17 19  1  0
 17 16  1  0
 18 17  1  0
 20 17  1  0
  2 21  1  0
  8 22  1  0
  9 23  1  0
 10 24  1  0
M  ISO  4  21  14  22  14  23  14  24  14
M  END
>  <minimizedAffinity>  (1) 
-5.72205448

>  <minimizedRMSD>  (1) 
5.01788139

$$$$
