
     RDKit          3D

 23 23  0  0  0  0  0  0  0  0999 V2000
   37.2870   30.3980   49.2200 C   0  0  0  0  0  0  0  0  0  0  0  0
   37.9260   31.5220   49.8360 C   0  0  0  0  0  0  0  0  0  0  0  0
   38.4410   32.5010   49.0060 C   0  0  0  0  0  0  0  0  0  0  0  0
   38.3180   32.3480   47.6750 N   0  0  0  0  0  0  0  0  0  0  0  0
   37.7090   31.2750   47.1200 C   0  0  0  0  0  0  0  0  0  0  0  0
   37.2020   30.3160   47.8830 N   0  0  0  0  0  0  0  0  0  0  0  0
   37.6580   31.2630   45.6300 C   0  0  0  0  0  0  0  0  0  0  0  0
   36.4150   30.7840   45.2040 F   0  0  0  0  0  0  0  0  0  0  0  0
   37.7520   32.5520   45.1510 F   0  0  0  0  0  0  0  0  0  0  0  0
   38.6910   30.5310   45.0780 F   0  0  0  0  0  0  0  0  0  0  0  0
   36.7750   29.4260   50.0500 O   0  0  0  0  0  0  0  0  0  0  0  0
   35.4430   29.3310   50.4410 C   0  0  0  0  0  0  0  0  0  0  0  0
   35.2650   29.1500   51.7990 F   0  0  0  0  0  0  0  0  0  0  0  0
   34.6450   30.3660   49.9960 F   0  0  0  0  0  0  0  0  0  0  0  0
   34.9680   28.1670   49.8260 F   0  0  0  0  0  0  0  0  0  0  0  0
   39.1110   33.6800   49.6230 C   0  0  0  0  0  0  0  0  0  0  0  0
   39.8420   34.4260   48.5170 C   0  0  0  0  0  0  0  0  0  0  0  0
   38.0044   31.6037   50.9302 H   0  0  0  0  0  0  0  0  0  0  0  0
   38.3608   34.3376   50.0863 H   0  0  0  0  0  0  0  0  0  0  0  0
   39.8166   33.3583   50.4031 H   0  0  0  0  0  0  0  0  0  0  0  0
   40.5459   35.1444   48.9625 H   0  0  0  0  0  0  0  0  0  0  0  0
   40.3958   33.7079   47.8944 H   0  0  0  0  0  0  0  0  0  0  0  0
   39.1128   34.9651   47.8944 H   0  0  0  0  0  0  0  0  0  0  0  0
  1  2  2  0
  1 11  1  0
  3 16  1  0
  3  2  1  0
  4  3  2  0
  5  4  1  0
  5  6  2  0
  6  1  1  0
  7  5  1  0
  8  7  1  0
  9  7  1  0
 10  7  1  0
 11 12  1  0
 12 13  1  0
 14 12  1  0
 15 12  1  0
 17 16  1  0
  2 18  1  0
 16 19  1  0
 16 20  1  0
 17 21  1  0
 17 22  1  0
 17 23  1  0
M  ISO  6  18  14  19   8  20   8  21   8  22   8  23   8
M  END
>  <minimizedAffinity>  (1) 
-5.55711079

>  <minimizedRMSD>  (1) 
1.35151851

$$$$
