
     RDKit          3D

 18 18  0  0  0  0  0  0  0  0999 V2000
   37.3570   30.4810   49.1730 C   0  0  0  0  0  0  0  0  0  0  0  0
   38.0140   31.6380   49.7190 C   0  0  0  0  0  0  0  0  0  0  0  0
   38.4960   32.5770   48.8250 C   0  0  0  0  0  0  0  0  0  0  0  0
   38.3280   32.3700   47.5000 N   0  0  0  0  0  0  0  0  0  0  0  0
   37.7030   31.2670   47.0230 C   0  0  0  0  0  0  0  0  0  0  0  0
   37.2290   30.3460   47.8540 N   0  0  0  0  0  0  0  0  0  0  0  0
   37.5980   31.1850   45.5410 C   0  0  0  0  0  0  0  0  0  0  0  0
   37.6530   32.4580   44.9760 F   0  0  0  0  0  0  0  0  0  0  0  0
   38.6790   30.4890   45.0370 F   0  0  0  0  0  0  0  0  0  0  0  0
   36.4600   30.5210   45.1220 F   0  0  0  0  0  0  0  0  0  0  0  0
   39.3190   34.0280   49.4730 S   0  0  0  0  0  0  0  0  0  0  0  0
   36.8780   29.5450   50.0550 O   0  0  0  0  0  0  0  0  0  0  0  0
   35.5340   29.3770   50.3970 C   0  0  0  0  0  0  0  0  0  0  0  0
   35.3260   29.1530   51.7520 F   0  0  0  0  0  0  0  0  0  0  0  0
   34.7040   30.3950   49.9610 F   0  0  0  0  0  0  0  0  0  0  0  0
   35.1220   28.2260   49.7360 F   0  0  0  0  0  0  0  0  0  0  0  0
   38.1287   31.7710   50.8049 H   0  0  0  0  0  0  0  0  0  0  0  0
   39.2983   33.9914   50.8424 H   0  0  0  0  0  0  0  0  0  0  0  0
  1  2  2  0
  1 12  1  0
  3 11  1  0
  3  2  1  0
  4  3  2  0
  5  4  1  0
  5  6  2  0
  6  1  1  0
  7  5  1  0
  8  7  1  0
  9  7  1  0
 10  7  1  0
 12 13  1  0
 13 14  1  0
 15 13  1  0
 16 13  1  0
  2 17  1  0
 11 18  1  0
M  ISO  2  17  14  18  11
M  END
>  <minimizedAffinity>  (1) 
-5.17865753

>  <minimizedRMSD>  (1) 
1.13519812

$$$$
