
     RDKit          3D

 26 26  0  0  0  0  0  0  0  0999 V2000
   36.6550   29.9760   48.6210 C   0  0  0  0  0  0  0  0  0  0  0  0
   37.6570   30.9930   48.7350 C   0  0  0  0  0  0  0  0  0  0  0  0
   37.9560   31.7400   47.6080 C   0  0  0  0  0  0  0  0  0  0  0  0
   37.2710   31.4510   46.4620 N   0  0  0  0  0  0  0  0  0  0  0  0
   36.3430   30.4980   46.3810 C   0  0  0  0  0  0  0  0  0  0  0  0
   36.0440   29.7750   47.4450 N   0  0  0  0  0  0  0  0  0  0  0  0
   38.9590   32.7940   47.6450 C   0  0  0  0  0  0  0  0  0  0  0  0
   39.2480   33.3110   48.7400 O   0  0  0  0  0  0  0  0  0  0  0  0
   39.5400   33.1550   46.4010 N   0  0  0  0  0  0  0  0  0  0  0  0
   40.1960   32.0520   45.7950 C   0  0  0  0  0  0  0  0  0  0  0  0
   40.4030   30.8360   46.0640 N   0  0  0  0  0  0  0  0  0  0  0  0
   40.8590   32.1630   44.5340 N   0  0  0  0  0  0  0  0  0  0  0  0
   40.1460   30.2510   46.8410 H   0  0  0  0  0  0  0  0  0  0  0  0
   35.7030   30.3260   45.0560 C   0  0  0  0  0  0  0  0  0  0  0  0
   36.1930   31.2960   44.1600 F   0  0  0  0  0  0  0  0  0  0  0  0
   36.0440   29.1110   44.5320 F   0  0  0  0  0  0  0  0  0  0  0  0
   34.3120   30.3770   45.1280 F   0  0  0  0  0  0  0  0  0  0  0  0
   36.3630   29.2340   49.7490 O   0  0  0  0  0  0  0  0  0  0  0  0
   35.1240   29.2380   50.3940 C   0  0  0  0  0  0  0  0  0  0  0  0
   35.2090   29.1160   51.7750 F   0  0  0  0  0  0  0  0  0  0  0  0
   34.3100   30.2890   50.0780 F   0  0  0  0  0  0  0  0  0  0  0  0
   34.4760   28.0650   49.9370 F   0  0  0  0  0  0  0  0  0  0  0  0
   38.1734   31.1752   49.6890 H   0  0  0  0  0  0  0  0  0  0  0  0
   39.4916   34.0983   45.9901 H   0  0  0  0  0  0  0  0  0  0  0  0
   40.8704   33.0644   44.0357 H   0  0  0  0  0  0  0  0  0  0  0  0
   41.3255   31.3416   44.1234 H   0  0  0  0  0  0  0  0  0  0  0  0
  1  2  2  0
  1 18  1  0
  3  7  1  0
  3  2  1  0
  4  3  2  0
  5  4  1  0
  5  6  2  0
  6  1  1  0
  7  8  2  0
  9  7  1  0
 10 11  2  0
 10  9  1  0
 11 13  1  0
 12 10  1  0
 14 17  1  0
 14  5  1  0
 15 14  1  0
 16 14  1  0
 18 19  1  0
 19 20  1  0
 21 19  1  0
 22 19  1  0
  2 23  1  0
  9 24  1  0
 12 25  1  0
 12 26  1  0
M  ISO  1  23  14
M  END
>  <minimizedAffinity>  (1) 
-5.84729862

>  <minimizedRMSD>  (1) 
2.20836377

$$$$
