
     RDKit          3D

 26 27  0  0  0  0  0  0  0  0999 V2000
   35.2260   30.1650   47.9190 C   0  0  0  0  0  0  0  0  0  0  0  0
   36.0490   30.8110   48.9100 C   0  0  0  0  0  0  0  0  0  0  0  0
   37.2470   31.3610   48.4940 C   0  0  0  0  0  0  0  0  0  0  0  0
   37.5710   31.2560   47.1780 N   0  0  0  0  0  0  0  0  0  0  0  0
   36.7880   30.6500   46.2730 C   0  0  0  0  0  0  0  0  0  0  0  0
   35.6350   30.1140   46.6410 N   0  0  0  0  0  0  0  0  0  0  0  0
   37.3060   30.6350   44.8870 C   0  0  0  0  0  0  0  0  0  0  0  0
   37.3490   31.9310   44.3700 F   0  0  0  0  0  0  0  0  0  0  0  0
   38.6090   30.1720   44.8800 F   0  0  0  0  0  0  0  0  0  0  0  0
   36.5790   29.7970   44.0580 F   0  0  0  0  0  0  0  0  0  0  0  0
   38.1360   32.0350   49.4490 C   0  0  0  0  0  0  0  0  0  0  0  0
   38.6890   31.3390   50.3450 O   0  0  0  0  0  0  0  0  0  0  0  0
   38.3750   33.4990   49.3580 C   0  0  0  0  0  0  0  0  0  0  0  0
   39.5680   34.0740   49.9900 C   0  0  0  0  0  0  0  0  0  0  0  0
   39.5370   33.9830   48.5170 C   0  0  0  0  0  0  0  0  0  0  0  0
   34.0270   29.6160   48.3400 O   0  0  0  0  0  0  0  0  0  0  0  0
   33.8820   28.8030   49.4630 C   0  0  0  0  0  0  0  0  0  0  0  0
   34.8790   27.8390   49.5670 F   0  0  0  0  0  0  0  0  0  0  0  0
   33.7320   29.4770   50.6350 F   0  0  0  0  0  0  0  0  0  0  0  0
   32.6830   28.1000   49.2510 F   0  0  0  0  0  0  0  0  0  0  0  0
   35.7343   30.8646   49.9627 H   0  0  0  0  0  0  0  0  0  0  0  0
   37.2959   33.7069   49.4063 H   0  0  0  0  0  0  0  0  0  0  0  0
   39.5057   35.0587   50.4763 H   0  0  0  0  0  0  0  0  0  0  0  0
   40.2675   33.7271   50.7648 H   0  0  0  0  0  0  0  0  0  0  0  0
   40.1801   33.2603   47.9936 H   0  0  0  0  0  0  0  0  0  0  0  0
   39.6622   34.6904   47.6840 H   0  0  0  0  0  0  0  0  0  0  0  0
  1 16  1  0
  1  2  2  0
  3  2  1  0
  3 11  1  0
  4  3  2  0
  5  6  2  0
  5  4  1  0
  6  1  1  0
  7  5  1  0
  8  7  1  0
  9  7  1  0
 10  7  1  0
 11 12  2  0
 13 11  1  0
 13 14  1  0
 15 13  1  0
 15 14  1  0
 16 17  1  0
 17 18  1  0
 17 19  1  0
 20 17  1  0
  2 21  1  0
 13 22  1  0
 14 23  1  0
 14 24  1  0
 15 25  1  0
 15 26  1  0
M  ISO  6  21  14  22  13  23  13  24  13  25  13  26  13
M  END
>  <minimizedAffinity>  (1) 
-5.56591082

>  <minimizedRMSD>  (1) 
2.29700112

$$$$
