
     RDKit          3D

 28 29  0  0  0  0  0  0  0  0999 V2000
   36.3220   29.9450   48.4990 C   0  0  0  0  0  0  0  0  0  0  0  0
   37.4780   30.6940   48.0880 C   0  0  0  0  0  0  0  0  0  0  0  0
   37.5590   31.1080   46.7610 C   0  0  0  0  0  0  0  0  0  0  0  0
   36.5270   30.7700   45.9470 N   0  0  0  0  0  0  0  0  0  0  0  0
   35.4650   30.0750   46.3510 C   0  0  0  0  0  0  0  0  0  0  0  0
   35.3640   29.6710   47.6010 N   0  0  0  0  0  0  0  0  0  0  0  0
   34.4460   29.8090   45.3040 C   0  0  0  0  0  0  0  0  0  0  0  0
   33.2860   30.5550   45.5520 F   0  0  0  0  0  0  0  0  0  0  0  0
   34.9170   30.2270   44.0790 F   0  0  0  0  0  0  0  0  0  0  0  0
   34.1480   28.4590   45.1840 F   0  0  0  0  0  0  0  0  0  0  0  0
   38.7050   31.8660   46.2960 C   0  0  0  0  0  0  0  0  0  0  0  0
   39.3590   32.5550   47.1090 O   0  0  0  0  0  0  0  0  0  0  0  0
   39.1420   31.8660   44.9020 C   0  0  0  0  0  0  0  0  0  0  0  0
   39.8960   30.7980   44.4630 C   0  0  0  0  0  0  0  0  0  0  0  0
   40.3500   30.7210   43.1530 C   0  0  0  0  0  0  0  0  0  0  0  0
   40.0120   31.7620   42.3130 C   0  0  0  0  0  0  0  0  0  0  0  0
   39.2550   32.8360   42.7500 C   0  0  0  0  0  0  0  0  0  0  0  0
   38.8370   32.8600   44.0430 N   0  0  0  0  0  0  0  0  0  0  0  0
   36.2520   29.5400   49.8130 O   0  0  0  0  0  0  0  0  0  0  0  0
   35.0760   29.3120   50.5090 C   0  0  0  0  0  0  0  0  0  0  0  0
   35.2670   29.1510   51.8740 F   0  0  0  0  0  0  0  0  0  0  0  0
   34.0830   30.2190   50.2610 F   0  0  0  0  0  0  0  0  0  0  0  0
   34.6110   28.0640   50.0350 F   0  0  0  0  0  0  0  0  0  0  0  0
   38.2782   30.9340   48.8036 H   0  0  0  0  0  0  0  0  0  0  0  0
   40.1433   29.9891   45.1663 H   0  0  0  0  0  0  0  0  0  0  0  0
   40.9512   29.8696   42.8013 H   0  0  0  0  0  0  0  0  0  0  0  0
   40.3532   31.7382   41.2675 H   0  0  0  0  0  0  0  0  0  0  0  0
   38.9966   33.6552   42.0629 H   0  0  0  0  0  0  0  0  0  0  0  0
  1 19  1  0
  2  1  2  0
  3  2  1  0
  4  5  1  0
  4  3  2  0
  5  6  2  0
  6  1  1  0
  7  8  1  0
  7  5  1  0
  9  7  1  0
 10  7  1  0
 11  3  1  0
 11 12  2  0
 13 11  1  0
 14 13  2  0
 15 14  1  0
 16 17  1  0
 16 15  2  0
 17 18  2  0
 18 13  1  0
 19 20  1  0
 20 21  1  0
 22 20  1  0
 23 20  1  0
  2 24  1  0
 14 25  1  0
 15 26  1  0
 16 27  1  0
 17 28  1  0
M  ISO  5  24  14  25  14  26  14  27  14  28  14
M  END
>  <minimizedAffinity>  (1) 
-5.4643364

>  <minimizedRMSD>  (1) 
3.98784566

$$$$
