
     RDKit          3D

 29 30  0  0  0  0  0  0  0  0999 V2000
   39.1530   32.2490   46.0350 C   0  0  0  0  0  0  0  0  0  0  0  0
   37.7640   32.5660   49.5560 C   0  0  0  0  0  0  0  0  0  0  0  0
   38.5720   32.8100   48.4410 C   0  0  0  0  0  0  0  0  0  0  0  0
   38.3670   32.0830   47.2740 C   0  0  0  0  0  0  0  0  0  0  0  0
   37.3660   31.1500   47.2820 N   0  0  0  0  0  0  0  0  0  0  0  0
   36.5960   30.9280   48.3660 C   0  0  0  0  0  0  0  0  0  0  0  0
   36.7800   31.6180   49.4960 N   0  0  0  0  0  0  0  0  0  0  0  0
   39.9070   30.9280   45.8220 C   0  0  0  0  0  0  0  0  0  0  0  0
   40.1370   33.3660   46.0790 C   0  0  0  0  0  0  0  0  0  0  0  0
   38.2040   32.4650   44.8990 C   0  0  0  0  0  0  0  0  0  0  0  0
   38.6620   31.8220   43.6270 C   0  0  0  0  0  0  0  0  0  0  0  0
   39.5000   32.5720   42.7280 C   0  0  0  0  0  0  0  0  0  0  0  0
   39.7580   31.3640   41.3910 S   0  0  0  0  0  0  0  0  0  0  0  0
   38.6950   30.0620   42.2710 C   0  0  0  0  0  0  0  0  0  0  0  0
   38.3770   30.6030   43.2220 N   0  0  0  0  0  0  0  0  0  0  0  0
   38.2960   28.6660   41.9310 O   0  0  0  0  0  0  0  0  0  0  0  0
   37.9201   33.1375   50.4828 H   0  0  0  0  0  0  0  0  0  0  0  0
   39.3642   33.5718   48.4871 H   0  0  0  0  0  0  0  0  0  0  0  0
   35.8034   30.1667   48.3199 H   0  0  0  0  0  0  0  0  0  0  0  0
   40.1583   30.4877   46.7982 H   0  0  0  0  0  0  0  0  0  0  0  0
   39.2713   30.2299   45.2576 H   0  0  0  0  0  0  0  0  0  0  0  0
   40.8314   31.1203   45.2576 H   0  0  0  0  0  0  0  0  0  0  0  0
   40.3590   33.6180   47.1265 H   0  0  0  0  0  0  0  0  0  0  0  0
   41.0633   33.0588   45.5715 H   0  0  0  0  0  0  0  0  0  0  0  0
   39.7155   34.2462   45.5715 H   0  0  0  0  0  0  0  0  0  0  0  0
   37.2261   32.0427   45.1735 H   0  0  0  0  0  0  0  0  0  0  0  0
   38.1460   33.5486   44.7188 H   0  0  0  0  0  0  0  0  0  0  0  0
   39.8818   33.5992   42.8235 H   0  0  0  0  0  0  0  0  0  0  0  0
   37.7195   28.1513   42.5497 H   0  0  0  0  0  0  0  0  0  0  0  0
  1  9  1  0
  1  4  1  0
  3  2  2  0
  4  5  2  0
  4  3  1  0
  5  6  1  0
  6  7  2  0
  7  2  1  0
  8  1  1  0
 10  1  1  0
 11 10  1  0
 12 11  2  0
 13 14  1  0
 13 12  1  0
 14 15  2  0
 15 11  1  0
 16 14  1  0
  2 17  1  0
  3 18  1  0
  6 19  1  0
  8 20  1  0
  8 21  1  0
  8 22  1  0
  9 23  1  0
  9 24  1  0
  9 25  1  0
 10 26  1  0
 10 27  1  0
 12 28  1  0
 16 29  1  0
M  ISO  8  17  14  18  14  19  14  20   8  21   8  22   8  23   8  24   8
M  ISO  5  25   8  26   8  27   8  28  14  29   3
M  END
>  <minimizedAffinity>  (1) 
-4.58142376

>  <minimizedRMSD>  (1) 
0.0129122753

$$$$
