
     RDKit          3D

 27 28  0  0  0  0  0  0  0  0999 V2000
   36.3550   29.9400   48.5470 C   0  0  0  0  0  0  0  0  0  0  0  0
   37.4840   30.7260   48.1570 C   0  0  0  0  0  0  0  0  0  0  0  0
   37.5700   31.1540   46.8380 C   0  0  0  0  0  0  0  0  0  0  0  0
   36.5670   30.7960   45.9960 N   0  0  0  0  0  0  0  0  0  0  0  0
   35.5150   30.0570   46.3860 C   0  0  0  0  0  0  0  0  0  0  0  0
   35.4150   29.6390   47.6400 N   0  0  0  0  0  0  0  0  0  0  0  0
   34.5200   29.7680   45.3240 C   0  0  0  0  0  0  0  0  0  0  0  0
   35.0750   29.9940   44.0600 F   0  0  0  0  0  0  0  0  0  0  0  0
   34.1800   28.4310   45.3620 F   0  0  0  0  0  0  0  0  0  0  0  0
   33.3410   30.4900   45.4870 F   0  0  0  0  0  0  0  0  0  0  0  0
   38.7000   31.9540   46.3940 C   0  0  0  0  0  0  0  0  0  0  0  0
   39.2920   32.6870   47.2130 O   0  0  0  0  0  0  0  0  0  0  0  0
   39.1710   31.9300   45.0120 C   0  0  0  0  0  0  0  0  0  0  0  0
   40.0070   30.8960   44.6470 C   0  0  0  0  0  0  0  0  0  0  0  0
   40.4590   30.8680   43.3350 C   0  0  0  0  0  0  0  0  0  0  0  0
   40.0930   31.8160   42.4460 N   0  0  0  0  0  0  0  0  0  0  0  0
   39.2670   32.8170   42.8460 C   0  0  0  0  0  0  0  0  0  0  0  0
   38.8110   32.8720   44.1190 N   0  0  0  0  0  0  0  0  0  0  0  0
   36.2680   29.5140   49.8570 O   0  0  0  0  0  0  0  0  0  0  0  0
   35.0670   29.3060   50.5350 C   0  0  0  0  0  0  0  0  0  0  0  0
   35.2260   29.1550   51.9000 F   0  0  0  0  0  0  0  0  0  0  0  0
   34.0800   30.2200   50.2690 F   0  0  0  0  0  0  0  0  0  0  0  0
   34.6050   28.0610   50.0580 F   0  0  0  0  0  0  0  0  0  0  0  0
   38.2668   30.9859   48.8848 H   0  0  0  0  0  0  0  0  0  0  0  0
   40.3048   30.1216   45.3692 H   0  0  0  0  0  0  0  0  0  0  0  0
   41.1289   30.0571   43.0130 H   0  0  0  0  0  0  0  0  0  0  0  0
   38.9650   33.5924   42.1266 H   0  0  0  0  0  0  0  0  0  0  0  0
  1 19  1  0
  2  1  2  0
  3  2  1  0
  4  5  1  0
  4  3  2  0
  5  6  2  0
  6  1  1  0
  7  9  1  0
  7 10  1  0
  7  5  1  0
  8  7  1  0
 11  3  1  0
 11 12  2  0
 13 11  1  0
 14 13  2  0
 15 14  1  0
 16 17  1  0
 16 15  2  0
 17 18  2  0
 18 13  1  0
 19 20  1  0
 20 21  1  0
 22 20  1  0
 23 20  1  0
  2 24  1  0
 14 25  1  0
 15 26  1  0
 17 27  1  0
M  ISO  4  24  14  25  14  26  14  27  14
M  END
>  <minimizedAffinity>  (1) 
-5.46149111

>  <minimizedRMSD>  (1) 
3.88874602

$$$$
