
     RDKit          3D

 32 33  0  0  0  0  0  0  0  0999 V2000
   35.0330   29.4040   48.0100 C   0  0  0  0  0  0  0  0  0  0  0  0
   36.3180   30.0400   48.0790 C   0  0  0  0  0  0  0  0  0  0  0  0
   36.8610   30.5570   46.9010 C   0  0  0  0  0  0  0  0  0  0  0  0
   36.1190   30.4200   45.7580 N   0  0  0  0  0  0  0  0  0  0  0  0
   34.9230   29.8230   45.7240 C   0  0  0  0  0  0  0  0  0  0  0  0
   34.3880   29.3230   46.8300 N   0  0  0  0  0  0  0  0  0  0  0  0
   34.2750   29.7710   44.3950 C   0  0  0  0  0  0  0  0  0  0  0  0
   34.1740   31.0600   43.8550 F   0  0  0  0  0  0  0  0  0  0  0  0
   35.0580   29.0690   43.5200 F   0  0  0  0  0  0  0  0  0  0  0  0
   33.0400   29.1470   44.4280 F   0  0  0  0  0  0  0  0  0  0  0  0
   38.1560   31.2110   46.9070 C   0  0  0  0  0  0  0  0  0  0  0  0
   38.6080   31.6290   48.0040 O   0  0  0  0  0  0  0  0  0  0  0  0
   38.9140   31.3690   45.6170 C   0  0  0  0  0  0  0  0  0  0  0  0
   40.3790   31.2010   45.8310 C   0  0  0  0  0  0  0  0  0  0  0  0
   41.1180   32.3010   45.1460 C   0  0  0  0  0  0  0  0  0  0  0  0
   40.0890   33.3490   44.8630 C   0  0  0  0  0  0  0  0  0  0  0  0
   38.7420   32.7120   44.9920 C   0  0  0  0  0  0  0  0  0  0  0  0
   34.5060   28.8960   49.1750 O   0  0  0  0  0  0  0  0  0  0  0  0
   34.2670   29.6380   50.3270 C   0  0  0  0  0  0  0  0  0  0  0  0
   35.0940   29.3000   51.3850 F   0  0  0  0  0  0  0  0  0  0  0  0
   34.2740   30.9880   50.1360 F   0  0  0  0  0  0  0  0  0  0  0  0
   32.9560   29.2780   50.7230 F   0  0  0  0  0  0  0  0  0  0  0  0
   36.8598   30.1179   49.0331 H   0  0  0  0  0  0  0  0  0  0  0  0
   38.5004   30.5932   44.9559 H   0  0  0  0  0  0  0  0  0  0  0  0
   40.5966   31.2305   46.9089 H   0  0  0  0  0  0  0  0  0  0  0  0
   40.6987   30.2341   45.4153 H   0  0  0  0  0  0  0  0  0  0  0  0
   41.9065   32.7015   45.8001 H   0  0  0  0  0  0  0  0  0  0  0  0
   41.6135   31.9533   44.2276 H   0  0  0  0  0  0  0  0  0  0  0  0
   40.2226   33.7391   43.8432 H   0  0  0  0  0  0  0  0  0  0  0  0
   40.1880   34.1861   45.5697 H   0  0  0  0  0  0  0  0  0  0  0  0
   38.0950   33.3364   45.6256 H   0  0  0  0  0  0  0  0  0  0  0  0
   38.2756   32.6106   44.0010 H   0  0  0  0  0  0  0  0  0  0  0  0
  1  2  2  0
  1 18  1  0
  3 11  1  0
  3  2  1  0
  4  3  2  0
  5  4  1  0
  5  6  2  0
  6  1  1  0
  7 10  1  0
  7  5  1  0
  8  7  1  0
  9  7  1  0
 11 12  2  0
 13 14  1  0
 13 11  1  0
 15 14  1  0
 16 17  1  0
 16 15  1  0
 17 13  1  0
 18 19  1  0
 19 22  1  0
 19 20  1  0
 21 19  1  0
  2 23  1  0
 13 24  1  0
 14 25  1  0
 14 26  1  0
 15 27  1  0
 15 28  1  0
 16 29  1  0
 16 30  1  0
 17 31  1  0
 17 32  1  0
M  ISO  8  23  14  24  13  25  13  26  13  27  13  28  13  29  13  30  13
M  ISO  2  31  13  32  13
M  END
>  <minimizedAffinity>  (1) 
-5.26216173

>  <minimizedRMSD>  (1) 
3.72620988

$$$$
