
     RDKit          3D

 35 36  0  0  0  0  0  0  0  0999 V2000
   33.7390   28.4180   47.8080 C   0  0  0  0  0  0  0  0  0  0  0  0
   34.7400   29.1750   48.5280 C   0  0  0  0  0  0  0  0  0  0  0  0
   35.5120   30.0620   47.7970 C   0  0  0  0  0  0  0  0  0  0  0  0
   35.2810   30.1660   46.4650 N   0  0  0  0  0  0  0  0  0  0  0  0
   34.3450   29.4510   45.8220 C   0  0  0  0  0  0  0  0  0  0  0  0
   33.5910   28.5920   46.5000 N   0  0  0  0  0  0  0  0  0  0  0  0
   34.2320   29.6920   44.3700 C   0  0  0  0  0  0  0  0  0  0  0  0
   34.8800   30.8960   44.0300 F   0  0  0  0  0  0  0  0  0  0  0  0
   34.9160   28.7020   43.6870 F   0  0  0  0  0  0  0  0  0  0  0  0
   32.9240   29.6880   43.9200 F   0  0  0  0  0  0  0  0  0  0  0  0
   36.5400   30.8570   48.4570 C   0  0  0  0  0  0  0  0  0  0  0  0
   36.2550   31.5370   49.4610 O   0  0  0  0  0  0  0  0  0  0  0  0
   37.9530   30.9690   48.0670 C   0  0  0  0  0  0  0  0  0  0  0  0
   38.0160   30.6030   46.5800 C   0  0  0  0  0  0  0  0  0  0  0  0
   37.8700   31.8620   45.7280 C   0  0  0  0  0  0  0  0  0  0  0  0
   39.1120   32.7440   45.8850 C   0  0  0  0  0  0  0  0  0  0  0  0
   39.6320   32.5500   47.2910 C   0  0  0  0  0  0  0  0  0  0  0  0
   38.4340   32.4190   48.2090 C   0  0  0  0  0  0  0  0  0  0  0  0
   32.9680   27.5320   48.5390 O   0  0  0  0  0  0  0  0  0  0  0  0
   31.5990   27.6510   48.7460 C   0  0  0  0  0  0  0  0  0  0  0  0
   31.2790   28.2250   49.9700 F   0  0  0  0  0  0  0  0  0  0  0  0
   30.9250   28.2750   47.7340 F   0  0  0  0  0  0  0  0  0  0  0  0
   31.1170   26.3310   48.7890 F   0  0  0  0  0  0  0  0  0  0  0  0
   34.8819   29.0509   49.6117 H   0  0  0  0  0  0  0  0  0  0  0  0
   38.5779   30.3198   48.6979 H   0  0  0  0  0  0  0  0  0  0  0  0
   38.9829   30.1256   46.3626 H   0  0  0  0  0  0  0  0  0  0  0  0
   37.1966   29.9084   46.3430 H   0  0  0  0  0  0  0  0  0  0  0  0
   36.9812   32.4221   46.0541 H   0  0  0  0  0  0  0  0  0  0  0  0
   37.7611   31.5742   44.6719 H   0  0  0  0  0  0  0  0  0  0  0  0
   39.8796   32.4450   45.1560 H   0  0  0  0  0  0  0  0  0  0  0  0
   38.8622   33.8003   45.7065 H   0  0  0  0  0  0  0  0  0  0  0  0
   40.2448   31.6379   47.3417 H   0  0  0  0  0  0  0  0  0  0  0  0
   40.2579   33.4029   47.5923 H   0  0  0  0  0  0  0  0  0  0  0  0
   37.6403   33.1171   47.9045 H   0  0  0  0  0  0  0  0  0  0  0  0
   38.6948   32.6582   49.2505 H   0  0  0  0  0  0  0  0  0  0  0  0
  1  2  2  0
  1 19  1  0
  3 11  1  0
  3  2  1  0
  4  3  2  0
  5  4  1  0
  5  6  2  0
  6  1  1  0
  7  5  1  0
  8  7  1  0
  9  7  1  0
 10  7  1  0
 11 12  2  0
 13 18  1  0
 13 11  1  0
 14 13  1  0
 15 16  1  0
 15 14  1  0
 16 17  1  0
 17 18  1  0
 19 20  1  0
 20 23  1  0
 20 21  1  0
 22 20  1  0
  2 24  1  0
 13 25  1  0
 14 26  1  0
 14 27  1  0
 15 28  1  0
 15 29  1  0
 16 30  1  0
 16 31  1  0
 17 32  1  0
 17 33  1  0
 18 34  1  0
 18 35  1  0
M  ISO  8  24  14  25  13  26  13  27  13  28  13  29  13  30  13  31  13
M  ISO  4  32  13  33  13  34  13  35  13
M  END
>  <minimizedAffinity>  (1) 
-4.99728727

>  <minimizedRMSD>  (1) 
4.85254097

$$$$
