
     RDKit          3D

 32 33  0  0  0  0  0  0  0  0999 V2000
   34.9550   29.4100   48.0580 C   0  0  0  0  0  0  0  0  0  0  0  0
   36.2350   30.0450   48.1940 C   0  0  0  0  0  0  0  0  0  0  0  0
   36.8340   30.5790   47.0510 C   0  0  0  0  0  0  0  0  0  0  0  0
   36.1560   30.4580   45.8860 N   0  0  0  0  0  0  0  0  0  0  0  0
   34.9640   29.8610   45.7890 C   0  0  0  0  0  0  0  0  0  0  0  0
   34.3790   29.3500   46.8540 N   0  0  0  0  0  0  0  0  0  0  0  0
   38.1300   31.2290   47.1500 C   0  0  0  0  0  0  0  0  0  0  0  0
   38.5780   31.5620   48.2690 O   0  0  0  0  0  0  0  0  0  0  0  0
   38.9820   31.5380   46.0520 N   0  0  0  0  0  0  0  0  0  0  0  0
   39.1540   30.4910   45.0620 C   0  0  0  0  0  0  0  0  0  0  0  0
   40.3590   30.7420   44.1860 C   0  0  0  0  0  0  0  0  0  0  0  0
   41.3280   31.3500   44.9900 O   0  0  0  0  0  0  0  0  0  0  0  0
   40.9250   32.7000   45.0980 C   0  0  0  0  0  0  0  0  0  0  0  0
   39.6580   32.8280   45.9040 C   0  0  0  0  0  0  0  0  0  0  0  0
   34.3800   29.8270   44.4250 C   0  0  0  0  0  0  0  0  0  0  0  0
   34.3130   31.1210   43.8950 F   0  0  0  0  0  0  0  0  0  0  0  0
   35.2160   29.1210   43.5810 F   0  0  0  0  0  0  0  0  0  0  0  0
   33.1450   29.2010   44.3870 F   0  0  0  0  0  0  0  0  0  0  0  0
   34.3780   28.8890   49.1990 O   0  0  0  0  0  0  0  0  0  0  0  0
   34.1650   29.5990   50.3720 C   0  0  0  0  0  0  0  0  0  0  0  0
   34.9920   29.2030   51.4160 F   0  0  0  0  0  0  0  0  0  0  0  0
   34.1930   30.9540   50.2320 F   0  0  0  0  0  0  0  0  0  0  0  0
   32.8530   29.2590   50.7610 F   0  0  0  0  0  0  0  0  0  0  0  0
   36.7315   30.1094   49.1735 H   0  0  0  0  0  0  0  0  0  0  0  0
   39.2838   29.5290   45.5795 H   0  0  0  0  0  0  0  0  0  0  0  0
   38.2608   30.4763   44.4201 H   0  0  0  0  0  0  0  0  0  0  0  0
   40.0884   31.4066   43.3523 H   0  0  0  0  0  0  0  0  0  0  0  0
   40.7368   29.8016   43.7583 H   0  0  0  0  0  0  0  0  0  0  0  0
   41.7233   33.2744   45.5908 H   0  0  0  0  0  0  0  0  0  0  0  0
   40.7351   33.0887   44.0866 H   0  0  0  0  0  0  0  0  0  0  0  0
   39.9075   33.2171   46.9022 H   0  0  0  0  0  0  0  0  0  0  0  0
   38.9802   33.5133   45.3739 H   0  0  0  0  0  0  0  0  0  0  0  0
  1  2  2  0
  1 19  1  0
  3  7  1  0
  3  2  1  0
  4  3  2  0
  5  4  1  0
  5  6  2  0
  6  1  1  0
  7  8  2  0
  9  7  1  0
 10  9  1  0
 11 12  1  0
 11 10  1  0
 12 13  1  0
 13 14  1  0
 14  9  1  0
 15  5  1  0
 16 15  1  0
 17 15  1  0
 18 15  1  0
 19 20  1  0
 20 23  1  0
 20 21  1  0
 22 20  1  0
  2 24  1  0
 10 25  1  0
 10 26  1  0
 11 27  1  0
 11 28  1  0
 13 29  1  0
 13 30  1  0
 14 31  1  0
 14 32  1  0
M  ISO  8  24  14  25  13  26  13  27  13  28  13  29  13  30  13  31  13
M  ISO  1  32  13
M  END
>  <minimizedAffinity>  (1) 
-5.18375778

>  <minimizedRMSD>  (1) 
4.04158783

$$$$
