
     RDKit          3D

 35 36  0  0  1  0  0  0  0  0999 V2000
   38.4580   31.5800   46.0580 C   0  0  0  0  0  0  0  0  0  0  0  0
   39.0560   32.5900   46.4920 O   0  0  0  0  0  0  0  0  0  0  0  0
   38.7860   31.2170   44.7170 N   0  0  0  0  0  0  0  0  0  0  0  0
   39.0230   29.8100   44.4690 C   0  0  0  0  0  0  0  0  0  0  0  0
   39.7600   29.5860   43.1700 C   0  0  0  0  0  0  0  0  0  0  0  0
   40.6260   30.6670   42.9940 O   0  0  0  0  0  0  0  0  0  0  0  0
   39.8080   31.7260   42.5450 C   0  0  0  0  0  0  0  0  0  0  0  0
   38.8840   32.2000   43.6420 C   0  0  1  0  0  0  0  0  0  0  0  0
   36.9490   29.7350   48.9880 C   0  0  0  0  0  0  0  0  0  0  0  0
   37.9100   30.4310   48.1790 C   0  0  0  0  0  0  0  0  0  0  0  0
   37.5150   30.8740   46.9030 C   0  0  0  0  0  0  0  0  0  0  0  0
   36.2410   30.6090   46.5310 N   0  0  0  0  0  0  0  0  0  0  0  0
   35.3670   29.9540   47.3190 C   0  0  0  0  0  0  0  0  0  0  0  0
   35.7210   29.5300   48.5190 N   0  0  0  0  0  0  0  0  0  0  0  0
   34.0120   29.7590   46.7290 C   0  0  0  0  0  0  0  0  0  0  0  0
   33.2440   30.9150   46.8790 F   0  0  0  0  0  0  0  0  0  0  0  0
   34.1370   29.5640   45.3670 F   0  0  0  0  0  0  0  0  0  0  0  0
   33.3630   28.6510   47.2540 F   0  0  0  0  0  0  0  0  0  0  0  0
   37.3710   29.3150   50.2330 O   0  0  0  0  0  0  0  0  0  0  0  0
   36.9540   29.8480   51.4380 C   0  0  0  0  0  0  0  0  0  0  0  0
   35.7020   29.4030   51.8410 F   0  0  0  0  0  0  0  0  0  0  0  0
   37.8440   29.7030   52.4580 F   0  0  0  0  0  0  0  0  0  0  0  0
   36.8280   31.2270   51.2000 F   0  0  0  0  0  0  0  0  0  0  0  0
   37.5360   32.6100   43.1440 C   0  0  0  0  0  0  0  0  0  0  0  0
   39.6231   29.3991   45.2943 H   0  0  0  0  0  0  0  0  0  0  0  0
   38.0478   29.3059   44.4002 H   0  0  0  0  0  0  0  0  0  0  0  0
   40.3330   28.6483   43.2188 H   0  0  0  0  0  0  0  0  0  0  0  0
   39.0547   29.5103   42.3293 H   0  0  0  0  0  0  0  0  0  0  0  0
   40.4464   32.5630   42.2259 H   0  0  0  0  0  0  0  0  0  0  0  0
   39.1972   31.3645   41.7046 H   0  0  0  0  0  0  0  0  0  0  0  0
   39.3411   33.1113   44.0552 H   0  0  0  0  0  0  0  0  0  0  0  0
   38.9302   30.6134   48.5478 H   0  0  0  0  0  0  0  0  0  0  0  0
   36.8746   32.8112   43.9996 H   0  0  0  0  0  0  0  0  0  0  0  0
   37.6319   33.5196   42.5329 H   0  0  0  0  0  0  0  0  0  0  0  0
   37.1092   31.8010   42.5329 H   0  0  0  0  0  0  0  0  0  0  0  0
  1  2  2  0
  1 11  1  0
  3  1  1  0
  4  3  1  0
  5  4  1  0
  6  5  1  0
  7  6  1  0
  7  8  1  0
  8  3  1  0
  9 19  1  0
 10  9  2  0
 11 10  1  0
 12 11  2  0
 12 13  1  0
 13 14  2  0
 14  9  1  0
 15 16  1  0
 15 18  1  0
 15 13  1  0
 17 15  1  0
 19 20  1  0
 20 21  1  0
 20 22  1  0
 23 20  1  0
 24  8  1  0
  4 25  1  0
  4 26  1  0
  5 27  1  0
  5 28  1  0
  7 29  1  0
  7 30  1  0
  8 31  1  1
 10 32  1  0
 24 33  1  0
 24 34  1  0
 24 35  1  0
M  ISO  8  25  13  26  13  27  13  28  13  29  13  30  13  31  13  32  14
M  ISO  3  33   8  34   8  35   8
M  END
>  <minimizedAffinity>  (1) 
-6.34539604

>  <minimizedRMSD>  (1) 
2.45017362

$$$$
