
     RDKit          3D

 38 39  0  0  1  0  0  0  0  0999 V2000
   38.4500   31.5940   46.0910 C   0  0  0  0  0  0  0  0  0  0  0  0
   39.0570   32.6010   46.5420 O   0  0  0  0  0  0  0  0  0  0  0  0
   38.7810   31.2740   44.7480 N   0  0  0  0  0  0  0  0  0  0  0  0
   39.0230   29.8640   44.4880 C   0  0  0  0  0  0  0  0  0  0  0  0
   39.7620   29.6490   43.1900 C   0  0  0  0  0  0  0  0  0  0  0  0
   40.6120   30.7370   43.0140 O   0  0  0  0  0  0  0  0  0  0  0  0
   39.7950   31.8050   42.5820 C   0  0  0  0  0  0  0  0  0  0  0  0
   38.8820   32.2580   43.6840 C   0  0  1  0  0  0  0  0  0  0  0  0
   36.9590   29.7280   48.9990 C   0  0  0  0  0  0  0  0  0  0  0  0
   37.9210   30.4350   48.1960 C   0  0  0  0  0  0  0  0  0  0  0  0
   37.5090   30.8770   46.9340 C   0  0  0  0  0  0  0  0  0  0  0  0
   36.2440   30.6080   46.5620 N   0  0  0  0  0  0  0  0  0  0  0  0
   35.3770   29.9510   47.3310 C   0  0  0  0  0  0  0  0  0  0  0  0
   35.7260   29.5210   48.5210 N   0  0  0  0  0  0  0  0  0  0  0  0
   34.0250   29.7540   46.7430 C   0  0  0  0  0  0  0  0  0  0  0  0
   33.2590   30.9230   46.9020 F   0  0  0  0  0  0  0  0  0  0  0  0
   34.1380   29.5610   45.3780 F   0  0  0  0  0  0  0  0  0  0  0  0
   33.3790   28.6450   47.2550 F   0  0  0  0  0  0  0  0  0  0  0  0
   37.3710   29.2960   50.2410 O   0  0  0  0  0  0  0  0  0  0  0  0
   36.9530   29.8340   51.4560 C   0  0  0  0  0  0  0  0  0  0  0  0
   35.7040   29.4040   51.8570 F   0  0  0  0  0  0  0  0  0  0  0  0
   37.8500   29.6890   52.4730 F   0  0  0  0  0  0  0  0  0  0  0  0
   36.8370   31.2230   51.2150 F   0  0  0  0  0  0  0  0  0  0  0  0
   37.5310   32.6400   43.1310 C   0  0  0  0  0  0  0  0  0  0  0  0
   37.6430   33.0620   41.6900 C   0  0  0  0  0  0  0  0  0  0  0  0
   39.6225   29.4485   45.3114 H   0  0  0  0  0  0  0  0  0  0  0  0
   38.0484   29.3595   44.4126 H   0  0  0  0  0  0  0  0  0  0  0  0
   40.3465   28.7184   43.2390 H   0  0  0  0  0  0  0  0  0  0  0  0
   39.0575   29.5645   42.3495 H   0  0  0  0  0  0  0  0  0  0  0  0
   40.4338   32.6460   42.2744 H   0  0  0  0  0  0  0  0  0  0  0  0
   39.1822   31.4600   41.7362 H   0  0  0  0  0  0  0  0  0  0  0  0
   39.3234   33.1566   44.1398 H   0  0  0  0  0  0  0  0  0  0  0  0
   38.9420   30.6211   48.5605 H   0  0  0  0  0  0  0  0  0  0  0  0
   36.8546   31.7754   43.2021 H   0  0  0  0  0  0  0  0  0  0  0  0
   37.1364   33.4839   43.7159 H   0  0  0  0  0  0  0  0  0  0  0  0
   37.9249   34.1241   41.6398 H   0  0  0  0  0  0  0  0  0  0  0  0
   38.4111   32.4547   41.1887 H   0  0  0  0  0  0  0  0  0  0  0  0
   36.6749   32.9155   41.1887 H   0  0  0  0  0  0  0  0  0  0  0  0
  1  2  2  0
  1 11  1  0
  3  1  1  0
  4  3  1  0
  5  4  1  0
  6  5  1  0
  7  6  1  0
  7  8  1  0
  8  3  1  0
  9 19  1  0
 10  9  2  0
 11 10  1  0
 12 11  2  0
 12 13  1  0
 13 14  2  0
 14  9  1  0
 15 16  1  0
 15 18  1  0
 15 13  1  0
 17 15  1  0
 19 20  1  0
 20 21  1  0
 20 22  1  0
 23 20  1  0
 24  8  1  0
 25 24  1  0
  4 26  1  0
  4 27  1  0
  5 28  1  0
  5 29  1  0
  7 30  1  0
  7 31  1  0
  8 32  1  1
 10 33  1  0
 24 34  1  0
 24 35  1  0
 25 36  1  0
 25 37  1  0
 25 38  1  0
M  ISO  8  26  13  27  13  28  13  29  13  30  13  31  13  32  13  33  14
M  ISO  5  34   8  35   8  36   8  37   8  38   8
M  END
>  <minimizedAffinity>  (1) 
-6.20676041

>  <minimizedRMSD>  (1) 
2.59008217

$$$$
