
     RDKit          3D

 46 49  0  0  1  0  0  0  0  0999 V2000
   35.2690   30.1630   44.3620 C   0  0  0  0  0  0  0  0  0  0  0  0
   36.2150   29.5010   43.9150 O   0  0  0  0  0  0  0  0  0  0  0  0
   34.9640   31.3180   43.6160 N   0  0  0  0  0  0  0  0  0  0  0  0
   33.5470   31.5640   43.3710 C   0  0  0  0  0  0  0  0  0  0  0  0
   33.3140   32.5800   42.2910 C   0  0  0  0  0  0  0  0  0  0  0  0
   34.3190   32.3900   41.3440 O   0  0  0  0  0  0  0  0  0  0  0  0
   35.4650   33.0190   41.9040 C   0  0  0  0  0  0  0  0  0  0  0  0
   35.9410   32.2460   43.1030 C   0  0  2  0  0  0  0  0  0  0  0  0
   37.3070   31.7450   42.9480 C   0  0  0  0  0  0  0  0  0  0  0  0
   37.8940   31.0740   41.8660 C   0  0  0  0  0  0  0  0  0  0  0  0
   39.1810   30.8200   42.1650 N   0  0  0  0  0  0  0  0  0  0  0  0
   39.4270   31.3050   43.3940 C   0  0  0  0  0  0  0  0  0  0  0  0
   40.6330   31.2330   44.0590 C   0  0  0  0  0  0  0  0  0  0  0  0
   40.7570   31.7620   45.3260 C   0  0  0  0  0  0  0  0  0  0  0  0
   39.6360   32.3500   45.8760 C   0  0  0  0  0  0  0  0  0  0  0  0
   38.4300   32.4210   45.2070 C   0  0  0  0  0  0  0  0  0  0  0  0
   38.2880   31.8980   43.9390 C   0  0  0  0  0  0  0  0  0  0  0  0
   34.5690   29.1420   47.9290 C   0  0  0  0  0  0  0  0  0  0  0  0
   35.2790   29.5970   46.7660 C   0  0  0  0  0  0  0  0  0  0  0  0
   34.5890   29.7050   45.5650 C   0  0  0  0  0  0  0  0  0  0  0  0
   33.2700   29.3680   45.5790 N   0  0  0  0  0  0  0  0  0  0  0  0
   32.6280   28.9470   46.6710 C   0  0  0  0  0  0  0  0  0  0  0  0
   33.2680   28.8390   47.8200 N   0  0  0  0  0  0  0  0  0  0  0  0
   31.1920   28.6280   46.4840 C   0  0  0  0  0  0  0  0  0  0  0  0
   30.4440   29.8180   46.3820 F   0  0  0  0  0  0  0  0  0  0  0  0
   31.0210   27.9660   45.2910 F   0  0  0  0  0  0  0  0  0  0  0  0
   30.6950   27.8060   47.4830 F   0  0  0  0  0  0  0  0  0  0  0  0
   35.2770   29.0430   49.1090 O   0  0  0  0  0  0  0  0  0  0  0  0
   35.2680   30.0070   50.1130 C   0  0  0  0  0  0  0  0  0  0  0  0
   36.5420   30.5190   50.3830 F   0  0  0  0  0  0  0  0  0  0  0  0
   34.3730   31.0200   49.9350 F   0  0  0  0  0  0  0  0  0  0  0  0
   34.8700   29.3100   51.2720 F   0  0  0  0  0  0  0  0  0  0  0  0
   33.0720   30.6178   43.0725 H   0  0  0  0  0  0  0  0  0  0  0  0
   33.1131   31.9614   44.3004 H   0  0  0  0  0  0  0  0  0  0  0  0
   32.3260   32.4269   41.8323 H   0  0  0  0  0  0  0  0  0  0  0  0
   33.3376   33.6026   42.6957 H   0  0  0  0  0  0  0  0  0  0  0  0
   36.2662   33.0534   41.1511 H   0  0  0  0  0  0  0  0  0  0  0  0
   35.2009   34.0407   42.2144 H   0  0  0  0  0  0  0  0  0  0  0  0
   36.0328   32.9618   43.9331 H   0  0  0  0  0  0  0  0  0  0  0  0
   37.3869   30.8008   40.9289 H   0  0  0  0  0  0  0  0  0  0  0  0
   39.8593   30.3380   41.5580 H   0  0  0  0  0  0  0  0  0  0  0  0
   41.4976   30.7526   43.5776 H   0  0  0  0  0  0  0  0  0  0  0  0
   41.7090   31.7174   45.8753 H   0  0  0  0  0  0  0  0  0  0  0  0
   39.7059   32.7788   46.8866 H   0  0  0  0  0  0  0  0  0  0  0  0
   37.5688   32.9025   45.6934 H   0  0  0  0  0  0  0  0  0  0  0  0
   36.3468   29.8545   46.8251 H   0  0  0  0  0  0  0  0  0  0  0  0
  1 20  1  0
  2  1  2  0
  3  1  1  0
  4  3  1  0
  5  4  1  0
  6  7  1  0
  6  5  1  0
  7  8  1  0
  8  3  1  0
  9  8  1  0
  9 17  1  0
 10 11  1  0
 10  9  2  0
 11 12  1  0
 12 17  2  0
 12 13  1  0
 13 14  2  0
 14 15  1  0
 16 15  2  0
 17 16  1  0
 18 28  1  0
 19 18  2  0
 20 21  2  0
 20 19  1  0
 21 22  1  0
 22 23  2  0
 23 18  1  0
 24 22  1  0
 24 27  1  0
 25 24  1  0
 26 24  1  0
 28 29  1  0
 29 30  1  0
 29 32  1  0
 31 29  1  0
  4 33  1  0
  4 34  1  0
  5 35  1  0
  5 36  1  0
  7 37  1  0
  7 38  1  0
  8 39  1  1
 10 40  1  0
 11 41  1  0
 13 42  1  0
 14 43  1  0
 15 44  1  0
 16 45  1  0
 19 46  1  0
M  ISO  8  33  13  34  13  35  13  36  13  37  13  38  13  39  13  40  14
M  ISO  6  41   9  42  14  43  14  44  14  45  14  46  14
M  END
>  <minimizedAffinity>  (1) 
-5.92303801

>  <minimizedRMSD>  (1) 
4.82530165

$$$$
