
     RDKit          3D

 34 35  0  0  1  0  0  0  0  0999 V2000
   37.9310   31.4490   46.9420 C   0  0  0  0  0  0  0  0  0  0  0  0
   38.2730   32.0330   47.9850 O   0  0  0  0  0  0  0  0  0  0  0  0
   38.8160   31.6240   45.8380 N   0  0  0  0  0  0  0  0  0  0  0  0
   39.1390   30.4390   45.0820 C   0  0  0  0  0  0  0  0  0  0  0  0
   40.3700   30.6390   44.2260 C   0  0  0  0  0  0  0  0  0  0  0  0
   41.2270   31.4910   44.9300 O   0  0  0  0  0  0  0  0  0  0  0  0
   40.6800   32.7840   44.7360 C   0  0  0  0  0  0  0  0  0  0  0  0
   39.3790   32.9310   45.4730 C   0  0  2  0  0  0  0  0  0  0  0  0
   34.9870   29.3600   48.0500 C   0  0  0  0  0  0  0  0  0  0  0  0
   36.1910   30.1280   48.1010 C   0  0  0  0  0  0  0  0  0  0  0  0
   36.7060   30.6620   46.9210 C   0  0  0  0  0  0  0  0  0  0  0  0
   36.0090   30.4070   45.7870 N   0  0  0  0  0  0  0  0  0  0  0  0
   34.8870   29.6890   45.7600 C   0  0  0  0  0  0  0  0  0  0  0  0
   34.3960   29.1810   46.8670 N   0  0  0  0  0  0  0  0  0  0  0  0
   34.2690   29.5200   44.4190 C   0  0  0  0  0  0  0  0  0  0  0  0
   34.0510   30.7770   43.8310 F   0  0  0  0  0  0  0  0  0  0  0  0
   35.1420   28.8730   43.5800 F   0  0  0  0  0  0  0  0  0  0  0  0
   33.1050   28.7670   44.4550 F   0  0  0  0  0  0  0  0  0  0  0  0
   34.5060   28.8470   49.2330 O   0  0  0  0  0  0  0  0  0  0  0  0
   34.2300   29.5960   50.3740 C   0  0  0  0  0  0  0  0  0  0  0  0
   35.0350   29.2430   51.4480 F   0  0  0  0  0  0  0  0  0  0  0  0
   34.2310   30.9400   50.1810 F   0  0  0  0  0  0  0  0  0  0  0  0
   32.9280   29.2210   50.7240 F   0  0  0  0  0  0  0  0  0  0  0  0
   39.7400   33.5400   46.7600 N   0  0  0  0  0  0  0  0  0  0  0  0
   39.3218   29.6093   45.7807 H   0  0  0  0  0  0  0  0  0  0  0  0
   38.2918   30.2153   44.4169 H   0  0  0  0  0  0  0  0  0  0  0  0
   40.0909   31.0949   43.2646 H   0  0  0  0  0  0  0  0  0  0  0  0
   40.8606   29.6773   44.0153 H   0  0  0  0  0  0  0  0  0  0  0  0
   41.3917   33.5358   45.1079 H   0  0  0  0  0  0  0  0  0  0  0  0
   40.4941   32.9298   43.6617 H   0  0  0  0  0  0  0  0  0  0  0  0
   38.6654   33.4922   44.8518 H   0  0  0  0  0  0  0  0  0  0  0  0
   36.7047   30.2956   49.0591 H   0  0  0  0  0  0  0  0  0  0  0  0
   39.3905   32.9504   47.5289 H   0  0  0  0  0  0  0  0  0  0  0  0
   40.7648   33.6195   46.8268 H   0  0  0  0  0  0  0  0  0  0  0  0
  1  2  2  0
  3  1  1  0
  4  3  1  0
  5  6  1  0
  5  4  1  0
  7  6  1  0
  7  8  1  0
  8  3  1  0
  8 24  1  0
  9 10  2  0
  9 19  1  0
 11  1  1  0
 11 10  1  0
 12 11  2  0
 13 12  1  0
 13 14  2  0
 14  9  1  0
 15 18  1  0
 15 13  1  0
 16 15  1  0
 17 15  1  0
 19 20  1  0
 20 23  1  0
 20 21  1  0
 22 20  1  0
  4 25  1  0
  4 26  1  0
  5 27  1  0
  5 28  1  0
  7 29  1  0
  7 30  1  0
  8 31  1  6
 10 32  1  0
 24 33  1  0
 24 34  1  0
M  ISO  8  25  13  26  13  27  13  28  13  29  13  30  13  31  13  32  14
M  ISO  2  33   5  34   5
M  END
>  <minimizedAffinity>  (1) 
-5.58997679

>  <minimizedRMSD>  (1) 
0.321139812

$$$$
