
     RDKit          3D

 43 45  0  0  1  0  0  0  0  0999 V2000
   36.8960   30.5080   45.9640 C   0  0  0  0  0  0  0  0  0  0  0  0
   37.8340   30.3280   46.7790 O   0  0  0  0  0  0  0  0  0  0  0  0
   37.2450   31.2630   44.7980 N   0  0  0  0  0  0  0  0  0  0  0  0
   36.7750   30.7510   43.5330 C   0  0  0  0  0  0  0  0  0  0  0  0
   37.5290   31.3640   42.3730 C   0  0  0  0  0  0  0  0  0  0  0  0
   38.8300   31.5720   42.8000 O   0  0  0  0  0  0  0  0  0  0  0  0
   38.7960   32.7280   43.5950 C   0  0  0  0  0  0  0  0  0  0  0  0
   38.0360   32.4880   44.8770 C   0  0  2  0  0  0  0  0  0  0  0  0
   33.8850   29.1600   47.7800 C   0  0  0  0  0  0  0  0  0  0  0  0
   35.1980   29.6940   47.5500 C   0  0  0  0  0  0  0  0  0  0  0  0
   35.5730   29.9650   46.2370 C   0  0  0  0  0  0  0  0  0  0  0  0
   34.6610   29.7000   45.2670 N   0  0  0  0  0  0  0  0  0  0  0  0
   33.4540   29.2040   45.5250 C   0  0  0  0  0  0  0  0  0  0  0  0
   33.0720   28.9400   46.7550 N   0  0  0  0  0  0  0  0  0  0  0  0
   32.5940   28.9820   44.3190 C   0  0  0  0  0  0  0  0  0  0  0  0
   32.5130   30.1580   43.5630 F   0  0  0  0  0  0  0  0  0  0  0  0
   33.1830   28.0570   43.4870 F   0  0  0  0  0  0  0  0  0  0  0  0
   31.3340   28.5040   44.6520 F   0  0  0  0  0  0  0  0  0  0  0  0
   33.5320   28.8980   49.1000 O   0  0  0  0  0  0  0  0  0  0  0  0
   34.0390   29.5740   50.2020 C   0  0  0  0  0  0  0  0  0  0  0  0
   35.0280   28.8820   50.8610 F   0  0  0  0  0  0  0  0  0  0  0  0
   34.4250   30.8730   49.9540 F   0  0  0  0  0  0  0  0  0  0  0  0
   32.9520   29.6730   51.1010 F   0  0  0  0  0  0  0  0  0  0  0  0
   39.0260   32.2400   45.8370 O   0  0  0  0  0  0  0  0  0  0  0  0
   39.1760   32.8650   47.0480 C   0  0  0  0  0  0  0  0  0  0  0  0
   40.1120   33.9050   47.0320 C   0  0  0  0  0  0  0  0  0  0  0  0
   40.3680   34.6270   48.1880 C   0  0  0  0  0  0  0  0  0  0  0  0
   39.7070   34.3420   49.3800 C   0  0  0  0  0  0  0  0  0  0  0  0
   38.7870   33.3180   49.3860 C   0  0  0  0  0  0  0  0  0  0  0  0
   38.5400   32.6100   48.2500 C   0  0  0  0  0  0  0  0  0  0  0  0
   36.9154   29.6602   43.5143 H   0  0  0  0  0  0  0  0  0  0  0  0
   35.7110   31.0102   43.4292 H   0  0  0  0  0  0  0  0  0  0  0  0
   37.0681   32.3207   42.0862 H   0  0  0  0  0  0  0  0  0  0  0  0
   37.5052   30.7013   41.4954 H   0  0  0  0  0  0  0  0  0  0  0  0
   39.8264   33.0256   43.8393 H   0  0  0  0  0  0  0  0  0  0  0  0
   38.2854   33.5228   43.0315 H   0  0  0  0  0  0  0  0  0  0  0  0
   37.3727   33.3384   45.0936 H   0  0  0  0  0  0  0  0  0  0  0  0
   35.8870   29.8833   48.3864 H   0  0  0  0  0  0  0  0  0  0  0  0
   40.6452   34.1501   46.1016 H   0  0  0  0  0  0  0  0  0  0  0  0
   41.1077   35.4408   48.1628 H   0  0  0  0  0  0  0  0  0  0  0  0
   39.9145   34.9198   50.2927 H   0  0  0  0  0  0  0  0  0  0  0  0
   38.2490   33.0708   50.3131 H   0  0  0  0  0  0  0  0  0  0  0  0
   37.8001   31.7970   48.2894 H   0  0  0  0  0  0  0  0  0  0  0  0
  1 11  1  0
  1  2  2  0
  3  8  1  0
  3  1  1  0
  4  3  1  0
  5  6  1  0
  5  4  1  0
  6  7  1  0
  7  8  1  0
  8 24  1  0
  9 19  1  0
 10  9  2  0
 11 10  1  0
 12 13  1  0
 12 11  2  0
 13 14  2  0
 14  9  1  0
 15 18  1  0
 15 13  1  0
 16 15  1  0
 17 15  1  0
 19 20  1  0
 20 21  1  0
 20 23  1  0
 22 20  1  0
 24 25  1  0
 25 30  1  0
 26 25  2  0
 26 27  1  0
 27 28  2  0
 28 29  1  0
 30 29  2  0
  4 31  1  0
  4 32  1  0
  5 33  1  0
  5 34  1  0
  7 35  1  0
  7 36  1  0
  8 37  1  1
 10 38  1  0
 26 39  1  0
 27 40  1  0
 28 41  1  0
 29 42  1  0
 30 43  1  0
M  ISO  8  31  13  32  13  33  13  34  13  35  13  36  13  37  13  38  14
M  ISO  5  39  14  40  14  41  14  42  14  43  14
M  END
>  <minimizedAffinity>  (1) 
-5.81336927

>  <minimizedRMSD>  (1) 
2.01248217

$$$$
