
     RDKit          3D

 40 42  0  0  1  0  0  0  0  0999 V2000
   37.0800   30.5940   46.0300 C   0  0  0  0  0  0  0  0  0  0  0  0
   38.0010   30.3430   46.8440 O   0  0  0  0  0  0  0  0  0  0  0  0
   37.4780   31.3690   44.9020 N   0  0  0  0  0  0  0  0  0  0  0  0
   36.9890   30.9050   43.6170 C   0  0  0  0  0  0  0  0  0  0  0  0
   37.7850   31.5120   42.4760 C   0  0  0  0  0  0  0  0  0  0  0  0
   39.0930   31.6470   42.9210 O   0  0  0  0  0  0  0  0  0  0  0  0
   39.1040   32.7820   43.7440 C   0  0  0  0  0  0  0  0  0  0  0  0
   38.3240   32.5550   45.0120 C   0  0  2  0  0  0  0  0  0  0  0  0
   34.0080   29.2820   47.7800 C   0  0  0  0  0  0  0  0  0  0  0  0
   35.3530   29.7660   47.5750 C   0  0  0  0  0  0  0  0  0  0  0  0
   35.7310   30.1010   46.2810 C   0  0  0  0  0  0  0  0  0  0  0  0
   34.8020   29.9480   45.3030 N   0  0  0  0  0  0  0  0  0  0  0  0
   33.5720   29.4990   45.5350 C   0  0  0  0  0  0  0  0  0  0  0  0
   33.1850   29.1720   46.7490 N   0  0  0  0  0  0  0  0  0  0  0  0
   32.6990   29.4020   44.3190 C   0  0  0  0  0  0  0  0  0  0  0  0
   32.6660   30.6170   43.6420 F   0  0  0  0  0  0  0  0  0  0  0  0
   33.2490   28.4950   43.4240 F   0  0  0  0  0  0  0  0  0  0  0  0
   31.4230   28.9530   44.6150 F   0  0  0  0  0  0  0  0  0  0  0  0
   33.6440   28.9500   49.0800 O   0  0  0  0  0  0  0  0  0  0  0  0
   34.0840   29.6060   50.2130 C   0  0  0  0  0  0  0  0  0  0  0  0
   35.0660   28.9390   50.9120 F   0  0  0  0  0  0  0  0  0  0  0  0
   34.4480   30.9210   50.0130 F   0  0  0  0  0  0  0  0  0  0  0  0
   32.9530   29.6670   51.0580 F   0  0  0  0  0  0  0  0  0  0  0  0
   39.2880   32.2240   45.9800 O   0  0  0  0  0  0  0  0  0  0  0  0
   40.1010   34.7190   48.2870 N   0  0  0  0  0  0  0  0  0  0  0  0
   40.1670   34.1570   47.0920 N   0  0  0  0  0  0  0  0  0  0  0  0
   39.4180   33.0390   47.0970 C   0  0  0  0  0  0  0  0  0  0  0  0
   38.8700   32.9130   48.3560 C   0  0  0  0  0  0  0  0  0  0  0  0
   39.3080   33.9850   49.1070 C   0  0  0  0  0  0  0  0  0  0  0  0
   37.0776   29.8094   43.5735 H   0  0  0  0  0  0  0  0  0  0  0  0
   35.9383   31.2132   43.5118 H   0  0  0  0  0  0  0  0  0  0  0  0
   37.3730   32.4965   42.2097 H   0  0  0  0  0  0  0  0  0  0  0  0
   37.7384   30.8736   41.5814 H   0  0  0  0  0  0  0  0  0  0  0  0
   40.1450   33.0244   44.0038 H   0  0  0  0  0  0  0  0  0  0  0  0
   38.6332   33.6102   43.1941 H   0  0  0  0  0  0  0  0  0  0  0  0
   37.7085   33.4384   45.2373 H   0  0  0  0  0  0  0  0  0  0  0  0
   36.0551   29.8661   48.4159 H   0  0  0  0  0  0  0  0  0  0  0  0
   40.5824   35.5888   48.5564 H   0  0  0  0  0  0  0  0  0  0  0  0
   38.2056   32.1061   48.6989 H   0  0  0  0  0  0  0  0  0  0  0  0
   39.0635   34.2005   50.1576 H   0  0  0  0  0  0  0  0  0  0  0  0
  1 11  1  0
  1  2  2  0
  3  8  1  0
  3  1  1  0
  4  3  1  0
  5  6  1  0
  5  4  1  0
  6  7  1  0
  7  8  1  0
  8 24  1  0
  9 19  1  0
 10  9  2  0
 11 10  1  0
 12 13  1  0
 12 11  2  0
 13 14  2  0
 14  9  1  0
 15 18  1  0
 15 13  1  0
 16 15  1  0
 17 15  1  0
 19 20  1  0
 20 21  1  0
 20 23  1  0
 22 20  1  0
 24 27  1  0
 25 29  1  0
 26 27  2  0
 26 25  1  0
 27 28  1  0
 28 29  2  0
  4 30  1  0
  4 31  1  0
  5 32  1  0
  5 33  1  0
  7 34  1  0
  7 35  1  0
  8 36  1  1
 10 37  1  0
 25 38  1  0
 28 39  1  0
 29 40  1  0
M  ISO  8  30  13  31  13  32  13  33  13  34  13  35  13  36  13  37  14
M  ISO  3  38   9  39  14  40  14
M  END
>  <minimizedAffinity>  (1) 
-5.58939314

>  <minimizedRMSD>  (1) 
1.8198905

$$$$
