
     RDKit          3D

 40 42  0  0  1  0  0  0  0  0999 V2000
   37.1630   30.6220   46.1210 C   0  0  0  0  0  0  0  0  0  0  0  0
   38.0650   30.3670   46.9620 O   0  0  0  0  0  0  0  0  0  0  0  0
   37.5900   31.4320   45.0360 N   0  0  0  0  0  0  0  0  0  0  0  0
   37.1530   30.9850   43.7180 C   0  0  0  0  0  0  0  0  0  0  0  0
   37.9710   31.6240   42.6160 C   0  0  0  0  0  0  0  0  0  0  0  0
   39.2530   31.7750   43.1050 O   0  0  0  0  0  0  0  0  0  0  0  0
   39.2230   32.8910   43.9500 C   0  0  0  0  0  0  0  0  0  0  0  0
   38.3970   32.6190   45.1840 C   0  0  2  0  0  0  0  0  0  0  0  0
   34.0540   29.2670   47.7610 C   0  0  0  0  0  0  0  0  0  0  0  0
   35.3720   29.7900   47.6010 C   0  0  0  0  0  0  0  0  0  0  0  0
   35.8340   30.0890   46.3270 C   0  0  0  0  0  0  0  0  0  0  0  0
   34.9760   29.8580   45.2940 N   0  0  0  0  0  0  0  0  0  0  0  0
   33.7480   29.3670   45.4780 C   0  0  0  0  0  0  0  0  0  0  0  0
   33.2970   29.0790   46.6760 N   0  0  0  0  0  0  0  0  0  0  0  0
   32.9560   29.1830   44.2190 C   0  0  0  0  0  0  0  0  0  0  0  0
   32.8210   30.4070   43.5510 F   0  0  0  0  0  0  0  0  0  0  0  0
   33.6450   28.3610   43.3510 F   0  0  0  0  0  0  0  0  0  0  0  0
   31.7270   28.5860   44.4460 F   0  0  0  0  0  0  0  0  0  0  0  0
   33.6130   28.9740   49.0390 O   0  0  0  0  0  0  0  0  0  0  0  0
   34.0470   29.6110   50.1900 C   0  0  0  0  0  0  0  0  0  0  0  0
   35.0400   28.9290   50.8740 F   0  0  0  0  0  0  0  0  0  0  0  0
   34.3960   30.9280   50.0080 F   0  0  0  0  0  0  0  0  0  0  0  0
   32.9140   29.6240   51.0300 F   0  0  0  0  0  0  0  0  0  0  0  0
   39.3460   32.2910   46.1770 O   0  0  0  0  0  0  0  0  0  0  0  0
   39.5000   33.1850   47.2310 C   0  0  0  0  0  0  0  0  0  0  0  0
   38.8650   32.8160   48.3990 C   0  0  0  0  0  0  0  0  0  0  0  0
   39.0900   33.7570   49.3330 N   0  0  0  0  0  0  0  0  0  0  0  0
   39.8530   34.7000   48.7630 C   0  0  0  0  0  0  0  0  0  0  0  0
   40.1200   34.3770   47.4800 N   0  0  0  0  0  0  0  0  0  0  0  0
   37.2626   29.8922   43.6567 H   0  0  0  0  0  0  0  0  0  0  0  0
   36.1022   31.2813   43.5839 H   0  0  0  0  0  0  0  0  0  0  0  0
   37.5489   32.6048   42.3516 H   0  0  0  0  0  0  0  0  0  0  0  0
   37.9660   31.0007   41.7096 H   0  0  0  0  0  0  0  0  0  0  0  0
   40.2508   33.1390   44.2536 H   0  0  0  0  0  0  0  0  0  0  0  0
   38.7671   33.7297   43.4035 H   0  0  0  0  0  0  0  0  0  0  0  0
   37.7471   33.4804   45.3975 H   0  0  0  0  0  0  0  0  0  0  0  0
   36.0150   29.9544   48.4782 H   0  0  0  0  0  0  0  0  0  0  0  0
   38.2714   31.9011   48.5428 H   0  0  0  0  0  0  0  0  0  0  0  0
   40.2110   35.6086   49.2692 H   0  0  0  0  0  0  0  0  0  0  0  0
   40.6840   34.9250   46.8148 H   0  0  0  0  0  0  0  0  0  0  0  0
  1 11  1  0
  1  2  2  0
  3  8  1  0
  3  1  1  0
  4  3  1  0
  5  6  1  0
  5  4  1  0
  6  7  1  0
  7  8  1  0
  8 24  1  0
  9 19  1  0
 10  9  2  0
 11 10  1  0
 12 13  1  0
 12 11  2  0
 13 14  2  0
 14  9  1  0
 15 18  1  0
 15 13  1  0
 16 15  1  0
 17 15  1  0
 19 20  1  0
 20 21  1  0
 20 23  1  0
 22 20  1  0
 24 25  1  0
 25 29  1  0
 25 26  2  0
 26 27  1  0
 28 27  2  0
 29 28  1  0
  4 30  1  0
  4 31  1  0
  5 32  1  0
  5 33  1  0
  7 34  1  0
  7 35  1  0
  8 36  1  1
 10 37  1  0
 26 38  1  0
 28 39  1  0
 29 40  1  0
M  ISO  8  30  13  31  13  32  13  33  13  34  13  35  13  36  13  37  14
M  ISO  3  38  14  39  14  40   9
M  END
>  <minimizedAffinity>  (1) 
-5.49732399

>  <minimizedRMSD>  (1) 
1.69546962

$$$$
