
     RDKit          3D

 40 42  0  0  1  0  0  0  0  0999 V2000
   37.1060   30.6150   46.1210 C   0  0  0  0  0  0  0  0  0  0  0  0
   37.9920   30.4570   46.9870 O   0  0  0  0  0  0  0  0  0  0  0  0
   37.5080   31.3520   44.9810 N   0  0  0  0  0  0  0  0  0  0  0  0
   37.1010   30.8150   43.6940 C   0  0  0  0  0  0  0  0  0  0  0  0
   37.8870   31.4330   42.5620 C   0  0  0  0  0  0  0  0  0  0  0  0
   39.1770   31.6490   43.0380 O   0  0  0  0  0  0  0  0  0  0  0  0
   39.0930   32.8120   43.8180 C   0  0  0  0  0  0  0  0  0  0  0  0
   38.2800   32.5720   45.0660 C   0  0  2  0  0  0  0  0  0  0  0  0
   34.0320   29.2090   47.7970 C   0  0  0  0  0  0  0  0  0  0  0  0
   35.3530   29.7620   47.6390 C   0  0  0  0  0  0  0  0  0  0  0  0
   35.7820   30.0550   46.3400 C   0  0  0  0  0  0  0  0  0  0  0  0
   34.9090   29.7890   45.3330 N   0  0  0  0  0  0  0  0  0  0  0  0
   33.6960   29.2770   45.5250 C   0  0  0  0  0  0  0  0  0  0  0  0
   33.2720   28.9940   46.7410 N   0  0  0  0  0  0  0  0  0  0  0  0
   32.8900   29.0600   44.2870 C   0  0  0  0  0  0  0  0  0  0  0  0
   32.7550   30.2570   43.5850 F   0  0  0  0  0  0  0  0  0  0  0  0
   33.5730   28.2150   43.4360 F   0  0  0  0  0  0  0  0  0  0  0  0
   31.6640   28.4630   44.5420 F   0  0  0  0  0  0  0  0  0  0  0  0
   33.6260   28.9250   49.0970 O   0  0  0  0  0  0  0  0  0  0  0  0
   34.0530   29.6060   50.2300 C   0  0  0  0  0  0  0  0  0  0  0  0
   35.0410   28.9610   50.9400 F   0  0  0  0  0  0  0  0  0  0  0  0
   34.3910   30.9190   50.0080 F   0  0  0  0  0  0  0  0  0  0  0  0
   32.9000   29.6490   51.0590 F   0  0  0  0  0  0  0  0  0  0  0  0
   39.2390   32.3430   46.0700 O   0  0  0  0  0  0  0  0  0  0  0  0
   39.4940   33.1620   47.1420 C   0  0  0  0  0  0  0  0  0  0  0  0
   38.8220   32.9390   48.3440 C   0  0  0  0  0  0  0  0  0  0  0  0
   39.2760   33.9090   49.2400 C   0  0  0  0  0  0  0  0  0  0  0  0
   40.2010   34.6710   48.5300 C   0  0  0  0  0  0  0  0  0  0  0  0
   40.2990   34.1960   47.2990 O   0  0  0  0  0  0  0  0  0  0  0  0
   37.2666   29.7275   43.6920 H   0  0  0  0  0  0  0  0  0  0  0  0
   36.0369   31.0497   43.5434 H   0  0  0  0  0  0  0  0  0  0  0  0
   37.4300   32.3871   42.2606 H   0  0  0  0  0  0  0  0  0  0  0  0
   37.8967   30.7728   41.6822 H   0  0  0  0  0  0  0  0  0  0  0  0
   40.1074   33.1260   44.1050 H   0  0  0  0  0  0  0  0  0  0  0  0
   38.5989   33.5954   43.2247 H   0  0  0  0  0  0  0  0  0  0  0  0
   37.5959   33.4161   45.2379 H   0  0  0  0  0  0  0  0  0  0  0  0
   36.0009   29.9472   48.5084 H   0  0  0  0  0  0  0  0  0  0  0  0
   38.0797   32.1528   48.5464 H   0  0  0  0  0  0  0  0  0  0  0  0
   38.9677   34.0433   50.2873 H   0  0  0  0  0  0  0  0  0  0  0  0
   40.7604   35.5301   48.9289 H   0  0  0  0  0  0  0  0  0  0  0  0
  1 11  1  0
  1  2  2  0
  3  8  1  0
  3  1  1  0
  4  3  1  0
  5  6  1  0
  5  4  1  0
  6  7  1  0
  7  8  1  0
  8 24  1  0
  9 19  1  0
 10  9  2  0
 11 10  1  0
 12 13  1  0
 12 11  2  0
 13 14  2  0
 14  9  1  0
 15 18  1  0
 15 13  1  0
 16 15  1  0
 17 15  1  0
 19 20  1  0
 20 21  1  0
 20 23  1  0
 22 20  1  0
 24 25  1  0
 25 29  1  0
 25 26  2  0
 26 27  1  0
 28 27  2  0
 29 28  1  0
  4 30  1  0
  4 31  1  0
  5 32  1  0
  5 33  1  0
  7 34  1  0
  7 35  1  0
  8 36  1  1
 10 37  1  0
 26 38  1  0
 27 39  1  0
 28 40  1  0
M  ISO  8  30  13  31  13  32  13  33  13  34  13  35  13  36  13  37  14
M  ISO  3  38  14  39  14  40  14
M  END
>  <minimizedAffinity>  (1) 
-5.43899012

>  <minimizedRMSD>  (1) 
1.68155038

$$$$
