
     RDKit          3D

 13 13  0  0  0  0  0  0  0  0999 V2000
   37.2790   30.1820   51.4290 C   0  0  0  0  0  0  0  0  0  0  0  0
   38.0960   30.7320   50.4180 C   0  0  0  0  0  0  0  0  0  0  0  0
   37.7720   30.4510   49.0780 C   0  0  0  0  0  0  0  0  0  0  0  0
   36.6780   29.6570   48.8400 N   0  0  0  0  0  0  0  0  0  0  0  0
   35.9190   29.1480   49.8300 C   0  0  0  0  0  0  0  0  0  0  0  0
   36.2270   29.4150   51.1120 N   0  0  0  0  0  0  0  0  0  0  0  0
   34.7500   28.2960   49.4930 C   0  0  0  0  0  0  0  0  0  0  0  0
   37.5077   30.3846   52.4857 H   0  0  0  0  0  0  0  0  0  0  0  0
   38.9614   31.3624   50.6705 H   0  0  0  0  0  0  0  0  0  0  0  0
   38.3743   30.8535   48.2502 H   0  0  0  0  0  0  0  0  0  0  0  0
   34.2713   27.9471   50.4198 H   0  0  0  0  0  0  0  0  0  0  0  0
   34.0275   28.8808   48.9048 H   0  0  0  0  0  0  0  0  0  0  0  0
   35.0855   27.4291   48.9048 H   0  0  0  0  0  0  0  0  0  0  0  0
  2  1  2  0
  3  2  1  0
  4  3  2  0
  4  5  1  0
  5  6  2  0
  6  1  1  0
  7  5  1  0
  1  8  1  0
  2  9  1  0
  3 10  1  0
  7 11  1  0
  7 12  1  0
  7 13  1  0
M  ISO  6   8  14   9  14  10  14  11   8  12   8  13   8
M  END
>  <minimizedAffinity>  (1) 
-3.38942313

>  <minimizedRMSD>  (1) 
0.0896378234

$$$$
