
     RDKit          3D

 20 20  0  0  0  0  0  0  0  0999 V2000
   34.8550   28.5760   48.9350 C   0  0  0  0  0  0  0  0  0  0  0  0
   37.1720   30.2050   51.3050 C   0  0  0  0  0  0  0  0  0  0  0  0
   38.1230   30.7810   50.4470 C   0  0  0  0  0  0  0  0  0  0  0  0
   37.9710   30.6110   49.0630 C   0  0  0  0  0  0  0  0  0  0  0  0
   36.8860   29.8820   48.6310 N   0  0  0  0  0  0  0  0  0  0  0  0
   35.9890   29.3440   49.4910 C   0  0  0  0  0  0  0  0  0  0  0  0
   36.1480   29.5130   50.8110 N   0  0  0  0  0  0  0  0  0  0  0  0
   33.8560   29.5310   48.5050 N   0  0  0  0  0  0  0  0  0  0  0  0
   33.8820   29.9270   47.1390 C   0  0  0  0  0  0  0  0  0  0  0  0
   34.6300   29.4370   46.2220 N   0  0  0  0  0  0  0  0  0  0  0  0
   32.9890   30.9730   46.7430 N   0  0  0  0  0  0  0  0  0  0  0  0
   35.3230   28.6910   46.3170 H   0  0  0  0  0  0  0  0  0  0  0  0
   35.1925   27.9735   48.0788 H   0  0  0  0  0  0  0  0  0  0  0  0
   34.4401   27.8931   49.6910 H   0  0  0  0  0  0  0  0  0  0  0  0
   37.2742   30.3267   52.3935 H   0  0  0  0  0  0  0  0  0  0  0  0
   38.9701   31.3540   50.8522 H   0  0  0  0  0  0  0  0  0  0  0  0
   38.6900   31.0429   48.3513 H   0  0  0  0  0  0  0  0  0  0  0  0
   33.1562   29.9078   49.1601 H   0  0  0  0  0  0  0  0  0  0  0  0
   32.9726   31.2930   45.7641 H   0  0  0  0  0  0  0  0  0  0  0  0
   32.3628   31.4057   47.4369 H   0  0  0  0  0  0  0  0  0  0  0  0
  1  6  1  0
  3  2  2  0
  4  3  1  0
  5  4  2  0
  5  6  1  0
  6  7  2  0
  7  2  1  0
  8  1  1  0
  9  8  1  0
 10 12  1  0
 10  9  2  0
 11  9  1  0
  1 13  1  0
  1 14  1  0
  2 15  1  0
  3 16  1  0
  4 17  1  0
  8 18  1  0
 11 19  1  0
 11 20  1  0
M  ISO  5  13   8  14   8  15  14  16  14  17  14
M  END
>  <minimizedAffinity>  (1) 
-4.1998868

>  <minimizedRMSD>  (1) 
0.874564588

$$$$
