
     RDKit          3D

 20 21  0  0  0  0  0  0  0  0999 V2000
   37.5170   29.8950   51.2650 C   0  0  0  0  0  0  0  0  0  0  0  0
   37.9840   30.8650   50.3470 C   0  0  0  0  0  0  0  0  0  0  0  0
   37.0660   31.3980   49.4350 C   0  0  0  0  0  0  0  0  0  0  0  0
   35.7740   30.9480   49.4880 N   0  0  0  0  0  0  0  0  0  0  0  0
   35.3520   30.0280   50.3680 C   0  0  0  0  0  0  0  0  0  0  0  0
   36.2340   29.5050   51.2550 N   0  0  0  0  0  0  0  0  0  0  0  0
   33.9440   29.5860   50.3720 C   0  0  0  0  0  0  0  0  0  0  0  0
   33.6610   28.5550   49.3670 C   0  0  0  0  0  0  0  0  0  0  0  0
   34.5210   27.7430   48.6550 C   0  0  0  0  0  0  0  0  0  0  0  0
   33.7970   26.9360   47.8300 N   0  0  0  0  0  0  0  0  0  0  0  0
   32.4960   27.2510   48.0370 C   0  0  0  0  0  0  0  0  0  0  0  0
   32.4180   28.2360   48.9720 N   0  0  0  0  0  0  0  0  0  0  0  0
   38.2136   29.4562   51.9945 H   0  0  0  0  0  0  0  0  0  0  0  0
   39.0349   31.1898   50.3500 H   0  0  0  0  0  0  0  0  0  0  0  0
   37.3730   32.1551   48.6984 H   0  0  0  0  0  0  0  0  0  0  0  0
   33.7076   29.1796   51.3665 H   0  0  0  0  0  0  0  0  0  0  0  0
   33.3249   30.4615   50.1267 H   0  0  0  0  0  0  0  0  0  0  0  0
   35.6177   27.7470   48.7403 H   0  0  0  0  0  0  0  0  0  0  0  0
   31.6387   26.7844   47.5297 H   0  0  0  0  0  0  0  0  0  0  0  0
   31.5490   28.6660   49.3195 H   0  0  0  0  0  0  0  0  0  0  0  0
  2  1  2  0
  3  4  2  0
  3  2  1  0
  4  5  1  0
  5  7  1  0
  5  6  2  0
  6  1  1  0
  8  7  1  0
  9  8  2  0
 10 11  2  0
 10  9  1  0
 11 12  1  0
 12  8  1  0
  1 13  1  0
  2 14  1  0
  3 15  1  0
  7 16  1  0
  7 17  1  0
  9 18  1  0
 11 19  1  0
 12 20  1  0
M  ISO  8  13  14  14  14  15  14  16   8  17   8  18  14  19  14  20   9
M  END
>  <minimizedAffinity>  (1) 
-4.05349159

>  <minimizedRMSD>  (1) 
2.14845443

$$$$
