
     RDKit          3D

 23 24  0  0  0  0  0  0  0  0999 V2000
   33.4570   28.4390   48.8140 C   0  0  0  0  0  0  0  0  0  0  0  0
   36.9210   29.3330   49.7850 C   0  0  0  0  0  0  0  0  0  0  0  0
   37.2840   30.2600   48.7900 C   0  0  0  0  0  0  0  0  0  0  0  0
   36.3370   30.5720   47.7930 C   0  0  0  0  0  0  0  0  0  0  0  0
   35.1180   29.9560   47.8460 N   0  0  0  0  0  0  0  0  0  0  0  0
   34.8070   29.0720   48.8170 C   0  0  0  0  0  0  0  0  0  0  0  0
   35.7120   28.7740   49.7720 N   0  0  0  0  0  0  0  0  0  0  0  0
   33.2470   27.6060   47.6570 N   0  0  0  0  0  0  0  0  0  0  0  0
   33.9040   26.4110   47.5770 C   0  0  0  0  0  0  0  0  0  0  0  0
   33.7610   25.5670   46.5190 C   0  0  0  0  0  0  0  0  0  0  0  0
   32.9090   25.9520   45.4910 C   0  0  0  0  0  0  0  0  0  0  0  0
   32.7520   25.1920   44.4910 O   0  0  0  0  0  0  0  0  0  0  0  0
   32.2560   27.1290   45.5620 N   0  0  0  0  0  0  0  0  0  0  0  0
   32.4360   27.9270   46.6340 C   0  0  0  0  0  0  0  0  0  0  0  0
   31.8280   29.0440   46.7170 O   0  0  0  0  0  0  0  0  0  0  0  0
   33.3538   27.8212   49.7183 H   0  0  0  0  0  0  0  0  0  0  0  0
   32.7076   29.2439   48.7901 H   0  0  0  0  0  0  0  0  0  0  0  0
   37.6383   29.0692   50.5762 H   0  0  0  0  0  0  0  0  0  0  0  0
   38.2793   30.7283   48.7902 H   0  0  0  0  0  0  0  0  0  0  0  0
   36.5727   31.2912   46.9947 H   0  0  0  0  0  0  0  0  0  0  0  0
   34.5743   26.1198   48.3992 H   0  0  0  0  0  0  0  0  0  0  0  0
   34.3027   24.6104   46.4789 H   0  0  0  0  0  0  0  0  0  0  0  0
   31.6233   27.4172   44.8020 H   0  0  0  0  0  0  0  0  0  0  0  0
  1  6  1  0
  3  2  2  0
  4  5  2  0
  4  3  1  0
  5  6  1  0
  6  7  2  0
  7  2  1  0
  8  1  1  0
  9  8  1  0
 10  9  2  0
 11 13  1  0
 11 10  1  0
 12 11  2  0
 13 14  1  0
 14 15  2  0
 14  8  1  0
  1 16  1  0
  1 17  1  0
  2 18  1  0
  3 19  1  0
  4 20  1  0
  9 21  1  0
 10 22  1  0
 13 23  1  0
M  ISO  8  16   8  17   8  18  14  19  14  20  14  21  14  22  14  23   9
M  END
>  <minimizedAffinity>  (1) 
-3.28052139

>  <minimizedRMSD>  (1) 
3.36740756

$$$$
