
     RDKit          3D

 20 21  0  0  0  0  0  0  0  0999 V2000
   38.4110   32.6990   49.3930 C   0  0  0  0  0  0  0  0  0  0  0  0
   38.9070   32.7010   48.0800 C   0  0  0  0  0  0  0  0  0  0  0  0
   38.6980   31.5570   47.2940 C   0  0  0  0  0  0  0  0  0  0  0  0
   38.0190   30.5090   47.8620 N   0  0  0  0  0  0  0  0  0  0  0  0
   37.5560   30.5490   49.1330 C   0  0  0  0  0  0  0  0  0  0  0  0
   37.7580   31.6510   49.8900 N   0  0  0  0  0  0  0  0  0  0  0  0
   36.8350   29.3760   49.6680 C   0  0  0  0  0  0  0  0  0  0  0  0
   35.4120   29.4600   49.1710 C   0  0  0  0  0  0  0  0  0  0  0  0
   34.2750   29.4380   50.1250 C   0  0  0  0  0  0  0  0  0  0  0  0
   34.6010   28.1960   49.3770 C   0  0  0  0  0  0  0  0  0  0  0  0
   38.5656   33.5848   50.0265 H   0  0  0  0  0  0  0  0  0  0  0  0
   39.4437   33.5734   47.6788 H   0  0  0  0  0  0  0  0  0  0  0  0
   39.0658   31.5027   46.2587 H   0  0  0  0  0  0  0  0  0  0  0  0
   37.3053   28.4488   49.3087 H   0  0  0  0  0  0  0  0  0  0  0  0
   36.8641   29.3686   50.7676 H   0  0  0  0  0  0  0  0  0  0  0  0
   35.6794   30.1347   48.3444 H   0  0  0  0  0  0  0  0  0  0  0  0
   34.4684   29.4909   51.2066 H   0  0  0  0  0  0  0  0  0  0  0  0
   33.3655   30.0434   50.2525 H   0  0  0  0  0  0  0  0  0  0  0  0
   33.9284   27.8363   48.5844 H   0  0  0  0  0  0  0  0  0  0  0  0
   34.8302   27.1555   49.6507 H   0  0  0  0  0  0  0  0  0  0  0  0
  1  6  2  0
  2  1  1  0
  3  4  1  0
  3  2  2  0
  4  5  2  0
  5  7  1  0
  5  6  1  0
  8 10  1  0
  8  7  1  0
  8  9  1  0
 10  9  1  0
  1 11  1  0
  2 12  1  0
  3 13  1  0
  7 14  1  0
  7 15  1  0
  8 16  1  0
  9 17  1  0
  9 18  1  0
 10 19  1  0
 10 20  1  0
M  ISO  8  11  14  12  14  13  14  14   8  15   8  16  13  17  13  18  13
M  ISO  2  19  13  20  13
M  END
>  <minimizedAffinity>  (1) 
-4.13476706

>  <minimizedRMSD>  (1) 
2.48046088

$$$$
