
     RDKit          3D

 34 37  0  0  1  0  0  0  0  0999 V2000
   36.2740   30.2810   50.2250 C   0  0  2  0  0  0  0  0  0  0  0  0
   35.5020   29.3280   51.0740 C   0  0  0  0  0  0  0  0  0  0  0  0
   35.8150   28.9300   49.6890 C   0  0  1  0  0  0  0  0  0  0  0  0
   34.6870   28.9050   48.7280 C   0  0  0  0  0  0  0  0  0  0  0  0
   33.5060   28.3500   49.2300 C   0  0  0  0  0  0  0  0  0  0  0  0
   32.5870   28.3840   48.2230 N   0  0  0  0  0  0  0  0  0  0  0  0
   33.1010   28.9220   47.1170 C   0  0  0  0  0  0  0  0  0  0  0  0
   32.6930   29.2200   45.8340 C   0  0  0  0  0  0  0  0  0  0  0  0
   33.5950   29.8180   44.9450 C   0  0  0  0  0  0  0  0  0  0  0  0
   34.9080   30.1330   45.2980 C   0  0  0  0  0  0  0  0  0  0  0  0
   35.3210   29.8300   46.5970 C   0  0  0  0  0  0  0  0  0  0  0  0
   34.3950   29.2430   47.4280 C   0  0  0  0  0  0  0  0  0  0  0  0
   37.7520   30.4250   50.4220 C   0  0  0  0  0  0  0  0  0  0  0  0
   39.0250   33.4070   48.6830 C   0  0  0  0  0  0  0  0  0  0  0  0
   39.1950   32.9500   47.3620 C   0  0  0  0  0  0  0  0  0  0  0  0
   38.8680   31.6100   47.0840 C   0  0  0  0  0  0  0  0  0  0  0  0
   38.4020   30.8360   48.1270 N   0  0  0  0  0  0  0  0  0  0  0  0
   38.2570   31.3240   49.3710 C   0  0  0  0  0  0  0  0  0  0  0  0
   38.5710   32.6120   49.6440 N   0  0  0  0  0  0  0  0  0  0  0  0
   36.1492   31.3427   49.9657 H   0  0  0  0  0  0  0  0  0  0  0  0
   35.9997   28.8193   51.9128 H   0  0  0  0  0  0  0  0  0  0  0  0
   34.5737   29.4014   51.6596 H   0  0  0  0  0  0  0  0  0  0  0  0
   36.3178   28.0778   49.2085 H   0  0  0  0  0  0  0  0  0  0  0  0
   33.3479   27.9594   50.2461 H   0  0  0  0  0  0  0  0  0  0  0  0
   31.6203   28.0385   48.3063 H   0  0  0  0  0  0  0  0  0  0  0  0
   31.6669   28.9898   45.5112 H   0  0  0  0  0  0  0  0  0  0  0  0
   33.2540   30.0493   43.9251 H   0  0  0  0  0  0  0  0  0  0  0  0
   35.5936   30.6036   44.5780 H   0  0  0  0  0  0  0  0  0  0  0  0
   36.3422   30.0510   46.9409 H   0  0  0  0  0  0  0  0  0  0  0  0
   37.9579   30.8545   51.4135 H   0  0  0  0  0  0  0  0  0  0  0  0
   38.2466   29.4444   50.3613 H   0  0  0  0  0  0  0  0  0  0  0  0
   39.2751   34.4505   48.9249 H   0  0  0  0  0  0  0  0  0  0  0  0
   39.5710   33.6185   46.5735 H   0  0  0  0  0  0  0  0  0  0  0  0
   38.9798   31.1944   46.0717 H   0  0  0  0  0  0  0  0  0  0  0  0
  1 13  1  0
  1  2  1  0
  3  1  1  0
  3  2  1  0
  4  5  2  0
  4  3  1  0
  6  5  1  0
  7 12  2  0
  7  6  1  0
  8  7  1  0
  9 10  1  0
  9  8  2  0
 10 11  2  0
 11 12  1  0
 12  4  1  0
 14 19  2  0
 15 14  1  0
 16 15  2  0
 16 17  1  0
 17 18  2  0
 18 19  1  0
 18 13  1  0
  1 20  1  6
  2 21  1  0
  2 22  1  0
  3 23  1  1
  5 24  1  0
  6 25  1  0
  8 26  1  0
  9 27  1  0
 10 28  1  0
 11 29  1  0
 13 30  1  0
 13 31  1  0
 14 32  1  0
 15 33  1  0
 16 34  1  0
M  ISO  8  20  13  21  13  22  13  23  13  24  14  25   9  26  14  27  14
M  ISO  7  28  14  29  14  30   8  31   8  32  14  33  14  34  14
M  END
>  <minimizedAffinity>  (1) 
-5.91954613

>  <minimizedRMSD>  (1) 
1.80971599

$$$$
