
     RDKit          3D

 29 31  0  0  1  0  0  0  0  0999 V2000
   35.4940   29.3690   49.0880 C   0  0  2  0  0  0  0  0  0  0  0  0
   34.3790   29.7000   50.0240 C   0  0  0  0  0  0  0  0  0  0  0  0
   34.5980   28.2770   49.6210 C   0  0  1  0  0  0  0  0  0  0  0  0
   33.5860   27.7360   48.6730 C   0  0  0  0  0  0  0  0  0  0  0  0
   33.9910   26.9710   47.5920 C   0  0  0  0  0  0  0  0  0  0  0  0
   33.0380   26.4640   46.7010 C   0  0  0  0  0  0  0  0  0  0  0  0
   31.7320   26.7920   47.0070 C   0  0  0  0  0  0  0  0  0  0  0  0
   31.3060   27.5620   48.0920 C   0  0  0  0  0  0  0  0  0  0  0  0
   32.2940   28.0200   48.9150 N   0  0  0  0  0  0  0  0  0  0  0  0
   36.9170   29.3110   49.5950 C   0  0  0  0  0  0  0  0  0  0  0  0
   38.4090   32.6690   49.3920 C   0  0  0  0  0  0  0  0  0  0  0  0
   38.9020   32.7290   48.0730 C   0  0  0  0  0  0  0  0  0  0  0  0
   38.7080   31.5930   47.2680 C   0  0  0  0  0  0  0  0  0  0  0  0
   38.0600   30.5250   47.8210 N   0  0  0  0  0  0  0  0  0  0  0  0
   37.6050   30.5130   49.0900 C   0  0  0  0  0  0  0  0  0  0  0  0
   37.7890   31.6030   49.8680 N   0  0  0  0  0  0  0  0  0  0  0  0
   35.7912   29.7712   48.1082 H   0  0  0  0  0  0  0  0  0  0  0  0
   34.6033   30.0191   51.0525 H   0  0  0  0  0  0  0  0  0  0  0  0
   33.5225   30.3896   49.9939 H   0  0  0  0  0  0  0  0  0  0  0  0
   34.7672   27.3243   50.1442 H   0  0  0  0  0  0  0  0  0  0  0  0
   35.0594   26.7622   47.4339 H   0  0  0  0  0  0  0  0  0  0  0  0
   33.3078   25.8531   45.8269 H   0  0  0  0  0  0  0  0  0  0  0  0
   30.9522   26.4103   46.3316 H   0  0  0  0  0  0  0  0  0  0  0  0
   30.2438   27.7847   48.2714 H   0  0  0  0  0  0  0  0  0  0  0  0
   36.9260   29.3049   50.6949 H   0  0  0  0  0  0  0  0  0  0  0  0
   37.4199   28.3964   49.2478 H   0  0  0  0  0  0  0  0  0  0  0  0
   38.5451   33.5407   50.0490 H   0  0  0  0  0  0  0  0  0  0  0  0
   39.4151   33.6238   47.6909 H   0  0  0  0  0  0  0  0  0  0  0  0
   39.0658   31.5650   46.2282 H   0  0  0  0  0  0  0  0  0  0  0  0
  1 10  1  0
  1  3  1  0
  1  2  1  0
  3  2  1  0
  4  9  1  0
  4  3  1  0
  5  4  2  0
  6  7  2  0
  6  5  1  0
  7  8  1  0
  8  9  2  0
 11 16  2  0
 12 11  1  0
 13 14  1  0
 13 12  2  0
 14 15  2  0
 15 10  1  0
 15 16  1  0
  1 17  1  6
  2 18  1  0
  2 19  1  0
  3 20  1  1
  5 21  1  0
  6 22  1  0
  7 23  1  0
  8 24  1  0
 10 25  1  0
 10 26  1  0
 11 27  1  0
 12 28  1  0
 13 29  1  0
M  ISO  8  17  13  18  13  19  13  20  13  21  14  22  14  23  14  24  14
M  ISO  5  25   8  26   8  27  14  28  14  29  14
M  END
>  <minimizedAffinity>  (1) 
-5.08675337

>  <minimizedRMSD>  (1) 
0.400899321

$$$$
