
     RDKit          3D

 32 34  0  0  1  0  0  0  0  0999 V2000
   36.1320   30.2180   50.3240 C   0  0  2  0  0  0  0  0  0  0  0  0
   35.3570   29.1940   51.0880 C   0  0  0  0  0  0  0  0  0  0  0  0
   35.5520   29.0030   49.6390 C   0  0  1  0  0  0  0  0  0  0  0  0
   34.3970   29.1100   48.8080 N   0  0  0  0  0  0  0  0  0  0  0  0
   33.5250   27.9650   48.8570 C   0  0  0  0  0  0  0  0  0  0  0  0
   32.5930   28.2450   47.6730 C   0  0  0  0  0  0  0  0  0  0  0  0
   33.3080   29.2190   46.7940 C   0  0  0  0  0  0  0  0  0  0  0  0
   34.6800   29.3630   47.4220 C   0  0  0  0  0  0  0  0  0  0  0  0
   37.6290   30.2450   50.4240 C   0  0  0  0  0  0  0  0  0  0  0  0
   38.9420   33.2010   48.6690 C   0  0  0  0  0  0  0  0  0  0  0  0
   39.0730   32.7420   47.3450 C   0  0  0  0  0  0  0  0  0  0  0  0
   38.7130   31.4270   47.0610 C   0  0  0  0  0  0  0  0  0  0  0  0
   38.2460   30.6490   48.0990 N   0  0  0  0  0  0  0  0  0  0  0  0
   38.1340   31.1280   49.3640 C   0  0  0  0  0  0  0  0  0  0  0  0
   38.4830   32.3960   49.6310 N   0  0  0  0  0  0  0  0  0  0  0  0
   36.0614   31.3118   50.2315 H   0  0  0  0  0  0  0  0  0  0  0  0
   35.8753   28.5358   51.8009 H   0  0  0  0  0  0  0  0  0  0  0  0
   34.4791   29.2274   51.7499 H   0  0  0  0  0  0  0  0  0  0  0  0
   35.9797   28.2294   48.9843 H   0  0  0  0  0  0  0  0  0  0  0  0
   34.0833   27.0276   48.7169 H   0  0  0  0  0  0  0  0  0  0  0  0
   33.0055   27.8357   49.8179 H   0  0  0  0  0  0  0  0  0  0  0  0
   32.3878   27.3152   47.1223 H   0  0  0  0  0  0  0  0  0  0  0  0
   31.6276   28.6485   48.0124 H   0  0  0  0  0  0  0  0  0  0  0  0
   32.7841   30.1861   46.7790 H   0  0  0  0  0  0  0  0  0  0  0  0
   33.3604   28.8785   45.7493 H   0  0  0  0  0  0  0  0  0  0  0  0
   35.3859   28.6236   47.0159 H   0  0  0  0  0  0  0  0  0  0  0  0
   35.1554   30.3372   47.2351 H   0  0  0  0  0  0  0  0  0  0  0  0
   37.9314   30.6314   51.4085 H   0  0  0  0  0  0  0  0  0  0  0  0
   38.0402   29.2314   50.3081 H   0  0  0  0  0  0  0  0  0  0  0  0
   39.2213   34.2362   48.9148 H   0  0  0  0  0  0  0  0  0  0  0  0
   39.4507   33.4060   46.5535 H   0  0  0  0  0  0  0  0  0  0  0  0
   38.7985   31.0223   46.0417 H   0  0  0  0  0  0  0  0  0  0  0  0
  1  9  1  0
  1  2  1  0
  3  1  1  0
  3  2  1  0
  4  5  1  0
  4  3  1  0
  6  5  1  0
  7  8  1  0
  7  6  1  0
  8  4  1  0
 10 15  2  0
 11 10  1  0
 12 11  2  0
 12 13  1  0
 13 14  2  0
 14 15  1  0
 14  9  1  0
  1 16  1  6
  2 17  1  0
  2 18  1  0
  3 19  1  1
  5 20  1  0
  5 21  1  0
  6 22  1  0
  6 23  1  0
  7 24  1  0
  7 25  1  0
  8 26  1  0
  8 27  1  0
  9 28  1  0
  9 29  1  0
 10 30  1  0
 11 31  1  0
 12 32  1  0
M  ISO  8  16  13  17  13  18  13  19  13  20  13  21  13  22  13  23  13
M  ISO  8  24  13  25  13  26  13  27  13  28   8  29   8  30  14  31  14
M  ISO  1  32  14
M  END
>  <minimizedAffinity>  (1) 
-4.77282619

>  <minimizedRMSD>  (1) 
1.33938611

$$$$
