
     RDKit          3D

 23 24  0  0  1  0  0  0  0  0999 V2000
   36.4410   29.6450   49.0240 C   0  0  0  0  0  0  0  0  0  0  0  0
   37.9290   32.9820   49.4360 C   0  0  0  0  0  0  0  0  0  0  0  0
   38.8640   33.0420   48.3880 C   0  0  0  0  0  0  0  0  0  0  0  0
   38.9690   31.9310   47.5530 C   0  0  0  0  0  0  0  0  0  0  0  0
   38.1720   30.8510   47.7870 N   0  0  0  0  0  0  0  0  0  0  0  0
   37.2790   30.8310   48.8110 C   0  0  0  0  0  0  0  0  0  0  0  0
   37.1830   31.9050   49.6110 N   0  0  0  0  0  0  0  0  0  0  0  0
   35.0500   30.1400   49.3590 C   0  0  2  0  0  0  0  0  0  0  0  0
   34.3100   29.5040   50.4890 C   0  0  0  0  0  0  0  0  0  0  0  0
   33.9600   29.1100   49.0970 C   0  0  2  0  0  0  0  0  0  0  0  0
   34.3910   27.7240   48.5980 C   0  0  0  0  0  0  0  0  0  0  0  0
   36.8392   29.0456   49.8560 H   0  0  0  0  0  0  0  0  0  0  0  0
   36.4257   29.0089   48.1267 H   0  0  0  0  0  0  0  0  0  0  0  0
   37.8172   33.8390   50.1165 H   0  0  0  0  0  0  0  0  0  0  0  0
   39.4899   33.9332   48.2326 H   0  0  0  0  0  0  0  0  0  0  0  0
   39.6846   31.9262   46.7176 H   0  0  0  0  0  0  0  0  0  0  0  0
   35.2642   31.1857   49.0931 H   0  0  0  0  0  0  0  0  0  0  0  0
   34.8262   28.7882   51.1457 H   0  0  0  0  0  0  0  0  0  0  0  0
   33.7382   29.8874   51.3470 H   0  0  0  0  0  0  0  0  0  0  0  0
   33.0317   29.0812   48.5076 H   0  0  0  0  0  0  0  0  0  0  0  0
   34.5941   27.0709   49.4595 H   0  0  0  0  0  0  0  0  0  0  0  0
   33.5863   27.2872   47.9884 H   0  0  0  0  0  0  0  0  0  0  0  0
   35.3015   27.8206   47.9884 H   0  0  0  0  0  0  0  0  0  0  0  0
  1  8  1  0
  2  7  2  0
  3  2  1  0
  4  5  1  0
  4  3  2  0
  5  6  2  0
  6  1  1  0
  6  7  1  0
  8  9  1  0
 10  8  1  0
 10  9  1  0
 11 10  1  0
  1 12  1  0
  1 13  1  0
  2 14  1  0
  3 15  1  0
  4 16  1  0
  8 17  1  6
  9 18  1  0
  9 19  1  0
 10 20  1  6
 11 21  1  0
 11 22  1  0
 11 23  1  0
M  ISO  8  12   8  13   8  14  14  15  14  16  14  17  13  18  13  19  13
M  ISO  4  20  13  21   8  22   8  23   8
M  END
>  <minimizedAffinity>  (1) 
-4.32173014

>  <minimizedRMSD>  (1) 
0.850822985

$$$$
