
     RDKit          3D

 37 40  0  0  1  0  0  0  0  0999 V2000
   35.1550   29.2620   48.9490 C   0  0  2  0  0  0  0  0  0  0  0  0
   34.0190   29.1880   49.8760 C   0  0  0  0  0  0  0  0  0  0  0  0
   34.4050   27.9430   49.2270 C   0  0  1  0  0  0  0  0  0  0  0  0
   36.5630   29.2410   49.5450 C   0  0  0  0  0  0  0  0  0  0  0  0
   37.6360   32.7450   49.5490 C   0  0  0  0  0  0  0  0  0  0  0  0
   38.4710   32.8180   48.4240 C   0  0  0  0  0  0  0  0  0  0  0  0
   38.6580   31.6480   47.6680 C   0  0  0  0  0  0  0  0  0  0  0  0
   38.0160   30.5040   48.0730 N   0  0  0  0  0  0  0  0  0  0  0  0
   37.2280   30.4850   49.1540 C   0  0  0  0  0  0  0  0  0  0  0  0
   37.0480   31.6120   49.8820 N   0  0  0  0  0  0  0  0  0  0  0  0
   33.4610   27.4570   48.1660 C   0  0  0  0  0  0  0  0  0  0  0  0
   33.9360   27.4880   46.9600 O   0  0  0  0  0  0  0  0  0  0  0  0
   32.1760   26.9860   48.3690 O   0  0  0  0  0  0  0  0  0  0  0  0
   31.0440   27.7580   48.1530 C   0  0  0  0  0  0  0  0  0  0  0  0
   30.7080   28.6530   47.1380 C   0  0  0  0  0  0  0  0  0  0  0  0
   29.4820   29.1510   47.3880 N   0  0  0  0  0  0  0  0  0  0  0  0
   29.0240   28.6000   48.5320 C   0  0  0  0  0  0  0  0  0  0  0  0
   27.7990   28.8250   49.1710 C   0  0  0  0  0  0  0  0  0  0  0  0
   27.5410   28.1410   50.3500 C   0  0  0  0  0  0  0  0  0  0  0  0
   28.4860   27.2600   50.8680 C   0  0  0  0  0  0  0  0  0  0  0  0
   29.6840   27.0580   50.2180 C   0  0  0  0  0  0  0  0  0  0  0  0
   29.9710   27.7310   49.0310 C   0  0  0  0  0  0  0  0  0  0  0  0
   35.3957   29.9142   48.0965 H   0  0  0  0  0  0  0  0  0  0  0  0
   34.1942   29.3109   50.9550 H   0  0  0  0  0  0  0  0  0  0  0  0
   33.0691   29.7374   49.9523 H   0  0  0  0  0  0  0  0  0  0  0  0
   34.7019   26.9337   49.5483 H   0  0  0  0  0  0  0  0  0  0  0  0
   36.5052   29.1753   50.6415 H   0  0  0  0  0  0  0  0  0  0  0  0
   37.1253   28.3702   49.1768 H   0  0  0  0  0  0  0  0  0  0  0  0
   37.4695   33.6437   50.1611 H   0  0  0  0  0  0  0  0  0  0  0  0
   38.9635   33.7605   48.1427 H   0  0  0  0  0  0  0  0  0  0  0  0
   39.3014   31.6489   46.7758 H   0  0  0  0  0  0  0  0  0  0  0  0
   31.3402   28.9100   46.2752 H   0  0  0  0  0  0  0  0  0  0  0  0
   28.9794   29.8358   46.8055 H   0  0  0  0  0  0  0  0  0  0  0  0
   27.0617   29.5245   48.7501 H   0  0  0  0  0  0  0  0  0  0  0  0
   26.5876   28.2952   50.8766 H   0  0  0  0  0  0  0  0  0  0  0  0
   28.2748   26.7210   51.8033 H   0  0  0  0  0  0  0  0  0  0  0  0
   30.4212   26.3589   50.6396 H   0  0  0  0  0  0  0  0  0  0  0  0
  1  3  1  0
  1  4  1  0
  1  2  1  0
  3  2  1  0
  5 10  2  0
  6  5  1  0
  7  8  1  0
  7  6  2  0
  8  9  2  0
  9  4  1  0
  9 10  1  0
 11 13  1  0
 11  3  1  0
 12 11  2  0
 14 13  1  0
 14 22  1  0
 15 16  1  0
 15 14  2  0
 16 17  1  0
 17 22  2  0
 17 18  1  0
 18 19  2  0
 19 20  1  0
 21 20  2  0
 22 21  1  0
  1 23  1  6
  2 24  1  0
  2 25  1  0
  3 26  1  1
  4 27  1  0
  4 28  1  0
  5 29  1  0
  6 30  1  0
  7 31  1  0
 15 32  1  0
 16 33  1  0
 18 34  1  0
 19 35  1  0
 20 36  1  0
 21 37  1  0
M  ISO  8  23  13  24  13  25  13  26  13  27   8  28   8  29  14  30  14
M  ISO  7  31  14  32  14  33   9  34  14  35  14  36  14  37  14
M  END
>  <minimizedAffinity>  (1) 
-6.45704985

>  <minimizedRMSD>  (1) 
2.16743684

$$$$
