
     RDKit          3D

 34 37  0  0  1  0  0  0  0  0999 V2000
   35.3050   29.4700   49.0660 C   0  0  2  0  0  0  0  0  0  0  0  0
   34.2180   29.4020   50.0520 C   0  0  0  0  0  0  0  0  0  0  0  0
   34.5460   28.1630   49.3590 C   0  0  1  0  0  0  0  0  0  0  0  0
   36.7370   29.4210   49.5950 C   0  0  0  0  0  0  0  0  0  0  0  0
   37.9420   32.8790   49.4470 C   0  0  0  0  0  0  0  0  0  0  0  0
   38.7130   32.8930   48.2760 C   0  0  0  0  0  0  0  0  0  0  0  0
   38.8090   31.6970   47.5440 C   0  0  0  0  0  0  0  0  0  0  0  0
   38.1460   30.5890   48.0160 N   0  0  0  0  0  0  0  0  0  0  0  0
   37.4220   30.6330   49.1400 C   0  0  0  0  0  0  0  0  0  0  0  0
   37.3260   31.7820   49.8490 N   0  0  0  0  0  0  0  0  0  0  0  0
   33.5330   27.7140   48.3410 C   0  0  0  0  0  0  0  0  0  0  0  0
   33.7450   26.5240   47.8700 O   0  0  0  0  0  0  0  0  0  0  0  0
   32.4380   28.4390   47.8960 O   0  0  0  0  0  0  0  0  0  0  0  0
   28.4360   26.9100   49.4500 N   0  0  0  0  0  0  0  0  0  0  0  0
   29.1530   27.5460   50.4210 C   0  0  0  0  0  0  0  0  0  0  0  0
   30.3120   27.9640   49.8840 N   0  0  0  0  0  0  0  0  0  0  0  0
   30.3750   27.6170   48.5800 C   0  0  0  0  0  0  0  0  0  0  0  0
   31.2780   27.7640   47.5480 C   0  0  0  0  0  0  0  0  0  0  0  0
   30.9900   27.2650   46.3200 N   0  0  0  0  0  0  0  0  0  0  0  0
   29.8250   26.6240   46.0970 C   0  0  0  0  0  0  0  0  0  0  0  0
   28.9040   26.4550   47.0860 N   0  0  0  0  0  0  0  0  0  0  0  0
   29.1870   26.9530   48.3160 C   0  0  0  0  0  0  0  0  0  0  0  0
   35.5144   30.1276   48.2095 H   0  0  0  0  0  0  0  0  0  0  0  0
   34.4526   29.5007   51.1222 H   0  0  0  0  0  0  0  0  0  0  0  0
   33.2848   29.9678   50.1897 H   0  0  0  0  0  0  0  0  0  0  0  0
   34.8413   27.1424   49.6440 H   0  0  0  0  0  0  0  0  0  0  0  0
   36.7292   29.3855   50.6944 H   0  0  0  0  0  0  0  0  0  0  0  0
   37.2542   28.5240   49.2237 H   0  0  0  0  0  0  0  0  0  0  0  0
   37.8484   33.7993   50.0423 H   0  0  0  0  0  0  0  0  0  0  0  0
   39.2247   33.8077   47.9420 H   0  0  0  0  0  0  0  0  0  0  0  0
   39.3995   31.6487   46.6172 H   0  0  0  0  0  0  0  0  0  0  0  0
   27.5058   26.4803   49.5550 H   0  0  0  0  0  0  0  0  0  0  0  0
   28.8367   27.6917   51.4644 H   0  0  0  0  0  0  0  0  0  0  0  0
   29.6134   26.2282   45.0927 H   0  0  0  0  0  0  0  0  0  0  0  0
  1  3  1  0
  1  4  1  0
  1  2  1  0
  3  2  1  0
  5 10  2  0
  6  5  1  0
  7  8  1  0
  7  6  2  0
  8  9  2  0
  9  4  1  0
  9 10  1  0
 11  3  1  0
 12 11  2  0
 13 11  1  0
 14 15  1  0
 16 15  2  0
 17 16  1  0
 18 13  1  0
 18 17  2  0
 19 18  1  0
 20 19  2  0
 20 21  1  0
 21 22  2  0
 22 17  1  0
 22 14  1  0
  1 23  1  6
  2 24  1  0
  2 25  1  0
  3 26  1  1
  4 27  1  0
  4 28  1  0
  5 29  1  0
  6 30  1  0
  7 31  1  0
 14 32  1  0
 15 33  1  0
 20 34  1  0
M  ISO  8  23  13  24  13  25  13  26  13  27   8  28   8  29  14  30  14
M  ISO  4  31  14  32   9  33  14  34  14
M  END
>  <minimizedAffinity>  (1) 
-5.79928732

>  <minimizedRMSD>  (1) 
1.00111198

$$$$
