
     RDKit          3D

 30 32  0  0  1  0  0  0  0  0999 V2000
   35.3710   29.3940   49.0080 C   0  0  2  0  0  0  0  0  0  0  0  0
   34.2330   29.4300   49.9370 C   0  0  0  0  0  0  0  0  0  0  0  0
   34.5740   28.1280   49.3680 C   0  0  1  0  0  0  0  0  0  0  0  0
   36.7730   29.3650   49.6130 C   0  0  0  0  0  0  0  0  0  0  0  0
   38.3630   32.6610   49.4110 C   0  0  0  0  0  0  0  0  0  0  0  0
   38.8860   32.6750   48.1080 C   0  0  0  0  0  0  0  0  0  0  0  0
   38.6850   31.5390   47.3070 C   0  0  0  0  0  0  0  0  0  0  0  0
   37.9890   30.4800   47.8400 N   0  0  0  0  0  0  0  0  0  0  0  0
   37.5110   30.5170   49.0900 C   0  0  0  0  0  0  0  0  0  0  0  0
   37.7010   31.6100   49.8660 N   0  0  0  0  0  0  0  0  0  0  0  0
   33.5990   27.6200   48.3380 C   0  0  0  0  0  0  0  0  0  0  0  0
   33.9340   26.4860   47.8060 O   0  0  0  0  0  0  0  0  0  0  0  0
   32.4230   28.2330   47.9380 O   0  0  0  0  0  0  0  0  0  0  0  0
   31.2140   27.8050   48.4430 C   0  0  0  0  0  0  0  0  0  0  0  0
   30.5120   27.8000   49.6300 C   0  0  0  0  0  0  0  0  0  0  0  0
   29.3200   27.1660   49.3510 C   0  0  0  0  0  0  0  0  0  0  0  0
   29.2930   26.8000   48.0570 N   0  0  0  0  0  0  0  0  0  0  0  0
   30.4410   27.1870   47.5040 N   0  0  0  0  0  0  0  0  0  0  0  0
   35.6368   29.9741   48.1120 H   0  0  0  0  0  0  0  0  0  0  0  0
   34.4135   29.6168   51.0059 H   0  0  0  0  0  0  0  0  0  0  0  0
   33.3056   30.0202   49.9765 H   0  0  0  0  0  0  0  0  0  0  0  0
   34.8367   27.1307   49.7507 H   0  0  0  0  0  0  0  0  0  0  0  0
   36.7087   29.4283   50.7093 H   0  0  0  0  0  0  0  0  0  0  0  0
   37.2858   28.4284   49.3488 H   0  0  0  0  0  0  0  0  0  0  0  0
   38.5057   33.5359   50.0623 H   0  0  0  0  0  0  0  0  0  0  0  0
   39.4358   33.5481   47.7266 H   0  0  0  0  0  0  0  0  0  0  0  0
   39.0746   31.4976   46.2791 H   0  0  0  0  0  0  0  0  0  0  0  0
   30.8352   28.2147   50.5962 H   0  0  0  0  0  0  0  0  0  0  0  0
   28.5131   26.9866   50.0768 H   0  0  0  0  0  0  0  0  0  0  0  0
   28.5234   26.3091   47.5799 H   0  0  0  0  0  0  0  0  0  0  0  0
  1  3  1  0
  1  4  1  0
  1  2  1  0
  3  2  1  0
  5 10  2  0
  6  5  1  0
  7  8  1  0
  7  6  2  0
  8  9  2  0
  9  4  1  0
  9 10  1  0
 11  3  1  0
 12 11  2  0
 13 11  1  0
 13 14  1  0
 14 15  1  0
 16 15  2  0
 17 16  1  0
 18 17  1  0
 18 14  2  0
  1 19  1  6
  2 20  1  0
  2 21  1  0
  3 22  1  1
  4 23  1  0
  4 24  1  0
  5 25  1  0
  6 26  1  0
  7 27  1  0
 15 28  1  0
 16 29  1  0
 17 30  1  0
M  ISO  8  19  13  20  13  21  13  22  13  23   8  24   8  25  14  26  14
M  ISO  4  27  14  28  14  29  14  30   9
M  END
>  <minimizedAffinity>  (1) 
-5.09808779

>  <minimizedRMSD>  (1) 
1.33265269

$$$$
