
     RDKit          3D

 30 32  0  0  1  0  0  0  0  0999 V2000
   35.7960   29.7010   49.5800 C   0  0  2  0  0  0  0  0  0  0  0  0
   35.0220   29.2490   50.7460 C   0  0  0  0  0  0  0  0  0  0  0  0
   35.1010   28.3270   49.6210 C   0  0  1  0  0  0  0  0  0  0  0  0
   37.3180   29.5660   49.6530 C   0  0  0  0  0  0  0  0  0  0  0  0
   38.5680   32.9910   49.3370 C   0  0  0  0  0  0  0  0  0  0  0  0
   38.9960   33.0530   48.0000 C   0  0  0  0  0  0  0  0  0  0  0  0
   38.8460   31.8960   47.2180 C   0  0  0  0  0  0  0  0  0  0  0  0
   38.2930   30.7820   47.7990 N   0  0  0  0  0  0  0  0  0  0  0  0
   37.9010   30.7780   49.0780 C   0  0  0  0  0  0  0  0  0  0  0  0
   38.0430   31.8850   49.8350 N   0  0  0  0  0  0  0  0  0  0  0  0
   33.8370   28.1770   48.8200 C   0  0  0  0  0  0  0  0  0  0  0  0
   34.0330   27.9360   47.5610 O   0  0  0  0  0  0  0  0  0  0  0  0
   32.5440   28.2640   49.3080 O   0  0  0  0  0  0  0  0  0  0  0  0
   31.4970   27.7910   48.5350 C   0  0  0  0  0  0  0  0  0  0  0  0
   30.7870   26.6130   48.5770 C   0  0  0  0  0  0  0  0  0  0  0  0
   29.8780   26.6960   47.5790 N   0  0  0  0  0  0  0  0  0  0  0  0
   30.0030   27.8740   46.9310 C   0  0  0  0  0  0  0  0  0  0  0  0
   31.0140   28.5630   47.5240 N   0  0  0  0  0  0  0  0  0  0  0  0
   35.7836   30.6133   48.9656 H   0  0  0  0  0  0  0  0  0  0  0  0
   35.5471   29.0058   51.6815 H   0  0  0  0  0  0  0  0  0  0  0  0
   34.1841   29.6820   51.3121 H   0  0  0  0  0  0  0  0  0  0  0  0
   35.4246   27.2872   49.4655 H   0  0  0  0  0  0  0  0  0  0  0  0
   37.6346   29.4590   50.7010 H   0  0  0  0  0  0  0  0  0  0  0  0
   37.6526   28.6772   49.0979 H   0  0  0  0  0  0  0  0  0  0  0  0
   38.6716   33.8776   49.9798 H   0  0  0  0  0  0  0  0  0  0  0  0
   39.4318   33.9724   47.5819 H   0  0  0  0  0  0  0  0  0  0  0  0
   39.1641   31.8828   46.1651 H   0  0  0  0  0  0  0  0  0  0  0  0
   30.9293   25.7768   49.2774 H   0  0  0  0  0  0  0  0  0  0  0  0
   29.3970   28.2143   46.0784 H   0  0  0  0  0  0  0  0  0  0  0  0
   31.3524   29.4984   47.2568 H   0  0  0  0  0  0  0  0  0  0  0  0
  1  3  1  0
  1  4  1  0
  1  2  1  0
  3  2  1  0
  5 10  2  0
  6  5  1  0
  7  8  1  0
  7  6  2  0
  8  9  2  0
  9  4  1  0
  9 10  1  0
 11 13  1  0
 11  3  1  0
 12 11  2  0
 14 15  2  0
 14 13  1  0
 16 15  1  0
 17 18  1  0
 17 16  2  0
 18 14  1  0
  1 19  1  6
  2 20  1  0
  2 21  1  0
  3 22  1  1
  4 23  1  0
  4 24  1  0
  5 25  1  0
  6 26  1  0
  7 27  1  0
 15 28  1  0
 17 29  1  0
 18 30  1  0
M  ISO  8  19  13  20  13  21  13  22  13  23   8  24   8  25  14  26  14
M  ISO  4  27  14  28  14  29  14  30   9
M  END
>  <minimizedAffinity>  (1) 
-5.04011106

>  <minimizedRMSD>  (1) 
0.807363391

$$$$
