
     RDKit          3D

 35 36  0  0  1  0  0  0  0  0999 V2000
   35.5330   29.6200   49.3990 C   0  0  2  0  0  0  0  0  0  0  0  0
   34.6780   29.2630   50.5390 C   0  0  0  0  0  0  0  0  0  0  0  0
   34.7740   28.2820   49.4600 C   0  0  1  0  0  0  0  0  0  0  0  0
   37.0390   29.4240   49.5460 C   0  0  0  0  0  0  0  0  0  0  0  0
   38.3770   32.8310   49.4390 C   0  0  0  0  0  0  0  0  0  0  0  0
   38.9280   32.9220   48.1510 C   0  0  0  0  0  0  0  0  0  0  0  0
   38.8260   31.7870   47.3280 C   0  0  0  0  0  0  0  0  0  0  0  0
   38.2010   30.6680   47.8270 N   0  0  0  0  0  0  0  0  0  0  0  0
   37.6920   30.6480   49.0750 C   0  0  0  0  0  0  0  0  0  0  0  0
   37.7860   31.7370   49.8740 N   0  0  0  0  0  0  0  0  0  0  0  0
   33.5360   28.1610   48.6100 C   0  0  0  0  0  0  0  0  0  0  0  0
   33.7700   28.0960   47.3380 O   0  0  0  0  0  0  0  0  0  0  0  0
   32.2330   28.1070   49.0590 O   0  0  0  0  0  0  0  0  0  0  0  0
   31.1860   27.4500   48.4380 C   0  0  0  0  0  0  0  0  0  0  0  0
   31.6020   26.0360   48.0860 C   0  0  0  0  0  0  0  0  0  0  0  0
   30.6000   28.1210   47.2350 C   0  0  0  0  0  0  0  0  0  0  0  0
   30.0600   27.3730   49.4700 C   0  0  0  0  0  0  0  0  0  0  0  0
   35.5958   30.5048   48.7485 H   0  0  0  0  0  0  0  0  0  0  0  0
   35.1399   29.0423   51.5127 H   0  0  0  0  0  0  0  0  0  0  0  0
   33.8329   29.7608   51.0371 H   0  0  0  0  0  0  0  0  0  0  0  0
   35.0597   27.2242   49.3626 H   0  0  0  0  0  0  0  0  0  0  0  0
   37.2930   29.2454   50.6013 H   0  0  0  0  0  0  0  0  0  0  0  0
   37.3751   28.5561   48.9597 H   0  0  0  0  0  0  0  0  0  0  0  0
   38.4409   33.7024   50.1073 H   0  0  0  0  0  0  0  0  0  0  0  0
   39.4186   33.8421   47.8008 H   0  0  0  0  0  0  0  0  0  0  0  0
   39.2369   31.7936   46.3076 H   0  0  0  0  0  0  0  0  0  0  0  0
   31.7706   25.4628   49.0096 H   0  0  0  0  0  0  0  0  0  0  0  0
   30.8070   25.5559   47.4965 H   0  0  0  0  0  0  0  0  0  0  0  0
   32.5303   26.0629   47.4965 H   0  0  0  0  0  0  0  0  0  0  0  0
   29.9082   28.9131   47.5575 H   0  0  0  0  0  0  0  0  0  0  0  0
   31.4071   28.5623   46.6317 H   0  0  0  0  0  0  0  0  0  0  0  0
   30.0541   27.3807   46.6317 H   0  0  0  0  0  0  0  0  0  0  0  0
   30.4882   27.4023   50.4828 H   0  0  0  0  0  0  0  0  0  0  0  0
   29.3797   28.2267   49.3347 H   0  0  0  0  0  0  0  0  0  0  0  0
   29.5022   26.4346   49.3347 H   0  0  0  0  0  0  0  0  0  0  0  0
  1  3  1  0
  1  4  1  0
  1  2  1  0
  3  2  1  0
  5 10  2  0
  6  5  1  0
  7  8  1  0
  7  6  2  0
  8  9  2  0
  9  4  1  0
  9 10  1  0
 11 13  1  0
 11  3  1  0
 12 11  2  0
 14 13  1  0
 14 17  1  0
 15 14  1  0
 16 14  1  0
  1 18  1  6
  2 19  1  0
  2 20  1  0
  3 21  1  1
  4 22  1  0
  4 23  1  0
  5 24  1  0
  6 25  1  0
  7 26  1  0
 15 27  1  0
 15 28  1  0
 15 29  1  0
 16 30  1  0
 16 31  1  0
 16 32  1  0
 17 33  1  0
 17 34  1  0
 17 35  1  0
M  ISO  8  18  13  19  13  20  13  21  13  22   8  23   8  24  14  25  14
M  ISO  8  26  14  27   8  28   8  29   8  30   8  31   8  32   8  33   8
M  ISO  2  34   8  35   8
M  END
>  <minimizedAffinity>  (1) 
-4.97984695

>  <minimizedRMSD>  (1) 
0.869819522

$$$$
